data_PCOD9578967
_publ_section_title
;
Structure prediction by ZEFSAII (Michael W. Deem and Ramdas Pophale) SiO2 
 PCOD9578967
Probable space group: P -3 C 1
;
_chemical_formula_sum "Si O2"
_cell_formula_units_Z 72
_cell_length_a 14.157717
_cell_length_b 14.157717
_cell_length_c 20.069429
_cell_angle_alpha 90.000000
_cell_angle_beta 90.000000
_cell_angle_gamma 120.000000
_cell_volume 3483.791073
_symmetry_space_group_name_H-M "P -3 C 1"
_symmetry_group_IT_number 165
_symmetry_cell_setting 'hexagonal'
loop_
_space_group_symop_operation_xyz
x,y,z
-y,x-y,z
-x+y,-x,z
x-y,-y,1/2-z
-x,-x+y,1/2-z
y,x,1/2-z
-x,-y,-z
y,-x+y,-z
x-y,x,-z
-x+y,y,1/2+z
x,x-y,1/2+z
-y,-x,1/2+z
loop_
_atom_site_type_symbol
_atom_site_label
_atom_site_fract_x
_atom_site_fract_y
_atom_site_fract_z
Si Si1 0.748796 0.902172 0.995077
Si Si2 0.221389 0.410490 0.616825
Si Si3 0.576731 0.124545 0.426622
Si Si4 0.128291 0.259757 0.246394
Si Si5 0.535396 0.411263 0.075778
Si Si6 0.835335 0.244112 0.125827
O O1 0.660696 0.837536 0.051868
O O2 0.809967 0.834037 0.982168
O O3 0.682633 0.902030 0.930147
O O4 0.191346 0.506341 0.616167
O O5 0.350707 0.473046 0.606759
O O6 0.176123 0.330675 0.679251
O O7 0.585999 0.167468 0.502327
O O8 0.553951 0.002144 0.433546
O O9 0.201495 0.201495 0.250000
O O10 0.152248 0.344182 0.306644
O O11 0.000000 0.170357 0.250000
O O12 0.629445 0.498643 0.123640
O O13 0.474882 0.290583 0.103674
#
# Coordination Sequence:
#
# PCOD9578967 Si02
#       6
#    12  12  12  12  12  12
#     4  12  23  40  64  96 132 178 237 296 348 404
#     4  12  25  42  69  99 136 181 231 282 346 419
#     4  11  21  39  66  96 129 168 217 284 348 400
#     4  12  27  48  70 100 142 190 237 288 346 410
#     4  11  21  39  66  96 129 168 217 284 348 400
#     4  12  25  42  69  99 136 181 231 282 346 419
#
# _framework density 20.667141000000001
#
# number of rings (size 3 to 8) (size 9 to 14) (size 15 to 20)
#    0.000    0.333    3.333    7.000    0.000    1.333 
#    0.000    6.667    0.000    0.000    0.000    0.000 
#    0.000    0.000    0.000    0.000    0.000    0.000 
#
# Total GULP energy -402975.579739 kJ/mol
# GULP energy per Si atom -5596.883052 kJ/mol
# Density = 2.062010 g / cm^3
# Si number density = 20.667141 Si / 1000 Ang^3
#
#
#
# Elastic Constant Matrix: (Units=GPa)
#
#
# Indices 1 2 3 4 5 6 
#
# 1 92.1281 11.1868 3.8039 -4.4112 0.0000 0.0000
# 2 11.1868 92.1281 3.8039 4.4112 0.0000 0.0000
# 3 3.8039 3.8039 82.0515 0.0000 0.0000 0.0000
# 4 -4.4112 4.4112 0.0000 18.4882 0.0000 0.0000
# 5 0.0000 0.0000 0.0000 0.0000 18.4882 -4.4112
# 6 0.0000 0.0000 0.0000 0.0000 -4.4112 40.4707
#
#
#
# Elastic Compliance Matrix: (Units=1/GPa)
#
#
# Indices 1 2 3 4 5 6 
#
# 1 0.011198 -0.001486 -0.000450 0.003026 0.000000 0.000000
# 2 -0.001486 0.011198 -0.000450 -0.003026 0.000000 0.000000
# 3 -0.000450 -0.000450 0.012229 0.000000 0.000000 0.000000
# 4 0.003026 -0.003026 0.000000 0.055533 0.000000 0.000000
# 5 0.000000 0.000000 0.000000 0.000000 0.055533 0.006053
# 6 0.000000 0.000000 0.000000 0.000000 0.006053 0.025369
#
#
# Mechanical properties :
#
#
# Convention : Reuss Voigt Hill
#
# Bulk Modulus (GPa) = 33.49770 33.76629 33.63200
# Shear Modulus (GPa) = 26.91284 31.99028 29.45156
#
# Velocity S-wave (km/s) = 3.61252 3.93858 3.77907
# Velocity P-wave (km/s) = 5.80033 6.08743 5.94561
#
# Compressibility (1/GPa) = 0.02985280
#
# Stress axis : x y z
#
# Youngs Moduli (GPa) = 89.29844 89.29844 81.77140
#
# Poissons Ratio (x) = 0.13271 0.03682
# Poissons Ratio (y) = 0.13271 0.03682
# Poissons Ratio (z) = 0.04021 0.04021
#
# Static dielectric constant tensor:
#      x y z
#    x 1.738440 0.000000 0.000000 
#    y 0.000000 1.738440 0.000000 
#    z 0.000000 0.000000 1.708040 
# 
# From -- ./inp_files/2279.got.cif
#   From: 2010.05.17/outbox.cif.g08.bks.cpg/sg165_2_cif.got.tgz:2279.got - 2010.05.20 11:02:39.
