data_PCOD9578862
_publ_section_title
;
Structure prediction by ZEFSAII (Michael W. Deem and Ramdas Pophale) SiO2 
 PCOD9578862
Probable space group: P -3 C 1
;
_chemical_formula_sum "Si O2"
_cell_formula_units_Z 74
_cell_length_a 12.215961
_cell_length_b 12.215961
_cell_length_c 29.586643
_cell_angle_alpha 90.000000
_cell_angle_beta 90.000000
_cell_angle_gamma 120.000000
_cell_volume 3823.680518
_symmetry_space_group_name_H-M "P -3 C 1"
_symmetry_group_IT_number 165
_symmetry_cell_setting 'hexagonal'
loop_
_space_group_symop_operation_xyz
x,y,z
-y,x-y,z
-x+y,-x,z
x-y,-y,1/2-z
-x,-x+y,1/2-z
y,x,1/2-z
-x,-y,-z
y,-x+y,-z
x-y,x,-z
-x+y,y,1/2+z
x,x-y,1/2+z
-y,-x,1/2+z
loop_
_atom_site_type_symbol
_atom_site_label
_atom_site_fract_x
_atom_site_fract_y
_atom_site_fract_z
Si Si1 0.333334 0.666668 0.599618
Si Si2 0.737833 0.994633 0.882940
Si Si3 0.400010 0.928423 0.960907
Si Si4 0.666667 0.333334 0.508206
Si Si5 0.247624 0.005002 0.848294
Si Si6 0.013618 0.758010 0.990395
Si Si7 0.478900 0.960071 0.629374
Si Si8 0.856827 0.856827 0.750000
O O1 0.333334 0.666667 0.545379
O O2 0.408277 0.811963 0.615728
O O3 0.711970 0.991616 0.937511
O O4 0.628361 0.008097 0.855796
O O5 0.873173 0.119966 0.871038
O O6 0.738872 0.865153 0.870352
O O7 0.317501 0.782247 0.974158
O O8 0.460878 0.946740 0.913213
O O9 0.333900 0.010601 0.966134
O O10 0.500000 0.000000 0.000000
O O11 0.210497 0.001541 0.795961
O O12 0.387656 0.019128 0.848697
O O13 0.889650 0.760420 0.000475
O O14 0.000000 0.881455 0.750000
#
# Coordination Sequence:
#
# PCOD9578862 Si02
#       8
#     4  12  12   4  12  12  12   6
#     4  12  21  42  63  87 133 179 232 279 333 405
#     4  12  23  44  67  98 138 177 236 290 335 400
#     4  12  23  38  55  85 124 179 235 271 320 382
#     4  12  24  36  57  81 118 182 235 276 330 381
#     4  12  25  45  76 104 129 175 223 284 354 420
#     4  12  24  38  56  87 130 177 228 280 329 376
#     4  12  26  41  64  99 139 178 229 287 337 401
#     4  10  20  48  80 110 130 158 216 278 346 434
#
# _framework density 19.353081
#
# number of rings (size 3 to 8) (size 9 to 14) (size 15 to 20)
#    0.162    0.000    6.486    4.378    2.270    0.000 
#    0.973    1.622    0.000    0.000    0.000    0.000 
#    0.000    0.000    0.000    0.000    0.000    0.000 
#
# Total GULP energy -411978.533361 kJ/mol
# GULP energy per Si atom -5567.277478 kJ/mol
# Density = 1.930903 g / cm^3
# Si number density = 19.353081 Si / 1000 Ang^3
#
#
#
# Elastic Constant Matrix: (Units=GPa)
#
#
# Indices 1 2 3 4 5 6 
#
# 1 107.0890 29.9001 22.1508 3.8780 0.0000 0.0000
# 2 29.9001 107.0899 22.1509 -3.8781 0.0000 0.0000
# 3 22.1508 22.1509 79.9468 -0.0001 0.0000 0.0000
# 4 3.8780 -3.8781 -0.0001 26.5737 0.0000 0.0000
# 5 0.0000 0.0000 0.0000 0.0000 26.5734 3.8781
# 6 0.0000 0.0000 0.0000 0.0000 3.8781 38.5944
#
#
#
# Elastic Compliance Matrix: (Units=1/GPa)
#
#
# Indices 1 2 3 4 5 6 
#
# 1 0.010583 -0.002565 -0.002222 -0.001919 0.000000 0.000000
# 2 -0.002565 0.010583 -0.002222 0.001919 0.000000 0.000000
# 3 -0.002222 -0.002222 0.013739 0.000000 0.000000 0.000000
# 4 -0.001919 0.001919 0.000000 0.038191 0.000000 0.000000
# 5 0.000000 0.000000 0.000000 0.000000 0.038192 -0.003838
# 6 0.000000 0.000000 0.000000 0.000000 -0.003838 0.026296
#
#
# Mechanical properties :
#
#
# Convention : Reuss Voigt Hill
#
# Bulk Modulus (GPa) = 47.87099 49.16993 48.52046
# Shear Modulus (GPa) = 31.53300 33.00990 32.27145
#
# Velocity S-wave (km/s) = 4.04090 4.13445 4.08795
# Velocity P-wave (km/s) = 6.82357 6.94647 6.88530
#
# Compressibility (1/GPa) = 0.02088948
#
# Stress axis : x y z
#
# Youngs Moduli (GPa) = 94.48970 94.49049 72.78340
#
# Poissons Ratio (x) = 0.24235 0.16170
# Poissons Ratio (y) = 0.24235 0.16170
# Poissons Ratio (z) = 0.20992 0.20992
#
# Static dielectric constant tensor:
#      x y z
#    x 1.414710 0.000000 0.000000 
#    y 0.000000 1.414670 0.000000 
#    z 0.000000 0.000000 1.650870 
# 
# From -- ./inp_files/3344.got.cif
#   From: 2010.05.17/outbox.cif.g08.bks.cpg/sg165_2_cif.got.tgz:3344.got - 2010.05.20 11:02:39.
