data_PCOD9578786
_publ_section_title
;
Structure prediction by ZEFSAII (Michael W. Deem and Ramdas Pophale) SiO2 
 PCOD9578786
Probable space group: P -3 C 1
;
_chemical_formula_sum "Si O2"
_cell_formula_units_Z 60
_cell_length_a 29.535583
_cell_length_b 29.535583
_cell_length_c 4.987166
_cell_angle_alpha 90.000000
_cell_angle_beta 90.000000
_cell_angle_gamma 120.000000
_cell_volume 3767.693374
_symmetry_space_group_name_H-M "P -3 C 1"
_symmetry_group_IT_number 165
_symmetry_cell_setting 'hexagonal'
loop_
_space_group_symop_operation_xyz
x,y,z
-y,x-y,z
-x+y,-x,z
x-y,-y,1/2-z
-x,-x+y,1/2-z
y,x,1/2-z
-x,-y,-z
y,-x+y,-z
x-y,x,-z
-x+y,y,1/2+z
x,x-y,1/2+z
-y,-x,1/2+z
loop_
_atom_site_type_symbol
_atom_site_label
_atom_site_fract_x
_atom_site_fract_y
_atom_site_fract_z
Si Si1 0.375182 0.943092 0.298648
Si Si2 0.687801 0.057424 0.195397
Si Si3 0.601684 0.143599 0.939204
Si Si4 0.230391 0.713134 0.432528
Si Si5 0.775941 0.608772 0.585806
O O1 0.351753 0.936656 0.596843
O O2 0.384716 0.898332 0.183769
O O3 0.425903 0.000000 0.250000
O O4 0.332260 0.943569 0.103806
O O5 0.743977 0.108787 0.199460
O O6 0.679220 0.000000 0.250000
O O7 0.555746 0.137840 0.744155
O O8 0.655275 0.198757 0.948826
O O9 0.278162 0.748074 0.631893
O O10 0.190897 0.736593 0.421764
O O11 0.797808 0.621152 0.286128
#
# Coordination Sequence:
#
# PCOD9578786 Si02
#       5
#    12  12  12  12  12
#     4  10  21  35  51  71 102 132 155 179 217 277
#     4  10  19  33  51  71 103 134 154 185 235 281
#     4  12  24  36  55  75  97 118 152 185 222 283
#     4  10  21  36  56  72  91 111 141 187 234 271
#     4  10  19  30  52  77  94 117 158 198 224 260
#
# _framework density 15.924863
#
# number of rings (size 3 to 8) (size 9 to 14) (size 15 to 20)
#    0.000    1.600    2.000    3.600    5.600    0.800 
#    0.000    0.000    0.000    8.000    0.000    0.000 
#    0.000    0.000    0.000    0.000    0.000    0.000 
#
# Total GULP energy -334408.576608 kJ/mol
# GULP energy per Si atom -5573.476277 kJ/mol
# Density = 1.588862 g / cm^3
# Si number density = 15.924863 Si / 1000 Ang^3
#
#
#
# Elastic Constant Matrix: (Units=GPa)
#
#
# Indices 1 2 3 4 5 6 
#
# 1 27.9095 14.8352 2.0757 1.9186 0.0000 0.0000
# 2 14.8352 27.9095 2.0757 -1.9186 0.0000 0.0000
# 3 2.0757 2.0757 72.1050 0.0000 0.0000 0.0000
# 4 1.9186 -1.9186 0.0000 17.4596 0.0000 0.0000
# 5 0.0000 0.0000 0.0000 0.0000 17.4596 1.9186
# 6 0.0000 0.0000 0.0000 0.0000 1.9186 6.5371
#
#
#
# Elastic Compliance Matrix: (Units=1/GPa)
#
#
# Indices 1 2 3 4 5 6 
#
# 1 0.051248 -0.027787 -0.000675 -0.008685 0.000000 0.000000
# 2 -0.027787 0.051248 -0.000675 0.008685 0.000000 0.000000
# 3 -0.000675 -0.000675 0.013908 0.000000 0.000000 0.000000
# 4 -0.008685 0.008685 0.000000 0.059184 0.000000 0.000000
# 5 0.000000 0.000000 0.000000 0.000000 0.059184 -0.017370
# 6 0.000000 0.000000 0.000000 0.000000 -0.017370 0.158070
#
#
# Mechanical properties :
#
#
# Convention : Reuss Voigt Hill
#
# Bulk Modulus (GPa) = 17.20380 18.43303 17.81841
# Shear Modulus (GPa) = 10.62715 15.55374 13.09045
#
# Velocity S-wave (km/s) = 2.58608 3.12860 2.87019
# Velocity P-wave (km/s) = 4.44338 4.96498 4.71140
#
# Compressibility (1/GPa) = 0.05812671
#
# Stress axis : x y z
#
# Youngs Moduli (GPa) = 19.51307 19.51307 71.90337
#
# Poissons Ratio (x) = 0.54222 0.04856
# Poissons Ratio (y) = 0.54222 0.04856
# Poissons Ratio (z) = 0.01318 0.01318
#
# Static dielectric constant tensor:
#      x y z
#    x 1.563630 0.000000 0.000000 
#    y 0.000000 1.563630 0.000000 
#    z 0.000000 0.000000 1.541070 
# 
# From -- ./inp_files/187.got.cif
#   From: 2010.05.17/outbox.cif.g08.bks.cpg/sg165_1_cif.got.tgz:187.got - 2010.05.20 11:02:39.
