data_PCOD9578708
_publ_section_title
;
Structure prediction by ZEFSAII (Michael W. Deem and Ramdas Pophale) SiO2 
 PCOD9578708
Probable space group: P -3 M 1
;
_chemical_formula_sum "Si O2"
_cell_formula_units_Z 54
_cell_length_a 19.081580
_cell_length_b 19.081580
_cell_length_c 7.359364
_cell_angle_alpha 90.000000
_cell_angle_beta 90.000000
_cell_angle_gamma 120.000000
_cell_volume 2320.596221
_symmetry_space_group_name_H-M "P -3 M 1"
_symmetry_group_IT_number 164
_symmetry_cell_setting 'hexagonal'
loop_
_space_group_symop_operation_xyz
x,y,z
-y,x-y,z
-x+y,-x,z
x-y,-y,-z
-x,-x+y,-z
y,x,-z
-x,-y,-z
y,-x+y,-z
x-y,x,-z
-x+y,y,z
x,x-y,z
-y,-x,z
loop_
_atom_site_type_symbol
_atom_site_label
_atom_site_fract_x
_atom_site_fract_y
_atom_site_fract_z
Si Si1 0.193407 0.223659 0.198701
Si Si2 0.880605 0.940303 0.610647
Si Si3 0.506324 0.333162 0.264235
Si Si4 0.995765 0.627955 0.719603
Si Si5 0.510786 0.333372 0.706869
O O1 0.123163 0.246326 0.223190
O O2 0.181549 0.152627 0.332070
O O3 0.281180 0.299360 0.222443
O O4 0.185067 0.185067 0.000000
O O5 0.956217 0.912433 0.618885
O O6 0.490915 0.245458 0.204371
O O7 0.594418 0.405583 0.208656
O O8 0.438349 0.356048 0.210985
O O9 0.506081 0.331556 0.485872
O O10 0.000000 0.627051 0.500000
O O11 0.914130 0.546511 0.772507
O O12 0.486305 0.243153 0.766374
O O13 0.602667 0.397334 0.755932
#
# Coordination Sequence:
#
# PCOD9578708 Si02
#       5
#    12   6  12  12  12
#     4  12  26  42  60  86 122 162 202 247 304 364
#     4  12  25  42  66  90 113 154 205 258 305 348
#     4   9  17  29  50  80 117 156 202 259 316 365
#     4  10  21  35  56  85 120 156 201 252 308 364
#     4   9  16  29  50  81 117 156 202 258 316 362
#
# _framework density 23.269881000000002
#
# number of rings (size 3 to 8) (size 9 to 14) (size 15 to 20)
#    0.000    1.778    2.222    2.556    1.556    5.333 
#    0.000    1.111    0.000    2.667    0.000    0.000 
#    0.000    3.556    0.000    0.000    0.000    0.000 
#
# Total GULP energy -300811.153317 kJ/mol
# GULP energy per Si atom -5570.576913 kJ/mol
# Density = 2.321692 g / cm^3
# Si number density = 23.269881 Si / 1000 Ang^3
#
#
#
# Elastic Constant Matrix: (Units=GPa)
#
#
# Indices 1 2 3 4 5 6 
#
# 1 168.6551 74.0267 3.1555 3.5957 0.0000 0.0000
# 2 74.0267 168.6551 3.1555 -3.5957 0.0000 0.0000
# 3 3.1555 3.1555 83.1939 0.0000 0.0000 0.0000
# 4 3.5957 -3.5957 0.0000 -4.0962 0.0000 0.0000
# 5 0.0000 0.0000 0.0000 0.0000 -4.0962 3.5957
# 6 0.0000 0.0000 0.0000 0.0000 3.5957 47.3142
#
#
#
# Elastic Compliance Matrix: (Units=1/GPa)
#
#
# Indices 1 2 3 4 5 6 
#
# 1 0.007016 -0.002891 -0.000156 0.008696 0.000000 0.000000
# 2 -0.002891 0.007016 -0.000156 -0.008696 0.000000 0.000000
# 3 -0.000156 -0.000156 0.012032 0.000000 0.000000 0.000000
# 4 0.008696 -0.008696 0.000000 -0.228860 0.000000 0.000000
# 5 0.000000 0.000000 0.000000 0.000000 -0.228860 0.017393
# 6 0.000000 0.000000 0.000000 0.000000 0.017393 0.019814
#
#
# Mechanical properties :
#
#
# Convention : Reuss Voigt Hill
#
# Bulk Modulus (GPa) = 50.87614 64.57549 57.72582
# Shear Modulus (GPa) = -12.53501 30.50212 8.98356
#
# Velocity S-wave (km/s) = -2.32346 3.62442 1.96697
# Velocity P-wave (km/s) = 3.83575 6.73247 5.47901
#
# Compressibility (1/GPa) = 0.01965558
#
# Stress axis : x y z
#
# Youngs Moduli (GPa) = 142.53701 142.53701 83.11179
#
# Poissons Ratio (x) = 0.41208 0.01300
# Poissons Ratio (y) = 0.41208 0.01300
# Poissons Ratio (z) = 0.02230 0.02230
#
# Static dielectric constant tensor:
#      x y z
#    x 1.834020 0.000000 0.000000 
#    y 0.000000 1.834020 0.000000 
#    z 0.000000 0.000000 1.968070 
# 
# From -- ./inp_files/2605.got.cif
#   From: 2010.05.17/outbox.cif.g08.bks.cpg/sg164_2_cif.got.tgz:2605.got - 2010.05.20 10:58:56.
