data_PCOD9578149
_publ_section_title
;
Structure prediction by ZEFSAII (Michael W. Deem and Ramdas Pophale) SiO2 
 PCOD9578149
Probable space group: P -3 1 C
;
_chemical_formula_sum "Si O2"
_cell_formula_units_Z 48
_cell_length_a 13.567444
_cell_length_b 13.567444
_cell_length_c 14.018335
_cell_angle_alpha 90.000000
_cell_angle_beta 90.000000
_cell_angle_gamma 120.000000
_cell_volume 2234.720131
_symmetry_space_group_name_H-M "P -3 1 C"
_symmetry_group_IT_number 163
_symmetry_cell_setting 'hexagonal'
loop_
_space_group_symop_operation_xyz
x,y,z
-y,x-y,z
-x+y,-x,z
-y,-x,1/2-z
-x+y,y,1/2-z
x,x-y,1/2-z
-x,-y,-z
y,-x+y,-z
x-y,x,-z
y,x,1/2+z
x-y,-y,1/2+z
-x,-x+y,1/2+z
loop_
_atom_site_type_symbol
_atom_site_label
_atom_site_fract_x
_atom_site_fract_y
_atom_site_fract_z
Si Si1 0.174145 0.951347 0.046615
Si Si2 0.587381 0.873939 0.593038
Si Si3 0.956322 0.272401 0.734061
Si Si4 0.885524 0.385866 0.155004
O O1 0.207130 0.991262 0.154990
O O2 0.248319 0.898867 0.006964
O O3 0.047406 0.855168 0.027724
O O4 0.479201 0.891078 0.583418
O O5 0.546155 0.744198 0.624815
O O6 0.675670 0.962536 0.672721
O O7 0.823299 0.176702 0.750000
O O8 0.993070 0.392277 0.682017
O O9 0.842076 0.421038 0.250000
#
# Coordination Sequence:
#
# PCOD9578149 Si02
#       4
#    12  12  12  12
#     4  12  25  42  66  99 137 182 229 274 343 407
#     4  11  23  43  70 101 136 171 225 289 335 406
#     4  11  22  40  64  93 136 177 216 275 339 400
#     4  10  21  38  69  99 125 170 223 280 339 382
#
# _framework density 21.479199000000001
#
# number of rings (size 3 to 8) (size 9 to 14) (size 15 to 20)
#    0.000    1.000    5.000    3.750    0.000    3.000 
#    0.000    0.000    0.000   13.500    0.000    0.000 
#    0.000    0.000    0.000    0.000    0.000    0.000 
#
# Total GULP energy -267348.589441 kJ/mol
# GULP energy per Si atom -5569.762280 kJ/mol
# Density = 2.143031 g / cm^3
# Si number density = 21.479199 Si / 1000 Ang^3
#
#
#
# Elastic Constant Matrix: (Units=GPa)
#
#
# Indices 1 2 3 4 5 6 
#
# 1 105.2157 94.0834 25.4030 -0.0006 64.3148 0.0000
# 2 94.0834 105.2157 25.4030 0.0006 -64.3148 0.0000
# 3 25.4030 25.4030 55.9904 0.0000 0.0000 0.0000
# 4 -0.0006 0.0006 0.0000 -88.7670 0.0000 -64.3148
# 5 64.3148 -64.3148 0.0000 0.0000 -88.7670 -0.0006
# 6 0.0000 0.0000 0.0000 -64.3148 -0.0006 5.5661
#
#
#
# Elastic Compliance Matrix: (Units=1/GPa)
#
#
# Indices 1 2 3 4 5 6 
#
# 1 0.007629 -0.001956 -0.002574 0.000000 0.006945 0.000000
# 2 -0.001956 0.007629 -0.002574 0.000000 -0.006945 0.000000
# 3 -0.002574 -0.002574 0.020196 0.000000 0.000000 0.000000
# 4 0.000000 0.000000 0.000000 -0.001202 0.000000 -0.013889
# 5 0.006945 -0.006945 0.000000 0.000000 -0.001202 0.000000
# 6 0.000000 0.000000 0.000000 -0.013889 0.000000 0.019170
#
#
# Mechanical properties :
#
#
# Convention : Reuss Voigt Hill
#
# Bulk Modulus (GPa) = 47.06590 61.80006 54.43298
# Shear Modulus (GPa) = 68.01664 -26.29144 20.86260
#
# Velocity S-wave (km/s) = 5.63339 -3.50243 3.11994
# Velocity P-wave (km/s) = 8.01706 3.53250 6.19483
#
# Compressibility (1/GPa) = 0.02124680
#
# Stress axis : x y z
#
# Youngs Moduli (GPa) = 131.07118 131.07118 49.51454
#
# Poissons Ratio (x) = 0.25633 0.12746
# Poissons Ratio (y) = 0.25633 0.12746
# Poissons Ratio (z) = 0.33741 0.33741
#
# Static dielectric constant tensor:
#      x y z
#    x 1.830480 0.000000 0.000000 
#    y 0.000000 1.830480 0.000000 
#    z 0.000000 0.000000 1.733220 
# 
# From -- ./inp_files/2235.got.cif
#   From: 2010.05.17/outbox.cif.g08.bks.cpg/sg163_2_cif.got.tgz:2235.got - 2010.05.20 10:56:03.
