data_PCOD9578207
_publ_section_title
;
Structure prediction by ZEFSAII (Michael W. Deem and Ramdas Pophale) SiO2 
 PCOD9578207
Probable space group: P -3 1 C
;
_chemical_formula_sum "Si O2"
_cell_formula_units_Z 60
_cell_length_a 16.665289
_cell_length_b 16.665289
_cell_length_c 11.299165
_cell_angle_alpha 90.000000
_cell_angle_beta 90.000000
_cell_angle_gamma 120.000000
_cell_volume 2717.707301
_symmetry_space_group_name_H-M "P -3 1 C"
_symmetry_group_IT_number 163
_symmetry_cell_setting 'hexagonal'
loop_
_space_group_symop_operation_xyz
x,y,z
-y,x-y,z
-x+y,-x,z
-y,-x,1/2-z
-x+y,y,1/2-z
x,x-y,1/2-z
-x,-y,-z
y,-x+y,-z
x-y,x,-z
y,x,1/2+z
x-y,-y,1/2+z
-x,-x+y,1/2+z
loop_
_atom_site_type_symbol
_atom_site_label
_atom_site_fract_x
_atom_site_fract_y
_atom_site_fract_z
Si Si1 0.338332 0.080378 0.284794
Si Si2 0.914796 0.565405 0.451668
Si Si3 0.825046 0.608718 0.886637
Si Si4 0.624605 0.112855 0.042921
Si Si5 0.204032 0.166347 0.013639
O O1 0.310859 0.155430 0.250000
O O2 0.372917 0.052212 0.167510
O O3 0.433420 0.135570 0.359284
O O4 0.252171 0.017438 0.372457
O O5 0.851629 0.591118 0.530061
O O6 0.865720 0.455677 0.425507
O O7 0.002354 0.582696 0.530295
O O8 0.803510 0.607020 0.750000
O O9 0.846136 0.526876 0.921996
O O10 0.910597 0.708941 0.924495
O O11 0.116200 0.174041 0.969002
#
# Coordination Sequence:
#
# PCOD9578207 Si02
#       5
#    12  12  12  12  12
#     4  11  22  42  70  95 129 176 224 280 336 407
#     4  11  23  44  67  98 129 169 225 275 339 404
#     4  11  24  42  68  97 137 180 220 274 344 413
#     4  10  24  40  69  98 128 169 221 277 330 408
#     4  11  25  43  68 101 138 187 235 291 345 405
#
# _framework density 22.077432999999999
#
# number of rings (size 3 to 8) (size 9 to 14) (size 15 to 20)
#    0.000    1.200    4.000    3.200    5.600    0.800 
#    1.200    0.000    0.000    2.400    0.000    0.000 
#    0.000    0.000    0.000    0.000    0.000    0.000 
#
# Total GULP energy -334684.834924 kJ/mol
# GULP energy per Si atom -5578.080582 kJ/mol
# Density = 2.202718 g / cm^3
# Si number density = 22.077433 Si / 1000 Ang^3
#
#
#
# Elastic Constant Matrix: (Units=GPa)
#
#
# Indices 1 2 3 4 5 6 
#
# 1 193.4835 -29.6615 41.6593 -0.0009 -17.5931 0.0000
# 2 -29.6615 193.4835 41.6593 0.0009 17.5931 0.0000
# 3 41.6593 41.6593 105.5790 0.0000 0.0000 0.0000
# 4 -0.0009 0.0009 0.0000 20.9051 0.0000 17.5931
# 5 -17.5931 17.5931 0.0000 0.0000 20.9051 -0.0009
# 6 0.0000 0.0000 0.0000 17.5931 -0.0009 111.5725
#
#
#
# Elastic Compliance Matrix: (Units=1/GPa)
#
#
# Indices 1 2 3 4 5 6 
#
# 1 0.006402 0.001235 -0.003013 0.000000 0.004348 0.000000
# 2 0.001235 0.006402 -0.003013 0.000000 -0.004348 0.000000
# 3 -0.003013 -0.003013 0.011850 0.000000 0.000000 0.000000
# 4 0.000000 0.000000 0.000000 0.055154 0.000000 -0.008697
# 5 0.004348 -0.004348 0.000000 0.000000 0.055154 0.000000
# 6 0.000000 0.000000 0.000000 -0.008697 0.000000 0.010334
#
#
# Mechanical properties :
#
#
# Convention : Reuss Voigt Hill
#
# Bulk Modulus (GPa) = 66.35781 66.65115 66.50448
# Shear Modulus (GPa) = 31.26897 59.93578 45.60238
#
# Velocity S-wave (km/s) = 3.76750 5.21603 4.54978
# Velocity P-wave (km/s) = 7.00339 8.15666 7.60193
#
# Compressibility (1/GPa) = 0.01506982
#
# Stress axis : x y z
#
# Youngs Moduli (GPa) = 156.20366 156.20366 84.39141
#
# Poissons Ratio (x) = -0.19288 0.25430
# Poissons Ratio (y) = -0.19288 0.25430
# Poissons Ratio (z) = 0.47069 0.47069
#
# Static dielectric constant tensor:
#      x y z
#    x 1.774800 0.000000 0.000000 
#    y 0.000000 1.774800 0.000000 
#    z 0.000000 0.000000 2.351980 
# 
# From -- ./inp_files/1725.got.cif
#   From: 2010.05.17/outbox.cif.g08.bks.cpg/sg163_1_cif.got.tgz:1725.got - 2010.05.20 10:56:03.
