data_PCOD9578519
_publ_section_title
;
Structure prediction by ZEFSAII (Michael W. Deem and Ramdas Pophale) SiO2 
 PCOD9578519
Probable space group: P -3 M 1
;
_chemical_formula_sum "Si O2"
_cell_formula_units_Z 84
_cell_length_a 20.035926
_cell_length_b 20.035926
_cell_length_c 12.911155
_cell_angle_alpha 90.000000
_cell_angle_beta 90.000000
_cell_angle_gamma 120.000000
_cell_volume 4488.637823
_symmetry_space_group_name_H-M "P -3 M 1"
_symmetry_group_IT_number 164
_symmetry_cell_setting 'hexagonal'
loop_
_space_group_symop_operation_xyz
x,y,z
-y,x-y,z
-x+y,-x,z
x-y,-y,-z
-x,-x+y,-z
y,x,-z
-x,-y,-z
y,-x+y,-z
x-y,x,-z
-x+y,y,z
x,x-y,z
-y,-x,z
loop_
_atom_site_type_symbol
_atom_site_label
_atom_site_fract_x
_atom_site_fract_y
_atom_site_fract_z
Si Si1 0.739037 0.942306 0.842840
Si Si2 0.331927 0.822899 0.539481
Si Si3 0.911171 0.675929 0.923995
Si Si4 0.906938 0.530182 0.672199
Si Si5 0.601831 0.928334 0.718597
Si Si6 0.627339 0.106627 0.899486
Si Si7 0.819469 0.485321 0.120220
O O1 0.776380 0.888190 0.829287
O O2 0.676202 0.924120 0.754623
O O3 0.786915 0.034138 0.858689
O O4 0.696273 0.918882 0.954775
O O5 0.415063 0.830125 0.555771
O O6 0.264883 0.735118 0.547124
O O7 0.331934 0.856512 0.425868
O O8 0.318288 0.872955 0.624479
O O9 0.822411 0.644822 0.895115
O O10 0.937693 0.613111 0.907766
O O11 0.931825 0.465913 0.654396
O O12 0.862228 0.508447 0.782073
O O13 0.984927 0.610749 0.687639
O O14 0.543046 0.895474 0.816026
O O15 0.534073 0.068146 0.907014
O O16 0.659139 0.163362 0.997397
O O17 0.750949 0.501898 0.145852
O O18 0.797029 0.398515 0.147384
#
# Coordination Sequence:
#
# PCOD9578519 Si02
#       7
#    12  12  12  12  12  12  12
#     4  10  20  34  54  84 115 145 183 231 289 343
#     4  11  24  41  60  79 104 141 185 232 279 331
#     4  10  19  35  56  80 114 155 195 232 278 344
#     4  10  22  39  56  77 104 140 187 233 279 323
#     4  12  21  36  56  82 107 142 179 226 281 334
#     4  10  20  34  53  81 113 148 192 234 273 324
#     4  11  22  34  51  77 112 148 182 226 278 332
#
# _framework density 18.713918
#
# number of rings (size 3 to 8) (size 9 to 14) (size 15 to 20)
#    0.000    1.429    2.857    3.714    0.000    2.857 
#    0.000    5.000    0.000    2.286    0.000    2.000 
#    0.000    0.000    0.000    0.000    0.000    5.286 
#
# Total GULP energy -468277.167489 kJ/mol
# GULP energy per Si atom -5574.728184 kJ/mol
# Density = 1.867132 g / cm^3
# Si number density = 18.713918 Si / 1000 Ang^3
#
#
#
# Elastic Constant Matrix: (Units=GPa)
#
#
# Indices 1 2 3 4 5 6 
#
# 1 51.5103 10.4709 7.2633 -0.6150 0.0000 0.0000
# 2 10.4709 51.5103 7.2633 0.6150 0.0000 0.0000
# 3 7.2633 7.2633 90.3430 0.0000 0.0000 0.0000
# 4 -0.6150 0.6150 0.0000 9.6311 0.0000 0.0000
# 5 0.0000 0.0000 0.0000 0.0000 9.6311 -0.6150
# 6 0.0000 0.0000 0.0000 0.0000 -0.6150 20.5197
#
#
#
# Elastic Compliance Matrix: (Units=1/GPa)
#
#
# Indices 1 2 3 4 5 6 
#
# 1 0.020429 -0.003985 -0.001322 0.001559 0.000000 0.000000
# 2 -0.003985 0.020429 -0.001322 -0.001559 0.000000 0.000000
# 3 -0.001322 -0.001322 0.011281 0.000000 0.000000 0.000000
# 4 0.001559 -0.001559 0.000000 0.104029 0.000000 0.000000
# 5 0.000000 0.000000 0.000000 0.000000 0.104029 0.003118
# 6 0.000000 0.000000 0.000000 0.000000 0.003118 0.048827
#
#
# Mechanical properties :
#
#
# Convention : Reuss Voigt Hill
#
# Bulk Modulus (GPa) = 25.71954 27.03983 26.37968
# Shear Modulus (GPa) = 14.91457 19.18080 17.04769
#
# Velocity S-wave (km/s) = 2.82614 3.20495 3.02149
# Velocity P-wave (km/s) = 4.94194 5.30811 5.12830
#
# Compressibility (1/GPa) = 0.03888095
#
# Stress axis : x y z
#
# Youngs Moduli (GPa) = 48.95084 48.95084 88.64076
#
# Poissons Ratio (x) = 0.19506 0.11718
# Poissons Ratio (y) = 0.19506 0.11718
# Poissons Ratio (z) = 0.06471 0.06471
#
# Static dielectric constant tensor:
#      x y z
#    x 1.672550 0.000000 0.000000 
#    y 0.000000 1.672550 0.000000 
#    z 0.000000 0.000000 1.665550 
# 
# From -- ./inp_files/2868.got.cif
#   From: 2010.05.17/outbox.cif.g08.bks.cpg/sg164_2_cif.got.tgz:2868.got - 2010.05.20 10:58:56.
