data_PCOD9578630
_publ_section_title
;
Structure prediction by ZEFSAII (Michael W. Deem and Ramdas Pophale) SiO2 
 PCOD9578630
Probable space group: P -3 M 1
;
_chemical_formula_sum "Si O2"
_cell_formula_units_Z 54
_cell_length_a 12.802887
_cell_length_b 12.802887
_cell_length_c 23.671916
_cell_angle_alpha 90.000000
_cell_angle_beta 90.000000
_cell_angle_gamma 120.000000
_cell_volume 3360.314047
_symmetry_space_group_name_H-M "P -3 M 1"
_symmetry_group_IT_number 164
_symmetry_cell_setting 'hexagonal'
loop_
_space_group_symop_operation_xyz
x,y,z
-y,x-y,z
-x+y,-x,z
x-y,-y,-z
-x,-x+y,-z
y,x,-z
-x,-y,-z
y,-x+y,-z
x-y,x,-z
-x+y,y,z
x,x-y,z
-y,-x,z
loop_
_atom_site_type_symbol
_atom_site_label
_atom_site_fract_x
_atom_site_fract_y
_atom_site_fract_z
Si Si1 0.085862 0.667461 0.608682
Si Si2 0.667461 0.581694 0.051094
Si Si3 0.666443 0.581838 0.178638
Si Si4 0.999923 0.248416 0.715935
Si Si5 0.248438 0.000000 0.500000
O O1 0.076697 0.538349 0.606733
O O2 0.225429 0.774572 0.610409
O O3 0.026840 0.692710 0.554081
O O4 0.023176 0.684387 0.664110
O O5 0.787493 0.574986 0.045232
O O6 0.551667 0.448334 0.047408
O O7 0.665456 0.625783 0.114774
O O8 0.657112 0.657112 0.000000
O O9 0.777235 0.554469 0.181397
O O10 0.540806 0.459194 0.188615
O O11 0.693184 0.680744 0.226029
O O12 0.873434 0.126566 0.711167
O O13 0.110478 0.220956 0.714513
O O14 0.235385 0.117693 0.509395
#
# Coordination Sequence:
#
# PCOD9578630 Si02
#       5
#    12  12  12  12   6
#     4  10  20  34  53  76 101 129 162 201 242 282
#     4   9  17  29  46  68  93 122 156 194 235 279
#     4   9  17  30  49  71  93 119 154 197 241 282
#     4  10  20  33  50  71  96 126 158 194 236 284
#     4  10  20  34  54  78 104 134 166 200 236 278
#
# _framework density 16.069927
#
# number of rings (size 3 to 8) (size 9 to 14) (size 15 to 20)
#    0.000    2.444    0.000    2.667    0.000    2.667 
#    0.000    4.444    0.000    9.556    0.000    0.000 
#    0.000    0.000    0.000    0.000    0.000    0.000 
#
# Total GULP energy -301118.122199 kJ/mol
# GULP energy per Si atom -5576.261522 kJ/mol
# Density = 1.603335 g / cm^3
# Si number density = 16.069927 Si / 1000 Ang^3
#
#
#
# Elastic Constant Matrix: (Units=GPa)
#
#
# Indices 1 2 3 4 5 6 
#
# 1 222.1118 -49.1799 76.6726 -80.1148 0.0000 0.0000
# 2 -49.1799 222.1118 76.6726 80.1148 0.0000 0.0000
# 3 76.6726 76.6726 147.3120 0.0000 0.0000 0.0000
# 4 -80.1148 80.1148 0.0000 78.3444 0.0000 0.0000
# 5 0.0000 0.0000 0.0000 0.0000 78.3444 -80.1148
# 6 0.0000 0.0000 0.0000 0.0000 -80.1148 135.6458
#
#
#
# Elastic Compliance Matrix: (Units=1/GPa)
#
#
# Indices 1 2 3 4 5 6 
#
# 1 0.010023 0.000716 -0.005589 0.009518 0.000000 0.000000
# 2 0.000716 0.010023 -0.005589 -0.009518 0.000000 0.000000
# 3 -0.005589 -0.005589 0.012607 0.000000 0.000000 0.000000
# 4 0.009518 -0.009518 0.000000 0.032230 0.000000 0.000000
# 5 0.000000 0.000000 0.000000 0.000000 0.032230 0.019035
# 6 0.000000 0.000000 0.000000 0.000000 0.019035 0.018615
#
#
# Mechanical properties :
#
#
# Convention : Reuss Voigt Hill
#
# Bulk Modulus (GPa) = 85.27354 88.87403 87.07378
# Shear Modulus (GPa) = 35.57141 90.95829 63.26485
#
# Velocity S-wave (km/s) = 4.70993 7.53156 6.28124
# Velocity P-wave (km/s) = 9.09710 11.44802 10.33959
#
# Compressibility (1/GPa) = 0.01172697
#
# Stress axis : x y z
#
# Youngs Moduli (GPa) = 99.76883 99.76883 79.32358
#
# Poissons Ratio (x) = -0.07141 0.44337
# Poissons Ratio (y) = -0.07141 0.44337
# Poissons Ratio (z) = 0.55764 0.55764
#
# Static dielectric constant tensor:
#      x y z
#    x 1.505210 0.000000 0.000000 
#    y 0.000000 1.505210 0.000000 
#    z 0.000000 0.000000 1.553300 
# 
# From -- ./inp_files/4842.got.cif
#   From: 2010.05.17/outbox.cif.g08.bks.cpg/sg164_3_cif.got.tgz:4842.got - 2010.05.20 10:58:56.
