data_PCOD9578434
_publ_section_title
;
Structure prediction by ZEFSAII (Michael W. Deem and Ramdas Pophale) SiO2 
 PCOD9578434
Probable space group: P -3 M 1
;
_chemical_formula_sum "Si O2"
_cell_formula_units_Z 66
_cell_length_a 17.395471
_cell_length_b 17.395471
_cell_length_c 15.604932
_cell_angle_alpha 90.000000
_cell_angle_beta 90.000000
_cell_angle_gamma 120.000000
_cell_volume 4089.449944
_symmetry_space_group_name_H-M "P -3 M 1"
_symmetry_group_IT_number 164
_symmetry_cell_setting 'hexagonal'
loop_
_space_group_symop_operation_xyz
x,y,z
-y,x-y,z
-x+y,-x,z
x-y,-y,-z
-x,-x+y,-z
y,x,-z
-x,-y,-z
y,-x+y,-z
x-y,x,-z
-x+y,y,z
x,x-y,z
-y,-x,z
loop_
_atom_site_type_symbol
_atom_site_label
_atom_site_fract_x
_atom_site_fract_y
_atom_site_fract_z
Si Si1 0.365238 0.365238 0.500000
Si Si2 0.665312 0.507307 0.617607
Si Si3 0.608427 0.035525 0.780859
Si Si4 0.172127 0.001472 0.770477
Si Si5 0.066311 0.312925 0.080021
Si Si6 0.910934 0.646523 0.329445
O O1 0.371180 0.448587 0.449855
O O2 0.346862 0.294775 0.424900
O O3 0.764626 0.529252 0.599587
O O4 0.597467 0.402534 0.617701
O O5 0.657887 0.544974 0.709842
O O6 0.513686 0.027372 0.799420
O O7 0.672895 0.060283 0.862594
O O8 0.596565 0.947113 0.732556
O O9 0.182001 0.091001 0.733215
O O10 0.227110 0.025660 0.858190
O O11 0.214090 0.959425 0.708790
O O12 0.070704 0.929297 0.786025
O O13 0.167437 0.334873 0.059592
O O14 0.000000 0.287326 0.000000
O O15 0.805903 0.611806 0.327695
#
# Coordination Sequence:
#
# PCOD9578434 Si02
#       6
#     6  12  12  12  12  12
#     4  10  19  30  46  68  97 128 160 196 237 286
#     4  10  19  32  50  72  97 124 156 195 239 284
#     4   9  19  34  52  72  94 123 159 199 243 289
#     4   9  17  29  45  66  93 125 159 194 231 271
#     4  10  19  31  49  73  99 125 155 190 232 286
#     4   9  18  31  47  67  92 124 161 198 235 277
#
# _framework density 16.139088999999998
#
# number of rings (size 3 to 8) (size 9 to 14) (size 15 to 20)
#    0.000    2.545    0.000    2.273    0.000    6.909 
#    0.000    0.000    0.000    3.636    0.000    4.455 
#    0.000    0.000    0.000    0.000    0.000    0.000 
#
# Total GULP energy -367416.945128 kJ/mol
# GULP energy per Si atom -5566.923411 kJ/mol
# Density = 1.610236 g / cm^3
# Si number density = 16.139089 Si / 1000 Ang^3
#
#
#
# Elastic Constant Matrix: (Units=GPa)
#
#
# Indices 1 2 3 4 5 6 
#
# 1 83.1269 49.7285 45.2552 -4.6031 0.0000 0.0000
# 2 49.7285 83.1269 45.2552 4.6031 0.0000 0.0000
# 3 45.2552 45.2552 95.9791 0.0000 0.0000 0.0000
# 4 -4.6031 4.6031 0.0000 10.1705 0.0000 0.0000
# 5 0.0000 0.0000 0.0000 0.0000 10.1705 -4.6031
# 6 0.0000 0.0000 0.0000 0.0000 -4.6031 16.6992
#
#
#
# Elastic Compliance Matrix: (Units=1/GPa)
#
#
# Indices 1 2 3 4 5 6 
#
# 1 0.022649 -0.011560 -0.005229 0.015483 0.000000 0.000000
# 2 -0.011560 0.022649 -0.005229 -0.015483 0.000000 0.000000
# 3 -0.005229 -0.005229 0.015350 0.000000 0.000000 0.000000
# 4 0.015483 -0.015483 0.000000 0.112338 0.000000 0.000000
# 5 0.000000 0.000000 0.000000 0.000000 0.112338 0.030966
# 6 0.000000 0.000000 0.000000 0.000000 0.030966 0.068419
#
#
# Mechanical properties :
#
#
# Convention : Reuss Voigt Hill
#
# Bulk Modulus (GPa) = 60.19268 60.30118 60.24693
# Shear Modulus (GPa) = 12.39722 15.54097 13.96910
#
# Velocity S-wave (km/s) = 2.77456 3.10649 2.94521
# Velocity P-wave (km/s) = 6.90227 7.09307 6.99832
#
# Compressibility (1/GPa) = 0.01661331
#
# Stress axis : x y z
#
# Youngs Moduli (GPa) = 44.15159 44.15159 65.14809
#
# Poissons Ratio (x) = 0.51040 0.34063
# Poissons Ratio (y) = 0.51040 0.34063
# Poissons Ratio (z) = 0.23085 0.23085
#
# Static dielectric constant tensor:
#      x y z
#    x 1.547370 0.000000 0.000000 
#    y 0.000000 1.547370 0.000000 
#    z 0.000000 0.000000 1.531670 
# 
# From -- ./inp_files/3426.got.cif
#   From: 2010.05.17/outbox.cif.g08.bks.cpg/sg164_2_cif.got.tgz:3426.got - 2010.05.20 10:58:56.
