data_PCOD9578687
_publ_section_title
;
Structure prediction by ZEFSAII (Michael W. Deem and Ramdas Pophale) SiO2 
 PCOD9578687
Probable space group: P -3 M 1
;
_chemical_formula_sum "Si O2"
_cell_formula_units_Z 72
_cell_length_a 23.820935
_cell_length_b 23.820935
_cell_length_c 8.510777
_cell_angle_alpha 90.000000
_cell_angle_beta 90.000000
_cell_angle_gamma 120.000000
_cell_volume 4182.321852
_symmetry_space_group_name_H-M "P -3 M 1"
_symmetry_group_IT_number 164
_symmetry_cell_setting 'hexagonal'
loop_
_space_group_symop_operation_xyz
x,y,z
-y,x-y,z
-x+y,-x,z
x-y,-y,-z
-x,-x+y,-z
y,x,-z
-x,-y,-z
y,-x+y,-z
x-y,x,-z
-x+y,y,z
x,x-y,z
-y,-x,z
loop_
_atom_site_type_symbol
_atom_site_label
_atom_site_fract_x
_atom_site_fract_y
_atom_site_fract_z
Si Si1 0.942555 0.270361 0.110132
Si Si2 0.855675 0.585089 0.562884
Si Si3 0.453897 0.160604 0.920799
Si Si4 0.498079 0.996158 0.755780
Si Si5 0.557010 0.114020 0.975336
Si Si6 0.729400 0.801878 0.562662
Si Si7 0.636227 0.041039 0.362690
O O1 0.926535 0.221176 0.256537
O O2 0.970817 0.338331 0.201324
O O3 0.882586 0.268414 0.015902
O O4 0.000000 0.276263 0.000000
O O5 0.781014 0.562028 0.533447
O O6 0.860986 0.563102 0.737682
O O7 0.893902 0.663241 0.541269
O O8 0.886108 0.562143 0.426172
O O9 0.470563 0.235282 0.932428
O O10 0.513675 0.149871 0.974911
O O11 0.547118 0.984669 0.658402
O O12 0.533987 0.067974 0.823500
O O13 0.469621 0.939241 0.886220
O O14 0.776160 0.776160 0.500000
O O15 0.757527 0.878764 0.553527
O O16 0.644403 0.000000 0.500000
#
# Coordination Sequence:
#
# PCOD9578687 Si02
#       7
#    12  12  12   6   6  12  12
#     4  11  19  32  54  82 113 139 170 216 272 335
#     4   9  19  34  52  77 106 137 177 221 270 331
#     4  11  22  37  56  77 105 146 184 228 278 328
#     4  11  21  34  52  78 108 134 172 222 286 326
#     4  11  22  38  52  80 108 140 182 238 272 326
#     4  10  20  35  54  81 114 148 181 218 262 318
#     4  11  20  31  49  75 104 139 167 211 271 330
#
# _framework density 17.215318
#
# number of rings (size 3 to 8) (size 9 to 14) (size 15 to 20)
#    0.000    1.500    1.667    6.750    0.000    1.333 
#    0.500    0.833    0.000    0.167    0.000    0.000 
#    0.833    0.667    0.000    0.000    0.000    0.000 
#
# Total GULP energy -400945.019563 kJ/mol
# GULP energy per Si atom -5568.680827 kJ/mol
# Density = 1.717613 g / cm^3
# Si number density = 17.215318 Si / 1000 Ang^3
#
#
#
# Elastic Constant Matrix: (Units=GPa)
#
#
# Indices 1 2 3 4 5 6 
#
# 1 -394.1386 507.3201 18.2621 -162.8965 0.0000 0.0000
# 2 507.3201 -394.1386 18.2621 162.8965 0.0000 0.0000
# 3 18.2621 18.2621 55.6781 0.0000 0.0000 0.0000
# 4 -162.8965 162.8965 0.0000 -36.9593 0.0000 0.0000
# 5 0.0000 0.0000 0.0000 0.0000 -36.9593 -162.8964
# 6 0.0000 0.0000 0.0000 0.0000 -162.8964 -450.7293
#
#
#
# Elastic Compliance Matrix: (Units=1/GPa)
#
#
# Indices 1 2 3 4 5 6 
#
# 1 0.005876 0.004005 -0.003241 -0.008247 0.000000 0.000000
# 2 0.004005 0.005876 -0.003241 0.008247 0.000000 0.000000
# 3 -0.003241 -0.003241 0.020086 0.000000 0.000000 0.000000
# 4 -0.008247 0.008247 0.000000 0.045636 0.000000 0.000000
# 5 0.000000 0.000000 0.000000 0.000000 0.045636 -0.016493
# 6 0.000000 0.000000 0.000000 0.000000 -0.016493 0.003742
#
#
# Mechanical properties :
#
#
# Convention : Reuss Voigt Hill
#
# Bulk Modulus (GPa) = 37.19553 39.45441 38.32497
# Shear Modulus (GPa) = 35.51931 -190.02583 -77.25326
#
# Velocity S-wave (km/s) = 4.54722 -10.51767 -6.70613
# Velocity P-wave (km/s) = 7.01588 11.15918 6.13615
#
# Compressibility (1/GPa) = 0.02688495
#
# Stress axis : x y z
#
# Youngs Moduli (GPa) = 170.17927 170.17927 49.78478
#
# Poissons Ratio (x) = -0.68159 0.16135
# Poissons Ratio (y) = -0.68159 0.16135
# Poissons Ratio (z) = 0.55155 0.55155
#
# Static dielectric constant tensor:
#      x y z
#    x 1.321280 0.000000 0.000000 
#    y 0.000000 1.321280 0.000000 
#    z 0.000000 0.000000 1.640380 
# 
# From -- ./inp_files/1998.got.cif
#   From: 2010.05.17/outbox.cif.g08.bks.cpg/sg164_1_cif.got.tgz:1998.got - 2010.05.20 10:58:56.
