data_PCOD9578218
_publ_section_title
;
Structure prediction by ZEFSAII (Michael W. Deem and Ramdas Pophale) SiO2 
 PCOD9578218
Probable space group: P -3 1 C
;
_chemical_formula_sum "Si O2"
_cell_formula_units_Z 60
_cell_length_a 14.212253
_cell_length_b 14.212253
_cell_length_c 14.287699
_cell_angle_alpha 90.000000
_cell_angle_beta 90.000000
_cell_angle_gamma 120.000000
_cell_volume 2499.302272
_symmetry_space_group_name_H-M "P -3 1 C"
_symmetry_group_IT_number 163
_symmetry_cell_setting 'hexagonal'
loop_
_space_group_symop_operation_xyz
x,y,z
-y,x-y,z
-x+y,-x,z
-y,-x,1/2-z
-x+y,y,1/2-z
x,x-y,1/2-z
-x,-y,-z
y,-x+y,-z
x-y,x,-z
y,x,1/2+z
x-y,-y,1/2+z
-x,-x+y,1/2+z
loop_
_atom_site_type_symbol
_atom_site_label
_atom_site_fract_x
_atom_site_fract_y
_atom_site_fract_z
Si Si1 0.031147 0.376246 0.382749
Si Si2 0.003674 0.789006 0.269239
Si Si3 0.644323 0.466576 0.327250
Si Si4 0.419665 0.801238 0.031410
Si Si5 0.778195 0.966161 0.976727
O O1 0.091219 0.502780 0.411099
O O2 0.049184 0.324950 0.289798
O O3 0.900376 0.321178 0.377744
O O4 0.070423 0.330003 0.466776
O O5 0.879272 0.758544 0.250000
O O6 0.009900 0.769441 0.377640
O O7 0.083897 0.916104 0.250000
O O8 0.553130 0.446871 0.250000
O O9 0.731386 0.462771 0.250000
O O10 0.584891 0.386604 0.416584
O O11 0.292010 0.741600 0.056956
O O12 0.873428 0.064395 0.034296
#
# Coordination Sequence:
#
# PCOD9578218 Si02
#       5
#    12  12  12  12  12
#     4  12  28  43  75 116 147 200 257 329 385 475
#     4  12  24  45  69 109 155 208 263 325 399 475
#     4  12  24  47  77 113 145 194 258 322 387 458
#     4  10  24  48  76 104 151 201 248 311 398 467
#     4  12  25  44  70 106 154 203 256 319 394 469
#
# _framework density 24.006701
#
# number of rings (size 3 to 8) (size 9 to 14) (size 15 to 20)
#    0.400    0.000    6.000    1.800    5.600    0.000 
#    3.600    0.000    0.000    1.200    0.000    0.000 
#    0.000    0.000    0.000    0.000    0.000    0.000 
#
# Total GULP energy -334057.934567 kJ/mol
# GULP energy per Si atom -5567.632243 kJ/mol
# Density = 2.395206 g / cm^3
# Si number density = 24.006701 Si / 1000 Ang^3
#
#
#
# Elastic Constant Matrix: (Units=GPa)
#
#
# Indices 1 2 3 4 5 6 
#
# 1 80.6633 27.8787 26.5325 0.0000 -4.4234 0.0000
# 2 27.8787 80.6633 26.5325 0.0000 4.4234 0.0000
# 3 26.5325 26.5325 131.2366 0.0000 0.0000 0.0000
# 4 0.0000 0.0000 0.0000 22.8654 0.0000 4.4234
# 5 -4.4234 4.4234 0.0000 0.0000 22.8654 0.0000
# 6 0.0000 0.0000 0.0000 4.4234 0.0000 26.3923
#
#
#
# Elastic Compliance Matrix: (Units=1/GPa)
#
#
# Indices 1 2 3 4 5 6 
#
# 1 0.014902 -0.004678 -0.002067 0.000000 0.003788 0.000000
# 2 -0.004678 0.014902 -0.002067 0.000000 -0.003788 0.000000
# 3 -0.002067 -0.002067 0.008456 0.000000 0.000000 0.000000
# 4 0.000000 0.000000 0.000000 0.045200 0.000000 -0.007576
# 5 0.003788 -0.003788 0.000000 0.000000 0.045200 0.000000
# 6 0.000000 0.000000 0.000000 -0.007576 0.000000 0.039159
#
#
# Mechanical properties :
#
#
# Convention : Reuss Voigt Hill
#
# Bulk Modulus (GPa) = 48.46152 50.49453 49.47803
# Shear Modulus (GPa) = 25.99836 28.53260 27.26548
#
# Velocity S-wave (km/s) = 3.29441 3.45124 3.37374
# Velocity P-wave (km/s) = 5.89078 6.07952 5.98590
#
# Compressibility (1/GPa) = 0.02063493
#
# Stress axis : x y z
#
# Youngs Moduli (GPa) = 67.10675 67.10675 118.26518
#
# Poissons Ratio (x) = 0.31393 0.24444
# Poissons Ratio (y) = 0.31393 0.24444
# Poissons Ratio (z) = 0.13870 0.13870
#
# Static dielectric constant tensor:
#      x y z
#    x 2.006240 0.000000 0.000000 
#    y 0.000000 2.006240 0.000000 
#    z 0.000000 0.000000 1.932920 
# 
# From -- ./inp_files/2391.got.cif
#   From: 2010.05.17/outbox.cif.g08.bks.cpg/sg163_2_cif.got.tgz:2391.got - 2010.05.20 10:56:03.
