data_PCOD9578273
_publ_section_title
;
Structure prediction by ZEFSAII (Michael W. Deem and Ramdas Pophale) SiO2 
 PCOD9578273
Probable space group: P -3 1 C
;
_chemical_formula_sum "Si O2"
_cell_formula_units_Z 54
_cell_length_a 14.795664
_cell_length_b 14.795664
_cell_length_c 12.292872
_cell_angle_alpha 90.000000
_cell_angle_beta 90.000000
_cell_angle_gamma 120.000000
_cell_volume 2330.520415
_symmetry_space_group_name_H-M "P -3 1 C"
_symmetry_group_IT_number 163
_symmetry_cell_setting 'hexagonal'
loop_
_space_group_symop_operation_xyz
x,y,z
-y,x-y,z
-x+y,-x,z
-y,-x,1/2-z
-x+y,y,1/2-z
x,x-y,1/2-z
-x,-y,-z
y,-x+y,-z
x-y,x,-z
y,x,1/2+z
x-y,-y,1/2+z
-x,-x+y,1/2+z
loop_
_atom_site_type_symbol
_atom_site_label
_atom_site_fract_x
_atom_site_fract_y
_atom_site_fract_z
Si Si1 0.549850 0.416803 0.071288
Si Si2 0.334218 0.167109 0.750000
Si Si3 0.479747 0.087230 0.853410
Si Si4 0.108981 0.237215 0.028125
Si Si5 0.573733 0.810792 0.865947
O O1 0.441281 0.416034 0.087825
O O2 0.638141 0.518301 0.133982
O O3 0.781732 0.476438 0.114448
O O4 0.590881 0.437465 0.947633
O O5 0.405594 0.128392 0.809422
O O6 0.265999 0.172128 0.849106
O O7 0.540340 0.080680 0.750000
O O8 0.997026 0.170497 0.971932
O O9 0.181017 0.342657 0.960198
O O10 0.621744 0.810872 0.750000
#
# Coordination Sequence:
#
# PCOD9578273 Si02
#       5
#    12   6  12  12  12
#     4  11  25  44  70 108 153 190 250 300 382 456
#     4  12  26  50  80 108 150 202 256 312 394 466
#     4  11  24  43  71 105 150 194 240 311 374 454
#     4  12  30  50  78 112 151 201 267 326 391 454
#     4  12  25  45  76 110 150 201 251 310 381 469
#
# _framework density 23.170791000000001
#
# number of rings (size 3 to 8) (size 9 to 14) (size 15 to 20)
#    0.000    0.444    2.222    5.333   12.444    0.000 
#    0.667    0.000    0.000    0.000    0.000    0.000 
#    0.000    0.000    0.000    0.000    0.000    0.000 
#
# Total GULP energy -302349.208059 kJ/mol
# GULP energy per Si atom -5599.059408 kJ/mol
# Density = 2.311805 g / cm^3
# Si number density = 23.170791 Si / 1000 Ang^3
#
#
#
# Elastic Constant Matrix: (Units=GPa)
#
#
# Indices 1 2 3 4 5 6 
#
# 1 87.9310 21.6129 24.2633 -0.0001 -4.9446 0.0000
# 2 21.6129 87.9310 24.2633 0.0001 4.9446 0.0000
# 3 24.2633 24.2633 144.2012 0.0000 0.0000 0.0000
# 4 -0.0001 0.0001 0.0000 28.6514 0.0000 4.9446
# 5 -4.9446 4.9446 0.0000 0.0000 28.6514 -0.0001
# 6 0.0000 0.0000 0.0000 4.9446 -0.0001 33.1591
#
#
#
# Elastic Compliance Matrix: (Units=1/GPa)
#
#
# Indices 1 2 3 4 5 6 
#
# 1 0.012671 -0.002807 -0.001660 0.000000 0.002671 0.000000
# 2 -0.002807 0.012671 -0.001660 0.000000 -0.002671 0.000000
# 3 -0.001660 -0.001660 0.007493 0.000000 0.000000 0.000000
# 4 0.000000 0.000000 0.000000 0.035824 0.000000 -0.005342
# 5 0.002671 -0.002671 0.000000 0.000000 0.035824 0.000000
# 6 0.000000 0.000000 0.000000 -0.005342 0.000000 0.030954
#
#
# Mechanical properties :
#
#
# Convention : Reuss Voigt Hill
#
# Bulk Modulus (GPa) = 48.58519 51.14913 49.86716
# Shear Modulus (GPa) = 32.35201 34.75397 33.55299
#
# Velocity S-wave (km/s) = 3.74068 3.87706 3.80948
# Velocity P-wave (km/s) = 6.29847 6.49345 6.39671
#
# Compressibility (1/GPa) = 0.02058240
#
# Stress axis : x y z
#
# Youngs Moduli (GPa) = 78.92309 78.92309 133.45290
#
# Poissons Ratio (x) = 0.22150 0.22149
# Poissons Ratio (y) = 0.22150 0.22149
# Poissons Ratio (z) = 0.13099 0.13099
#
# Static dielectric constant tensor:
#      x y z
#    x 1.898900 0.000000 0.000000 
#    y 0.000000 1.898900 0.000000 
#    z 0.000000 0.000000 1.894950 
# 
# From -- ./inp_files/1715.got.cif
#   From: 2010.05.17/outbox.cif.g08.bks.cpg/sg163_1_cif.got.tgz:1715.got - 2010.05.20 10:56:03.
