data_PCOD9578327
_publ_section_title
;
Structure prediction by ZEFSAII (Michael W. Deem and Ramdas Pophale) SiO2 
 PCOD9578327
Probable space group: P -3 M 1
;
_chemical_formula_sum "Si O2"
_cell_formula_units_Z 60
_cell_length_a 21.274038
_cell_length_b 21.274038
_cell_length_c 12.944750
_cell_angle_alpha 90.000000
_cell_angle_beta 90.000000
_cell_angle_gamma 120.000000
_cell_volume 5073.692709
_symmetry_space_group_name_H-M "P -3 M 1"
_symmetry_group_IT_number 164
_symmetry_cell_setting 'hexagonal'
loop_
_space_group_symop_operation_xyz
x,y,z
-y,x-y,z
-x+y,-x,z
x-y,-y,-z
-x,-x+y,-z
y,x,-z
-x,-y,-z
y,-x+y,-z
x-y,x,-z
-x+y,y,z
x,x-y,z
-y,-x,z
loop_
_atom_site_type_symbol
_atom_site_label
_atom_site_fract_x
_atom_site_fract_y
_atom_site_fract_z
Si Si1 0.538241 0.614563 0.949623
Si Si2 0.667513 0.182799 0.466653
Si Si3 0.531123 0.910076 0.332517
Si Si4 0.183546 0.667565 0.130769
Si Si5 0.927288 0.540152 0.287003
O O1 0.462794 0.537207 0.947931
O O2 0.555559 0.639053 0.831281
O O3 0.596691 0.596691 0.000000
O O4 0.522972 0.664475 0.025926
O O5 0.595812 0.191623 0.468391
O O6 0.739562 0.260439 0.469031
O O7 0.662177 0.134878 0.566446
O O8 0.662121 0.136751 0.365017
O O9 0.456510 0.913019 0.335012
O O10 0.526383 0.867110 0.228278
O O11 0.594416 0.993484 0.326997
O O12 0.192504 0.596252 0.131879
O O13 0.260539 0.739461 0.138670
O O14 0.928982 0.464491 0.286073
#
# Coordination Sequence:
#
# PCOD9578327 Si02
#       5
#    12  12  12  12  12
#     4   9  15  26  41  53  67  90 120 150 179 215
#     4  10  19  28  38  53  75  98 119 149 194 240
#     4   9  16  27  41  54  68  91 124 155 182 220
#     4  10  18  26  38  56  77  96 116 149 196 240
#     4   9  16  27  42  55  66  89 125 156 180 216
#
# _framework density 11.825706
#
# number of rings (size 3 to 8) (size 9 to 14) (size 15 to 20)
#    0.000    2.600    2.000    1.600    0.000    3.200 
#    0.000    2.000    0.000    2.400    0.000    0.000 
#    0.000    0.000    0.000    0.000    0.000    0.000 
#
# Total GULP energy -334071.109433 kJ/mol
# GULP energy per Si atom -5567.851824 kJ/mol
# Density = 1.179879 g / cm^3
# Si number density = 11.825706 Si / 1000 Ang^3
#
#
#
# Elastic Constant Matrix: (Units=GPa)
#
#
# Indices 1 2 3 4 5 6 
#
# 1 33.9079 10.7651 25.1333 -1.4085 0.0000 0.0000
# 2 10.7651 33.9079 25.1333 1.4085 0.0000 0.0000
# 3 25.1333 25.1333 104.1336 0.0000 0.0000 0.0000
# 4 -1.4085 1.4085 0.0000 11.0931 0.0000 0.0000
# 5 0.0000 0.0000 0.0000 0.0000 11.0931 -1.4085
# 6 0.0000 0.0000 0.0000 0.0000 -1.4085 11.5714
#
#
#
# Elastic Compliance Matrix: (Units=1/GPa)
#
#
# Indices 1 2 3 4 5 6 
#
# 1 0.037310 -0.006579 -0.007417 0.005573 0.000000 0.000000
# 2 -0.006579 0.037310 -0.007417 -0.005573 0.000000 0.000000
# 3 -0.007417 -0.007417 0.013183 0.000000 0.000000 0.000000
# 4 0.005573 -0.005573 0.000000 0.091561 0.000000 0.000000
# 5 0.000000 0.000000 0.000000 0.000000 0.091561 0.011145
# 6 0.000000 0.000000 0.000000 0.000000 0.011145 0.087777
#
#
# Mechanical properties :
#
#
# Convention : Reuss Voigt Hill
#
# Bulk Modulus (GPa) = 22.23382 32.66806 27.45094
# Shear Modulus (GPa) = 12.00423 14.14603 13.07513
#
# Velocity S-wave (km/s) = 3.18951 3.46238 3.32874
# Velocity P-wave (km/s) = 5.69263 6.60823 6.16745
#
# Compressibility (1/GPa) = 0.04497653
#
# Stress axis : x y z
#
# Youngs Moduli (GPa) = 26.80281 26.80281 75.85328
#
# Poissons Ratio (x) = 0.17633 0.56261
# Poissons Ratio (y) = 0.17633 0.56261
# Poissons Ratio (z) = 0.19880 0.19880
#
# Static dielectric constant tensor:
#      x y z
#    x 1.359970 0.000000 0.000000 
#    y 0.000000 1.359970 0.000000 
#    z 0.000000 0.000000 1.408390 
# 
# From -- ./inp_files/3367.got.cif
#   From: 2010.05.17/outbox.cif.g08.bks.cpg/sg164_2_cif.got.tgz:3367.got - 2010.05.20 10:58:56.
