data_PCOD9578040
_publ_section_title
;
Structure prediction by ZEFSAII (Michael W. Deem and Ramdas Pophale) SiO2 
 PCOD9578040
Probable space group: P -3 1 C
;
_chemical_formula_sum "Si O2"
_cell_formula_units_Z 72
_cell_length_a 24.480379
_cell_length_b 24.480379
_cell_length_c 8.984588
_cell_angle_alpha 90.000000
_cell_angle_beta 90.000000
_cell_angle_gamma 120.000000
_cell_volume 4662.996321
_symmetry_space_group_name_H-M "P -3 1 C"
_symmetry_group_IT_number 163
_symmetry_cell_setting 'hexagonal'
loop_
_space_group_symop_operation_xyz
x,y,z
-y,x-y,z
-x+y,-x,z
-y,-x,1/2-z
-x+y,y,1/2-z
x,x-y,1/2-z
-x,-y,-z
y,-x+y,-z
x-y,x,-z
y,x,1/2+z
x-y,-y,1/2+z
-x,-x+y,1/2+z
loop_
_atom_site_type_symbol
_atom_site_label
_atom_site_fract_x
_atom_site_fract_y
_atom_site_fract_z
Si Si1 0.013193 0.725998 0.971479
Si Si2 0.470890 0.067010 0.706334
Si Si3 0.716869 0.798330 0.269307
Si Si4 0.257418 0.860984 0.676152
Si Si5 0.586262 0.635669 0.886064
Si Si6 0.432601 0.269319 0.658021
O O1 0.074878 0.741915 0.874051
O O2 0.957500 0.721861 0.874861
O O3 0.034096 0.779364 0.094722
O O4 0.986851 0.657971 0.049882
O O5 0.538017 0.076033 0.750000
O O6 0.458224 0.064930 0.529716
O O7 0.461675 0.122033 0.779272
O O8 0.417642 0.000312 0.775726
O O9 0.742383 0.871192 0.250000
O O10 0.642352 0.764994 0.307810
O O11 0.192512 0.807489 0.750000
O O12 0.314314 0.888570 0.795831
O O13 0.268587 0.833051 0.522107
O O14 0.456038 0.228019 0.750000
#
# Coordination Sequence:
#
# PCOD9578040 Si02
#       6
#    12  12  12  12  12  12
#     4  11  18  32  48  67 109 132 170 214 245 301
#     4  12  22  34  52  74 103 146 180 219 274 328
#     4  10  20  30  50  71  98 142 176 201 262 312
#     4  11  21  31  54  78  99 141 178 210 266 319
#     4  12  19  36  47  73 111 138 179 216 263 317
#     4  10  19  35  51  74 102 127 176 227 262 322
#
# _framework density 15.440716
#
# number of rings (size 3 to 8) (size 9 to 14) (size 15 to 20)
#    0.000    1.000    8.333    1.500    4.667    0.000 
#    0.000    0.000    0.000    0.333    0.000    0.000 
#    0.000    0.000    0.000   19.500    0.000    0.500 
#
# Total GULP energy -401516.468975 kJ/mol
# GULP energy per Si atom -5576.617625 kJ/mol
# Density = 1.540557 g / cm^3
# Si number density = 15.440716 Si / 1000 Ang^3
#
#
#
# Elastic Constant Matrix: (Units=GPa)
#
#
# Indices 1 2 3 4 5 6 
#
# 1 51.1801 26.4905 41.9573 0.0004 -1.6771 0.0000
# 2 26.4905 51.1801 41.9573 -0.0004 1.6771 0.0000
# 3 41.9573 41.9573 109.3258 0.0000 0.0000 0.0000
# 4 0.0004 -0.0004 0.0000 11.1775 0.0000 1.6771
# 5 -1.6771 1.6771 0.0000 0.0000 11.1775 0.0004
# 6 0.0000 0.0000 0.0000 1.6771 0.0004 12.3448
#
#
#
# Elastic Compliance Matrix: (Units=1/GPa)
#
#
# Indices 1 2 3 4 5 6 
#
# 1 0.031670 -0.009676 -0.008441 -0.000001 0.006204 0.000000
# 2 -0.009676 0.031670 -0.008441 0.000001 -0.006204 0.000000
# 3 -0.008441 -0.008441 0.015626 0.000000 0.000000 0.000000
# 4 -0.000001 0.000001 0.000000 0.091327 0.000000 -0.012407
# 5 0.006204 -0.006204 0.000000 0.000000 0.091327 -0.000003
# 6 0.000000 0.000000 0.000000 -0.012407 -0.000003 0.082691
#
#
# Mechanical properties :
#
#
# Convention : Reuss Voigt Hill
#
# Bulk Modulus (GPa) = 38.68357 48.05512 43.36935
# Shear Modulus (GPa) = 12.31393 13.69202 13.00297
#
# Velocity S-wave (km/s) = 2.82706 2.98106 2.90508
# Velocity P-wave (km/s) = 5.98028 6.56040 6.27705
#
# Compressibility (1/GPa) = 0.02585077
#
# Stress axis : x y z
#
# Youngs Moduli (GPa) = 31.57546 31.57546 63.99547
#
# Poissons Ratio (x) = 0.30551 0.54020
# Poissons Ratio (y) = 0.30551 0.54020
# Poissons Ratio (z) = 0.26653 0.26653
#
# Static dielectric constant tensor:
#      x y z
#    x 1.501660 0.000000 0.000000 
#    y 0.000000 1.501660 0.000000 
#    z 0.000000 0.000000 1.571390 
# 
# From -- ./inp_files/1210.got.cif
#   From: 2010.05.17/outbox.cif.g08.bks.cpg/sg163_1_cif.got.tgz:1210.got - 2010.05.20 10:56:03.
