data_PCOD9578156
_publ_section_title
;
Structure prediction by ZEFSAII (Michael W. Deem and Ramdas Pophale) SiO2 
 PCOD9578156
Probable space group: P -3 1 C
;
_chemical_formula_sum "Si O2"
_cell_formula_units_Z 76
_cell_length_a 17.000003
_cell_length_b 17.000003
_cell_length_c 12.765030
_cell_angle_alpha 90.000000
_cell_angle_beta 90.000000
_cell_angle_gamma 120.000000
_cell_volume 3194.849963
_symmetry_space_group_name_H-M "P -3 1 C"
_symmetry_group_IT_number 163
_symmetry_cell_setting 'hexagonal'
loop_
_space_group_symop_operation_xyz
x,y,z
-y,x-y,z
-x+y,-x,z
-y,-x,1/2-z
-x+y,y,1/2-z
x,x-y,1/2-z
-x,-y,-z
y,-x+y,-z
x-y,x,-z
y,x,1/2+z
x-y,-y,1/2+z
-x,-x+y,1/2+z
loop_
_atom_site_type_symbol
_atom_site_label
_atom_site_fract_x
_atom_site_fract_y
_atom_site_fract_z
Si Si1 0.639975 0.877668 0.619014
Si Si2 0.666668 0.333334 0.374156
Si Si3 0.066695 0.313714 0.342312
Si Si4 0.459430 0.372530 0.808886
Si Si5 0.842498 0.376270 0.475512
Si Si6 0.094057 0.414685 0.566481
Si Si7 0.119242 0.200957 0.465859
O O1 0.705697 0.960814 0.693471
O O2 0.558377 0.896619 0.590898
O O3 0.601820 0.769674 0.630767
O O4 0.708321 0.903300 0.521417
O O5 0.666668 0.333334 0.250000
O O6 0.745629 0.321745 0.422395
O O7 0.112237 0.400342 0.266872
O O8 0.076078 0.358816 0.458257
O O9 0.100066 0.241313 0.361257
O O10 0.537158 0.462843 0.750000
O O11 0.384855 0.389566 0.866818
O O12 0.508443 0.351863 0.903950
O O13 0.874325 0.481319 0.463426
O O14 0.155922 0.130458 0.466677
#
# Coordination Sequence:
#
# PCOD9578156 Si02
#       7
#    12   4  12  12  12  12  12
#     4  10  21  39  67  93 144 181 234 310 355 440
#     4  12  30  51  76 107 145 198 237 300 370 428
#     4  10  21  41  65 106 136 192 249 291 383 441
#     4  12  24  40  72 103 141 197 239 296 370 434
#     4  12  23  46  67 103 144 182 244 297 350 436
#     4  11  22  41  66  96 144 188 239 305 354 434
#     4   9  19  38  70 103 141 189 250 320 388 447
#
# _framework density 23.788284999999998
#
# number of rings (size 3 to 8) (size 9 to 14) (size 15 to 20)
#    0.000    1.263    4.737    1.579    0.000    2.526 
#    0.000    7.105    0.000    0.000    0.000    0.000 
#    0.000    0.000    0.000    0.000    0.000    0.000 
#
# Total GULP energy -424090.451429 kJ/mol
# GULP energy per Si atom -5580.137519 kJ/mol
# Density = 2.373414 g / cm^3
# Si number density = 23.788285 Si / 1000 Ang^3
#
#
#
# Elastic Constant Matrix: (Units=GPa)
#
#
# Indices 1 2 3 4 5 6 
#
# 1 221.8611 -63.9820 34.4703 0.0214 -16.8411 0.1020
# 2 -63.9820 221.8714 34.4808 -0.0214 16.8422 -0.1031
# 3 34.4703 34.4808 106.2553 0.0005 0.0012 0.0017
# 4 0.0214 -0.0214 0.0005 31.5500 -0.0041 16.8210
# 5 -16.8411 16.8422 0.0012 -0.0041 31.5539 -0.0194
# 6 0.1020 -0.1031 0.0017 16.8210 -0.0194 142.8136
#
#
#
# Elastic Compliance Matrix: (Units=1/GPa)
#
#
# Indices 1 2 3 4 5 6 
#
# 1 0.005556 0.001823 -0.002394 -0.000001 0.001993 -0.000002
# 2 0.001823 0.005556 -0.002394 0.000001 -0.001993 0.000002
# 3 -0.002394 -0.002394 0.010965 0.000000 0.000000 0.000000
# 4 -0.000001 0.000001 0.000000 0.033820 0.000001 -0.003983
# 5 0.001993 -0.001993 0.000000 0.000001 0.033819 0.000002
# 6 -0.000002 0.000002 0.000000 -0.003983 0.000002 0.007471
#
#
# Mechanical properties :
#
#
# Convention : Reuss Voigt Hill
#
# Bulk Modulus (GPa) = 61.93277 62.21401 62.07339
# Shear Modulus (GPa) = 46.08276 77.51807 61.80041
#
# Velocity S-wave (km/s) = 4.40614 5.71467 5.10252
# Velocity P-wave (km/s) = 7.20951 8.35184 7.80161
#
# Compressibility (1/GPa) = 0.01614654
#
# Stress axis : x y z
#
# Youngs Moduli (GPa) = 179.97525 179.97797 91.19918
#
# Poissons Ratio (x) = -0.32812 0.21835
# Poissons Ratio (y) = -0.32812 0.21837
# Poissons Ratio (z) = 0.43089 0.43095
#
# Static dielectric constant tensor:
#      x y z
#    x 1.846500 -0.000010 0.000010 
#    y -0.000010 1.846500 0.000000 
#    z 0.000010 0.000000 2.010580 
# 
# From -- ./inp_files/2593.got.cif
#   From: 2010.05.17/outbox.cif.g08.bks.cpg/sg163_2_cif.got.tgz:2593.got - 2010.05.20 10:56:03.
