data_PCOD9578831
_publ_section_title
;
Structure prediction by ZEFSAII (Michael W. Deem and Ramdas Pophale) SiO2 
 PCOD9578831
Probable space group: P -3 C 1
;
_chemical_formula_sum "Si O2"
_cell_formula_units_Z 74
_cell_length_a 14.097227
_cell_length_b 14.097227
_cell_length_c 22.366243
_cell_angle_alpha 90.000000
_cell_angle_beta 90.000000
_cell_angle_gamma 120.000000
_cell_volume 3849.382404
_symmetry_space_group_name_H-M "P -3 C 1"
_symmetry_group_IT_number 165
_symmetry_cell_setting 'hexagonal'
loop_
_space_group_symop_operation_xyz
x,y,z
-y,x-y,z
-x+y,-x,z
x-y,-y,1/2-z
-x,-x+y,1/2-z
y,x,1/2-z
-x,-y,-z
y,-x+y,-z
x-y,x,-z
-x+y,y,1/2+z
x,x-y,1/2+z
-y,-x,1/2+z
loop_
_atom_site_type_symbol
_atom_site_label
_atom_site_fract_x
_atom_site_fract_y
_atom_site_fract_z
Si Si1 0.691001 0.828175 0.839833
Si Si2 0.529248 0.446691 0.445669
Si Si3 0.252920 0.252920 0.750000
Si Si4 0.121882 0.463101 0.745107
Si Si5 0.333335 0.666667 0.558606
Si Si6 0.093799 0.756837 0.121558
Si Si7 0.968123 0.313641 0.372414
Si Si8 0.666667 0.333333 0.295675
O O1 0.585758 0.732507 0.804935
O O2 0.751820 0.773921 0.873174
O O3 0.762003 0.909979 0.785709
O O4 0.666837 0.908963 0.880136
O O5 0.500000 0.500000 0.500000
O O6 0.613589 0.405065 0.461708
O O7 0.422490 0.341472 0.419874
O O8 0.589660 0.541787 0.396504
O O9 0.296582 0.344117 0.698811
O O10 0.116721 0.390109 0.687974
O O11 0.213744 0.584481 0.729468
O O12 0.000000 0.442999 0.750000
O O13 0.333334 0.666667 0.631943
O O14 0.197262 0.872318 0.102522
#
# Coordination Sequence:
#
# PCOD9578831 Si02
#       8
#    12  12   6  12   4  12  12   4
#     4   9  20  35  59  95 138 171 201 252 322 388
#     4  12  26  42  68  93 125 170 221 282 325 388
#     4   8  18  36  60  90 136 170 202 242 324 378
#     4  10  20  34  57  91 133 169 208 253 309 385
#     4  12  24  45  66  97 110 157 228 267 337 395
#     4  11  20  39  62  95 127 165 222 263 318 380
#     4  10  20  41  63  91 131 170 210 264 320 381
#     4  12  21  36  60  94 122 172 216 255 301 392
#
# _framework density 19.223863999999999
#
# number of rings (size 3 to 8) (size 9 to 14) (size 15 to 20)
#    0.973    0.649    4.865    0.000    0.000    3.892 
#    6.811    0.000    5.351    4.541    0.000    1.135 
#    0.000    0.000    0.000    0.000    0.000    0.000 
#
# Total GULP energy -412453.571062 kJ/mol
# GULP energy per Si atom -5573.696906 kJ/mol
# Density = 1.918011 g / cm^3
# Si number density = 19.223864 Si / 1000 Ang^3
#
#
#
# Elastic Constant Matrix: (Units=GPa)
#
#
# Indices 1 2 3 4 5 6 
#
# 1 106.9922 67.7041 37.1913 8.7569 0.0000 0.0000
# 2 67.7041 106.9934 37.1920 -8.7580 0.0000 0.0000
# 3 37.1913 37.1920 38.0571 0.0003 0.0000 0.0000
# 4 8.7569 -8.7580 0.0003 13.2570 0.0000 0.0000
# 5 0.0000 0.0000 0.0000 0.0000 13.2575 8.7576
# 6 0.0000 0.0000 0.0000 0.0000 8.7576 19.6437
#
#
#
# Elastic Compliance Matrix: (Units=1/GPa)
#
#
# Indices 1 2 3 4 5 6 
#
# 1 0.022940 -0.013137 -0.009580 -0.023831 0.000000 0.000000
# 2 -0.013137 0.022941 -0.009581 0.023833 0.000000 0.000000
# 3 -0.009580 -0.009581 0.045002 -0.000003 0.000000 0.000000
# 4 -0.023831 0.023833 -0.000003 0.106919 0.000000 0.000000
# 5 0.000000 0.000000 0.000000 0.000000 0.106916 -0.047666
# 6 0.000000 0.000000 0.000000 0.000000 -0.047666 0.072158
#
#
# Mechanical properties :
#
#
# Convention : Reuss Voigt Hill
#
# Bulk Modulus (GPa) = 38.04240 59.57972 48.81106
# Shear Modulus (GPa) = 11.10537 16.56196 13.83367
#
# Velocity S-wave (km/s) = 2.40612 2.93837 2.68546
# Velocity P-wave (km/s) = 5.24894 6.52471 5.92128
#
# Compressibility (1/GPa) = 0.02628646
#
# Stress axis : x y z
#
# Youngs Moduli (GPa) = 43.59235 43.59079 22.22142
#
# Poissons Ratio (x) = 0.57264 0.21287
# Poissons Ratio (y) = 0.57266 0.21291
# Poissons Ratio (z) = 0.41760 0.41766
#
# Static dielectric constant tensor:
#      x y z
#    x 1.699200 0.000000 0.000000 
#    y 0.000000 1.699200 0.000000 
#    z 0.000000 0.000000 1.671470 
# 
# From -- ./inp_files/2952.got.cif
#   From: 2010.05.17/outbox.cif.g08.bks.cpg/sg165_2_cif.got.tgz:2952.got - 2010.05.20 11:02:39.
