data_PCOD9578915
_publ_section_title
;
Structure prediction by ZEFSAII (Michael W. Deem and Ramdas Pophale) SiO2 
 PCOD9578915
Probable space group: P -3 C 1
;
_chemical_formula_sum "Si O2"
_cell_formula_units_Z 48
_cell_length_a 13.749927
_cell_length_b 13.749927
_cell_length_c 12.283466
_cell_angle_alpha 90.000000
_cell_angle_beta 90.000000
_cell_angle_gamma 120.000000
_cell_volume 2011.186498
_symmetry_space_group_name_H-M "P -3 C 1"
_symmetry_group_IT_number 165
_symmetry_cell_setting 'hexagonal'
loop_
_space_group_symop_operation_xyz
x,y,z
-y,x-y,z
-x+y,-x,z
x-y,-y,1/2-z
-x,-x+y,1/2-z
y,x,1/2-z
-x,-y,-z
y,-x+y,-z
x-y,x,-z
-x+y,y,1/2+z
x,x-y,1/2+z
-y,-x,1/2+z
loop_
_atom_site_type_symbol
_atom_site_label
_atom_site_fract_x
_atom_site_fract_y
_atom_site_fract_z
Si Si1 0.179514 0.946535 0.951864
Si Si2 0.590530 0.812285 0.275912
Si Si3 0.339611 0.451010 0.571878
Si Si4 0.115460 0.567612 0.870099
O O1 0.172871 0.887096 0.833245
O O2 0.289383 0.949885 0.999035
O O3 0.071732 0.869917 0.028724
O O4 0.577087 0.760286 0.155705
O O5 0.521268 0.697871 0.343554
O O6 0.514551 0.869267 0.288373
O O7 0.451383 0.464999 0.625327
O O8 0.387765 0.550458 0.484894
#
# Coordination Sequence:
#
# PCOD9578915 Si02
#       4
#    12  12  12  12
#     4  11  24  44  71 105 139 191 244 307 358 432
#     4  11  23  43  72 104 146 191 242 295 373 428
#     4  10  23  45  70 104 152 188 241 309 358 434
#     4  10  22  42  69 104 145 193 239 296 360 431
#
# _framework density 23.866509000000001
#
# number of rings (size 3 to 8) (size 9 to 14) (size 15 to 20)
#    0.000    1.500    2.500    1.500    0.000    5.000 
#    9.000    0.000    0.000    3.000    0.000    0.000 
#    0.000    0.000    0.000    0.000    0.000    0.000 
#
# Total GULP energy -267717.665395 kJ/mol
# GULP energy per Si atom -5577.451362 kJ/mol
# Density = 2.381219 g / cm^3
# Si number density = 23.866509 Si / 1000 Ang^3
#
#
#
# Elastic Constant Matrix: (Units=GPa)
#
#
# Indices 1 2 3 4 5 6 
#
# 1 88.2294 15.5733 21.4094 5.2164 0.0000 0.0000
# 2 15.5733 88.2294 21.4094 -5.2164 0.0000 0.0000
# 3 21.4094 21.4094 91.5518 0.0000 0.0000 0.0000
# 4 5.2164 -5.2164 0.0000 21.2668 0.0000 0.0000
# 5 0.0000 0.0000 0.0000 0.0000 21.2668 5.2164
# 6 0.0000 0.0000 0.0000 0.0000 5.2164 36.3281
#
#
#
# Elastic Compliance Matrix: (Units=1/GPa)
#
#
# Indices 1 2 3 4 5 6 
#
# 1 0.012464 -0.001802 -0.002493 -0.003499 0.000000 0.000000
# 2 -0.001802 0.012464 -0.002493 0.003499 0.000000 0.000000
# 3 -0.002493 -0.002493 0.012089 0.000000 0.000000 0.000000
# 4 -0.003499 0.003499 0.000000 0.048738 0.000000 0.000000
# 5 0.000000 0.000000 0.000000 0.000000 0.048738 -0.006998
# 6 0.000000 0.000000 0.000000 0.000000 -0.006998 0.028532
#
#
# Mechanical properties :
#
#
# Convention : Reuss Voigt Hill
#
# Bulk Modulus (GPa) = 42.66236 42.75497 42.70866
# Shear Modulus (GPa) = 27.11268 29.74692 28.42980
#
# Velocity S-wave (km/s) = 3.37414 3.53425 3.45512
# Velocity P-wave (km/s) = 5.75273 5.88283 5.81815
#
# Compressibility (1/GPa) = 0.02343987
#
# Stress axis : x y z
#
# Youngs Moduli (GPa) = 80.23079 80.23079 82.72039
#
# Poissons Ratio (x) = 0.14457 0.20625
# Poissons Ratio (y) = 0.14457 0.20625
# Poissons Ratio (z) = 0.20004 0.20004
#
# Static dielectric constant tensor:
#      x y z
#    x 1.919470 0.000000 0.000000 
#    y 0.000000 1.919470 0.000000 
#    z 0.000000 0.000000 2.102020 
# 
# From -- ./inp_files/1022.got.cif
#   From: 2010.05.17/outbox.cif.g08.bks.cpg/sg165_1_cif.got.tgz:1022.got - 2010.05.20 11:02:39.
