data_PCOD9578015
_publ_section_title
;
Structure prediction by ZEFSAII (Michael W. Deem and Ramdas Pophale) SiO2 
 PCOD9578015
Probable space group: P -3 1 C
;
_chemical_formula_sum "Si O2"
_cell_formula_units_Z 72
_cell_length_a 24.532608
_cell_length_b 24.532608
_cell_length_c 8.985516
_cell_angle_alpha 90.000000
_cell_angle_beta 90.000000
_cell_angle_gamma 120.000000
_cell_volume 4683.398283
_symmetry_space_group_name_H-M "P -3 1 C"
_symmetry_group_IT_number 163
_symmetry_cell_setting 'hexagonal'
loop_
_space_group_symop_operation_xyz
x,y,z
-y,x-y,z
-x+y,-x,z
-y,-x,1/2-z
-x+y,y,1/2-z
x,x-y,1/2-z
-x,-y,-z
y,-x+y,-z
x-y,x,-z
y,x,1/2+z
x-y,-y,1/2+z
-x,-x+y,1/2+z
loop_
_atom_site_type_symbol
_atom_site_label
_atom_site_fract_x
_atom_site_fract_y
_atom_site_fract_z
Si Si1 0.181586 0.818415 0.421438
Si Si2 0.364525 0.068249 0.071019
Si Si3 0.635475 0.703723 0.928983
Si Si4 0.857311 0.489063 0.071391
Si Si5 0.510937 0.368248 0.428608
Si Si6 0.515948 0.257974 0.580263
O O1 0.170863 0.829137 0.250000
O O2 0.227663 0.882676 0.506550
O O3 0.117325 0.772337 0.506548
O O4 0.219767 0.780234 0.419557
O O5 0.360153 0.065827 0.250001
O O6 0.438355 0.096351 0.028694
O O7 0.323720 1.000000 0.000001
O O8 0.561645 0.657996 0.971308
O O9 0.851641 0.488232 0.250000
O O10 0.879564 0.439782 0.027878
O O11 0.788894 0.466509 0.002184
O O12 0.533491 0.322385 0.497816
O O13 0.538176 0.269088 0.750000
#
# Coordination Sequence:
#
# PCOD9578015 Si02
#       6
#    12  12  12  12  12  12
#     4   9  17  31  49  67  89 117 148 184 225 268
#     4  10  19  31  48  70  94 121 154 189 228 278
#     4  10  19  31  48  70  94 121 154 189 228 278
#     4   9  18  32  47  62  84 116 152 190 235 288
#     4   9  18  32  47  62  84 116 152 190 235 288
#     4   9  17  29  45  63  81 105 141 186 235 282
#
# _framework density 15.373453
#
# number of rings (size 3 to 8) (size 9 to 14) (size 15 to 20)
#    0.000    2.667    0.000    2.000    0.000    6.667 
#    1.000    0.000    0.000    0.000    0.000    0.000 
#    0.000    0.000    0.000    0.500    0.000    7.000 
#
# Total GULP energy -401223.055569 kJ/mol
# GULP energy per Si atom -5572.542438 kJ/mol
# Density = 1.533846 g / cm^3
# Si number density = 15.373453 Si / 1000 Ang^3
#
#
#
# Elastic Constant Matrix: (Units=GPa)
#
#
# Indices 1 2 3 4 5 6 
#
# 1 90.3582 64.5243 43.1314 0.0000 0.0000 0.0000
# 2 64.5243 90.3582 43.1314 0.0000 0.0000 0.0000
# 3 43.1314 43.1314 56.7352 0.0000 0.0000 0.0000
# 4 0.0000 0.0000 0.0000 20.4844 0.0000 0.0000
# 5 0.0000 0.0000 0.0000 0.0000 20.4844 0.0000
# 6 0.0000 0.0000 0.0000 0.0000 0.0000 12.9170
#
#
#
# Elastic Compliance Matrix: (Units=1/GPa)
#
#
# Indices 1 2 3 4 5 6 
#
# 1 0.024953 -0.013756 -0.008513 0.000000 0.000000 0.000000
# 2 -0.013756 0.024953 -0.008513 0.000000 0.000000 0.000000
# 3 -0.008513 -0.008513 0.030569 0.000000 0.000000 0.000000
# 4 0.000000 0.000000 0.000000 0.048818 0.000000 0.000000
# 5 0.000000 0.000000 0.000000 0.000000 0.048818 0.000000
# 6 0.000000 0.000000 0.000000 0.000000 0.000000 0.077418
#
#
# Mechanical properties :
#
#
# Convention : Reuss Voigt Hill
#
# Bulk Modulus (GPa) = 52.87279 59.89176 56.38227
# Shear Modulus (GPa) = 15.46097 16.55478 16.00787
#
# Velocity S-wave (km/s) = 3.17471 3.28509 3.23037
# Velocity P-wave (km/s) = 6.92136 7.30969 7.11817
#
# Compressibility (1/GPa) = 0.01891332
#
# Stress axis : x y z
#
# Youngs Moduli (GPa) = 40.07493 40.07493 32.71294
#
# Poissons Ratio (x) = 0.55125 0.27848
# Poissons Ratio (y) = 0.55125 0.27848
# Poissons Ratio (z) = 0.34115 0.34115
#
# Static dielectric constant tensor:
#      x y z
#    x 1.498190 0.000000 0.000000 
#    y 0.000000 1.498190 0.000000 
#    z 0.000000 0.000000 1.515460 
# 
# From -- ./inp_files/1251.got.cif
#   From: 2010.05.17/outbox.cif.g08.bks.cpg/sg163_1_cif.got.tgz:1251.got - 2010.05.20 10:56:03.
