data_PCOD9578858
_publ_section_title
;
Structure prediction by ZEFSAII (Michael W. Deem and Ramdas Pophale) SiO2 
 PCOD9578858
Probable space group: P -3 C 1
;
_chemical_formula_sum "Si O2"
_cell_formula_units_Z 84
_cell_length_a 17.426830
_cell_length_b 17.426830
_cell_length_c 14.250211
_cell_angle_alpha 90.000000
_cell_angle_beta 90.000000
_cell_angle_gamma 120.000000
_cell_volume 3747.906224
_symmetry_space_group_name_H-M "P -3 C 1"
_symmetry_group_IT_number 165
_symmetry_cell_setting 'hexagonal'
loop_
_space_group_symop_operation_xyz
x,y,z
-y,x-y,z
-x+y,-x,z
x-y,-y,1/2-z
-x,-x+y,1/2-z
y,x,1/2-z
-x,-y,-z
y,-x+y,-z
x-y,x,-z
-x+y,y,1/2+z
x,x-y,1/2+z
-y,-x,1/2+z
loop_
_atom_site_type_symbol
_atom_site_label
_atom_site_fract_x
_atom_site_fract_y
_atom_site_fract_z
Si Si1 0.207774 0.889138 0.402478
Si Si2 0.856421 0.511348 0.008959
Si Si3 0.324619 0.833965 0.493170
Si Si4 0.708521 0.877598 0.213199
Si Si5 0.902663 0.095121 0.455614
Si Si6 0.383073 0.013560 0.853112
Si Si7 0.316605 0.944048 0.160133
O O1 0.279664 0.857862 0.407758
O O2 0.132965 0.849954 0.323564
O O3 0.157294 0.866299 0.501066
O O4 0.275430 0.992882 0.386013
O O5 0.919538 0.580315 0.090561
O O6 0.760577 0.499580 0.982945
O O7 0.835445 0.413609 0.035597
O O8 0.916709 0.551526 0.915811
O O9 0.358756 0.909970 0.574101
O O10 0.797284 0.903188 0.155575
O O11 0.678129 0.944725 0.176826
O O12 0.634678 0.775393 0.191263
O O13 0.997908 0.142966 0.500891
O O14 0.415299 0.000000 0.750000
O O15 0.371952 0.000000 0.250000
#
# Coordination Sequence:
#
# PCOD9578858 Si02
#       7
#    12  12  12  12  12  12  12
#     4  11  23  42  71 100 135 187 241 298 352 429
#     4  12  25  49  71 107 145 194 238 297 374 434
#     4  12  26  47  73 101 149 188 236 302 364 438
#     4  11  23  41  70 103 136 184 238 302 357 425
#     4  12  25  41  64  98 144 190 240 298 365 428
#     4  12  26  43  72 110 140 181 243 298 350 430
#     4  10  20  40  72 103 135 184 239 287 354 424
#
# _framework density 22.412513000000001
#
# number of rings (size 3 to 8) (size 9 to 14) (size 15 to 20)
#    0.000    0.571    5.714    1.714    4.000    0.571 
#    2.571    0.000    0.000    1.714    0.000    0.000 
#    0.000    0.000    0.000    0.000    0.000    0.000 
#
# Total GULP energy -468395.511846 kJ/mol
# GULP energy per Si atom -5576.137046 kJ/mol
# Density = 2.236150 g / cm^3
# Si number density = 22.412513 Si / 1000 Ang^3
#
#
#
# Elastic Constant Matrix: (Units=GPa)
#
#
# Indices 1 2 3 4 5 6 
#
# 1 101.0633 57.5242 35.8274 5.2315 0.0000 0.0000
# 2 57.5242 101.0633 35.8274 -5.2315 0.0000 0.0000
# 3 35.8274 35.8274 130.3378 0.0000 0.0000 0.0000
# 4 5.2315 -5.2315 0.0000 21.5327 0.0000 0.0000
# 5 0.0000 0.0000 0.0000 0.0000 21.5327 5.2315
# 6 0.0000 0.0000 0.0000 0.0000 5.2315 21.7696
#
#
#
# Elastic Compliance Matrix: (Units=1/GPa)
#
#
# Indices 1 2 3 4 5 6 
#
# 1 0.015796 -0.008596 -0.001979 -0.005926 0.000000 0.000000
# 2 -0.008596 0.015796 -0.001979 0.005926 0.000000 0.000000
# 3 -0.001979 -0.001979 0.008760 0.000000 0.000000 0.000000
# 4 -0.005926 0.005926 0.000000 0.049321 0.000000 0.000000
# 5 0.000000 0.000000 0.000000 0.000000 0.049321 -0.011852
# 6 0.000000 0.000000 0.000000 0.000000 -0.011852 0.048784
#
#
# Mechanical properties :
#
#
# Convention : Reuss Voigt Hill
#
# Bulk Modulus (GPa) = 65.60072 65.64696 65.62384
# Shear Modulus (GPa) = 22.93924 26.51938 24.72931
#
# Velocity S-wave (km/s) = 3.20269 3.44356 3.32531
# Velocity P-wave (km/s) = 6.55817 6.72047 6.63981
#
# Compressibility (1/GPa) = 0.01524373
#
# Stress axis : x y z
#
# Youngs Moduli (GPa) = 63.30741 63.30741 114.14985
#
# Poissons Ratio (x) = 0.54419 0.22592
# Poissons Ratio (y) = 0.54419 0.22592
# Poissons Ratio (z) = 0.12529 0.12529
#
# Static dielectric constant tensor:
#      x y z
#    x 1.903160 0.000000 0.000000 
#    y 0.000000 1.903160 0.000000 
#    z 0.000000 0.000000 1.891630 
# 
# From -- ./inp_files/1882.got.cif
#   From: 2010.05.17/outbox.cif.g08.bks.cpg/sg165_1_cif.got.tgz:1882.got - 2010.05.20 11:02:39.
