data_PCOD9578510
_publ_section_title
;
Structure prediction by ZEFSAII (Michael W. Deem and Ramdas Pophale) SiO2 
 PCOD9578510
Probable space group: P -3 M 1
;
_chemical_formula_sum "Si O2"
_cell_formula_units_Z 84
_cell_length_a 19.665770
_cell_length_b 19.665770
_cell_length_c 13.925642
_cell_angle_alpha 90.000000
_cell_angle_beta 90.000000
_cell_angle_gamma 120.000000
_cell_volume 4664.099095
_symmetry_space_group_name_H-M "P -3 M 1"
_symmetry_group_IT_number 164
_symmetry_cell_setting 'hexagonal'
loop_
_space_group_symop_operation_xyz
x,y,z
-y,x-y,z
-x+y,-x,z
x-y,-y,-z
-x,-x+y,-z
y,x,-z
-x,-y,-z
y,-x+y,-z
x-y,x,-z
-x+y,y,z
x,x-y,z
-y,-x,z
loop_
_atom_site_type_symbol
_atom_site_label
_atom_site_fract_x
_atom_site_fract_y
_atom_site_fract_z
Si Si1 0.176823 0.509392 0.723691
Si Si2 0.470217 0.379304 0.468429
Si Si3 0.084443 0.324910 0.225992
Si Si4 0.740523 0.792182 0.910228
Si Si5 0.661977 0.563734 0.076928
Si Si6 0.675341 0.761544 0.454141
Si Si7 0.385377 0.465293 0.128962
O O1 0.249715 0.499430 0.693015
O O2 0.200080 0.600040 0.724695
O O3 0.106821 0.468011 0.645493
O O4 0.151065 0.476150 0.830667
O O5 0.427424 0.427424 0.500000
O O6 0.562310 0.437690 0.492161
O O7 0.416125 0.296232 0.518577
O O8 0.159143 0.318285 0.194165
O O9 0.077168 0.317382 0.339909
O O10 0.097736 0.409424 0.194090
O O11 0.007137 0.256319 0.175518
O O12 0.755975 0.877988 0.885770
O O13 0.649278 0.737363 0.940099
O O14 0.791407 0.791407 0.000000
O O15 0.589107 0.576245 0.104742
O O16 0.642568 0.520748 0.974788
O O17 0.726667 0.726667 0.500000
O O18 0.698894 0.849447 0.484831
O O19 0.452878 0.547123 0.170673
#
# Coordination Sequence:
#
# PCOD9578510 Si02
#       7
#    12  12  12  12  12  12  12
#     4  11  22  35  53  78 112 149 186 229 280 340
#     4   9  20  36  54  79 111 143 182 233 283 337
#     4  10  22  39  56  81 119 152 186 243 299 344
#     4  11  21  35  59  87 115 151 192 234 286 352
#     4  10  19  34  51  81 115 144 182 225 274 330
#     4  10  22  39  59  84 114 147 191 247 299 348
#     4  10  19  33  55  81 111 148 188 228 271 330
#
# _framework density 18.009910000000001
#
# number of rings (size 3 to 8) (size 9 to 14) (size 15 to 20)
#    0.000    1.857    2.857    3.143    8.000    1.714 
#    0.000    0.000    0.000    3.286    0.000    0.000 
#    0.000    0.000    0.000    0.000    0.000    0.000 
#
# Total GULP energy -468376.347168 kJ/mol
# GULP energy per Si atom -5575.908895 kJ/mol
# Density = 1.796892 g / cm^3
# Si number density = 18.009910 Si / 1000 Ang^3
#
#
#
# Elastic Constant Matrix: (Units=GPa)
#
#
# Indices 1 2 3 4 5 6 
#
# 1 86.8015 55.5884 33.6342 0.0851 0.0000 0.0000
# 2 55.5884 86.8015 33.6342 -0.0851 0.0000 0.0000
# 3 33.6342 33.6342 58.1495 0.0000 0.0000 0.0000
# 4 0.0851 -0.0851 0.0000 17.2499 0.0000 0.0000
# 5 0.0000 0.0000 0.0000 0.0000 17.2499 0.0851
# 6 0.0000 0.0000 0.0000 0.0000 0.0851 15.6066
#
#
#
# Elastic Compliance Matrix: (Units=1/GPa)
#
#
# Indices 1 2 3 4 5 6 
#
# 1 0.020851 -0.011188 -0.005589 -0.000158 0.000000 0.000000
# 2 -0.011188 0.020851 -0.005589 0.000158 0.000000 0.000000
# 3 -0.005589 -0.005589 0.023663 0.000000 0.000000 0.000000
# 4 -0.000158 0.000158 0.000000 0.057973 0.000000 0.000000
# 5 0.000000 0.000000 0.000000 0.000000 0.057973 -0.000316
# 6 0.000000 0.000000 0.000000 0.000000 -0.000316 0.064077
#
#
# Mechanical properties :
#
#
# Convention : Reuss Voigt Hill
#
# Bulk Modulus (GPa) = 48.46781 53.05177 50.75979
# Shear Modulus (GPa) = 16.83507 17.28099 17.05803
#
# Velocity S-wave (km/s) = 3.06071 3.10098 3.08091
# Velocity P-wave (km/s) = 6.28178 6.50710 6.39544
#
# Compressibility (1/GPa) = 0.02063225
#
# Stress axis : x y z
#
# Youngs Moduli (GPa) = 47.95908 47.95908 42.25994
#
# Poissons Ratio (x) = 0.53654 0.23621
# Poissons Ratio (y) = 0.53654 0.23621
# Poissons Ratio (z) = 0.26807 0.26807
#
# Static dielectric constant tensor:
#      x y z
#    x 1.631640 0.000000 0.000000 
#    y 0.000000 1.631640 0.000000 
#    z 0.000000 0.000000 1.629200 
# 
# From -- ./inp_files/2945.got.cif
#   From: 2010.05.17/outbox.cif.g08.bks.cpg/sg164_2_cif.got.tgz:2945.got - 2010.05.20 10:58:56.
