data_PCOD9578797
_publ_section_title
;
Structure prediction by ZEFSAII (Michael W. Deem and Ramdas Pophale) SiO2 
 PCOD9578797
Probable space group: P -3 C 1
;
_chemical_formula_sum "Si O2"
_cell_formula_units_Z 84
_cell_length_a 22.508054
_cell_length_b 22.508054
_cell_length_c 10.384183
_cell_angle_alpha 90.000000
_cell_angle_beta 90.000000
_cell_angle_gamma 120.000000
_cell_volume 4555.949081
_symmetry_space_group_name_H-M "P -3 C 1"
_symmetry_group_IT_number 165
_symmetry_cell_setting 'hexagonal'
loop_
_space_group_symop_operation_xyz
x,y,z
-y,x-y,z
-x+y,-x,z
x-y,-y,1/2-z
-x,-x+y,1/2-z
y,x,1/2-z
-x,-y,-z
y,-x+y,-z
x-y,x,-z
-x+y,y,1/2+z
x,x-y,1/2+z
-y,-x,1/2+z
loop_
_atom_site_type_symbol
_atom_site_label
_atom_site_fract_x
_atom_site_fract_y
_atom_site_fract_z
Si Si1 0.513152 0.925850 0.184016
Si Si2 0.897707 0.671355 0.159807
Si Si3 0.726986 0.207813 0.872972
Si Si4 0.608801 0.060678 0.854219
Si Si5 0.191095 0.695420 0.341499
Si Si6 0.672717 0.648553 0.959296
Si Si7 0.666041 0.857628 0.056632
O O1 0.451699 0.924639 0.103857
O O2 0.485171 0.864291 0.286500
O O3 0.574758 0.926914 0.106037
O O4 0.551859 0.000000 0.250000
O O5 0.850247 0.587971 0.157599
O O6 0.886210 0.694783 0.300116
O O7 0.973256 0.685345 0.128924
O O8 0.872460 0.698235 0.039484
O O9 0.672005 0.133889 0.814196
O O10 0.749367 0.266037 0.764638
O O11 0.795287 0.205585 0.912249
O O12 0.697119 0.214485 0.011231
O O13 0.575517 0.000000 0.750000
O O14 0.636412 0.028606 0.958311
O O15 0.745000 0.665245 0.018501
#
# Coordination Sequence:
#
# PCOD9578797 Si02
#       7
#    12  12  12  12  12  12  12
#     4  11  19  35  51  77 107 144 173 229 288 336
#     4  10  19  33  53  75 107 138 178 216 254 325
#     4  10  20  37  53  78 105 141 178 219 268 341
#     4  11  25  32  50  80 117 134 178 235 290 330
#     4  10  19  34  57  72 105 137 180 214 268 332
#     4  12  19  34  54  76 108 146 185 220 269 336
#     4  10  20  31  55  74 104 141 181 208 268 321
#
# _framework density 18.437432000000001
#
# number of rings (size 3 to 8) (size 9 to 14) (size 15 to 20)
#    0.000    1.429    7.143    0.857    6.000    1.143 
#    0.000    0.000    0.000    0.571    0.000    0.000 
#    0.000    0.000    0.000    0.429    0.000    4.714 
#
# Total GULP energy -467657.802048 kJ/mol
# GULP energy per Si atom -5567.354786 kJ/mol
# Density = 1.839547 g / cm^3
# Si number density = 18.437432 Si / 1000 Ang^3
#
#
#
# Elastic Constant Matrix: (Units=GPa)
#
#
# Indices 1 2 3 4 5 6 
#
# 1 67.4974 33.0991 28.6195 -6.4594 0.0000 0.0000
# 2 33.0991 67.4974 28.6195 6.4594 0.0000 0.0000
# 3 28.6195 28.6195 81.3019 0.0000 0.0000 0.0000
# 4 -6.4594 6.4594 0.0000 22.3213 0.0000 0.0000
# 5 0.0000 0.0000 0.0000 0.0000 22.3213 -6.4594
# 6 0.0000 0.0000 0.0000 0.0000 -6.4594 17.1992
#
#
#
# Elastic Compliance Matrix: (Units=1/GPa)
#
#
# Indices 1 2 3 4 5 6 
#
# 1 0.022523 -0.010093 -0.004376 0.009439 0.000000 0.000000
# 2 -0.010093 0.022523 -0.004376 -0.009439 0.000000 0.000000
# 3 -0.004376 -0.004376 0.015380 0.000000 0.000000 0.000000
# 4 0.009439 -0.009439 0.000000 0.050263 0.000000 0.000000
# 5 0.000000 0.000000 0.000000 0.000000 0.050263 0.018877
# 6 0.000000 0.000000 0.000000 0.000000 0.018877 0.065232
#
#
# Mechanical properties :
#
#
# Convention : Reuss Voigt Hill
#
# Bulk Modulus (GPa) = 43.97818 44.10811 44.04314
# Shear Modulus (GPa) = 18.41942 20.76560 19.59251
#
# Velocity S-wave (km/s) = 3.16416 3.35964 3.26337
# Velocity P-wave (km/s) = 6.10358 6.24697 6.17569
#
# Compressibility (1/GPa) = 0.02273855
#
# Stress axis : x y z
#
# Youngs Moduli (GPa) = 44.39863 44.39863 65.01752
#
# Poissons Ratio (x) = 0.44810 0.28450
# Poissons Ratio (y) = 0.44810 0.28450
# Poissons Ratio (z) = 0.19428 0.19428
#
# Static dielectric constant tensor:
#      x y z
#    x 1.657350 0.000000 0.000000 
#    y 0.000000 1.657350 0.000000 
#    z 0.000000 0.000000 1.656920 
# 
# From -- ./inp_files/1212.got.cif
#   From: 2010.05.17/outbox.cif.g08.bks.cpg/sg165_1_cif.got.tgz:1212.got - 2010.05.20 11:02:39.
