data_PCOD9578272
_publ_section_title
;
Structure prediction by ZEFSAII (Michael W. Deem and Ramdas Pophale) SiO2 
 PCOD9578272
Probable space group: P -3 1 C
;
_chemical_formula_sum "Si O2"
_cell_formula_units_Z 58
_cell_length_a 14.749228
_cell_length_b 14.749228
_cell_length_c 14.087226
_cell_angle_alpha 90.000000
_cell_angle_beta 90.000000
_cell_angle_gamma 120.000000
_cell_volume 2653.961950
_symmetry_space_group_name_H-M "P -3 1 C"
_symmetry_group_IT_number 163
_symmetry_cell_setting 'hexagonal'
loop_
_space_group_symop_operation_xyz
x,y,z
-y,x-y,z
-x+y,-x,z
-y,-x,1/2-z
-x+y,y,1/2-z
x,x-y,1/2-z
-x,-y,-z
y,-x+y,-z
x-y,x,-z
y,x,1/2+z
x-y,-y,1/2+z
-x,-x+y,1/2+z
loop_
_atom_site_type_symbol
_atom_site_label
_atom_site_fract_x
_atom_site_fract_y
_atom_site_fract_z
Si Si1 0.919152 0.781138 0.459033
Si Si2 0.397373 0.342299 0.545205
Si Si3 0.750253 0.875127 0.750000
Si Si4 0.666668 0.333334 0.633362
Si Si5 0.492660 0.365173 0.940446
Si Si6 0.065739 0.348625 0.241762
O O1 0.857696 0.814713 0.531209
O O2 0.899694 0.666641 0.489123
O O3 0.886518 0.798990 0.354528
O O4 0.519357 0.418940 0.524504
O O5 0.335644 0.404670 0.520116
O O6 0.396830 0.326243 0.656494
O O7 0.701987 0.751680 0.732299
O O8 0.666668 0.333334 0.750000
O O9 0.691965 0.443958 0.589604
O O10 0.427526 0.348129 0.842910
O O11 0.161146 0.322291 0.250000
#
# Coordination Sequence:
#
# PCOD9578272 Si02
#       6
#    12  12   6   4  12  12
#     4  12  26  45  69 100 142 191 236 289 346 427
#     4  11  24  43  70 100 144 186 229 291 361 425
#     4  12  26  40  66 102 134 188 232 286 350 424
#     4  12  24  42  72 105 139 176 247 309 348 420
#     4  11  25  42  70 107 138 185 237 299 361 423
#     4  12  24  45  70  99 141 183 236 296 352 420
#
# _framework density 21.854119000000001
#
# number of rings (size 3 to 8) (size 9 to 14) (size 15 to 20)
#    0.000    0.414    4.138    5.172    2.897    0.000 
#    0.621    0.000    0.000    0.000    0.000    0.000 
#    0.000    0.000    0.000    0.000    0.000    0.000 
#
# Total GULP energy -323179.615886 kJ/mol
# GULP energy per Si atom -5572.062343 kJ/mol
# Density = 2.180438 g / cm^3
# Si number density = 21.854119 Si / 1000 Ang^3
#
#
#
# Elastic Constant Matrix: (Units=GPa)
#
#
# Indices 1 2 3 4 5 6 
#
# 1 96.5420 41.4900 6.8093 0.0001 -8.3273 0.0001
# 2 41.4900 96.5418 6.8094 -0.0002 8.3272 -0.0003
# 3 6.8093 6.8094 80.9835 -0.0001 -0.0003 0.0000
# 4 0.0001 -0.0002 -0.0001 27.8418 0.0002 8.3271
# 5 -8.3273 8.3272 -0.0003 0.0002 27.8415 -0.0002
# 6 0.0001 -0.0003 0.0000 8.3271 -0.0002 27.5259
#
#
#
# Elastic Compliance Matrix: (Units=1/GPa)
#
#
# Indices 1 2 3 4 5 6 
#
# 1 0.013639 -0.006333 -0.000614 0.000000 0.005973 0.000000
# 2 -0.006333 0.013639 -0.000614 0.000000 -0.005973 0.000000
# 3 -0.000614 -0.000614 0.012451 0.000000 0.000000 0.000000
# 4 0.000000 0.000000 0.000000 0.039490 0.000000 -0.011946
# 5 0.005973 -0.005973 0.000000 0.000000 0.039491 0.000000
# 6 0.000000 0.000000 0.000000 -0.011946 0.000000 0.039943
#
#
# Mechanical properties :
#
#
# Convention : Reuss Voigt Hill
#
# Bulk Modulus (GPa) = 40.64203 42.69834 41.67018
# Shear Modulus (GPa) = 27.47578 31.23907 29.35742
#
# Velocity S-wave (km/s) = 3.54960 3.78489 3.66913
# Velocity P-wave (km/s) = 5.95289 6.21939 6.08760
#
# Compressibility (1/GPa) = 0.02460507
#
# Stress axis : x y z
#
# Youngs Moduli (GPa) = 73.32160 73.32150 80.31167
#
# Poissons Ratio (x) = 0.46436 0.04933
# Poissons Ratio (y) = 0.46436 0.04933
# Poissons Ratio (z) = 0.04504 0.04504
#
# Static dielectric constant tensor:
#      x y z
#    x 1.891380 0.000000 0.000000 
#    y 0.000000 1.891380 0.000000 
#    z 0.000000 0.000000 1.825820 
# 
# From -- ./inp_files/2426.got.cif
#   From: 2010.05.17/outbox.cif.g08.bks.cpg/sg163_2_cif.got.tgz:2426.got - 2010.05.20 10:56:03.
