data_PCOD9578017
_publ_section_title
;
Structure prediction by ZEFSAII (Michael W. Deem and Ramdas Pophale) SiO2 
 PCOD9578017
Probable space group: P -3 1 C
;
_chemical_formula_sum "Si O2"
_cell_formula_units_Z 84
_cell_length_a 15.589543
_cell_length_b 15.589543
_cell_length_c 25.444751
_cell_angle_alpha 90.000000
_cell_angle_beta 90.000000
_cell_angle_gamma 120.000000
_cell_volume 5355.445517
_symmetry_space_group_name_H-M "P -3 1 C"
_symmetry_group_IT_number 163
_symmetry_cell_setting 'hexagonal'
loop_
_space_group_symop_operation_xyz
x,y,z
-y,x-y,z
-x+y,-x,z
-y,-x,1/2-z
-x+y,y,1/2-z
x,x-y,1/2-z
-x,-y,-z
y,-x+y,-z
x-y,x,-z
y,x,1/2+z
x-y,-y,1/2+z
-x,-x+y,1/2+z
loop_
_atom_site_type_symbol
_atom_site_label
_atom_site_fract_x
_atom_site_fract_y
_atom_site_fract_z
Si Si1 0.000443 0.798806 0.938046
Si Si2 0.018401 0.509201 0.313870
Si Si3 0.790802 0.395401 0.313455
Si Si4 0.723421 0.649895 0.652749
Si Si5 0.000444 0.201638 0.938046
Si Si6 0.000328 0.796905 0.250000
Si Si7 0.350105 0.276580 0.652749
O O1 0.975632 0.705927 0.901443
O O2 0.911132 0.822264 0.929069
O O3 0.104821 0.895179 0.924757
O O4 1.000000 0.777743 0.000000
O O5 0.023197 0.511599 0.250000
O O6 0.066418 0.619758 0.335648
O O7 0.066418 0.446660 0.335648
O O8 0.902742 0.451371 0.331161
O O9 0.720463 0.440927 0.328671
O O10 0.795123 0.397562 0.250000
O O11 0.745569 0.728952 0.699207
O O12 0.813977 0.627954 0.653608
O O13 0.975633 0.269705 0.901442
O O14 0.089052 0.910948 0.250000
O O15 0.016617 0.745568 0.199207
O O16 0.895005 0.790009 0.250000
#
# Coordination Sequence:
#
# PCOD9578017 Si02
#       7
#    12  12  12  12  12  12  12
#     4   9  17  31  53  81 111 141 170 205 250 312
#     4  11  20  34  53  69  97 141 176 219 273 314
#     4   7  14  28  42  65  93 117 157 204 242 302
#     4  10  21  35  49  73 104 130 179 223 256 310
#     4   9  17  31  53  81 111 141 170 205 250 312
#     4  10  19  31  48  74 108 138 160 197 255 328
#     4  10  21  35  49  73 104 130 179 223 256 310
#
# _framework density 15.684969000000001
#
# number of rings (size 3 to 8) (size 9 to 14) (size 15 to 20)
#    0.286    2.286    1.429    1.286    0.000    3.429 
#    0.857    3.571    0.000    0.000    0.000    0.000 
#    0.000    0.000    0.000    0.000    0.000    0.000 
#
# Total GULP energy -467964.391868 kJ/mol
# GULP energy per Si atom -5571.004665 kJ/mol
# Density = 1.564927 g / cm^3
# Si number density = 15.684969 Si / 1000 Ang^3
#
#
#
# Elastic Constant Matrix: (Units=GPa)
#
#
# Indices 1 2 3 4 5 6 
#
# 1 103.2328 76.2982 47.5753 0.0000 0.0001 0.0000
# 2 76.2982 103.2328 47.5753 0.0000 -0.0001 0.0000
# 3 47.5753 47.5753 60.5583 0.0000 0.0000 0.0000
# 4 0.0000 0.0000 0.0000 13.1774 0.0000 -0.0001
# 5 0.0001 -0.0001 0.0000 0.0000 13.1774 0.0000
# 6 0.0000 0.0000 0.0000 -0.0001 0.0000 13.4673
#
#
#
# Elastic Compliance Matrix: (Units=1/GPa)
#
#
# Indices 1 2 3 4 5 6 
#
# 1 0.023335 -0.013792 -0.007498 0.000000 0.000000 0.000000
# 2 -0.013792 0.023335 -0.007498 0.000000 0.000000 0.000000
# 3 -0.007498 -0.007498 0.028294 0.000000 0.000000 0.000000
# 4 0.000000 0.000000 0.000000 0.075887 0.000000 0.000001
# 5 0.000000 0.000000 0.000000 0.000000 0.075887 0.000000
# 6 0.000000 0.000000 0.000000 0.000001 0.000000 0.074254
#
#
# Mechanical properties :
#
#
# Convention : Reuss Voigt Hill
#
# Bulk Modulus (GPa) = 57.50324 67.76907 62.63616
# Shear Modulus (GPa) = 13.72255 14.33611 14.02933
#
# Velocity S-wave (km/s) = 2.96105 3.02653 2.99397
# Velocity P-wave (km/s) = 6.95927 7.45073 7.20919
#
# Compressibility (1/GPa) = 0.01739032
#
# Stress axis : x y z
#
# Youngs Moduli (GPa) = 42.85343 42.85343 35.34360
#
# Poissons Ratio (x) = 0.59101 0.26500
# Poissons Ratio (y) = 0.59101 0.26500
# Poissons Ratio (z) = 0.32130 0.32130
#
# Static dielectric constant tensor:
#      x y z
#    x 1.515700 0.000000 0.000000 
#    y 0.000000 1.515700 0.000000 
#    z 0.000000 0.000000 1.525280 
# 
# From -- ./inp_files/3935.got.cif
#   From: 2010.05.17/outbox.cif.g08.bks.cpg/sg163_2_cif.got.tgz:3935.got - 2010.05.20 10:56:03.
