data_PCOD9578298
_publ_section_title
;
Structure prediction by ZEFSAII (Michael W. Deem and Ramdas Pophale) SiO2 
 PCOD9578298
Probable space group: P -3 1 C
;
_chemical_formula_sum "Si O2"
_cell_formula_units_Z 72
_cell_length_a 17.271290
_cell_length_b 17.271290
_cell_length_c 17.588591
_cell_angle_alpha 90.000000
_cell_angle_beta 90.000000
_cell_angle_gamma 120.000000
_cell_volume 4543.716587
_symmetry_space_group_name_H-M "P -3 1 C"
_symmetry_group_IT_number 163
_symmetry_cell_setting 'hexagonal'
loop_
_space_group_symop_operation_xyz
x,y,z
-y,x-y,z
-x+y,-x,z
-y,-x,1/2-z
-x+y,y,1/2-z
x,x-y,1/2-z
-x,-y,-z
y,-x+y,-z
x-y,x,-z
y,x,1/2+z
x-y,-y,1/2+z
-x,-x+y,1/2+z
loop_
_atom_site_type_symbol
_atom_site_label
_atom_site_fract_x
_atom_site_fract_y
_atom_site_fract_z
Si Si1 0.153694 0.488080 0.485871
Si Si2 0.760239 0.060183 0.429159
Si Si3 0.620977 0.902677 0.163800
Si Si4 0.299945 0.060183 0.429159
Si Si5 0.620977 0.902677 0.336200
Si Si6 0.846306 0.511920 0.985871
O O1 0.102846 0.401938 0.540181
O O2 0.117395 0.452546 0.400906
O O3 0.257779 0.515559 0.487006
O O4 0.140207 0.570103 0.506772
O O5 0.858198 0.141802 0.412674
O O6 0.759312 0.000000 0.500000
O O7 0.708859 0.993749 0.360442
O O8 0.593355 0.905853 0.250000
O O9 0.639231 0.819615 0.157847
O O10 0.708859 0.993749 0.139558
O O11 0.401938 0.102846 0.459819
O O12 0.547454 0.882605 0.400906
#
# Coordination Sequence:
#
# PCOD9578298 Si02
#       6
#    12  12  12  12  12  12
#     4   9  17  29  45  65  89 116 145 176 211 251
#     4   9  17  29  46  66  86 112 145 178 214 256
#     4   9  18  31  45  63  88 115 142 175 215 257
#     4   9  17  29  46  66  86 112 145 178 214 256
#     4   9  18  31  45  63  88 115 142 175 215 257
#     4   9  17  29  45  65  89 116 145 176 211 251
#
# _framework density 15.846057999999999
#
# number of rings (size 3 to 8) (size 9 to 14) (size 15 to 20)
#    0.000    3.000    0.000    3.333    0.000    7.333 
#    0.000    0.000    0.000    8.000    0.000    0.000 
#    0.000    2.667    0.000    0.000    0.000    0.000 
#
# Total GULP energy -401018.673215 kJ/mol
# GULP energy per Si atom -5569.703795 kJ/mol
# Density = 1.580999 g / cm^3
# Si number density = 15.846058 Si / 1000 Ang^3
#
#
#
# Elastic Constant Matrix: (Units=GPa)
#
#
# Indices 1 2 3 4 5 6 
#
# 1 40.8178 21.9066 -4.1408 0.0000 0.0000 0.0000
# 2 21.9066 40.8178 -4.1408 0.0000 0.0000 0.0000
# 3 -4.1408 -4.1408 33.4155 0.0000 0.0000 0.0000
# 4 0.0000 0.0000 0.0000 11.4062 0.0000 0.0000
# 5 0.0000 0.0000 0.0000 0.0000 11.4062 0.0000
# 6 0.0000 0.0000 0.0000 0.0000 0.0000 9.4556
#
#
#
# Elastic Compliance Matrix: (Units=1/GPa)
#
#
# Indices 1 2 3 4 5 6 
#
# 1 0.034543 -0.018335 0.002008 0.000000 0.000000 0.000000
# 2 -0.018335 0.034543 0.002008 0.000000 0.000000 0.000000
# 3 0.002008 0.002008 0.030424 0.000000 0.000000 0.000000
# 4 0.000000 0.000000 0.000000 0.087671 0.000000 0.000000
# 5 0.000000 0.000000 0.000000 0.000000 0.087671 0.000000
# 6 0.000000 0.000000 0.000000 0.000000 0.000000 0.105758
#
#
# Mechanical properties :
#
#
# Convention : Reuss Voigt Hill
#
# Bulk Modulus (GPa) = 14.10959 15.81122 14.96041
# Shear Modulus (GPa) = 11.55074 13.21534 12.38304
#
# Velocity S-wave (km/s) = 2.70281 2.89101 2.79849
# Velocity P-wave (km/s) = 4.32015 4.59822 4.46135
#
# Compressibility (1/GPa) = 0.07087378
#
# Stress axis : x y z
#
# Youngs Moduli (GPa) = 28.94911 28.94911 32.86879
#
# Poissons Ratio (x) = 0.53079 -0.06602
# Poissons Ratio (y) = 0.53079 -0.06602
# Poissons Ratio (z) = -0.05814 -0.05814
#
# Static dielectric constant tensor:
#      x y z
#    x 1.528920 0.000000 0.000000 
#    y 0.000000 1.528920 0.000000 
#    z 0.000000 0.000000 1.530250 
# 
# From -- ./inp_files/3212.got.cif
#   From: 2010.05.17/outbox.cif.g08.bks.cpg/sg163_2_cif.got.tgz:3212.got - 2010.05.20 10:56:03.
