data_PCOD9578512
_publ_section_title
;
Structure prediction by ZEFSAII (Michael W. Deem and Ramdas Pophale) SiO2 
 PCOD9578512
Probable space group: P -3 M 1
;
_chemical_formula_sum "Si O2"
_cell_formula_units_Z 66
_cell_length_a 17.742869
_cell_length_b 17.742869
_cell_length_c 13.931417
_cell_angle_alpha 90.000000
_cell_angle_beta 90.000000
_cell_angle_gamma 120.000000
_cell_volume 3798.163148
_symmetry_space_group_name_H-M "P -3 M 1"
_symmetry_group_IT_number 164
_symmetry_cell_setting 'hexagonal'
loop_
_space_group_symop_operation_xyz
x,y,z
-y,x-y,z
-x+y,-x,z
x-y,-y,-z
-x,-x+y,-z
y,x,-z
-x,-y,-z
y,-x+y,-z
x-y,x,-z
-x+y,y,z
x,x-y,z
-y,-x,z
loop_
_atom_site_type_symbol
_atom_site_label
_atom_site_fract_x
_atom_site_fract_y
_atom_site_fract_z
Si Si1 0.842241 0.332790 0.189206
Si Si2 0.723601 0.101066 0.791371
Si Si3 0.319337 0.072420 0.301429
Si Si4 0.670942 0.670942 0.500000
Si Si5 0.334482 0.488451 0.393464
Si Si6 0.727540 0.097786 0.005623
O O1 0.854895 0.427448 0.199984
O O2 0.740880 0.259121 0.181557
O O3 0.881716 0.304100 0.276871
O O4 0.887617 0.323544 0.092214
O O5 0.821791 0.178210 0.777464
O O6 0.667405 0.117061 0.712453
O O7 0.698133 0.109367 0.899635
O O8 0.720023 0.010374 0.769112
O O9 0.294617 0.147309 0.285138
O O10 0.299480 0.034859 0.408958
O O11 0.660967 0.580411 0.535764
O O12 0.244447 0.488894 0.406514
O O13 0.416572 0.583429 0.404864
O O14 0.827697 0.172304 0.018272
O O15 0.709124 0.000000 0.000000
#
# Coordination Sequence:
#
# PCOD9578512 Si02
#       6
#    12  12  12   6  12  12
#     4  10  21  35  52  76 108 144 182 220 262 308
#     4   9  19  34  52  77 107 136 170 212 258 304
#     4  10  20  36  57  78 101 134 176 216 263 320
#     4  10  21  36  52  76 103 130 170 222 267 310
#     4  10  20  34  51  72 100 134 172 212 258 309
#     4  10  19  34  53  79 109 142 177 216 259 306
#
# _framework density 17.376819999999999
#
# number of rings (size 3 to 8) (size 9 to 14) (size 15 to 20)
#    0.000    2.182    1.818    1.182    0.000    5.455 
#    0.000    0.000    0.000    4.909    0.000    0.636 
#    0.000    0.000    0.000    0.000    0.000    0.000 
#
# Total GULP energy -367768.708061 kJ/mol
# GULP energy per Si atom -5572.253152 kJ/mol
# Density = 1.733727 g / cm^3
# Si number density = 17.376820 Si / 1000 Ang^3
#
#
#
# Elastic Constant Matrix: (Units=GPa)
#
#
# Indices 1 2 3 4 5 6 
#
# 1 34.6719 14.5313 -11.1563 0.8641 0.0000 0.0000
# 2 14.5313 34.6719 -11.1563 -0.8641 0.0000 0.0000
# 3 -11.1563 -11.1563 59.8671 0.0000 0.0000 0.0000
# 4 0.8641 -0.8641 0.0000 14.6588 0.0000 0.0000
# 5 0.0000 0.0000 0.0000 0.0000 14.6588 0.8641
# 6 0.0000 0.0000 0.0000 0.0000 0.8641 10.0703
#
#
#
# Elastic Compliance Matrix: (Units=1/GPa)
#
#
# Indices 1 2 3 4 5 6 
#
# 1 0.036052 -0.013852 0.004137 -0.002942 0.000000 0.000000
# 2 -0.013852 0.036052 0.004137 0.002942 0.000000 0.000000
# 3 0.004137 0.004137 0.018246 0.000000 0.000000 0.000000
# 4 -0.002942 0.002942 0.000000 0.068565 0.000000 0.000000
# 5 0.000000 0.000000 0.000000 0.000000 0.068565 -0.005884
# 6 0.000000 0.000000 0.000000 0.000000 -0.005884 0.099807
#
#
# Mechanical properties :
#
#
# Convention : Reuss Voigt Hill
#
# Bulk Modulus (GPa) = 12.62731 12.62757 12.62744
# Shear Modulus (GPa) = 13.70466 17.01039 15.35752
#
# Velocity S-wave (km/s) = 2.81138 3.13215 2.97609
# Velocity P-wave (km/s) = 4.22150 4.51256 4.36945
#
# Compressibility (1/GPa) = 0.07919340
#
# Stress axis : x y z
#
# Youngs Moduli (GPa) = 27.73799 27.73799 54.80796
#
# Poissons Ratio (x) = 0.38422 -0.22674
# Poissons Ratio (y) = 0.38422 -0.22674
# Poissons Ratio (z) = -0.11475 -0.11475
#
# Static dielectric constant tensor:
#      x y z
#    x 1.575560 0.000000 0.000000 
#    y 0.000000 1.575560 0.000000 
#    z 0.000000 0.000000 1.638590 
# 
# From -- ./inp_files/3445.got.cif
#   From: 2010.05.17/outbox.cif.g08.bks.cpg/sg164_2_cif.got.tgz:3445.got - 2010.05.20 10:58:56.
