data_PCOD9578804
_publ_section_title
;
Structure prediction by ZEFSAII (Michael W. Deem and Ramdas Pophale) SiO2 
 PCOD9578804
Probable space group: P -3 C 1
;
_chemical_formula_sum "Si O2"
_cell_formula_units_Z 50
_cell_length_a 12.030038
_cell_length_b 12.030038
_cell_length_c 16.342223
_cell_angle_alpha 90.000000
_cell_angle_beta 90.000000
_cell_angle_gamma 120.000000
_cell_volume 2048.216038
_symmetry_space_group_name_H-M "P -3 C 1"
_symmetry_group_IT_number 165
_symmetry_cell_setting 'hexagonal'
loop_
_space_group_symop_operation_xyz
x,y,z
-y,x-y,z
-x+y,-x,z
x-y,-y,1/2-z
-x,-x+y,1/2-z
y,x,1/2-z
-x,-y,-z
y,-x+y,-z
x-y,x,-z
-x+y,y,1/2+z
x,x-y,1/2+z
-y,-x,1/2+z
loop_
_atom_site_type_symbol
_atom_site_label
_atom_site_fract_x
_atom_site_fract_y
_atom_site_fract_z
Si Si1 0.666668 0.333334 0.537751
Si Si2 0.942061 0.439914 0.088174
Si Si3 0.116140 0.706667 0.152533
Si Si4 0.206197 0.917135 0.487125
Si Si5 0.333334 0.666668 0.663739
Si Si6 0.149273 0.149273 0.250000
O O1 0.619394 0.422776 0.578114
O O2 0.666668 0.333334 0.437737
O O3 0.023202 0.552611 0.151683
O O4 0.936448 0.302132 0.088251
O O5 0.000000 0.500000 0.000000
O O6 0.145815 0.751281 0.058308
O O7 0.247296 0.727721 0.191397
O O8 0.048801 0.783962 0.184635
O O9 0.054973 0.822373 0.480783
O O10 0.000000 0.117046 0.250000
#
# Coordination Sequence:
#
# PCOD9578804 Si02
#       6
#     4  12  12  12   4   6
#     4  12  18  36  58 107 145 192 201 292 365 445
#     4  10  19  34  59  94 141 178 230 275 367 430
#     4  11  24  44  69 103 135 194 237 299 370 430
#     4  11  22  34  62 104 149 188 232 296 369 444
#     4  12  21  42  70 101 148 171 240 286 374 442
#     4  10  28  56  76  92 140 194 256 310 362 418
#
# _framework density 24.411490000000001
#
# number of rings (size 3 to 8) (size 9 to 14) (size 15 to 20)
#    0.240    0.960    4.800    4.560    3.360    0.000 
#    6.480    0.000    0.000    0.000    0.000    0.000 
#    0.000    0.000    0.000    0.000    0.000    0.000 
#
# Total GULP energy -278619.703091 kJ/mol
# GULP energy per Si atom -5572.394062 kJ/mol
# Density = 2.435593 g / cm^3
# Si number density = 24.411490 Si / 1000 Ang^3
#
#
#
# Elastic Constant Matrix: (Units=GPa)
#
#
# Indices 1 2 3 4 5 6 
#
# 1 135.2447 53.5020 23.7460 5.6251 0.0000 0.0000
# 2 53.5020 135.2415 23.7458 -5.6246 0.0000 0.0000
# 3 23.7460 23.7458 30.8655 0.0001 0.0000 0.0000
# 4 5.6251 -5.6246 0.0001 17.6565 0.0000 0.0000
# 5 0.0000 0.0000 0.0000 0.0000 17.6565 5.6250
# 6 0.0000 0.0000 0.0000 0.0000 5.6250 40.8712
#
#
#
# Elastic Compliance Matrix: (Units=1/GPa)
#
#
# Indices 1 2 3 4 5 6 
#
# 1 0.009682 -0.003112 -0.005054 -0.004076 0.000000 0.000000
# 2 -0.003112 0.009682 -0.005055 0.004076 0.000000 0.000000
# 3 -0.005054 -0.005055 0.040176 0.000000 0.000000 0.000000
# 4 -0.004076 0.004076 0.000000 0.059233 0.000000 0.000000
# 5 0.000000 0.000000 0.000000 0.000000 0.059233 -0.008152
# 6 0.000000 0.000000 0.000000 0.000000 -0.008152 0.025589
#
#
# Mechanical properties :
#
#
# Convention : Reuss Voigt Hill
#
# Bulk Modulus (GPa) = 30.21350 55.92659 43.07004
# Shear Modulus (GPa) = 20.74073 28.59403 24.66738
#
# Velocity S-wave (km/s) = 2.91800 3.42619 3.18226
# Velocity P-wave (km/s) = 4.87408 6.21381 5.58426
#
# Compressibility (1/GPa) = 0.03309779
#
# Stress axis : x y z
#
# Youngs Moduli (GPa) = 103.28210 103.27963 24.89057
#
# Poissons Ratio (x) = 0.32145 0.12581
# Poissons Ratio (y) = 0.32145 0.12581
# Poissons Ratio (z) = 0.52203 0.52203
#
# Static dielectric constant tensor:
#      x y z
#    x 1.745840 0.000000 0.000000 
#    y 0.000000 1.745980 0.000020 
#    z 0.000000 0.000020 2.206220 
# 
# From -- ./inp_files/2600.got.cif
#   From: 2010.05.17/outbox.cif.g08.bks.cpg/sg165_2_cif.got.tgz:2600.got - 2010.05.20 11:02:39.
