data_PCOD9578681
_publ_section_title
;
Structure prediction by ZEFSAII (Michael W. Deem and Ramdas Pophale) SiO2 
 PCOD9578681
Probable space group: P -3 M 1
;
_chemical_formula_sum "Si O2"
_cell_formula_units_Z 72
_cell_length_a 31.651165
_cell_length_b 31.651165
_cell_length_c 5.027459
_cell_angle_alpha 90.000000
_cell_angle_beta 90.000000
_cell_angle_gamma 120.000000
_cell_volume 4361.727898
_symmetry_space_group_name_H-M "P -3 M 1"
_symmetry_group_IT_number 164
_symmetry_cell_setting 'hexagonal'
loop_
_space_group_symop_operation_xyz
x,y,z
-y,x-y,z
-x+y,-x,z
x-y,-y,-z
-x,-x+y,-z
y,x,-z
-x,-y,-z
y,-x+y,-z
x-y,x,-z
-x+y,y,z
x,x-y,z
-y,-x,z
loop_
_atom_site_type_symbol
_atom_site_label
_atom_site_fract_x
_atom_site_fract_y
_atom_site_fract_z
Si Si1 0.692685 0.642152 0.646445
Si Si2 0.171485 0.342970 0.866970
Si Si3 0.861170 0.722339 0.646632
Si Si4 0.333115 0.765818 0.521390
Si Si5 0.501675 0.201282 0.970345
Si Si6 0.750100 0.967095 0.264038
Si Si7 0.887067 0.598224 0.153954
O O1 0.654386 0.654386 0.500000
O O2 0.742558 0.694509 0.658172
O O3 0.696418 0.604409 0.449234
O O4 0.689835 0.622267 0.945353
O O5 0.148849 0.297698 0.656779
O O6 0.229739 0.372669 0.836639
O O7 0.162746 0.325492 0.170100
O O8 0.917183 0.750751 0.734477
O O9 0.385148 0.770295 0.486482
O O10 0.289817 0.710184 0.475277
O O11 0.322860 0.798185 0.313297
O O12 0.325753 0.781070 0.813935
O O13 0.486448 0.243224 0.964632
O O14 0.455952 0.150794 0.059230
O O15 0.783618 0.000000 0.500000
O O16 0.765161 0.000000 0.000000
#
# Coordination Sequence:
#
# PCOD9578681 Si02
#       7
#    12   6   6  12  12  12  12
#     4  11  22  34  49  71 102 137 175 214 256 297
#     4  12  20  32  48  76  96 140 176 207 248 308
#     4  12  22  34  50  72  96 138 184 207 242 312
#     4  10  20  35  53  76 107 141 171 201 243 304
#     4  10  21  33  51  78 105 133 171 213 251 296
#     4  11  21  34  48  69  97 131 173 216 247 285
#     4  12  20  35  51  72 106 136 174 215 255 295
#
# _framework density 16.50722
#
# number of rings (size 3 to 8) (size 9 to 14) (size 15 to 20)
#    0.000    1.000    4.167    5.167    0.000    0.000 
#    0.000    1.667    0.000    0.000    0.000    0.000 
#    0.000   46.667    0.000    5.000    0.000    0.000 
#
# Total GULP energy -401672.138557 kJ/mol
# GULP energy per Si atom -5578.779702 kJ/mol
# Density = 1.646965 g / cm^3
# Si number density = 16.507220 Si / 1000 Ang^3
#
#
#
# Elastic Constant Matrix: (Units=GPa)
#
#
# Indices 1 2 3 4 5 6 
#
# 1 54.6639 13.0558 -9.4463 -1.4609 0.0000 0.0000
# 2 13.0558 54.6639 -9.4463 1.4609 0.0000 0.0000
# 3 -9.4463 -9.4463 56.8582 0.0000 0.0000 0.0000
# 4 -1.4609 1.4609 0.0000 18.0577 0.0000 0.0000
# 5 0.0000 0.0000 0.0000 0.0000 18.0577 -1.4609
# 6 0.0000 0.0000 0.0000 0.0000 -1.4609 20.8040
#
#
#
# Elastic Compliance Matrix: (Units=1/GPa)
#
#
# Indices 1 2 3 4 5 6 
#
# 1 0.019828 -0.004343 0.002573 0.001955 0.000000 0.000000
# 2 -0.004343 0.019828 0.002573 -0.001955 0.000000 0.000000
# 3 0.002573 0.002573 0.018442 0.000000 0.000000 0.000000
# 4 0.001955 -0.001955 0.000000 0.055694 0.000000 0.000000
# 5 0.000000 0.000000 0.000000 0.000000 0.055694 0.003911
# 6 0.000000 0.000000 0.000000 0.000000 0.003911 0.048342
#
#
# Mechanical properties :
#
#
# Convention : Reuss Voigt Hill
#
# Bulk Modulus (GPa) = 16.75000 17.16805 16.95902
# Shear Modulus (GPa) = 21.17513 22.85207 22.01360
#
# Velocity S-wave (km/s) = 3.58548 3.72475 3.65577
# Velocity P-wave (km/s) = 5.22589 5.37785 5.30241
#
# Compressibility (1/GPa) = 0.05970150
#
# Stress axis : x y z
#
# Youngs Moduli (GPa) = 50.43430 50.43430 54.22282
#
# Poissons Ratio (x) = 0.21905 -0.13949
# Poissons Ratio (y) = 0.21905 -0.13949
# Poissons Ratio (z) = -0.12974 -0.12974
#
# Static dielectric constant tensor:
#      x y z
#    x 1.535560 0.000000 0.000000 
#    y 0.000000 1.535560 0.000000 
#    z 0.000000 0.000000 1.567070 
# 
# From -- ./inp_files/831.got.cif
#   From: 2010.05.17/outbox.cif.g08.bks.cpg/sg164_1_cif.got.tgz:831.got - 2010.05.20 10:58:56.
