data_PCOD9578194
_publ_section_title
;
Structure prediction by ZEFSAII (Michael W. Deem and Ramdas Pophale) SiO2 
 PCOD9578194
Probable space group: P -3 1 C
;
_chemical_formula_sum "Si O2"
_cell_formula_units_Z 70
_cell_length_a 15.510885
_cell_length_b 15.510885
_cell_length_c 17.373535
_cell_angle_alpha 90.000000
_cell_angle_beta 90.000000
_cell_angle_gamma 120.000000
_cell_volume 3619.861724
_symmetry_space_group_name_H-M "P -3 1 C"
_symmetry_group_IT_number 163
_symmetry_cell_setting 'hexagonal'
loop_
_space_group_symop_operation_xyz
x,y,z
-y,x-y,z
-x+y,-x,z
-y,-x,1/2-z
-x+y,y,1/2-z
x,x-y,1/2-z
-x,-y,-z
y,-x+y,-z
x-y,x,-z
y,x,1/2+z
x-y,-y,1/2+z
-x,-x+y,1/2+z
loop_
_atom_site_type_symbol
_atom_site_label
_atom_site_fract_x
_atom_site_fract_y
_atom_site_fract_z
Si Si1 0.205144 0.449352 0.874283
Si Si2 0.722254 0.812799 0.387872
Si Si3 0.992858 0.614703 0.195037
Si Si4 0.938519 0.662007 0.988533
Si Si5 0.065146 0.934855 0.250000
Si Si6 0.666667 0.333335 0.341735
Si Si7 0.558924 0.591500 0.634741
O O1 0.114755 0.391638 0.814040
O O2 0.241090 0.565179 0.868854
O O3 0.306949 0.447430 0.863486
O O4 0.151126 0.406265 0.954509
O O5 0.639078 0.715066 0.343918
O O6 0.743417 0.758430 0.460454
O O7 0.692423 0.888543 0.422392
O O8 0.804486 0.879960 0.324669
O O9 0.015856 0.614108 0.284500
O O10 0.976144 0.516268 0.148567
O O11 0.985973 0.603673 0.944670
O O12 0.946446 0.892892 0.250000
O O13 0.666668 0.333334 0.250000
#
# Coordination Sequence:
#
# PCOD9578194 Si02
#       7
#    12  12  12  12   6   4  12
#     4  11  22  37  61  94 127 165 203 260 319 379
#     4  11  24  42  62  93 124 170 216 270 333 381
#     4  10  23  37  66  94 128 172 212 269 315 397
#     4  11  25  40  63  90 132 170 211 273 320 396
#     4  10  26  44  68  92 122 174 226 284 326 396
#     4  12  21  36  63  93 132 163 206 253 321 375
#     4  11  21  41  62  95 129 167 217 257 325 388
#
# _framework density 19.337755000000001
#
# number of rings (size 3 to 8) (size 9 to 14) (size 15 to 20)
#    0.171    1.029    3.429    2.571    2.400    6.857 
#    0.000    0.857    0.000    0.686    0.000    2.400 
#    0.000    0.000    0.000    0.000    0.000    0.000 
#
# Total GULP energy -389731.383524 kJ/mol
# GULP energy per Si atom -5567.591193 kJ/mol
# Density = 1.929374 g / cm^3
# Si number density = 19.337755 Si / 1000 Ang^3
#
#
#
# Elastic Constant Matrix: (Units=GPa)
#
#
# Indices 1 2 3 4 5 6 
#
# 1 58.9178 20.3635 40.5944 0.0003 6.0860 -0.0001
# 2 20.3635 58.9175 40.5944 -0.0001 -6.0860 -0.0001
# 3 40.5944 40.5944 103.4577 0.0003 0.0002 0.0000
# 4 0.0003 -0.0001 0.0003 20.1065 -0.0001 -6.0861
# 5 6.0860 -6.0860 0.0002 -0.0001 20.1067 -0.0002
# 6 -0.0001 -0.0001 0.0000 -6.0861 -0.0002 19.2771
#
#
#
# Elastic Compliance Matrix: (Units=1/GPa)
#
#
# Indices 1 2 3 4 5 6 
#
# 1 0.024882 -0.003796 -0.008274 0.000000 -0.008680 0.000000
# 2 -0.003796 0.024882 -0.008274 0.000000 0.008681 0.000000
# 3 -0.008274 -0.008274 0.016159 0.000000 0.000000 0.000000
# 4 0.000000 0.000000 0.000000 0.054990 0.000001 0.017361
# 5 -0.008680 0.008681 0.000000 0.000001 0.054989 0.000001
# 6 0.000000 0.000000 0.000000 0.017361 0.000001 0.057356
#
#
# Mechanical properties :
#
#
# Convention : Reuss Voigt Hill
#
# Bulk Modulus (GPa) = 39.62589 47.15529 43.39059
# Shear Modulus (GPa) = 17.70804 19.88079 18.79442
#
# Velocity S-wave (km/s) = 3.02938 3.20985 3.12092
# Velocity P-wave (km/s) = 5.72469 6.17864 5.95599
#
# Compressibility (1/GPa) = 0.02523603
#
# Stress axis : x y z
#
# Youngs Moduli (GPa) = 40.18980 40.18933 61.88654
#
# Poissons Ratio (x) = 0.15256 0.51203
# Poissons Ratio (y) = 0.15256 0.51204
# Poissons Ratio (z) = 0.33252 0.33252
#
# Static dielectric constant tensor:
#      x y z
#    x 1.697680 0.000000 0.000000 
#    y 0.000000 1.697680 0.000000 
#    z 0.000000 0.000000 1.697430 
# 
# From -- ./inp_files/3156.got.cif
#   From: 2010.05.17/outbox.cif.g08.bks.cpg/sg163_2_cif.got.tgz:3156.got - 2010.05.20 10:56:03.
