data_PCOD9578139
_publ_section_title
;
Structure prediction by ZEFSAII (Michael W. Deem and Ramdas Pophale) SiO2 
 PCOD9578139
Probable space group: P -3 1 C
;
_chemical_formula_sum "Si O2"
_cell_formula_units_Z 84
_cell_length_a 17.284807
_cell_length_b 17.284807
_cell_length_c 17.304522
_cell_angle_alpha 90.000000
_cell_angle_beta 90.000000
_cell_angle_gamma 120.000000
_cell_volume 4477.332095
_symmetry_space_group_name_H-M "P -3 1 C"
_symmetry_group_IT_number 163
_symmetry_cell_setting 'hexagonal'
loop_
_space_group_symop_operation_xyz
x,y,z
-y,x-y,z
-x+y,-x,z
-y,-x,1/2-z
-x+y,y,1/2-z
x,x-y,1/2-z
-x,-y,-z
y,-x+y,-z
x-y,x,-z
y,x,1/2+z
x-y,-y,1/2+z
-x,-x+y,1/2+z
loop_
_atom_site_type_symbol
_atom_site_label
_atom_site_fract_x
_atom_site_fract_y
_atom_site_fract_z
Si Si1 0.324002 0.848304 0.603502
Si Si2 0.059383 0.621204 0.739641
Si Si3 0.149413 0.659216 0.580836
Si Si4 0.836846 0.821916 0.465750
Si Si5 0.738541 0.098983 0.784728
Si Si6 0.964191 0.318374 0.542889
Si Si7 0.162050 0.000635 0.281826
O O1 0.317004 0.874742 0.692331
O O2 0.239600 0.754776 0.579294
O O3 0.411395 0.837851 0.592508
O O4 0.336334 0.936121 0.559210
O O5 0.061873 0.530937 0.750000
O O6 0.094544 0.660428 0.655752
O O7 0.957950 0.597044 0.752020
O O8 0.092107 0.647593 0.504937
O O9 0.828684 0.899066 0.510176
O O10 0.756444 0.727151 0.493176
O O11 0.834205 0.834878 0.374100
O O12 0.802424 0.197577 0.750000
O O13 0.727077 0.087403 0.877077
O O14 0.783224 0.041989 0.755124
O O15 0.062153 0.937848 0.250000
O O16 0.198264 0.099132 0.250000
#
# Coordination Sequence:
#
# PCOD9578139 Si02
#       7
#    12  12  12  12  12  12  12
#     4  10  22  38  59  88 119 148 188 234 291 364
#     4   9  20  37  59  86 116 149 185 233 295 355
#     4  11  21  38  62  88 117 151 186 236 297 354
#     4  12  23  37  55  80 110 148 194 242 290 347
#     4  10  21  38  56  80 111 150 194 235 277 333
#     4  11  23  38  56  83 115 151 194 237 287 346
#     4  11  22  36  53  75 107 145 184 229 280 331
#
# _framework density 18.761172999999999
#
# number of rings (size 3 to 8) (size 9 to 14) (size 15 to 20)
#    0.000    1.429    0.000    6.571    0.000    4.571 
#    0.000    1.429    0.000    0.286    0.000    0.000 
#    0.000    0.000    0.000    0.000    0.000    0.000 
#
# Total GULP energy -469082.585193 kJ/mol
# GULP energy per Si atom -5584.316490 kJ/mol
# Density = 1.871847 g / cm^3
# Si number density = 18.761173 Si / 1000 Ang^3
#
#
#
# Elastic Constant Matrix: (Units=GPa)
#
#
# Indices 1 2 3 4 5 6 
#
# 1 59.3622 15.9907 35.7621 -0.0019 -1.6439 0.0000
# 2 15.9907 59.3622 35.7621 0.0019 1.6439 0.0000
# 3 35.7621 35.7621 149.3876 0.0000 0.0000 0.0000
# 4 -0.0019 0.0019 0.0000 12.3264 0.0000 1.6439
# 5 -1.6439 1.6439 0.0000 0.0000 12.3264 -0.0019
# 6 0.0000 0.0000 0.0000 1.6439 -0.0019 21.6858
#
#
#
# Elastic Compliance Matrix: (Units=1/GPa)
#
#
# Indices 1 2 3 4 5 6 
#
# 1 0.020233 -0.003059 -0.004111 0.000004 0.003106 0.000000
# 2 -0.003059 0.020233 -0.004111 -0.000004 -0.003106 0.000000
# 3 -0.004111 -0.004111 0.008662 0.000000 0.000000 0.000000
# 4 0.000004 -0.000004 0.000000 0.081955 0.000000 -0.006213
# 5 0.003106 -0.003106 0.000000 0.000000 0.081955 0.000007
# 6 0.000000 0.000000 0.000000 -0.006213 0.000007 0.046584
#
#
# Mechanical properties :
#
#
# Convention : Reuss Voigt Hill
#
# Bulk Modulus (GPa) = 37.64474 49.23797 43.44136
# Shear Modulus (GPa) = 17.17976 21.30753 19.24364
#
# Velocity S-wave (km/s) = 3.02935 3.37371 3.20616
# Velocity P-wave (km/s) = 5.68724 6.44030 6.07545
#
# Compressibility (1/GPa) = 0.02656413
#
# Stress axis : x y z
#
# Youngs Moduli (GPa) = 49.42528 49.42528 115.44267
#
# Poissons Ratio (x) = 0.15122 0.47459
# Poissons Ratio (y) = 0.15122 0.47459
# Poissons Ratio (z) = 0.20319 0.20319
#
# Static dielectric constant tensor:
#      x y z
#    x 1.732910 0.000000 0.000000 
#    y 0.000000 1.732910 0.000000 
#    z 0.000000 0.000000 1.648910 
# 
# From -- ./inp_files/2649.got.cif
#   From: 2010.05.17/outbox.cif.g08.bks.cpg/sg163_2_cif.got.tgz:2649.got - 2010.05.20 10:56:03.
