data_PCOD9578688
_publ_section_title
;
Structure prediction by ZEFSAII (Michael W. Deem and Ramdas Pophale) SiO2 
 PCOD9578688
Probable space group: P -3 M 1
;
_chemical_formula_sum "Si O2"
_cell_formula_units_Z 66
_cell_length_a 22.752774
_cell_length_b 22.752774
_cell_length_c 7.289862
_cell_angle_alpha 90.000000
_cell_angle_beta 90.000000
_cell_angle_gamma 120.000000
_cell_volume 3268.275398
_symmetry_space_group_name_H-M "P -3 M 1"
_symmetry_group_IT_number 164
_symmetry_cell_setting 'hexagonal'
loop_
_space_group_symop_operation_xyz
x,y,z
-y,x-y,z
-x+y,-x,z
x-y,-y,-z
-x,-x+y,-z
y,x,-z
-x,-y,-z
y,-x+y,-z
x-y,x,-z
-x+y,y,z
x,x-y,z
-y,-x,z
loop_
_atom_site_type_symbol
_atom_site_label
_atom_site_fract_x
_atom_site_fract_y
_atom_site_fract_z
Si Si1 0.334181 0.535014 0.418775
Si Si2 0.185784 0.949879 0.175587
Si Si3 0.080563 0.471785 0.690753
Si Si4 0.170145 0.477100 0.038076
Si Si5 0.870646 0.000000 0.500000
Si Si6 0.965425 0.324748 0.801144
O O1 0.258502 0.517004 0.471048
O O2 0.389825 0.610176 0.482985
O O3 0.357550 0.486101 0.514367
O O4 0.336320 0.533377 0.197604
O O5 0.128262 0.871739 0.127450
O O6 0.255096 0.959319 0.264419
O O7 0.154423 0.973897 0.332616
O O8 0.206513 0.000000 0.000000
O O9 0.058700 0.529350 0.695883
O O10 0.015550 0.396153 0.701707
O O11 0.131103 0.484965 0.864071
O O12 0.233160 0.466320 0.984623
O O13 0.111119 0.415652 0.153225
O O14 0.880591 0.940296 0.574178
O O15 0.000000 0.338210 0.000000
#
# Coordination Sequence:
#
# PCOD9578688 Si02
#       6
#    12  12  12  12   6  12
#     4  10  21  36  55  79 107 141 183 231 281 334
#     4  10  20  36  57  82 113 149 187 227 274 326
#     4  10  21  37  57  81 110 145 184 227 278 333
#     4  10  20  35  55  79 108 142 180 224 276 331
#     4  10  21  36  56  82 111 144 182 224 268 318
#     4   9  20  36  55  80 111 145 182 228 276 325
#
# _framework density 20.194137999999999
#
# number of rings (size 3 to 8) (size 9 to 14) (size 15 to 20)
#    0.000    2.182    0.000    2.455    0.000    6.182 
#    0.000    6.364    0.000    8.727    0.000    0.000 
#    0.000    0.000    0.000    0.000    0.000    0.000 
#
# Total GULP energy -367705.268051 kJ/mol
# GULP energy per Si atom -5571.291940 kJ/mol
# Density = 2.014818 g / cm^3
# Si number density = 20.194138 Si / 1000 Ang^3
#
#
#
# Elastic Constant Matrix: (Units=GPa)
#
#
# Indices 1 2 3 4 5 6 
#
# 1 141.1015 47.4131 12.6429 4.4501 0.0000 0.0000
# 2 47.4131 141.1015 12.6429 -4.4501 0.0000 0.0000
# 3 12.6429 12.6429 67.4306 0.0000 0.0000 0.0000
# 4 4.4501 -4.4501 0.0000 19.0280 0.0000 0.0000
# 5 0.0000 0.0000 0.0000 0.0000 19.0280 4.4501
# 6 0.0000 0.0000 0.0000 0.0000 4.4501 46.8442
#
#
#
# Elastic Compliance Matrix: (Units=1/GPa)
#
#
# Indices 1 2 3 4 5 6 
#
# 1 0.008179 -0.002737 -0.001020 -0.002553 0.000000 0.000000
# 2 -0.002737 0.008179 -0.001020 0.002553 0.000000 0.000000
# 3 -0.001020 -0.001020 0.015213 0.000000 0.000000 0.000000
# 4 -0.002553 0.002553 0.000000 0.053748 0.000000 0.000000
# 5 0.000000 0.000000 0.000000 0.000000 0.053748 -0.005106
# 6 0.000000 0.000000 0.000000 0.000000 -0.005106 0.021832
#
#
# Mechanical properties :
#
#
# Convention : Reuss Voigt Hill
#
# Bulk Modulus (GPa) = 45.42437 55.00346 50.21391
# Shear Modulus (GPa) = 28.12252 35.44235 31.78243
#
# Velocity S-wave (km/s) = 3.73582 4.19391 3.97147
# Velocity P-wave (km/s) = 6.41491 7.12379 6.77862
#
# Compressibility (1/GPa) = 0.02201462
#
# Stress axis : x y z
#
# Youngs Moduli (GPa) = 122.26667 122.26667 65.73477
#
# Poissons Ratio (x) = 0.33469 0.06707
# Poissons Ratio (y) = 0.33469 0.06707
# Poissons Ratio (z) = 0.12474 0.12474
#
# Static dielectric constant tensor:
#      x y z
#    x 1.766530 0.000000 0.000000 
#    y 0.000000 1.766530 0.000000 
#    z 0.000000 0.000000 1.713180 
# 
# From -- ./inp_files/1751.got.cif
#   From: 2010.05.17/outbox.cif.g08.bks.cpg/sg164_1_cif.got.tgz:1751.got - 2010.05.20 10:58:56.
