data_PCOD9578974
_publ_section_title
;
Structure prediction by ZEFSAII (Michael W. Deem and Ramdas Pophale) SiO2 
 PCOD9578974
Probable space group: P -3 C 1
;
_chemical_formula_sum "Si O2"
_cell_formula_units_Z 40
_cell_length_a 11.053885
_cell_length_b 11.053885
_cell_length_c 16.241813
_cell_angle_alpha 90.000000
_cell_angle_beta 90.000000
_cell_angle_gamma 120.000000
_cell_volume 1718.679994
_symmetry_space_group_name_H-M "P -3 C 1"
_symmetry_group_IT_number 165
_symmetry_cell_setting 'hexagonal'
loop_
_space_group_symop_operation_xyz
x,y,z
-y,x-y,z
-x+y,-x,z
x-y,-y,1/2-z
-x,-x+y,1/2-z
y,x,1/2-z
-x,-y,-z
y,-x+y,-z
x-y,x,-z
-x+y,y,1/2+z
x,x-y,1/2+z
-y,-x,1/2+z
loop_
_atom_site_type_symbol
_atom_site_label
_atom_site_fract_x
_atom_site_fract_y
_atom_site_fract_z
Si Si1 0.617718 0.962027 0.108188
Si Si2 0.331984 0.924813 0.075419
Si Si3 0.000000 0.000000 0.903054
Si Si4 0.176488 0.295473 0.822060
O O1 0.450154 0.893814 0.108444
O O2 0.635377 0.825096 0.101890
O O3 0.712848 0.077168 0.177556
O O4 0.662864 0.048255 0.021959
O O5 0.378376 0.073337 0.117617
O O6 0.070573 0.153600 0.868131
O O7 0.000000 0.000000 0.000000
O O8 0.242602 0.242602 0.750000
#
# Coordination Sequence:
#
# PCOD9578974 Si02
#       4
#    12  12   4  12
#     4  11  23  42  71 102 138 191 239 294 356 432
#     4  11  23  42  68  99 142 186 241 294 352 427
#     4  12  22  38  73 102 130 170 235 303 352 422
#     4  12  24  42  67 102 139 178 234 301 368 429
#
# _framework density 23.273674
#
# number of rings (size 3 to 8) (size 9 to 14) (size 15 to 20)
#    0.000    0.600    6.000    3.300    0.000    0.000 
#    7.200    0.000    0.000    0.000    0.000    0.000 
#    0.000    0.000    0.000    0.000    0.000    0.000 
#
# Total GULP energy -222908.016351 kJ/mol
# GULP energy per Si atom -5572.700409 kJ/mol
# Density = 2.322070 g / cm^3
# Si number density = 23.273674 Si / 1000 Ang^3
#
#
#
# Elastic Constant Matrix: (Units=GPa)
#
#
# Indices 1 2 3 4 5 6 
#
# 1 91.0234 10.1022 4.4800 1.9023 0.0000 0.0000
# 2 10.1022 91.0234 4.4800 -1.9023 0.0000 0.0000
# 3 4.4800 4.4800 66.5408 0.0000 0.0000 0.0000
# 4 1.9023 -1.9023 0.0000 23.1555 0.0000 0.0000
# 5 0.0000 0.0000 0.0000 0.0000 23.1555 1.9023
# 6 0.0000 0.0000 0.0000 0.0000 1.9023 40.4606
#
#
#
# Elastic Compliance Matrix: (Units=1/GPa)
#
#
# Indices 1 2 3 4 5 6 
#
# 1 0.011177 -0.001229 -0.000670 -0.001019 0.000000 0.000000
# 2 -0.001229 0.011177 -0.000670 0.001019 0.000000 0.000000
# 3 -0.000670 -0.000670 0.015119 0.000000 0.000000 0.000000
# 4 -0.001019 0.001019 0.000000 0.043354 0.000000 0.000000
# 5 0.000000 0.000000 0.000000 0.000000 0.043354 -0.002038
# 6 0.000000 0.000000 0.000000 0.000000 -0.002038 0.024811
#
#
# Mechanical properties :
#
#
# Convention : Reuss Voigt Hill
#
# Bulk Modulus (GPa) = 30.92571 31.85688 31.39129
# Shear Modulus (GPa) = 30.32032 32.65604 31.48818
#
# Velocity S-wave (km/s) = 3.61331 3.74990 3.68224
# Velocity P-wave (km/s) = 5.54299 5.69796 5.62101
#
# Compressibility (1/GPa) = 0.03233556
#
# Stress axis : x y z
#
# Youngs Moduli (GPa) = 89.47088 89.47088 66.14385
#
# Poissons Ratio (x) = 0.10994 0.04430
# Poissons Ratio (y) = 0.10994 0.04430
# Poissons Ratio (z) = 0.05992 0.05992
#
# Static dielectric constant tensor:
#      x y z
#    x 1.906840 0.000000 0.000000 
#    y 0.000000 1.906840 0.000000 
#    z 0.000000 0.000000 1.991910 
# 
# From -- ./inp_files/2041.got.cif
#   From: 2010.05.17/outbox.cif.g08.bks.cpg/sg165_2_cif.got.tgz:2041.got - 2010.05.20 11:02:39.
