data_PCOD9578691
_publ_section_title
;
Structure prediction by ZEFSAII (Michael W. Deem and Ramdas Pophale) SiO2 
 PCOD9578691
Probable space group: P -3 M 1
;
_chemical_formula_sum "Si O2"
_cell_formula_units_Z 84
_cell_length_a 18.755796
_cell_length_b 18.755796
_cell_length_c 13.880586
_cell_angle_alpha 90.000000
_cell_angle_beta 90.000000
_cell_angle_gamma 120.000000
_cell_volume 4228.724907
_symmetry_space_group_name_H-M "P -3 M 1"
_symmetry_group_IT_number 164
_symmetry_cell_setting 'hexagonal'
loop_
_space_group_symop_operation_xyz
x,y,z
-y,x-y,z
-x+y,-x,z
x-y,-y,-z
-x,-x+y,-z
y,x,-z
-x,-y,-z
y,-x+y,-z
x-y,x,-z
-x+y,y,z
x,x-y,z
-y,-x,z
loop_
_atom_site_type_symbol
_atom_site_label
_atom_site_fract_x
_atom_site_fract_y
_atom_site_fract_z
Si Si1 0.507304 0.333926 0.166457
Si Si2 0.000624 0.164737 0.385972
Si Si3 0.999238 0.845101 0.115715
Si Si4 0.962387 0.661920 0.689210
Si Si5 0.170134 0.504169 0.409550
Si Si6 0.697799 0.029075 0.109954
Si Si7 0.698824 0.139473 0.376897
O O1 0.531895 0.265947 0.140889
O O2 0.576000 0.424001 0.134470
O O3 0.417244 0.305707 0.125345
O O4 0.497396 0.332646 0.282324
O O5 0.068185 0.136370 0.373576
O O6 0.032512 0.250858 0.330602
O O7 0.000000 0.182655 0.500000
O O8 0.909147 0.090854 0.360991
O O9 0.936191 0.872382 0.153792
O O10 0.962412 0.748629 0.130873
O O11 0.092097 0.907904 0.148220
O O12 0.000000 0.852061 0.000000
O O13 0.886274 0.582998 0.642327
O O14 0.967941 0.645923 0.802931
O O15 0.046102 0.675316 0.639537
O O16 0.265024 0.530047 0.394860
O O17 0.152728 0.576364 0.378181
O O18 0.151559 0.487483 0.523520
O O19 0.674883 0.000000 0.000000
O O20 0.797492 0.202509 0.379747
#
# Coordination Sequence:
#
# PCOD9578691 Si02
#       7
#    12  12  12  12  12  12  12
#     4  10  20  36  60  89 118 147 184 232 287 344
#     4  10  20  35  56  84 120 159 195 230 273 331
#     4   9  17  31  53  80 108 139 177 223 276 334
#     4  11  22  36  59  85 112 148 194 242 284 329
#     4  11  23  39  59  85 119 155 189 227 278 340
#     4  10  23  41  59  79 111 151 194 241 293 345
#     4   9  19  35  58  90 123 151 178 218 277 342
#
# _framework density 19.864145000000001
#
# number of rings (size 3 to 8) (size 9 to 14) (size 15 to 20)
#    0.000    2.000    0.000    3.571    0.000   10.571 
#    0.000    1.429    0.000    1.714    0.000    2.000 
#    0.000    0.000    0.000    0.000    0.000    0.000 
#
# Total GULP energy -468799.148945 kJ/mol
# GULP energy per Si atom -5580.942249 kJ/mol
# Density = 1.981893 g / cm^3
# Si number density = 19.864145 Si / 1000 Ang^3
#
#
#
# Elastic Constant Matrix: (Units=GPa)
#
#
# Indices 1 2 3 4 5 6 
#
# 1 94.2614 72.3076 21.5344 12.7566 0.0000 0.0000
# 2 72.3076 94.2614 21.5344 -12.7566 0.0000 0.0000
# 3 21.5344 21.5344 98.7357 0.0000 0.0000 0.0000
# 4 12.7566 -12.7566 0.0000 7.3804 0.0000 0.0000
# 5 0.0000 0.0000 0.0000 0.0000 7.3804 12.7566
# 6 0.0000 0.0000 0.0000 0.0000 12.7566 10.9769
#
#
#
# Elastic Compliance Matrix: (Units=1/GPa)
#
#
# Indices 1 2 3 4 5 6 
#
# 1 -0.019398 0.025760 -0.001388 0.078053 0.000000 0.000000
# 2 0.025760 -0.019398 -0.001388 -0.078053 0.000000 0.000000
# 3 -0.001388 -0.001388 0.010733 0.000000 0.000000 0.000000
# 4 0.078053 -0.078053 0.000000 -0.134327 0.000000 0.000000
# 5 0.000000 0.000000 0.000000 0.000000 -0.134327 0.156106
# 6 0.000000 0.000000 0.000000 0.000000 0.156106 -0.090316
#
#
# Mechanical properties :
#
#
# Convention : Reuss Voigt Hill
#
# Bulk Modulus (GPa) = 55.84272 57.55682 56.69977
# Shear Modulus (GPa) = -11.70867 16.60632 2.44883
#
# Velocity S-wave (km/s) = -2.43047 2.89449 1.11151
# Velocity P-wave (km/s) = 4.50523 6.34105 5.50028
#
# Compressibility (1/GPa) = 0.01790744
#
# Stress axis : x y z
#
# Youngs Moduli (GPa) = -51.55200 -51.55200 93.16761
#
# Poissons Ratio (x) = 1.32799 0.12928
# Poissons Ratio (y) = 1.32799 0.12928
# Poissons Ratio (z) = -0.07154 -0.07154
#
# Static dielectric constant tensor:
#      x y z
#    x 1.687100 0.000000 0.000000 
#    y 0.000000 1.687100 0.000000 
#    z 0.000000 0.000000 1.727680 
# 
# From -- ./inp_files/3596.got.cif
#   From: 2010.05.17/outbox.cif.g08.bks.cpg/sg164_2_cif.got.tgz:3596.got - 2010.05.20 10:58:56.
