data_PCOD9578382
_publ_section_title
;
Structure prediction by ZEFSAII (Michael W. Deem and Ramdas Pophale) SiO2 
 PCOD9578382
Probable space group: P -3 M 1
;
_chemical_formula_sum "Si O2"
_cell_formula_units_Z 78
_cell_length_a 26.559178
_cell_length_b 26.559178
_cell_length_c 9.712715
_cell_angle_alpha 90.000000
_cell_angle_beta 90.000000
_cell_angle_gamma 120.000000
_cell_volume 5933.357771
_symmetry_space_group_name_H-M "P -3 M 1"
_symmetry_group_IT_number 164
_symmetry_cell_setting 'hexagonal'
loop_
_space_group_symop_operation_xyz
x,y,z
-y,x-y,z
-x+y,-x,z
x-y,-y,-z
-x,-x+y,-z
y,x,-z
-x,-y,-z
y,-x+y,-z
x-y,x,-z
-x+y,y,z
x,x-y,z
-y,-x,z
loop_
_atom_site_type_symbol
_atom_site_label
_atom_site_fract_x
_atom_site_fract_y
_atom_site_fract_z
Si Si1 0.531015 0.468986 0.658313
Si Si2 0.301062 0.489191 0.990021
Si Si3 0.533238 0.466763 0.211595
Si Si4 0.432568 0.273243 0.729343
Si Si5 0.332688 0.780586 0.442280
Si Si6 0.145660 0.665428 0.693586
Si Si7 0.066107 0.419686 0.460738
Si Si8 0.564580 0.435421 0.941580
O O1 0.498536 0.501465 0.722613
O O2 0.587599 0.517831 0.575230
O O3 0.552437 0.447564 0.788247
O O4 0.256715 0.513429 0.003954
O O5 0.299169 0.468644 0.833614
O O6 0.281425 0.440016 0.106988
O O7 0.367501 0.535035 0.024584
O O8 0.502958 0.400720 0.262298
O O9 0.537030 0.462971 0.046513
O O10 0.410803 0.205402 0.696853
O O11 0.497492 0.308261 0.661440
O O12 0.403102 0.307830 0.663869
O O13 0.397173 0.794345 0.411296
O O14 0.287571 0.712430 0.435794
O O15 0.331134 0.803909 0.595145
O O16 0.107108 0.679204 0.590729
O O17 0.000000 0.376162 0.500000
#
# Coordination Sequence:
#
# PCOD9578382 Si02
#       8
#     6  12   6  12  12  12  12   6
#     4  12  19  30  47  70  88 111 127 170 216 271
#     4  10  20  35  47  57  76 110 139 166 206 249
#     4  10  18  30  42  65  85 104 120 155 217 258
#     4   9  20  34  48  60  79 108 136 165 205 252
#     4  10  19  29  42  55  72  96 129 166 199 239
#     4  10  19  30  43  59  80 100 122 160 201 250
#     4  11  20  30  49  70  85 106 134 165 208 259
#     4  10  21  31  48  66  85 105 138 182 211 257
#
# _framework density 13.146013999999999
#
# number of rings (size 3 to 8) (size 9 to 14) (size 15 to 20)
#    0.000    1.846    3.846    1.538    4.308    0.615 
#    0.462    0.769    0.000    0.000    0.000    0.000 
#    0.000    0.000    0.000    0.000    0.000    0.000 
#
# Total GULP energy -434645.710294 kJ/mol
# GULP energy per Si atom -5572.380901 kJ/mol
# Density = 1.311609 g / cm^3
# Si number density = 13.146014 Si / 1000 Ang^3
#
#
#
# Elastic Constant Matrix: (Units=GPa)
#
#
# Indices 1 2 3 4 5 6 
#
# 1 39.0968 13.5094 12.9086 -1.4301 0.0000 0.0000
# 2 13.5094 39.0968 12.9086 1.4301 0.0000 0.0000
# 3 12.9086 12.9086 80.0803 0.0000 0.0000 0.0000
# 4 -1.4301 1.4301 0.0000 16.1135 0.0000 0.0000
# 5 0.0000 0.0000 0.0000 0.0000 16.1135 -1.4301
# 6 0.0000 0.0000 0.0000 0.0000 -1.4301 12.7937
#
#
#
# Elastic Compliance Matrix: (Units=1/GPa)
#
#
# Indices 1 2 3 4 5 6 
#
# 1 0.030058 -0.009416 -0.003327 0.003503 0.000000 0.000000
# 2 -0.009416 0.030058 -0.003327 -0.003503 0.000000 0.000000
# 3 -0.003327 -0.003327 0.013560 0.000000 0.000000 0.000000
# 4 0.003503 -0.003503 0.000000 0.062682 0.000000 0.000000
# 5 0.000000 0.000000 0.000000 0.000000 0.062682 0.007007
# 6 0.000000 0.000000 0.000000 0.000000 0.007007 0.078947
#
#
# Mechanical properties :
#
#
# Convention : Reuss Voigt Hill
#
# Bulk Modulus (GPa) = 24.07619 26.32521 25.20070
# Shear Modulus (GPa) = 15.43348 16.93398 16.18373
#
# Velocity S-wave (km/s) = 3.43009 3.59297 3.51247
# Velocity P-wave (km/s) = 5.83452 6.10584 5.97172
#
# Compressibility (1/GPa) = 0.04153481
#
# Stress axis : x y z
#
# Youngs Moduli (GPa) = 33.26934 33.26934 73.74522
#
# Poissons Ratio (x) = 0.31325 0.24538
# Poissons Ratio (y) = 0.31325 0.24538
# Poissons Ratio (z) = 0.11070 0.11070
#
# Static dielectric constant tensor:
#      x y z
#    x 1.426840 0.000000 0.000000 
#    y 0.000000 1.426840 0.000000 
#    z 0.000000 0.000000 1.491420 
# 
# From -- ./inp_files/2149.got.cif
#   From: 2010.05.17/outbox.cif.g08.bks.cpg/sg164_2_cif.got.tgz:2149.got - 2010.05.20 10:58:56.
