data_PCOD9578145
_publ_section_title
;
Structure prediction by ZEFSAII (Michael W. Deem and Ramdas Pophale) SiO2 
 PCOD9578145
Probable space group: P -3 1 C
;
_chemical_formula_sum "Si O2"
_cell_formula_units_Z 52
_cell_length_a 16.162455
_cell_length_b 16.162455
_cell_length_c 13.655773
_cell_angle_alpha 90.000000
_cell_angle_beta 90.000000
_cell_angle_gamma 120.000000
_cell_volume 3089.310625
_symmetry_space_group_name_H-M "P -3 1 C"
_symmetry_group_IT_number 163
_symmetry_cell_setting 'hexagonal'
loop_
_space_group_symop_operation_xyz
x,y,z
-y,x-y,z
-x+y,-x,z
-y,-x,1/2-z
-x+y,y,1/2-z
x,x-y,1/2-z
-x,-y,-z
y,-x+y,-z
x-y,x,-z
y,x,1/2+z
x-y,-y,1/2+z
-x,-x+y,1/2+z
loop_
_atom_site_type_symbol
_atom_site_label
_atom_site_fract_x
_atom_site_fract_y
_atom_site_fract_z
Si Si1 0.861952 0.332869 0.136657
Si Si2 0.704568 0.704568 1.000000
Si Si3 0.773465 0.886733 0.361144
Si Si4 0.000000 0.000000 0.384231
Si Si5 0.332868 0.861952 0.863342
O O1 0.753513 0.246487 0.127410
O O2 0.867569 0.433784 0.120213
O O3 0.891524 0.331134 0.250000
O O4 0.926396 0.315088 0.060426
O O5 0.789976 0.737889 0.922012
O O6 0.611309 0.684912 0.939573
O O7 0.737889 0.789975 0.077988
O O8 0.736731 0.868366 0.250000
O O9 0.888938 0.944469 0.355702
O O10 0.000000 0.000000 0.500000
#
# Coordination Sequence:
#
# PCOD9578145 Si02
#       5
#    12  12  12   4  12
#     4  10  21  38  61  87 113 146 191 243 293 348
#     4  12  21  39  56  86 120 150 196 235 299 348
#     4  12  24  37  58  85 122 163 201 243 285 349
#     4  12  22  41  55  82 119 169 208 233 289 328
#     4  10  21  38  61  87 113 146 191 243 293 348
#
# _framework density 16.832232999999999
#
# number of rings (size 3 to 8) (size 9 to 14) (size 15 to 20)
#    0.000    0.923    4.615    3.231    0.000    1.846 
#    0.000    0.000    0.000    0.000    0.000    0.000 
#    0.000    0.000    0.000    0.000    0.000    0.000 
#
# Total GULP energy -290440.589420 kJ/mol
# GULP energy per Si atom -5585.395950 kJ/mol
# Density = 1.679392 g / cm^3
# Si number density = 16.832233 Si / 1000 Ang^3
#
#
#
# Elastic Constant Matrix: (Units=GPa)
#
#
# Indices 1 2 3 4 5 6 
#
# 1 120.0077 59.8149 76.4591 0.0000 -0.0007 0.0000
# 2 59.8149 120.0077 76.4591 0.0000 0.0007 0.0000
# 3 76.4591 76.4591 162.4251 0.0000 0.0000 0.0000
# 4 0.0000 0.0000 0.0000 -64.1606 0.0000 0.0007
# 5 -0.0007 0.0007 0.0000 0.0000 -64.1606 0.0000
# 6 0.0000 0.0000 0.0000 0.0007 0.0000 30.0964
#
#
#
# Elastic Compliance Matrix: (Units=1/GPa)
#
#
# Indices 1 2 3 4 5 6 
#
# 1 0.012943 -0.003670 -0.004365 0.000000 0.000000 0.000000
# 2 -0.003670 0.012943 -0.004365 0.000000 0.000000 0.000000
# 3 -0.004365 -0.004365 0.010266 0.000000 0.000000 0.000000
# 4 0.000000 0.000000 0.000000 -0.015586 0.000000 0.000000
# 5 0.000000 0.000000 0.000000 0.000000 -0.015586 0.000000
# 6 0.000000 0.000000 0.000000 0.000000 0.000000 0.033227
#
#
# Mechanical properties :
#
#
# Convention : Reuss Voigt Hill
#
# Bulk Modulus (GPa) = 88.09110 91.98964 90.04037
# Shear Modulus (GPa) = 74.85886 -6.99781 33.93052
#
# Velocity S-wave (km/s) = 6.67608 -2.04118 4.49464
# Velocity P-wave (km/s) = 10.57710 7.01529 8.97467
#
# Compressibility (1/GPa) = 0.01135188
#
# Stress axis : x y z
#
# Youngs Moduli (GPa) = 77.26068 77.26068 97.40558
#
# Poissons Ratio (x) = 0.28355 0.42519
# Poissons Ratio (y) = 0.28355 0.42519
# Poissons Ratio (z) = 0.33726 0.33726
#
# Static dielectric constant tensor:
#      x y z
#    x 1.546040 0.000000 0.000000 
#    y 0.000000 1.546040 0.000000 
#    z 0.000000 0.000000 1.563260 
# 
# From -- ./inp_files/2304.got.cif
#   From: 2010.05.17/outbox.cif.g08.bks.cpg/sg163_2_cif.got.tgz:2304.got - 2010.05.20 10:56:03.
