data_PCOD9578965
_publ_section_title
;
Structure prediction by ZEFSAII (Michael W. Deem and Ramdas Pophale) SiO2 
 PCOD9578965
Probable space group: P -3 C 1
;
_chemical_formula_sum "Si O2"
_cell_formula_units_Z 72
_cell_length_a 23.213927
_cell_length_b 23.213927
_cell_length_c 8.582105
_cell_angle_alpha 90.000000
_cell_angle_beta 90.000000
_cell_angle_gamma 120.000000
_cell_volume 4005.176730
_symmetry_space_group_name_H-M "P -3 C 1"
_symmetry_group_IT_number 165
_symmetry_cell_setting 'hexagonal'
loop_
_space_group_symop_operation_xyz
x,y,z
-y,x-y,z
-x+y,-x,z
x-y,-y,1/2-z
-x,-x+y,1/2-z
y,x,1/2-z
-x,-y,-z
y,-x+y,-z
x-y,x,-z
-x+y,y,1/2+z
x,x-y,1/2+z
-y,-x,1/2+z
loop_
_atom_site_type_symbol
_atom_site_label
_atom_site_fract_x
_atom_site_fract_y
_atom_site_fract_z
Si Si1 0.217548 0.284149 0.152342
Si Si2 0.690569 0.458815 0.392166
Si Si3 0.361578 0.561608 0.257500
Si Si4 0.923591 0.583510 0.232540
Si Si5 0.747396 0.138221 0.940785
Si Si6 0.813232 0.121911 0.657049
O O1 0.244973 0.244973 0.250000
O O2 0.276363 0.361685 0.169166
O O3 0.150874 0.271568 0.238786
O O4 0.204182 0.269355 0.969632
O O5 0.739956 0.432181 0.348713
O O6 0.627653 0.430546 0.277302
O O7 0.662193 0.440848 0.566092
O O8 0.733885 0.538124 0.383527
O O9 0.360041 0.492007 0.228015
O O10 0.000000 0.602456 0.250000
O O11 0.909734 0.597605 0.055177
O O12 0.757609 0.105575 0.786805
O O13 0.813880 0.170560 0.048073
#
# Coordination Sequence:
#
# PCOD9578965 Si02
#       6
#    12  12  12  12  12  12
#     4   9  17  30  49  73 104 138 173 213 255 305
#     4  11  21  34  51  74  95 126 162 206 263 308
#     4  11  22  35  53  73 100 127 164 215 262 317
#     4   9  19  36  53  72 100 133 167 211 261 311
#     4   9  17  31  52  73  95 129 168 202 250 312
#     4   9  16  30  52  75 100 133 169 207 249 303
#
# _framework density 17.976735000000001
#
# number of rings (size 3 to 8) (size 9 to 14) (size 15 to 20)
#    0.000    2.333    0.000    5.333    0.000    1.333 
#    0.000   16.667    0.000    2.000    0.000    0.000 
#    0.000    0.000    0.000    5.000    0.000    0.333 
#
# Total GULP energy -401347.940900 kJ/mol
# GULP energy per Si atom -5574.276957 kJ/mol
# Density = 1.793582 g / cm^3
# Si number density = 17.976735 Si / 1000 Ang^3
#
#
#
# Elastic Constant Matrix: (Units=GPa)
#
#
# Indices 1 2 3 4 5 6 
#
# 1 37.7082 14.4160 8.0349 -5.8994 0.0000 0.0000
# 2 14.4160 37.7082 8.0349 5.8994 0.0000 0.0000
# 3 8.0349 8.0349 57.4530 0.0000 0.0000 0.0000
# 4 -5.8994 5.8994 0.0000 19.4419 0.0000 0.0000
# 5 0.0000 0.0000 0.0000 0.0000 19.4419 -5.8994
# 6 0.0000 0.0000 0.0000 0.0000 -5.8994 11.6461
#
#
#
# Elastic Compliance Matrix: (Units=1/GPa)
#
#
# Indices 1 2 3 4 5 6 
#
# 1 0.035390 -0.015341 -0.002804 0.015394 0.000000 0.000000
# 2 -0.015341 0.035390 -0.002804 -0.015394 0.000000 0.000000
# 3 -0.002804 -0.002804 0.018190 0.000000 0.000000 0.000000
# 4 0.015394 -0.015394 0.000000 0.060777 0.000000 0.000000
# 5 0.000000 0.000000 0.000000 0.000000 0.060777 0.030787
# 6 0.000000 0.000000 0.000000 0.000000 0.030787 0.101461
#
#
# Mechanical properties :
#
#
# Convention : Reuss Voigt Hill
#
# Bulk Modulus (GPa) = 21.24367 21.53788 21.39078
# Shear Modulus (GPa) = 13.52913 16.93156 15.23034
#
# Velocity S-wave (km/s) = 2.74632 3.07230 2.91387
# Velocity P-wave (km/s) = 4.67967 4.95907 4.82139
#
# Compressibility (1/GPa) = 0.04707285
#
# Stress axis : x y z
#
# Youngs Moduli (GPa) = 28.25662 28.25662 54.97584
#
# Poissons Ratio (x) = 0.43347 0.15415
# Poissons Ratio (y) = 0.43347 0.15415
# Poissons Ratio (z) = 0.07923 0.07923
#
# Static dielectric constant tensor:
#      x y z
#    x 1.638290 0.000000 0.000000 
#    y 0.000000 1.638290 0.000000 
#    z 0.000000 0.000000 1.649840 
# 
# From -- ./inp_files/783.got.cif
#   From: 2010.05.17/outbox.cif.g08.bks.cpg/sg165_1_cif.got.tgz:783.got - 2010.05.20 11:02:39.
