data_PCOD9578834
_publ_section_title
;
Structure prediction by ZEFSAII (Michael W. Deem and Ramdas Pophale) SiO2 
 PCOD9578834
Probable space group: P -3 C 1
;
_chemical_formula_sum "Si O2"
_cell_formula_units_Z 54
_cell_length_a 24.808031
_cell_length_b 24.808031
_cell_length_c 5.431000
_cell_angle_alpha 90.000000
_cell_angle_beta 90.000000
_cell_angle_gamma 120.000000
_cell_volume 2894.643114
_symmetry_space_group_name_H-M "P -3 C 1"
_symmetry_group_IT_number 165
_symmetry_cell_setting 'hexagonal'
loop_
_space_group_symop_operation_xyz
x,y,z
-y,x-y,z
-x+y,-x,z
x-y,-y,1/2-z
-x,-x+y,1/2-z
y,x,1/2-z
-x,-y,-z
y,-x+y,-z
x-y,x,-z
-x+y,y,1/2+z
x,x-y,1/2+z
-y,-x,1/2+z
loop_
_atom_site_type_symbol
_atom_site_label
_atom_site_fract_x
_atom_site_fract_y
_atom_site_fract_z
Si Si1 0.773337 0.174041 0.759606
Si Si2 0.280317 0.000000 0.750000
Si Si3 0.925736 0.488722 0.279677
Si Si4 0.657040 0.600070 0.089517
Si Si5 0.112690 0.853072 0.302550
O O1 0.786158 0.212237 0.506527
O O2 0.705101 0.114370 0.754059
O O3 0.824666 0.151487 0.741552
O O4 0.270825 0.055340 0.652394
O O5 0.304416 0.970695 0.544773
O O6 0.901207 0.439549 0.507369
O O7 0.920265 0.546600 0.383667
O O8 0.000000 0.518014 0.250000
O O9 0.605086 0.605086 0.250000
O O10 0.123276 0.895418 0.538080
#
# Coordination Sequence:
#
# PCOD9578834 Si02
#       5
#    12   6  12  12  12
#     4  10  20  35  46  67 102 123 162 217 246 280
#     4  12  22  30  54  72  94 142 180 198 246 312
#     4  10  21  35  46  67  99 128 168 217 242 274
#     4  12  22  31  53  72  94 139 184 197 244 311
#     4  10  20  35  45  67 102 123 165 214 241 281
#
# _framework density 18.655149000000002
#
# number of rings (size 3 to 8) (size 9 to 14) (size 15 to 20)
#    0.000    1.333    5.556    4.667    0.000    0.000 
#    0.000    0.000    0.000    0.000    0.000    0.000 
#    0.000    0.000    0.000   20.000    1.333    3.556 
#
# Total GULP energy -301282.869922 kJ/mol
# GULP energy per Si atom -5579.312406 kJ/mol
# Density = 1.861269 g / cm^3
# Si number density = 18.655149 Si / 1000 Ang^3
#
#
#
# Elastic Constant Matrix: (Units=GPa)
#
#
# Indices 1 2 3 4 5 6 
#
# 1 64.4427 15.6034 8.6714 -1.5909 0.0000 0.0000
# 2 15.6034 64.4427 8.6714 1.5909 0.0000 0.0000
# 3 8.6714 8.6714 117.5012 0.0000 0.0000 0.0000
# 4 -1.5909 1.5909 0.0000 26.3896 0.0000 0.0000
# 5 0.0000 0.0000 0.0000 0.0000 26.3896 -1.5909
# 6 0.0000 0.0000 0.0000 0.0000 -1.5909 24.4197
#
#
#
# Elastic Compliance Matrix: (Units=1/GPa)
#
#
# Indices 1 2 3 4 5 6 
#
# 1 0.016626 -0.003930 -0.000937 0.001239 0.000000 0.000000
# 2 -0.003930 0.016626 -0.000937 -0.001239 0.000000 0.000000
# 3 -0.000937 -0.000937 0.008649 0.000000 0.000000 0.000000
# 4 0.001239 -0.001239 0.000000 0.038043 0.000000 0.000000
# 5 0.000000 0.000000 0.000000 0.000000 0.038043 0.002478
# 6 0.000000 0.000000 0.000000 0.000000 0.002478 0.041112
#
#
# Mechanical properties :
#
#
# Convention : Reuss Voigt Hill
#
# Bulk Modulus (GPa) = 33.01125 34.69769 33.85447
# Shear Modulus (GPa) = 27.65417 29.66913 28.66165
#
# Velocity S-wave (km/s) = 3.85436 3.99231 3.92394
# Velocity P-wave (km/s) = 6.12715 6.31595 6.22227
#
# Compressibility (1/GPa) = 0.03029271
#
# Stress axis : x y z
#
# Youngs Moduli (GPa) = 60.14705 60.14705 115.62247
#
# Poissons Ratio (x) = 0.23638 0.10833
# Poissons Ratio (y) = 0.23638 0.10833
# Poissons Ratio (z) = 0.05635 0.05635
#
# Static dielectric constant tensor:
#      x y z
#    x 1.643670 0.000000 0.000000 
#    y 0.000000 1.643670 0.000000 
#    z 0.000000 0.000000 1.794200 
# 
# From -- ./inp_files/154.got.cif
#   From: 2010.05.17/outbox.cif.g08.bks.cpg/sg165_1_cif.got.tgz:154.got - 2010.05.20 11:02:39.
