data_PCOD9578815
_publ_section_title
;
Structure prediction by ZEFSAII (Michael W. Deem and Ramdas Pophale) SiO2 
 PCOD9578815
Probable space group: P -3 C 1
;
_chemical_formula_sum "Si O2"
_cell_formula_units_Z 60
_cell_length_a 12.509712
_cell_length_b 12.509712
_cell_length_c 22.885117
_cell_angle_alpha 90.000000
_cell_angle_beta 90.000000
_cell_angle_gamma 120.000000
_cell_volume 3101.547178
_symmetry_space_group_name_H-M "P -3 C 1"
_symmetry_group_IT_number 165
_symmetry_cell_setting 'hexagonal'
loop_
_space_group_symop_operation_xyz
x,y,z
-y,x-y,z
-x+y,-x,z
x-y,-y,1/2-z
-x,-x+y,1/2-z
y,x,1/2-z
-x,-y,-z
y,-x+y,-z
x-y,x,-z
-x+y,y,1/2+z
x,x-y,1/2+z
-y,-x,1/2+z
loop_
_atom_site_type_symbol
_atom_site_label
_atom_site_fract_x
_atom_site_fract_y
_atom_site_fract_z
Si Si1 0.933796 0.513256 0.195364
Si Si2 0.333334 0.666667 0.439274
Si Si3 0.435192 0.095372 0.087662
Si Si4 0.666668 0.333334 0.701372
Si Si5 0.000000 0.000000 0.678809
Si Si6 0.250200 0.995056 0.991664
Si Si7 0.726603 0.935751 0.362988
O O1 0.940750 0.446074 0.136123
O O2 0.793138 0.450450 0.217124
O O3 0.973616 0.654154 0.182469
O O4 0.000000 0.493661 0.250000
O O5 0.329725 0.790744 0.451296
O O6 0.333334 0.666667 0.368813
O O7 0.354645 0.142709 0.123829
O O8 0.997101 0.652960 0.959716
O O9 0.892502 0.865932 0.654882
O O10 0.000000 0.000000 0.750000
O O11 0.278904 0.995078 0.923809
O O12 0.242002 0.117142 0.001816
#
# Coordination Sequence:
#
# PCOD9578815 Si02
#       7
#    12   4  12   4   4  12  12
#     4  11  21  39  64  88 121 168 214 261 315 389
#     4   9  15  36  60  82 119 157 216 252 301 386
#     4  10  19  37  64  88 119 170 215 258 318 388
#     4   9  18  42  57  82 116 163 213 243 319 380
#     4  12  27  42  64 101 139 168 214 272 331 390
#     4  10  21  37  60  90 126 169 207 265 329 393
#     4  11  21  41  63  92 128 166 215 265 320 394
#
# _framework density 19.345185000000001
#
# number of rings (size 3 to 8) (size 9 to 14) (size 15 to 20)
#    0.000    1.600    6.000    3.200    0.000    1.600 
#    7.200    0.000    0.000    0.000    0.000    0.000 
#    0.000    0.000    0.000    0.000    0.000    0.000 
#
# Total GULP energy -334099.312985 kJ/mol
# GULP energy per Si atom -5568.321883 kJ/mol
# Density = 1.930115 g / cm^3
# Si number density = 19.345185 Si / 1000 Ang^3
#
#
#
# Elastic Constant Matrix: (Units=GPa)
#
#
# Indices 1 2 3 4 5 6 
#
# 1 70.1890 30.8977 32.8635 -1.9248 0.0000 0.0000
# 2 30.8977 70.1881 32.8634 1.9251 0.0000 0.0000
# 3 32.8635 32.8634 98.6213 0.0001 0.0000 0.0000
# 4 -1.9248 1.9251 0.0001 18.0086 0.0000 0.0000
# 5 0.0000 0.0000 0.0000 0.0000 18.0082 -1.9252
# 6 0.0000 0.0000 0.0000 0.0000 -1.9252 19.6451
#
#
#
# Elastic Compliance Matrix: (Units=1/GPa)
#
#
# Indices 1 2 3 4 5 6 
#
# 1 0.019175 -0.006546 -0.004208 0.002749 0.000000 0.000000
# 2 -0.006546 0.019175 -0.004208 -0.002749 0.000000 0.000000
# 3 -0.004208 -0.004208 0.012944 0.000000 0.000000 0.000000
# 4 0.002749 -0.002749 0.000000 0.056117 0.000000 0.000000
# 5 0.000000 0.000000 0.000000 0.000000 0.056118 0.005500
# 6 0.000000 0.000000 0.000000 0.000000 0.005500 0.051442
#
#
# Mechanical properties :
#
#
# Convention : Reuss Voigt Hill
#
# Bulk Modulus (GPa) = 46.79694 48.02750 47.41222
# Shear Modulus (GPa) = 19.83977 20.62396 20.23187
#
# Velocity S-wave (km/s) = 3.20592 3.26867 3.23745
# Velocity P-wave (km/s) = 6.16011 6.25508 6.20778
#
# Compressibility (1/GPa) = 0.02136892
#
# Stress axis : x y z
#
# Youngs Moduli (GPa) = 52.15246 52.15174 77.25332
#
# Poissons Ratio (x) = 0.34138 0.32510
# Poissons Ratio (y) = 0.34138 0.32510
# Poissons Ratio (z) = 0.21947 0.21947
#
# Static dielectric constant tensor:
#      x y z
#    x 1.752540 0.000000 0.000000 
#    y 0.000000 1.752540 0.000000 
#    z 0.000000 0.000000 1.719680 
# 
# From -- ./inp_files/3128.got.cif
#   From: 2010.05.17/outbox.cif.g08.bks.cpg/sg165_2_cif.got.tgz:3128.got - 2010.05.20 11:02:39.
