data_PCOD9578981
_publ_section_title
;
Structure prediction by ZEFSAII (Michael W. Deem and Ramdas Pophale) SiO2 
 PCOD9578981
Probable space group: P -3 C 1
;
_chemical_formula_sum "Si O2"
_cell_formula_units_Z 76
_cell_length_a 15.847849
_cell_length_b 15.847849
_cell_length_c 14.391429
_cell_angle_alpha 90.000000
_cell_angle_beta 90.000000
_cell_angle_gamma 120.000000
_cell_volume 3130.222438
_symmetry_space_group_name_H-M "P -3 C 1"
_symmetry_group_IT_number 165
_symmetry_cell_setting 'hexagonal'
loop_
_space_group_symop_operation_xyz
x,y,z
-y,x-y,z
-x+y,-x,z
x-y,-y,1/2-z
-x,-x+y,1/2-z
y,x,1/2-z
-x,-y,-z
y,-x+y,-z
x-y,x,-z
-x+y,y,1/2+z
x,x-y,1/2+z
-y,-x,1/2+z
loop_
_atom_site_type_symbol
_atom_site_label
_atom_site_fract_x
_atom_site_fract_y
_atom_site_fract_z
Si Si1 0.262573 0.812660 0.839012
Si Si2 0.812049 0.687852 0.510435
Si Si3 0.000000 0.000000 0.138936
Si Si4 0.468046 0.579690 0.101441
Si Si5 0.588252 0.114928 0.613598
Si Si6 0.189909 0.179865 0.638191
Si Si7 0.437190 0.247310 0.361016
O O1 0.370234 0.828316 0.833004
O O2 0.179087 0.703798 0.867768
O O3 0.228209 0.835836 0.742032
O O4 0.271175 0.882177 0.923493
O O5 0.885017 0.759772 0.588572
O O6 0.774720 0.727717 0.427579
O O7 0.857886 0.635889 0.447266
O O8 0.033995 0.109851 0.113130
O O9 0.000000 0.000000 0.250000
O O10 0.539047 0.539444 0.135222
O O11 0.512549 0.693577 0.124352
O O12 0.360011 0.516178 0.141223
O O13 0.441570 0.557296 0.992872
O O14 0.197881 0.197881 0.750000
#
# Coordination Sequence:
#
# PCOD9578981 Si02
#       7
#    12  12   4  12  12  12  12
#     4  12  26  44  70 103 144 194 249 313 383 455
#     4  12  26  43  68 106 150 186 237 300 364 458
#     4   9  21  49  77 100 127 179 241 277 332 421
#     4  11  24  47  75 102 143 196 256 319 379 453
#     4  11  24  47  75 102 143 196 256 319 379 453
#     4  11  25  47  76 107 145 193 239 296 366 437
#     4  12  26  44  70 103 144 194 249 313 383 455
#
# _framework density 24.279426000000001
#
# number of rings (size 3 to 8) (size 9 to 14) (size 15 to 20)
#    0.000    0.632    3.158    3.474    4.421    3.158 
#    0.000    1.579    0.000    0.000    0.000    0.000 
#    0.000    0.000    0.000    0.000    0.000    0.000 
#
# Total GULP energy -424394.187563 kJ/mol
# GULP energy per Si atom -5584.134047 kJ/mol
# Density = 2.422417 g / cm^3
# Si number density = 24.279426 Si / 1000 Ang^3
#
#
#
# Elastic Constant Matrix: (Units=GPa)
#
#
# Indices 1 2 3 4 5 6 
#
# 1 93.4114 24.9024 20.6398 18.0081 0.0000 0.0000
# 2 24.9024 93.4114 20.6398 -18.0081 0.0000 0.0000
# 3 20.6398 20.6398 191.1048 0.0000 0.0000 0.0000
# 4 18.0081 -18.0081 0.0000 135.0142 0.0000 0.0000
# 5 0.0000 0.0000 0.0000 0.0000 135.0142 18.0081
# 6 0.0000 0.0000 0.0000 0.0000 18.0081 34.2545
#
#
#
# Elastic Compliance Matrix: (Units=1/GPa)
#
#
# Indices 1 2 3 4 5 6 
#
# 1 0.012240 -0.003457 -0.000949 -0.002094 0.000000 0.000000
# 2 -0.003457 0.012240 -0.000949 0.002094 0.000000 0.000000
# 3 -0.000949 -0.000949 0.005438 0.000000 0.000000 0.000000
# 4 -0.002094 0.002094 0.000000 0.007965 0.000000 0.000000
# 5 0.000000 0.000000 0.000000 0.000000 0.007965 -0.004187
# 6 0.000000 0.000000 0.000000 0.000000 -0.004187 0.031395
#
#
# Mechanical properties :
#
#
# Convention : Reuss Voigt Hill
#
# Bulk Modulus (GPa) = 52.05790 56.69907 54.37848
# Shear Modulus (GPa) = 52.99157 81.63961 67.31559
#
# Velocity S-wave (km/s) = 4.67687 5.80500 5.27120
# Velocity P-wave (km/s) = 7.11701 8.26644 7.71317
#
# Compressibility (1/GPa) = 0.01920938
#
# Stress axis : x y z
#
# Youngs Moduli (GPa) = 81.69814 81.69814 183.90357
#
# Poissons Ratio (x) = 0.28244 0.17445
# Poissons Ratio (y) = 0.28244 0.17445
# Poissons Ratio (z) = 0.07750 0.07750
#
# Static dielectric constant tensor:
#      x y z
#    x 1.980560 0.000000 0.000000 
#    y 0.000000 1.980560 0.000000 
#    z 0.000000 0.000000 1.965560 
# 
# From -- ./inp_files/1819.got.cif
#   From: 2010.05.17/outbox.cif.g08.bks.cpg/sg165_1_cif.got.tgz:1819.got - 2010.05.20 11:02:39.
