data_PCOD9578526
_publ_section_title
;
Structure prediction by ZEFSAII (Michael W. Deem and Ramdas Pophale) SiO2 
 PCOD9578526
Probable space group: P -3 M 1
;
_chemical_formula_sum "Si O2"
_cell_formula_units_Z 96
_cell_length_a 18.034330
_cell_length_b 18.034330
_cell_length_c 20.187949
_cell_angle_alpha 90.000000
_cell_angle_beta 90.000000
_cell_angle_gamma 120.000000
_cell_volume 5686.209483
_symmetry_space_group_name_H-M "P -3 M 1"
_symmetry_group_IT_number 164
_symmetry_cell_setting 'hexagonal'
loop_
_space_group_symop_operation_xyz
x,y,z
-y,x-y,z
-x+y,-x,z
x-y,-y,-z
-x,-x+y,-z
y,x,-z
-x,-y,-z
y,-x+y,-z
x-y,x,-z
-x+y,y,z
x,x-y,z
-y,-x,z
loop_
_atom_site_type_symbol
_atom_site_label
_atom_site_fract_x
_atom_site_fract_y
_atom_site_fract_z
Si Si1 0.492402 0.157303 0.888169
Si Si2 0.575590 0.974303 0.231256
Si Si3 0.170883 0.002561 0.794468
Si Si4 0.128100 0.433637 0.966001
Si Si5 0.827021 0.827365 0.579381
Si Si6 0.497593 0.162190 0.177563
Si Si7 0.753734 0.789716 0.930969
Si Si8 0.929135 0.243419 0.681693
O O1 0.591438 0.182876 0.880344
O O2 0.482123 0.241062 0.882561
O O3 0.440164 0.088423 0.831146
O O4 0.464804 0.117668 0.962277
O O5 0.485065 0.970129 0.243631
O O6 0.610891 0.945266 0.293156
O O7 0.642307 0.072422 0.210836
O O8 0.093855 0.906146 0.786423
O O9 0.216543 0.015872 0.865798
O O10 0.134577 0.067289 0.790941
O O11 0.242198 0.030074 0.738872
O O12 0.212461 0.424922 0.975024
O O13 0.147070 0.492130 0.901854
O O14 0.053713 0.341325 0.942449
O O15 0.818724 0.818724 0.500000
O O16 0.817285 0.908643 0.599175
O O17 0.762630 0.739090 0.615932
O O18 0.922712 0.845423 0.596590
O O19 0.592305 0.184609 0.199311
O O20 0.479949 0.239975 0.190169
O O21 0.746202 0.873101 0.919704
O O22 0.801644 0.801644 0.000000
O O23 0.829033 0.170968 0.676690
#
# Coordination Sequence:
#
# PCOD9578526 Si02
#       8
#    12  12  12  12  12  12  12  12
#     4  10  20  34  51  70  92 120 154 198 254 315
#     4  10  22  36  51  72  97 125 161 206 252 297
#     4  10  20  32  47  68  96 132 174 214 249 288
#     4   9  19  30  44  63  82 108 147 199 253 307
#     4   9  17  30  51  82 119 154 182 205 232 272
#     4  10  20  34  49  66  88 118 156 201 255 311
#     4  10  20  31  42  58  81 116 162 209 253 293
#     4  10  20  33  52  76 103 136 168 202 247 298
#
# _framework density 16.882950999999998
#
# number of rings (size 3 to 8) (size 9 to 14) (size 15 to 20)
#    0.000    2.250    0.000    2.750    3.500    2.500 
#    0.000    4.375    0.000    2.625    0.000    0.000 
#    0.000    0.000    0.000    0.250    0.000    0.000 
#
# Total GULP energy -535315.938940 kJ/mol
# GULP energy per Si atom -5576.207697 kJ/mol
# Density = 1.684452 g / cm^3
# Si number density = 16.882951 Si / 1000 Ang^3
#
#
#
# Elastic Constant Matrix: (Units=GPa)
#
#
# Indices 1 2 3 4 5 6 
#
# 1 72.8810 43.8965 20.3188 -0.6073 0.0000 0.0000
# 2 43.8965 72.8810 20.3188 0.6073 0.0000 0.0000
# 3 20.3188 20.3188 46.6652 0.0000 0.0000 0.0000
# 4 -0.6073 0.6073 0.0000 21.4594 0.0000 0.0000
# 5 0.0000 0.0000 0.0000 0.0000 21.4594 -0.6073
# 6 0.0000 0.0000 0.0000 0.0000 -0.6073 14.4923
#
#
#
# Elastic Compliance Matrix: (Units=1/GPa)
#
#
# Indices 1 2 3 4 5 6 
#
# 1 0.022317 -0.012225 -0.004394 0.000978 0.000000 0.000000
# 2 -0.012225 0.022317 -0.004394 -0.000978 0.000000 0.000000
# 3 -0.004394 -0.004394 0.025256 0.000000 0.000000 0.000000
# 4 0.000978 -0.000978 0.000000 0.046655 0.000000 0.000000
# 5 0.000000 0.000000 0.000000 0.000000 0.046655 0.001955
# 6 0.000000 0.000000 0.000000 0.000000 0.001955 0.069084
#
#
# Mechanical properties :
#
#
# Convention : Reuss Voigt Hill
#
# Bulk Modulus (GPa) = 35.88948 40.16616 38.02782
# Shear Modulus (GPa) = 17.63046 18.67509 18.15278
#
# Velocity S-wave (km/s) = 3.23503 3.32949 3.28260
# Velocity P-wave (km/s) = 5.93783 6.21477 6.07788
#
# Compressibility (1/GPa) = 0.02786332
#
# Stress axis : x y z
#
# Youngs Moduli (GPa) = 44.80823 44.80823 39.59440
#
# Poissons Ratio (x) = 0.54777 0.17400
# Poissons Ratio (y) = 0.54777 0.17400
# Poissons Ratio (z) = 0.19691 0.19691
#
# Static dielectric constant tensor:
#      x y z
#    x 1.590070 0.000000 0.000000 
#    y 0.000000 1.590070 0.000000 
#    z 0.000000 0.000000 1.624310 
# 
# From -- ./inp_files/4759.got.cif
#   From: 2010.05.17/outbox.cif.g08.bks.cpg/sg164_3_cif.got.tgz:4759.got - 2010.05.20 10:58:56.
