data_PCOD9578258
_publ_section_title
;
Structure prediction by ZEFSAII (Michael W. Deem and Ramdas Pophale) SiO2 
 PCOD9578258
Probable space group: P -3 1 C
;
_chemical_formula_sum "Si O2"
_cell_formula_units_Z 40
_cell_length_a 18.275000
_cell_length_b 18.275000
_cell_length_c 7.669211
_cell_angle_alpha 90.000000
_cell_angle_beta 90.000000
_cell_angle_gamma 120.000000
_cell_volume 2218.176446
_symmetry_space_group_name_H-M "P -3 1 C"
_symmetry_group_IT_number 163
_symmetry_cell_setting 'hexagonal'
loop_
_space_group_symop_operation_xyz
x,y,z
-y,x-y,z
-x+y,-x,z
-y,-x,1/2-z
-x+y,y,1/2-z
x,x-y,1/2-z
-x,-y,-z
y,-x+y,-z
x-y,x,-z
y,x,1/2+z
x-y,-y,1/2+z
-x,-x+y,1/2+z
loop_
_atom_site_type_symbol
_atom_site_label
_atom_site_fract_x
_atom_site_fract_y
_atom_site_fract_z
Si Si1 0.333335 0.666667 0.460769
Si Si2 0.806613 0.290410 0.977014
Si Si3 0.569076 0.685954 0.126969
Si Si4 0.048827 0.440582 0.759278
O O1 0.333334 0.666667 0.250000
O O2 0.295950 0.724604 0.525269
O O3 0.776834 0.191356 0.943927
O O4 0.836380 0.331592 0.785586
O O5 0.878885 0.339740 0.117394
O O6 0.627988 0.654865 0.222400
O O7 0.545433 0.632505 0.951532
O O8 0.016810 0.508405 0.750000
#
# Coordination Sequence:
#
# PCOD9578258 Si02
#       4
#     4  12  12  12
#     4  12  21  36  60  70 114 141 181 246 297 319
#     4  11  25  39  55  81 109 145 188 241 290 331
#     4  11  23  37  56  77 106 142 184 237 279 339
#     4  12  24  36  58  79 107 145 194 229 290 348
#
# _framework density 18.032831000000002
#
# number of rings (size 3 to 8) (size 9 to 14) (size 15 to 20)
#    0.000    0.600    6.000    3.600    4.200    0.000 
#    0.000    3.000    0.000    0.000    0.000    0.000 
#    0.000    0.000    0.000    0.900   18.600   10.200 
#
# Total GULP energy -222746.178120 kJ/mol
# GULP energy per Si atom -5568.654453 kJ/mol
# Density = 1.799179 g / cm^3
# Si number density = 18.032831 Si / 1000 Ang^3
#
#
#
# Elastic Constant Matrix: (Units=GPa)
#
#
# Indices 1 2 3 4 5 6 
#
# 1 63.3783 29.7012 23.1793 0.0002 -5.1663 0.0004
# 2 29.7012 63.3793 23.1792 0.0003 5.1666 0.0004
# 3 23.1793 23.1792 112.7590 0.0002 0.0000 -0.0001
# 4 0.0002 0.0003 0.0002 26.4284 0.0002 5.1667
# 5 -5.1663 5.1666 0.0000 0.0002 26.4281 0.0002
# 6 0.0004 0.0004 -0.0001 5.1667 0.0002 16.8388
#
#
#
# Elastic Compliance Matrix: (Units=1/GPa)
#
#
# Indices 1 2 3 4 5 6 
#
# 1 0.021779 -0.009810 -0.002460 0.000000 0.006175 0.000000
# 2 -0.009810 0.021778 -0.002460 0.000000 -0.006175 0.000000
# 3 -0.002460 -0.002460 0.009880 0.000000 0.000000 0.000000
# 4 0.000000 0.000000 0.000000 0.040253 0.000000 -0.012351
# 5 0.006175 -0.006175 0.000000 0.000000 0.040253 0.000000
# 6 0.000000 0.000000 0.000000 -0.012351 0.000000 0.063176
#
#
# Mechanical properties :
#
#
# Convention : Reuss Voigt Hill
#
# Bulk Modulus (GPa) = 41.70802 43.51510 42.61156
# Shear Modulus (GPa) = 21.31550 24.83620 23.07585
#
# Velocity S-wave (km/s) = 3.44181 3.71519 3.58111
# Velocity P-wave (km/s) = 6.24291 6.52587 6.38596
#
# Compressibility (1/GPa) = 0.02397620
#
# Stress axis : x y z
#
# Youngs Moduli (GPa) = 45.91664 45.91739 101.21460
#
# Poissons Ratio (x) = 0.45043 0.24903
# Poissons Ratio (y) = 0.45042 0.24902
# Poissons Ratio (z) = 0.11297 0.11297
#
# Static dielectric constant tensor:
#      x y z
#    x 1.667640 0.000000 0.000000 
#    y 0.000000 1.667640 0.000000 
#    z 0.000000 0.000000 1.664030 
# 
# From -- ./inp_files/799.got.cif
#   From: 2010.05.17/outbox.cif.g08.bks.cpg/sg163_1_cif.got.tgz:799.got - 2010.05.20 10:56:03.
