data_PCOD9578990
_publ_section_title
;
Structure prediction by ZEFSAII (Michael W. Deem and Ramdas Pophale) SiO2 
 PCOD9578990
Probable space group: P -3 C 1
;
_chemical_formula_sum "Si O2"
_cell_formula_units_Z 48
_cell_length_a 11.774948
_cell_length_b 11.774948
_cell_length_c 18.820105
_cell_angle_alpha 90.000000
_cell_angle_beta 90.000000
_cell_angle_gamma 120.000000
_cell_volume 2259.803462
_symmetry_space_group_name_H-M "P -3 C 1"
_symmetry_group_IT_number 165
_symmetry_cell_setting 'hexagonal'
loop_
_space_group_symop_operation_xyz
x,y,z
-y,x-y,z
-x+y,-x,z
x-y,-y,1/2-z
-x,-x+y,1/2-z
y,x,1/2-z
-x,-y,-z
y,-x+y,-z
x-y,x,-z
-x+y,y,1/2+z
x,x-y,1/2+z
-y,-x,1/2+z
loop_
_atom_site_type_symbol
_atom_site_label
_atom_site_fract_x
_atom_site_fract_y
_atom_site_fract_z
Si Si1 0.306304 0.900571 0.562731
Si Si2 0.053295 0.542054 0.827703
Si Si3 0.666668 0.333335 0.665307
Si Si4 0.000000 0.000000 0.085033
Si Si5 0.733099 0.740071 0.085453
Si Si6 0.666667 0.333334 0.497291
O O1 0.163273 0.812512 0.596443
O O2 0.348925 0.802345 0.528973
O O3 0.416566 0.981713 0.620776
O O4 0.285827 0.979460 0.497676
O O5 0.193129 0.557604 0.811130
O O6 0.000000 0.538495 0.750000
O O7 0.059547 0.665571 0.869563
O O8 0.666668 0.333334 0.580967
O O9 0.970008 0.117407 0.103887
O O10 0.000000 0.000000 0.000000
#
# Coordination Sequence:
#
# PCOD9578990 Si02
#       6
#    12  12   4   4  12   4
#     4  12  23  43  73 104 141 180 236 293 355 409
#     4  12  30  46  69 101 146 191 235 288 351 430
#     4  12  27  46  71 103 141 178 242 292 348 412
#     4  12  24  42  76 110 145 174 234 303 361 426
#     4  12  24  45  73 107 139 183 234 294 357 419
#     4  12  21  40  77 109 138 175 236 298 342 412
#
# _framework density 21.240784000000001
#
# number of rings (size 3 to 8) (size 9 to 14) (size 15 to 20)
#    0.000    0.000    7.500    2.250    7.000    0.000 
#    0.000    1.250    0.000    0.000    0.000    0.000 
#    0.000    0.000    0.000    0.000    0.000    0.000 
#
# Total GULP energy -268208.077182 kJ/mol
# GULP energy per Si atom -5587.668275 kJ/mol
# Density = 2.119244 g / cm^3
# Si number density = 21.240784 Si / 1000 Ang^3
#
#
#
# Elastic Constant Matrix: (Units=GPa)
#
#
# Indices 1 2 3 4 5 6 
#
# 1 90.4167 16.0529 12.0924 6.3961 0.0000 0.0000
# 2 16.0529 90.4152 12.0921 -6.3971 0.0000 0.0000
# 3 12.0924 12.0921 63.4822 0.0015 0.0000 0.0000
# 4 6.3961 -6.3971 0.0015 24.8528 0.0000 0.0000
# 5 0.0000 0.0000 0.0000 0.0000 24.8481 6.3944
# 6 0.0000 0.0000 0.0000 0.0000 6.3944 37.1816
#
#
#
# Elastic Compliance Matrix: (Units=1/GPa)
#
#
# Indices 1 2 3 4 5 6 
#
# 1 0.011944 -0.002127 -0.001870 -0.003621 0.000000 0.000000
# 2 -0.002127 0.011944 -0.001870 0.003622 0.000000 0.000000
# 3 -0.001870 -0.001870 0.016465 -0.000001 0.000000 0.000000
# 4 -0.003621 0.003622 -0.000001 0.042101 0.000000 0.000000
# 5 0.000000 0.000000 0.000000 0.000000 0.042108 -0.007242
# 6 0.000000 0.000000 0.000000 0.000000 -0.007242 0.028140
#
#
# Mechanical properties :
#
#
# Convention : Reuss Voigt Hill
#
# Bulk Modulus (GPa) = 34.94154 36.08765 35.51459
# Shear Modulus (GPa) = 28.73971 30.98162 29.86066
#
# Velocity S-wave (km/s) = 3.68236 3.82329 3.75349
# Velocity P-wave (km/s) = 5.87926 6.04291 5.96165
#
# Compressibility (1/GPa) = 0.02861923
#
# Stress axis : x y z
#
# Youngs Moduli (GPa) = 83.72600 83.72384 60.73542
#
# Poissons Ratio (x) = 0.17805 0.11357
# Poissons Ratio (y) = 0.17806 0.11358
# Poissons Ratio (z) = 0.15656 0.15657
#
# Static dielectric constant tensor:
#      x y z
#    x 1.829270 0.000000 0.000000 
#    y 0.000000 1.829270 0.000140 
#    z 0.000000 0.000140 5.472150 
# 
# From -- ./inp_files/2556.got.cif
#   From: 2010.05.17/outbox.cif.g08.bks.cpg/sg165_2_cif.got.tgz:2556.got - 2010.05.20 11:02:39.
