data_PCOD9578047
_publ_section_title
;
Structure prediction by ZEFSAII (Michael W. Deem and Ramdas Pophale) SiO2 
 PCOD9578047
Probable space group: P -3 1 C
;
_chemical_formula_sum "Si O2"
_cell_formula_units_Z 66
_cell_length_a 19.634589
_cell_length_b 19.634589
_cell_length_c 9.408126
_cell_angle_alpha 90.000000
_cell_angle_beta 90.000000
_cell_angle_gamma 120.000000
_cell_volume 3141.068348
_symmetry_space_group_name_H-M "P -3 1 C"
_symmetry_group_IT_number 163
_symmetry_cell_setting 'hexagonal'
loop_
_space_group_symop_operation_xyz
x,y,z
-y,x-y,z
-x+y,-x,z
-y,-x,1/2-z
-x+y,y,1/2-z
x,x-y,1/2-z
-x,-y,-z
y,-x+y,-z
x-y,x,-z
y,x,1/2+z
x-y,-y,1/2+z
-x,-x+y,1/2+z
loop_
_atom_site_type_symbol
_atom_site_label
_atom_site_fract_x
_atom_site_fract_y
_atom_site_fract_z
Si Si1 0.617328 0.118677 0.581208
Si Si2 0.057100 0.797486 0.723485
Si Si3 0.450711 0.061058 0.486057
Si Si4 0.145721 0.707004 0.789710
Si Si5 0.441765 0.220883 0.750000
Si Si6 0.242070 0.923889 0.096416
O O1 0.533095 0.114452 0.568413
O O2 0.656892 0.138318 0.426235
O O3 0.689545 0.176979 0.685935
O O4 0.577414 0.023508 0.587084
O O5 0.109353 0.890647 0.750000
O O6 0.103412 0.759598 0.805764
O O7 0.060212 0.782096 0.556945
O O8 0.969350 0.747946 0.785040
O O9 0.452893 0.109935 0.350694
O O10 0.379085 0.043518 0.590159
O O11 0.234765 0.765236 0.750000
O O12 0.379916 0.212854 0.872491
#
# Coordination Sequence:
#
# PCOD9578047 Si02
#       6
#    12  12  12  12   6  12
#     4  11  22  37  61  91 128 161 222 284 343 414
#     4  10  21  37  61  92 132 169 216 266 337 406
#     4  10  22  38  61  91 121 169 220 279 341 405
#     4  10  19  37  60  84 121 165 212 272 339 408
#     4  12  24  38  60  92 130 174 216 280 360 406
#     4  11  23  38  62  88 132 173 212 272 339 409
#
# _framework density 21.011958
#
# number of rings (size 3 to 8) (size 9 to 14) (size 15 to 20)
#    0.000    1.455    1.818    6.000    2.545    0.727 
#    0.000    0.000    0.000   14.545    0.000    0.000 
#    0.909    1.455    0.000    0.000    0.000    0.000 
#
# Total GULP energy -367555.971661 kJ/mol
# GULP energy per Si atom -5569.029874 kJ/mol
# Density = 2.096413 g / cm^3
# Si number density = 21.011958 Si / 1000 Ang^3
#
#
#
# Elastic Constant Matrix: (Units=GPa)
#
#
# Indices 1 2 3 4 5 6 
#
# 1 69.8021 22.7321 32.1758 0.0031 51.4251 0.0000
# 2 22.7321 69.8021 32.1758 -0.0031 -51.4251 0.0000
# 3 32.1758 32.1758 89.6041 0.0000 0.0000 0.0000
# 4 0.0031 -0.0031 0.0000 -594.3064 0.0001 -51.4251
# 5 51.4251 -51.4251 0.0000 0.0001 -594.3065 0.0031
# 6 0.0000 0.0000 0.0000 -51.4251 0.0031 23.5350
#
#
#
# Elastic Compliance Matrix: (Units=1/GPa)
#
#
# Indices 1 2 3 4 5 6 
#
# 1 0.016135 -0.001732 -0.005172 0.000000 0.001546 0.000000
# 2 -0.001732 0.016135 -0.005172 0.000000 -0.001546 0.000000
# 3 -0.005172 -0.005172 0.014875 0.000000 0.000000 0.000000
# 4 0.000000 0.000000 0.000000 -0.001415 0.000000 -0.003092
# 5 0.001546 -0.001546 0.000000 0.000000 -0.001415 0.000000
# 6 0.000000 0.000000 0.000000 -0.003092 0.000000 0.035734
#
#
# Mechanical properties :
#
#
# Convention : Reuss Voigt Hill
#
# Bulk Modulus (GPa) = 43.49073 44.81952 44.15512
# Shear Modulus (GPa) = 44.69656 -223.54061 -89.42202
#
# Velocity S-wave (km/s) = 4.61716 -10.32561 -6.53070
# Velocity P-wave (km/s) = 7.01193 10.99004 5.98388
#
# Compressibility (1/GPa) = 0.02299341
#
# Stress axis : x y z
#
# Youngs Moduli (GPa) = 61.97587 61.97587 67.22784
#
# Poissons Ratio (x) = 0.10731 0.34772
# Poissons Ratio (y) = 0.10731 0.34772
# Poissons Ratio (z) = 0.32055 0.32055
#
# Static dielectric constant tensor:
#      x y z
#    x 1.837430 0.000000 0.000000 
#    y 0.000000 1.837430 0.000000 
#    z 0.000000 0.000000 1.759450 
# 
# From -- ./inp_files/1146.got.cif
#   From: 2010.05.17/outbox.cif.g08.bks.cpg/sg163_1_cif.got.tgz:1146.got - 2010.05.20 10:56:03.
