data_PCOD9578456
_publ_section_title
;
Structure prediction by ZEFSAII (Michael W. Deem and Ramdas Pophale) SiO2 
 PCOD9578456
Probable space group: P -3 M 1
;
_chemical_formula_sum "Si O2"
_cell_formula_units_Z 66
_cell_length_a 17.425376
_cell_length_b 17.425376
_cell_length_c 15.484164
_cell_angle_alpha 90.000000
_cell_angle_beta 90.000000
_cell_angle_gamma 120.000000
_cell_volume 4071.765048
_symmetry_space_group_name_H-M "P -3 M 1"
_symmetry_group_IT_number 164
_symmetry_cell_setting 'hexagonal'
loop_
_space_group_symop_operation_xyz
x,y,z
-y,x-y,z
-x+y,-x,z
x-y,-y,-z
-x,-x+y,-z
y,x,-z
-x,-y,-z
y,-x+y,-z
x-y,x,-z
-x+y,y,z
x,x-y,z
-y,-x,z
loop_
_atom_site_type_symbol
_atom_site_label
_atom_site_fract_x
_atom_site_fract_y
_atom_site_fract_z
Si Si1 0.277809 0.374443 0.595548
Si Si2 0.767080 0.710998 0.824774
Si Si3 0.000000 0.817702 0.000000
Si Si4 0.014857 0.419190 0.270645
Si Si5 0.177814 0.179402 0.351310
Si Si6 0.847181 0.512723 0.573853
O O1 0.192707 0.385414 0.612178
O O2 0.348926 0.417077 0.672198
O O3 0.239772 0.268809 0.597666
O O4 0.319047 0.421795 0.505452
O O5 0.839094 0.678187 0.825300
O O6 0.668392 0.634249 0.802199
O O7 0.798734 0.782510 0.746474
O O8 0.774975 0.758883 0.914947
O O9 0.913580 0.827159 0.011700
O O10 0.005953 0.502977 0.242746
O O11 0.095121 0.453893 0.339661
O O12 0.157047 0.078524 0.354572
O O13 0.093784 0.187567 0.381123
O O14 0.754785 0.509569 0.585945
O O15 0.833336 0.416668 0.552721
#
# Coordination Sequence:
#
# PCOD9578456 Si02
#       6
#    12  12   6  12  12  12
#     4   9  18  30  44  66  95 126 161 202 244 282
#     4   9  18  31  47  71 100 126 153 190 237 283
#     4  10  19  32  53  80 108 134 160 190 225 268
#     4  10  19  32  50  70  93 123 159 195 234 283
#     4   9  16  27  44  66  94 128 165 200 235 279
#     4  10  19  31  48  69  93 120 154 198 245 289
#
# _framework density 16.209185999999999
#
# number of rings (size 3 to 8) (size 9 to 14) (size 15 to 20)
#    0.000    2.545    0.000    2.636    0.000    2.909 
#    0.000    3.182    0.000    0.727    0.000    0.000 
#    0.000   52.364    0.000    0.000    0.000    0.000 
#
# Total GULP energy -368318.020765 kJ/mol
# GULP energy per Si atom -5580.576072 kJ/mol
# Density = 1.617229 g / cm^3
# Si number density = 16.209186 Si / 1000 Ang^3
#
#
#
# Elastic Constant Matrix: (Units=GPa)
#
#
# Indices 1 2 3 4 5 6 
#
# 1 76.3529 57.1396 33.2746 -6.5855 0.0000 0.0000
# 2 57.1396 76.3529 33.2746 6.5855 0.0000 0.0000
# 3 33.2746 33.2746 67.4860 0.0000 0.0000 0.0000
# 4 -6.5855 6.5855 0.0000 15.5288 0.0000 0.0000
# 5 0.0000 0.0000 0.0000 0.0000 15.5288 -6.5855
# 6 0.0000 0.0000 0.0000 0.0000 -6.5855 9.6067
#
#
#
# Elastic Compliance Matrix: (Units=1/GPa)
#
#
# Indices 1 2 3 4 5 6 
#
# 1 0.041656 -0.031724 -0.004897 0.031120 0.000000 0.000000
# 2 -0.031724 0.041656 -0.004897 -0.031120 0.000000 0.000000
# 3 -0.004897 -0.004897 0.019647 0.000000 0.000000 0.000000
# 4 0.031120 -0.031120 0.000000 0.090791 0.000000 0.000000
# 5 0.000000 0.000000 0.000000 0.000000 0.090791 0.062239
# 6 0.000000 0.000000 0.000000 0.000000 0.062239 0.146760
#
#
# Mechanical properties :
#
#
# Convention : Reuss Voigt Hill
#
# Bulk Modulus (GPa) = 50.19334 51.95215 51.07275
# Shear Modulus (GPa) = 9.59728 14.56639 12.08184
#
# Velocity S-wave (km/s) = 2.43593 3.00100 2.73311
# Velocity P-wave (km/s) = 6.24058 6.64294 6.44490
#
# Compressibility (1/GPa) = 0.01992296
#
# Stress axis : x y z
#
# Youngs Moduli (GPa) = 24.00596 24.00596 50.89787
#
# Poissons Ratio (x) = 0.76156 0.24926
# Poissons Ratio (y) = 0.76156 0.24926
# Poissons Ratio (z) = 0.11756 0.11756
#
# Static dielectric constant tensor:
#      x y z
#    x 1.549160 0.000000 0.000000 
#    y 0.000000 1.549160 0.000000 
#    z 0.000000 0.000000 1.526530 
# 
# From -- ./inp_files/3488.got.cif
#   From: 2010.05.17/outbox.cif.g08.bks.cpg/sg164_2_cif.got.tgz:3488.got - 2010.05.20 10:58:56.
