data_PCOD9578635
_publ_section_title
;
Structure prediction by ZEFSAII (Michael W. Deem and Ramdas Pophale) SiO2 
 PCOD9578635
Probable space group: P -3 M 1
;
_chemical_formula_sum "Si O2"
_cell_formula_units_Z 66
_cell_length_a 12.757861
_cell_length_b 12.757861
_cell_length_c 28.585630
_cell_angle_alpha 90.000000
_cell_angle_beta 90.000000
_cell_angle_gamma 120.000000
_cell_volume 4029.342012
_symmetry_space_group_name_H-M "P -3 M 1"
_symmetry_group_IT_number 164
_symmetry_cell_setting 'hexagonal'
loop_
_space_group_symop_operation_xyz
x,y,z
-y,x-y,z
-x+y,-x,z
x-y,-y,-z
-x,-x+y,-z
y,x,-z
-x,-y,-z
y,-x+y,-z
x-y,x,-z
-x+y,y,z
x,x-y,z
-y,-x,z
loop_
_atom_site_type_symbol
_atom_site_label
_atom_site_fract_x
_atom_site_fract_y
_atom_site_fract_z
Si Si1 0.084234 0.666477 0.180771
Si Si2 0.248989 0.000000 0.000000
Si Si3 0.582262 0.915641 0.909654
Si Si4 0.000508 0.751793 0.270846
Si Si5 0.247428 0.999706 0.553758
Si Si6 0.915338 0.333588 0.640284
O O1 0.096938 0.548469 0.188545
O O2 0.215244 0.784757 0.173894
O O3 0.000930 0.641496 0.135301
O O4 0.023878 0.691464 0.225583
O O5 0.308245 0.974727 0.954875
O O6 0.236477 0.118239 0.992552
O O7 0.451200 0.902399 0.917086
O O8 0.570599 0.785300 0.902030
O O9 0.871855 0.743709 0.269202
O O10 0.016658 0.689893 0.317163
O O11 0.108662 0.891339 0.271814
O O12 0.217470 0.108735 0.557497
O O13 0.350010 0.027956 0.591614
O O14 0.285679 0.000000 0.500000
O O15 0.127291 0.872710 0.563205
O O16 0.920282 0.460141 0.644931
O O17 0.777064 0.222937 0.641775
#
# Coordination Sequence:
#
# PCOD9578635 Si02
#       6
#    12   6  12  12  12  12
#     4  10  20  34  53  76 102 132 165 201 240 285
#     4  10  20  34  52  74 100 130 166 208 254 300
#     4  10  20  34  52  74 101 133 168 205 246 293
#     4  10  20  34  53  76 100 126 158 199 246 292
#     4   9  17  30  50  75 100 126 158 199 246 292
#     4  10  20  33  50  71  97 130 166 203 241 285
#
# _framework density 16.379845
#
# number of rings (size 3 to 8) (size 9 to 14) (size 15 to 20)
#    0.000    2.182    0.000    3.455    0.000    1.091 
#    0.000    3.636    0.000   19.273    0.000    0.000 
#    0.000    0.000    0.000    0.000    0.000    0.000 
#
# Total GULP energy -368361.919701 kJ/mol
# GULP energy per Si atom -5581.241208 kJ/mol
# Density = 1.634256 g / cm^3
# Si number density = 16.379845 Si / 1000 Ang^3
#
#
#
# Elastic Constant Matrix: (Units=GPa)
#
#
# Indices 1 2 3 4 5 6 
#
# 1 136.0761 97.3528 89.8434 -2.5670 0.0000 0.0000
# 2 97.3528 136.0761 89.8434 2.5670 0.0000 0.0000
# 3 89.8434 89.8434 124.2305 0.0000 0.0000 0.0000
# 4 -2.5670 2.5670 0.0000 22.6325 0.0000 0.0000
# 5 0.0000 0.0000 0.0000 0.0000 22.6325 -2.5670
# 6 0.0000 0.0000 0.0000 0.0000 -2.5670 19.3617
#
#
#
# Elastic Compliance Matrix: (Units=1/GPa)
#
#
# Indices 1 2 3 4 5 6 
#
# 1 0.017941 -0.008277 -0.006989 0.002974 0.000000 0.000000
# 2 -0.008277 0.017941 -0.006989 -0.002974 0.000000 0.000000
# 3 -0.006989 -0.006989 0.018158 0.000000 0.000000 0.000000
# 4 0.002974 -0.002974 0.000000 0.044859 0.000000 0.000000
# 5 0.000000 0.000000 0.000000 0.000000 0.044859 0.005947
# 6 0.000000 0.000000 0.000000 0.000000 0.005947 0.052437
#
#
# Mechanical properties :
#
#
# Convention : Reuss Voigt Hill
#
# Bulk Modulus (GPa) = 104.92740 105.60689 105.26714
# Shear Modulus (GPa) = 20.50172 20.88153 20.69163
#
# Velocity S-wave (km/s) = 3.54170 3.57435 3.55806
# Velocity P-wave (km/s) = 8.99571 9.03594 9.01585
#
# Compressibility (1/GPa) = 0.00953040
#
# Stress axis : x y z
#
# Youngs Moduli (GPa) = 55.73787 55.73787 55.07162
#
# Poissons Ratio (x) = 0.46136 0.38489
# Poissons Ratio (y) = 0.46136 0.38489
# Poissons Ratio (z) = 0.38954 0.38954
#
# Static dielectric constant tensor:
#      x y z
#    x 1.518080 0.000000 0.000000 
#    y 0.000000 1.518080 0.000000 
#    z 0.000000 0.000000 1.540040 
# 
# From -- ./inp_files/5455.got.cif
#   From: 2010.05.17/outbox.cif.g08.bks.cpg/sg164_3_cif.got.tgz:5455.got - 2010.05.20 10:58:56.
