data_PCOD9578414
_publ_section_title
;
Structure prediction by ZEFSAII (Michael W. Deem and Ramdas Pophale) SiO2 
 PCOD9578414
Probable space group: P -3 M 1
;
_chemical_formula_sum "Si O2"
_cell_formula_units_Z 84
_cell_length_a 17.861458
_cell_length_b 17.861458
_cell_length_c 21.377134
_cell_angle_alpha 90.000000
_cell_angle_beta 90.000000
_cell_angle_gamma 120.000000
_cell_volume 5906.278543
_symmetry_space_group_name_H-M "P -3 M 1"
_symmetry_group_IT_number 164
_symmetry_cell_setting 'hexagonal'
loop_
_space_group_symop_operation_xyz
x,y,z
-y,x-y,z
-x+y,-x,z
x-y,-y,-z
-x,-x+y,-z
y,x,-z
-x,-y,-z
y,-x+y,-z
x-y,x,-z
-x+y,y,z
x,x-y,z
-y,-x,z
loop_
_atom_site_type_symbol
_atom_site_label
_atom_site_fract_x
_atom_site_fract_y
_atom_site_fract_z
Si Si1 0.491640 0.332519 0.119995
Si Si2 0.030684 0.424949 0.365094
Si Si3 0.424950 0.394265 0.865094
Si Si4 0.159492 0.667251 0.030472
Si Si5 0.332519 0.491640 0.619995
Si Si6 0.492243 0.332751 0.530473
Si Si7 0.667324 0.154605 0.749999
O O1 0.485664 0.242832 0.138105
O O2 0.586204 0.413796 0.136198
O O3 0.416875 0.349671 0.145288
O O4 0.483578 0.333731 0.044289
O O5 0.022555 0.511278 0.366010
O O6 0.075115 0.426236 0.430845
O O7 0.097283 0.438903 0.310504
O O8 0.932795 0.349669 0.354713
O O9 0.511279 0.488722 0.866009
O O10 0.426236 0.351121 0.930844
O O11 0.438903 0.341618 0.810503
O O12 0.176418 0.588209 0.045935
O O13 0.242464 0.757537 0.048685
O O14 0.242832 0.485664 0.638104
O O15 0.413797 0.586204 0.636200
O O16 0.333734 0.483582 0.544289
O O17 0.484927 0.242464 0.548684
O O18 0.588210 0.411791 0.545937
O O19 0.584042 0.168083 0.749999
O O20 0.754710 0.245291 0.749999
#
# Coordination Sequence:
#
# PCOD9578414 Si02
#       7
#    12  12  12  12  12  12  12
#     4   9  16  26  40  57  77 103 135 168 198 228
#     4   9  17  27  38  54  77 104 133 164 197 229
#     4   9  17  27  38  54  77 104 133 164 197 229
#     4   9  15  23  37  57  80 105 133 163 194 230
#     4   9  16  26  40  57  77 103 135 168 198 228
#     4   9  15  23  37  57  80 105 133 163 194 230
#     4  10  19  30  43  58  78 104 132 158 185 224
#
# _framework density 14.222154
#
# number of rings (size 3 to 8) (size 9 to 14) (size 15 to 20)
#    0.000    2.857    0.000    2.429    0.000    5.714 
#    0.000    3.571    0.000    0.000    0.000    2.000 
#    0.000    0.000    0.000   12.000    0.000   53.714 
#
# Total GULP energy -467770.613784 kJ/mol
# GULP energy per Si atom -5568.697783 kJ/mol
# Density = 1.418978 g / cm^3
# Si number density = 14.222154 Si / 1000 Ang^3
#
#
#
# Elastic Constant Matrix: (Units=GPa)
#
#
# Indices 1 2 3 4 5 6 
#
# 1 86.2232 44.5475 16.1524 -0.0001 0.0000 0.0000
# 2 44.5475 86.2232 16.1524 0.0001 0.0000 0.0000
# 3 16.1524 16.1524 12.3761 0.0000 0.0000 0.0000
# 4 -0.0001 0.0001 0.0000 10.6471 0.0000 0.0000
# 5 0.0000 0.0000 0.0000 0.0000 10.6471 -0.0001
# 6 0.0000 0.0000 0.0000 0.0000 -0.0001 20.8378
#
#
#
# Elastic Compliance Matrix: (Units=1/GPa)
#
#
# Indices 1 2 3 4 5 6 
#
# 1 0.017640 -0.006355 -0.014729 0.000000 0.000000 0.000000
# 2 -0.006355 0.017640 -0.014729 0.000000 0.000000 0.000000
# 3 -0.014729 -0.014729 0.119248 0.000000 0.000000 0.000000
# 4 0.000000 0.000000 0.000000 0.093922 0.000000 0.000000
# 5 0.000000 0.000000 0.000000 0.000000 0.093922 0.000001
# 6 0.000000 0.000000 0.000000 0.000000 0.000001 0.047990
#
#
# Mechanical properties :
#
#
# Convention : Reuss Voigt Hill
#
# Bulk Modulus (GPa) = 12.06235 37.61414 24.83825
# Shear Modulus (GPa) = 10.21194 15.62441 12.91818
#
# Velocity S-wave (km/s) = 2.68252 3.31810 3.01709
# Velocity P-wave (km/s) = 4.25374 6.41753 5.44422
#
# Compressibility (1/GPa) = 0.08290256
#
# Stress axis : x y z
#
# Youngs Moduli (GPa) = 56.68867 56.68867 8.38587
#
# Poissons Ratio (x) = 0.36023 0.12352
# Poissons Ratio (y) = 0.36023 0.12352
# Poissons Ratio (z) = 0.83498 0.83498
#
# Static dielectric constant tensor:
#      x y z
#    x 1.460810 0.000000 0.000000 
#    y 0.000000 1.460810 0.000000 
#    z 0.000000 0.000000 1.505930 
# 
# From -- ./inp_files/4675.got.cif
#   From: 2010.05.17/outbox.cif.g08.bks.cpg/sg164_3_cif.got.tgz:4675.got - 2010.05.20 10:58:56.
