data_PCOD9578086
_publ_section_title
;
Structure prediction by ZEFSAII (Michael W. Deem and Ramdas Pophale) SiO2 
 PCOD9578086
Probable space group: P -3 1 C
;
_chemical_formula_sum "Si O2"
_cell_formula_units_Z 44
_cell_length_a 12.711507
_cell_length_b 12.711507
_cell_length_c 16.503960
_cell_angle_alpha 90.000000
_cell_angle_beta 90.000000
_cell_angle_gamma 120.000000
_cell_volume 2309.472929
_symmetry_space_group_name_H-M "P -3 1 C"
_symmetry_group_IT_number 163
_symmetry_cell_setting 'hexagonal'
loop_
_space_group_symop_operation_xyz
x,y,z
-y,x-y,z
-x+y,-x,z
-y,-x,1/2-z
-x+y,y,1/2-z
x,x-y,1/2-z
-x,-y,-z
y,-x+y,-z
x-y,x,-z
y,x,1/2+z
x-y,-y,1/2+z
-x,-x+y,1/2+z
loop_
_atom_site_type_symbol
_atom_site_label
_atom_site_fract_x
_atom_site_fract_y
_atom_site_fract_z
Si Si1 0.598590 0.745363 0.834491
Si Si2 0.666668 0.333334 0.918204
Si Si3 0.666667 0.333333 0.112437
Si Si4 0.094520 0.832347 0.983349
Si Si5 0.598548 0.533196 0.926445
O O1 0.633592 0.816796 0.750000
O O2 0.468977 0.730383 0.855783
O O3 0.692946 0.831843 0.900905
O O4 0.582629 0.612137 0.854765
O O5 0.607174 0.416729 0.896204
O O6 0.666668 0.333334 0.015971
O O7 0.102266 0.726167 0.030249
O O8 0.956415 0.793497 0.967007
O O9 0.500000 0.500000 0.000000
#
# Coordination Sequence:
#
# PCOD9578086 Si02
#       5
#    12   4   4  12  12
#     4  11  22  36  57  90 126 159 200 261 323 367
#     4  12  18  34  61  93 122 157 221 256 297 373
#     4  12  19  34  60  90 118 152 197 262 304 358
#     4  10  20  36  58  83 112 155 211 256 300 375
#     4  11  20  35  59  89 120 160 207 257 313 378
#
# _framework density 19.051967000000001
#
# number of rings (size 3 to 8) (size 9 to 14) (size 15 to 20)
#    0.000    1.091    5.455    2.727    0.000    0.000 
#    0.000    5.455    0.000    3.273    0.000    7.636 
#    0.000    0.000    0.000    0.000    0.000    0.000 
#
# Total GULP energy -245337.483192 kJ/mol
# GULP energy per Si atom -5575.851891 kJ/mol
# Density = 1.900860 g / cm^3
# Si number density = 19.051967 Si / 1000 Ang^3
#
#
#
# Elastic Constant Matrix: (Units=GPa)
#
#
# Indices 1 2 3 4 5 6 
#
# 1 112.7719 34.1190 17.5643 0.0024 -10.4602 -0.0009
# 2 34.1190 112.7716 17.5647 -0.0017 10.4605 0.0007
# 3 17.5643 17.5647 64.0375 -0.0005 -0.0003 0.0004
# 4 0.0024 -0.0017 -0.0005 14.7114 0.0052 10.4577
# 5 -10.4602 10.4605 -0.0003 0.0052 14.7054 -0.0025
# 6 -0.0009 0.0007 0.0004 10.4577 -0.0025 39.3273
#
#
#
# Elastic Compliance Matrix: (Units=1/GPa)
#
#
# Indices 1 2 3 4 5 6 
#
# 1 0.011483 -0.004198 -0.001998 -0.000009 0.011154 0.000003
# 2 -0.004198 0.011483 -0.001998 0.000008 -0.011155 -0.000003
# 3 -0.001998 -0.001998 0.016712 0.000001 0.000001 0.000000
# 4 -0.000009 0.000008 0.000001 0.083819 -0.000045 -0.022289
# 5 0.011154 -0.011155 0.000001 -0.000045 0.083871 0.000018
# 6 0.000003 -0.000003 0.000000 -0.022289 0.000018 0.031355
#
#
# Mechanical properties :
#
#
# Convention : Reuss Voigt Hill
#
# Bulk Modulus (GPa) = 42.93679 47.56411 45.25045
# Shear Modulus (GPa) = 19.02042 28.43768 23.72905
#
# Velocity S-wave (km/s) = 3.16309 3.86766 3.53298
# Velocity P-wave (km/s) = 5.99381 6.70557 6.35966
#
# Compressibility (1/GPa) = 0.02329005
#
# Stress axis : x y z
#
# Youngs Moduli (GPa) = 87.08307 87.08196 59.83696
#
# Poissons Ratio (x) = 0.36554 0.11957
# Poissons Ratio (y) = 0.36555 0.11958
# Poissons Ratio (z) = 0.17401 0.17403
#
# Static dielectric constant tensor:
#      x y z
#    x 1.821940 -0.000120 0.000000 
#    y -0.000120 1.821800 0.000000 
#    z 0.000000 0.000000 1.673710 
# 
# From -- ./inp_files/2940.got.cif
#   From: 2010.05.17/outbox.cif.g08.bks.cpg/sg163_2_cif.got.tgz:2940.got - 2010.05.20 10:56:03.
