data_PCOD9578504
_publ_section_title
;
Structure prediction by ZEFSAII (Michael W. Deem and Ramdas Pophale) SiO2 
 PCOD9578504
Probable space group: P -3 M 1
;
_chemical_formula_sum "Si O2"
_cell_formula_units_Z 66
_cell_length_a 21.349881
_cell_length_b 21.349881
_cell_length_c 10.235709
_cell_angle_alpha 90.000000
_cell_angle_beta 90.000000
_cell_angle_gamma 120.000000
_cell_volume 4040.540642
_symmetry_space_group_name_H-M "P -3 M 1"
_symmetry_group_IT_number 164
_symmetry_cell_setting 'hexagonal'
loop_
_space_group_symop_operation_xyz
x,y,z
-y,x-y,z
-x+y,-x,z
x-y,-y,-z
-x,-x+y,-z
y,x,-z
-x,-y,-z
y,-x+y,-z
x-y,x,-z
-x+y,y,z
x,x-y,z
-y,-x,z
loop_
_atom_site_type_symbol
_atom_site_label
_atom_site_fract_x
_atom_site_fract_y
_atom_site_fract_z
Si Si1 0.382495 0.044359 0.632709
Si Si2 0.282738 0.066897 0.814928
Si Si3 0.849046 0.000000 0.000000
Si Si4 0.333031 0.816319 0.279854
Si Si5 0.408358 0.449816 0.859837
Si Si6 0.860488 0.285029 0.980804
O O1 0.311775 0.044731 0.688958
O O2 0.451369 0.125772 0.628605
O O3 0.364756 0.000000 0.500000
O O4 0.404568 0.005285 0.743291
O O5 0.286110 0.143055 0.790029
O O6 0.345467 0.084224 0.922136
O O7 0.204668 0.013774 0.877187
O O8 0.927524 0.072477 0.014460
O O9 0.409119 0.818238 0.295223
O O10 0.263944 0.736056 0.296822
O O11 0.326324 0.842727 0.133537
O O12 0.469342 0.530659 0.831553
O O13 0.331520 0.440951 0.890492
O O14 0.428093 0.428093 0.000000
O O15 0.787659 0.212342 0.007598
#
# Coordination Sequence:
#
# PCOD9578504 Si02
#       6
#    12  12   6  12  12  12
#     4  11  22  35  52  76 108 139 177 222 266 311
#     4   9  17  32  52  74 103 138 171 212 262 310
#     4  10  19  32  54  84 115 144 176 216 264 320
#     4  10  19  33  53  77 104 135 172 214 262 317
#     4  11  19  30  51  75 101 133 172 214 262 320
#     4   9  17  30  50  75 102 130 169 216 262 313
#
# _framework density 16.334447999999998
#
# number of rings (size 3 to 8) (size 9 to 14) (size 15 to 20)
#    0.000    2.000    3.636    4.091    0.000    1.455 
#    0.000    3.636    0.000    0.364    0.000    0.000 
#    0.000    3.636    0.000    0.000    0.000    0.000 
#
# Total GULP energy -367758.699798 kJ/mol
# GULP energy per Si atom -5572.101512 kJ/mol
# Density = 1.629727 g / cm^3
# Si number density = 16.334448 Si / 1000 Ang^3
#
#
#
# Elastic Constant Matrix: (Units=GPa)
#
#
# Indices 1 2 3 4 5 6 
#
# 1 100.2540 53.6944 38.0270 -1.2461 0.0000 0.0000
# 2 53.6944 100.2540 38.0270 1.2461 0.0000 0.0000
# 3 38.0270 38.0270 58.0247 0.0000 0.0000 0.0000
# 4 -1.2461 1.2461 0.0000 12.6524 0.0000 0.0000
# 5 0.0000 0.0000 0.0000 0.0000 12.6524 -1.2461
# 6 0.0000 0.0000 0.0000 0.0000 -1.2461 23.2798
#
#
#
# Elastic Compliance Matrix: (Units=1/GPa)
#
#
# Indices 1 2 3 4 5 6 
#
# 1 0.015599 -0.005993 -0.006295 0.002127 0.000000 0.000000
# 2 -0.005993 0.015599 -0.006295 -0.002127 0.000000 0.000000
# 3 -0.006295 -0.006295 0.025485 0.000000 0.000000 0.000000
# 4 0.002127 -0.002127 0.000000 0.079455 0.000000 0.000000
# 5 0.000000 0.000000 0.000000 0.000000 0.079455 0.004253
# 6 0.000000 0.000000 0.000000 0.000000 0.004253 0.043183
#
#
# Mechanical properties :
#
#
# Convention : Reuss Voigt Hill
#
# Bulk Modulus (GPa) = 51.24026 57.55884 54.39955
# Shear Modulus (GPa) = 16.53177 18.30255 17.41716
#
# Velocity S-wave (km/s) = 3.18477 3.35100 3.26894
# Velocity P-wave (km/s) = 6.70531 7.09130 6.90100
#
# Compressibility (1/GPa) = 0.01951590
#
# Stress axis : x y z
#
# Youngs Moduli (GPa) = 64.10811 64.10811 39.23848
#
# Poissons Ratio (x) = 0.38420 0.24701
# Poissons Ratio (y) = 0.38420 0.24701
# Poissons Ratio (z) = 0.40357 0.40357
#
# Static dielectric constant tensor:
#      x y z
#    x 1.577060 0.000000 0.000000 
#    y 0.000000 1.577060 0.000000 
#    z 0.000000 0.000000 1.529200 
# 
# From -- ./inp_files/1705.got.cif
#   From: 2010.05.17/outbox.cif.g08.bks.cpg/sg164_1_cif.got.tgz:1705.got - 2010.05.20 10:58:56.
