data_PCOD9578280
_publ_section_title
;
Structure prediction by ZEFSAII (Michael W. Deem and Ramdas Pophale) SiO2 
 PCOD9578280
Probable space group: P -3 1 C
;
_chemical_formula_sum "Si O2"
_cell_formula_units_Z 46
_cell_length_a 16.911127
_cell_length_b 16.911127
_cell_length_c 8.959913
_cell_angle_alpha 90.000000
_cell_angle_beta 90.000000
_cell_angle_gamma 120.000000
_cell_volume 2219.113556
_symmetry_space_group_name_H-M "P -3 1 C"
_symmetry_group_IT_number 163
_symmetry_cell_setting 'hexagonal'
loop_
_space_group_symop_operation_xyz
x,y,z
-y,x-y,z
-x+y,-x,z
-y,-x,1/2-z
-x+y,y,1/2-z
x,x-y,1/2-z
-x,-y,-z
y,-x+y,-z
x-y,x,-z
y,x,1/2+z
x-y,-y,1/2+z
-x,-x+y,1/2+z
loop_
_atom_site_type_symbol
_atom_site_label
_atom_site_fract_x
_atom_site_fract_y
_atom_site_fract_z
Si Si1 0.889080 0.295759 0.790908
Si Si2 0.554519 0.151999 0.039558
Si Si3 0.935440 0.603504 0.047567
Si Si4 0.226936 0.453872 0.750000
Si Si5 0.666667 0.333335 0.926107
O O1 0.801220 0.198780 0.750000
O O2 0.933018 0.333049 0.630274
O O3 0.973158 0.309439 0.893390
O O4 0.861244 0.358594 0.888046
O O5 0.578760 0.074838 0.084037
O O6 0.510129 0.185137 0.166423
O O7 0.651369 0.239212 0.993248
O O8 0.849191 0.602641 0.125360
O O9 0.666668 0.333334 0.750000
#
# Coordination Sequence:
#
# PCOD9578280 Si02
#       5
#    12  12  12   6   4
#     4  12  25  47  67  98 133 181 245 303 357 425
#     4  12  23  40  59  95 134 185 245 296 347 403
#     4  12  26  42  69  91 137 184 239 295 367 418
#     4  12  24  40  60  98 134 182 240 298 344 412
#     4  12  21  34  59  85 132 184 230 295 348 394
#
# _framework density 20.728997
#
# number of rings (size 3 to 8) (size 9 to 14) (size 15 to 20)
#    0.000    0.000    5.217    6.261    0.000    2.087 
#    0.000    0.000    0.000    0.000    0.000    0.000 
#    1.304    2.087    0.000    0.000    0.000    0.000 
#
# Total GULP energy -256795.180168 kJ/mol
# GULP energy per Si atom -5582.503917 kJ/mol
# Density = 2.068182 g / cm^3
# Si number density = 20.728997 Si / 1000 Ang^3
#
#
#
# Elastic Constant Matrix: (Units=GPa)
#
#
# Indices 1 2 3 4 5 6 
#
# 1 77.5106 23.8020 21.6129 0.0001 -11.6180 0.0001
# 2 23.8020 77.5111 21.6130 0.0003 11.6182 0.0004
# 3 21.6129 21.6130 149.2916 0.0000 0.0000 0.0000
# 4 0.0001 0.0003 0.0000 37.6539 0.0003 11.6182
# 5 -11.6180 11.6182 0.0000 0.0003 37.6536 0.0002
# 6 0.0001 0.0004 0.0000 11.6182 0.0002 26.8545
#
#
#
# Elastic Compliance Matrix: (Units=1/GPa)
#
#
# Indices 1 2 3 4 5 6 
#
# 1 0.016004 -0.005483 -0.001523 0.000000 0.006630 0.000000
# 2 -0.005483 0.016004 -0.001523 0.000000 -0.006630 0.000000
# 3 -0.001523 -0.001523 0.007139 0.000000 0.000000 0.000000
# 4 0.000000 0.000000 0.000000 0.030649 0.000000 -0.013260
# 5 0.006630 -0.006630 0.000000 0.000000 0.030649 0.000000
# 6 0.000000 0.000000 0.000000 -0.013260 0.000000 0.042974
#
#
# Mechanical properties :
#
#
# Convention : Reuss Voigt Hill
#
# Bulk Modulus (GPa) = 45.27414 48.70768 46.99091
# Shear Modulus (GPa) = 29.79012 36.25144 33.02078
#
# Velocity S-wave (km/s) = 3.79505 4.18644 3.99554
# Velocity P-wave (km/s) = 6.41028 6.84958 6.63356
#
# Compressibility (1/GPa) = 0.02208767
#
# Stress axis : x y z
#
# Youngs Moduli (GPa) = 62.48530 62.48565 140.07029
#
# Poissons Ratio (x) = 0.34264 0.21333
# Poissons Ratio (y) = 0.34264 0.21333
# Poissons Ratio (z) = 0.09517 0.09517
#
# Static dielectric constant tensor:
#      x y z
#    x 1.852590 0.000000 0.000000 
#    y 0.000000 1.852590 0.000000 
#    z 0.000000 0.000000 1.822270 
# 
# From -- ./inp_files/935.got.cif
#   From: 2010.05.17/outbox.cif.g08.bks.cpg/sg163_1_cif.got.tgz:935.got - 2010.05.20 10:56:03.
