data_PCOD9578336
_publ_section_title
;
Structure prediction by ZEFSAII (Michael W. Deem and Ramdas Pophale) SiO2 
 PCOD9578336
Probable space group: P -3 M 1
;
_chemical_formula_sum "Si O2"
_cell_formula_units_Z 72
_cell_length_a 18.562938
_cell_length_b 18.562938
_cell_length_c 15.755505
_cell_angle_alpha 90.000000
_cell_angle_beta 90.000000
_cell_angle_gamma 120.000000
_cell_volume 4701.715947
_symmetry_space_group_name_H-M "P -3 M 1"
_symmetry_group_IT_number 164
_symmetry_cell_setting 'hexagonal'
loop_
_space_group_symop_operation_xyz
x,y,z
-y,x-y,z
-x+y,-x,z
x-y,-y,-z
-x,-x+y,-z
y,x,-z
-x,-y,-z
y,-x+y,-z
x-y,x,-z
-x+y,y,z
x,x-y,z
-y,-x,z
loop_
_atom_site_type_symbol
_atom_site_label
_atom_site_fract_x
_atom_site_fract_y
_atom_site_fract_z
Si Si1 0.999925 0.831723 0.903524
Si Si2 0.767528 0.067420 0.245547
Si Si3 0.333938 0.829727 0.573287
Si Si4 0.962441 0.762056 0.592336
Si Si5 0.429318 0.020928 0.297259
Si Si6 0.702222 0.137347 0.612305
O O1 0.024853 0.786694 0.833054
O O2 0.910918 0.821836 0.885261
O O3 0.071253 0.928748 0.901911
O O4 0.000000 0.802614 0.000000
O O5 0.835341 0.164660 0.244320
O O6 0.672797 0.046901 0.241242
O O7 0.780686 0.028424 0.332821
O O8 0.399640 0.799281 0.590939
O O9 0.240954 0.759047 0.598137
O O10 0.368984 0.916842 0.621953
O O11 0.332417 0.844924 0.473268
O O12 0.894074 0.788147 0.615901
O O13 0.912440 0.661827 0.585042
O O14 0.000000 0.797232 0.500000
O O15 0.516278 0.032555 0.263992
O O16 0.370689 0.925789 0.326647
O O17 0.774247 0.225754 0.648487
#
# Coordination Sequence:
#
# PCOD9578336 Si02
#       6
#    12  12  12  12  12  12
#     4   9  17  30  50  76 103 127 150 179 217 259
#     4  10  19  31  47  66  90 120 154 190 226 265
#     4  10  18  27  39  56  80 110 147 190 232 269
#     4  10  18  27  40  59  86 122 162 195 220 253
#     4  10  19  30  44  61  83 112 146 183 224 271
#     4   9  17  27  40  58  78 105 145 192 236 274
#
# _framework density 15.313556999999999
#
# number of rings (size 3 to 8) (size 9 to 14) (size 15 to 20)
#    0.000    2.333    0.000    4.833    0.000    4.000 
#    0.000    0.000    0.000    5.167    0.000    0.000 
#    0.000    0.000    0.000    0.333    0.000    0.000 
#
# Total GULP energy -401184.878208 kJ/mol
# GULP energy per Si atom -5572.012197 kJ/mol
# Density = 1.527870 g / cm^3
# Si number density = 15.313557 Si / 1000 Ang^3
#
#
#
# Elastic Constant Matrix: (Units=GPa)
#
#
# Indices 1 2 3 4 5 6 
#
# 1 75.9891 40.2390 29.6609 -2.9492 0.0000 0.0000
# 2 40.2390 75.9891 29.6609 2.9492 0.0000 0.0000
# 3 29.6609 29.6609 55.5598 0.0000 0.0000 0.0000
# 4 -2.9492 2.9492 0.0000 12.7536 0.0000 0.0000
# 5 0.0000 0.0000 0.0000 0.0000 12.7536 -2.9492
# 6 0.0000 0.0000 0.0000 0.0000 -2.9492 17.8751
#
#
#
# Elastic Compliance Matrix: (Units=1/GPa)
#
#
# Indices 1 2 3 4 5 6 
#
# 1 0.020454 -0.008628 -0.006313 0.006725 0.000000 0.000000
# 2 -0.008628 0.020454 -0.006313 -0.006725 0.000000 0.000000
# 3 -0.006313 -0.006313 0.024740 0.000000 0.000000 0.000000
# 4 0.006725 -0.006725 0.000000 0.081519 0.000000 0.000000
# 5 0.000000 0.000000 0.000000 0.000000 0.081519 0.013450
# 6 0.000000 0.000000 0.000000 0.000000 0.013450 0.058163
#
#
# Mechanical properties :
#
#
# Convention : Reuss Voigt Hill
#
# Bulk Modulus (GPa) = 43.21891 45.18440 44.20166
# Shear Modulus (GPa) = 14.83369 15.87495 15.35432
#
# Velocity S-wave (km/s) = 3.11571 3.22321 3.16992
# Velocity P-wave (km/s) = 6.42086 6.58956 6.50576
#
# Compressibility (1/GPa) = 0.02313802
#
# Stress axis : x y z
#
# Youngs Moduli (GPa) = 48.89070 48.89070 40.42116
#
# Poissons Ratio (x) = 0.42181 0.25520
# Poissons Ratio (y) = 0.42181 0.25520
# Poissons Ratio (z) = 0.30867 0.30867
#
# Static dielectric constant tensor:
#      x y z
#    x 1.529310 0.000000 0.000000 
#    y 0.000000 1.529310 0.000000 
#    z 0.000000 0.000000 1.477180 
# 
# From -- ./inp_files/4065.got.cif
#   From: 2010.05.17/outbox.cif.g08.bks.cpg/sg164_3_cif.got.tgz:4065.got - 2010.05.20 10:58:56.
