data_PCOD9578126
_publ_section_title
;
Structure prediction by ZEFSAII (Michael W. Deem and Ramdas Pophale) SiO2 
 PCOD9578126
Probable space group: P -3 1 C
;
_chemical_formula_sum "Si O2"
_cell_formula_units_Z 70
_cell_length_a 15.153654
_cell_length_b 15.153654
_cell_length_c 16.731737
_cell_angle_alpha 90.000000
_cell_angle_beta 90.000000
_cell_angle_gamma 120.000000
_cell_volume 3327.410593
_symmetry_space_group_name_H-M "P -3 1 C"
_symmetry_group_IT_number 163
_symmetry_cell_setting 'hexagonal'
loop_
_space_group_symop_operation_xyz
x,y,z
-y,x-y,z
-x+y,-x,z
-y,-x,1/2-z
-x+y,y,1/2-z
x,x-y,1/2-z
-x,-y,-z
y,-x+y,-z
x-y,x,-z
y,x,1/2+z
x-y,-y,1/2+z
-x,-x+y,1/2+z
loop_
_atom_site_type_symbol
_atom_site_label
_atom_site_fract_x
_atom_site_fract_y
_atom_site_fract_z
Si Si1 0.721532 0.995950 0.558047
Si Si2 0.853470 0.532522 0.964517
Si Si3 0.269925 0.351057 0.297438
Si Si4 0.000000 0.000000 0.095999
Si Si5 0.655292 0.158530 0.587122
Si Si6 0.217294 0.058866 0.113055
Si Si7 0.561961 0.438040 0.750000
O O1 0.610017 0.906571 0.534615
O O2 0.762751 0.936686 0.612076
O O3 0.702001 0.083619 0.592315
O O4 0.789624 0.038497 0.476244
O O5 0.877622 0.601055 0.884844
O O6 0.892873 0.453517 0.955711
O O7 0.732303 0.477282 0.964400
O O8 0.171708 0.343415 0.250000
O O9 0.263476 0.244344 0.318604
O O10 0.378670 0.440358 0.264262
O O11 0.894564 0.904061 0.121791
O O12 0.000000 0.000000 0.000000
O O13 0.625696 0.186716 0.672673
#
# Coordination Sequence:
#
# PCOD9578126 Si02
#       7
#    12  12  12   4  12  12   6
#     4  11  20  38  58  93 122 158 207 256 318 373
#     4  10  21  35  59  88 120 154 197 261 312 370
#     4  10  21  39  59  87 122 162 209 256 309 382
#     4  12  21  36  58  89 127 174 198 247 314 400
#     4  11  21  36  60  87 122 160 202 256 314 384
#     4  11  22  36  64  91 126 166 208 257 320 382
#     4  10  22  40  58  84 118 166 204 252 314 376
#
# _framework density 21.037379999999999
#
# number of rings (size 3 to 8) (size 9 to 14) (size 15 to 20)
#    0.000    1.371    5.143    0.857    2.400    0.000 
#    0.514    3.429    0.000    0.000    0.000    0.000 
#    0.000    0.000    0.000    0.000    0.000    0.000 
#
# Total GULP energy -389950.503721 kJ/mol
# GULP energy per Si atom -5570.721482 kJ/mol
# Density = 2.098950 g / cm^3
# Si number density = 21.037380 Si / 1000 Ang^3
#
#
#
# Elastic Constant Matrix: (Units=GPa)
#
#
# Indices 1 2 3 4 5 6 
#
# 1 124.9922 63.5812 26.6296 0.0001 -0.6503 0.0000
# 2 63.5812 124.9922 26.6296 -0.0001 0.6503 0.0000
# 3 26.6296 26.6296 33.9859 0.0000 0.0000 0.0000
# 4 0.0001 -0.0001 0.0000 23.0897 0.0000 0.6503
# 5 -0.6503 0.6503 0.0000 0.0000 23.0897 0.0001
# 6 0.0000 0.0000 0.0000 0.6503 0.0001 30.7055
#
#
#
# Elastic Compliance Matrix: (Units=1/GPa)
#
#
# Indices 1 2 3 4 5 6 
#
# 1 0.011552 -0.004742 -0.005336 0.000000 0.000459 0.000000
# 2 -0.004742 0.011552 -0.005336 0.000000 -0.000459 0.000000
# 3 -0.005336 -0.005336 0.037786 0.000000 0.000000 0.000000
# 4 0.000000 0.000000 0.000000 0.043335 0.000000 -0.000918
# 5 0.000459 -0.000459 0.000000 0.000000 0.043335 0.000000
# 6 0.000000 0.000000 0.000000 -0.000918 0.000000 0.032587
#
#
# Mechanical properties :
#
#
# Convention : Reuss Voigt Hill
#
# Bulk Modulus (GPa) = 33.26453 57.51679 45.39066
# Shear Modulus (GPa) = 22.62497 26.51897 24.57197
#
# Velocity S-wave (km/s) = 3.28299 3.55429 3.42133
# Velocity P-wave (km/s) = 5.49701 6.65159 6.10167
#
# Compressibility (1/GPa) = 0.03006205
#
# Stress axis : x y z
#
# Youngs Moduli (GPa) = 86.56706 86.56706 26.46488
#
# Poissons Ratio (x) = 0.41048 0.14122
# Poissons Ratio (y) = 0.41048 0.14122
# Poissons Ratio (z) = 0.46192 0.46192
#
# Static dielectric constant tensor:
#      x y z
#    x 1.803400 0.000000 0.000000 
#    y 0.000000 1.803400 0.000000 
#    z 0.000000 0.000000 1.817160 
# 
# From -- ./inp_files/3177.got.cif
#   From: 2010.05.17/outbox.cif.g08.bks.cpg/sg163_2_cif.got.tgz:3177.got - 2010.05.20 10:56:03.
