data_PCOD9578160
_publ_section_title
;
Structure prediction by ZEFSAII (Michael W. Deem and Ramdas Pophale) SiO2 
 PCOD9578160
Probable space group: P -3 1 C
;
_chemical_formula_sum "Si O2"
_cell_formula_units_Z 42
_cell_length_a 9.768213
_cell_length_b 9.768213
_cell_length_c 20.611413
_cell_angle_alpha 90.000000
_cell_angle_beta 90.000000
_cell_angle_gamma 120.000000
_cell_volume 1703.211729
_symmetry_space_group_name_H-M "P -3 1 C"
_symmetry_group_IT_number 163
_symmetry_cell_setting 'hexagonal'
loop_
_space_group_symop_operation_xyz
x,y,z
-y,x-y,z
-x+y,-x,z
-y,-x,1/2-z
-x+y,y,1/2-z
x,x-y,1/2-z
-x,-y,-z
y,-x+y,-z
x-y,x,-z
y,x,1/2+z
x-y,-y,1/2+z
-x,-x+y,1/2+z
loop_
_atom_site_type_symbol
_atom_site_label
_atom_site_fract_x
_atom_site_fract_y
_atom_site_fract_z
Si Si1 0.368105 0.260706 0.000000
Si Si2 1.000000 0.500000 0.750000
Si Si3 0.101584 0.365952 0.139909
Si Si4 0.735632 0.634048 0.360091
O O1 0.450727 0.321195 0.930458
O O2 0.224649 0.297313 1.000000
O O3 0.450727 0.321195 0.069542
O O4 0.108599 0.640653 0.700975
O O5 0.891400 0.532053 0.799025
O O6 0.221096 0.299404 0.143046
O O7 0.921692 0.221096 0.143046
#
# Coordination Sequence:
#
# PCOD9578160 Si02
#       4
#    12   6  12  12
#     4   8  15  31  62  92 118 140 189 251 308 352
#     4  12  24  34  50  88 124 166 192 228 288 350
#     4  10  21  41  65  93 117 154 198 252 303 356
#     4  10  21  41  65  93 117 154 198 252 303 356
#
# _framework density 24.659298
#
# number of rings (size 3 to 8) (size 9 to 14) (size 15 to 20)
#    0.000    2.286    0.000    2.571    0.000    5.714 
#   13.714    2.857    0.000    0.000    0.000    0.000 
#    0.000    0.000    0.000    0.000    0.000    0.000 
#
# Total GULP energy -234846.178150 kJ/mol
# GULP energy per Si atom -5591.575670 kJ/mol
# Density = 2.460317 g / cm^3
# Si number density = 24.659298 Si / 1000 Ang^3
#
#
#
# Elastic Constant Matrix: (Units=GPa)
#
#
# Indices 1 2 3 4 5 6 
#
# 1 74.4139 24.0244 60.0033 0.0001 -0.0001 0.0000
# 2 24.0244 74.4139 60.0033 -0.0001 0.0001 0.0000
# 3 60.0033 60.0033 305.1207 0.0000 0.0000 0.0000
# 4 0.0001 -0.0001 0.0000 29.9901 0.0000 0.0001
# 5 -0.0001 0.0001 0.0000 0.0000 29.9901 0.0001
# 6 0.0000 0.0000 0.0000 0.0001 0.0001 25.1947
#
#
#
# Elastic Compliance Matrix: (Units=1/GPa)
#
#
# Indices 1 2 3 4 5 6 
#
# 1 0.016604 -0.003242 -0.002628 0.000000 0.000000 0.000000
# 2 -0.003242 0.016604 -0.002628 0.000000 0.000000 0.000000
# 3 -0.002628 -0.002628 0.004311 0.000000 0.000000 0.000000
# 4 0.000000 0.000000 0.000000 0.033344 0.000000 0.000000
# 5 0.000000 0.000000 0.000000 0.000000 0.033344 0.000000
# 6 0.000000 0.000000 0.000000 0.000000 0.000000 0.039691
#
#
# Mechanical properties :
#
#
# Convention : Reuss Voigt Hill
#
# Bulk Modulus (GPa) = 48.72283 82.44561 65.58422
# Shear Modulus (GPa) = 29.80917 37.69613 33.75265
#
# Velocity S-wave (km/s) = 3.48061 3.91407 3.70369
# Velocity P-wave (km/s) = 5.99618 7.34392 6.70400
#
# Compressibility (1/GPa) = 0.02052426
#
# Stress axis : x y z
#
# Youngs Moduli (GPa) = 60.22730 60.22730 231.97031
#
# Poissons Ratio (x) = 0.19524 0.60955
# Poissons Ratio (y) = 0.19524 0.60955
# Poissons Ratio (z) = 0.15826 0.15826
#
# Static dielectric constant tensor:
#      x y z
#    x 1.938850 0.000000 0.000000 
#    y 0.000000 1.938850 0.000000 
#    z 0.000000 0.000000 2.022950 
# 
# From -- ./inp_files/3397.got.cif
#   From: 2010.05.17/outbox.cif.g08.bks.cpg/sg163_2_cif.got.tgz:3397.got - 2010.05.20 10:56:03.
