data_PCOD9578472
_publ_section_title
;
Structure prediction by ZEFSAII (Michael W. Deem and Ramdas Pophale) SiO2 
 PCOD9578472
Probable space group: P -3 M 1
;
_chemical_formula_sum "Si O2"
_cell_formula_units_Z 78
_cell_length_a 17.374737
_cell_length_b 17.374737
_cell_length_c 18.193539
_cell_angle_alpha 90.000000
_cell_angle_beta 90.000000
_cell_angle_gamma 120.000000
_cell_volume 4756.464904
_symmetry_space_group_name_H-M "P -3 M 1"
_symmetry_group_IT_number 164
_symmetry_cell_setting 'hexagonal'
loop_
_space_group_symop_operation_xyz
x,y,z
-y,x-y,z
-x+y,-x,z
x-y,-y,-z
-x,-x+y,-z
y,x,-z
-x,-y,-z
y,-x+y,-z
x-y,x,-z
-x+y,y,z
x,x-y,z
-y,-x,z
loop_
_atom_site_type_symbol
_atom_site_label
_atom_site_fract_x
_atom_site_fract_y
_atom_site_fract_z
Si Si1 0.334429 0.486845 0.954854
Si Si2 0.249207 0.930915 0.565883
Si Si3 0.766167 0.053201 0.845277
Si Si4 0.393936 0.432116 0.808217
Si Si5 0.298510 0.000000 0.000000
Si Si6 0.179207 0.179287 0.302881
Si Si7 0.333928 0.485268 0.660612
O O1 0.251602 0.503204 0.957457
O O2 0.425951 0.574050 0.978531
O O3 0.350780 0.463304 0.872229
O O4 0.311500 0.397388 0.998647
O O5 0.154421 0.845580 0.545352
O O6 0.312994 0.894255 0.592745
O O7 0.288208 0.000000 0.500000
O O8 0.230911 0.974871 0.637277
O O9 0.845161 0.154840 0.849059
O O10 0.753298 0.007555 0.925031
O O11 0.789984 0.007361 0.779085
O O12 0.668560 0.035802 0.824503
O O13 0.498657 0.501344 0.810224
O O14 0.356315 0.444091 0.731310
O O15 0.094070 0.188139 0.321259
O O16 0.155667 0.077834 0.304985
O O17 0.244805 0.489609 0.674978
O O18 0.417654 0.582347 0.648135
#
# Coordination Sequence:
#
# PCOD9578472 Si02
#       7
#    12  12  12  12   6  12  12
#     4  10  19  31  49  72 100 131 167 211 260 310
#     4  10  20  34  53  77 105 135 168 209 253 304
#     4  10  20  34  52  74  99 133 175 214 253 300
#     4   9  18  32  51  75 103 132 165 210 263 313
#     4  10  21  34  48  70 101 138 172 212 253 300
#     4  10  20  34  53  75 101 131 167 211 259 309
#     4  10  19  32  51  77 107 138 169 206 253 306
#
# _framework density 16.398734000000001
#
# number of rings (size 3 to 8) (size 9 to 14) (size 15 to 20)
#    0.000    2.154    1.538    2.077    0.000    4.000 
#    0.000    1.538    0.000    2.769    0.000    2.692 
#    0.000    0.000    0.000    0.000    0.000    0.000 
#
# Total GULP energy -434929.889461 kJ/mol
# GULP energy per Si atom -5576.024224 kJ/mol
# Density = 1.636141 g / cm^3
# Si number density = 16.398734 Si / 1000 Ang^3
#
#
#
# Elastic Constant Matrix: (Units=GPa)
#
#
# Indices 1 2 3 4 5 6 
#
# 1 63.5703 24.2388 19.5170 -2.7075 0.0000 0.0000
# 2 24.2388 63.5703 19.5170 2.7075 0.0000 0.0000
# 3 19.5170 19.5170 69.3350 0.0000 0.0000 0.0000
# 4 -2.7075 2.7075 0.0000 20.9806 0.0000 0.0000
# 5 0.0000 0.0000 0.0000 0.0000 20.9806 -2.7075
# 6 0.0000 0.0000 0.0000 0.0000 -2.7075 19.6658
#
#
#
# Elastic Compliance Matrix: (Units=1/GPa)
#
#
# Indices 1 2 3 4 5 6 
#
# 1 0.019451 -0.006434 -0.003664 0.003340 0.000000 0.000000
# 2 -0.006434 0.019451 -0.003664 -0.003340 0.000000 0.000000
# 3 -0.003664 -0.003664 0.016486 0.000000 0.000000 0.000000
# 4 0.003340 -0.003340 0.000000 0.048525 0.000000 0.000000
# 5 0.000000 0.000000 0.000000 0.000000 0.048525 0.006681
# 6 0.000000 0.000000 0.000000 0.000000 0.006681 0.051770
#
#
# Mechanical properties :
#
#
# Convention : Reuss Voigt Hill
#
# Bulk Modulus (GPa) = 35.88964 35.89126 35.89045
# Shear Modulus (GPa) = 20.74519 21.20558 20.97538
#
# Velocity S-wave (km/s) = 3.56061 3.59990 3.58031
# Velocity P-wave (km/s) = 6.23194 6.26204 6.24701
#
# Compressibility (1/GPa) = 0.02786320
#
# Stress axis : x y z
#
# Youngs Moduli (GPa) = 51.41129 51.41129 60.65908
#
# Poissons Ratio (x) = 0.33077 0.22227
# Poissons Ratio (y) = 0.33077 0.22227
# Poissons Ratio (z) = 0.18838 0.18838
#
# Static dielectric constant tensor:
#      x y z
#    x 1.540180 0.000000 0.000000 
#    y 0.000000 1.540180 0.000000 
#    z 0.000000 0.000000 1.550660 
# 
# From -- ./inp_files/4168.got.cif
#   From: 2010.05.17/outbox.cif.g08.bks.cpg/sg164_3_cif.got.tgz:4168.got - 2010.05.20 10:58:56.
