data_PCOD9578963
_publ_section_title
;
Structure prediction by ZEFSAII (Michael W. Deem and Ramdas Pophale) SiO2 
 PCOD9578963
Probable space group: P -3 C 1
;
_chemical_formula_sum "Si O2"
_cell_formula_units_Z 72
_cell_length_a 24.060161
_cell_length_b 24.060161
_cell_length_c 8.609879
_cell_angle_alpha 90.000000
_cell_angle_beta 90.000000
_cell_angle_gamma 120.000000
_cell_volume 4316.430355
_symmetry_space_group_name_H-M "P -3 C 1"
_symmetry_group_IT_number 165
_symmetry_cell_setting 'hexagonal'
loop_
_space_group_symop_operation_xyz
x,y,z
-y,x-y,z
-x+y,-x,z
x-y,-y,1/2-z
-x,-x+y,1/2-z
y,x,1/2-z
-x,-y,-z
y,-x+y,-z
x-y,x,-z
-x+y,y,1/2+z
x,x-y,1/2+z
-y,-x,1/2+z
loop_
_atom_site_type_symbol
_atom_site_label
_atom_site_fract_x
_atom_site_fract_y
_atom_site_fract_z
Si Si1 0.273323 0.409555 0.546882
Si Si2 0.075797 0.808947 0.926792
Si Si3 0.734150 0.933641 0.553275
Si Si4 0.459033 0.788939 0.063335
Si Si5 0.456391 0.794810 0.433432
Si Si6 0.851541 0.261161 0.082204
O O1 0.258869 0.337491 0.516430
O O2 0.332062 0.475916 0.485585
O O3 0.212838 0.408768 0.464143
O O4 0.270046 0.416178 0.732624
O O5 0.072940 0.809222 0.739666
O O6 0.092943 0.753525 0.967779
O O7 0.005474 0.787730 0.990728
O O8 0.134189 0.876841 0.981379
O O9 0.402756 0.797761 0.991700
O O10 0.452200 0.721527 0.006802
O O11 0.528328 0.844324 0.003170
O O12 0.455866 0.788674 0.248502
#
# Coordination Sequence:
#
# PCOD9578963 Si02
#       6
#    12  12  12  12  12  12
#     4   9  16  28  45  65  90 120 154 192 234 277
#     4   9  18  32  51  76 103 128 155 189 228 270
#     4   9  18  32  51  76 103 128 155 189 228 270
#     4  11  20  30  43  62  89 120 157 199 244 290
#     4  11  20  30  43  62  89 120 157 199 244 290
#     4   9  16  28  45  65  90 120 154 192 234 277
#
# _framework density 16.680448999999999
#
# number of rings (size 3 to 8) (size 9 to 14) (size 15 to 20)
#    0.000    2.333    0.000    6.333    0.000    2.000 
#    0.000    0.000    0.000    1.333    0.000    0.000 
#    0.000    0.000    0.000    0.000    0.000    0.000 
#
# Total GULP energy -401013.060404 kJ/mol
# GULP energy per Si atom -5569.625839 kJ/mol
# Density = 1.664248 g / cm^3
# Si number density = 16.680449 Si / 1000 Ang^3
#
#
#
# Elastic Constant Matrix: (Units=GPa)
#
#
# Indices 1 2 3 4 5 6 
#
# 1 84.5744 39.1860 7.5130 -0.2165 0.0000 0.0000
# 2 39.1860 84.5744 7.5130 0.2165 0.0000 0.0000
# 3 7.5130 7.5130 49.7511 0.0000 0.0000 0.0000
# 4 -0.2165 0.2165 0.0000 19.4064 0.0000 0.0000
# 5 0.0000 0.0000 0.0000 0.0000 19.4064 -0.2165
# 6 0.0000 0.0000 0.0000 0.0000 -0.2165 22.6942
#
#
#
# Elastic Compliance Matrix: (Units=1/GPa)
#
#
# Indices 1 2 3 4 5 6 
#
# 1 0.015133 -0.006902 -0.001243 0.000246 0.000000 0.000000
# 2 -0.006902 0.015133 -0.001243 -0.000246 0.000000 0.000000
# 3 -0.001243 -0.001243 0.020475 0.000000 0.000000 0.000000
# 4 0.000246 -0.000246 0.000000 0.051535 0.000000 0.000000
# 5 0.000000 0.000000 0.000000 0.000000 0.051535 0.000492
# 6 0.000000 0.000000 0.000000 0.000000 0.000492 0.044069
#
#
# Mechanical properties :
#
#
# Convention : Reuss Voigt Hill
#
# Bulk Modulus (GPa) = 31.28358 36.36930 33.82644
# Shear Modulus (GPa) = 21.99639 23.28060 22.63850
#
# Velocity S-wave (km/s) = 3.63532 3.73994 3.68800
# Velocity P-wave (km/s) = 6.03458 6.36399 6.20147
#
# Compressibility (1/GPa) = 0.03196565
#
# Stress axis : x y z
#
# Youngs Moduli (GPa) = 66.08197 66.08197 48.83890
#
# Poissons Ratio (x) = 0.45608 0.06071
# Poissons Ratio (y) = 0.45608 0.06071
# Poissons Ratio (z) = 0.08214 0.08214
#
# Static dielectric constant tensor:
#      x y z
#    x 1.563060 0.000000 0.000000 
#    y 0.000000 1.563060 0.000000 
#    z 0.000000 0.000000 1.562250 
# 
# From -- ./inp_files/774.got.cif
#   From: 2010.05.17/outbox.cif.g08.bks.cpg/sg165_1_cif.got.tgz:774.got - 2010.05.20 11:02:39.
