data_PCOD9578016
_publ_section_title
;
Structure prediction by ZEFSAII (Michael W. Deem and Ramdas Pophale) SiO2 
 PCOD9578016
Probable space group: P -3 1 C
;
_chemical_formula_sum "Si O2"
_cell_formula_units_Z 64
_cell_length_a 15.237772
_cell_length_b 15.237772
_cell_length_c 20.299781
_cell_angle_alpha 90.000000
_cell_angle_beta 90.000000
_cell_angle_gamma 120.000000
_cell_volume 4081.924112
_symmetry_space_group_name_H-M "P -3 1 C"
_symmetry_group_IT_number 163
_symmetry_cell_setting 'hexagonal'
loop_
_space_group_symop_operation_xyz
x,y,z
-y,x-y,z
-x+y,-x,z
-y,-x,1/2-z
-x+y,y,1/2-z
x,x-y,1/2-z
-x,-y,-z
y,-x+y,-z
x-y,x,-z
y,x,1/2+z
x-y,-y,1/2+z
-x,-x+y,1/2+z
loop_
_atom_site_type_symbol
_atom_site_label
_atom_site_fract_x
_atom_site_fract_y
_atom_site_fract_z
Si Si1 0.333334 0.666667 0.329150
Si Si2 0.550857 0.096999 0.669809
Si Si3 0.986299 0.784858 0.490655
Si Si4 0.199324 0.998828 0.260231
Si Si5 0.657220 0.934009 0.364649
Si Si6 0.655741 0.729636 0.381832
O O1 0.333334 0.666667 0.250000
O O2 0.391203 0.783776 0.348255
O O3 0.543963 0.087926 0.750000
O O4 0.439370 0.050930 0.638985
O O5 0.621335 0.055810 0.640907
O O6 0.007214 0.746655 0.421570
O O7 0.889768 0.801711 0.490704
O O8 0.962898 0.699913 0.545801
O O9 0.080407 0.919594 0.250000
O O10 0.253917 0.966536 0.205626
O O11 0.232958 0.981943 0.331291
O O12 0.222462 0.111231 0.250000
O O13 0.622465 0.815197 0.374381
#
# Coordination Sequence:
#
# PCOD9578016 Si02
#       6
#     4  12  12  12  12  12
#     4   9  18  24  51  75 105 138 150 202 278 325
#     4  11  18  31  51  79 107 131 164 210 268 312
#     4  10  21  37  54  74 106 144 178 213 257 308
#     4  10  19  31  48  72 102 134 172 219 263 302
#     4  10  20  32  50  76 103 133 173 213 252 310
#     4  10  20  32  50  76 103 133 173 213 252 310
#
# _framework density 15.678881000000001
#
# number of rings (size 3 to 8) (size 9 to 14) (size 15 to 20)
#    0.000    1.875    3.750    1.500    0.000    0.750 
#    0.000    3.750    0.000    0.000    0.000    0.000 
#   26.250    0.000    0.000    0.000    0.000    0.000 
#
# Total GULP energy -356835.486249 kJ/mol
# GULP energy per Si atom -5575.554473 kJ/mol
# Density = 1.564320 g / cm^3
# Si number density = 15.678881 Si / 1000 Ang^3
#
#
#
# Elastic Constant Matrix: (Units=GPa)
#
#
# Indices 1 2 3 4 5 6 
#
# 1 55.7157 11.2099 -5.3333 0.0000 -2.3211 -0.0002
# 2 11.2099 55.7156 -5.3334 0.0000 2.3211 0.0000
# 3 -5.3333 -5.3334 38.1498 0.0001 0.0000 0.0000
# 4 0.0000 0.0000 0.0001 13.9295 0.0000 2.3211
# 5 -2.3211 2.3211 0.0000 0.0000 13.9295 0.0000
# 6 -0.0002 0.0000 0.0000 2.3211 0.0000 22.2529
#
#
#
# Elastic Compliance Matrix: (Units=1/GPa)
#
#
# Indices 1 2 3 4 5 6 
#
# 1 0.019074 -0.003792 0.002136 0.000000 0.003810 0.000000
# 2 -0.003792 0.019075 0.002137 0.000000 -0.003810 0.000000
# 3 0.002136 0.002137 0.026810 0.000000 0.000000 0.000000
# 4 0.000000 0.000000 0.000000 0.073060 0.000000 -0.007621
# 5 0.003810 -0.003810 0.000000 0.000000 0.073060 0.000000
# 6 0.000000 0.000000 0.000000 -0.007621 0.000000 0.045733
#
#
# Mechanical properties :
#
#
# Convention : Reuss Voigt Hill
#
# Bulk Modulus (GPa) = 15.16971 16.74082 15.95526
# Shear Modulus (GPa) = 17.99706 19.95823 18.97764
#
# Velocity S-wave (km/s) = 3.39167 3.57169 3.48285
# Velocity P-wave (km/s) = 5.00342 5.26401 5.13537
#
# Compressibility (1/GPa) = 0.06592086
#
# Stress axis : x y z
#
# Youngs Moduli (GPa) = 52.42618 52.42598 37.29975
#
# Poissons Ratio (x) = 0.19880 -0.07969
# Poissons Ratio (y) = 0.19880 -0.07969
# Poissons Ratio (z) = -0.11201 -0.11201
#
# Static dielectric constant tensor:
#      x y z
#    x 1.514390 0.000000 0.000000 
#    y 0.000000 1.514390 0.000000 
#    z 0.000000 0.000000 1.506130 
# 
# From -- ./inp_files/3073.got.cif
#   From: 2010.05.17/outbox.cif.g08.bks.cpg/sg163_2_cif.got.tgz:3073.got - 2010.05.20 10:56:03.
