data_PCOD9578490
_publ_section_title
;
Structure prediction by ZEFSAII (Michael W. Deem and Ramdas Pophale) SiO2 
 PCOD9578490
Probable space group: P -3 M 1
;
_chemical_formula_sum "Si O2"
_cell_formula_units_Z 84
_cell_length_a 18.376517
_cell_length_b 18.376517
_cell_length_c 15.207847
_cell_angle_alpha 90.000000
_cell_angle_beta 90.000000
_cell_angle_gamma 120.000000
_cell_volume 4447.590231
_symmetry_space_group_name_H-M "P -3 M 1"
_symmetry_group_IT_number 164
_symmetry_cell_setting 'hexagonal'
loop_
_space_group_symop_operation_xyz
x,y,z
-y,x-y,z
-x+y,-x,z
x-y,-y,-z
-x,-x+y,-z
y,x,-z
-x,-y,-z
y,-x+y,-z
x-y,x,-z
-x+y,y,z
x,x-y,z
-y,-x,z
loop_
_atom_site_type_symbol
_atom_site_label
_atom_site_fract_x
_atom_site_fract_y
_atom_site_fract_z
Si Si1 0.503435 0.330901 0.831081
Si Si2 0.173875 0.507562 0.527292
Si Si3 0.834122 0.001235 0.395186
Si Si4 0.095513 0.459564 0.986978
Si Si5 0.060051 0.354753 0.643770
Si Si6 0.331432 0.838914 0.792735
Si Si7 0.578649 0.709130 0.355088
O O1 0.545014 0.272507 0.826751
O O2 0.572245 0.427756 0.823665
O O3 0.444166 0.306404 0.747136
O O4 0.460178 0.316070 0.925620
O O5 0.269603 0.539205 0.553173
O O6 0.145601 0.572801 0.558408
O O7 0.119520 0.413990 0.565984
O O8 0.167276 0.499061 0.422042
O O9 0.932437 0.067564 0.382613
O O10 0.783192 0.042722 0.350552
O O11 0.816666 0.000000 0.500000
O O12 0.815522 0.907761 0.369677
O O13 0.096054 0.548027 0.987797
O O14 0.134595 0.460283 0.892932
O O15 0.000000 0.387272 0.000000
O O16 0.101421 0.415884 0.727759
O O17 0.966610 0.334785 0.624558
O O18 0.423480 0.846959 0.780610
O O19 0.256685 0.743316 0.778409
O O20 0.618355 0.809178 0.370678
#
# Coordination Sequence:
#
# PCOD9578490 Si02
#       7
#    12  12  12  12  12  12  12
#     4  10  19  32  51  74 100 129 166 213 267 325
#     4  11  23  38  55  76 106 145 189 233 274 318
#     4  10  20  36  59  85 112 141 176 222 279 343
#     4   9  18  33  53  76 101 131 171 222 277 329
#     4  12  23  36  55  78 109 146 187 229 269 317
#     4  11  23  38  56  79 111 152 197 240 280 324
#     4  10  22  37  54  78 106 138 175 220 277 336
#
# _framework density 18.886631000000001
#
# number of rings (size 3 to 8) (size 9 to 14) (size 15 to 20)
#    0.000    1.571    0.000    5.714    0.000    6.857 
#    0.000    4.286    0.000    0.000    0.000    0.000 
#    0.000    0.000    0.000    0.000    0.000   26.286 
#
# Total GULP energy -468175.508841 kJ/mol
# GULP energy per Si atom -5573.517962 kJ/mol
# Density = 1.884364 g / cm^3
# Si number density = 18.886631 Si / 1000 Ang^3
#
#
#
# Elastic Constant Matrix: (Units=GPa)
#
#
# Indices 1 2 3 4 5 6 
#
# 1 90.0909 48.6292 20.7811 -1.5050 0.0000 0.0000
# 2 48.6292 90.0909 20.7811 1.5050 0.0000 0.0000
# 3 20.7811 20.7811 92.4817 0.0000 0.0000 0.0000
# 4 -1.5050 1.5050 0.0000 16.4722 0.0000 0.0000
# 5 0.0000 0.0000 0.0000 0.0000 16.4722 -1.5050
# 6 0.0000 0.0000 0.0000 0.0000 -1.5050 20.7308
#
#
#
# Elastic Compliance Matrix: (Units=1/GPa)
#
#
# Indices 1 2 3 4 5 6 
#
# 1 0.016004 -0.008275 -0.001737 0.002218 0.000000 0.000000
# 2 -0.008275 0.016004 -0.001737 -0.002218 0.000000 0.000000
# 3 -0.001737 -0.001737 0.011593 0.000000 0.000000 0.000000
# 4 0.002218 -0.002218 0.000000 0.061114 0.000000 0.000000
# 5 0.000000 0.000000 0.000000 0.000000 0.061114 0.004437
# 6 0.000000 0.000000 0.000000 0.000000 0.004437 0.048559
#
#
# Mechanical properties :
#
#
# Convention : Reuss Voigt Hill
#
# Bulk Modulus (GPa) = 49.73980 50.33848 50.03914
# Shear Modulus (GPa) = 20.44252 22.89986 21.67119
#
# Velocity S-wave (km/s) = 3.29352 3.48586 3.39106
# Velocity P-wave (km/s) = 6.39189 6.55076 6.47181
#
# Compressibility (1/GPa) = 0.02010462
#
# Stress axis : x y z
#
# Youngs Moduli (GPa) = 62.48274 62.48274 86.25546
#
# Poissons Ratio (x) = 0.51706 0.14981
# Poissons Ratio (y) = 0.51706 0.14981
# Poissons Ratio (z) = 0.10852 0.10852
#
# Static dielectric constant tensor:
#      x y z
#    x 1.685220 0.000000 0.000000 
#    y 0.000000 1.685220 0.000000 
#    z 0.000000 0.000000 1.672290 
# 
# From -- ./inp_files/3612.got.cif
#   From: 2010.05.17/outbox.cif.g08.bks.cpg/sg164_2_cif.got.tgz:3612.got - 2010.05.20 10:58:56.
