data_PCOD9578824
_publ_section_title
;
Structure prediction by ZEFSAII (Michael W. Deem and Ramdas Pophale) SiO2 
 PCOD9578824
Probable space group: P -3 C 1
;
_chemical_formula_sum "Si O2"
_cell_formula_units_Z 36
_cell_length_a 19.000599
_cell_length_b 19.000599
_cell_length_c 5.331886
_cell_angle_alpha 90.000000
_cell_angle_beta 90.000000
_cell_angle_gamma 120.000000
_cell_volume 1667.040196
_symmetry_space_group_name_H-M "P -3 C 1"
_symmetry_group_IT_number 165
_symmetry_cell_setting 'hexagonal'
loop_
_space_group_symop_operation_xyz
x,y,z
-y,x-y,z
-x+y,-x,z
x-y,-y,1/2-z
-x,-x+y,1/2-z
y,x,1/2-z
-x,-y,-z
y,-x+y,-z
x-y,x,-z
-x+y,y,1/2+z
x,x-y,1/2+z
-y,-x,1/2+z
loop_
_atom_site_type_symbol
_atom_site_label
_atom_site_fract_x
_atom_site_fract_y
_atom_site_fract_z
Si Si1 0.804874 0.537687 0.637971
Si Si2 0.171908 0.264939 0.832130
Si Si3 0.561533 0.596260 0.499914
O O1 0.737012 0.511562 0.421336
O O2 0.856856 0.636296 0.652518
O O3 0.869169 0.514184 0.529131
O O4 0.227696 0.227696 0.750000
O O5 0.105604 0.239948 0.609980
O O6 0.614387 0.614387 0.750000
O O7 0.500000 0.500000 0.500000
O O8 0.613191 0.613191 0.250000
#
# Coordination Sequence:
#
# PCOD9578824 Si02
#       3
#    12  12  12
#     4  10  20  33  52  80 113 144 186 230 294 353
#     4  10  20  33  51  73 100 139 176 224 278 330
#     4  10  20  34  54  81 118 153 189 239 302 358
#
# _framework density 21.59516
#
# number of rings (size 3 to 8) (size 9 to 14) (size 15 to 20)
#    0.000    2.000    0.000    4.000    0.000    5.333 
#    0.000    0.000    0.000    6.667    0.000    0.000 
#  266.667    0.000    0.000    0.000    0.000    0.000 
#
# Total GULP energy -200749.817307 kJ/mol
# GULP energy per Si atom -5576.383814 kJ/mol
# Density = 2.154601 g / cm^3
# Si number density = 21.595160 Si / 1000 Ang^3
#
#
#
# Elastic Constant Matrix: (Units=GPa)
#
#
# Indices 1 2 3 4 5 6 
#
# 1 60.5175 6.3282 23.0897 7.4196 0.0000 0.0000
# 2 6.3282 60.5175 23.0897 -7.4196 0.0000 0.0000
# 3 23.0897 23.0897 181.8068 0.0000 0.0000 0.0000
# 4 7.4196 -7.4196 0.0000 -20.4839 0.0000 0.0000
# 5 0.0000 0.0000 0.0000 0.0000 -20.4839 7.4196
# 6 0.0000 0.0000 0.0000 0.0000 7.4196 27.0947
#
#
#
# Elastic Compliance Matrix: (Units=1/GPa)
#
#
# Indices 1 2 3 4 5 6 
#
# 1 0.016594 -0.000195 -0.002083 0.006081 0.000000 0.000000
# 2 -0.000195 0.016594 -0.002083 -0.006081 0.000000 0.000000
# 3 -0.002083 -0.002083 0.006029 0.000000 0.000000 0.000000
# 4 0.006081 -0.006081 0.000000 -0.044413 0.000000 0.000000
# 5 0.000000 0.000000 0.000000 0.000000 -0.044413 0.012162
# 6 0.000000 0.000000 0.000000 0.000000 0.012162 0.033577
#
#
# Mechanical properties :
#
#
# Convention : Reuss Voigt Hill
#
# Bulk Modulus (GPa) = 32.79123 45.31743 39.05433
# Shear Modulus (GPa) = 1752.79803 13.91432 883.35618
#
# Velocity S-wave (km/s) = 28.52060 2.54111 20.24700
# Velocity P-wave (km/s) = 33.16298 5.44428 23.76367
#
# Compressibility (1/GPa) = 0.03049596
#
# Stress axis : x y z
#
# Youngs Moduli (GPa) = 60.26424 60.26424 165.85565
#
# Poissons Ratio (x) = 0.01175 0.34542
# Poissons Ratio (y) = 0.01175 0.34542
# Poissons Ratio (z) = 0.12551 0.12551
#
# Static dielectric constant tensor:
#      x y z
#    x 1.790880 0.000000 0.000000 
#    y 0.000000 1.790880 0.000000 
#    z 0.000000 0.000000 1.873860 
# 
# From -- ./inp_files/63.got.cif
#   From: 2010.05.17/outbox.cif.g08.bks.cpg/sg165_1_cif.got.tgz:63.got - 2010.05.20 11:02:39.
