data_PCOD9578878
_publ_section_title
;
Structure prediction by ZEFSAII (Michael W. Deem and Ramdas Pophale) SiO2 
 PCOD9578878
Probable space group: P -3 C 1
;
_chemical_formula_sum "Si O2"
_cell_formula_units_Z 54
_cell_length_a 11.938472
_cell_length_b 11.938472
_cell_length_c 20.424763
_cell_angle_alpha 90.000000
_cell_angle_beta 90.000000
_cell_angle_gamma 120.000000
_cell_volume 2521.071413
_symmetry_space_group_name_H-M "P -3 C 1"
_symmetry_group_IT_number 165
_symmetry_cell_setting 'hexagonal'
loop_
_space_group_symop_operation_xyz
x,y,z
-y,x-y,z
-x+y,-x,z
x-y,-y,1/2-z
-x,-x+y,1/2-z
y,x,1/2-z
-x,-y,-z
y,-x+y,-z
x-y,x,-z
-x+y,y,1/2+z
x,x-y,1/2+z
-y,-x,1/2+z
loop_
_atom_site_type_symbol
_atom_site_label
_atom_site_fract_x
_atom_site_fract_y
_atom_site_fract_z
Si Si1 0.788439 0.737312 0.525633
Si Si2 0.826027 0.369146 0.140522
Si Si3 0.528526 0.528526 0.750000
Si Si4 0.407956 0.123871 0.872076
Si Si5 0.623749 0.086607 0.927129
O O1 0.774169 0.837667 0.477141
O O2 0.725324 0.746008 0.593277
O O3 0.700457 0.595947 0.493809
O O4 0.896183 0.402961 0.210545
O O5 0.768869 0.466755 0.134936
O O6 0.935001 0.396494 0.088516
O O7 0.640276 0.568374 0.804341
O O8 0.523972 0.138269 0.919868
O O9 0.422549 0.264390 0.872634
#
# Coordination Sequence:
#
# PCOD9578878 Si02
#       5
#    12  12   6  12  12
#     4  10  22  39  63  88 123 164 219 268 323 389
#     4   9  22  37  59  90 124 164 207 258 313 383
#     4  10  22  36  62  84 128 166 204 256 314 394
#     4  10  22  39  59  93 124 165 208 263 326 379
#     4  10  21  38  64  91 125 165 210 270 322 381
#
# _framework density 21.419466
#
# number of rings (size 3 to 8) (size 9 to 14) (size 15 to 20)
#    0.444    1.778    0.000    1.333   12.444    0.000 
#    0.000    0.000    0.000    0.000    0.000    0.000 
#    0.000    0.000    0.000    0.000    0.000    0.000 
#
# Total GULP energy -301493.652860 kJ/mol
# GULP energy per Si atom -5583.215794 kJ/mol
# Density = 2.137071 g / cm^3
# Si number density = 21.419466 Si / 1000 Ang^3
#
#
#
# Elastic Constant Matrix: (Units=GPa)
#
#
# Indices 1 2 3 4 5 6 
#
# 1 95.8068 23.1925 15.9255 -4.9215 0.0000 0.0000
# 2 23.1925 95.8068 15.9255 4.9215 0.0000 0.0000
# 3 15.9255 15.9255 54.0184 0.0000 0.0000 0.0000
# 4 -4.9215 4.9215 0.0000 23.5800 0.0000 0.0000
# 5 0.0000 0.0000 0.0000 0.0000 23.5800 -4.9215
# 6 0.0000 0.0000 0.0000 0.0000 -4.9215 36.3071
#
#
#
# Elastic Compliance Matrix: (Units=1/GPa)
#
#
# Indices 1 2 3 4 5 6 
#
# 1 0.011648 -0.002525 -0.002690 0.002958 0.000000 0.000000
# 2 -0.002525 0.011648 -0.002690 -0.002958 0.000000 0.000000
# 3 -0.002690 -0.002690 0.020098 0.000000 0.000000 0.000000
# 4 0.002958 -0.002958 0.000000 0.043644 0.000000 0.000000
# 5 0.000000 0.000000 0.000000 0.000000 0.043644 0.005916
# 6 0.000000 0.000000 0.000000 0.000000 0.005916 0.028345
#
#
# Mechanical properties :
#
#
# Convention : Reuss Voigt Hill
#
# Bulk Modulus (GPa) = 36.25030 39.52433 37.88732
# Shear Modulus (GPa) = 27.16966 29.39932 28.28449
#
# Velocity S-wave (km/s) = 3.56540 3.70882 3.63782
# Velocity P-wave (km/s) = 5.82325 6.06902 5.94740
#
# Compressibility (1/GPa) = 0.02758598
#
# Stress axis : x y z
#
# Youngs Moduli (GPa) = 85.85278 85.85278 49.75585
#
# Poissons Ratio (x) = 0.21674 0.13383
# Poissons Ratio (y) = 0.21674 0.13383
# Poissons Ratio (z) = 0.23092 0.23092
#
# Static dielectric constant tensor:
#      x y z
#    x 1.788170 0.000000 0.000000 
#    y 0.000000 1.788170 0.000000 
#    z 0.000000 0.000000 1.787200 
# 
# From -- ./inp_files/2868.got.cif
#   From: 2010.05.17/outbox.cif.g08.bks.cpg/sg165_2_cif.got.tgz:2868.got - 2010.05.20 11:02:39.
