data_PCOD9578477
_publ_section_title
;
Structure prediction by ZEFSAII (Michael W. Deem and Ramdas Pophale) SiO2 
 PCOD9578477
Probable space group: P -3 M 1
;
_chemical_formula_sum "Si O2"
_cell_formula_units_Z 60
_cell_length_a 18.115121
_cell_length_b 18.115121
_cell_length_c 12.330286
_cell_angle_alpha 90.000000
_cell_angle_beta 90.000000
_cell_angle_gamma 120.000000
_cell_volume 3504.178820
_symmetry_space_group_name_H-M "P -3 M 1"
_symmetry_group_IT_number 164
_symmetry_cell_setting 'hexagonal'
loop_
_space_group_symop_operation_xyz
x,y,z
-y,x-y,z
-x+y,-x,z
x-y,-y,-z
-x,-x+y,-z
y,x,-z
-x,-y,-z
y,-x+y,-z
x-y,x,-z
-x+y,y,z
x,x-y,z
-y,-x,z
loop_
_atom_site_type_symbol
_atom_site_label
_atom_site_fract_x
_atom_site_fract_y
_atom_site_fract_z
Si Si1 0.501964 0.332367 0.849101
Si Si2 0.541783 0.627542 0.929752
Si Si3 0.092885 0.356155 0.322089
Si Si4 0.901414 0.630333 0.285282
Si Si5 0.492596 0.159690 0.486680
O O1 0.533872 0.266936 0.818899
O O2 0.571848 0.428153 0.818811
O O3 0.414374 0.299674 0.785498
O O4 0.488265 0.330700 0.977790
O O5 0.457820 0.542181 0.888419
O O6 0.593904 0.688785 0.832360
O O7 0.595678 0.595678 0.000000
O O8 0.163118 0.326235 0.330015
O O9 0.111760 0.421743 0.420651
O O10 0.994157 0.286177 0.316571
O O11 0.826576 0.653152 0.288930
O O12 0.876211 0.554944 0.372566
O O13 0.574673 0.149345 0.499664
O O14 0.517777 0.258889 0.493309
#
# Coordination Sequence:
#
# PCOD9578477 Si02
#       5
#    12  12  12  12  12
#     4  10  19  31  49  73 102 135 171 210 252 301
#     4  10  19  32  51  74 103 136 172 213 255 307
#     4  10  21  36  53  75 103 136 174 218 267 313
#     4  11  22  36  54  78 104 135 177 221 269 319
#     4  10  21  35  54  80 113 149 182 215 253 302
#
# _framework density 17.122413000000002
#
# number of rings (size 3 to 8) (size 9 to 14) (size 15 to 20)
#    0.000    1.800    2.000    2.800    0.000    3.200 
#    0.000    2.000    0.000    6.800    0.000    0.000 
#    0.000    5.600    0.000    0.000    0.000    0.000 
#
# Total GULP energy -334817.318165 kJ/mol
# GULP energy per Si atom -5580.288636 kJ/mol
# Density = 1.708344 g / cm^3
# Si number density = 17.122413 Si / 1000 Ang^3
#
#
#
# Elastic Constant Matrix: (Units=GPa)
#
#
# Indices 1 2 3 4 5 6 
#
# 1 93.4417 68.1991 28.5208 0.1555 0.0000 0.0000
# 2 68.1991 93.4417 28.5208 -0.1555 0.0000 0.0000
# 3 28.5208 28.5208 70.5905 0.0000 0.0000 0.0000
# 4 0.1555 -0.1555 0.0000 18.8175 0.0000 0.0000
# 5 0.0000 0.0000 0.0000 0.0000 18.8175 0.1555
# 6 0.0000 0.0000 0.0000 0.0000 0.1555 12.6213
#
#
#
# Elastic Compliance Matrix: (Units=1/GPa)
#
#
# Indices 1 2 3 4 5 6 
#
# 1 0.023417 -0.016202 -0.002915 -0.000327 0.000000 0.000000
# 2 -0.016202 0.023417 -0.002915 0.000327 0.000000 0.000000
# 3 -0.002915 -0.002915 0.016522 0.000000 0.000000 0.000000
# 4 -0.000327 0.000327 0.000000 0.053147 0.000000 0.000000
# 5 0.000000 0.000000 0.000000 0.000000 0.053147 -0.000655
# 6 0.000000 0.000000 0.000000 0.000000 -0.000655 0.079239
#
#
# Mechanical properties :
#
#
# Convention : Reuss Voigt Hill
#
# Bulk Modulus (GPa) = 51.83592 56.43951 54.13772
# Shear Modulus (GPa) = 16.70084 18.86682 17.78383
#
# Velocity S-wave (km/s) = 3.12649 3.32306 3.22627
# Velocity P-wave (km/s) = 6.58580 6.91068 6.75019
#
# Compressibility (1/GPa) = 0.01929164
#
# Stress axis : x y z
#
# Youngs Moduli (GPa) = 42.70327 42.70327 60.52576
#
# Poissons Ratio (x) = 0.69188 0.17645
# Poissons Ratio (y) = 0.69188 0.17645
# Poissons Ratio (z) = 0.12449 0.12449
#
# Static dielectric constant tensor:
#      x y z
#    x 1.585030 0.000000 0.000000 
#    y 0.000000 1.585030 0.000000 
#    z 0.000000 0.000000 1.599410 
# 
# From -- ./inp_files/2659.got.cif
#   From: 2010.05.17/outbox.cif.g08.bks.cpg/sg164_2_cif.got.tgz:2659.got - 2010.05.20 10:58:56.
