data_PCOD9578916
_publ_section_title
;
Structure prediction by ZEFSAII (Michael W. Deem and Ramdas Pophale) SiO2 
 PCOD9578916
Probable space group: P -3 C 1
;
_chemical_formula_sum "Si O2"
_cell_formula_units_Z 48
_cell_length_a 13.672369
_cell_length_b 13.672369
_cell_length_c 14.516771
_cell_angle_alpha 90.000000
_cell_angle_beta 90.000000
_cell_angle_gamma 120.000000
_cell_volume 2350.110049
_symmetry_space_group_name_H-M "P -3 C 1"
_symmetry_group_IT_number 165
_symmetry_cell_setting 'hexagonal'
loop_
_space_group_symop_operation_xyz
x,y,z
-y,x-y,z
-x+y,-x,z
x-y,-y,1/2-z
-x,-x+y,1/2-z
y,x,1/2-z
-x,-y,-z
y,-x+y,-z
x-y,x,-z
-x+y,y,1/2+z
x,x-y,1/2+z
-y,-x,1/2+z
loop_
_atom_site_type_symbol
_atom_site_label
_atom_site_fract_x
_atom_site_fract_y
_atom_site_fract_z
Si Si1 0.828341 0.280475 0.641372
Si Si2 0.618580 0.100179 0.960196
Si Si3 0.249365 0.051038 0.516329
Si Si4 0.487429 0.607916 0.244829
O O1 0.809227 0.321013 0.541453
O O2 0.901957 0.222459 0.612206
O O3 0.715999 0.206579 0.698123
O O4 0.893044 0.392245 0.701990
O O5 0.704157 0.050383 0.952197
O O6 0.607885 0.147189 0.862723
O O7 0.500000 0.000000 0.000000
O O8 0.216037 0.142241 0.481606
O O9 0.599109 0.599109 0.250000
#
# Coordination Sequence:
#
# PCOD9578916 Si02
#       4
#    12  12  12  12
#     4  10  26  40  67 110 139 186 243 288 361 436
#     4  10  23  43  69 101 147 184 233 294 360 418
#     4  10  22  43  70 102 143 188 233 293 354 426
#     4  12  22  44  71 100 148 185 242 296 362 430
#
# _framework density 20.424575000000001
#
# number of rings (size 3 to 8) (size 9 to 14) (size 15 to 20)
#    1.500    0.000    2.500    2.250    0.000    6.000 
#    0.000    0.000    0.000    0.000    0.000    8.750 
#    0.000    0.000    0.000    0.000    0.000    0.000 
#
# Total GULP energy -267312.607223 kJ/mol
# GULP energy per Si atom -5569.012650 kJ/mol
# Density = 2.037809 g / cm^3
# Si number density = 20.424575 Si / 1000 Ang^3
#
#
#
# Elastic Constant Matrix: (Units=GPa)
#
#
# Indices 1 2 3 4 5 6 
#
# 1 106.0832 47.3390 51.7840 -3.7349 0.0000 0.0000
# 2 47.3390 106.0832 51.7840 3.7349 0.0000 0.0000
# 3 51.7840 51.7840 181.2712 0.0000 0.0000 0.0000
# 4 -3.7349 3.7349 0.0000 23.5595 0.0000 0.0000
# 5 0.0000 0.0000 0.0000 0.0000 23.5595 -3.7349
# 6 0.0000 0.0000 0.0000 0.0000 -3.7349 29.3721
#
#
#
# Elastic Compliance Matrix: (Units=1/GPa)
#
#
# Indices 1 2 3 4 5 6 
#
# 1 0.012724 -0.004649 -0.002307 0.002754 0.000000 0.000000
# 2 -0.004649 0.012724 -0.002307 -0.002754 0.000000 0.000000
# 3 -0.002307 -0.002307 0.006835 0.000000 0.000000 0.000000
# 4 0.002754 -0.002754 0.000000 0.043319 0.000000 0.000000
# 5 0.000000 0.000000 0.000000 0.000000 0.043319 0.005508
# 6 0.000000 0.000000 0.000000 0.000000 0.005508 0.034746
#
#
# Mechanical properties :
#
#
# Convention : Reuss Voigt Hill
#
# Bulk Modulus (GPa) = 72.68713 77.25017 74.96865
# Shear Modulus (GPa) = 28.28401 31.46695 29.87548
#
# Velocity S-wave (km/s) = 3.72533 3.92936 3.82870
# Velocity P-wave (km/s) = 7.35999 7.64792 7.50534
#
# Compressibility (1/GPa) = 0.01375759
#
# Stress axis : x y z
#
# Youngs Moduli (GPa) = 78.59051 78.59051 146.31433
#
# Poissons Ratio (x) = 0.36537 0.33753
# Poissons Ratio (y) = 0.36537 0.33753
# Poissons Ratio (z) = 0.18130 0.18130
#
# Static dielectric constant tensor:
#      x y z
#    x 1.989750 0.000000 0.000000 
#    y 0.000000 1.989750 0.000000 
#    z 0.000000 0.000000 1.767700 
# 
# From -- ./inp_files/1043.got.cif
#   From: 2010.05.17/outbox.cif.g08.bks.cpg/sg165_1_cif.got.tgz:1043.got - 2010.05.20 11:02:39.
