data_PCOD9578037
_publ_section_title
;
Structure prediction by ZEFSAII (Michael W. Deem and Ramdas Pophale) SiO2 
 PCOD9578037
Probable space group: P -3 1 C
;
_chemical_formula_sum "Si O2"
_cell_formula_units_Z 72
_cell_length_a 22.773177
_cell_length_b 22.773177
_cell_length_c 8.784672
_cell_angle_alpha 90.000000
_cell_angle_beta 90.000000
_cell_angle_gamma 120.000000
_cell_volume 3945.512517
_symmetry_space_group_name_H-M "P -3 1 C"
_symmetry_group_IT_number 163
_symmetry_cell_setting 'hexagonal'
loop_
_space_group_symop_operation_xyz
x,y,z
-y,x-y,z
-x+y,-x,z
-y,-x,1/2-z
-x+y,y,1/2-z
x,x-y,1/2-z
-x,-y,-z
y,-x+y,-z
x-y,x,-z
y,x,1/2+z
x-y,-y,1/2+z
-x,-x+y,1/2+z
loop_
_atom_site_type_symbol
_atom_site_label
_atom_site_fract_x
_atom_site_fract_y
_atom_site_fract_z
Si Si1 0.625427 0.170972 0.464954
Si Si2 0.027716 0.649395 0.596533
Si Si3 0.745424 0.490848 0.250000
Si Si4 0.280425 0.873551 0.355417
Si Si5 0.754901 0.377451 0.750000
Si Si6 0.406572 0.244767 0.985076
Si Si7 0.563768 0.534036 0.149194
O O1 0.672334 0.222692 0.333104
O O2 0.673947 0.149462 0.552955
O O3 0.601905 0.204248 0.593466
O O4 0.566969 0.098078 0.408972
O O5 0.085087 0.722654 0.543283
O O6 0.053531 0.629242 0.745791
O O7 0.954187 0.638959 0.633553
O O8 0.013821 0.589617 0.476260
O O9 0.740615 0.537520 0.384712
O O10 0.278348 0.849016 0.182423
O O11 0.207701 0.833893 0.438584
O O12 0.703514 0.407028 0.750000
O O13 0.495558 0.504443 0.250000
#
# Coordination Sequence:
#
# PCOD9578037 Si02
#       7
#    12  12   6  12   6  12  12
#     4  10  22  40  57  78 103 134 186 227 289 351
#     4  11  20  39  55  82 117 144 185 233 275 342
#     4  10  20  34  64  84  98 140 187 228 276 347
#     4   9  21  35  59  82 110 155 178 221 288 341
#     4  10  26  42  60  74  96 138 179 240 316 361
#     4  10  19  34  58  82 111 142 185 221 275 334
#     4  11  23  37  55  82 107 145 179 230 290 339
#
# _framework density 18.24858
#
# number of rings (size 3 to 8) (size 9 to 14) (size 15 to 20)
#    0.167    1.667    3.333    0.500    4.667    2.667 
#    6.000    0.000    0.000    0.000    0.000    0.000 
#    0.000    0.000    0.000    0.500    0.000    5.833 
#
# Total GULP energy -401642.311808 kJ/mol
# GULP energy per Si atom -5578.365442 kJ/mol
# Density = 1.820705 g / cm^3
# Si number density = 18.248580 Si / 1000 Ang^3
#
#
#
# Elastic Constant Matrix: (Units=GPa)
#
#
# Indices 1 2 3 4 5 6 
#
# 1 79.0033 41.7245 35.4605 0.0000 8.1496 0.0000
# 2 41.7245 79.0033 35.4605 0.0000 -8.1496 0.0000
# 3 35.4605 35.4605 107.1017 0.0000 0.0000 0.0000
# 4 0.0000 0.0000 0.0000 27.4118 0.0000 -8.1496
# 5 8.1496 -8.1496 0.0000 0.0000 27.4118 0.0000
# 6 0.0000 0.0000 0.0000 -8.1496 0.0000 18.6394
#
#
#
# Elastic Compliance Matrix: (Units=1/GPa)
#
#
# Indices 1 2 3 4 5 6 
#
# 1 0.020558 -0.010275 -0.003405 0.000000 -0.009167 0.000000
# 2 -0.010275 0.020558 -0.003405 0.000000 0.009167 0.000000
# 3 -0.003405 -0.003405 0.011591 0.000000 0.000000 0.000000
# 4 0.000000 0.000000 0.000000 0.041931 0.000000 0.018333
# 5 -0.009167 0.009167 0.000000 0.000000 0.041931 0.000000
# 6 0.000000 0.000000 0.000000 0.018333 0.000000 0.061666
#
#
# Mechanical properties :
#
#
# Convention : Reuss Voigt Hill
#
# Bulk Modulus (GPa) = 53.94015 54.48881 54.21448
# Shear Modulus (GPa) = 20.95702 24.85679 22.90690
#
# Velocity S-wave (km/s) = 3.39251 3.69470 3.54682
# Velocity P-wave (km/s) = 6.70583 6.93722 6.82251
#
# Compressibility (1/GPa) = 0.01853907
#
# Stress axis : x y z
#
# Youngs Moduli (GPa) = 48.64284 48.64284 86.27054
#
# Poissons Ratio (x) = 0.49980 0.29372
# Poissons Ratio (y) = 0.49980 0.29372
# Poissons Ratio (z) = 0.16561 0.16561
#
# Static dielectric constant tensor:
#      x y z
#    x 1.649050 0.000000 0.000000 
#    y 0.000000 1.649050 0.000000 
#    z 0.000000 0.000000 1.738180 
# 
# From -- ./inp_files/1262.got.cif
#   From: 2010.05.17/outbox.cif.g08.bks.cpg/sg163_1_cif.got.tgz:1262.got - 2010.05.20 10:56:03.
