data_PCOD9578459
_publ_section_title
;
Structure prediction by ZEFSAII (Michael W. Deem and Ramdas Pophale) SiO2 
 PCOD9578459
Probable space group: P -3 M 1
;
_chemical_formula_sum "Si O2"
_cell_formula_units_Z 96
_cell_length_a 17.365311
_cell_length_b 17.365311
_cell_length_c 21.733406
_cell_angle_alpha 90.000000
_cell_angle_beta 90.000000
_cell_angle_gamma 120.000000
_cell_volume 5675.753897
_symmetry_space_group_name_H-M "P -3 M 1"
_symmetry_group_IT_number 164
_symmetry_cell_setting 'hexagonal'
loop_
_space_group_symop_operation_xyz
x,y,z
-y,x-y,z
-x+y,-x,z
x-y,-y,-z
-x,-x+y,-z
y,x,-z
-x,-y,-z
y,-x+y,-z
x-y,x,-z
-x+y,y,z
x,x-y,z
-y,-x,z
loop_
_atom_site_type_symbol
_atom_site_label
_atom_site_fract_x
_atom_site_fract_y
_atom_site_fract_z
Si Si1 0.484267 0.332430 0.234774
Si Si2 0.511682 0.667017 0.972374
Si Si3 0.611874 0.570328 0.358795
Si Si4 0.847126 0.514746 0.602956
Si Si5 0.180588 0.180519 0.072566
Si Si6 0.844891 0.332750 0.879793
Si Si7 0.274613 0.902798 0.519380
Si Si8 0.670830 0.638406 0.127413
O O1 0.501497 0.250749 0.243598
O O2 0.576502 0.423499 0.222255
O O3 0.441170 0.348239 0.295657
O O4 0.416808 0.312034 0.178794
O O5 0.523177 0.761589 0.953286
O O6 0.412461 0.587540 0.959382
O O7 0.580201 0.649682 0.934729
O O8 0.524277 0.670233 0.045855
O O9 0.523606 0.476395 0.372533
O O10 0.577481 0.641447 0.357919
O O11 0.679717 0.593503 0.414827
O O12 0.759883 0.519765 0.620281
O O13 0.829424 0.414712 0.606348
O O14 0.873401 0.552180 0.533082
O O15 0.159617 0.079809 0.080545
O O16 0.265341 0.246574 0.112353
O O17 0.094706 0.189411 0.086374
O O18 0.202601 0.202601 0.000000
O O19 0.829096 0.414548 0.866051
O O20 0.760474 0.239527 0.860998
O O21 0.938301 0.351024 0.853668
O O22 0.172478 0.827523 0.520837
O O23 0.293864 0.000000 0.500000
#
# Coordination Sequence:
#
# PCOD9578459 Si02
#       8
#    12  12  12  12  12  12  12  12
#     4  11  23  38  54  71  95 128 166 206 245 286
#     4  10  19  31  48  70  96 124 154 191 237 290
#     4   9  18  32  49  69  96 131 169 206 240 278
#     4   9  16  27  46  74 106 135 162 195 239 290
#     4  10  20  35  55  78 102 126 154 193 245 303
#     4  10  20  34  51  71  95 123 155 192 237 289
#     4   9  16  27  46  72 100 129 162 201 247 295
#     4  12  22  33  50  72  97 125 159 199 242 287
#
# _framework density 16.914052999999999
#
# number of rings (size 3 to 8) (size 9 to 14) (size 15 to 20)
#    0.000    2.000    0.000    5.125    0.000    6.000 
#    0.000    2.500    0.000    4.125    0.000    1.750 
#    0.000    0.000    0.000    0.250    0.000    0.000 
#
# Total GULP energy -535887.722542 kJ/mol
# GULP energy per Si atom -5582.163776 kJ/mol
# Density = 1.687556 g / cm^3
# Si number density = 16.914053 Si / 1000 Ang^3
#
#
#
# Elastic Constant Matrix: (Units=GPa)
#
#
# Indices 1 2 3 4 5 6 
#
# 1 98.8361 46.0853 31.7861 4.6086 0.0000 0.0000
# 2 46.0853 98.8361 31.7861 -4.6086 0.0000 0.0000
# 3 31.7861 31.7861 42.2724 0.0000 0.0000 0.0000
# 4 4.6086 -4.6086 0.0000 6.3164 0.0000 0.0000
# 5 0.0000 0.0000 0.0000 0.0000 6.3164 4.6086
# 6 0.0000 0.0000 0.0000 0.0000 4.6086 26.3754
#
#
#
# Elastic Compliance Matrix: (Units=1/GPa)
#
#
# Indices 1 2 3 4 5 6 
#
# 1 0.016012 -0.005715 -0.007742 -0.015853 0.000000 0.000000
# 2 -0.005715 0.016012 -0.007742 0.015853 0.000000 0.000000
# 3 -0.007742 -0.007742 0.035300 0.000000 0.000000 0.000000
# 4 -0.015853 0.015853 0.000000 0.181451 0.000000 0.000000
# 5 0.000000 0.000000 0.000000 0.000000 0.181451 -0.031705
# 6 0.000000 0.000000 0.000000 0.000000 -0.031705 0.043454
#
#
# Mechanical properties :
#
#
# Convention : Reuss Voigt Hill
#
# Bulk Modulus (GPa) = 40.12306 51.02882 45.57594
# Shear Modulus (GPa) = 9.53494 16.48746 13.01120
#
# Velocity S-wave (km/s) = 2.37687 3.12553 2.77655
# Velocity P-wave (km/s) = 5.59517 6.57725 6.10599
#
# Compressibility (1/GPa) = 0.02492332
#
# Stress axis : x y z
#
# Youngs Moduli (GPa) = 62.45399 62.45399 28.32897
#
# Poissons Ratio (x) = 0.35694 0.21933
# Poissons Ratio (y) = 0.35694 0.21933
# Poissons Ratio (z) = 0.48354 0.48354
#
# Static dielectric constant tensor:
#      x y z
#    x 1.565230 0.000000 0.000000 
#    y 0.000000 1.565230 0.000000 
#    z 0.000000 0.000000 1.562870 
# 
# From -- ./inp_files/4744.got.cif
#   From: 2010.05.17/outbox.cif.g08.bks.cpg/sg164_3_cif.got.tgz:4744.got - 2010.05.20 10:58:56.
