data_PCOD9578405
_publ_section_title
;
Structure prediction by ZEFSAII (Michael W. Deem and Ramdas Pophale) SiO2 
 PCOD9578405
Probable space group: P -3 M 1
;
_chemical_formula_sum "Si O2"
_cell_formula_units_Z 60
_cell_length_a 20.114175
_cell_length_b 20.114175
_cell_length_c 10.202538
_cell_angle_alpha 90.000000
_cell_angle_beta 90.000000
_cell_angle_gamma 120.000000
_cell_volume 3574.730463
_symmetry_space_group_name_H-M "P -3 M 1"
_symmetry_group_IT_number 164
_symmetry_cell_setting 'hexagonal'
loop_
_space_group_symop_operation_xyz
x,y,z
-y,x-y,z
-x+y,-x,z
x-y,-y,-z
-x,-x+y,-z
y,x,-z
-x,-y,-z
y,-x+y,-z
x-y,x,-z
-x+y,y,z
x,x-y,z
-y,-x,z
loop_
_atom_site_type_symbol
_atom_site_label
_atom_site_fract_x
_atom_site_fract_y
_atom_site_fract_z
Si Si1 0.077779 0.303640 0.750986
Si Si2 0.290710 0.862976 0.519408
Si Si3 0.572037 0.709152 0.981895
Si Si4 0.656473 0.748917 0.250407
Si Si5 0.072987 0.536494 0.903787
Si Si6 0.463520 0.927040 0.596284
O O1 0.134062 0.268123 0.750898
O O2 0.100617 0.359429 0.625489
O O3 0.986728 0.250171 0.750474
O O4 0.100344 0.359075 0.876897
O O5 0.226864 0.773137 0.510869
O O6 0.293104 0.901113 0.379749
O O7 0.373260 0.879389 0.564766
O O8 0.546071 0.773036 0.989889
O O9 0.607128 0.706421 0.122022
O O10 0.506106 0.626745 0.935468
O O11 0.668294 0.834147 0.250193
O O12 0.051123 0.525562 0.750050
O O13 0.000000 0.500000 0.000000
O O14 0.500000 0.000000 0.500000
#
# Coordination Sequence:
#
# PCOD9578405 Si02
#       6
#    12  12  12  12   6   6
#     4  10  18  33  55  78 109 137 177 221 263 319
#     4  10  22  37  54  79 108 141 182 223 274 326
#     4  10  22  37  54  79 108 141 182 223 274 326
#     4  10  20  35  55  80 109 143 177 223 273 323
#     4  12  24  36  58  84 112 142 186 234 280 328
#     4  12  24  36  58  84 112 142 186 234 280 328
#
# _framework density 16.784482000000001
#
# number of rings (size 3 to 8) (size 9 to 14) (size 15 to 20)
#    0.000    1.600    2.000    3.600    2.800    0.000 
#    1.200    0.000    0.000    0.400    0.000    0.000 
#    0.000    9.600    0.000    0.000    0.000    1.600 
#
# Total GULP energy -334982.833789 kJ/mol
# GULP energy per Si atom -5583.047230 kJ/mol
# Density = 1.674628 g / cm^3
# Si number density = 16.784482 Si / 1000 Ang^3
#
#
#
# Elastic Constant Matrix: (Units=GPa)
#
#
# Indices 1 2 3 4 5 6 
#
# 1 79.2924 35.8251 23.2913 -1.2210 0.0000 0.0000
# 2 35.8251 79.2924 23.2913 1.2210 0.0000 0.0000
# 3 23.2913 23.2913 130.3132 0.0000 0.0000 0.0000
# 4 -1.2210 1.2210 0.0000 74.5758 0.0000 0.0000
# 5 0.0000 0.0000 0.0000 0.0000 74.5758 -1.2210
# 6 0.0000 0.0000 0.0000 0.0000 -1.2210 21.7336
#
#
#
# Elastic Compliance Matrix: (Units=1/GPa)
#
#
# Indices 1 2 3 4 5 6 
#
# 1 0.016196 -0.006831 -0.001674 0.000377 0.000000 0.000000
# 2 -0.006831 0.016196 -0.001674 -0.000377 0.000000 0.000000
# 3 -0.001674 -0.001674 0.008272 0.000000 0.000000 0.000000
# 4 0.000377 -0.000377 0.000000 0.013422 0.000000 0.000000
# 5 0.000000 0.000000 0.000000 0.000000 0.013422 0.000754
# 6 0.000000 0.000000 0.000000 0.000000 0.000754 0.046054
#
#
# Mechanical properties :
#
#
# Convention : Reuss Voigt Hill
#
# Bulk Modulus (GPa) = 49.24773 50.41260 49.83017
# Shear Modulus (GPa) = 35.54006 47.94306 41.74156
#
# Velocity S-wave (km/s) = 4.60655 5.35032 4.99231
# Velocity P-wave (km/s) = 7.59597 8.26247 7.93622
#
# Compressibility (1/GPa) = 0.02030550
#
# Stress axis : x y z
#
# Youngs Moduli (GPa) = 61.74548 61.74548 120.88825
#
# Poissons Ratio (x) = 0.42181 0.20233
# Poissons Ratio (y) = 0.42181 0.20233
# Poissons Ratio (z) = 0.10334 0.10334
#
# Static dielectric constant tensor:
#      x y z
#    x 1.553860 0.000000 0.000000 
#    y 0.000000 1.553860 0.000000 
#    z 0.000000 0.000000 1.581830 
# 
# From -- ./inp_files/1633.got.cif
#   From: 2010.05.17/outbox.cif.g08.bks.cpg/sg164_1_cif.got.tgz:1633.got - 2010.05.20 10:58:56.
