data_PCOD9578090
_publ_section_title
;
Structure prediction by ZEFSAII (Michael W. Deem and Ramdas Pophale) SiO2 
 PCOD9578090
Probable space group: P -3 1 C
;
_chemical_formula_sum "Si O2"
_cell_formula_units_Z 52
_cell_length_a 11.702231
_cell_length_b 11.702231
_cell_length_c 23.271916
_cell_angle_alpha 90.000000
_cell_angle_beta 90.000000
_cell_angle_gamma 120.000000
_cell_volume 2759.942956
_symmetry_space_group_name_H-M "P -3 1 C"
_symmetry_group_IT_number 163
_symmetry_cell_setting 'hexagonal'
loop_
_space_group_symop_operation_xyz
x,y,z
-y,x-y,z
-x+y,-x,z
-y,-x,1/2-z
-x+y,y,1/2-z
x,x-y,1/2-z
-x,-y,-z
y,-x+y,-z
x-y,x,-z
y,x,1/2+z
x-y,-y,1/2+z
-x,-x+y,1/2+z
loop_
_atom_site_type_symbol
_atom_site_label
_atom_site_fract_x
_atom_site_fract_y
_atom_site_fract_z
Si Si1 0.000000 0.000000 0.319604
Si Si2 0.152261 0.847740 0.818753
Si Si3 0.067158 0.401076 0.122406
Si Si4 0.401076 0.333918 0.622406
Si Si5 1.000000 0.732444 0.500000
O O1 0.924545 0.849093 0.338501
O O2 0.000000 0.000000 0.250000
O O3 0.154666 0.845335 0.750000
O O4 0.063322 0.701518 0.843120
O O5 0.298483 0.936678 0.843120
O O6 0.192916 0.385832 0.139380
O O7 0.097926 0.548963 0.130977
O O8 0.037044 0.360248 0.055527
O O9 0.360249 0.323205 0.555527
O O10 0.874106 0.748213 0.485985
#
# Coordination Sequence:
#
# PCOD9578090 Si02
#       5
#     4  12  12  12  12
#     4   9  18  36  63  91 113 148 198 258 310 353
#     4  11  22  40  65  91 123 161 209 261 308 362
#     4  11  23  40  62  91 126 165 205 250 307 370
#     4  11  23  40  62  91 126 165 205 250 307 370
#     4  10  20  36  62  94 124 155 201 258 310 362
#
# _framework density 18.840971
#
# number of rings (size 3 to 8) (size 9 to 14) (size 15 to 20)
#    0.000    1.385    4.615    1.385    0.000    0.923 
#    1.385    0.000    0.000    2.769    0.000    0.000 
#    0.000    0.000    0.000    0.000    0.000    0.000 
#
# Total GULP energy -290510.118206 kJ/mol
# GULP energy per Si atom -5586.733042 kJ/mol
# Density = 1.879809 g / cm^3
# Si number density = 18.840971 Si / 1000 Ang^3
#
#
#
# Elastic Constant Matrix: (Units=GPa)
#
#
# Indices 1 2 3 4 5 6 
#
# 1 88.7090 30.1288 20.8692 0.0000 0.0000 0.0000
# 2 30.1288 88.7090 20.8692 0.0000 0.0000 0.0000
# 3 20.8692 20.8692 65.0814 0.0000 0.0000 0.0000
# 4 0.0000 0.0000 0.0000 15.5290 0.0000 0.0000
# 5 0.0000 0.0000 0.0000 0.0000 15.5290 0.0000
# 6 0.0000 0.0000 0.0000 0.0000 0.0000 29.2901
#
#
#
# Elastic Compliance Matrix: (Units=1/GPa)
#
#
# Indices 1 2 3 4 5 6 
#
# 1 0.013277 -0.003794 -0.003041 0.000000 0.000000 0.000000
# 2 -0.003794 0.013277 -0.003041 0.000000 0.000000 0.000000
# 3 -0.003041 -0.003041 0.017316 0.000000 0.000000 0.000000
# 4 0.000000 0.000000 0.000000 0.064396 0.000000 0.000000
# 5 0.000000 0.000000 0.000000 0.000000 0.064396 0.000000
# 6 0.000000 0.000000 0.000000 0.000000 0.000000 0.034141
#
#
# Mechanical properties :
#
#
# Convention : Reuss Voigt Hill
#
# Bulk Modulus (GPa) = 41.46284 42.91489 42.18887
# Shear Modulus (GPa) = 21.31359 23.44508 22.37934
#
# Velocity S-wave (km/s) = 3.36703 3.53139 3.45019
# Velocity P-wave (km/s) = 6.09675 6.28128 6.18970
#
# Compressibility (1/GPa) = 0.02411798
#
# Stress axis : x y z
#
# Youngs Moduli (GPa) = 75.31982 75.31982 57.75172
#
# Poissons Ratio (x) = 0.28576 0.17561
# Poissons Ratio (y) = 0.28576 0.17561
# Poissons Ratio (z) = 0.22903 0.22903
#
# Static dielectric constant tensor:
#      x y z
#    x 1.628980 0.000000 0.000000 
#    y 0.000000 1.628980 0.000000 
#    z 0.000000 0.000000 1.647020 
# 
# From -- ./inp_files/3492.got.cif
#   From: 2010.05.17/outbox.cif.g08.bks.cpg/sg163_2_cif.got.tgz:3492.got - 2010.05.20 10:56:03.
