data_PCOD9578600
_publ_section_title
;
Structure prediction by ZEFSAII (Michael W. Deem and Ramdas Pophale) SiO2 
 PCOD9578600
Probable space group: P -3 M 1
;
_chemical_formula_sum "Si O2"
_cell_formula_units_Z 66
_cell_length_a 12.871043
_cell_length_b 12.871043
_cell_length_c 28.521536
_cell_angle_alpha 90.000000
_cell_angle_beta 90.000000
_cell_angle_gamma 120.000000
_cell_volume 4091.956653
_symmetry_space_group_name_H-M "P -3 M 1"
_symmetry_group_IT_number 164
_symmetry_cell_setting 'hexagonal'
loop_
_space_group_symop_operation_xyz
x,y,z
-y,x-y,z
-x+y,-x,z
x-y,-y,-z
-x,-x+y,-z
y,x,-z
-x,-y,-z
y,-x+y,-z
x-y,x,-z
-x+y,y,z
x,x-y,z
-y,-x,z
loop_
_atom_site_type_symbol
_atom_site_label
_atom_site_fract_x
_atom_site_fract_y
_atom_site_fract_z
Si Si1 0.666997 0.579972 0.088451
Si Si2 0.000187 0.754159 0.366894
Si Si3 0.752820 0.000000 0.000000
Si Si4 0.912617 0.578936 0.718063
Si Si5 0.911337 0.578213 0.825868
Si Si6 0.579720 0.913335 0.455429
O O1 0.779914 0.559827 0.092051
O O2 0.545133 0.454868 0.080550
O O3 0.692285 0.669876 0.045308
O O4 0.650350 0.636995 0.136104
O O5 0.107672 0.892329 0.366199
O O6 0.011894 0.693761 0.319246
O O7 0.028056 0.692053 0.410317
O O8 0.872974 0.745948 0.371447
O O9 0.882364 0.117637 0.993539
O O10 0.775167 0.550333 0.713862
O O11 0.918821 0.459411 0.708584
O O12 0.949651 0.616429 0.772034
O O13 0.793621 0.587242 0.835502
O O14 0.879691 0.439846 0.828813
O O15 0.449109 0.898218 0.447455
O O16 0.569536 0.784768 0.463554
O O17 0.637861 0.000000 0.500000
#
# Coordination Sequence:
#
# PCOD9578600 Si02
#       6
#    12  12   6  12  12  12
#     4  10  20  33  49  69  95 127 161 195 232 278
#     4  10  20  33  49  69  95 127 162 199 238 281
#     4  10  20  34  52  72  94 120 152 194 242 290
#     4   9  17  30  50  74  98 124 156 197 242 286
#     4   9  17  30  49  73  98 124 156 195 239 283
#     4  10  20  34  53  76 101 129 161 198 240 286
#
# _framework density 16.129204000000001
#
# number of rings (size 3 to 8) (size 9 to 14) (size 15 to 20)
#    0.000    2.364    0.000    2.909    0.000    2.182 
#    0.000    1.818    0.000   13.091    0.000    0.000 
#    0.000    0.000    0.000    0.000    0.000    0.000 
#
# Total GULP energy -368170.267187 kJ/mol
# GULP energy per Si atom -5578.337382 kJ/mol
# Density = 1.609249 g / cm^3
# Si number density = 16.129204 Si / 1000 Ang^3
#
#
#
# Elastic Constant Matrix: (Units=GPa)
#
#
# Indices 1 2 3 4 5 6 
#
# 1 120.6796 83.8483 84.5488 -0.0197 0.0000 0.0000
# 2 83.8483 120.6796 84.5488 0.0197 0.0000 0.0000
# 3 84.5488 84.5488 117.7112 0.0000 0.0000 0.0000
# 4 -0.0197 0.0197 0.0000 23.9646 0.0000 0.0000
# 5 0.0000 0.0000 0.0000 0.0000 23.9646 -0.0197
# 6 0.0000 0.0000 0.0000 0.0000 -0.0197 18.4157
#
#
#
# Elastic Compliance Matrix: (Units=1/GPa)
#
#
# Indices 1 2 3 4 5 6 
#
# 1 0.019594 -0.007556 -0.008647 0.000022 0.000000 0.000000
# 2 -0.007556 0.019594 -0.008647 -0.000022 0.000000 0.000000
# 3 -0.008647 -0.008647 0.020917 0.000000 0.000000 0.000000
# 4 0.000022 -0.000022 0.000000 0.041728 0.000000 0.000000
# 5 0.000000 0.000000 0.000000 0.000000 0.041728 0.000045
# 6 0.000000 0.000000 0.000000 0.000000 0.000045 0.054302
#
#
# Mechanical properties :
#
#
# Convention : Reuss Voigt Hill
#
# Bulk Modulus (GPa) = 96.09565 96.10689 96.10127
# Shear Modulus (GPa) = 19.91778 20.34392 20.13085
#
# Velocity S-wave (km/s) = 3.51791 3.55535 3.53668
# Velocity P-wave (km/s) = 8.72977 8.75037 8.74008
#
# Compressibility (1/GPa) = 0.01040630
#
# Stress axis : x y z
#
# Youngs Moduli (GPa) = 51.03482 51.03482 47.80873
#
# Poissons Ratio (x) = 0.38564 0.41339
# Poissons Ratio (y) = 0.38564 0.41339
# Poissons Ratio (z) = 0.44128 0.44128
#
# Static dielectric constant tensor:
#      x y z
#    x 1.510060 0.000000 0.000000 
#    y 0.000000 1.510060 0.000000 
#    z 0.000000 0.000000 1.533850 
# 
# From -- ./inp_files/5424.got.cif
#   From: 2010.05.17/outbox.cif.g08.bks.cpg/sg164_3_cif.got.tgz:5424.got - 2010.05.20 10:58:56.
