data_PCOD9578003
_publ_section_title
;
Structure prediction by ZEFSAII (Michael W. Deem and Ramdas Pophale) SiO2 
 PCOD9578003
Probable space group: P -3 1 C
;
_chemical_formula_sum "Si O2"
_cell_formula_units_Z 90
_cell_length_a 18.338918
_cell_length_b 18.338918
_cell_length_c 17.250308
_cell_angle_alpha 90.000000
_cell_angle_beta 90.000000
_cell_angle_gamma 120.000000
_cell_volume 5024.292359
_symmetry_space_group_name_H-M "P -3 1 C"
_symmetry_group_IT_number 163
_symmetry_cell_setting 'hexagonal'
loop_
_space_group_symop_operation_xyz
x,y,z
-y,x-y,z
-x+y,-x,z
-y,-x,1/2-z
-x+y,y,1/2-z
x,x-y,1/2-z
-x,-y,-z
y,-x+y,-z
x-y,x,-z
y,x,1/2+z
x-y,-y,1/2+z
-x,-x+y,1/2+z
loop_
_atom_site_type_symbol
_atom_site_label
_atom_site_fract_x
_atom_site_fract_y
_atom_site_fract_z
Si Si1 0.031866 0.239852 0.159364
Si Si2 0.535157 0.993932 0.329205
Si Si3 0.406927 0.033693 0.908901
Si Si4 0.880338 0.224940 0.394177
Si Si5 0.612641 0.702373 0.579415
Si Si6 0.073473 0.879182 0.486182
Si Si7 0.120177 0.240353 0.750000
Si Si8 0.124300 0.410975 0.251548
O O1 0.092564 0.227107 0.101881
O O2 0.081777 0.317441 0.216066
O O3 0.972630 0.262791 0.105918
O O4 0.967240 0.156019 0.205040
O O5 0.512092 0.024183 0.250000
O O6 0.462498 0.972313 0.392025
O O7 0.542153 0.913021 0.301283
O O8 0.623740 0.062913 0.364163
O O9 0.405497 0.090527 0.838313
O O10 0.324333 0.941093 0.901151
O O11 0.401910 0.070705 0.991711
O O12 0.780462 0.183392 0.408482
O O13 0.908569 0.179667 0.458018
O O14 0.891410 0.191748 0.310986
O O15 0.975217 0.848173 0.489881
O O16 0.224093 0.448185 0.250000
#
# Coordination Sequence:
#
# PCOD9578003 Si02
#       8
#    12  12  12  12  12  12   6  12
#     4  10  20  33  54  77 112 150 202 245 285 341
#     4   9  21  39  56  86 119 146 188 243 300 355
#     4  11  20  36  60  88 119 154 191 247 300 348
#     4  11  21  35  60  86 115 153 203 239 295 344
#     4  10  20  35  57  85 115 151 193 241 289 349
#     4  12  23  37  53  76 119 165 205 256 297 346
#     4  10  18  36  52  80 116 150 194 248 288 342
#     4  10  22  34  56  86 115 150 193 240 294 357
#
# _framework density 17.912970999999999
#
# number of rings (size 3 to 8) (size 9 to 14) (size 15 to 20)
#    0.000    1.600    5.333    0.533    5.600    0.000 
#    0.000    0.000    0.000    7.733    0.000    3.733 
#    0.000    0.000    0.000    0.000    0.000    0.000 
#
# Total GULP energy -502300.860159 kJ/mol
# GULP energy per Si atom -5581.120668 kJ/mol
# Density = 1.787220 g / cm^3
# Si number density = 17.912971 Si / 1000 Ang^3
#
#
#
# Elastic Constant Matrix: (Units=GPa)
#
#
# Indices 1 2 3 4 5 6 
#
# 1 74.7157 50.1950 31.1877 0.0000 3.9356 0.0000
# 2 50.1950 74.7157 31.1877 0.0000 -3.9356 0.0000
# 3 31.1877 31.1877 87.5754 0.0000 0.0000 0.0000
# 4 0.0000 0.0000 0.0000 25.1111 0.0000 -3.9356
# 5 3.9356 -3.9356 0.0000 0.0000 25.1111 0.0000
# 6 0.0000 0.0000 0.0000 -3.9356 0.0000 12.2603
#
#
#
# Elastic Compliance Matrix: (Units=1/GPa)
#
#
# Indices 1 2 3 4 5 6 
#
# 1 0.026340 -0.016602 -0.003468 0.000000 -0.006730 0.000000
# 2 -0.016602 0.026340 -0.003468 0.000000 0.006730 0.000000
# 3 -0.003468 -0.003468 0.013889 0.000000 0.000000 0.000000
# 4 0.000000 0.000000 0.000000 0.041933 0.000000 0.013460
# 5 -0.006730 0.006730 0.000000 0.000000 0.041933 0.000000
# 6 0.000000 0.000000 0.000000 0.013460 0.000000 0.085885
#
#
# Mechanical properties :
#
#
# Convention : Reuss Voigt Hill
#
# Bulk Modulus (GPa) = 51.30184 51.34974 51.32579
# Shear Modulus (GPa) = 17.24784 20.79228 19.02006
#
# Velocity S-wave (km/s) = 3.10638 3.41066 3.26207
# Velocity P-wave (km/s) = 6.44731 6.65121 6.55005
#
# Compressibility (1/GPa) = 0.01949248
#
# Stress axis : x y z
#
# Youngs Moduli (GPa) = 37.96530 37.96530 72.00152
#
# Poissons Ratio (x) = 0.63032 0.24968
# Poissons Ratio (y) = 0.63032 0.24968
# Poissons Ratio (z) = 0.13165 0.13165
#
# Static dielectric constant tensor:
#      x y z
#    x 1.615950 0.000000 0.000000 
#    y 0.000000 1.615950 0.000000 
#    z 0.000000 0.000000 1.641330 
# 
# From -- ./inp_files/3287.got.cif
#   From: 2010.05.17/outbox.cif.g08.bks.cpg/sg163_2_cif.got.tgz:3287.got - 2010.05.20 10:56:03.
