data_PCOD9578968
_publ_section_title
;
Structure prediction by ZEFSAII (Michael W. Deem and Ramdas Pophale) SiO2 
 PCOD9578968
Probable space group: P -3 C 1
;
_chemical_formula_sum "Si O2"
_cell_formula_units_Z 48
_cell_length_a 12.674812
_cell_length_b 12.674812
_cell_length_c 16.241253
_cell_angle_alpha 90.000000
_cell_angle_beta 90.000000
_cell_angle_gamma 120.000000
_cell_volume 2259.608585
_symmetry_space_group_name_H-M "P -3 C 1"
_symmetry_group_IT_number 165
_symmetry_cell_setting 'hexagonal'
loop_
_space_group_symop_operation_xyz
x,y,z
-y,x-y,z
-x+y,-x,z
x-y,-y,1/2-z
-x,-x+y,1/2-z
y,x,1/2-z
-x,-y,-z
y,-x+y,-z
x-y,x,-z
-x+y,y,1/2+z
x,x-y,1/2+z
-y,-x,1/2+z
loop_
_atom_site_type_symbol
_atom_site_label
_atom_site_fract_x
_atom_site_fract_y
_atom_site_fract_z
Si Si1 0.666667 0.333335 0.942811
Si Si2 0.000000 0.000000 0.901120
Si Si3 0.596822 0.073927 0.431298
Si Si4 0.333334 0.666667 0.758473
Si Si5 0.733871 0.788077 0.658329
Si Si6 0.554466 0.674796 0.207776
O O1 0.542200 0.212971 0.965678
O O2 0.666668 0.333334 0.842492
O O3 0.133537 0.028676 0.869622
O O4 0.000000 0.000000 0.000000
O O5 0.675611 0.011863 0.404682
O O6 0.524610 0.084334 0.351707
O O7 0.500000 0.000000 0.500000
O O8 0.216855 0.679551 0.775054
O O9 0.746791 0.746791 0.750000
O O10 0.630962 0.827774 0.663073
O O11 0.654235 0.654235 0.250000
#
# Coordination Sequence:
#
# PCOD9578968 Si02
#       6
#     4   4  12   4  12  12
#     4   9  18  45  58  92 142 171 214 308 355 429
#     4  12  31  47  73 114 154 197 259 312 376 455
#     4  11  23  42  72  99 140 188 237 301 372 434
#     4   9  18  36  61  92 130 165 226 281 358 414
#     4  12  25  49  74 104 148 199 247 303 375 459
#     4  11  21  41  67  95 135 182 233 299 361 434
#
# _framework density 21.242616999999999
#
# number of rings (size 3 to 8) (size 9 to 14) (size 15 to 20)
#    0.000    1.000    7.500    3.000    3.500    0.000 
#    4.500    0.000    0.000    0.000    0.000    0.000 
#    0.000    0.000    0.000    0.000    0.000    0.000 
#
# Total GULP energy -267653.812258 kJ/mol
# GULP energy per Si atom -5576.121089 kJ/mol
# Density = 2.119427 g / cm^3
# Si number density = 21.242617 Si / 1000 Ang^3
#
#
#
# Elastic Constant Matrix: (Units=GPa)
#
#
# Indices 1 2 3 4 5 6 
#
# 1 116.1791 44.6035 32.0663 -3.1480 0.0000 0.0000
# 2 44.6035 116.1797 32.0665 3.1481 0.0000 0.0000
# 3 32.0663 32.0665 40.0566 0.0000 0.0000 0.0000
# 4 -3.1480 3.1481 0.0000 28.0291 0.0000 0.0000
# 5 0.0000 0.0000 0.0000 0.0000 28.0288 -3.1483
# 6 0.0000 0.0000 0.0000 0.0000 -3.1483 35.7885
#
#
#
# Elastic Compliance Matrix: (Units=1/GPa)
#
#
# Indices 1 2 3 4 5 6 
#
# 1 0.011624 -0.002487 -0.007315 0.001585 0.000000 0.000000
# 2 -0.002487 0.011624 -0.007315 -0.001585 0.000000 0.000000
# 3 -0.007315 -0.007315 0.036676 0.000000 0.000000 0.000000
# 4 0.001585 -0.001585 0.000000 0.036033 0.000000 0.000000
# 5 0.000000 0.000000 0.000000 0.000000 0.036034 0.003170
# 6 0.000000 0.000000 0.000000 0.000000 0.003170 0.028221
#
#
# Mechanical properties :
#
#
# Convention : Reuss Voigt Hill
#
# Bulk Modulus (GPa) = 38.92290 54.43198 46.67744
# Shear Modulus (GPa) = 24.62974 29.28123 26.95549
#
# Velocity S-wave (km/s) = 3.40876 3.71673 3.56608
# Velocity P-wave (km/s) = 5.81856 6.64066 6.24316
#
# Compressibility (1/GPa) = 0.02569181
#
# Stress axis : x y z
#
# Youngs Moduli (GPa) = 86.02967 86.02987 27.26602
#
# Poissons Ratio (x) = 0.21393 0.19944
# Poissons Ratio (y) = 0.21393 0.19944
# Poissons Ratio (z) = 0.62927 0.62927
#
# Static dielectric constant tensor:
#      x y z
#    x 1.766820 0.000000 0.000000 
#    y 0.000000 1.766500 0.000030 
#    z 0.000000 0.000030 1.847770 
# 
# From -- ./inp_files/2558.got.cif
#   From: 2010.05.17/outbox.cif.g08.bks.cpg/sg165_2_cif.got.tgz:2558.got - 2010.05.20 11:02:39.
