data_PCOD9578722
_publ_section_title
;
Structure prediction by ZEFSAII (Michael W. Deem and Ramdas Pophale) SiO2 
 PCOD9578722
Probable space group: P -3 M 1
;
_chemical_formula_sum "Si O2"
_cell_formula_units_Z 42
_cell_length_a 20.657119
_cell_length_b 20.657119
_cell_length_c 5.133008
_cell_angle_alpha 90.000000
_cell_angle_beta 90.000000
_cell_angle_gamma 120.000000
_cell_volume 1896.889688
_symmetry_space_group_name_H-M "P -3 M 1"
_symmetry_group_IT_number 164
_symmetry_cell_setting 'hexagonal'
loop_
_space_group_symop_operation_xyz
x,y,z
-y,x-y,z
-x+y,-x,z
x-y,-y,-z
-x,-x+y,-z
y,x,-z
-x,-y,-z
y,-x+y,-z
x-y,x,-z
-x+y,y,z
x,x-y,z
-y,-x,z
loop_
_atom_site_type_symbol
_atom_site_label
_atom_site_fract_x
_atom_site_fract_y
_atom_site_fract_z
Si Si1 0.473097 0.526904 0.747521
Si Si2 0.405010 0.084522 0.108137
Si Si3 0.469702 0.234851 0.816062
Si Si4 0.949036 0.747196 0.256712
Si Si5 0.715187 0.284814 0.319038
O O1 0.500000 0.500000 0.500000
O O2 0.518494 0.616696 0.760259
O O3 0.500000 0.500000 0.000000
O O4 0.423595 0.147208 0.889672
O O5 0.341888 0.083817 0.291037
O O6 0.366030 0.000000 0.000000
O O7 0.537077 0.268539 0.028389
O O8 0.503862 0.251931 0.529499
O O9 0.880493 0.760986 0.226315
O O10 0.000000 0.789414 0.500000
O O11 0.000000 0.772809 0.000000
O O12 0.746712 0.373356 0.358192
#
# Coordination Sequence:
#
# PCOD9578722 Si02
#       5
#     6  12   6  12   6
#     4  10  22  38  60  90 128 170 210 268 330 386
#     4  10  24  44  67 101 135 177 225 282 339 412
#     4  12  24  44  71  98 136 178 229 281 352 402
#     4  11  23  43  70 101 140 178 229 277 340 408
#     4  10  26  44  67  96 131 178 232 281 330 398
#
# _framework density 22.14151
#
# number of rings (size 3 to 8) (size 9 to 14) (size 15 to 20)
#    0.286    1.143    1.429    2.571    4.000    9.143 
#    0.000    0.000    0.000    5.714    0.000    0.000 
#    0.000    0.000    0.000    0.000    0.000    0.000 
#
# Total GULP energy -234927.018820 kJ/mol
# GULP energy per Si atom -5593.500448 kJ/mol
# Density = 2.209111 g / cm^3
# Si number density = 22.141510 Si / 1000 Ang^3
#
#
#
# Elastic Constant Matrix: (Units=GPa)
#
#
# Indices 1 2 3 4 5 6 
#
# 1 135.0218 58.5586 29.1518 5.5243 0.0000 0.0000
# 2 58.5586 135.0218 29.1518 -5.5243 0.0000 0.0000
# 3 29.1518 29.1518 100.6772 0.0000 0.0000 0.0000
# 4 5.5243 -5.5243 0.0000 34.8362 0.0000 0.0000
# 5 0.0000 0.0000 0.0000 0.0000 34.8362 5.5243
# 6 0.0000 0.0000 0.0000 0.0000 5.5243 38.2316
#
#
#
# Elastic Compliance Matrix: (Units=1/GPa)
#
#
# Indices 1 2 3 4 5 6 
#
# 1 0.009522 -0.003863 -0.001639 -0.002123 0.000000 0.000000
# 2 -0.003863 0.009522 -0.001639 0.002123 0.000000 0.000000
# 3 -0.001639 -0.001639 0.010882 0.000000 0.000000 0.000000
# 4 -0.002123 0.002123 0.000000 0.029379 0.000000 0.000000
# 5 0.000000 0.000000 0.000000 0.000000 0.029379 -0.004245
# 6 0.000000 0.000000 0.000000 0.000000 -0.004245 0.026770
#
#
# Mechanical properties :
#
#
# Convention : Reuss Voigt Hill
#
# Bulk Modulus (GPa) = 63.91562 67.16059 65.53810
# Shear Modulus (GPa) = 37.05094 38.50470 37.77782
#
# Velocity S-wave (km/s) = 4.09512 4.17469 4.13510
# Velocity P-wave (km/s) = 7.16167 7.32364 7.24311
#
# Compressibility (1/GPa) = 0.01564563
#
# Stress axis : x y z
#
# Youngs Moduli (GPa) = 105.01852 105.01852 91.89711
#
# Poissons Ratio (x) = 0.40566 0.15059
# Poissons Ratio (y) = 0.40566 0.15059
# Poissons Ratio (z) = 0.17209 0.17209
#
# Static dielectric constant tensor:
#      x y z
#    x 1.844250 0.000000 0.000000 
#    y 0.000000 1.844250 0.000000 
#    z 0.000000 0.000000 1.766050 
# 
# From -- ./inp_files/359.got.cif
#   From: 2010.05.17/outbox.cif.g08.bks.cpg/sg164_1_cif.got.tgz:359.got - 2010.05.20 10:58:56.
