data_PCOD9578455
_publ_section_title
;
Structure prediction by ZEFSAII (Michael W. Deem and Ramdas Pophale) SiO2 
 PCOD9578455
Probable space group: P -3 M 1
;
_chemical_formula_sum "Si O2"
_cell_formula_units_Z 96
_cell_length_a 17.905153
_cell_length_b 17.905153
_cell_length_c 20.073680
_cell_angle_alpha 90.000000
_cell_angle_beta 90.000000
_cell_angle_gamma 120.000000
_cell_volume 5573.316430
_symmetry_space_group_name_H-M "P -3 M 1"
_symmetry_group_IT_number 164
_symmetry_cell_setting 'hexagonal'
loop_
_space_group_symop_operation_xyz
x,y,z
-y,x-y,z
-x+y,-x,z
x-y,-y,-z
-x,-x+y,-z
y,x,-z
-x,-y,-z
y,-x+y,-z
x-y,x,-z
-x+y,y,z
x,x-y,z
-y,-x,z
loop_
_atom_site_type_symbol
_atom_site_label
_atom_site_fract_x
_atom_site_fract_y
_atom_site_fract_z
Si Si1 0.000504 0.177182 0.078544
Si Si2 0.497705 0.333173 0.631100
Si Si3 0.334011 0.487204 0.749455
Si Si4 0.366227 0.971798 0.625605
Si Si5 0.247964 0.316331 0.814012
Si Si6 0.497275 0.830916 0.528445
Si Si7 0.832840 0.001915 0.716731
Si Si8 0.767861 0.967358 0.573889
O O1 0.089658 0.179316 0.093670
O O2 0.985275 0.242421 0.124064
O O3 0.919154 0.080847 0.090186
O O4 0.000000 0.195409 0.000000
O O5 0.474780 0.237390 0.654173
O O6 0.596857 0.403144 0.646610
O O7 0.439607 0.375000 0.651773
O O8 0.488647 0.328506 0.550700
O O9 0.248378 0.496755 0.748153
O O10 0.420734 0.579267 0.756495
O O11 0.339691 0.440549 0.682217
O O12 0.320786 0.415411 0.805090
O O13 0.379063 0.923529 0.562915
O O14 0.292865 0.988581 0.596263
O O15 0.160199 0.320398 0.817317
O O16 0.236835 0.259129 0.748105
O O17 0.396142 0.792283 0.540696
O O18 0.524789 0.762394 0.552823
O O19 0.849853 0.924927 0.737563
O O20 0.831854 0.001960 0.636554
O O21 0.907322 0.092679 0.741650
O O22 0.730478 0.865239 0.573487
O O23 0.802023 0.000000 0.500000
#
# Coordination Sequence:
#
# PCOD9578455 Si02
#       8
#    12  12  12  12  12  12  12  12
#     4   9  16  27  48  81 121 161 194 220 247 286
#     4  10  21  36  51  68  89 117 150 191 247 314
#     4  11  22  38  57  77 100 129 166 210 263 322
#     4  12  22  34  51  70  95 118 156 208 263 315
#     4   9  18  33  50  73 106 139 173 213 255 301
#     4  10  19  31  48  68  91 116 146 187 242 308
#     4  10  19  32  49  70  98 135 177 218 258 300
#     4  11  22  35  49  67  95 132 173 218 265 313
#
# _framework density 17.224931999999999
#
# number of rings (size 3 to 8) (size 9 to 14) (size 15 to 20)
#    0.000    1.750    1.250    4.750    0.000    4.500 
#    0.000    2.500    0.000    2.375    0.000    0.000 
#    0.000    0.000    0.000    0.500    0.000    4.125 
#
# Total GULP energy -534800.605435 kJ/mol
# GULP energy per Si atom -5570.839640 kJ/mol
# Density = 1.718573 g / cm^3
# Si number density = 17.224932 Si / 1000 Ang^3
#
#
#
# Elastic Constant Matrix: (Units=GPa)
#
#
# Indices 1 2 3 4 5 6 
#
# 1 81.5712 47.6190 18.3081 1.7714 0.0000 0.0000
# 2 47.6190 81.5712 18.3081 -1.7714 0.0000 0.0000
# 3 18.3081 18.3081 69.1739 0.0000 0.0000 0.0000
# 4 1.7714 -1.7714 0.0000 12.6489 0.0000 0.0000
# 5 0.0000 0.0000 0.0000 0.0000 12.6489 1.7714
# 6 0.0000 0.0000 0.0000 0.0000 1.7714 16.9761
#
#
#
# Elastic Compliance Matrix: (Units=1/GPa)
#
#
# Indices 1 2 3 4 5 6 
#
# 1 0.019129 -0.010761 -0.002215 -0.004186 0.000000 0.000000
# 2 -0.010761 0.019129 -0.002215 0.004186 0.000000 0.000000
# 3 -0.002215 -0.002215 0.015629 0.000000 0.000000 0.000000
# 4 -0.004186 0.004186 0.000000 0.080230 0.000000 0.000000
# 5 0.000000 0.000000 0.000000 0.000000 0.080230 -0.008372
# 6 0.000000 0.000000 0.000000 0.000000 -0.008372 0.059780
#
#
# Mechanical properties :
#
#
# Convention : Reuss Voigt Hill
#
# Bulk Modulus (GPa) = 42.54235 44.53185 43.53710
# Shear Modulus (GPa) = 16.00800 18.32686 17.16743
#
# Velocity S-wave (km/s) = 3.05183 3.26540 3.16042
# Velocity P-wave (km/s) = 6.09672 6.33454 6.21677
#
# Compressibility (1/GPa) = 0.02350599
#
# Stress axis : x y z
#
# Youngs Moduli (GPa) = 52.27635 52.27635 63.98486
#
# Poissons Ratio (x) = 0.56254 0.14171
# Poissons Ratio (y) = 0.56254 0.14171
# Poissons Ratio (z) = 0.11578 0.11578
#
# Static dielectric constant tensor:
#      x y z
#    x 1.634860 0.000000 0.000000 
#    y 0.000000 1.634860 0.000000 
#    z 0.000000 0.000000 1.603950 
# 
# From -- ./inp_files/5074.got.cif
#   From: 2010.05.17/outbox.cif.g08.bks.cpg/sg164_3_cif.got.tgz:5074.got - 2010.05.20 10:58:56.
