data_PCOD9578983
_publ_section_title
;
Structure prediction by ZEFSAII (Michael W. Deem and Ramdas Pophale) SiO2 
 PCOD9578983
Probable space group: P -3 C 1
;
_chemical_formula_sum "Si O2"
_cell_formula_units_Z 58
_cell_length_a 15.584263
_cell_length_b 15.584263
_cell_length_c 13.534918
_cell_angle_alpha 90.000000
_cell_angle_beta 90.000000
_cell_angle_gamma 120.000000
_cell_volume 2846.812068
_symmetry_space_group_name_H-M "P -3 C 1"
_symmetry_group_IT_number 165
_symmetry_cell_setting 'hexagonal'
loop_
_space_group_symop_operation_xyz
x,y,z
-y,x-y,z
-x+y,-x,z
x-y,-y,1/2-z
-x,-x+y,1/2-z
y,x,1/2-z
-x,-y,-z
y,-x+y,-z
x-y,x,-z
-x+y,y,1/2+z
x,x-y,1/2+z
-y,-x,1/2+z
loop_
_atom_site_type_symbol
_atom_site_label
_atom_site_fract_x
_atom_site_fract_y
_atom_site_fract_z
Si Si1 0.772595 0.916931 0.828581
Si Si2 0.000000 0.000000 0.884599
Si Si3 0.523480 0.665186 0.178429
Si Si4 0.527617 0.667141 0.610265
Si Si5 0.300441 0.000000 0.750000
Si Si6 0.600260 0.675527 0.397477
O O1 0.885652 0.949624 0.853094
O O2 0.720281 0.806392 0.786837
O O3 0.700918 0.919145 0.912335
O O4 0.783832 0.000000 0.750000
O O5 0.000000 0.000000 0.000000
O O6 0.539389 0.765831 0.131371
O O7 0.413885 0.574966 0.158826
O O8 0.548907 0.680468 0.295333
O O9 0.594608 0.632284 0.124831
O O10 0.617902 0.662996 0.664227
O O11 0.533386 0.650812 0.493893
#
# Coordination Sequence:
#
# PCOD9578983 Si02
#       6
#    12   4  12  12   6  12
#     4  12  22  43  64  98 145 190 231 287 349 412
#     4  12  28  35  64 105 151 194 244 289 332 430
#     4  11  25  48  66 104 138 176 228 294 343 421
#     4  12  27  45  75 102 136 184 234 290 356 423
#     4  12  24  42  68 104 136 184 240 286 342 430
#     4  11  25  45  72  97 139 182 227 287 355 415
#
# _framework density 20.373667000000001
#
# number of rings (size 3 to 8) (size 9 to 14) (size 15 to 20)
#    0.000    0.414    6.207    2.276    5.793    1.655 
#    0.000    0.000    0.000    0.000    0.000    0.000 
#    0.000    0.000    0.000    0.000    0.000    0.000 
#
# Total GULP energy -324306.684713 kJ/mol
# GULP energy per Si atom -5591.494564 kJ/mol
# Density = 2.032730 g / cm^3
# Si number density = 20.373667 Si / 1000 Ang^3
#
#
#
# Elastic Constant Matrix: (Units=GPa)
#
#
# Indices 1 2 3 4 5 6 
#
# 1 73.2966 3.5711 44.8832 0.5614 0.0000 0.0000
# 2 3.5711 73.2966 44.8832 -0.5614 0.0000 0.0000
# 3 44.8832 44.8832 126.9017 0.0000 0.0000 0.0000
# 4 0.5614 -0.5614 0.0000 16.1386 0.0000 0.0000
# 5 0.0000 0.0000 0.0000 0.0000 16.1386 0.5614
# 6 0.0000 0.0000 0.0000 0.0000 0.5614 34.8628
#
#
#
# Elastic Compliance Matrix: (Units=1/GPa)
#
#
# Indices 1 2 3 4 5 6 
#
# 1 0.018257 0.003907 -0.007839 -0.000499 0.000000 0.000000
# 2 0.003907 0.018257 -0.007839 0.000499 0.000000 0.000000
# 3 -0.007839 -0.007839 0.013425 0.000000 0.000000 0.000000
# 4 -0.000499 0.000499 0.000000 0.061998 0.000000 0.000000
# 5 0.000000 0.000000 0.000000 0.000000 0.061998 -0.000998
# 6 0.000000 0.000000 0.000000 0.000000 -0.000998 0.028700
#
#
# Mechanical properties :
#
#
# Convention : Reuss Voigt Hill
#
# Bulk Modulus (GPa) = 37.88347 51.12998 44.50672
# Shear Modulus (GPa) = 21.27879 25.43850 23.35865
#
# Velocity S-wave (km/s) = 3.23526 3.53738 3.38969
# Velocity P-wave (km/s) = 5.70882 6.46797 6.10022
#
# Compressibility (1/GPa) = 0.02639674
#
# Stress axis : x y z
#
# Youngs Moduli (GPa) = 54.77396 54.77396 74.48704
#
# Poissons Ratio (x) = -0.21399 0.58390
# Poissons Ratio (y) = -0.21399 0.58390
# Poissons Ratio (z) = 0.42937 0.42937
#
# Static dielectric constant tensor:
#      x y z
#    x 1.728540 0.000000 0.000000 
#    y 0.000000 1.728540 0.000000 
#    z 0.000000 0.000000 1.713890 
# 
# From -- ./inp_files/1708.got.cif
#   From: 2010.05.17/outbox.cif.g08.bks.cpg/sg165_1_cif.got.tgz:1708.got - 2010.05.20 11:02:39.
