data_PCOD9578850
_publ_section_title
;
Structure prediction by ZEFSAII (Michael W. Deem and Ramdas Pophale) SiO2 
 PCOD9578850
Probable space group: P -3 C 1
;
_chemical_formula_sum "Si O2"
_cell_formula_units_Z 60
_cell_length_a 12.616696
_cell_length_b 12.616696
_cell_length_c 21.874748
_cell_angle_alpha 90.000000
_cell_angle_beta 90.000000
_cell_angle_gamma 120.000000
_cell_volume 3015.539128
_symmetry_space_group_name_H-M "P -3 C 1"
_symmetry_group_IT_number 165
_symmetry_cell_setting 'hexagonal'
loop_
_space_group_symop_operation_xyz
x,y,z
-y,x-y,z
-x+y,-x,z
x-y,-y,1/2-z
-x,-x+y,1/2-z
y,x,1/2-z
-x,-y,-z
y,-x+y,-z
x-y,x,-z
-x+y,y,1/2+z
x,x-y,1/2+z
-y,-x,1/2+z
loop_
_atom_site_type_symbol
_atom_site_label
_atom_site_fract_x
_atom_site_fract_y
_atom_site_fract_z
Si Si1 0.271596 0.230606 0.067537
Si Si2 0.584086 0.661529 0.189868
Si Si3 0.203449 0.675514 0.370010
Si Si4 0.038453 0.777281 0.575203
Si Si5 0.328500 0.874156 0.732649
O O1 0.402120 0.302023 0.101459
O O2 0.164174 0.258388 0.085133
O O3 0.215658 0.085487 0.078990
O O4 0.299088 0.257065 0.995328
O O5 0.655879 0.655879 0.250000
O O6 0.653708 0.682586 0.126570
O O7 0.565108 0.776634 0.197636
O O8 0.451979 0.540200 0.195190
O O9 0.215460 0.556793 0.386578
O O10 0.186480 0.669762 0.297046
O O11 0.332779 0.000000 0.750000
#
# Coordination Sequence:
#
# PCOD9578850 Si02
#       5
#    12  12  12  12  12
#     4  10  21  42  65  93 126 174 217 265 331 376
#     4  11  22  38  60  90 123 160 210 257 314 383
#     4  10  20  38  62  85 124 173 213 252 321 400
#     4  10  22  40  64  94 126 166 219 272 315 390
#     4  11  21  36  59  86 121 162 203 260 314 378
#
# _framework density 19.896939
#
# number of rings (size 3 to 8) (size 9 to 14) (size 15 to 20)
#    0.400    1.200    2.000    3.200    2.800    1.600 
#    3.600    2.000    0.000    0.400    0.000    0.000 
#    0.000    0.000    0.000    0.000    0.000    0.000 
#
# Total GULP energy -334740.796272 kJ/mol
# GULP energy per Si atom -5579.013271 kJ/mol
# Density = 1.985165 g / cm^3
# Si number density = 19.896939 Si / 1000 Ang^3
#
#
#
# Elastic Constant Matrix: (Units=GPa)
#
#
# Indices 1 2 3 4 5 6 
#
# 1 94.4363 31.3590 49.3157 2.4453 0.0000 0.0000
# 2 31.3590 94.4363 49.3157 -2.4453 0.0000 0.0000
# 3 49.3157 49.3157 105.2293 0.0000 0.0000 0.0000
# 4 2.4453 -2.4453 0.0000 23.4571 0.0000 0.0000
# 5 0.0000 0.0000 0.0000 0.0000 23.4571 2.4453
# 6 0.0000 0.0000 0.0000 0.0000 2.4453 31.5386
#
#
#
# Elastic Compliance Matrix: (Units=1/GPa)
#
#
# Indices 1 2 3 4 5 6 
#
# 1 0.014275 -0.001708 -0.005890 -0.001666 0.000000 0.000000
# 2 -0.001708 0.014275 -0.005890 0.001666 0.000000 0.000000
# 3 -0.005890 -0.005890 0.015023 0.000000 0.000000 0.000000
# 4 -0.001666 0.001666 0.000000 0.042978 0.000000 0.000000
# 5 0.000000 0.000000 0.000000 0.000000 0.042978 -0.003332
# 6 0.000000 0.000000 0.000000 0.000000 -0.003332 0.031966
#
#
# Mechanical properties :
#
#
# Convention : Reuss Voigt Hill
#
# Bulk Modulus (GPa) = 60.24326 61.56476 60.90401
# Shear Modulus (GPa) = 25.77280 26.63132 26.20206
#
# Velocity S-wave (km/s) = 3.60295 3.66247 3.63283
# Velocity P-wave (km/s) = 6.90302 6.99242 6.94786
#
# Compressibility (1/GPa) = 0.01659937
#
# Stress axis : x y z
#
# Youngs Moduli (GPa) = 70.05243 70.05243 66.56267
#
# Poissons Ratio (x) = 0.11963 0.39203
# Poissons Ratio (y) = 0.11963 0.39203
# Poissons Ratio (z) = 0.41259 0.41259
#
# Static dielectric constant tensor:
#      x y z
#    x 1.722220 0.000000 0.000000 
#    y 0.000000 1.722220 0.000000 
#    z 0.000000 0.000000 1.699600 
# 
# From -- ./inp_files/2635.got.cif
#   From: 2010.05.17/outbox.cif.g08.bks.cpg/sg165_2_cif.got.tgz:2635.got - 2010.05.20 11:02:39.
