data_PCOD9578596
_publ_section_title
;
Structure prediction by ZEFSAII (Michael W. Deem and Ramdas Pophale) SiO2 
 PCOD9578596
Probable space group: P -3 M 1
;
_chemical_formula_sum "Si O2"
_cell_formula_units_Z 72
_cell_length_a 17.969128
_cell_length_b 17.969128
_cell_length_c 15.601167
_cell_angle_alpha 90.000000
_cell_angle_beta 90.000000
_cell_angle_gamma 120.000000
_cell_volume 4362.563104
_symmetry_space_group_name_H-M "P -3 M 1"
_symmetry_group_IT_number 164
_symmetry_cell_setting 'hexagonal'
loop_
_space_group_symop_operation_xyz
x,y,z
-y,x-y,z
-x+y,-x,z
x-y,-y,-z
-x,-x+y,-z
y,x,-z
-x,-y,-z
y,-x+y,-z
x-y,x,-z
-x+y,y,z
x,x-y,z
-y,-x,z
loop_
_atom_site_type_symbol
_atom_site_label
_atom_site_fract_x
_atom_site_fract_y
_atom_site_fract_z
Si Si1 0.999952 0.821840 0.742677
Si Si2 0.939733 0.700771 0.581154
Si Si3 0.408694 0.980924 0.899077
Si Si4 0.332452 0.833196 0.181472
Si Si5 0.838103 0.333715 0.611795
Si Si6 0.287016 0.230887 0.086625
O O1 0.917648 0.835296 0.742502
O O2 0.984315 0.753352 0.667833
O O3 0.008309 0.785380 0.834368
O O4 0.088051 0.911950 0.728170
O O5 0.851937 0.703873 0.572562
O O6 0.910171 0.599998 0.585714
O O7 0.000000 0.743644 0.500000
O O8 0.474649 0.949298 0.870516
O O9 0.307234 0.925497 0.886969
O O10 0.439069 0.072416 0.854513
O O11 0.423354 0.000000 0.000000
O O12 0.403536 0.807073 0.156492
O O13 0.238219 0.761782 0.151921
O O14 0.332103 0.836610 0.284426
O O15 0.851034 0.425517 0.584153
O O16 0.744958 0.255043 0.583876
O O17 0.287174 0.143587 0.070671
O O18 0.258544 0.258544 0.000000
#
# Coordination Sequence:
#
# PCOD9578596 Si02
#       6
#    12  12  12  12  12  12
#     4  10  20  34  51  71  96 126 161 201 244 288
#     4  10  20  33  49  69  94 126 163 201 238 277
#     4   9  18  30  43  62  90 123 155 187 224 269
#     4   9  16  27  45  69  95 121 150 186 230 281
#     4   9  17  29  47  71  97 123 150 185 233 287
#     4  10  20  33  51  74  98 125 157 195 241 291
#
# _framework density 16.504059999999999
#
# number of rings (size 3 to 8) (size 9 to 14) (size 15 to 20)
#    0.000    2.500    0.000    2.500    0.000    6.333 
#    0.000    0.000    0.000    5.667    0.000    0.000 
#    0.000    0.000    0.000    0.000    0.000    3.167 
#
# Total GULP energy -401136.210530 kJ/mol
# GULP energy per Si atom -5571.336257 kJ/mol
# Density = 1.646650 g / cm^3
# Si number density = 16.504060 Si / 1000 Ang^3
#
#
#
# Elastic Constant Matrix: (Units=GPa)
#
#
# Indices 1 2 3 4 5 6 
#
# 1 80.4300 50.1106 38.8750 -3.4992 0.0000 0.0000
# 2 50.1106 80.4300 38.8750 3.4992 0.0000 0.0000
# 3 38.8750 38.8750 59.0094 0.0000 0.0000 0.0000
# 4 -3.4992 3.4992 0.0000 18.7684 0.0000 0.0000
# 5 0.0000 0.0000 0.0000 0.0000 18.7684 -3.4992
# 6 0.0000 0.0000 0.0000 0.0000 -3.4992 15.1597
#
#
#
# Elastic Compliance Matrix: (Units=1/GPa)
#
#
# Indices 1 2 3 4 5 6 
#
# 1 0.023536 -0.010929 -0.008306 0.006426 0.000000 0.000000
# 2 -0.010929 0.023536 -0.008306 -0.006426 0.000000 0.000000
# 3 -0.008306 -0.008306 0.027890 0.000000 0.000000 0.000000
# 4 0.006426 -0.006426 0.000000 0.055677 0.000000 0.000000
# 5 0.000000 0.000000 0.000000 0.000000 0.055677 0.012852
# 6 0.000000 0.000000 0.000000 0.000000 0.012852 0.068931
#
#
# Mechanical properties :
#
#
# Convention : Reuss Voigt Hill
#
# Bulk Modulus (GPa) = 50.29684 52.84341 51.57013
# Shear Modulus (GPa) = 15.77508 16.67320 16.22414
#
# Velocity S-wave (km/s) = 3.09500 3.18189 3.13875
# Velocity P-wave (km/s) = 6.58131 6.75183 6.66711
#
# Compressibility (1/GPa) = 0.01988196
#
# Stress axis : x y z
#
# Youngs Moduli (GPa) = 42.48748 42.48748 35.85541
#
# Poissons Ratio (x) = 0.46435 0.29780
# Poissons Ratio (y) = 0.46435 0.29780
# Poissons Ratio (z) = 0.35288 0.35288
#
# Static dielectric constant tensor:
#      x y z
#    x 1.567790 0.000000 0.000000 
#    y 0.000000 1.567790 0.000000 
#    z 0.000000 0.000000 1.554070 
# 
# From -- ./inp_files/4102.got.cif
#   From: 2010.05.17/outbox.cif.g08.bks.cpg/sg164_3_cif.got.tgz:4102.got - 2010.05.20 10:58:56.
