data_PCOD9578997
_publ_section_title
;
Structure prediction by ZEFSAII (Michael W. Deem and Ramdas Pophale) SiO2 
 PCOD9578997
Probable space group: P -3 C 1
;
_chemical_formula_sum "Si O2"
_cell_formula_units_Z 60
_cell_length_a 19.237001
_cell_length_b 19.237001
_cell_length_c 8.989579
_cell_angle_alpha 90.000000
_cell_angle_beta 90.000000
_cell_angle_gamma 120.000000
_cell_volume 2881.009698
_symmetry_space_group_name_H-M "P -3 C 1"
_symmetry_group_IT_number 165
_symmetry_cell_setting 'hexagonal'
loop_
_space_group_symop_operation_xyz
x,y,z
-y,x-y,z
-x+y,-x,z
x-y,-y,1/2-z
-x,-x+y,1/2-z
y,x,1/2-z
-x,-y,-z
y,-x+y,-z
x-y,x,-z
-x+y,y,1/2+z
x,x-y,1/2+z
-y,-x,1/2+z
loop_
_atom_site_type_symbol
_atom_site_label
_atom_site_fract_x
_atom_site_fract_y
_atom_site_fract_z
Si Si1 0.715772 0.567640 0.759421
Si Si2 0.011812 0.162938 0.490793
Si Si3 0.000000 0.259271 0.750000
Si Si4 0.702798 0.130549 0.898562
Si Si5 0.261947 0.261947 0.750000
Si Si6 0.063692 0.544815 0.130540
O O1 0.731784 0.656359 0.794114
O O2 0.790284 0.559567 0.815362
O O3 0.705103 0.561109 0.578369
O O4 0.637778 0.507226 0.857014
O O5 0.079744 0.146048 0.554316
O O6 0.980499 0.199390 0.615120
O O7 0.043368 0.230003 0.361948
O O8 0.613521 0.104600 0.843085
O O9 0.719958 0.059754 0.846369
O O10 0.000000 0.538491 0.250000
O O11 0.000000 0.500000 0.000000
#
# Coordination Sequence:
#
# PCOD9578997 Si02
#       6
#    12  12   6  12   6  12
#     4  12  27  46  75 109 145 187 241 301 366 435
#     4  12  25  43  63  93 135 185 234 290 354 422
#     4  12  24  43  67 102 140 174 240 298 354 418
#     4  12  27  45  75 109 143 188 239 302 365 436
#     4  12  26  43  67 104 136 182 240 298 356 416
#     4  12  25  49  76 110 149 195 246 300 371 453
#
# _framework density 20.826032999999999
#
# number of rings (size 3 to 8) (size 9 to 14) (size 15 to 20)
#    0.000    0.000    6.000    3.800    5.600    0.000 
#    1.200    2.000    0.000    0.000    0.000    0.000 
#    0.000    0.000    0.000    0.000    0.000    0.000 
#
# Total GULP energy -334921.398336 kJ/mol
# GULP energy per Si atom -5582.023306 kJ/mol
# Density = 2.077863 g / cm^3
# Si number density = 20.826033 Si / 1000 Ang^3
#
#
#
# Elastic Constant Matrix: (Units=GPa)
#
#
# Indices 1 2 3 4 5 6 
#
# 1 128.0874 64.4921 6.7443 -9.7267 0.0000 0.0000
# 2 64.4921 128.0874 6.7443 9.7267 0.0000 0.0000
# 3 6.7443 6.7443 60.2821 0.0000 0.0000 0.0000
# 4 -9.7267 9.7267 0.0000 25.6455 0.0000 0.0000
# 5 0.0000 0.0000 0.0000 0.0000 25.6455 -9.7267
# 6 0.0000 0.0000 0.0000 0.0000 -9.7267 31.7976
#
#
#
# Elastic Compliance Matrix: (Units=1/GPa)
#
#
# Indices 1 2 3 4 5 6 
#
# 1 0.011511 -0.006277 -0.000586 0.006747 0.000000 0.000000
# 2 -0.006277 0.011511 -0.000586 -0.006747 0.000000 0.000000
# 3 -0.000586 -0.000586 0.016720 0.000000 0.000000 0.000000
# 4 0.006747 -0.006747 0.000000 0.044111 0.000000 0.000000
# 5 0.000000 0.000000 0.000000 0.000000 0.044111 0.013493
# 6 0.000000 0.000000 0.000000 0.000000 0.013493 0.035576
#
#
# Mechanical properties :
#
#
# Convention : Reuss Voigt Hill
#
# Bulk Modulus (GPa) = 40.24974 52.49094 46.37034
# Shear Modulus (GPa) = 26.77836 32.51615 29.64726
#
# Velocity S-wave (km/s) = 3.58971 3.95564 3.77711
# Velocity P-wave (km/s) = 6.04566 6.79132 6.42931
#
# Compressibility (1/GPa) = 0.02484488
#
# Stress axis : x y z
#
# Youngs Moduli (GPa) = 86.87394 86.87394 59.80971
#
# Poissons Ratio (x) = 0.54533 0.03502
# Poissons Ratio (y) = 0.54533 0.03502
# Poissons Ratio (z) = 0.05087 0.05087
#
# Static dielectric constant tensor:
#      x y z
#    x 1.669170 0.000000 0.000000 
#    y 0.000000 1.669170 0.000000 
#    z 0.000000 0.000000 1.839540 
# 
# From -- ./inp_files/665.got.cif
#   From: 2010.05.17/outbox.cif.g08.bks.cpg/sg165_1_cif.got.tgz:665.got - 2010.05.20 11:02:39.
