data_PCOD9578319
_publ_section_title
;
Structure prediction by ZEFSAII (Michael W. Deem and Ramdas Pophale) SiO2 
 PCOD9578319
Probable space group: P -3 M 1
;
_chemical_formula_sum "Si O2"
_cell_formula_units_Z 48
_cell_length_a 18.418415
_cell_length_b 18.418415
_cell_length_c 9.694469
_cell_angle_alpha 90.000000
_cell_angle_beta 90.000000
_cell_angle_gamma 120.000000
_cell_volume 2848.125789
_symmetry_space_group_name_H-M "P -3 M 1"
_symmetry_group_IT_number 164
_symmetry_cell_setting 'hexagonal'
loop_
_space_group_symop_operation_xyz
x,y,z
-y,x-y,z
-x+y,-x,z
x-y,-y,-z
-x,-x+y,-z
y,x,-z
-x,-y,-z
y,-x+y,-z
x-y,x,-z
-x+y,y,z
x,x-y,z
-y,-x,z
loop_
_atom_site_type_symbol
_atom_site_label
_atom_site_fract_x
_atom_site_fract_y
_atom_site_fract_z
Si Si1 0.333595 0.502953 0.989952
Si Si2 0.659340 0.000000 0.000000
Si Si3 0.928549 0.683878 0.721207
Si Si4 0.173260 0.000000 0.500000
Si Si5 0.500667 0.166785 0.674580
O O1 0.243362 0.486724 0.944155
O O2 0.407765 0.592236 0.941376
O O3 0.334239 0.505079 0.157620
O O4 0.350750 0.428705 0.952022
O O5 0.720240 0.030709 0.869123
O O6 0.838342 0.676683 0.742794
O O7 0.982971 0.764843 0.628541
O O8 0.905363 0.595289 0.648274
O O9 0.082663 0.917338 0.518798
O O10 0.576489 0.152978 0.626944
O O11 0.513091 0.256546 0.627161
#
# Coordination Sequence:
#
# PCOD9578319 Si02
#       5
#    12   6  12   6  12
#     4   9  16  25  39  62  94 130 165 198 231 270
#     4  10  17  28  48  74  99 122 152 192 237 282
#     4   9  19  33  49  71  97 122 150 189 234 276
#     4  10  21  38  57  72  88 116 154 192 231 282
#     4   8  13  23  41  66  95 126 158 189 221 261
#
# _framework density 16.853189
#
# number of rings (size 3 to 8) (size 9 to 14) (size 15 to 20)
#    0.000    3.000    0.000    3.250    0.000    5.000 
#    0.000    0.625    0.000    0.000    0.000    4.375 
#    0.000    4.000    0.000    0.000    0.000    0.000 
#
# Total GULP energy -267224.498539 kJ/mol
# GULP energy per Si atom -5567.177053 kJ/mol
# Density = 1.681483 g / cm^3
# Si number density = 16.853189 Si / 1000 Ang^3
#
#
#
# Elastic Constant Matrix: (Units=GPa)
#
#
# Indices 1 2 3 4 5 6 
#
# 1 110.4124 70.5866 27.6866 3.0813 0.0000 0.0000
# 2 70.5866 110.4124 27.6866 -3.0813 0.0000 0.0000
# 3 27.6866 27.6866 18.2788 0.0000 0.0000 0.0000
# 4 3.0813 -3.0813 0.0000 15.1645 0.0000 0.0000
# 5 0.0000 0.0000 0.0000 0.0000 15.1645 3.0813
# 6 0.0000 0.0000 0.0000 0.0000 3.0813 19.9129
#
#
#
# Elastic Compliance Matrix: (Units=1/GPa)
#
#
# Indices 1 2 3 4 5 6 
#
# 1 0.018110 -0.007814 -0.015595 -0.005268 0.000000 0.000000
# 2 -0.007814 0.018110 -0.015595 0.005268 0.000000 0.000000
# 3 -0.015595 -0.015595 0.101951 0.000000 0.000000 0.000000
# 4 -0.005268 0.005268 0.000000 0.068084 0.000000 0.000000
# 5 0.000000 0.000000 0.000000 0.000000 0.068084 -0.010535
# 6 0.000000 0.000000 0.000000 0.000000 -0.010535 0.051849
#
#
# Mechanical properties :
#
#
# Convention : Reuss Voigt Hill
#
# Bulk Modulus (GPa) = 16.62155 54.55813 35.58984
# Shear Modulus (GPa) = 11.78546 17.59131 14.68839
#
# Velocity S-wave (km/s) = 2.64730 3.23429 2.95540
# Velocity P-wave (km/s) = 4.38500 6.81105 5.72794
#
# Compressibility (1/GPa) = 0.06016286
#
# Stress axis : x y z
#
# Youngs Moduli (GPa) = 55.21764 55.21764 9.80863
#
# Poissons Ratio (x) = 0.43149 0.15297
# Poissons Ratio (y) = 0.43149 0.15297
# Poissons Ratio (z) = 0.86112 0.86112
#
# Static dielectric constant tensor:
#      x y z
#    x 1.591660 0.000000 0.000000 
#    y 0.000000 1.591660 0.000000 
#    z 0.000000 0.000000 1.547330 
# 
# From -- ./inp_files/2464.got.cif
#   From: 2010.05.17/outbox.cif.g08.bks.cpg/sg164_2_cif.got.tgz:2464.got - 2010.05.20 10:58:56.
