data_PCOD9578318
_publ_section_title
;
Structure prediction by ZEFSAII (Michael W. Deem and Ramdas Pophale) SiO2 
 PCOD9578318
Probable space group: P -3 M 1
;
_chemical_formula_sum "Si O2"
_cell_formula_units_Z 66
_cell_length_a 16.532341
_cell_length_b 16.532341
_cell_length_c 17.459265
_cell_angle_alpha 90.000000
_cell_angle_beta 90.000000
_cell_angle_gamma 120.000000
_cell_volume 4132.618330
_symmetry_space_group_name_H-M "P -3 M 1"
_symmetry_group_IT_number 164
_symmetry_cell_setting 'hexagonal'
loop_
_space_group_symop_operation_xyz
x,y,z
-y,x-y,z
-x+y,-x,z
x-y,-y,-z
-x,-x+y,-z
y,x,-z
-x,-y,-z
y,-x+y,-z
x-y,x,-z
-x+y,y,z
x,x-y,z
-y,-x,z
loop_
_atom_site_type_symbol
_atom_site_label
_atom_site_fract_x
_atom_site_fract_y
_atom_site_fract_z
Si Si1 0.044017 0.283928 0.841190
Si Si2 0.855567 0.522849 0.546182
Si Si3 0.192970 0.000000 0.000000
Si Si4 0.335218 0.858496 0.770432
Si Si5 0.811721 0.998714 0.317876
Si Si6 0.620463 0.668199 0.612426
O O1 0.141724 0.283448 0.841311
O O2 0.073042 0.390342 0.824472
O O3 0.990344 0.221644 0.767332
O O4 0.997145 0.243867 0.922386
O O5 0.764375 0.528750 0.567544
O O6 0.833281 0.416641 0.541387
O O7 0.893930 0.572246 0.463784
O O8 0.944185 0.579788 0.601850
O O9 0.182931 0.091466 0.002900
O O10 0.427843 0.855685 0.788650
O O11 0.243994 0.756007 0.774419
O O12 0.340948 0.898182 0.684903
O O13 0.919249 0.080752 0.315151
O O14 0.755901 0.032821 0.371991
O O15 0.802551 0.901276 0.341394
#
# Coordination Sequence:
#
# PCOD9578318 Si02
#       6
#    12  12   6  12  12  12
#     4   8  17  29  43  64  94 121 146 182 227 265
#     4  11  21  34  50  69  89 115 148 187 228 275
#     4  10  17  28  45  68  94 124 156 188 221 264
#     4  10  18  31  49  70  91 117 151 190 228 270
#     4  10  18  30  46  67  92 123 157 189 220 263
#     4  10  20  33  48  67  93 121 147 182 234 279
#
# _framework density 15.970504
#
# number of rings (size 3 to 8) (size 9 to 14) (size 15 to 20)
#    0.000    2.182    0.000    6.636    0.000    0.000 
#    0.000    4.091    0.000    0.000    0.000    6.364 
#    0.000    0.000    0.000   14.545    0.000    0.000 
#
# Total GULP energy -368073.046762 kJ/mol
# GULP energy per Si atom -5576.864345 kJ/mol
# Density = 1.593415 g / cm^3
# Si number density = 15.970504 Si / 1000 Ang^3
#
#
#
# Elastic Constant Matrix: (Units=GPa)
#
#
# Indices 1 2 3 4 5 6 
#
# 1 80.3205 29.1454 7.6836 -2.4668 0.0000 0.0000
# 2 29.1454 80.3205 7.6836 2.4668 0.0000 0.0000
# 3 7.6836 7.6836 31.3457 0.0000 0.0000 0.0000
# 4 -2.4668 2.4668 0.0000 12.8845 0.0000 0.0000
# 5 0.0000 0.0000 0.0000 0.0000 12.8845 -2.4668
# 6 0.0000 0.0000 0.0000 0.0000 -2.4668 25.5875
#
#
#
# Elastic Compliance Matrix: (Units=1/GPa)
#
#
# Indices 1 2 3 4 5 6 
#
# 1 0.014685 -0.005224 -0.002319 0.003812 0.000000 0.000000
# 2 -0.005224 0.014685 -0.002319 -0.003812 0.000000 0.000000
# 3 -0.002319 -0.002319 0.033039 0.000000 0.000000 0.000000
# 4 0.003812 -0.003812 0.000000 0.079072 0.000000 0.000000
# 5 0.000000 0.000000 0.000000 0.000000 0.079072 0.007623
# 6 0.000000 0.000000 0.000000 0.000000 0.007623 0.039816
#
#
# Mechanical properties :
#
#
# Convention : Reuss Voigt Hill
#
# Bulk Modulus (GPa) = 23.42764 31.22352 27.32558
# Shear Modulus (GPa) = 16.98828 20.10292 18.54560
#
# Velocity S-wave (km/s) = 3.26502 3.55174 3.41139
# Velocity P-wave (km/s) = 5.37727 6.03432 5.71524
#
# Compressibility (1/GPa) = 0.04268462
#
# Stress axis : x y z
#
# Youngs Moduli (GPa) = 68.09889 68.09889 30.26703
#
# Poissons Ratio (x) = 0.35573 0.07019
# Poissons Ratio (y) = 0.35573 0.07019
# Poissons Ratio (z) = 0.15793 0.15793
#
# Static dielectric constant tensor:
#      x y z
#    x 1.530700 0.000000 0.000000 
#    y 0.000000 1.530700 0.000000 
#    z 0.000000 0.000000 1.533610 
# 
# From -- ./inp_files/4005.got.cif
#   From: 2010.05.17/outbox.cif.g08.bks.cpg/sg164_3_cif.got.tgz:4005.got - 2010.05.20 10:58:56.
