data_PCOD9578881
_publ_section_title
;
Structure prediction by ZEFSAII (Michael W. Deem and Ramdas Pophale) SiO2 
 PCOD9578881
Probable space group: P -3 C 1
;
_chemical_formula_sum "Si O2"
_cell_formula_units_Z 84
_cell_length_a 16.955592
_cell_length_b 16.955592
_cell_length_c 17.763535
_cell_angle_alpha 90.000000
_cell_angle_beta 90.000000
_cell_angle_gamma 120.000000
_cell_volume 4422.684334
_symmetry_space_group_name_H-M "P -3 C 1"
_symmetry_group_IT_number 165
_symmetry_cell_setting 'hexagonal'
loop_
_space_group_symop_operation_xyz
x,y,z
-y,x-y,z
-x+y,-x,z
x-y,-y,1/2-z
-x,-x+y,1/2-z
y,x,1/2-z
-x,-y,-z
y,-x+y,-z
x-y,x,-z
-x+y,y,1/2+z
x,x-y,1/2+z
-y,-x,1/2+z
loop_
_atom_site_type_symbol
_atom_site_label
_atom_site_fract_x
_atom_site_fract_y
_atom_site_fract_z
Si Si1 0.198306 0.101861 0.260343
Si Si2 0.661884 0.913132 0.356676
Si Si3 0.619043 0.720572 0.410859
Si Si4 0.103131 0.714399 0.075004
Si Si5 0.658689 0.510012 0.766052
Si Si6 0.523869 0.848647 0.753279
Si Si7 0.774099 0.096526 0.873901
O O1 0.108913 0.108913 0.250000
O O2 0.265034 0.176530 0.201083
O O3 0.248334 0.120441 0.339376
O O4 0.176562 0.000000 0.250000
O O5 0.632479 0.821613 0.403506
O O6 0.582992 0.905474 0.300362
O O7 0.700074 0.002938 0.407063
O O8 0.576449 0.676403 0.491363
O O9 0.561942 0.673659 0.335829
O O10 0.714127 0.719340 0.404701
O O11 0.123020 0.674192 0.150045
O O12 0.189138 0.817604 0.071164
O O13 0.559319 0.423463 0.763513
O O14 0.740629 0.488934 0.750472
O O15 0.607079 0.891217 0.693250
#
# Coordination Sequence:
#
# PCOD9578881 Si02
#       7
#    12  12  12  12  12  12  12
#     4  12  19  34  58  86 118 154 212 250 279 338
#     4  11  20  37  59  81 116 155 199 236 285 357
#     4  11  22  37  57  86 117 153 192 242 299 345
#     4  11  22  37  57  86 117 153 192 242 299 345
#     4  10  21  39  62  84 110 149 194 238 290 362
#     4  10  21  39  62  84 110 149 194 238 290 362
#     4  11  20  37  59  81 116 155 199 236 285 357
#
# _framework density 18.992989000000001
#
# number of rings (size 3 to 8) (size 9 to 14) (size 15 to 20)
#    0.000    1.143    7.143    2.143    0.000    2.286 
#    0.000    8.571    0.000    0.000    0.000    4.000 
#    0.000    0.000    0.000    0.000    0.000    0.000 
#
# Total GULP energy -467753.116826 kJ/mol
# GULP energy per Si atom -5568.489486 kJ/mol
# Density = 1.894976 g / cm^3
# Si number density = 18.992989 Si / 1000 Ang^3
#
#
#
# Elastic Constant Matrix: (Units=GPa)
#
#
# Indices 1 2 3 4 5 6 
#
# 1 73.8505 26.3616 25.3233 0.5251 0.0000 0.0000
# 2 26.3616 73.8505 25.3233 -0.5251 0.0000 0.0000
# 3 25.3233 25.3233 115.6372 0.0000 0.0000 0.0000
# 4 0.5251 -0.5251 0.0000 6.1900 0.0000 0.0000
# 5 0.0000 0.0000 0.0000 0.0000 6.1900 0.5251
# 6 0.0000 0.0000 0.0000 0.0000 0.5251 23.7445
#
#
#
# Elastic Compliance Matrix: (Units=1/GPa)
#
#
# Indices 1 2 3 4 5 6 
#
# 1 0.016159 -0.004938 -0.002457 -0.001790 0.000000 0.000000
# 2 -0.004938 0.016159 -0.002457 0.001790 0.000000 0.000000
# 3 -0.002457 -0.002457 0.009724 0.000000 0.000000 0.000000
# 4 -0.001790 0.001790 0.000000 0.161855 0.000000 0.000000
# 5 0.000000 0.000000 0.000000 0.000000 0.161855 -0.003580
# 6 0.000000 0.000000 0.000000 0.000000 -0.003580 0.042194
#
#
# Mechanical properties :
#
#
# Convention : Reuss Voigt Hill
#
# Bulk Modulus (GPa) = 44.76983 46.37277 45.57130
# Shear Modulus (GPa) = 11.49168 19.64688 15.56928
#
# Velocity S-wave (km/s) = 2.46244 3.21974 2.86621
# Velocity P-wave (km/s) = 5.63097 6.18798 5.91603
#
# Compressibility (1/GPa) = 0.02233647
#
# Stress axis : x y z
#
# Youngs Moduli (GPa) = 61.88537 61.88537 102.83895
#
# Poissons Ratio (x) = 0.30560 0.25270
# Poissons Ratio (y) = 0.30560 0.25270
# Poissons Ratio (z) = 0.15207 0.15207
#
# Static dielectric constant tensor:
#      x y z
#    x 1.718000 0.000000 0.000000 
#    y 0.000000 1.718000 0.000000 
#    z 0.000000 0.000000 1.699580 
# 
# From -- ./inp_files/1867.got.cif
#   From: 2010.05.17/outbox.cif.g08.bks.cpg/sg165_1_cif.got.tgz:1867.got - 2010.05.20 11:02:39.
