data_PCOD9578667
_publ_section_title
;
Structure prediction by ZEFSAII (Michael W. Deem and Ramdas Pophale) SiO2 
 PCOD9578667
Probable space group: P -3 M 1
;
_chemical_formula_sum "Si O2"
_cell_formula_units_Z 54
_cell_length_a 12.624983
_cell_length_b 12.624983
_cell_length_c 23.593203
_cell_angle_alpha 90.000000
_cell_angle_beta 90.000000
_cell_angle_gamma 120.000000
_cell_volume 3256.710393
_symmetry_space_group_name_H-M "P -3 M 1"
_symmetry_group_IT_number 164
_symmetry_cell_setting 'hexagonal'
loop_
_space_group_symop_operation_xyz
x,y,z
-y,x-y,z
-x+y,-x,z
x-y,-y,-z
-x,-x+y,-z
y,x,-z
-x,-y,-z
y,-x+y,-z
x-y,x,-z
-x+y,y,z
x,x-y,z
-y,-x,z
loop_
_atom_site_type_symbol
_atom_site_label
_atom_site_fract_x
_atom_site_fract_y
_atom_site_fract_z
Si Si1 0.918627 0.333247 0.888502
Si Si2 0.584747 0.918477 0.777331
Si Si3 0.333660 0.414983 0.333371
Si Si4 0.748050 0.000000 0.000000
Si Si5 0.584875 0.666238 0.555509
O O1 0.903741 0.451871 0.894816
O O2 0.787511 0.212490 0.879893
O O3 0.004455 0.356296 0.834286
O O4 0.977781 0.312819 0.944775
O O5 0.444179 0.888357 0.775796
O O6 0.591209 0.795605 0.776112
O O7 0.649646 0.002666 0.722848
O O8 0.204753 0.409505 0.334486
O O9 0.444472 0.555529 0.333214
O O10 0.353733 0.352584 0.388586
O O11 0.760332 0.880166 0.992283
O O12 0.647242 0.647242 0.500000
O O13 0.591027 0.795514 0.555327
O O14 0.444108 0.555893 0.555285
#
# Coordination Sequence:
#
# PCOD9578667 Si02
#       5
#    12  12  12   6  12
#     4  10  20  34  53  76 102 132 167 209 255 301
#     4  10  20  34  53  76 102 132 166 206 251 299
#     4  10  20  34  54  78 104 134 168 209 254 300
#     4  10  20  34  52  74 102 136 172 208 248 298
#     4  10  20  34  54  78 104 134 168 209 254 300
#
# _framework density 16.581147999999999
#
# number of rings (size 3 to 8) (size 9 to 14) (size 15 to 20)
#    0.000    2.000    0.000    4.000    0.000    0.000 
#    0.000    6.667    0.000   21.333    0.000    0.000 
#    0.000    0.000    0.000    0.000    0.000    0.000 
#
# Total GULP energy -301537.781532 kJ/mol
# GULP energy per Si atom -5584.032991 kJ/mol
# Density = 1.654341 g / cm^3
# Si number density = 16.581148 Si / 1000 Ang^3
#
#
#
# Elastic Constant Matrix: (Units=GPa)
#
#
# Indices 1 2 3 4 5 6 
#
# 1 149.0723 110.6536 101.3932 1.7029 0.0000 0.0000
# 2 110.6536 149.0723 101.3932 -1.7029 0.0000 0.0000
# 3 101.3932 101.3932 169.7731 0.0000 0.0000 0.0000
# 4 1.7029 -1.7029 0.0000 15.1205 0.0000 0.0000
# 5 0.0000 0.0000 0.0000 0.0000 15.1205 1.7029
# 6 0.0000 0.0000 0.0000 0.0000 1.7029 19.2093
#
#
#
# Elastic Compliance Matrix: (Units=1/GPa)
#
#
# Indices 1 2 3 4 5 6 
#
# 1 0.016753 -0.009539 -0.004308 -0.002961 0.000000 0.000000
# 2 -0.009539 0.016753 -0.004308 0.002961 0.000000 0.000000
# 3 -0.004308 -0.004308 0.011037 0.000000 0.000000 0.000000
# 4 -0.002961 0.002961 0.000000 0.066802 0.000000 0.000000
# 5 0.000000 0.000000 0.000000 0.000000 0.066802 -0.005922
# 6 0.000000 0.000000 0.000000 0.000000 -0.005922 0.052583
#
#
# Mechanical properties :
#
#
# Convention : Reuss Voigt Hill
#
# Bulk Modulus (GPa) = 121.49403 121.64418 121.56910
# Shear Modulus (GPa) = 18.53329 20.18857 19.36093
#
# Velocity S-wave (km/s) = 3.34688 3.49314 3.42079
# Velocity P-wave (km/s) = 9.40037 9.47584 9.43818
#
# Compressibility (1/GPa) = 0.00823086
#
# Stress axis : x y z
#
# Youngs Moduli (GPa) = 59.69143 59.69143 90.60825
#
# Poissons Ratio (x) = 0.56938 0.39039
# Poissons Ratio (y) = 0.56938 0.39039
# Poissons Ratio (z) = 0.25718 0.25718
#
# Static dielectric constant tensor:
#      x y z
#    x 1.522710 0.000000 0.000000 
#    y 0.000000 1.522710 0.000000 
#    z 0.000000 0.000000 1.545000 
# 
# From -- ./inp_files/4436.got.cif
#   From: 2010.05.17/outbox.cif.g08.bks.cpg/sg164_3_cif.got.tgz:4436.got - 2010.05.20 10:58:56.
