data_PCOD9578123
_publ_section_title
;
Structure prediction by ZEFSAII (Michael W. Deem and Ramdas Pophale) SiO2 
 PCOD9578123
Probable space group: P -3 1 C
;
_chemical_formula_sum "Si O2"
_cell_formula_units_Z 84
_cell_length_a 17.562581
_cell_length_b 17.562581
_cell_length_c 16.036751
_cell_angle_alpha 90.000000
_cell_angle_beta 90.000000
_cell_angle_gamma 120.000000
_cell_volume 4283.745865
_symmetry_space_group_name_H-M "P -3 1 C"
_symmetry_group_IT_number 163
_symmetry_cell_setting 'hexagonal'
loop_
_space_group_symop_operation_xyz
x,y,z
-y,x-y,z
-x+y,-x,z
-y,-x,1/2-z
-x+y,y,1/2-z
x,x-y,1/2-z
-x,-y,-z
y,-x+y,-z
x-y,x,-z
y,x,1/2+z
x-y,-y,1/2+z
-x,-x+y,1/2+z
loop_
_atom_site_type_symbol
_atom_site_label
_atom_site_fract_x
_atom_site_fract_y
_atom_site_fract_z
Si Si1 0.688146 0.012272 0.756531
Si Si2 0.840461 0.328167 0.470460
Si Si3 0.074311 0.766748 0.429816
Si Si4 0.844698 0.333651 0.274419
Si Si5 0.301195 0.251564 0.572570
Si Si6 0.664876 0.490635 0.783467
Si Si7 0.499167 0.337840 0.522763
O O1 0.590465 0.930378 0.768537
O O2 0.738748 0.022675 0.842537
O O3 0.721195 0.004893 0.663955
O O4 0.694387 0.106470 0.745921
O O5 0.892686 0.299514 0.534893
O O6 0.862580 0.332151 0.373040
O O7 0.739974 0.247224 0.478104
O O8 0.855807 0.424552 0.490611
O O9 0.161284 0.859774 0.417772
O O10 0.014599 0.767137 0.504952
O O11 0.755981 0.244020 0.250000
O O12 0.835368 0.417684 0.250000
O O13 0.398190 0.317111 0.530412
O O14 0.568254 0.431747 0.750000
O O15 0.730365 0.460730 0.750000
O O16 0.665698 0.480800 0.881020
#
# Coordination Sequence:
#
# PCOD9578123 Si02
#       7
#    12  12  12  12  12  12  12
#     4  11  23  41  63  91 126 163 213 264 317 366
#     4  11  22  39  57  86 119 166 216 262 315 378
#     4  11  23  40  68  89 130 159 209 264 323 383
#     4  12  27  43  61  88 130 176 222 264 307 364
#     4  10  23  42  62  98 121 167 206 263 321 387
#     4  11  20  35  55  87 118 156 208 265 331 382
#     4  10  21  34  58  80 122 164 212 262 319 367
#
# _framework density 19.609006999999998
#
# number of rings (size 3 to 8) (size 9 to 14) (size 15 to 20)
#    0.000    1.143    1.429    6.571    6.000    1.714 
#    0.000    0.000    0.000    0.286    0.000    0.000 
#    0.000    0.000    0.000    0.000    0.000    0.000 
#
# Total GULP energy -468740.682280 kJ/mol
# GULP energy per Si atom -5580.246218 kJ/mol
# Density = 1.956438 g / cm^3
# Si number density = 19.609007 Si / 1000 Ang^3
#
#
#
# Elastic Constant Matrix: (Units=GPa)
#
#
# Indices 1 2 3 4 5 6 
#
# 1 51.8409 36.5837 17.0879 0.0001 -0.9673 0.0000
# 2 36.5837 51.8409 17.0879 -0.0001 0.9673 0.0000
# 3 17.0879 17.0879 80.6860 0.0000 0.0000 0.0000
# 4 0.0001 -0.0001 0.0000 20.2506 0.0000 0.9673
# 5 -0.9673 0.9673 0.0000 0.0000 20.2506 0.0001
# 6 0.0000 0.0000 0.0000 0.9673 0.0001 7.6286
#
#
#
# Elastic Compliance Matrix: (Units=1/GPa)
#
#
# Indices 1 2 3 4 5 6 
#
# 1 0.039130 -0.026813 -0.002609 0.000000 0.003150 0.000000
# 2 -0.026813 0.039130 -0.002609 0.000000 -0.003150 0.000000
# 3 -0.002609 -0.002609 0.013499 0.000000 0.000000 0.000000
# 4 0.000000 0.000000 0.000000 0.049682 0.000000 -0.006300
# 5 0.003150 -0.003150 0.000000 0.000000 0.049682 -0.000001
# 6 0.000000 0.000000 0.000000 -0.006300 -0.000001 0.131885
#
#
# Mechanical properties :
#
#
# Convention : Reuss Voigt Hill
#
# Bulk Modulus (GPa) = 36.10262 36.20967 36.15614
# Shear Modulus (GPa) = 12.61671 17.19982 14.90827
#
# Velocity S-wave (km/s) = 2.53931 2.96487 2.76030
# Velocity P-wave (km/s) = 5.20084 5.49786 5.35141
#
# Compressibility (1/GPa) = 0.02769882
#
# Stress axis : x y z
#
# Youngs Moduli (GPa) = 25.55595 25.55595 74.08156
#
# Poissons Ratio (x) = 0.68522 0.19325
# Poissons Ratio (y) = 0.68522 0.19325
# Poissons Ratio (z) = 0.06667 0.06667
#
# Static dielectric constant tensor:
#      x y z
#    x 1.694980 0.000000 0.000000 
#    y 0.000000 1.694980 0.000000 
#    z 0.000000 0.000000 1.731890 
# 
# From -- ./inp_files/2657.got.cif
#   From: 2010.05.17/outbox.cif.g08.bks.cpg/sg163_2_cif.got.tgz:2657.got - 2010.05.20 10:56:03.
