data_PCOD9578050
_publ_section_title
;
Structure prediction by ZEFSAII (Michael W. Deem and Ramdas Pophale) SiO2 
 PCOD9578050
Probable space group: P -3 1 C
;
_chemical_formula_sum "Si O2"
_cell_formula_units_Z 72
_cell_length_a 15.005691
_cell_length_b 15.005691
_cell_length_c 19.633254
_cell_angle_alpha 90.000000
_cell_angle_beta 90.000000
_cell_angle_gamma 120.000000
_cell_volume 3828.555218
_symmetry_space_group_name_H-M "P -3 1 C"
_symmetry_group_IT_number 163
_symmetry_cell_setting 'hexagonal'
loop_
_space_group_symop_operation_xyz
x,y,z
-y,x-y,z
-x+y,-x,z
-y,-x,1/2-z
-x+y,y,1/2-z
x,x-y,1/2-z
-x,-y,-z
y,-x+y,-z
x-y,x,-z
y,x,1/2+z
x-y,-y,1/2+z
-x,-x+y,1/2+z
loop_
_atom_site_type_symbol
_atom_site_label
_atom_site_fract_x
_atom_site_fract_y
_atom_site_fract_z
Si Si1 0.223047 0.858008 0.323769
Si Si2 0.407880 0.894916 0.411702
Si Si3 0.961617 0.326729 0.623550
Si Si4 0.071222 0.723749 0.733898
Si Si5 0.691653 0.164505 0.445294
Si Si6 0.363022 0.870845 0.888848
O O1 0.194504 0.805497 0.250000
O O2 0.320631 0.855491 0.354442
O O3 0.123440 0.793299 0.371164
O O4 0.259255 0.977283 0.310220
O O5 0.512312 0.898395 0.389921
O O6 0.355109 0.837387 0.481044
O O7 0.444616 0.015722 0.420879
O O8 0.019817 0.357108 0.696635
O O9 0.055255 0.370748 0.569910
O O10 0.162156 0.837845 0.750000
O O11 0.116562 0.668067 0.687038
O O12 0.802521 0.260534 0.431808
O O13 0.613800 0.174253 0.392914
#
# Coordination Sequence:
#
# PCOD9578050 Si02
#       6
#    12  12  12  12  12  12
#     4   9  21  37  60  85 113 149 199 239 292 353
#     4  10  23  36  59  82 121 156 197 239 289 352
#     4  10  20  39  59  83 113 158 193 242 294 353
#     4  10  19  38  60  84 113 150 192 246 294 348
#     4  11  22  35  58  83 123 152 199 238 290 355
#     4  10  21  37  53  87 113 156 192 238 291 348
#
# _framework density 18.806049000000002
#
# number of rings (size 3 to 8) (size 9 to 14) (size 15 to 20)
#    0.000    2.000    1.667    2.333    4.667   10.667 
#    1.000    0.000    0.000    9.000    0.000    0.000 
#    0.000    8.333    0.000    0.000    0.000    0.000 
#
# Total GULP energy -401606.892052 kJ/mol
# GULP energy per Si atom -5577.873501 kJ/mol
# Density = 1.876325 g / cm^3
# Si number density = 18.806049 Si / 1000 Ang^3
#
#
#
# Elastic Constant Matrix: (Units=GPa)
#
#
# Indices 1 2 3 4 5 6 
#
# 1 56.2177 25.3368 18.3278 0.0002 -0.1639 0.0000
# 2 25.3368 56.2177 18.3278 -0.0002 0.1639 0.0000
# 3 18.3278 18.3278 48.5834 0.0000 0.0000 0.0000
# 4 0.0002 -0.0002 0.0000 22.5952 0.0000 0.1639
# 5 -0.1639 0.1639 0.0000 0.0000 22.5952 0.0002
# 6 0.0000 0.0000 0.0000 0.1639 0.0002 15.4404
#
#
#
# Elastic Compliance Matrix: (Units=1/GPa)
#
#
# Indices 1 2 3 4 5 6 
#
# 1 0.023575 -0.008810 -0.005570 0.000000 0.000235 0.000000
# 2 -0.008810 0.023575 -0.005570 0.000000 -0.000235 0.000000
# 3 -0.005570 -0.005570 0.024786 0.000000 0.000000 0.000000
# 4 0.000000 0.000000 0.000000 0.044261 0.000000 -0.000470
# 5 0.000235 -0.000235 0.000000 0.000000 0.044261 -0.000001
# 6 0.000000 0.000000 0.000000 -0.000470 -0.000001 0.064770
#
#
# Mechanical properties :
#
#
# Convention : Reuss Voigt Hill
#
# Bulk Modulus (GPa) = 31.21500 31.66704 31.44102
# Shear Modulus (GPa) = 18.12870 18.72794 18.42832
#
# Velocity S-wave (km/s) = 3.10817 3.15913 3.13375
# Velocity P-wave (km/s) = 5.43281 5.49382 5.46340
#
# Compressibility (1/GPa) = 0.03203588
#
# Stress axis : x y z
#
# Youngs Moduli (GPa) = 42.41756 42.41756 40.34576
#
# Poissons Ratio (x) = 0.37369 0.22473
# Poissons Ratio (y) = 0.37369 0.22473
# Poissons Ratio (z) = 0.23627 0.23627
#
# Static dielectric constant tensor:
#      x y z
#    x 1.664300 0.000000 0.000000 
#    y 0.000000 1.664300 0.000000 
#    z 0.000000 0.000000 1.697360 
# 
# From -- ./inp_files/3154.got.cif
#   From: 2010.05.17/outbox.cif.g08.bks.cpg/sg163_2_cif.got.tgz:3154.got - 2010.05.20 10:56:03.
