data_PCOD9578699
_publ_section_title
;
Structure prediction by ZEFSAII (Michael W. Deem and Ramdas Pophale) SiO2 
 PCOD9578699
Probable space group: P -3 M 1
;
_chemical_formula_sum "Si O2"
_cell_formula_units_Z 84
_cell_length_a 17.069504
_cell_length_b 17.069504
_cell_length_c 15.863088
_cell_angle_alpha 90.000000
_cell_angle_beta 90.000000
_cell_angle_gamma 120.000000
_cell_volume 4002.765690
_symmetry_space_group_name_H-M "P -3 M 1"
_symmetry_group_IT_number 164
_symmetry_cell_setting 'hexagonal'
loop_
_space_group_symop_operation_xyz
x,y,z
-y,x-y,z
-x+y,-x,z
x-y,-y,-z
-x,-x+y,-z
y,x,-z
-x,-y,-z
y,-x+y,-z
x-y,x,-z
-x+y,y,z
x,x-y,z
-y,-x,z
loop_
_atom_site_type_symbol
_atom_site_label
_atom_site_fract_x
_atom_site_fract_y
_atom_site_fract_z
Si Si1 0.465318 0.106535 0.983423
Si Si2 0.815631 0.815386 0.098453
Si Si3 0.671119 0.164440 0.162952
Si Si4 0.625733 0.900966 0.189738
Si Si5 0.235738 0.293339 0.424105
Si Si6 0.517635 0.664799 0.524917
Si Si7 0.338470 0.383383 0.692023
O O1 0.572285 0.144569 0.976762
O O2 0.429878 0.123214 0.896952
O O3 0.449229 0.141862 0.071103
O O4 0.416735 0.000000 0.000000
O O5 0.902054 0.804107 0.116990
O O6 0.728865 0.760890 0.158387
O O7 0.841335 0.920668 0.103259
O O8 0.788098 0.788098 0.000000
O O9 0.564810 0.129620 0.168560
O O10 0.728960 0.271041 0.173888
O O11 0.697534 0.119323 0.236386
O O12 0.619012 0.809506 0.224948
O O13 0.595389 0.953362 0.255182
O O14 0.229712 0.229712 0.500000
O O15 0.141148 0.282296 0.400400
O O16 0.299329 0.397140 0.459976
O O17 0.286563 0.274748 0.349615
O O18 0.504429 0.752215 0.538712
O O19 0.424422 0.575579 0.497828
O O20 0.549981 0.638942 0.612096
#
# Coordination Sequence:
#
# PCOD9578699 Si02
#       7
#    12  12  12  12  12  12  12
#     4  10  20  37  56  78 110 150 200 253 298 342
#     4   9  18  31  49  73 104 141 181 227 281 335
#     4  11  23  38  58  84 118 158 200 245 294 348
#     4  11  22  36  55  80 109 148 197 247 291 337
#     4   9  20  39  62  88 119 153 193 236 286 343
#     4  10  21  38  61  90 122 156 190 228 278 342
#     4  11  22  34  54  83 116 151 186 232 285 341
#
# _framework density 20.985489999999999
#
# number of rings (size 3 to 8) (size 9 to 14) (size 15 to 20)
#    0.000    1.857    1.429    2.571    0.000    6.000 
#    0.000    1.429    0.000    0.429    0.000    0.000 
#    0.000    0.000    0.000    0.000    0.000    0.000 
#
# Total GULP energy -468269.841277 kJ/mol
# GULP energy per Si atom -5574.640968 kJ/mol
# Density = 2.093773 g / cm^3
# Si number density = 20.985490 Si / 1000 Ang^3
#
#
#
# Elastic Constant Matrix: (Units=GPa)
#
#
# Indices 1 2 3 4 5 6 
#
# 1 54.0796 22.8837 8.5276 0.5199 0.0000 0.0000
# 2 22.8837 54.0796 8.5276 -0.5199 0.0000 0.0000
# 3 8.5276 8.5276 87.1456 0.0000 0.0000 0.0000
# 4 0.5199 -0.5199 0.0000 -14.6180 0.0000 0.0000
# 5 0.0000 0.0000 0.0000 0.0000 -14.6180 0.5199
# 6 0.0000 0.0000 0.0000 0.0000 0.5199 15.5980
#
#
#
# Elastic Compliance Matrix: (Units=1/GPa)
#
#
# Indices 1 2 3 4 5 6 
#
# 1 0.022649 -0.009368 -0.001300 0.001139 0.000000 0.000000
# 2 -0.009368 0.022649 -0.001300 -0.001139 0.000000 0.000000
# 3 -0.001300 -0.001300 0.011729 0.000000 0.000000 0.000000
# 4 0.001139 -0.001139 0.000000 -0.068328 0.000000 0.000000
# 5 0.000000 0.000000 0.000000 0.000000 -0.068328 0.002277
# 6 0.000000 0.000000 0.000000 0.000000 0.002277 0.064035
#
#
# Mechanical properties :
#
#
# Convention : Reuss Voigt Hill
#
# Bulk Modulus (GPa) = 30.21759 30.57584 30.39672
# Shear Modulus (GPa) = 258.08172 7.63011 132.85592
#
# Velocity S-wave (km/s) = 11.10171 1.90887 7.96529
# Velocity P-wave (km/s) = 13.37016 4.41135 9.95543
#
# Compressibility (1/GPa) = 0.03309330
#
# Stress axis : x y z
#
# Youngs Moduli (GPa) = 44.15139 44.15139 85.25583
#
# Poissons Ratio (x) = 0.41362 0.11080
# Poissons Ratio (y) = 0.41362 0.11080
# Poissons Ratio (z) = 0.05738 0.05738
#
# Static dielectric constant tensor:
#      x y z
#    x 1.750750 0.000000 0.000000 
#    y 0.000000 1.750750 0.000000 
#    z 0.000000 0.000000 1.804170 
# 
# From -- ./inp_files/3560.got.cif
#   From: 2010.05.17/outbox.cif.g08.bks.cpg/sg164_2_cif.got.tgz:3560.got - 2010.05.20 10:58:56.
