data_PCOD9578325
_publ_section_title
;
Structure prediction by ZEFSAII (Michael W. Deem and Ramdas Pophale) SiO2 
 PCOD9578325
Probable space group: P -3 M 1
;
_chemical_formula_sum "Si O2"
_cell_formula_units_Z 48
_cell_length_a 22.296073
_cell_length_b 22.296073
_cell_length_c 7.462413
_cell_angle_alpha 90.000000
_cell_angle_beta 90.000000
_cell_angle_gamma 120.000000
_cell_volume 3212.674069
_symmetry_space_group_name_H-M "P -3 M 1"
_symmetry_group_IT_number 164
_symmetry_cell_setting 'hexagonal'
loop_
_space_group_symop_operation_xyz
x,y,z
-y,x-y,z
-x+y,-x,z
x-y,-y,-z
-x,-x+y,-z
y,x,-z
-x,-y,-z
y,-x+y,-z
x-y,x,-z
-x+y,y,z
x,x-y,z
-y,-x,z
loop_
_atom_site_type_symbol
_atom_site_label
_atom_site_fract_x
_atom_site_fract_y
_atom_site_fract_z
Si Si1 0.977732 0.557328 0.292739
Si Si2 0.142251 0.418477 0.764739
Si Si3 0.920086 0.213790 0.522710
Si Si4 0.707659 0.062254 0.886112
O O1 0.985477 0.492739 0.232520
O O2 0.898290 0.540192 0.275864
O O3 0.000000 0.572368 0.500000
O O4 0.026534 0.628303 0.185835
O O5 0.223996 0.447991 0.736632
O O6 0.103633 0.351677 0.633288
O O7 0.122483 0.395088 0.970572
O O8 0.867422 0.132579 0.516152
O O9 0.914199 0.244166 0.713522
O O10 0.000000 0.238127 0.500000
O O11 0.707173 0.000000 0.000000
#
# Coordination Sequence:
#
# PCOD9578325 Si02
#       4
#    12  12  12  12
#     4  10  18  31  50  71 101 130 160 200 245 292
#     4  10  19  30  48  70  96 125 160 194 237 290
#     4  11  19  32  47  69  98 126 154 195 236 277
#     4  10  17  30  47  69  99 122 158 189 242 279
#
# _framework density 14.940825999999999
#
# number of rings (size 3 to 8) (size 9 to 14) (size 15 to 20)
#    0.000    1.750    7.500    0.750    0.000    4.500 
#    0.000    0.000    0.000    0.750    0.000    0.000 
#    0.000    3.000    0.000    0.000    0.000    0.000 
#
# Total GULP energy -267237.312113 kJ/mol
# GULP energy per Si atom -5567.444002 kJ/mol
# Density = 1.490682 g / cm^3
# Si number density = 14.940826 Si / 1000 Ang^3
#
#
#
# Elastic Constant Matrix: (Units=GPa)
#
#
# Indices 1 2 3 4 5 6 
#
# 1 58.5945 16.0564 21.5106 -3.9669 0.0000 0.0000
# 2 16.0564 58.5945 21.5106 3.9669 0.0000 0.0000
# 3 21.5106 21.5106 95.0455 0.0000 0.0000 0.0000
# 4 -3.9669 3.9669 0.0000 6.7764 0.0000 0.0000
# 5 0.0000 0.0000 0.0000 0.0000 6.7764 -3.9669
# 6 0.0000 0.0000 0.0000 0.0000 -3.9669 21.2690
#
#
#
# Elastic Compliance Matrix: (Units=1/GPa)
#
#
# Indices 1 2 3 4 5 6 
#
# 1 0.020897 -0.005492 -0.003486 0.015448 0.000000 0.000000
# 2 -0.005492 0.020897 -0.003486 -0.015448 0.000000 0.000000
# 3 -0.003486 -0.003486 0.012099 0.000000 0.000000 0.000000
# 4 0.015448 -0.015448 0.000000 0.165658 0.000000 0.000000
# 5 0.000000 0.000000 0.000000 0.000000 0.165658 0.030897
# 6 0.000000 0.000000 0.000000 0.000000 0.030897 0.052779
#
#
# Mechanical properties :
#
#
# Convention : Reuss Voigt Hill
#
# Bulk Modulus (GPa) = 34.52625 36.70997 35.61811
# Shear Modulus (GPa) = 10.58034 17.17483 13.87759
#
# Velocity S-wave (km/s) = 2.66400 3.39414 3.05099
# Velocity P-wave (km/s) = 5.71151 6.32328 6.02516
#
# Compressibility (1/GPa) = 0.02896347
#
# Stress axis : x y z
#
# Youngs Moduli (GPa) = 47.85317 47.85317 82.64902
#
# Poissons Ratio (x) = 0.26283 0.28815
# Poissons Ratio (y) = 0.26283 0.28815
# Poissons Ratio (z) = 0.16684 0.16684
#
# Static dielectric constant tensor:
#      x y z
#    x 1.492950 0.000000 0.000000 
#    y 0.000000 1.492950 0.000000 
#    z 0.000000 0.000000 1.527740 
# 
# From -- ./inp_files/1441.got.cif
#   From: 2010.05.17/outbox.cif.g08.bks.cpg/sg164_1_cif.got.tgz:1441.got - 2010.05.20 10:58:56.
