data_PCOD9578250
_publ_section_title
;
Structure prediction by ZEFSAII (Michael W. Deem and Ramdas Pophale) SiO2 
 PCOD9578250
Probable space group: P -3 1 C
;
_chemical_formula_sum "Si O2"
_cell_formula_units_Z 28
_cell_length_a 13.176754
_cell_length_b 13.176754
_cell_length_c 8.671318
_cell_angle_alpha 90.000000
_cell_angle_beta 90.000000
_cell_angle_gamma 120.000000
_cell_volume 1303.864980
_symmetry_space_group_name_H-M "P -3 1 C"
_symmetry_group_IT_number 163
_symmetry_cell_setting 'hexagonal'
loop_
_space_group_symop_operation_xyz
x,y,z
-y,x-y,z
-x+y,-x,z
-y,-x,1/2-z
-x+y,y,1/2-z
x,x-y,1/2-z
-x,-y,-z
y,-x+y,-z
x-y,x,-z
y,x,1/2+z
x-y,-y,1/2+z
-x,-x+y,1/2+z
loop_
_atom_site_type_symbol
_atom_site_label
_atom_site_fract_x
_atom_site_fract_y
_atom_site_fract_z
Si Si1 0.333335 0.666668 0.437399
Si Si2 0.388773 0.908620 0.094293
Si Si3 0.172789 0.953749 0.094586
O O1 0.333334 0.666667 0.250000
O O2 0.218654 0.670130 0.485451
O O3 0.449700 0.899399 0.250000
O O4 0.287518 0.940887 0.115770
O O5 0.500000 0.000000 0.000000
O O6 0.095437 0.904564 0.250000
O O7 0.085796 0.871625 0.958444
#
# Coordination Sequence:
#
# PCOD9578250 Si02
#       3
#     4  12  12
#     4   9  18  36  58  83 115 159 205 254 322 402
#     4  11  22  40  65  92 127 171 222 280 344 417
#     4  12  25  44  69 101 139 184 235 294 358 429
#
# _framework density 21.474616000000001
#
# number of rings (size 3 to 8) (size 9 to 14) (size 15 to 20)
#    0.000    0.857    0.000   10.714    0.000    0.000 
#    0.000    6.429    0.000    0.000    0.000    0.000 
#    0.000    0.000    0.000    0.000    0.000    0.000 
#
# Total GULP energy -156345.435983 kJ/mol
# GULP energy per Si atom -5583.765571 kJ/mol
# Density = 2.142574 g / cm^3
# Si number density = 21.474616 Si / 1000 Ang^3
#
#
#
# Elastic Constant Matrix: (Units=GPa)
#
#
# Indices 1 2 3 4 5 6 
#
# 1 131.5361 38.7251 32.2018 -0.0002 4.9173 0.0003
# 2 38.7251 131.5375 32.2019 0.0000 -4.9173 0.0009
# 3 32.2018 32.2019 78.2886 0.0000 0.0001 0.0002
# 4 -0.0002 0.0000 0.0000 28.3431 0.0003 -4.9171
# 5 4.9173 -4.9173 0.0001 0.0003 28.3431 -0.0001
# 6 0.0003 0.0009 0.0002 -4.9171 -0.0001 46.4059
#
#
#
# Elastic Compliance Matrix: (Units=1/GPa)
#
#
# Indices 1 2 3 4 5 6 
#
# 1 0.008966 -0.002010 -0.002861 0.000000 -0.001904 0.000000
# 2 -0.002010 0.008966 -0.002861 0.000000 0.001904 0.000000
# 3 -0.002861 -0.002861 0.015127 0.000000 0.000000 0.000000
# 4 0.000000 0.000000 0.000000 0.035943 0.000000 0.003808
# 5 -0.001904 0.001904 0.000000 0.000000 0.035943 0.000000
# 6 0.000000 0.000000 0.000000 0.003808 0.000000 0.021953
#
#
# Mechanical properties :
#
#
# Convention : Reuss Voigt Hill
#
# Bulk Modulus (GPa) = 56.83758 60.84662 58.84210
# Shear Modulus (GPa) = 33.73234 36.50065 35.11650
#
# Velocity S-wave (km/s) = 3.96763 4.12723 4.04822
# Velocity P-wave (km/s) = 6.89306 7.14897 7.02218
#
# Compressibility (1/GPa) = 0.01759399
#
# Stress axis : x y z
#
# Youngs Moduli (GPa) = 111.53316 111.53437 66.10788
#
# Poissons Ratio (x) = 0.22423 0.18913
# Poissons Ratio (y) = 0.22423 0.18913
# Poissons Ratio (z) = 0.31909 0.31909
#
# Static dielectric constant tensor:
#      x y z
#    x 1.818630 0.000000 0.000000 
#    y 0.000000 1.818620 0.000000 
#    z 0.000000 0.000000 1.722290 
# 
# From -- ./inp_files/619.got.cif
#   From: 2010.05.17/outbox.cif.g08.bks.cpg/sg163_1_cif.got.tgz:619.got - 2010.05.20 10:56:03.
