data_PCOD9578445
_publ_section_title
;
Structure prediction by ZEFSAII (Michael W. Deem and Ramdas Pophale) SiO2 
 PCOD9578445
Probable space group: P -3 M 1
;
_chemical_formula_sum "Si O2"
_cell_formula_units_Z 60
_cell_length_a 17.759113
_cell_length_b 17.759113
_cell_length_c 15.608704
_cell_angle_alpha 90.000000
_cell_angle_beta 90.000000
_cell_angle_gamma 120.000000
_cell_volume 4263.242314
_symmetry_space_group_name_H-M "P -3 M 1"
_symmetry_group_IT_number 164
_symmetry_cell_setting 'hexagonal'
loop_
_space_group_symop_operation_xyz
x,y,z
-y,x-y,z
-x+y,-x,z
x-y,-y,-z
-x,-x+y,-z
y,x,-z
-x,-y,-z
y,-x+y,-z
x-y,x,-z
-x+y,y,z
x,x-y,z
-y,-x,z
loop_
_atom_site_type_symbol
_atom_site_label
_atom_site_fract_x
_atom_site_fract_y
_atom_site_fract_z
Si Si1 0.666027 0.509285 0.513696
Si Si2 0.177880 0.177718 0.901434
Si Si3 0.666016 0.508757 0.310118
Si Si4 0.301179 0.240160 0.256372
Si Si5 0.060920 0.759556 0.419543
O O1 0.744154 0.488307 0.526335
O O2 0.573481 0.426519 0.535152
O O3 0.666300 0.528225 0.411945
O O4 0.691080 0.596295 0.565562
O O5 0.183884 0.091942 0.883462
O O6 0.231210 0.252608 0.832641
O O7 0.077755 0.155509 0.895276
O O8 0.204880 0.204880 0.000000
O O9 0.743522 0.487043 0.298162
O O10 0.573813 0.426188 0.288887
O O11 0.691875 0.596009 0.258327
O O12 0.292856 0.146428 0.274836
O O13 0.258383 0.265998 0.332585
O O14 0.146031 0.853970 0.419990
O O15 0.000000 0.748089 0.500000
#
# Coordination Sequence:
#
# PCOD9578445 Si02
#       5
#    12  12  12  12  12
#     4   9  17  28  43  62  85 113 146 183 219 250
#     4   9  17  30  49  70  88 107 136 178 224 263
#     4   9  16  27  43  64  88 114 144 178 215 252
#     4  10  19  31  45  63  87 114 143 175 213 256
#     4  11  20  30  42  58  84 118 148 174 206 247
#
# _framework density 14.073796
#
# number of rings (size 3 to 8) (size 9 to 14) (size 15 to 20)
#    0.000    2.400    2.000    1.800    0.000    3.600 
#    0.000    0.000    0.000    5.400    0.000    0.000 
#    0.000    0.000    0.000    0.800    0.000    0.000 
#
# Total GULP energy -334486.180365 kJ/mol
# GULP energy per Si atom -5574.769673 kJ/mol
# Density = 1.404176 g / cm^3
# Si number density = 14.073796 Si / 1000 Ang^3
#
#
#
# Elastic Constant Matrix: (Units=GPa)
#
#
# Indices 1 2 3 4 5 6 
#
# 1 91.4453 56.7881 59.4613 4.0221 0.0000 0.0000
# 2 56.7881 91.4453 59.4613 -4.0221 0.0000 0.0000
# 3 59.4613 59.4613 88.9285 0.0000 0.0000 0.0000
# 4 4.0221 -4.0221 0.0000 20.1041 0.0000 0.0000
# 5 0.0000 0.0000 0.0000 0.0000 20.1041 4.0221
# 6 0.0000 0.0000 0.0000 0.0000 4.0221 17.3286
#
#
#
# Elastic Compliance Matrix: (Units=1/GPa)
#
#
# Indices 1 2 3 4 5 6 
#
# 1 0.022406 -0.007853 -0.009730 -0.006054 0.000000 0.000000
# 2 -0.007853 0.022406 -0.009730 0.006054 0.000000 0.000000
# 3 -0.009730 -0.009730 0.024257 0.000000 0.000000 0.000000
# 4 -0.006054 0.006054 0.000000 0.052163 0.000000 0.000000
# 5 0.000000 0.000000 0.000000 0.000000 0.052163 -0.012108
# 6 0.000000 0.000000 0.000000 0.000000 -0.012108 0.060518
#
#
# Mechanical properties :
#
#
# Convention : Reuss Voigt Hill
#
# Bulk Modulus (GPa) = 69.24887 69.24893 69.24890
# Shear Modulus (GPa) = 17.04414 17.91458 17.47936
#
# Velocity S-wave (km/s) = 3.48380 3.57165 3.52800
# Velocity P-wave (km/s) = 8.09280 8.14370 8.11829
#
# Compressibility (1/GPa) = 0.01444067
#
# Stress axis : x y z
#
# Youngs Moduli (GPa) = 44.63125 44.63125 41.22479
#
# Poissons Ratio (x) = 0.35051 0.40113
# Poissons Ratio (y) = 0.35051 0.40113
# Poissons Ratio (z) = 0.43428 0.43428
#
# Static dielectric constant tensor:
#      x y z
#    x 1.463340 0.000000 0.000000 
#    y 0.000000 1.463340 0.000000 
#    z 0.000000 0.000000 1.438410 
# 
# From -- ./inp_files/2692.got.cif
#   From: 2010.05.17/outbox.cif.g08.bks.cpg/sg164_2_cif.got.tgz:2692.got - 2010.05.20 10:58:56.
