data_PCOD9578181
_publ_section_title
;
Structure prediction by ZEFSAII (Michael W. Deem and Ramdas Pophale) SiO2 
 PCOD9578181
Probable space group: P -3 1 C
;
_chemical_formula_sum "Si O2"
_cell_formula_units_Z 42
_cell_length_a 15.140378
_cell_length_b 15.140378
_cell_length_c 10.176863
_cell_angle_alpha 90.000000
_cell_angle_beta 90.000000
_cell_angle_gamma 120.000000
_cell_volume 2020.309918
_symmetry_space_group_name_H-M "P -3 1 C"
_symmetry_group_IT_number 163
_symmetry_cell_setting 'hexagonal'
loop_
_space_group_symop_operation_xyz
x,y,z
-y,x-y,z
-x+y,-x,z
-y,-x,1/2-z
-x+y,y,1/2-z
x,x-y,1/2-z
-x,-y,-z
y,-x+y,-z
x-y,x,-z
y,x,1/2+z
x-y,-y,1/2+z
-x,-x+y,1/2+z
loop_
_atom_site_type_symbol
_atom_site_label
_atom_site_fract_x
_atom_site_fract_y
_atom_site_fract_z
Si Si1 0.819584 0.639168 0.250000
Si Si2 0.839413 0.309916 0.502575
Si Si3 0.145471 0.512191 0.380252
Si Si4 0.945594 0.257149 0.725828
O O1 0.748933 0.567620 0.366837
O O2 0.773445 0.711392 0.216013
O O3 0.877081 0.429820 0.503139
O O4 0.732311 0.251679 0.582153
O O5 0.914942 0.289647 0.590732
O O6 0.147632 0.573816 0.250000
O O7 0.072049 0.394136 0.340851
O O8 0.861059 0.138942 0.750000
#
# Coordination Sequence:
#
# PCOD9578181 Si02
#       4
#     6  12  12  12
#     4  12  26  40  62 102 140 160 220 292 328 382
#     4  10  22  39  67  97 130 171 217 268 320 396
#     4   9  18  40  67  92 122 172 220 249 315 402
#     4   9  22  43  65  91 125 179 226 265 328 395
#
# _framework density 20.788892000000001
#
# number of rings (size 3 to 8) (size 9 to 14) (size 15 to 20)
#    0.000    2.286    0.000    3.143    8.000    5.714 
#   11.143    0.000    0.000    1.714    0.000    0.000 
#    0.000    0.000    0.000    0.000    0.000    0.000 
#
# Total GULP energy -234441.969634 kJ/mol
# GULP energy per Si atom -5581.951658 kJ/mol
# Density = 2.074158 g / cm^3
# Si number density = 20.788892 Si / 1000 Ang^3
#
#
#
# Elastic Constant Matrix: (Units=GPa)
#
#
# Indices 1 2 3 4 5 6 
#
# 1 110.4882 75.1892 44.2467 0.0002 9.3371 0.0000
# 2 75.1892 110.4882 44.2467 -0.0002 -9.3371 0.0000
# 3 44.2467 44.2467 83.7368 0.0000 0.0000 0.0000
# 4 0.0002 -0.0002 0.0000 25.5754 0.0000 -9.3371
# 5 9.3371 -9.3371 0.0000 0.0000 25.5754 0.0002
# 6 0.0000 0.0000 0.0000 -9.3371 0.0002 17.6495
#
#
#
# Elastic Compliance Matrix: (Units=1/GPa)
#
#
# Indices 1 2 3 4 5 6 
#
# 1 0.021155 -0.013956 -0.003804 0.000000 -0.012818 0.000000
# 2 -0.013956 0.021155 -0.003804 0.000000 0.012818 0.000000
# 3 -0.003804 -0.003804 0.015962 0.000000 0.000000 0.000000
# 4 0.000000 0.000000 0.000000 0.048460 0.000000 0.025637
# 5 -0.012818 0.012818 0.000000 0.000000 0.048460 0.000000
# 6 0.000000 0.000000 0.000000 0.025637 0.000000 0.070221
#
#
# Mechanical properties :
#
#
# Convention : Reuss Voigt Hill
#
# Bulk Modulus (GPa) = 66.03207 70.23091 68.13149
# Shear Modulus (GPa) = 18.27574 23.16208 20.71891
#
# Velocity S-wave (km/s) = 2.96820 3.34152 3.16038
# Velocity P-wave (km/s) = 6.60144 6.98168 6.79422
#
# Compressibility (1/GPa) = 0.01514416
#
# Stress axis : x y z
#
# Youngs Moduli (GPa) = 47.27103 47.27103 62.64897
#
# Poissons Ratio (x) = 0.65972 0.23830
# Poissons Ratio (y) = 0.65972 0.23830
# Poissons Ratio (z) = 0.17981 0.17981
#
# Static dielectric constant tensor:
#      x y z
#    x 1.761860 0.000000 0.000000 
#    y 0.000000 1.761860 0.000000 
#    z 0.000000 0.000000 1.809200 
# 
# From -- ./inp_files/1514.got.cif
#   From: 2010.05.17/outbox.cif.g08.bks.cpg/sg163_1_cif.got.tgz:1514.got - 2010.05.20 10:56:03.
