data_PCOD9578819
_publ_section_title
;
Structure prediction by ZEFSAII (Michael W. Deem and Ramdas Pophale) SiO2 
 PCOD9578819
Probable space group: P -3 C 1
;
_chemical_formula_sum "Si O2"
_cell_formula_units_Z 60
_cell_length_a 14.474659
_cell_length_b 14.474659
_cell_length_c 14.365153
_cell_angle_alpha 90.000000
_cell_angle_beta 90.000000
_cell_angle_gamma 120.000000
_cell_volume 2606.499045
_symmetry_space_group_name_H-M "P -3 C 1"
_symmetry_group_IT_number 165
_symmetry_cell_setting 'hexagonal'
loop_
_space_group_symop_operation_xyz
x,y,z
-y,x-y,z
-x+y,-x,z
x-y,-y,1/2-z
-x,-x+y,1/2-z
y,x,1/2-z
-x,-y,-z
y,-x+y,-z
x-y,x,-z
-x+y,y,1/2+z
x,x-y,1/2+z
-y,-x,1/2+z
loop_
_atom_site_type_symbol
_atom_site_label
_atom_site_fract_x
_atom_site_fract_y
_atom_site_fract_z
Si Si1 0.130986 0.643942 0.747330
Si Si2 0.695531 0.493874 0.634200
Si Si3 0.936210 0.159526 0.519754
Si Si4 0.219005 0.458671 0.060178
Si Si5 0.352060 0.017385 0.858762
O O1 0.192952 0.588960 0.796963
O O2 0.193553 0.755512 0.807220
O O3 0.168175 0.673655 0.641180
O O4 0.000000 0.577123 0.750000
O O5 0.731962 0.473297 0.534325
O O6 0.636422 0.557788 0.600548
O O7 0.867873 0.205334 0.470320
O O8 0.036208 0.176851 0.458593
O O9 0.990934 0.235343 0.608174
O O10 0.310308 0.441195 0.106203
O O11 0.351956 0.000000 0.750000
#
# Coordination Sequence:
#
# PCOD9578819 Si02
#       5
#    12  12  12  12  12
#     4  12  28  45  77 110 145 198 251 316 377 454
#     4  11  26  48  70 109 149 186 254 303 380 448
#     4   9  19  34  61  95 138 185 232 292 360 437
#     4  10  24  42  72 101 143 193 242 300 371 441
#     4  10  19  40  69  96 136 193 234 296 362 439
#
# _framework density 23.019382
#
# number of rings (size 3 to 8) (size 9 to 14) (size 15 to 20)
#    0.000    1.600    2.000    1.200   11.200    2.400 
#    0.000    3.000    0.000    0.000    0.000    0.000 
#    0.000    0.000    0.000    0.000    0.000    0.000 
#
# Total GULP energy -334225.479597 kJ/mol
# GULP energy per Si atom -5570.424660 kJ/mol
# Density = 2.296699 g / cm^3
# Si number density = 23.019382 Si / 1000 Ang^3
#
#
#
# Elastic Constant Matrix: (Units=GPa)
#
#
# Indices 1 2 3 4 5 6 
#
# 1 105.5251 48.0989 29.6135 -2.4513 0.0000 0.0000
# 2 48.0989 105.5251 29.6135 2.4513 0.0000 0.0000
# 3 29.6135 29.6135 140.0019 0.0000 0.0000 0.0000
# 4 -2.4513 2.4513 0.0000 30.2753 0.0000 0.0000
# 5 0.0000 0.0000 0.0000 0.0000 30.2753 -2.4513
# 6 0.0000 0.0000 0.0000 0.0000 -2.4513 28.7131
#
#
#
# Elastic Compliance Matrix: (Units=1/GPa)
#
#
# Indices 1 2 3 4 5 6 
#
# 1 0.012311 -0.005224 -0.001499 0.001420 0.000000 0.000000
# 2 -0.005224 0.012311 -0.001499 -0.001420 0.000000 0.000000
# 3 -0.001499 -0.001499 0.007777 0.000000 0.000000 0.000000
# 4 0.001420 -0.001420 0.000000 0.033260 0.000000 0.000000
# 5 0.000000 0.000000 0.000000 0.000000 0.033260 0.002839
# 6 0.000000 0.000000 0.000000 0.000000 0.002839 0.035070
#
#
# Mechanical properties :
#
#
# Convention : Reuss Voigt Hill
#
# Bulk Modulus (GPa) = 62.67569 62.85599 62.76584
# Shear Modulus (GPa) = 32.10237 34.10112 33.10174
#
# Velocity S-wave (km/s) = 3.73846 3.85308 3.79620
# Velocity P-wave (km/s) = 6.77652 6.86731 6.82207
#
# Compressibility (1/GPa) = 0.01595515
#
# Stress axis : x y z
#
# Youngs Moduli (GPa) = 81.22737 81.22737 128.58493
#
# Poissons Ratio (x) = 0.42431 0.19277
# Poissons Ratio (y) = 0.42431 0.19277
# Poissons Ratio (z) = 0.12177 0.12177
#
# Static dielectric constant tensor:
#      x y z
#    x 1.986530 0.000000 0.000000 
#    y 0.000000 1.986530 0.000000 
#    z 0.000000 0.000000 1.904630 
# 
# From -- ./inp_files/1656.got.cif
#   From: 2010.05.17/outbox.cif.g08.bks.cpg/sg165_1_cif.got.tgz:1656.got - 2010.05.20 11:02:39.
