data_PCOD9578088
_publ_section_title
;
Structure prediction by ZEFSAII (Michael W. Deem and Ramdas Pophale) SiO2 
 PCOD9578088
Probable space group: P -3 1 C
;
_chemical_formula_sum "Si O2"
_cell_formula_units_Z 84
_cell_length_a 18.833951
_cell_length_b 18.833951
_cell_length_c 13.876494
_cell_angle_alpha 90.000000
_cell_angle_beta 90.000000
_cell_angle_gamma 120.000000
_cell_volume 4262.783306
_symmetry_space_group_name_H-M "P -3 1 C"
_symmetry_group_IT_number 163
_symmetry_cell_setting 'hexagonal'
loop_
_space_group_symop_operation_xyz
x,y,z
-y,x-y,z
-x+y,-x,z
-y,-x,1/2-z
-x+y,y,1/2-z
x,x-y,1/2-z
-x,-y,-z
y,-x+y,-z
x-y,x,-z
y,x,1/2+z
x-y,-y,1/2+z
-x,-x+y,1/2+z
loop_
_atom_site_type_symbol
_atom_site_label
_atom_site_fract_x
_atom_site_fract_y
_atom_site_fract_z
Si Si1 0.059436 0.184685 0.015889
Si Si2 0.115804 0.534847 0.849293
Si Si3 0.191829 0.893546 0.839818
Si Si4 0.723235 0.054948 0.895713
Si Si5 0.907584 0.346367 0.016456
Si Si6 0.649487 0.023543 0.690255
Si Si7 0.451219 0.257771 0.048348
O O1 0.053923 0.244406 0.097795
O O2 0.116698 0.144715 0.028349
O O3 0.104831 0.248962 0.931649
O O4 0.158441 0.579221 0.750000
O O5 0.077311 0.576455 0.917879
O O6 0.175487 0.521232 0.919065
O O7 0.046185 0.446295 0.807374
O O8 0.132939 0.867062 0.750000
O O9 0.219637 0.827394 0.859012
O O10 0.276850 0.977967 0.832735
O O11 0.690091 0.065179 0.791907
O O12 0.651168 0.967854 0.937350
O O13 0.730826 0.126696 0.966801
O O14 0.811276 0.283219 0.022250
O O15 0.926227 0.351268 0.902583
#
# Coordination Sequence:
#
# PCOD9578088 Si02
#       7
#    12  12  12  12  12  12  12
#     4  11  22  39  59  86 126 176 216 274 334 397
#     4  11  23  40  66  97 131 168 212 268 331 392
#     4  10  20  36  60  86 125 161 218 268 326 369
#     4  11  21  40  66  95 126 162 224 274 323 370
#     4  12  22  41  64  92 136 164 213 271 321 393
#     4  11  22  37  65  97 119 170 214 271 324 376
#     4  10  24  39  61  96 130 172 208 265 332 389
#
# _framework density 19.705435999999999
#
# number of rings (size 3 to 8) (size 9 to 14) (size 15 to 20)
#    0.000    1.143    5.714    4.000    2.000    0.571 
#    0.857    2.143    0.000    0.000    0.000    0.000 
#    0.000    0.000    0.000    0.000    0.000    0.000 
#
# Total GULP energy -467787.356191 kJ/mol
# GULP energy per Si atom -5568.897098 kJ/mol
# Density = 1.966059 g / cm^3
# Si number density = 19.705436 Si / 1000 Ang^3
#
#
#
# Elastic Constant Matrix: (Units=GPa)
#
#
# Indices 1 2 3 4 5 6 
#
# 1 27.0917 34.3348 21.7375 0.0004 -12.4090 0.0000
# 2 34.3348 27.0917 21.7375 -0.0004 12.4090 0.0000
# 3 21.7375 21.7375 122.6864 0.0000 0.0000 0.0000
# 4 0.0004 -0.0004 0.0000 9.1157 0.0000 12.4090
# 5 -12.4090 12.4090 0.0000 0.0000 9.1157 0.0004
# 6 0.0000 0.0000 0.0000 12.4090 0.0004 -3.6215
#
#
#
# Elastic Compliance Matrix: (Units=1/GPa)
#
#
# Indices 1 2 3 4 5 6 
#
# 1 -0.002880 0.021494 -0.003298 0.000001 -0.033180 0.000000
# 2 0.021494 -0.002880 -0.003298 -0.000001 0.033180 0.000000
# 3 -0.003298 -0.003298 0.009320 0.000000 0.000000 0.000000
# 4 0.000001 -0.000001 0.000000 0.019367 0.000000 0.066360
# 5 -0.033180 0.033180 0.000000 0.000000 0.019367 0.000002
# 6 0.000000 0.000000 0.000000 0.066360 0.000002 -0.048748
#
#
# Mechanical properties :
#
#
# Convention : Reuss Voigt Hill
#
# Bulk Modulus (GPa) = 29.98034 36.94325 33.46179
# Shear Modulus (GPa) = -198.94773 9.52597 -94.71088
#
# Velocity S-wave (km/s) = -10.05883 2.20106 -6.94029
# Velocity P-wave (km/s) = 10.93889 5.02474 6.87064
#
# Compressibility (1/GPa) = 0.03335520
#
# Stress axis : x y z
#
# Youngs Moduli (GPa) = -347.21326 -347.21326 107.30153
#
# Poissons Ratio (x) = 7.46295 0.35388
# Poissons Ratio (y) = 7.46295 0.35388
# Poissons Ratio (z) = -1.14510 -1.14510
#
# Static dielectric constant tensor:
#      x y z
#    x 1.746400 0.000000 0.000000 
#    y 0.000000 1.746400 0.000000 
#    z 0.000000 0.000000 1.742450 
# 
# From -- ./inp_files/2667.got.cif
#   From: 2010.05.17/outbox.cif.g08.bks.cpg/sg163_2_cif.got.tgz:2667.got - 2010.05.20 10:56:03.
