data_PCOD9578436
_publ_section_title
;
Structure prediction by ZEFSAII (Michael W. Deem and Ramdas Pophale) SiO2 
 PCOD9578436
Probable space group: P -3 M 1
;
_chemical_formula_sum "Si O2"
_cell_formula_units_Z 96
_cell_length_a 18.452166
_cell_length_b 18.452166
_cell_length_c 20.377462
_cell_angle_alpha 90.000000
_cell_angle_beta 90.000000
_cell_angle_gamma 120.000000
_cell_volume 6008.629554
_symmetry_space_group_name_H-M "P -3 M 1"
_symmetry_group_IT_number 164
_symmetry_cell_setting 'hexagonal'
loop_
_space_group_symop_operation_xyz
x,y,z
-y,x-y,z
-x+y,-x,z
x-y,-y,-z
-x,-x+y,-z
y,x,-z
-x,-y,-z
y,-x+y,-z
x-y,x,-z
-x+y,y,z
x,x-y,z
-y,-x,z
loop_
_atom_site_type_symbol
_atom_site_label
_atom_site_fract_x
_atom_site_fract_y
_atom_site_fract_z
Si Si1 0.909590 0.541753 0.521843
Si Si2 0.504272 0.667956 0.339172
Si Si3 0.666288 0.502653 0.162363
Si Si4 0.331847 0.497758 0.617121
Si Si5 0.755557 0.079818 0.912357
Si Si6 0.101853 0.730362 0.944998
Si Si7 0.742803 0.090280 0.761038
Si Si8 0.095994 0.360670 0.722010
O O1 0.918561 0.459281 0.529611
O O2 0.875916 0.550581 0.591718
O O3 0.848551 0.521627 0.460194
O O4 0.000000 0.616039 0.500000
O O5 0.478738 0.739369 0.339338
O O6 0.422816 0.577185 0.333836
O O7 0.568010 0.687482 0.279672
O O8 0.739763 0.479526 0.155661
O O9 0.578960 0.421041 0.176935
O O10 0.663642 0.549961 0.096589
O O11 0.695545 0.571760 0.219315
O O12 0.259386 0.518771 0.635607
O O13 0.423525 0.576476 0.630917
O O14 0.311686 0.415072 0.657616
O O15 0.855951 0.144050 0.916506
O O16 0.730006 0.091026 0.839499
O O17 0.713817 0.980768 0.923611
O O18 0.719496 0.102712 0.976582
O O19 0.181387 0.818614 0.927427
O O20 0.839515 0.160486 0.748205
O O21 0.713716 0.996528 0.737591
O O22 0.167345 0.334689 0.717193
#
# Coordination Sequence:
#
# PCOD9578436 Si02
#       8
#    12  12  12  12  12  12  12  12
#     4   9  17  29  45  65  90 123 164 208 250 289
#     4  10  20  33  49  68  94 130 171 210 245 283
#     4  10  19  31  47  68  96 128 160 192 229 277
#     4  10  19  30  46  69  99 132 166 203 245 294
#     4   9  17  31  50  71  94 121 157 199 244 291
#     4   9  17  31  51  72  96 125 156 193 241 295
#     4  10  20  34  51  72  96 124 159 199 241 285
#     4  10  20  33  50  72  97 126 156 192 239 291
#
# _framework density 15.977022
#
# number of rings (size 3 to 8) (size 9 to 14) (size 15 to 20)
#    0.000    2.375    1.250    1.875    0.000    2.000 
#    0.000    4.375    0.000    0.500    0.000    3.500 
#    0.000    0.000    0.000    0.000    0.000   26.000 
#
# Total GULP energy -534404.909675 kJ/mol
# GULP energy per Si atom -5566.717809 kJ/mol
# Density = 1.594066 g / cm^3
# Si number density = 15.977022 Si / 1000 Ang^3
#
#
#
# Elastic Constant Matrix: (Units=GPa)
#
#
# Indices 1 2 3 4 5 6 
#
# 1 66.3198 42.7113 30.2715 0.6166 0.0000 0.0000
# 2 42.7113 66.3198 30.2715 -0.6166 0.0000 0.0000
# 3 30.2715 30.2715 98.9203 0.0000 0.0000 0.0000
# 4 0.6166 -0.6166 0.0000 20.0950 0.0000 0.0000
# 5 0.0000 0.0000 0.0000 0.0000 20.0950 0.6166
# 6 0.0000 0.0000 0.0000 0.0000 0.6166 11.8043
#
#
#
# Elastic Compliance Matrix: (Units=1/GPa)
#
#
# Indices 1 2 3 4 5 6 
#
# 1 0.026737 -0.015688 -0.003381 -0.001302 0.000000 0.000000
# 2 -0.015688 0.026737 -0.003381 0.001302 0.000000 0.000000
# 3 -0.003381 -0.003381 0.012179 0.000000 0.000000 0.000000
# 4 -0.001302 0.001302 0.000000 0.049843 0.000000 0.000000
# 5 0.000000 0.000000 0.000000 0.000000 0.049843 -0.002604
# 6 0.000000 0.000000 0.000000 0.000000 -0.002604 0.084851
#
#
# Mechanical properties :
#
#
# Convention : Reuss Voigt Hill
#
# Bulk Modulus (GPa) = 48.18813 48.67430 48.43121
# Shear Modulus (GPa) = 16.55574 18.95258 17.75416
#
# Velocity S-wave (km/s) = 3.22253 3.44792 3.33713
# Velocity P-wave (km/s) = 6.63872 6.81045 6.72513
#
# Compressibility (1/GPa) = 0.02075200
#
# Stress axis : x y z
#
# Youngs Moduli (GPa) = 37.40082 37.40082 82.11101
#
# Poissons Ratio (x) = 0.58675 0.27764
# Poissons Ratio (y) = 0.58675 0.27764
# Poissons Ratio (z) = 0.12646 0.12646
#
# Static dielectric constant tensor:
#      x y z
#    x 1.532020 0.000000 0.000000 
#    y 0.000000 1.532020 0.000000 
#    z 0.000000 0.000000 1.572180 
# 
# From -- ./inp_files/4780.got.cif
#   From: 2010.05.17/outbox.cif.g08.bks.cpg/sg164_3_cif.got.tgz:4780.got - 2010.05.20 10:58:56.
