data_PCOD9578637
_publ_section_title
;
Structure prediction by ZEFSAII (Michael W. Deem and Ramdas Pophale) SiO2 
 PCOD9578637
Probable space group: P -3 M 1
;
_chemical_formula_sum "Si O2"
_cell_formula_units_Z 60
_cell_length_a 12.719110
_cell_length_b 12.719110
_cell_length_c 26.105422
_cell_angle_alpha 90.000000
_cell_angle_beta 90.000000
_cell_angle_gamma 120.000000
_cell_volume 3657.419671
_symmetry_space_group_name_H-M "P -3 M 1"
_symmetry_group_IT_number 164
_symmetry_cell_setting 'hexagonal'
loop_
_space_group_symop_operation_xyz
x,y,z
-y,x-y,z
-x+y,-x,z
x-y,-y,-z
-x,-x+y,-z
y,x,-z
-x,-y,-z
y,-x+y,-z
x-y,x,-z
-x+y,y,z
x,x-y,z
-y,-x,z
loop_
_atom_site_type_symbol
_atom_site_label
_atom_site_fract_x
_atom_site_fract_y
_atom_site_fract_z
Si Si1 0.417054 0.083144 0.549270
Si Si2 0.916101 0.333651 0.154162
Si Si3 0.416753 0.083467 0.351224
Si Si4 0.999711 0.248353 0.941267
Si Si5 0.750705 0.999482 0.748144
O O1 0.556880 0.113759 0.547146
O O2 0.409792 0.204896 0.549390
O O3 0.351530 0.000000 0.500000
O O4 0.359110 0.003618 0.600170
O O5 0.920752 0.460376 0.159518
O O6 0.777537 0.222464 0.155911
O O7 0.984703 0.310212 0.200622
O O8 0.972499 0.322688 0.100641
O O9 0.549202 0.098403 0.344173
O O10 0.427762 0.213881 0.359921
O O11 0.335148 0.025680 0.300918
O O12 0.872497 0.127504 0.931177
O O13 0.109291 0.218582 0.937453
O O14 0.000000 0.287603 0.000000
O O15 0.782603 0.891302 0.749252
O O16 0.871317 0.128684 0.745389
#
# Coordination Sequence:
#
# PCOD9578637 Si02
#       5
#    12  12  12  12  12
#     4  10  20  34  53  76 103 135 170 209 251 296
#     4  10  20  33  50  71  97 130 166 204 243 287
#     4  10  20  34  54  78 104 134 167 204 244 290
#     4   9  17  30  50  75 100 126 158 199 246 293
#     4  10  20  34  53  76 101 129 162 202 248 295
#
# _framework density 16.405009
#
# number of rings (size 3 to 8) (size 9 to 14) (size 15 to 20)
#    0.000    2.200    0.000    3.400    0.000    1.200 
#    0.000    6.000    0.000   13.200    0.000    0.000 
#    0.000    0.000    0.000    0.000    0.000    0.000 
#
# Total GULP energy -334869.174621 kJ/mol
# GULP energy per Si atom -5581.152910 kJ/mol
# Density = 1.636767 g / cm^3
# Si number density = 16.405009 Si / 1000 Ang^3
#
#
#
# Elastic Constant Matrix: (Units=GPa)
#
#
# Indices 1 2 3 4 5 6 
#
# 1 129.1845 92.3060 78.5164 -1.1104 0.0000 0.0000
# 2 92.3060 129.1845 78.5164 1.1104 0.0000 0.0000
# 3 78.5164 78.5164 124.9959 0.0000 0.0000 0.0000
# 4 -1.1104 1.1104 0.0000 21.2448 0.0000 0.0000
# 5 0.0000 0.0000 0.0000 0.0000 21.2448 -1.1104
# 6 0.0000 0.0000 0.0000 0.0000 -1.1104 18.4393
#
#
#
# Elastic Compliance Matrix: (Units=1/GPa)
#
#
# Indices 1 2 3 4 5 6 
#
# 1 0.017671 -0.009531 -0.005113 0.001422 0.000000 0.000000
# 2 -0.009531 0.017671 -0.005113 -0.001422 0.000000 0.000000
# 3 -0.005113 -0.005113 0.014424 0.000000 0.000000 0.000000
# 4 0.001422 -0.001422 0.000000 0.047219 0.000000 0.000000
# 5 0.000000 0.000000 0.000000 0.000000 0.047219 0.002843
# 6 0.000000 0.000000 0.000000 0.000000 0.002843 0.054403
#
#
# Mechanical properties :
#
#
# Convention : Reuss Voigt Hill
#
# Bulk Modulus (GPa) = 97.54843 98.00471 97.77657
# Shear Modulus (GPa) = 20.70065 21.12084 20.91074
#
# Velocity S-wave (km/s) = 3.55611 3.59202 3.57411
# Velocity P-wave (km/s) = 8.74373 8.77917 8.76147
#
# Compressibility (1/GPa) = 0.01025132
#
# Stress axis : x y z
#
# Youngs Moduli (GPa) = 56.59041 56.59041 69.32920
#
# Poissons Ratio (x) = 0.53935 0.35449
# Poissons Ratio (y) = 0.53935 0.35449
# Poissons Ratio (z) = 0.28936 0.28936
#
# Static dielectric constant tensor:
#      x y z
#    x 1.517650 0.000000 0.000000 
#    y 0.000000 1.517650 0.000000 
#    z 0.000000 0.000000 1.549240 
# 
# From -- ./inp_files/5178.got.cif
#   From: 2010.05.17/outbox.cif.g08.bks.cpg/sg164_3_cif.got.tgz:5178.got - 2010.05.20 10:58:56.
