data_PCOD9578760
_publ_section_title
;
Structure prediction by ZEFSAII (Michael W. Deem and Ramdas Pophale) SiO2 
 PCOD9578760
Probable space group: P -3 M 1
;
_chemical_formula_sum "Si O2"
_cell_formula_units_Z 84
_cell_length_a 21.000000
_cell_length_b 21.000000
_cell_length_c 12.000000
_cell_angle_alpha 90.000000
_cell_angle_beta 90.000000
_cell_angle_gamma 120.000000
_cell_volume 4583.006437
_symmetry_space_group_name_H-M "P -3 M 1"
_symmetry_group_IT_number 164
_symmetry_cell_setting 'hexagonal'
loop_
_space_group_symop_operation_xyz
x,y,z
-y,x-y,z
-x+y,-x,z
x-y,-y,-z
-x,-x+y,-z
y,x,-z
-x,-y,-z
y,-x+y,-z
x-y,x,-z
-x+y,y,z
x,x-y,z
-y,-x,z
loop_
_atom_site_type_symbol
_atom_site_label
_atom_site_fract_x
_atom_site_fract_y
_atom_site_fract_z
Si Si1 0.187972 0.667348 0.729869
Si Si2 0.514833 0.180900 0.856360
Si Si3 0.410677 0.278364 0.060946
Si Si4 0.397895 0.122837 0.680775
Si Si5 0.118753 0.391119 0.574806
Si Si6 0.706971 0.978722 0.778301
Si Si7 0.146032 0.145998 0.131426
O O1 0.176508 0.588254 0.747328
O O2 0.272870 0.727131 0.709684
O O3 0.163408 0.693507 0.839049
O O4 0.141754 0.671628 0.627018
O O5 0.590397 0.180794 0.870705
O O6 0.527296 0.263648 0.866424
O O7 0.476627 0.148534 0.737212
O O8 0.454993 0.133594 0.951633
O O9 0.384385 0.192193 0.042499
O O10 0.344727 0.285500 0.114339
O O11 0.389136 0.194568 0.682740
O O12 0.387067 0.095483 0.553173
O O13 0.336957 0.060520 0.758136
O O14 0.192914 0.385828 0.575975
O O15 0.065065 0.333066 0.665572
O O16 0.781755 0.978528 0.798962
O O17 0.122307 0.061154 0.145765
O O18 0.079802 0.159604 0.161310
O O19 0.162956 0.162956 0.000000
#
# Coordination Sequence:
#
# PCOD9578760 Si02
#       7
#    12  12  12  12  12  12  12
#     4   9  16  28  49  76 104 135 174 223 277 330
#     4  10  21  38  59  81 109 143 180 223 277 334
#     4   9  19  33  52  79 110 141 177 224 269 319
#     4  10  22  37  54  78 108 139 181 235 275 317
#     4   9  19  36  54  76 106 140 184 235 276 315
#     4  11  20  35  58  81 108 150 190 220 268 331
#     4  10  21  35  55  85 121 154 185 222 268 322
#
# _framework density 18.328579999999999
#
# number of rings (size 3 to 8) (size 9 to 14) (size 15 to 20)
#    0.000    2.286    0.000    3.857    2.000    1.143 
#    0.000    5.714    0.000    6.000    0.000    0.000 
#    0.000    6.857    0.000    0.000    0.000    0.000 
#
# Total GULP energy -468461.703414 kJ/mol
# GULP energy per Si atom -5576.925041 kJ/mol
# Density = 1.828686 g / cm^3
# Si number density = 18.328580 Si / 1000 Ang^3
#
#
#
# Elastic Constant Matrix: (Units=GPa)
#
#
# Indices 1 2 3 4 5 6 
#
# 1 51.7782 17.7249 38.3039 3.8021 0.0000 0.0000
# 2 17.7249 51.7782 38.3039 -3.8021 0.0000 0.0000
# 3 38.3039 38.3039 87.8619 0.0000 0.0000 0.0000
# 4 3.8021 -3.8021 0.0000 18.2690 0.0000 0.0000
# 5 0.0000 0.0000 0.0000 0.0000 18.2690 3.8021
# 6 0.0000 0.0000 0.0000 0.0000 3.8021 17.0266
#
#
#
# Elastic Compliance Matrix: (Units=1/GPa)
#
#
# Indices 1 2 3 4 5 6 
#
# 1 0.029247 -0.001550 -0.012075 -0.006409 0.000000 0.000000
# 2 -0.001550 0.029247 -0.012075 0.006409 0.000000 0.000000
# 3 -0.012075 -0.012075 0.021909 0.000000 0.000000 0.000000
# 4 -0.006409 0.006409 0.000000 0.057406 0.000000 0.000000
# 5 0.000000 0.000000 0.000000 0.000000 0.057406 -0.012819
# 6 0.000000 0.000000 0.000000 0.000000 -0.012819 0.061594
#
#
# Mechanical properties :
#
#
# Convention : Reuss Voigt Hill
#
# Bulk Modulus (GPa) = 34.47725 42.23153 38.35439
# Shear Modulus (GPa) = 15.72947 17.18528 16.45737
#
# Velocity S-wave (km/s) = 2.93267 3.06538 2.99976
# Velocity P-wave (km/s) = 5.50626 5.96826 5.74191
#
# Compressibility (1/GPa) = 0.02900463
#
# Stress axis : x y z
#
# Youngs Moduli (GPa) = 34.19175 34.19175 45.64251
#
# Poissons Ratio (x) = 0.05300 0.55111
# Poissons Ratio (y) = 0.05300 0.55111
# Poissons Ratio (z) = 0.41285 0.41285
#
# Static dielectric constant tensor:
#      x y z
#    x 1.620620 0.000000 0.000000 
#    y 0.000000 1.620620 0.000000 
#    z 0.000000 0.000000 1.636750 
# 
# From -- ./inp_files/2907.got.cif
#   From: 2010.05.17/outbox.ucp.g08.bks.cvg/sg164_2_cif.got.tgz:2907.got - 2010.06.11 15:16:10.
