data_PCOD9578959
_publ_section_title
;
Structure prediction by ZEFSAII (Michael W. Deem and Ramdas Pophale) SiO2 
 PCOD9578959
Probable space group: P -3 C 1
;
_chemical_formula_sum "Si O2"
_cell_formula_units_Z 46
_cell_length_a 11.026831
_cell_length_b 11.026831
_cell_length_c 17.901527
_cell_angle_alpha 90.000000
_cell_angle_beta 90.000000
_cell_angle_gamma 120.000000
_cell_volume 1885.046842
_symmetry_space_group_name_H-M "P -3 C 1"
_symmetry_group_IT_number 165
_symmetry_cell_setting 'hexagonal'
loop_
_space_group_symop_operation_xyz
x,y,z
-y,x-y,z
-x+y,-x,z
x-y,-y,1/2-z
-x,-x+y,1/2-z
y,x,1/2-z
-x,-y,-z
y,-x+y,-z
x-y,x,-z
-x+y,y,1/2+z
x,x-y,1/2+z
-y,-x,1/2+z
loop_
_atom_site_type_symbol
_atom_site_label
_atom_site_fract_x
_atom_site_fract_y
_atom_site_fract_z
Si Si1 0.357067 0.357067 0.250000
Si Si2 0.000000 0.000000 0.660890
Si Si3 0.160018 0.529363 0.610978
Si Si4 0.226972 0.298851 0.826664
Si Si5 0.310207 0.263231 0.513950
O O1 0.476166 0.384659 0.308817
O O2 0.327516 0.222492 0.200888
O O3 0.137727 0.144291 0.642935
O O4 0.000000 0.000000 0.750000
O O5 0.305379 0.524938 0.605257
O O6 0.066560 0.426755 0.546224
O O7 0.306234 0.306234 0.750000
O O8 0.303256 0.375990 0.901978
O O9 0.172238 0.274764 0.498104
#
# Coordination Sequence:
#
# PCOD9578959 Si02
#       5
#     6   4  12  12  12
#     4  12  20  48  72 100 142 204 254 310 384 424
#     4   9  15  30  52  98 160 172 212 304 378 424
#     4  10  27  54  71 104 155 198 261 311 363 472
#     4  11  19  34  66 110 151 184 234 306 380 448
#     4  12  23  42  72 114 155 195 243 318 395 447
#
# _framework density 24.402574999999999
#
# number of rings (size 3 to 8) (size 9 to 14) (size 15 to 20)
#    0.522    0.522    6.522    3.391    0.000    1.043 
#    7.043    0.000    0.000    0.000    0.000    0.000 
#    0.000    0.000    0.000    0.000    0.000    0.000 
#
# Total GULP energy -257313.602648 kJ/mol
# GULP energy per Si atom -5593.773971 kJ/mol
# Density = 2.434703 g / cm^3
# Si number density = 24.402575 Si / 1000 Ang^3
#
#
#
# Elastic Constant Matrix: (Units=GPa)
#
#
# Indices 1 2 3 4 5 6 
#
# 1 84.8286 28.0052 35.0039 -6.8295 0.0000 0.0000
# 2 28.0052 84.8286 35.0039 6.8295 0.0000 0.0000
# 3 35.0039 35.0039 180.3484 0.0000 0.0000 0.0000
# 4 -6.8295 6.8295 0.0000 36.7720 0.0000 0.0000
# 5 0.0000 0.0000 0.0000 0.0000 36.7720 -6.8295
# 6 0.0000 0.0000 0.0000 0.0000 -6.8295 28.4117
#
#
#
# Elastic Compliance Matrix: (Units=1/GPa)
#
#
# Indices 1 2 3 4 5 6 
#
# 1 0.014248 -0.004172 -0.001956 0.003421 0.000000 0.000000
# 2 -0.004172 0.014248 -0.001956 -0.003421 0.000000 0.000000
# 3 -0.001956 -0.001956 0.006304 0.000000 0.000000 0.000000
# 4 0.003421 -0.003421 0.000000 0.028465 0.000000 0.000000
# 5 0.000000 0.000000 0.000000 0.000000 0.028465 0.006842
# 6 0.000000 0.000000 0.000000 0.000000 0.006842 0.036842
#
#
# Mechanical properties :
#
#
# Convention : Reuss Voigt Hill
#
# Bulk Modulus (GPa) = 53.66727 60.67015 57.16871
# Shear Modulus (GPa) = 33.12323 37.19067 35.15695
#
# Velocity S-wave (km/s) = 3.68824 3.90814 3.79978
# Velocity P-wave (km/s) = 6.33859 6.72911 6.53677
#
# Compressibility (1/GPa) = 0.01863333
#
# Stress axis : x y z
#
# Youngs Moduli (GPa) = 70.18346 70.18346 158.63029
#
# Poissons Ratio (x) = 0.29283 0.31023
# Poissons Ratio (y) = 0.29283 0.31023
# Poissons Ratio (z) = 0.13725 0.13725
#
# Static dielectric constant tensor:
#      x y z
#    x 2.028020 0.000000 0.000000 
#    y 0.000000 2.028020 0.000000 
#    z 0.000000 0.000000 1.952600 
# 
# From -- ./inp_files/2101.got.cif
#   From: 2010.05.17/outbox.cif.g08.bks.cpg/sg165_2_cif.got.tgz:2101.got - 2010.05.20 11:02:39.
