data_PCOD9578315
_publ_section_title
;
Structure prediction by ZEFSAII (Michael W. Deem and Ramdas Pophale) SiO2 
 PCOD9578315
Probable space group: P -3 M 1
;
_chemical_formula_sum "Si O2"
_cell_formula_units_Z 96
_cell_length_a 22.033706
_cell_length_b 22.033706
_cell_length_c 16.123965
_cell_angle_alpha 90.000000
_cell_angle_beta 90.000000
_cell_angle_gamma 120.000000
_cell_volume 6779.186456
_symmetry_space_group_name_H-M "P -3 M 1"
_symmetry_group_IT_number 164
_symmetry_cell_setting 'hexagonal'
loop_
_space_group_symop_operation_xyz
x,y,z
-y,x-y,z
-x+y,-x,z
x-y,-y,-z
-x,-x+y,-z
y,x,-z
-x,-y,-z
y,-x+y,-z
x-y,x,-z
-x+y,y,z
x,x-y,z
-y,-x,z
loop_
_atom_site_type_symbol
_atom_site_label
_atom_site_fract_x
_atom_site_fract_y
_atom_site_fract_z
Si Si1 0.551997 0.956646 0.080686
Si Si2 0.666998 0.479950 0.834205
Si Si3 0.703807 0.919338 0.396321
Si Si4 0.292643 0.844841 0.663489
Si Si5 0.441418 0.334872 0.665801
Si Si6 0.079210 0.291798 0.594429
Si Si7 0.968799 0.556704 0.249288
Si Si8 0.334275 0.525372 0.490562
O O1 0.478371 0.956741 0.078658
O O2 0.527006 0.874923 0.099239
O O3 0.593718 0.000613 0.161293
O O4 0.594534 0.000000 0.000000
O O5 0.739604 0.479208 0.845731
O O6 0.598797 0.401204 0.835911
O O7 0.667739 0.514562 0.744616
O O8 0.730357 0.865178 0.378281
O O9 0.630450 0.893325 0.350308
O O10 0.692057 0.917650 0.495918
O O11 0.757376 0.000023 0.377621
O O12 0.233387 0.766614 0.688605
O O13 0.252634 0.886681 0.639872
O O14 0.349969 0.891987 0.730219
O O15 0.328907 0.838790 0.579500
O O16 0.419676 0.393349 0.683602
O O17 0.487111 0.350693 0.583149
O O18 0.130165 0.260329 0.607972
O O19 0.968539 0.484270 0.249140
O O20 0.258638 0.517276 0.473711
O O21 0.394207 0.605794 0.493113
#
# Coordination Sequence:
#
# PCOD9578315 Si02
#       8
#    12  12  12  12  12  12  12  12
#     4   8  16  32  51  67  85 109 137 173 218 267
#     4  10  19  30  45  66  93 121 147 177 217 266
#     4  10  17  27  43  61  82 111 147 182 218 261
#     4  10  19  31  43  59  83 113 149 189 224 250
#     4  11  19  29  41  64  89 118 151 186 216 254
#     4   9  17  29  42  57  80 110 143 182 222 257
#     4  10  19  31  47  67  87 110 143 181 223 268
#     4  11  21  31  41  55  82 120 157 188 222 260
#
# _framework density 14.160992
#
# number of rings (size 3 to 8) (size 9 to 14) (size 15 to 20)
#    0.000    2.125    2.500    3.625    0.000    0.500 
#    0.000    3.125    0.000    0.500    0.000    1.750 
#    0.000    0.000    0.000    0.000    0.000    0.000 
#
# Total GULP energy -534752.329105 kJ/mol
# GULP energy per Si atom -5570.336762 kJ/mol
# Density = 1.412876 g / cm^3
# Si number density = 14.160992 Si / 1000 Ang^3
#
#
#
# Elastic Constant Matrix: (Units=GPa)
#
#
# Indices 1 2 3 4 5 6 
#
# 1 67.3595 22.7871 29.9779 0.6196 0.0000 0.0000
# 2 22.7871 67.3595 29.9779 -0.6196 0.0000 0.0000
# 3 29.9779 29.9779 46.0861 0.0000 0.0000 0.0000
# 4 0.6196 -0.6196 0.0000 13.4335 0.0000 0.0000
# 5 0.0000 0.0000 0.0000 0.0000 13.4335 0.6196
# 6 0.0000 0.0000 0.0000 0.0000 0.6196 22.2862
#
#
#
# Elastic Compliance Matrix: (Units=1/GPa)
#
#
# Indices 1 2 3 4 5 6 
#
# 1 0.021008 -0.001456 -0.012718 -0.001036 0.000000 0.000000
# 2 -0.001456 0.021008 -0.012718 0.001036 0.000000 0.000000
# 3 -0.012718 -0.012718 0.038244 0.000000 0.000000 0.000000
# 4 -0.001036 0.001036 0.000000 0.074536 0.000000 0.000000
# 5 0.000000 0.000000 0.000000 0.000000 0.074536 -0.002072
# 6 0.000000 0.000000 0.000000 0.000000 -0.002072 0.044928
#
#
# Mechanical properties :
#
#
# Convention : Reuss Voigt Hill
#
# Bulk Modulus (GPa) = 37.77057 38.47675 38.12366
# Shear Modulus (GPa) = 14.84254 16.36812 15.60533
#
# Velocity S-wave (km/s) = 3.24099 3.40348 3.32323
# Velocity P-wave (km/s) = 6.38244 6.53260 6.45796
#
# Compressibility (1/GPa) = 0.02647564
#
# Stress axis : x y z
#
# Youngs Moduli (GPa) = 47.60119 47.60119 26.14811
#
# Poissons Ratio (x) = 0.06932 0.33255
# Poissons Ratio (y) = 0.06932 0.33255
# Poissons Ratio (z) = 0.60538 0.60538
#
# Static dielectric constant tensor:
#      x y z
#    x 1.468920 0.000000 0.000000 
#    y 0.000000 1.468920 0.000000 
#    z 0.000000 0.000000 1.463710 
# 
# From -- ./inp_files/4302.got.cif
#   From: 2010.05.17/outbox.cif.g08.bks.cpg/sg164_3_cif.got.tgz:4302.got - 2010.05.20 10:58:56.
