data_PCOD9578328
_publ_section_title
;
Structure prediction by ZEFSAII (Michael W. Deem and Ramdas Pophale) SiO2 
 PCOD9578328
Probable space group: P -3 M 1
;
_chemical_formula_sum "Si O2"
_cell_formula_units_Z 60
_cell_length_a 30.567544
_cell_length_b 30.567544
_cell_length_c 5.195852
_cell_angle_alpha 90.000000
_cell_angle_beta 90.000000
_cell_angle_gamma 120.000000
_cell_volume 4204.443258
_symmetry_space_group_name_H-M "P -3 M 1"
_symmetry_group_IT_number 164
_symmetry_cell_setting 'hexagonal'
loop_
_space_group_symop_operation_xyz
x,y,z
-y,x-y,z
-x+y,-x,z
x-y,-y,-z
-x,-x+y,-z
y,x,-z
-x,-y,-z
y,-x+y,-z
x-y,x,-z
-x+y,y,z
x,x-y,z
-y,-x,z
loop_
_atom_site_type_symbol
_atom_site_label
_atom_site_fract_x
_atom_site_fract_y
_atom_site_fract_z
Si Si1 0.677897 0.118533 0.391950
Si Si2 0.208764 0.318313 0.093386
Si Si3 0.729874 0.559041 0.893645
Si Si4 0.033593 0.465993 0.757219
Si Si5 0.738945 0.057394 0.408721
O O1 0.688429 0.144912 0.669876
O O2 0.620878 0.082393 0.301871
O O3 0.704211 0.083660 0.401469
O O4 0.705495 0.160929 0.174325
O O5 0.150779 0.301558 0.041298
O O6 0.238830 0.379634 0.100257
O O7 0.218442 0.303590 0.373943
O O8 0.234784 0.302947 0.869660
O O9 0.771138 0.542275 0.842295
O O10 0.046577 0.523289 0.809414
O O11 0.000000 0.447415 0.500000
O O12 0.000000 0.433135 0.000000
O O13 0.705429 0.000000 0.500000
#
# Coordination Sequence:
#
# PCOD9578328 Si02
#       5
#    12  12  12  12  12
#     4  10  18  28  43  59  80 108 133 165 206 242
#     4   9  17  28  39  52  74 102 127 154 199 244
#     4   9  17  28  42  60  79 101 129 160 199 249
#     4  10  20  32  44  59  82 113 147 175 200 239
#     4  10  18  26  39  58  76  96 130 172 202 226
#
# _framework density 14.270618000000001
#
# number of rings (size 3 to 8) (size 9 to 14) (size 15 to 20)
#    0.000    2.400    0.000    3.600    0.000    8.000 
#    0.000    0.000    0.000    0.000    0.000    0.000 
#    0.000    0.000    0.000   12.000    0.000    0.000 
#
# Total GULP energy -334259.676531 kJ/mol
# GULP energy per Si atom -5570.994609 kJ/mol
# Density = 1.423814 g / cm^3
# Si number density = 14.270618 Si / 1000 Ang^3
#
#
#
# Elastic Constant Matrix: (Units=GPa)
#
#
# Indices 1 2 3 4 5 6 
#
# 1 42.2676 21.2912 17.4655 9.5059 0.0000 0.0000
# 2 21.2912 42.2676 17.4655 -9.5059 0.0000 0.0000
# 3 17.4655 17.4655 87.7802 0.0000 0.0000 0.0000
# 4 9.5059 -9.5059 0.0000 16.5216 0.0000 0.0000
# 5 0.0000 0.0000 0.0000 0.0000 16.5216 9.5059
# 6 0.0000 0.0000 0.0000 0.0000 9.5059 10.4882
#
#
#
# Elastic Compliance Matrix: (Units=1/GPa)
#
#
# Indices 1 2 3 4 5 6 
#
# 1 0.058644 -0.040979 -0.003515 -0.057319 0.000000 0.000000
# 2 -0.040979 0.058644 -0.003515 0.057319 0.000000 0.000000
# 3 -0.003515 -0.003515 0.012791 0.000000 0.000000 0.000000
# 4 -0.057319 0.057319 0.000000 0.126485 0.000000 0.000000
# 5 0.000000 0.000000 0.000000 0.000000 0.126485 -0.114638
# 6 0.000000 0.000000 0.000000 0.000000 -0.114638 0.199246
#
#
# Mechanical properties :
#
#
# Convention : Reuss Voigt Hill
#
# Bulk Modulus (GPa) = 29.35837 31.63996 30.49917
# Shear Modulus (GPa) = 7.24990 16.44584 11.84787
#
# Velocity S-wave (km/s) = 2.25640 3.39842 2.88449
# Velocity P-wave (km/s) = 5.23505 6.13340 5.70194
#
# Compressibility (1/GPa) = 0.03406184
#
# Stress axis : x y z
#
# Youngs Moduli (GPa) = 17.05205 17.05205 78.18148
#
# Poissons Ratio (x) = 0.69877 0.27479
# Poissons Ratio (y) = 0.69877 0.27479
# Poissons Ratio (z) = 0.05993 0.05993
#
# Static dielectric constant tensor:
#      x y z
#    x 1.459460 0.000000 0.000000 
#    y 0.000000 1.459460 0.000000 
#    z 0.000000 0.000000 1.489390 
# 
# From -- ./inp_files/680.got.cif
#   From: 2010.05.17/outbox.cif.g08.bks.cpg/sg164_1_cif.got.tgz:680.got - 2010.05.20 10:58:56.
