data_PCOD9578522
_publ_section_title
;
Structure prediction by ZEFSAII (Michael W. Deem and Ramdas Pophale) SiO2 
 PCOD9578522
Probable space group: P -3 M 1
;
_chemical_formula_sum "Si O2"
_cell_formula_units_Z 66
_cell_length_a 21.221442
_cell_length_b 21.221442
_cell_length_c 7.622070
_cell_angle_alpha 90.000000
_cell_angle_beta 90.000000
_cell_angle_gamma 120.000000
_cell_volume 2972.715493
_symmetry_space_group_name_H-M "P -3 M 1"
_symmetry_group_IT_number 164
_symmetry_cell_setting 'hexagonal'
loop_
_space_group_symop_operation_xyz
x,y,z
-y,x-y,z
-x+y,-x,z
x-y,-y,-z
-x,-x+y,-z
y,x,-z
-x,-y,-z
y,-x+y,-z
x-y,x,-z
-x+y,y,z
x,x-y,z
-y,-x,z
loop_
_atom_site_type_symbol
_atom_site_label
_atom_site_fract_x
_atom_site_fract_y
_atom_site_fract_z
Si Si1 0.450110 0.410649 0.813886
Si Si2 0.333670 0.814908 0.588774
Si Si3 0.302953 0.937971 0.611568
Si Si4 0.171142 0.085571 0.954453
Si Si5 0.146126 0.292252 0.752833
Si Si6 0.914794 0.085207 0.543236
Si Si7 0.667125 0.188343 0.988282
O O1 0.520537 0.479464 0.729870
O O2 0.377713 0.387037 0.709063
O O3 0.469840 0.350233 0.871176
O O4 0.437068 0.437068 0.000000
O O5 0.410255 0.820509 0.537077
O O6 0.265256 0.734745 0.551858
O O7 0.317058 0.877063 0.519547
O O8 0.336842 0.825638 0.801672
O O9 0.232979 0.893156 0.733488
O O10 0.296997 0.000000 0.500000
O O11 0.189299 0.094650 0.748752
O O12 0.124267 0.124267 0.000000
O O13 0.242648 0.121324 0.075357
O O14 0.119816 0.239632 0.583592
O O15 0.000000 0.122973 0.500000
O O16 0.603165 0.206330 0.952111
O O17 0.744482 0.255519 0.947326
#
# Coordination Sequence:
#
# PCOD9578522 Si02
#       7
#    12  12  12   6   6   6  12
#     4  10  20  39  65  94 129 175 227 288 346 418
#     4  10  19  37  63  95 128 169 224 286 348 416
#     4  12  26  44  66  93 135 184 230 285 355 427
#     4  12  25  47  81 113 142 192 250 294 370 443
#     4  12  28  50  68 104 152 192 242 296 361 433
#     4  12  23  47  77 111 150 190 236 312 364 419
#     4   9  17  32  59  94 132 170 218 278 343 403
#
# _framework density 22.201923000000001
#
# number of rings (size 3 to 8) (size 9 to 14) (size 15 to 20)
#    0.000    1.273    4.545    1.636    0.000    3.636 
#    1.636    0.000    0.000    0.000    0.000    2.545 
#    0.000    0.000    0.000    0.000    0.000    0.000 
#
# Total GULP energy -369039.535857 kJ/mol
# GULP energy per Si atom -5591.508119 kJ/mol
# Density = 2.215139 g / cm^3
# Si number density = 22.201923 Si / 1000 Ang^3
#
#
#
# Elastic Constant Matrix: (Units=GPa)
#
#
# Indices 1 2 3 4 5 6 
#
# 1 200.9416 6.0436 30.8987 -8.9000 0.0000 0.0000
# 2 6.0436 200.9416 30.8987 8.9000 0.0000 0.0000
# 3 30.8987 30.8987 92.0829 0.0000 0.0000 0.0000
# 4 -8.9000 8.9000 0.0000 16.1331 0.0000 0.0000
# 5 0.0000 0.0000 0.0000 0.0000 16.1331 -8.9000
# 6 0.0000 0.0000 0.0000 0.0000 -8.9000 97.4490
#
#
#
# Elastic Compliance Matrix: (Units=1/GPa)
#
#
# Indices 1 2 3 4 5 6 
#
# 1 0.005386 -0.000017 -0.001802 0.002981 0.000000 0.000000
# 2 -0.000017 0.005386 -0.001802 -0.002981 0.000000 0.000000
# 3 -0.001802 -0.001802 0.012069 0.000000 0.000000 0.000000
# 4 0.002981 -0.002981 0.000000 0.065273 0.000000 0.000000
# 5 0.000000 0.000000 0.000000 0.000000 0.065273 0.005961
# 6 0.000000 0.000000 0.000000 0.000000 0.005961 0.010806
#
#
# Mechanical properties :
#
#
# Convention : Reuss Voigt Hill
#
# Bulk Modulus (GPa) = 64.09999 69.96094 67.03046
# Shear Modulus (GPa) = 28.30706 54.35137 41.32921
#
# Velocity S-wave (km/s) = 3.57456 4.95314 4.31921
# Velocity P-wave (km/s) = 6.78017 8.01817 7.42502
#
# Compressibility (1/GPa) = 0.01560063
#
# Stress axis : x y z
#
# Youngs Moduli (GPa) = 185.66177 185.66177 82.85780
#
# Poissons Ratio (x) = 0.00315 0.14928
# Poissons Ratio (y) = 0.00315 0.14928
# Poissons Ratio (z) = 0.33450 0.33450
#
# Static dielectric constant tensor:
#      x y z
#    x 1.817990 0.000000 0.000000 
#    y 0.000000 1.817990 0.000000 
#    z 0.000000 0.000000 1.868460 
# 
# From -- ./inp_files/1773.got.cif
#   From: 2010.05.17/outbox.cif.g08.bks.cpg/sg164_1_cif.got.tgz:1773.got - 2010.05.20 10:58:56.
