data_PCOD9578660
_publ_section_title
;
Structure prediction by ZEFSAII (Michael W. Deem and Ramdas Pophale) SiO2 
 PCOD9578660
Probable space group: P -3 M 1
;
_chemical_formula_sum "Si O2"
_cell_formula_units_Z 60
_cell_length_a 12.658294
_cell_length_b 12.658294
_cell_length_c 26.115603
_cell_angle_alpha 90.000000
_cell_angle_beta 90.000000
_cell_angle_gamma 120.000000
_cell_volume 3623.940398
_symmetry_space_group_name_H-M "P -3 M 1"
_symmetry_group_IT_number 164
_symmetry_cell_setting 'hexagonal'
loop_
_space_group_symop_operation_xyz
x,y,z
-y,x-y,z
-x+y,-x,z
x-y,-y,-z
-x,-x+y,-z
y,x,-z
-x,-y,-z
y,-x+y,-z
x-y,x,-z
-x+y,y,z
x,x-y,z
-y,-x,z
loop_
_atom_site_type_symbol
_atom_site_label
_atom_site_fract_x
_atom_site_fract_y
_atom_site_fract_z
Si Si1 0.082058 0.415474 0.799607
Si Si2 0.584494 0.667133 0.600301
Si Si3 0.748706 0.000000 0.000000
Si Si4 0.415492 0.333429 0.899871
Si Si5 0.000000 0.251216 0.500000
Si Si6 0.250893 0.251259 0.699546
O O1 0.215253 0.430506 0.805552
O O2 0.092250 0.546125 0.791517
O O3 0.019615 0.329204 0.750781
O O4 0.002260 0.356743 0.850376
O O5 0.554138 0.777069 0.602080
O O6 0.462096 0.537905 0.599620
O O7 0.665105 0.688671 0.549689
O O8 0.665603 0.683549 0.650213
O O9 0.687753 0.021628 0.950081
O O10 0.761038 0.880519 0.993185
O O11 0.425964 0.212982 0.892551
O O12 0.548095 0.451906 0.906570
O O13 0.119114 0.238228 0.492563
O O14 0.110847 0.221693 0.697773
O O15 0.256892 0.128446 0.699125
#
# Coordination Sequence:
#
# PCOD9578660 Si02
#       6
#    12  12   6  12   6  12
#     4  10  20  34  53  76 102 132 166 205 248 295
#     4  10  20  34  53  76 103 135 170 208 250 297
#     4  10  20  34  52  74 100 130 166 208 254 300
#     4  10  20  34  52  74 101 133 168 205 247 296
#     4  10  20  34  54  78 104 134 168 208 252 298
#     4  10  20  34  53  76 102 132 166 206 250 296
#
# _framework density 16.556563000000001
#
# number of rings (size 3 to 8) (size 9 to 14) (size 15 to 20)
#    0.000    2.000    0.000    4.000    0.000    0.000 
#    0.000    4.000    0.000   22.400    0.000    0.000 
#    0.000    0.000    0.000    0.000    0.000    0.000 
#
# Total GULP energy -335024.561209 kJ/mol
# GULP energy per Si atom -5583.742687 kJ/mol
# Density = 1.651888 g / cm^3
# Si number density = 16.556563 Si / 1000 Ang^3
#
#
#
# Elastic Constant Matrix: (Units=GPa)
#
#
# Indices 1 2 3 4 5 6 
#
# 1 149.1762 109.2938 105.1929 4.1092 0.0000 0.0000
# 2 109.2938 149.1762 105.1929 -4.1092 0.0000 0.0000
# 3 105.1929 105.1929 156.8671 0.0000 0.0000 0.0000
# 4 4.1092 -4.1092 0.0000 23.4326 0.0000 0.0000
# 5 0.0000 0.0000 0.0000 0.0000 23.4326 4.1092
# 6 0.0000 0.0000 0.0000 0.0000 4.1092 19.9412
#
#
#
# Elastic Compliance Matrix: (Units=1/GPa)
#
#
# Indices 1 2 3 4 5 6 
#
# 1 0.017266 -0.008747 -0.005713 -0.004562 0.000000 0.000000
# 2 -0.008747 0.017266 -0.005713 0.004562 0.000000 0.000000
# 3 -0.005713 -0.005713 0.014036 0.000000 0.000000 0.000000
# 4 -0.004562 0.004562 0.000000 0.044276 0.000000 0.000000
# 5 0.000000 0.000000 0.000000 0.000000 0.044276 -0.009124
# 6 0.000000 0.000000 0.000000 0.000000 -0.009124 0.052027
#
#
# Mechanical properties :
#
#
# Convention : Reuss Voigt Hill
#
# Bulk Modulus (GPa) = 121.60091 121.61983 121.61037
# Shear Modulus (GPa) = 21.53003 22.39728 21.96365
#
# Velocity S-wave (km/s) = 3.61001 3.68200 3.64618
# Velocity P-wave (km/s) = 9.53842 9.57563 9.55704
#
# Compressibility (1/GPa) = 0.00822362
#
# Stress axis : x y z
#
# Youngs Moduli (GPa) = 57.91648 57.91648 71.24366
#
# Poissons Ratio (x) = 0.50662 0.40698
# Poissons Ratio (y) = 0.50662 0.40698
# Poissons Ratio (z) = 0.33085 0.33085
#
# Static dielectric constant tensor:
#      x y z
#    x 1.523610 0.000000 0.000000 
#    y 0.000000 1.523610 0.000000 
#    z 0.000000 0.000000 1.536810 
# 
# From -- ./inp_files/5226.got.cif
#   From: 2010.05.17/outbox.cif.g08.bks.cpg/sg164_3_cif.got.tgz:5226.got - 2010.05.20 10:58:56.
