data_PCOD9578706
_publ_section_title
;
Structure prediction by ZEFSAII (Michael W. Deem and Ramdas Pophale) SiO2 
 PCOD9578706
Probable space group: P -3 M 1
;
_chemical_formula_sum "Si O2"
_cell_formula_units_Z 96
_cell_length_a 18.123410
_cell_length_b 18.123410
_cell_length_c 21.391421
_cell_angle_alpha 90.000000
_cell_angle_beta 90.000000
_cell_angle_gamma 120.000000
_cell_volume 6084.853096
_symmetry_space_group_name_H-M "P -3 M 1"
_symmetry_group_IT_number 164
_symmetry_cell_setting 'hexagonal'
loop_
_space_group_symop_operation_xyz
x,y,z
-y,x-y,z
-x+y,-x,z
x-y,-y,-z
-x,-x+y,-z
y,x,-z
-x,-y,-z
y,-x+y,-z
x-y,x,-z
-x+y,y,z
x,x-y,z
-y,-x,z
loop_
_atom_site_type_symbol
_atom_site_label
_atom_site_fract_x
_atom_site_fract_y
_atom_site_fract_z
Si Si1 0.666340 0.506022 0.927460
Si Si2 0.905236 0.266795 0.182230
Si Si3 0.509519 0.666287 0.432916
Si Si4 0.839681 0.333660 0.072545
Si Si5 0.842994 0.333573 0.295634
Si Si6 0.638442 0.905236 0.182225
Si Si7 0.842993 0.509420 0.704371
Si Si8 0.333713 0.490482 0.567078
O O1 0.740983 0.481965 0.921541
O O2 0.575708 0.424293 0.912393
O O3 0.691190 0.582336 0.879806
O O4 0.665085 0.529314 0.000003
O O5 0.830964 0.169037 0.183795
O O6 0.891144 0.308810 0.120200
O O7 0.889868 0.313343 0.240966
O O8 1.000000 0.283591 0.183828
O O9 0.506344 0.753172 0.434245
O O10 0.414042 0.585959 0.431822
O O11 0.545487 0.664250 0.364723
O O12 0.547966 0.661071 0.499997
O O13 0.848585 0.424293 0.087612
O O14 0.740981 0.259019 0.078463
O O15 0.844946 0.422473 0.285546
O O16 0.745083 0.254918 0.295402
O O17 0.881237 0.335753 0.364729
O O18 0.661930 0.830965 0.183787
O O19 0.576524 0.889864 0.240960
O O20 0.745081 0.490161 0.704602
O O21 0.844948 0.422474 0.714459
O O22 0.246827 0.493654 0.565751
O O23 0.414041 0.585960 0.568171
#
# Coordination Sequence:
#
# PCOD9578706 Si02
#       8
#    12  12  12  12  12  12  12  12
#     4   9  17  29  46  69  98 131 162 186 205 229
#     4  10  21  35  49  65  85 110 141 179 225 272
#     4   8  12  18  30  50  78 113 152 188 214 234
#     4   9  17  29  46  69  98 131 162 186 205 229
#     4   9  16  25  39  61  90 123 155 183 209 240
#     4  10  21  35  49  65  85 110 141 179 225 272
#     4   9  16  25  39  61  90 123 155 183 209 240
#     4   8  12  18  30  50  78 113 152 188 214 234
#
# _framework density 15.77688
#
# number of rings (size 3 to 8) (size 9 to 14) (size 15 to 20)
#    0.000    3.000    0.000    1.500    0.000    6.500 
#    0.000    3.750    0.000    1.000    0.000    3.500 
#    0.000    0.000    0.000    6.250    0.000    0.000 
#
# Total GULP energy -534442.113248 kJ/mol
# GULP energy per Si atom -5567.105346 kJ/mol
# Density = 1.574097 g / cm^3
# Si number density = 15.776880 Si / 1000 Ang^3
#
#
#
# Elastic Constant Matrix: (Units=GPa)
#
#
# Indices 1 2 3 4 5 6 
#
# 1 47.2696 46.4139 40.6030 0.0005 0.0000 0.0000
# 2 46.4139 47.2696 40.6030 -0.0005 0.0000 0.0000
# 3 40.6030 40.6030 92.2895 0.0000 0.0000 0.0000
# 4 0.0005 -0.0005 0.0000 1.5171 0.0000 0.0000
# 5 0.0000 0.0000 0.0000 0.0000 1.5171 0.0005
# 6 0.0000 0.0000 0.0000 0.0000 0.0005 0.4279
#
#
#
# Elastic Compliance Matrix: (Units=1/GPa)
#
#
# Indices 1 2 3 4 5 6 
#
# 1 0.592936 -0.575682 -0.007591 -0.000407 0.000000 0.000000
# 2 -0.575682 0.592936 -0.007591 0.000407 0.000000 0.000000
# 3 -0.007591 -0.007591 0.017515 0.000000 0.000000 0.000000
# 4 -0.000407 0.000407 0.000000 0.659164 0.000000 0.000000
# 5 0.000000 0.000000 0.000000 0.000000 0.659164 -0.000815
# 6 0.000000 0.000000 0.000000 0.000000 -0.000815 2.337236
#
#
# Mechanical properties :
#
#
# Convention : Reuss Voigt Hill
#
# Bulk Modulus (GPa) = 46.16985 49.11875 47.64430
# Shear Modulus (GPa) = 0.82673 4.63966 2.73320
#
# Velocity S-wave (km/s) = 0.72467 1.71674 1.31764
# Velocity P-wave (km/s) = 5.47978 5.92710 5.70782
#
# Compressibility (1/GPa) = 0.02165916
#
# Stress axis : x y z
#
# Youngs Moduli (GPa) = 1.68652 1.68652 57.09441
#
# Poissons Ratio (x) = 0.97090 0.43341
# Poissons Ratio (y) = 0.97090 0.43341
# Poissons Ratio (z) = 0.01280 0.01280
#
# Static dielectric constant tensor:
#      x y z
#    x 1.502050 0.000000 0.000000 
#    y 0.000000 1.502050 0.000000 
#    z 0.000000 0.000000 1.595480 
# 
# From -- ./inp_files/4712.got.cif
#   From: 2010.05.17/outbox.cif.g08.bks.cpg/sg164_3_cif.got.tgz:4712.got - 2010.05.20 10:58:56.
