data_PCOD9578643
_publ_section_title
;
Structure prediction by ZEFSAII (Michael W. Deem and Ramdas Pophale) SiO2 
 PCOD9578643
Probable space group: P -3 M 1
;
_chemical_formula_sum "Si O2"
_cell_formula_units_Z 66
_cell_length_a 12.742517
_cell_length_b 12.742517
_cell_length_c 28.970060
_cell_angle_alpha 90.000000
_cell_angle_beta 90.000000
_cell_angle_gamma 120.000000
_cell_volume 4073.713382
_symmetry_space_group_name_H-M "P -3 M 1"
_symmetry_group_IT_number 164
_symmetry_cell_setting 'hexagonal'
loop_
_space_group_symop_operation_xyz
x,y,z
-y,x-y,z
-x+y,-x,z
x-y,-y,-z
-x,-x+y,-z
y,x,-z
-x,-y,-z
y,-x+y,-z
x-y,x,-z
-x+y,y,z
x,x-y,z
-y,-x,z
loop_
_atom_site_type_symbol
_atom_site_label
_atom_site_fract_x
_atom_site_fract_y
_atom_site_fract_z
Si Si1 0.416760 0.332737 0.458060
Si Si2 0.750076 0.750409 0.178193
Si Si3 0.000000 0.750379 0.000000
Si Si4 0.915904 0.582962 0.733036
Si Si5 0.667375 0.084404 0.910385
Si Si6 0.582615 0.916227 0.645706
O O1 0.338689 0.338689 0.500000
O O2 0.426944 0.213472 0.461196
O O3 0.549422 0.450579 0.462372
O O4 0.372073 0.336117 0.406198
O O5 0.872286 0.744571 0.176700
O O6 0.674172 0.691901 0.224705
O O7 0.664171 0.684285 0.134516
O O8 0.779058 0.889529 0.176665
O O9 0.026018 0.691162 0.044377
O O10 0.881723 0.763446 0.007430
O O11 0.780691 0.561381 0.730716
O O12 0.913425 0.456713 0.740513
O O13 0.987454 0.640438 0.685614
O O14 0.538099 0.076197 0.911392
O O15 0.775670 0.224331 0.908625
O O16 0.443401 0.886801 0.647757
O O17 0.587799 0.793900 0.652457
#
# Coordination Sequence:
#
# PCOD9578643 Si02
#       6
#    12  12   6  12  12  12
#     4   9  17  29  46  68  93 122 156 194 236 281
#     4  10  20  34  53  75  99 128 163 204 245 285
#     4  10  20  34  54  78 104 134 168 208 250 292
#     4  10  20  33  50  72  99 129 159 193 235 285
#     4  10  20  34  53  76 103 135 169 204 243 290
#     4   9  17  30  48  69  93 122 157 196 237 281
#
# _framework density 16.201435
#
# number of rings (size 3 to 8) (size 9 to 14) (size 15 to 20)
#    0.000    2.364    0.000    2.909    0.000    2.182 
#    0.000    3.636    0.000   11.455    0.000    0.000 
#    0.000    0.000    0.000    0.000    0.000    0.000 
#
# Total GULP energy -368088.372327 kJ/mol
# GULP energy per Si atom -5577.096550 kJ/mol
# Density = 1.616456 g / cm^3
# Si number density = 16.201435 Si / 1000 Ang^3
#
#
#
# Elastic Constant Matrix: (Units=GPa)
#
#
# Indices 1 2 3 4 5 6 
#
# 1 109.6941 70.0258 79.2114 2.3343 0.0000 0.0000
# 2 70.0258 109.6941 79.2114 -2.3343 0.0000 0.0000
# 3 79.2114 79.2114 152.5664 0.0000 0.0000 0.0000
# 4 2.3343 -2.3343 0.0000 24.0608 0.0000 0.0000
# 5 0.0000 0.0000 0.0000 0.0000 24.0608 2.3343
# 6 0.0000 0.0000 0.0000 0.0000 2.3343 19.8341
#
#
#
# Elastic Compliance Matrix: (Units=1/GPa)
#
#
# Indices 1 2 3 4 5 6 
#
# 1 0.017880 -0.007620 -0.005327 -0.002474 0.000000 0.000000
# 2 -0.007620 0.017880 -0.005327 0.002474 0.000000 0.000000
# 3 -0.005327 -0.005327 0.012086 0.000000 0.000000 0.000000
# 4 -0.002474 0.002474 0.000000 0.042041 0.000000 0.000000
# 5 0.000000 0.000000 0.000000 0.000000 0.042041 -0.004948
# 6 0.000000 0.000000 0.000000 0.000000 -0.004948 0.051000
#
#
# Mechanical properties :
#
#
# Convention : Reuss Voigt Hill
#
# Bulk Modulus (GPa) = 88.51008 92.09463 90.30235
# Shear Modulus (GPa) = 22.39714 23.15822 22.77768
#
# Velocity S-wave (km/s) = 3.72212 3.78483 3.75361
# Velocity P-wave (km/s) = 8.55698 8.72163 8.63970
#
# Compressibility (1/GPa) = 0.01129815
#
# Stress axis : x y z
#
# Youngs Moduli (GPa) = 55.92840 55.92840 82.74169
#
# Poissons Ratio (x) = 0.42619 0.44075
# Poissons Ratio (y) = 0.42619 0.44075
# Poissons Ratio (z) = 0.29792 0.29792
#
# Static dielectric constant tensor:
#      x y z
#    x 1.509560 0.000000 0.000000 
#    y 0.000000 1.509560 0.000000 
#    z 0.000000 0.000000 1.550630 
# 
# From -- ./inp_files/5487.got.cif
#   From: 2010.05.17/outbox.cif.g08.bks.cpg/sg164_3_cif.got.tgz:5487.got - 2010.05.20 10:58:56.
