data_PCOD9578316
_publ_section_title
;
Structure prediction by ZEFSAII (Michael W. Deem and Ramdas Pophale) SiO2 
 PCOD9578316
Probable space group: P -3 M 1
;
_chemical_formula_sum "Si O2"
_cell_formula_units_Z 84
_cell_length_a 22.417270
_cell_length_b 22.417270
_cell_length_c 12.739720
_cell_angle_alpha 90.000000
_cell_angle_beta 90.000000
_cell_angle_gamma 120.000000
_cell_volume 5544.417937
_symmetry_space_group_name_H-M "P -3 M 1"
_symmetry_group_IT_number 164
_symmetry_cell_setting 'hexagonal'
loop_
_space_group_symop_operation_xyz
x,y,z
-y,x-y,z
-x+y,-x,z
x-y,-y,-z
-x,-x+y,-z
y,x,-z
-x,-y,-z
y,-x+y,-z
x-y,x,-z
-x+y,y,z
x,x-y,z
-y,-x,z
loop_
_atom_site_type_symbol
_atom_site_label
_atom_site_fract_x
_atom_site_fract_y
_atom_site_fract_z
Si Si1 0.927202 0.718067 0.456745
Si Si2 0.118311 0.740346 0.945949
Si Si3 0.697387 0.716575 0.758976
Si Si4 0.379156 0.257342 0.657798
Si Si5 0.666154 0.472675 0.956888
Si Si6 0.334215 0.801533 0.294226
Si Si7 0.240932 0.189486 0.913892
O O1 0.869617 0.739233 0.443310
O O2 0.940440 0.690996 0.347583
O O3 0.900506 0.659728 0.546972
O O4 0.000000 0.777917 0.500000
O O5 0.188347 0.811654 0.917588
O O6 0.067524 0.710468 0.846317
O O7 0.142080 0.688390 0.990764
O O8 0.080545 0.763410 0.032814
O O9 0.703614 0.650147 0.728151
O O10 0.771504 0.764574 0.813040
O O11 0.366692 0.183346 0.702100
O O12 0.460501 0.304743 0.648202
O O13 0.728847 0.457694 0.978688
O O14 0.592606 0.407395 0.988160
O O15 0.664787 0.480246 0.830706
O O16 0.408953 0.817906 0.327798
O O17 0.278874 0.721127 0.308259
O O18 0.232263 0.116132 0.891087
O O19 0.188528 0.188528 0.000000
#
# Coordination Sequence:
#
# PCOD9578316 Si02
#       7
#    12  12  12  12  12  12  12
#     4   9  18  31  48  69  88 108 138 176 216 256
#     4   9  17  28  42  62  88 116 145 179 216 251
#     4  10  17  27  45  65  88 115 146 177 211 255
#     4   9  17  29  45  65  88 112 139 177 223 262
#     4   9  16  26  41  62  88 117 148 180 214 252
#     4   9  16  27  45  67  89 113 143 179 217 256
#     4   9  17  28  44  66  89 114 144 178 215 252
#
# _framework density 15.150373
#
# number of rings (size 3 to 8) (size 9 to 14) (size 15 to 20)
#    0.000    2.857    0.000    2.000    0.000    4.571 
#    0.000    0.714    0.000   10.571    0.000    1.000 
#    0.000    2.286    0.000    0.000    0.000    0.000 
#
# Total GULP energy -467629.511264 kJ/mol
# GULP energy per Si atom -5567.017991 kJ/mol
# Density = 1.511589 g / cm^3
# Si number density = 15.150373 Si / 1000 Ang^3
#
#
#
# Elastic Constant Matrix: (Units=GPa)
#
#
# Indices 1 2 3 4 5 6 
#
# 1 78.5604 40.4407 16.0039 -2.5679 0.0000 0.0000
# 2 40.4407 78.5604 16.0039 2.5679 0.0000 0.0000
# 3 16.0039 16.0039 27.7494 0.0000 0.0000 0.0000
# 4 -2.5679 2.5679 0.0000 13.7682 0.0000 0.0000
# 5 0.0000 0.0000 0.0000 0.0000 13.7682 -2.5679
# 6 0.0000 0.0000 0.0000 0.0000 -2.5679 19.0598
#
#
#
# Elastic Compliance Matrix: (Units=1/GPa)
#
#
# Indices 1 2 3 4 5 6 
#
# 1 0.018428 -0.008482 -0.005736 0.005019 0.000000 0.000000
# 2 -0.008482 0.018428 -0.005736 -0.005019 0.000000 0.000000
# 3 -0.005736 -0.005736 0.042653 0.000000 0.000000 0.000000
# 4 0.005019 -0.005019 0.000000 0.074503 0.000000 0.000000
# 5 0.000000 0.000000 0.000000 0.000000 0.074503 0.010038
# 6 0.000000 0.000000 0.000000 0.000000 0.010038 0.053819
#
#
# Mechanical properties :
#
#
# Convention : Reuss Voigt Hill
#
# Bulk Modulus (GPa) = 25.25210 36.64081 30.94645
# Shear Modulus (GPa) = 14.90570 16.81404 15.85987
#
# Velocity S-wave (km/s) = 3.14004 3.33500 3.23899
# Velocity P-wave (km/s) = 5.46354 6.25035 5.87014
#
# Compressibility (1/GPa) = 0.03960067
#
# Stress axis : x y z
#
# Youngs Moduli (GPa) = 54.26597 54.26597 23.44483
#
# Poissons Ratio (x) = 0.46026 0.13449
# Poissons Ratio (y) = 0.46026 0.13449
# Poissons Ratio (z) = 0.31128 0.31128
#
# Static dielectric constant tensor:
#      x y z
#    x 1.501060 0.000000 0.000000 
#    y 0.000000 1.501060 0.000000 
#    z 0.000000 0.000000 1.518140 
# 
# From -- ./inp_files/3078.got.cif
#   From: 2010.05.17/outbox.cif.g08.bks.cpg/sg164_2_cif.got.tgz:3078.got - 2010.05.20 10:58:56.
