data_PCOD9578144
_publ_section_title
;
Structure prediction by ZEFSAII (Michael W. Deem and Ramdas Pophale) SiO2 
 PCOD9578144
Probable space group: P -3 1 C
;
_chemical_formula_sum "Si O2"
_cell_formula_units_Z 72
_cell_length_a 15.287814
_cell_length_b 15.287814
_cell_length_c 17.121096
_cell_angle_alpha 90.000000
_cell_angle_beta 90.000000
_cell_angle_gamma 120.000000
_cell_volume 3465.396836
_symmetry_space_group_name_H-M "P -3 1 C"
_symmetry_group_IT_number 163
_symmetry_cell_setting 'hexagonal'
loop_
_space_group_symop_operation_xyz
x,y,z
-y,x-y,z
-x+y,-x,z
-y,-x,1/2-z
-x+y,y,1/2-z
x,x-y,1/2-z
-x,-y,-z
y,-x+y,-z
x-y,x,-z
y,x,1/2+z
x-y,-y,1/2+z
-x,-x+y,1/2+z
loop_
_atom_site_type_symbol
_atom_site_label
_atom_site_fract_x
_atom_site_fract_y
_atom_site_fract_z
Si Si1 0.493385 0.344387 0.087079
Si Si2 0.125447 0.823440 0.170793
Si Si3 0.072076 0.384718 0.058688
Si Si4 0.595266 0.006112 0.715157
Si Si5 0.862304 0.537734 0.360511
Si Si6 0.813970 0.985273 0.531828
O O1 0.437426 0.396913 0.129276
O O2 0.444524 0.229345 0.117149
O O3 0.604727 0.418951 0.120607
O O4 0.484500 0.348882 0.993435
O O5 0.122700 0.877301 0.250000
O O6 0.234560 0.869583 0.128829
O O7 0.087221 0.710963 0.202753
O O8 0.050080 0.828383 0.108369
O O9 0.962553 0.362082 0.086599
O O10 0.053220 0.297903 0.997286
O O11 0.522395 0.044789 0.750000
O O12 0.569850 0.911557 0.773924
O O13 0.830831 0.890571 0.534454
#
# Coordination Sequence:
#
# PCOD9578144 Si02
#       6
#    12  12  12  12  12  12
#     4  11  23  39  63  93 127 165 208 262 316 386
#     4  11  21  40  61  92 123 163 213 257 306 389
#     4  11  22  38  63  89 123 169 212 261 316 378
#     4  10  22  40  65  91 126 164 206 262 320 386
#     4  11  22  40  61  95 126 167 209 262 320 375
#     4  10  21  38  60  87 121 163 207 263 322 374
#
# _framework density 20.776841000000001
#
# number of rings (size 3 to 8) (size 9 to 14) (size 15 to 20)
#    0.000    1.333    3.333    3.500    0.000    0.000 
#    0.000    5.000    0.000    0.333    0.000    0.000 
#    0.000    0.000    0.000    0.000    0.000    0.000 
#
# Total GULP energy -401290.631514 kJ/mol
# GULP energy per Si atom -5573.480993 kJ/mol
# Density = 2.072955 g / cm^3
# Si number density = 20.776841 Si / 1000 Ang^3
#
#
#
# Elastic Constant Matrix: (Units=GPa)
#
#
# Indices 1 2 3 4 5 6 
#
# 1 77.1055 30.9000 24.6748 0.0000 -4.3758 0.0000
# 2 30.9000 77.1055 24.6748 0.0000 4.3758 0.0000
# 3 24.6748 24.6748 114.0165 0.0000 0.0000 0.0000
# 4 0.0000 0.0000 0.0000 14.9811 0.0000 4.3758
# 5 -4.3758 4.3758 0.0000 0.0000 14.9811 0.0000
# 6 0.0000 0.0000 0.0000 4.3758 0.0000 23.1027
#
#
#
# Elastic Compliance Matrix: (Units=1/GPa)
#
#
# Indices 1 2 3 4 5 6 
#
# 1 0.016592 -0.006318 -0.002224 0.000000 0.006692 0.000000
# 2 -0.006318 0.016592 -0.002224 0.000000 -0.006692 0.000000
# 3 -0.002224 -0.002224 0.009733 0.000000 0.000000 0.000000
# 4 0.000000 0.000000 0.000000 0.070660 0.000000 -0.013383
# 5 0.006692 -0.006692 0.000000 0.000000 0.070660 0.000000
# 6 0.000000 0.000000 0.000000 -0.013383 0.000000 0.045820
#
#
# Mechanical properties :
#
#
# Convention : Reuss Voigt Hill
#
# Bulk Modulus (GPa) = 46.75466 47.63630 47.19548
# Shear Modulus (GPa) = 19.32615 23.14483 21.23549
#
# Velocity S-wave (km/s) = 3.05319 3.34124 3.20046
# Velocity P-wave (km/s) = 5.91451 6.15326 6.03506
#
# Compressibility (1/GPa) = 0.02138824
#
# Stress axis : x y z
#
# Youngs Moduli (GPa) = 60.26874 60.26874 102.74210
#
# Poissons Ratio (x) = 0.38075 0.22846
# Poissons Ratio (y) = 0.38075 0.22846
# Poissons Ratio (z) = 0.13401 0.13401
#
# Static dielectric constant tensor:
#      x y z
#    x 1.794940 0.000000 0.000000 
#    y 0.000000 1.794940 0.000000 
#    z 0.000000 0.000000 1.846010 
# 
# From -- ./inp_files/3133.got.cif
#   From: 2010.05.17/outbox.cif.g08.bks.cpg/sg163_2_cif.got.tgz:3133.got - 2010.05.20 10:56:03.
