data_PCOD9578244
_publ_section_title
;
Structure prediction by ZEFSAII (Michael W. Deem and Ramdas Pophale) SiO2 
 PCOD9578244
Probable space group: P -3 1 C
;
_chemical_formula_sum "Si O2"
_cell_formula_units_Z 84
_cell_length_a 16.862473
_cell_length_b 16.862473
_cell_length_c 15.680455
_cell_angle_alpha 90.000000
_cell_angle_beta 90.000000
_cell_angle_gamma 120.000000
_cell_volume 3861.284723
_symmetry_space_group_name_H-M "P -3 1 C"
_symmetry_group_IT_number 163
_symmetry_cell_setting 'hexagonal'
loop_
_space_group_symop_operation_xyz
x,y,z
-y,x-y,z
-x+y,-x,z
-y,-x,1/2-z
-x+y,y,1/2-z
x,x-y,1/2-z
-x,-y,-z
y,-x+y,-z
x-y,x,-z
y,x,1/2+z
x-y,-y,1/2+z
-x,-x+y,1/2+z
loop_
_atom_site_type_symbol
_atom_site_label
_atom_site_fract_x
_atom_site_fract_y
_atom_site_fract_z
Si Si1 0.495415 0.830380 0.727712
Si Si2 0.509433 0.681432 0.964941
Si Si3 0.767653 0.640884 0.837424
Si Si4 0.344681 0.842760 0.475695
Si Si5 0.052536 0.207783 0.487923
Si Si6 0.668582 0.014218 0.947446
Si Si7 0.972481 0.574277 0.772729
O O1 0.389704 0.779407 0.750000
O O2 0.540089 0.770045 0.750000
O O3 0.502655 0.857022 0.629763
O O4 0.539428 0.919932 0.784526
O O5 0.487047 0.762838 0.961484
O O6 0.436504 0.599955 0.025827
O O7 0.613072 0.716509 0.993246
O O8 0.821763 0.643526 0.750000
O O9 0.722041 0.546393 0.893715
O O10 0.820470 0.727837 0.901723
O O11 0.673388 0.629960 0.801125
O O12 0.370633 0.942429 0.510589
O O13 0.121285 0.172797 0.518709
O O14 0.037990 0.273956 0.553765
O O15 0.657011 0.055958 0.860095
O O16 0.935228 0.467614 0.750000
#
# Coordination Sequence:
#
# PCOD9578244 Si02
#       7
#    12  12  12  12  12  12  12
#     4  11  22  35  54  84 120 155 194 247 304 360
#     4  12  22  39  59  86 122 164 212 259 321 397
#     4  11  24  43  66  94 127 165 216 275 333 400
#     4  11  23  38  60  88 122 166 213 262 320 394
#     4  11  24  45  70  97 129 172 222 283 355 429
#     4  11  22  40  64  90 122 167 216 261 322 405
#     4  11  22  38  60  91 126 165 211 265 320 377
#
# _framework density 21.754418000000001
#
# number of rings (size 3 to 8) (size 9 to 14) (size 15 to 20)
#    0.000    0.857    0.000   10.429    0.000    1.143 
#    0.000    2.143    0.000    0.286    0.000    0.000 
#    0.000    0.000    0.000    0.000    0.000    0.000 
#
# Total GULP energy -468332.067805 kJ/mol
# GULP energy per Si atom -5575.381760 kJ/mol
# Density = 2.170490 g / cm^3
# Si number density = 21.754418 Si / 1000 Ang^3
#
#
#
# Elastic Constant Matrix: (Units=GPa)
#
#
# Indices 1 2 3 4 5 6 
#
# 1 85.9788 24.9106 22.9966 0.0006 9.5839 0.0000
# 2 24.9106 85.9788 22.9966 -0.0006 -9.5839 0.0000
# 3 22.9966 22.9966 108.8845 0.0000 0.0000 0.0000
# 4 0.0006 -0.0006 0.0000 24.8724 0.0000 -9.5839
# 5 9.5839 -9.5839 0.0000 0.0000 24.8724 0.0006
# 6 0.0000 0.0000 0.0000 -9.5839 0.0006 30.5341
#
#
#
# Elastic Compliance Matrix: (Units=1/GPa)
#
#
# Indices 1 2 3 4 5 6 
#
# 1 0.014256 -0.004372 -0.002087 0.000000 -0.007178 0.000000
# 2 -0.004372 0.014256 -0.002087 0.000000 0.007178 0.000000
# 3 -0.002087 -0.002087 0.010066 0.000000 0.000000 0.000000
# 4 0.000000 0.000000 0.000000 0.045737 0.000000 0.014356
# 5 -0.007178 0.007178 0.000000 0.000000 0.045737 -0.000001
# 6 0.000000 0.000000 0.000000 0.014356 -0.000001 0.037256
#
#
# Mechanical properties :
#
#
# Convention : Reuss Voigt Hill
#
# Bulk Modulus (GPa) = 46.54735 46.96110 46.75423
# Shear Modulus (GPa) = 26.10108 30.05166 28.07637
#
# Velocity S-wave (km/s) = 3.46758 3.72076 3.59640
# Velocity P-wave (km/s) = 6.12171 6.33186 6.22767
#
# Compressibility (1/GPa) = 0.02148350
#
# Stress axis : x y z
#
# Youngs Moduli (GPa) = 70.14615 70.14615 99.34626
#
# Poissons Ratio (x) = 0.30669 0.20738
# Poissons Ratio (y) = 0.30669 0.20738
# Poissons Ratio (z) = 0.14643 0.14643
#
# Static dielectric constant tensor:
#      x y z
#    x 1.850930 0.000000 0.000000 
#    y 0.000000 1.850930 0.000000 
#    z 0.000000 0.000000 1.892520 
# 
# From -- ./inp_files/2669.got.cif
#   From: 2010.05.17/outbox.cif.g08.bks.cpg/sg163_2_cif.got.tgz:2669.got - 2010.05.20 10:56:03.
