data_PCOD9578381
_publ_section_title
;
Structure prediction by ZEFSAII (Michael W. Deem and Ramdas Pophale) SiO2 
 PCOD9578381
Probable space group: P -3 M 1
;
_chemical_formula_sum "Si O2"
_cell_formula_units_Z 84
_cell_length_a 22.757299
_cell_length_b 22.757299
_cell_length_c 11.920096
_cell_angle_alpha 90.000000
_cell_angle_beta 90.000000
_cell_angle_gamma 120.000000
_cell_volume 5346.281424
_symmetry_space_group_name_H-M "P -3 M 1"
_symmetry_group_IT_number 164
_symmetry_cell_setting 'hexagonal'
loop_
_space_group_symop_operation_xyz
x,y,z
-y,x-y,z
-x+y,-x,z
x-y,-y,-z
-x,-x+y,-z
y,x,-z
-x,-y,-z
y,-x+y,-z
x-y,x,-z
-x+y,y,z
x,x-y,z
-y,-x,z
loop_
_atom_site_type_symbol
_atom_site_label
_atom_site_fract_x
_atom_site_fract_y
_atom_site_fract_z
Si Si1 0.744679 0.625300 0.298510
Si Si2 0.694859 0.032804 0.757658
Si Si3 0.208588 0.924048 0.040027
Si Si4 0.271743 0.407293 0.443243
Si Si5 0.473598 0.081186 0.883582
Si Si6 0.799776 0.466085 0.699948
Si Si7 0.432631 0.149559 0.069687
O O1 0.824628 0.649255 0.291329
O O2 0.721461 0.678961 0.267932
O O3 0.721829 0.602683 0.425787
O O4 0.709889 0.566884 0.203801
O O5 0.760486 0.071190 0.836476
O O6 0.706247 0.073435 0.642061
O O7 0.633525 0.032299 0.830724
O O8 0.129054 0.870947 0.036125
O O9 0.245284 0.892381 0.964956
O O10 0.233082 0.000000 0.000000
O O11 0.193660 0.387320 0.421780
O O12 0.316384 0.485540 0.407100
O O13 0.527396 0.054792 0.892234
O O14 0.505102 0.143103 0.795176
O O15 0.466195 0.114058 0.998957
O O16 0.735583 0.471165 0.739309
O O17 0.779747 0.389874 0.674876
O O18 0.456278 0.228139 0.040351
#
# Coordination Sequence:
#
# PCOD9578381 Si02
#       7
#    12  12  12  12  12  12  12
#     4  10  19  31  48  66  88 119 154 191 227 274
#     4  10  18  31  49  68  94 121 154 189 233 276
#     4  10  18  29  48  71  95 121 151 187 224 267
#     4   9  18  31  46  67  93 122 154 189 233 277
#     4   9  18  30  46  68  94 120 150 193 240 284
#     4   9  16  28  46  67  89 117 156 200 240 279
#     4   9  17  30  47  66  90 121 153 186 229 274
#
# _framework density 15.711855
#
# number of rings (size 3 to 8) (size 9 to 14) (size 15 to 20)
#    0.000    2.571    1.429    1.429    0.000    3.429 
#    0.000    2.857    0.000    3.857    0.000    0.000 
#    0.000    0.000    0.000    0.429    0.000   19.571 
#
# Total GULP energy -467706.966046 kJ/mol
# GULP energy per Si atom -5567.940072 kJ/mol
# Density = 1.567609 g / cm^3
# Si number density = 15.711855 Si / 1000 Ang^3
#
#
#
# Elastic Constant Matrix: (Units=GPa)
#
#
# Indices 1 2 3 4 5 6 
#
# 1 49.5935 27.2047 21.8009 0.1234 0.0000 0.0000
# 2 27.2047 49.5935 21.8009 -0.1234 0.0000 0.0000
# 3 21.8009 21.8009 102.6868 0.0000 0.0000 0.0000
# 4 0.1234 -0.1234 0.0000 17.2583 0.0000 0.0000
# 5 0.0000 0.0000 0.0000 0.0000 17.2583 0.1234
# 6 0.0000 0.0000 0.0000 0.0000 0.1234 11.1944
#
#
#
# Elastic Compliance Matrix: (Units=1/GPa)
#
#
# Indices 1 2 3 4 5 6 
#
# 1 0.029737 -0.014931 -0.003143 -0.000319 0.000000 0.000000
# 2 -0.014931 0.029737 -0.003143 0.000319 0.000000 0.000000
# 3 -0.003143 -0.003143 0.011073 0.000000 0.000000 0.000000
# 4 -0.000319 0.000319 0.000000 0.057948 0.000000 0.000000
# 5 0.000000 0.000000 0.000000 0.000000 0.057948 -0.000639
# 6 0.000000 0.000000 0.000000 0.000000 -0.000639 0.089337
#
#
# Mechanical properties :
#
#
# Convention : Reuss Voigt Hill
#
# Bulk Modulus (GPa) = 35.57301 38.16522 36.86911
# Shear Modulus (GPa) = 15.26313 17.88001 16.57157
#
# Velocity S-wave (km/s) = 3.12017 3.37708 3.25116
# Velocity P-wave (km/s) = 5.97249 6.28885 6.13271
#
# Compressibility (1/GPa) = 0.02811120
#
# Stress axis : x y z
#
# Youngs Moduli (GPa) = 33.62791 33.62791 90.30940
#
# Poissons Ratio (x) = 0.50211 0.28387
# Poissons Ratio (y) = 0.50211 0.28387
# Poissons Ratio (z) = 0.10570 0.10570
#
# Static dielectric constant tensor:
#      x y z
#    x 1.528160 0.000000 0.000000 
#    y 0.000000 1.528160 0.000000 
#    z 0.000000 0.000000 1.544280 
# 
# From -- ./inp_files/2930.got.cif
#   From: 2010.05.17/outbox.cif.g08.bks.cpg/sg164_2_cif.got.tgz:2930.got - 2010.05.20 10:58:56.
