data_PCOD9578290
_publ_section_title
;
Structure prediction by ZEFSAII (Michael W. Deem and Ramdas Pophale) SiO2 
 PCOD9578290
Probable space group: P -3 1 C
;
_chemical_formula_sum "Si O2"
_cell_formula_units_Z 36
_cell_length_a 8.608542
_cell_length_b 8.608542
_cell_length_c 23.398514
_cell_angle_alpha 90.000000
_cell_angle_beta 90.000000
_cell_angle_gamma 120.000000
_cell_volume 1501.682480
_symmetry_space_group_name_H-M "P -3 1 C"
_symmetry_group_IT_number 163
_symmetry_cell_setting 'hexagonal'
loop_
_space_group_symop_operation_xyz
x,y,z
-y,x-y,z
-x+y,-x,z
-y,-x,1/2-z
-x+y,y,1/2-z
x,x-y,1/2-z
-x,-y,-z
y,-x+y,-z
x-y,x,-z
y,x,1/2+z
x-y,-y,1/2+z
-x,-x+y,1/2+z
loop_
_atom_site_type_symbol
_atom_site_label
_atom_site_fract_x
_atom_site_fract_y
_atom_site_fract_z
Si Si1 0.045122 0.339116 0.803675
Si Si2 0.648382 0.971958 0.346987
Si Si3 0.652668 0.967012 0.476403
O O1 0.177079 0.354157 0.750000
O O2 0.995449 0.494304 0.815144
O O3 0.300510 0.143713 0.811282
O O4 0.821320 0.168658 0.352753
O O5 0.603486 0.898757 0.411231
O O6 0.677644 0.832397 0.516575
O O7 0.500000 0.000000 0.500000
#
# Coordination Sequence:
#
# PCOD9578290 Si02
#       3
#    12  12  12
#     4  12  27  48  77 108 146 196 251 311 375 441
#     4  12  25  48  73 109 151 197 249 309 371 446
#     4  12  25  44  72 109 152 199 246 302 372 449
#
# _framework density 23.973109999999998
#
# number of rings (size 3 to 8) (size 9 to 14) (size 15 to 20)
#    0.000    0.000    0.000   11.000    0.000    0.000 
#    0.000    3.333    0.000    0.000    0.000    0.000 
#    0.000    0.000    0.000    0.000    0.000    0.000 
#
# Total GULP energy -201170.943634 kJ/mol
# GULP energy per Si atom -5588.081768 kJ/mol
# Density = 2.391855 g / cm^3
# Si number density = 23.973110 Si / 1000 Ang^3
#
#
#
# Elastic Constant Matrix: (Units=GPa)
#
#
# Indices 1 2 3 4 5 6 
#
# 1 150.1822 31.5629 24.4285 0.0000 3.7996 0.0000
# 2 31.5629 150.1822 24.4285 0.0000 -3.7996 0.0000
# 3 24.4285 24.4285 200.4683 0.0000 0.0000 0.0000
# 4 0.0000 0.0000 0.0000 34.0189 0.0000 -3.7996
# 5 3.7996 -3.7996 0.0000 0.0000 34.0189 0.0000
# 6 0.0000 0.0000 0.0000 -3.7996 0.0000 59.3096
#
#
#
# Elastic Compliance Matrix: (Units=1/GPa)
#
#
# Indices 1 2 3 4 5 6 
#
# 1 0.007090 -0.001401 -0.000693 0.000000 -0.000948 0.000000
# 2 -0.001401 0.007090 -0.000693 0.000000 0.000948 0.000000
# 3 -0.000693 -0.000693 0.005157 0.000000 0.000000 0.000000
# 4 0.000000 0.000000 0.000000 0.029607 0.000000 0.001897
# 5 -0.000948 0.000948 0.000000 0.000000 0.029607 0.000000
# 6 0.000000 0.000000 0.000000 0.001897 0.000000 0.016982
#
#
# Mechanical properties :
#
#
# Convention : Reuss Voigt Hill
#
# Bulk Modulus (GPa) = 72.66593 73.51917 73.09255
# Shear Modulus (GPa) = 47.30538 53.49698 50.40118
#
# Velocity S-wave (km/s) = 4.44697 4.72904 4.59017
# Velocity P-wave (km/s) = 7.53290 7.78154 7.65823
#
# Compressibility (1/GPa) = 0.01376161
#
# Stress axis : x y z
#
# Youngs Moduli (GPa) = 141.04722 141.04722 193.90142
#
# Poissons Ratio (x) = 0.19764 0.13441
# Poissons Ratio (y) = 0.19764 0.13441
# Poissons Ratio (z) = 0.09777 0.09777
#
# Static dielectric constant tensor:
#      x y z
#    x 1.847490 0.000000 0.000000 
#    y 0.000000 1.847490 0.000000 
#    z 0.000000 0.000000 2.007540 
# 
# From -- ./inp_files/4222.got.cif
#   From: 2010.05.17/outbox.cif.g08.bks.cpg/sg163_3_cif.got.tgz:4222.got - 2010.05.20 10:56:03.
