data_PCOD9578067
_publ_section_title
;
Structure prediction by ZEFSAII (Michael W. Deem and Ramdas Pophale) SiO2 
 PCOD9578067
Probable space group: P -3 1 C
;
_chemical_formula_sum "Si O2"
_cell_formula_units_Z 60
_cell_length_a 12.631246
_cell_length_b 12.631246
_cell_length_c 26.201008
_cell_angle_alpha 90.000000
_cell_angle_beta 90.000000
_cell_angle_gamma 120.000000
_cell_volume 3620.270472
_symmetry_space_group_name_H-M "P -3 1 C"
_symmetry_group_IT_number 163
_symmetry_cell_setting 'hexagonal'
loop_
_space_group_symop_operation_xyz
x,y,z
-y,x-y,z
-x+y,-x,z
-y,-x,1/2-z
-x+y,y,1/2-z
x,x-y,1/2-z
-x,-y,-z
y,-x+y,-z
x-y,x,-z
y,x,1/2+z
x-y,-y,1/2+z
-x,-x+y,1/2+z
loop_
_atom_site_type_symbol
_atom_site_label
_atom_site_fract_x
_atom_site_fract_y
_atom_site_fract_z
Si Si1 0.081270 0.414724 0.350002
Si Si2 0.251502 0.250983 0.750000
Si Si3 0.666280 0.081561 0.049668
Si Si4 0.584719 0.666280 0.549668
Si Si5 0.081270 0.414724 0.149998
O O1 0.213194 0.426388 0.356729
O O2 0.095363 0.547681 0.343409
O O3 0.019860 0.332503 0.300185
O O4 0.998127 0.354017 0.399661
O O5 0.129520 0.259039 0.750000
O O6 0.332504 0.312643 0.800184
O O7 0.220535 0.110268 0.750000
O O8 0.795442 0.204558 0.049945
O O9 0.555667 0.111334 0.048023
O O10 0.649639 0.000000 1.000000
O O11 0.644110 0.645983 0.600339
#
# Coordination Sequence:
#
# PCOD9578067 Si02
#       5
#    12  12  12  12  12
#     4  10  20  34  54  78 104 134 168 209 254 301
#     4  10  20  34  52  74 102 136 172 208 248 296
#     4  10  20  34  53  76 103 135 170 210 254 301
#     4  10  20  34  53  76 103 135 170 210 254 301
#     4  10  20  34  54  78 104 134 168 209 254 301
#
# _framework density 16.573347999999999
#
# number of rings (size 3 to 8) (size 9 to 14) (size 15 to 20)
#    0.000    2.000    0.000    4.000    0.000    0.000 
#    0.000    6.000    0.000   15.200    0.000    0.000 
#    0.000    0.000    0.000    0.000    0.000    0.000 
#
# Total GULP energy -335034.137383 kJ/mol
# GULP energy per Si atom -5583.902290 kJ/mol
# Density = 1.653563 g / cm^3
# Si number density = 16.573348 Si / 1000 Ang^3
#
#
#
# Elastic Constant Matrix: (Units=GPa)
#
#
# Indices 1 2 3 4 5 6 
#
# 1 149.2930 111.5191 103.2681 0.0000 0.0000 0.0000
# 2 111.5191 149.2930 103.2681 0.0000 0.0000 0.0000
# 3 103.2681 103.2681 173.4536 0.0000 0.0000 0.0000
# 4 0.0000 0.0000 0.0000 20.2019 0.0000 0.0000
# 5 0.0000 0.0000 0.0000 0.0000 20.2019 0.0000
# 6 0.0000 0.0000 0.0000 0.0000 0.0000 18.8869
#
#
#
# Elastic Compliance Matrix: (Units=1/GPa)
#
#
# Indices 1 2 3 4 5 6 
#
# 1 0.016864 -0.009609 -0.004319 0.000000 0.000000 0.000000
# 2 -0.009609 0.016864 -0.004319 0.000000 0.000000 0.000000
# 3 -0.004319 -0.004319 0.010908 0.000000 0.000000 0.000000
# 4 0.000000 0.000000 0.000000 0.049500 0.000000 0.000000
# 5 0.000000 0.000000 0.000000 0.000000 0.049500 0.000000
# 6 0.000000 0.000000 0.000000 0.000000 0.000000 0.052947
#
#
# Mechanical properties :
#
#
# Convention : Reuss Voigt Hill
#
# Bulk Modulus (GPa) = 122.83884 123.12781 122.98332
# Shear Modulus (GPa) = 21.20516 22.12374 21.66445
#
# Velocity S-wave (km/s) = 3.58085 3.65759 3.61943
# Velocity P-wave (km/s) = 9.55907 9.60683 9.58298
#
# Compressibility (1/GPa) = 0.00814075
#
# Stress axis : x y z
#
# Youngs Moduli (GPa) = 59.29838 59.29838 91.67592
#
# Poissons Ratio (x) = 0.56983 0.39595
# Poissons Ratio (y) = 0.56983 0.39595
# Poissons Ratio (z) = 0.25611 0.25611
#
# Static dielectric constant tensor:
#      x y z
#    x 1.523150 0.000000 0.000000 
#    y 0.000000 1.523150 0.000000 
#    z 0.000000 0.000000 1.541870 
# 
# From -- ./inp_files/4095.got.cif
#   From: 2010.05.17/outbox.cif.g08.bks.cpg/sg163_3_cif.got.tgz:4095.got - 2010.05.20 10:56:03.
