data_PCOD9578495
_publ_section_title
;
Structure prediction by ZEFSAII (Michael W. Deem and Ramdas Pophale) SiO2 
 PCOD9578495
Probable space group: P -3 M 1
;
_chemical_formula_sum "Si O2"
_cell_formula_units_Z 84
_cell_length_a 21.372952
_cell_length_b 21.372952
_cell_length_c 12.380703
_cell_angle_alpha 90.000000
_cell_angle_beta 90.000000
_cell_angle_gamma 120.000000
_cell_volume 4897.844108
_symmetry_space_group_name_H-M "P -3 M 1"
_symmetry_group_IT_number 164
_symmetry_cell_setting 'hexagonal'
loop_
_space_group_symop_operation_xyz
x,y,z
-y,x-y,z
-x+y,-x,z
x-y,-y,-z
-x,-x+y,-z
y,x,-z
-x,-y,-z
y,-x+y,-z
x-y,x,-z
-x+y,y,z
x,x-y,z
-y,-x,z
loop_
_atom_site_type_symbol
_atom_site_label
_atom_site_fract_x
_atom_site_fract_y
_atom_site_fract_z
Si Si1 0.616294 0.971779 0.120507
Si Si2 0.111894 0.369239 0.525400
Si Si3 0.667771 0.187928 0.400453
Si Si4 0.484009 0.815845 0.061644
Si Si5 0.144968 0.145032 0.627260
Si Si6 0.291307 0.021263 0.679614
Si Si7 0.874867 0.511616 0.170885
O O1 0.542878 0.893406 0.114626
O O2 0.668548 0.966326 0.207689
O O3 0.610251 0.040368 0.162181
O O4 0.648860 0.000000 0.000000
O O5 0.180764 0.361527 0.554768
O O6 0.138716 0.454036 0.521294
O O7 0.083170 0.335053 0.408550
O O8 0.050442 0.329161 0.615699
O O9 0.589176 0.178352 0.412364
O O10 0.729164 0.270837 0.414642
O O11 0.676491 0.161888 0.281388
O O12 0.403215 0.806429 0.071266
O O13 0.484777 0.742389 0.095678
O O14 0.509555 0.831796 0.936230
O O15 0.163965 0.163965 0.500000
O O16 0.076475 0.152949 0.651636
O O17 0.213953 0.199550 0.694230
O O18 0.126787 0.063394 0.640025
O O19 0.869283 0.434642 0.172209
#
# Coordination Sequence:
#
# PCOD9578495 Si02
#       7
#    12  12  12  12  12  12  12
#     4  10  21  37  55  81 112 147 185 232 287 337
#     4  10  20  34  54  78 108 142 179 225 275 325
#     4  10  19  32  51  77 108 143 181 226 278 334
#     4  10  20  34  53  77 106 144 190 240 292 343
#     4  10  19  32  53  82 113 142 172 214 269 325
#     4  11  20  34  56  82 108 144 186 225 270 330
#     4   9  17  32  53  77 105 139 180 230 283 338
#
# _framework density 17.150403000000001
#
# number of rings (size 3 to 8) (size 9 to 14) (size 15 to 20)
#    0.000    2.000    2.857    2.143    0.000    3.429 
#    0.000    5.000    0.000    0.000    0.000    2.000 
#    0.000    1.143    0.000    0.000    0.000    0.000 
#
# Total GULP energy -467889.469519 kJ/mol
# GULP energy per Si atom -5570.112732 kJ/mol
# Density = 1.711137 g / cm^3
# Si number density = 17.150403 Si / 1000 Ang^3
#
#
#
# Elastic Constant Matrix: (Units=GPa)
#
#
# Indices 1 2 3 4 5 6 
#
# 1 78.8087 52.9920 22.6125 2.9229 0.0000 0.0000
# 2 52.9920 78.8087 22.6125 -2.9229 0.0000 0.0000
# 3 22.6125 22.6125 33.7125 0.0000 0.0000 0.0000
# 4 2.9229 -2.9229 0.0000 18.0875 0.0000 0.0000
# 5 0.0000 0.0000 0.0000 0.0000 18.0875 2.9229
# 6 0.0000 0.0000 0.0000 0.0000 2.9229 12.9084
#
#
#
# Elastic Compliance Matrix: (Units=1/GPa)
#
#
# Indices 1 2 3 4 5 6 
#
# 1 0.025031 -0.015175 -0.006610 -0.006497 0.000000 0.000000
# 2 -0.015175 0.025031 -0.006610 0.006497 0.000000 0.000000
# 3 -0.006610 -0.006610 0.038530 0.000000 0.000000 0.000000
# 4 -0.006497 0.006497 0.000000 0.057387 0.000000 0.000000
# 5 0.000000 0.000000 0.000000 0.000000 0.057387 -0.012994
# 6 0.000000 0.000000 0.000000 0.000000 -0.012994 0.080412
#
#
# Mechanical properties :
#
#
# Convention : Reuss Voigt Hill
#
# Bulk Modulus (GPa) = 31.44711 43.08487 37.26599
# Shear Modulus (GPa) = 14.23818 16.02423 15.13120
#
# Velocity S-wave (km/s) = 2.88444 3.06001 2.97352
# Velocity P-wave (km/s) = 5.42855 6.13687 5.79355
#
# Compressibility (1/GPa) = 0.03179943
#
# Stress axis : x y z
#
# Youngs Moduli (GPa) = 39.95103 39.95103 25.95349
#
# Poissons Ratio (x) = 0.60626 0.17157
# Poissons Ratio (y) = 0.60626 0.17157
# Poissons Ratio (z) = 0.26410 0.26410
#
# Static dielectric constant tensor:
#      x y z
#    x 1.588310 0.000000 0.000000 
#    y 0.000000 1.588310 0.000000 
#    z 0.000000 0.000000 1.591380 
# 
# From -- ./inp_files/2878.got.cif
#   From: 2010.05.17/outbox.cif.g08.bks.cpg/sg164_2_cif.got.tgz:2878.got - 2010.05.20 10:58:56.
