data_PCOD9578661
_publ_section_title
;
Structure prediction by ZEFSAII (Michael W. Deem and Ramdas Pophale) SiO2 
 PCOD9578661
Probable space group: P -3 M 1
;
_chemical_formula_sum "Si O2"
_cell_formula_units_Z 66
_cell_length_a 12.656617
_cell_length_b 12.656617
_cell_length_c 28.747640
_cell_angle_alpha 90.000000
_cell_angle_beta 90.000000
_cell_angle_gamma 120.000000
_cell_volume 3988.118974
_symmetry_space_group_name_H-M "P -3 M 1"
_symmetry_group_IT_number 164
_symmetry_cell_setting 'hexagonal'
loop_
_space_group_symop_operation_xyz
x,y,z
-y,x-y,z
-x+y,-x,z
x-y,-y,-z
-x,-x+y,-z
y,x,-z
-x,-y,-z
y,-x+y,-z
x-y,x,-z
-x+y,y,z
x,x-y,z
-y,-x,z
loop_
_atom_site_type_symbol
_atom_site_label
_atom_site_fract_x
_atom_site_fract_y
_atom_site_fract_z
Si Si1 0.415322 0.333592 0.954329
Si Si2 0.251050 0.000489 0.863592
Si Si3 0.917698 0.333805 0.318132
Si Si4 0.748684 0.000000 0.500000
Si Si5 0.333337 0.415037 0.227266
Si Si6 0.333131 0.415073 0.408824
O O1 0.427333 0.213667 0.959974
O O2 0.547411 0.452590 0.947599
O O3 0.331241 0.312080 0.909460
O O4 0.355945 0.355945 0.000000
O O5 0.220352 0.110176 0.863602
O O6 0.332566 0.020139 0.818030
O O7 0.129138 0.870863 0.863328
O O8 0.887073 0.443537 0.318149
O O9 0.795772 0.204229 0.317668
O O10 0.999616 0.353738 0.272668
O O11 0.997394 0.352080 0.364109
O O12 0.688018 0.022610 0.545244
O O13 0.880484 0.119517 0.493539
O O14 0.213966 0.427932 0.232999
O O15 0.452824 0.547177 0.221428
O O16 0.213561 0.427122 0.402095
O O17 0.452496 0.547505 0.414108
#
# Coordination Sequence:
#
# PCOD9578661 Si02
#       6
#    12  12  12   6  12  12
#     4  10  20  34  53  76 103 135 170 210 254 301
#     4  10  20  34  52  74 101 133 169 209 253 301
#     4  10  20  34  52  74 101 133 168 206 249 298
#     4  10  20  34  52  74 102 136 172 210 252 300
#     4  10  20  34  54  78 104 134 168 208 252 299
#     4  10  20  34  53  76 102 132 167 209 255 302
#
# _framework density 16.549157000000001
#
# number of rings (size 3 to 8) (size 9 to 14) (size 15 to 20)
#    0.000    2.000    0.000    4.000    0.000    0.000 
#    0.000    3.636    0.000   18.909    0.000    0.000 
#    0.000    0.000    0.000    0.000    0.000    0.000 
#
# Total GULP energy -368519.573034 kJ/mol
# GULP energy per Si atom -5583.629894 kJ/mol
# Density = 1.651149 g / cm^3
# Si number density = 16.549157 Si / 1000 Ang^3
#
#
#
# Elastic Constant Matrix: (Units=GPa)
#
#
# Indices 1 2 3 4 5 6 
#
# 1 147.6407 109.2894 108.9053 -1.7807 0.0000 0.0000
# 2 109.2894 147.6407 108.9053 1.7807 0.0000 0.0000
# 3 108.9053 108.9053 168.6054 0.0000 0.0000 0.0000
# 4 -1.7807 1.7807 0.0000 24.3122 0.0000 0.0000
# 5 0.0000 0.0000 0.0000 0.0000 24.3122 -1.7807
# 6 0.0000 0.0000 0.0000 0.0000 -1.7807 19.1756
#
#
#
# Elastic Compliance Matrix: (Units=1/GPa)
#
#
# Indices 1 2 3 4 5 6 
#
# 1 0.017428 -0.008825 -0.005557 0.001923 0.000000 0.000000
# 2 -0.008825 0.017428 -0.005557 -0.001923 0.000000 0.000000
# 3 -0.005557 -0.005557 0.013109 0.000000 0.000000 0.000000
# 4 0.001923 -0.001923 0.000000 0.041413 0.000000 0.000000
# 5 0.000000 0.000000 0.000000 0.000000 0.041413 0.003846
# 6 0.000000 0.000000 0.000000 0.000000 0.003846 0.052507
#
#
# Mechanical properties :
#
#
# Convention : Reuss Voigt Hill
#
# Bulk Modulus (GPa) = 123.63811 124.23189 123.93500
# Shear Modulus (GPa) = 22.13645 22.67913 22.40779
#
# Velocity S-wave (km/s) = 3.66131 3.70592 3.68369
# Velocity P-wave (km/s) = 9.63044 9.67177 9.65113
#
# Compressibility (1/GPa) = 0.00808812
#
# Stress axis : x y z
#
# Youngs Moduli (GPa) = 57.37884 57.37884 76.28171
#
# Poissons Ratio (x) = 0.50639 0.42387
# Poissons Ratio (y) = 0.50639 0.42387
# Poissons Ratio (z) = 0.31883 0.31883
#
# Static dielectric constant tensor:
#      x y z
#    x 1.523480 0.000000 0.000000 
#    y 0.000000 1.523480 0.000000 
#    z 0.000000 0.000000 1.535240 
# 
# From -- ./inp_files/5520.got.cif
#   From: 2010.05.17/outbox.cif.g08.bks.cpg/sg164_3_cif.got.tgz:5520.got - 2010.05.20 10:58:56.
