data_PCOD9578892
_publ_section_title
;
Structure prediction by ZEFSAII (Michael W. Deem and Ramdas Pophale) SiO2 
 PCOD9578892
Probable space group: P -3 C 1
;
_chemical_formula_sum "Si O2"
_cell_formula_units_Z 70
_cell_length_a 14.174872
_cell_length_b 14.174872
_cell_length_c 17.556326
_cell_angle_alpha 90.000000
_cell_angle_beta 90.000000
_cell_angle_gamma 120.000000
_cell_volume 3054.939121
_symmetry_space_group_name_H-M "P -3 C 1"
_symmetry_group_IT_number 165
_symmetry_cell_setting 'hexagonal'
loop_
_space_group_symop_operation_xyz
x,y,z
-y,x-y,z
-x+y,-x,z
x-y,-y,1/2-z
-x,-x+y,1/2-z
y,x,1/2-z
-x,-y,-z
y,-x+y,-z
x-y,x,-z
-x+y,y,1/2+z
x,x-y,1/2+z
-y,-x,1/2+z
loop_
_atom_site_type_symbol
_atom_site_label
_atom_site_fract_x
_atom_site_fract_y
_atom_site_fract_z
Si Si1 0.358138 0.041076 0.106562
Si Si2 0.451769 0.848350 0.644145
Si Si3 0.415620 0.214319 0.747154
Si Si4 0.000000 0.000000 0.589531
Si Si5 0.000000 0.596386 0.250000
Si Si6 0.862545 0.059374 0.831169
Si Si7 0.664990 0.215192 0.510836
O O1 0.399108 0.108905 0.186348
O O2 0.359440 0.928535 0.105516
O O3 0.233248 0.011287 0.108425
O O4 0.441648 0.118353 0.043618
O O5 0.477877 0.777847 0.705121
O O6 0.359253 0.796717 0.579373
O O7 0.432401 0.934884 0.689614
O O8 0.403294 0.104101 0.711567
O O9 0.314746 0.160140 0.806178
O O10 0.885636 0.912750 0.627384
O O11 0.000000 0.000000 0.500000
O O12 0.851000 0.000000 0.750000
O O13 0.767328 0.331586 0.536054
#
# Coordination Sequence:
#
# PCOD9578892 Si02
#       7
#    12  12  12   4   6  12  12
#     4  10  21  43  66  94 133 175 227 289 346 404
#     4  11  21  46  63  99 138 184 227 288 348 417
#     4  10  23  41  68 102 133 171 244 288 340 418
#     4  12  25  44  64 102 133 176 229 279 361 416
#     4  12  24  36  74 102 132 182 234 288 354 412
#     4   9  21  43  70  91 129 176 225 290 343 408
#     4  10  24  40  64  98 138 184 224 272 352 420
#
# _framework density 22.913712
#
# number of rings (size 3 to 8) (size 9 to 14) (size 15 to 20)
#    0.343    1.371    1.714    3.086    7.200    0.000 
#   10.286    0.000    0.000    0.000    0.000    0.000 
#    0.000    0.000    0.000    0.000    0.000    0.000 
#
# Total GULP energy -389825.839565 kJ/mol
# GULP energy per Si atom -5568.940565 kJ/mol
# Density = 2.286156 g / cm^3
# Si number density = 22.913712 Si / 1000 Ang^3
#
#
#
# Elastic Constant Matrix: (Units=GPa)
#
#
# Indices 1 2 3 4 5 6 
#
# 1 75.1122 16.6742 21.8349 -6.5228 0.0000 0.0000
# 2 16.6742 75.1122 21.8349 6.5228 0.0000 0.0000
# 3 21.8349 21.8349 51.3521 0.0000 0.0000 0.0000
# 4 -6.5228 6.5228 0.0000 38.4037 0.0000 0.0000
# 5 0.0000 0.0000 0.0000 0.0000 38.4037 -6.5228
# 6 0.0000 0.0000 0.0000 0.0000 -6.5228 29.2190
#
#
#
# Elastic Compliance Matrix: (Units=1/GPa)
#
#
# Indices 1 2 3 4 5 6 
#
# 1 0.015722 -0.002064 -0.005807 0.003021 0.000000 0.000000
# 2 -0.002064 0.015722 -0.005807 -0.003021 0.000000 0.000000
# 3 -0.005807 -0.005807 0.024412 0.000000 0.000000 0.000000
# 4 0.003021 -0.003021 0.000000 0.027065 0.000000 0.000000
# 5 0.000000 0.000000 0.000000 0.000000 0.027065 0.006042
# 6 0.000000 0.000000 0.000000 0.000000 0.006042 0.035573
#
#
# Mechanical properties :
#
#
# Convention : Reuss Voigt Hill
#
# Bulk Modulus (GPa) = 35.08975 35.80719 35.44847
# Shear Modulus (GPa) = 27.40961 30.62076 29.01519
#
# Velocity S-wave (km/s) = 3.46238 3.65958 3.56234
# Velocity P-wave (km/s) = 5.59743 5.78944 5.69424
#
# Compressibility (1/GPa) = 0.02849835
#
# Stress axis : x y z
#
# Youngs Moduli (GPa) = 63.60431 63.60431 40.96359
#
# Poissons Ratio (x) = 0.13130 0.23789
# Poissons Ratio (y) = 0.13130 0.23789
# Poissons Ratio (z) = 0.36937 0.36937
#
# Static dielectric constant tensor:
#      x y z
#    x 1.936850 0.000000 0.000000 
#    y 0.000000 1.936850 0.000000 
#    z 0.000000 0.000000 1.856250 
# 
# From -- ./inp_files/2307.got.cif
#   From: 2010.05.17/outbox.cif.g08.bks.cpg/sg165_2_cif.got.tgz:2307.got - 2010.05.20 11:02:39.
