data_PCOD9578130
_publ_section_title
;
Structure prediction by ZEFSAII (Michael W. Deem and Ramdas Pophale) SiO2 
 PCOD9578130
Probable space group: P -3 1 C
;
_chemical_formula_sum "Si O2"
_cell_formula_units_Z 84
_cell_length_a 17.417969
_cell_length_b 17.417969
_cell_length_c 15.269596
_cell_angle_alpha 90.000000
_cell_angle_beta 90.000000
_cell_angle_gamma 120.000000
_cell_volume 4011.928689
_symmetry_space_group_name_H-M "P -3 1 C"
_symmetry_group_IT_number 163
_symmetry_cell_setting 'hexagonal'
loop_
_space_group_symop_operation_xyz
x,y,z
-y,x-y,z
-x+y,-x,z
-y,-x,1/2-z
-x+y,y,1/2-z
x,x-y,1/2-z
-x,-y,-z
y,-x+y,-z
x-y,x,-z
y,x,1/2+z
x-y,-y,1/2+z
-x,-x+y,1/2+z
loop_
_atom_site_type_symbol
_atom_site_label
_atom_site_fract_x
_atom_site_fract_y
_atom_site_fract_z
Si Si1 0.660516 0.185884 0.198727
Si Si2 0.293534 0.316078 0.504488
Si Si3 0.668465 0.164641 0.744242
Si Si4 0.166833 0.648206 0.503740
Si Si5 0.081239 0.313490 0.803994
Si Si6 0.769426 0.086455 0.816708
Si Si7 0.314027 0.847367 0.450010
O O1 0.724383 0.275618 0.250000
O O2 0.568211 0.136421 0.250000
O O3 0.640686 0.198943 0.100431
O O4 0.714320 0.134128 0.193873
O O5 0.344872 0.423230 0.508819
O O6 0.237176 0.284133 0.595727
O O7 0.229813 0.287618 0.418045
O O8 0.375491 0.295137 0.501584
O O9 0.729142 0.270859 0.750000
O O10 0.567275 0.134549 0.750000
O O11 0.705882 0.129023 0.818847
O O12 0.690133 0.135247 0.652591
O O13 0.243232 0.745260 0.471596
O O14 0.146894 0.556244 0.459866
O O15 0.141955 0.283909 0.750000
O O16 0.000819 0.283255 0.739035
O O17 0.851034 0.148966 0.750000
#
# Coordination Sequence:
#
# PCOD9578130 Si02
#       7
#    12  12  12  12  12  12  12
#     4  10  21  36  56  85 127 174 228 287 350 395
#     4  11  25  41  67  92 136 179 226 299 363 424
#     4  11  22  38  59  87 128 177 230 285 338 405
#     4  11  24  38  60  92 123 183 241 298 361 436
#     4  10  24  43  65  96 127 174 221 278 350 429
#     4  11  24  42  66  95 130 168 222 280 352 422
#     4  12  23  42  62  90 134 179 241 297 367 422
#
# _framework density 20.937560999999999
#
# number of rings (size 3 to 8) (size 9 to 14) (size 15 to 20)
#    0.000    1.143    1.429    5.286    8.000    0.571 
#    0.000    0.000    0.000    0.286    0.000    0.000 
#    0.000    2.286    0.000    0.000    0.000    0.000 
#
# Total GULP energy -468139.335994 kJ/mol
# GULP energy per Si atom -5573.087333 kJ/mol
# Density = 2.088991 g / cm^3
# Si number density = 20.937561 Si / 1000 Ang^3
#
#
#
# Elastic Constant Matrix: (Units=GPa)
#
#
# Indices 1 2 3 4 5 6 
#
# 1 39.2610 29.1954 19.7702 -0.0022 12.3498 0.0000
# 2 29.1954 39.2610 19.7702 0.0022 -12.3498 0.0000
# 3 19.7702 19.7702 166.5573 0.0000 0.0000 0.0000
# 4 -0.0022 0.0022 0.0000 51.1688 0.0000 -12.3498
# 5 12.3498 -12.3498 0.0000 0.0000 51.1688 -0.0022
# 6 0.0000 0.0000 0.0000 -12.3498 -0.0022 5.0328
#
#
#
# Elastic Compliance Matrix: (Units=1/GPa)
#
#
# Indices 1 2 3 4 5 6 
#
# 1 0.129666 -0.113983 -0.001862 0.000010 -0.058806 0.000000
# 2 -0.113983 0.129666 -0.001862 -0.000010 0.058806 0.000000
# 3 -0.001862 -0.001862 0.006446 0.000000 0.000000 0.000000
# 4 0.000010 -0.000010 0.000000 0.047929 0.000000 0.117612
# 5 -0.058806 0.058806 0.000000 0.000000 0.047929 0.000021
# 6 0.000000 0.000000 0.000000 0.117612 0.000021 0.487299
#
#
# Mechanical properties :
#
#
# Convention : Reuss Voigt Hill
#
# Bulk Modulus (GPa) = 32.93179 42.50563 37.71871
# Shear Modulus (GPa) = 4.56842 33.23031 18.89936
#
# Velocity S-wave (km/s) = 1.47874 3.98818 3.00768
# Velocity P-wave (km/s) = 4.32184 6.44614 5.48776
#
# Compressibility (1/GPa) = 0.03036579
#
# Stress axis : x y z
#
# Youngs Moduli (GPa) = 7.71210 7.71210 155.13810
#
# Poissons Ratio (x) = 0.87905 0.28880
# Poissons Ratio (y) = 0.87905 0.28880
# Poissons Ratio (z) = 0.01436 0.01436
#
# Static dielectric constant tensor:
#      x y z
#    x 1.664530 0.000000 0.000000 
#    y 0.000000 1.664530 0.000000 
#    z 0.000000 0.000000 1.806060 
# 
# From -- ./inp_files/2679.got.cif
#   From: 2010.05.17/outbox.cif.g08.bks.cpg/sg163_2_cif.got.tgz:2679.got - 2010.05.20 10:56:03.
