data_PCOD9578559
_publ_section_title
;
Structure prediction by ZEFSAII (Michael W. Deem and Ramdas Pophale) SiO2 
 PCOD9578559
Probable space group: P -3 M 1
;
_chemical_formula_sum "Si O2"
_cell_formula_units_Z 72
_cell_length_a 24.670496
_cell_length_b 24.670496
_cell_length_c 8.236361
_cell_angle_alpha 90.000000
_cell_angle_beta 90.000000
_cell_angle_gamma 120.000000
_cell_volume 4341.319683
_symmetry_space_group_name_H-M "P -3 M 1"
_symmetry_group_IT_number 164
_symmetry_cell_setting 'hexagonal'
loop_
_space_group_symop_operation_xyz
x,y,z
-y,x-y,z
-x+y,-x,z
x-y,-y,-z
-x,-x+y,-z
y,x,-z
-x,-y,-z
y,-x+y,-z
x-y,x,-z
-x+y,y,z
x,x-y,z
-y,-x,z
loop_
_atom_site_type_symbol
_atom_site_label
_atom_site_fract_x
_atom_site_fract_y
_atom_site_fract_z
Si Si1 0.262033 0.192401 0.555819
Si Si2 0.403371 0.474550 0.553598
Si Si3 0.474550 0.403371 0.053599
Si Si4 0.930368 0.192401 0.944185
Si Si5 0.737315 0.596874 0.445772
Si Si6 0.859560 0.262685 0.054238
O O1 0.213893 0.213893 0.500000
O O2 0.246782 0.123391 0.500500
O O3 0.264417 0.193693 0.750003
O O4 0.331648 0.240242 0.491887
O O5 0.427910 0.427910 0.500000
O O6 0.456197 0.543804 0.498573
O O7 0.402600 0.475049 0.749999
O O8 0.332868 0.449206 0.494875
O O9 0.543804 0.456197 0.998575
O O10 0.449205 0.332868 0.994880
O O11 0.427910 0.427910 0.000000
O O12 0.876609 0.123392 0.999506
O O13 0.908596 0.240244 0.008123
O O14 0.000000 0.213891 0.000000
O O15 0.791697 0.583393 0.505549
O O16 0.736466 0.593159 0.250005
O O17 0.791699 0.208302 0.994461
#
# Coordination Sequence:
#
# PCOD9578559 Si02
#       6
#    12  12  12  12  12  12
#     4  10  20  32  47  68  92 117 145 178 216 258
#     4   9  17  28  42  61  85 112 142 176 213 254
#     4   9  17  28  42  61  85 112 142 176 213 254
#     4  10  20  32  47  68  92 117 145 178 216 258
#     4   9  17  29  45  64  87 116 147 180 220 263
#     4   9  17  29  45  64  87 116 147 180 220 263
#
# _framework density 16.584819
#
# number of rings (size 3 to 8) (size 9 to 14) (size 15 to 20)
#    0.000    2.667    0.000    2.000    0.000    6.000 
#    0.000    0.000    0.000    1.000    0.000    4.667 
#    0.000    0.000    0.000   16.667    0.000   17.333 
#
# Total GULP energy -401332.261141 kJ/mol
# GULP energy per Si atom -5574.059183 kJ/mol
# Density = 1.654707 g / cm^3
# Si number density = 16.584819 Si / 1000 Ang^3
#
#
#
# Elastic Constant Matrix: (Units=GPa)
#
#
# Indices 1 2 3 4 5 6 
#
# 1 132.8284 87.6765 9.4819 -0.0005 0.0000 0.0000
# 2 87.6765 132.8284 9.4819 0.0005 0.0000 0.0000
# 3 9.4819 9.4819 7.1244 0.0000 0.0000 0.0000
# 4 -0.0005 0.0005 0.0000 13.1792 0.0000 0.0000
# 5 0.0000 0.0000 0.0000 0.0000 13.1792 -0.0005
# 6 0.0000 0.0000 0.0000 0.0000 -0.0005 22.5760
#
#
#
# Elastic Compliance Matrix: (Units=1/GPa)
#
#
# Indices 1 2 3 4 5 6 
#
# 1 0.013634 -0.008513 -0.006816 0.000001 0.000000 0.000000
# 2 -0.008513 0.013634 -0.006816 -0.000001 0.000000 0.000000
# 3 -0.006816 -0.006816 0.158505 0.000000 0.000000 0.000000
# 4 0.000001 -0.000001 0.000000 0.075877 0.000000 0.000000
# 5 0.000000 0.000000 0.000000 0.000000 0.075877 0.000002
# 6 0.000000 0.000000 0.000000 0.000000 0.000002 0.044295
#
#
# Mechanical properties :
#
#
# Convention : Reuss Voigt Hill
#
# Bulk Modulus (GPa) = 7.06795 54.00688 30.53741
# Shear Modulus (GPa) = 10.56470 20.86292 15.71381
#
# Velocity S-wave (km/s) = 2.52664 3.55061 3.08146
# Velocity P-wave (km/s) = 3.57531 7.03163 5.57794
#
# Compressibility (1/GPa) = 0.14148380
#
# Stress axis : x y z
#
# Youngs Moduli (GPa) = 73.34424 73.34424 6.30896
#
# Poissons Ratio (x) = 0.62439 0.04300
# Poissons Ratio (y) = 0.62439 0.04300
# Poissons Ratio (z) = 0.49991 0.49991
#
# Static dielectric constant tensor:
#      x y z
#    x 1.562250 0.000000 0.000000 
#    y 0.000000 1.562250 0.000000 
#    z 0.000000 0.000000 1.578110 
# 
# From -- ./inp_files/1926.got.cif
#   From: 2010.05.17/outbox.cif.g08.bks.cpg/sg164_1_cif.got.tgz:1926.got - 2010.05.20 10:58:56.
