data_PCOD9578111
_publ_section_title
;
Structure prediction by ZEFSAII (Michael W. Deem and Ramdas Pophale) SiO2 
 PCOD9578111
Probable space group: P -3 1 C
;
_chemical_formula_sum "Si O2"
_cell_formula_units_Z 54
_cell_length_a 16.039598
_cell_length_b 16.039598
_cell_length_c 11.051088
_cell_angle_alpha 90.000000
_cell_angle_beta 90.000000
_cell_angle_gamma 120.000000
_cell_volume 2462.196035
_symmetry_space_group_name_H-M "P -3 1 C"
_symmetry_group_IT_number 163
_symmetry_cell_setting 'hexagonal'
loop_
_space_group_symop_operation_xyz
x,y,z
-y,x-y,z
-x+y,-x,z
-y,-x,1/2-z
-x+y,y,1/2-z
x,x-y,1/2-z
-x,-y,-z
y,-x+y,-z
x-y,x,-z
y,x,1/2+z
x-y,-y,1/2+z
-x,-x+y,1/2+z
loop_
_atom_site_type_symbol
_atom_site_label
_atom_site_fract_x
_atom_site_fract_y
_atom_site_fract_z
Si Si1 0.847708 0.065772 0.018585
Si Si2 0.105941 0.583791 0.547199
Si Si3 0.136616 0.726482 0.356541
Si Si4 0.659375 0.081629 0.298649
Si Si5 0.142031 0.857970 0.750000
O O1 0.820545 0.052942 0.161096
O O2 0.793820 0.108385 0.937565
O O3 0.961583 0.138350 0.025005
O O4 0.164167 0.662262 0.444332
O O5 0.136292 0.514479 0.614643
O O6 0.098060 0.643466 0.659515
O O7 0.000000 0.500000 0.500000
O O8 0.210822 0.789179 0.250000
O O9 0.033698 0.641202 0.308356
O O10 0.768743 0.121514 0.332797
#
# Coordination Sequence:
#
# PCOD9578111 Si02
#       5
#    12  12  12  12   6
#     4  12  26  41  60  94 139 189 236 284 329 379
#     4   9  20  38  64  95 124 157 214 278 338 401
#     4  11  22  37  62  97 133 171 226 285 336 399
#     4  10  20  39  63  98 125 170 227 276 330 405
#     4  12  22  40  68  94 134 176 230 274 330 402
#
# _framework density 21.931640999999999
#
# number of rings (size 3 to 8) (size 9 to 14) (size 15 to 20)
#    0.000    1.333    4.444    1.556    0.000    0.000 
#    0.000    0.000    0.000    3.556    0.000    0.000 
#    0.000    0.000    0.000    0.000    0.000    0.000 
#
# Total GULP energy -300701.891182 kJ/mol
# GULP energy per Si atom -5568.553540 kJ/mol
# Density = 2.188172 g / cm^3
# Si number density = 21.931641 Si / 1000 Ang^3
#
#
#
# Elastic Constant Matrix: (Units=GPa)
#
#
# Indices 1 2 3 4 5 6 
#
# 1 70.4885 26.4609 39.6503 -0.0001 -1.4598 0.0000
# 2 26.4609 70.4885 39.6503 0.0001 1.4598 0.0000
# 3 39.6503 39.6503 111.2570 0.0000 0.0000 0.0000
# 4 -0.0001 0.0001 0.0000 30.9372 0.0000 1.4598
# 5 -1.4598 1.4598 0.0000 0.0000 30.9372 -0.0001
# 6 0.0000 0.0000 0.0000 1.4598 -0.0001 22.0138
#
#
#
# Elastic Compliance Matrix: (Units=1/GPa)
#
#
# Indices 1 2 3 4 5 6 
#
# 1 0.018671 -0.004113 -0.005188 0.000000 0.001075 0.000000
# 2 -0.004113 0.018671 -0.005188 0.000000 -0.001075 0.000000
# 3 -0.005188 -0.005188 0.012686 0.000000 0.000000 0.000000
# 4 0.000000 0.000000 0.000000 0.032425 0.000000 -0.002150
# 5 0.001075 -0.001075 0.000000 0.000000 0.032425 0.000000
# 6 0.000000 0.000000 0.000000 -0.002150 0.000000 0.045569
#
#
# Mechanical properties :
#
#
# Convention : Reuss Voigt Hill
#
# Bulk Modulus (GPa) = 47.50654 51.52856 49.51755
# Shear Modulus (GPa) = 25.45250 26.54245 25.99747
#
# Velocity S-wave (km/s) = 3.41036 3.48262 3.44668
# Velocity P-wave (km/s) = 6.10046 6.30219 6.20215
#
# Compressibility (1/GPa) = 0.02104973
#
# Stress axis : x y z
#
# Youngs Moduli (GPa) = 53.55760 53.55760 78.82465
#
# Poissons Ratio (x) = 0.22028 0.40898
# Poissons Ratio (y) = 0.22028 0.40898
# Poissons Ratio (z) = 0.27788 0.27788
#
# Static dielectric constant tensor:
#      x y z
#    x 1.873850 0.000000 0.000000 
#    y 0.000000 1.873850 0.000000 
#    z 0.000000 0.000000 1.988860 
# 
# From -- ./inp_files/1708.got.cif
#   From: 2010.05.17/outbox.cif.g08.bks.cpg/sg163_1_cif.got.tgz:1708.got - 2010.05.20 10:56:03.
