data_PCOD9578991
_publ_section_title
;
Structure prediction by ZEFSAII (Michael W. Deem and Ramdas Pophale) SiO2 
 PCOD9578991
Probable space group: P -3 C 1
;
_chemical_formula_sum "Si O2"
_cell_formula_units_Z 38
_cell_length_a 11.758235
_cell_length_b 11.758235
_cell_length_c 15.502612
_cell_angle_alpha 90.000000
_cell_angle_beta 90.000000
_cell_angle_gamma 120.000000
_cell_volume 1856.178683
_symmetry_space_group_name_H-M "P -3 C 1"
_symmetry_group_IT_number 165
_symmetry_cell_setting 'hexagonal'
loop_
_space_group_symop_operation_xyz
x,y,z
-y,x-y,z
-x+y,-x,z
x-y,-y,1/2-z
-x,-x+y,1/2-z
y,x,1/2-z
-x,-y,-z
y,-x+y,-z
x-y,x,-z
-x+y,y,1/2+z
x,x-y,1/2+z
-y,-x,1/2+z
loop_
_atom_site_type_symbol
_atom_site_label
_atom_site_fract_x
_atom_site_fract_y
_atom_site_fract_z
Si Si1 0.422661 0.946739 0.411782
Si Si2 0.333333 0.666666 0.959416
Si Si3 0.875655 0.622165 0.810508
Si Si4 0.666666 0.333333 0.331743
Si Si5 0.000000 0.380403 0.750000
O O1 0.325592 0.791935 0.425354
O O2 0.500000 0.000000 0.500000
O O3 0.362583 0.042768 0.397274
O O4 0.518342 0.960285 0.331442
O O5 0.333334 0.666667 0.063809
O O6 0.793072 0.463743 0.799693
O O7 0.759035 0.650053 0.790830
O O8 0.000000 0.703368 0.750000
#
# Coordination Sequence:
#
# PCOD9578991 Si02
#       5
#    12   4  12   4   6
#     4  12  24  40  70 104 140 182 231 305 359 431
#     4  12  24  43  71 106 139 182 235 295 365 409
#     4  12  23  43  68  97 139 185 233 289 355 425
#     4  12  21  43  65 109 142 167 235 298 362 421
#     4  12  26  44  66  98 144 184 234 294 356 436
#
# _framework density 20.472166999999999
#
# number of rings (size 3 to 8) (size 9 to 14) (size 15 to 20)
#    0.000    0.000    7.895    1.895    0.000    2.526 
#    0.947    0.000    0.000    0.000    0.000    4.421 
#    0.000    0.000    0.000    0.000    0.000    0.000 
#
# Total GULP energy -211556.853154 kJ/mol
# GULP energy per Si atom -5567.285609 kJ/mol
# Density = 2.042557 g / cm^3
# Si number density = 20.472167 Si / 1000 Ang^3
#
#
#
# Elastic Constant Matrix: (Units=GPa)
#
#
# Indices 1 2 3 4 5 6 
#
# 1 110.2520 26.2420 25.9779 -9.4988 0.0000 0.0000
# 2 26.2420 110.2517 25.9773 9.4989 0.0000 0.0000
# 3 25.9779 25.9773 131.9689 -0.0001 0.0000 0.0000
# 4 -9.4988 9.4989 -0.0001 26.0514 0.0000 0.0000
# 5 0.0000 0.0000 0.0000 0.0000 26.0514 -9.4991
# 6 0.0000 0.0000 0.0000 0.0000 -9.4991 42.0048
#
#
#
# Elastic Compliance Matrix: (Units=1/GPa)
#
#
# Indices 1 2 3 4 5 6 
#
# 1 0.010446 -0.002527 -0.001559 0.004730 0.000000 0.000000
# 2 -0.002527 0.010446 -0.001559 -0.004730 0.000000 0.000000
# 3 -0.001559 -0.001559 0.008191 0.000000 0.000000 0.000000
# 4 0.004730 -0.004730 0.000000 0.041835 0.000000 0.000000
# 5 0.000000 0.000000 0.000000 0.000000 0.041835 0.009461
# 6 0.000000 0.000000 0.000000 0.000000 0.009461 0.025946
#
#
# Mechanical properties :
#
#
# Convention : Reuss Voigt Hill
#
# Bulk Modulus (GPa) = 56.19586 56.54076 56.36831
# Shear Modulus (GPa) = 32.06737 37.10655 34.58696
#
# Velocity S-wave (km/s) = 3.96206 4.26201 4.11477
# Velocity P-wave (km/s) = 6.95988 7.20402 7.08301
#
# Compressibility (1/GPa) = 0.01779491
#
# Stress axis : x y z
#
# Youngs Moduli (GPa) = 95.72682 95.72674 122.08071
#
# Poissons Ratio (x) = 0.24187 0.19032
# Poissons Ratio (y) = 0.24187 0.19032
# Poissons Ratio (z) = 0.14924 0.14923
#
# Static dielectric constant tensor:
#      x y z
#    x 1.797860 0.000000 0.000000 
#    y 0.000000 1.797860 0.000000 
#    z 0.000000 0.000000 1.619330 
# 
# From -- ./inp_files/1439.got.cif
#   From: 2010.05.17/outbox.cif.g08.bks.cpg/sg165_1_cif.got.tgz:1439.got - 2010.05.20 11:02:39.
