data_PCOD9578590
_publ_section_title
;
Structure prediction by ZEFSAII (Michael W. Deem and Ramdas Pophale) SiO2 
 PCOD9578590
Probable space group: P -3 M 1
;
_chemical_formula_sum "Si O2"
_cell_formula_units_Z 60
_cell_length_a 13.017720
_cell_length_b 13.017720
_cell_length_c 26.452840
_cell_angle_alpha 90.000000
_cell_angle_beta 90.000000
_cell_angle_gamma 120.000000
_cell_volume 3882.154264
_symmetry_space_group_name_H-M "P -3 M 1"
_symmetry_group_IT_number 164
_symmetry_cell_setting 'hexagonal'
loop_
_space_group_symop_operation_xyz
x,y,z
-y,x-y,z
-x+y,-x,z
x-y,-y,-z
-x,-x+y,-z
y,x,-z
-x,-y,-z
y,-x+y,-z
x-y,x,-z
-x+y,y,z
x,x-y,z
-y,-x,z
loop_
_atom_site_type_symbol
_atom_site_label
_atom_site_fract_x
_atom_site_fract_y
_atom_site_fract_z
Si Si1 0.245105 0.245105 0.500000
Si Si2 0.754510 0.000456 0.610402
Si Si3 0.576599 0.666232 0.699777
Si Si4 0.910332 0.577420 0.906096
Si Si5 0.090684 0.666874 0.815039
Si Si6 0.000000 0.755695 0.000000
O O1 0.115870 0.231739 0.498689
O O2 0.297949 0.300257 0.554737
O O3 0.879166 0.120835 0.614612
O O4 0.774014 0.887007 0.612177
O O5 0.670253 0.985949 0.656855
O O6 0.553163 0.776582 0.695611
O O7 0.455730 0.544271 0.692431
O O8 0.618505 0.669306 0.757469
O O9 0.778610 0.557220 0.900011
O O10 0.906570 0.453285 0.915891
O O11 0.988761 0.634248 0.855952
O O12 0.971335 0.668964 0.952189
O O13 0.122037 0.561019 0.816759
O O14 0.207864 0.792137 0.825801
O O15 0.883984 0.767967 0.009038
#
# Coordination Sequence:
#
# PCOD9578590 Si02
#       6
#     6  12  12  12  12   6
#     4   8  13  22  37  58  82 108 138 172 212 256
#     4   9  16  26  42  63  86 110 138 175 218 262
#     4   9  17  29  45  64  86 113 145 180 216 255
#     4  10  20  33  49  69  94 122 150 180 215 257
#     4   9  17  30  48  68  88 112 145 184 222 257
#     4  10  20  34  52  72  94 120 150 184 220 258
#
# _framework density 15.455336000000001
#
# number of rings (size 3 to 8) (size 9 to 14) (size 15 to 20)
#    0.000    2.800    0.000    1.900    0.000    4.000 
#    0.000    0.500    0.000    7.200    0.000    0.000 
#    0.000    0.000    0.000    0.000    0.000    0.000 
#
# Total GULP energy -334050.782424 kJ/mol
# GULP energy per Si atom -5567.513040 kJ/mol
# Density = 1.542016 g / cm^3
# Si number density = 15.455336 Si / 1000 Ang^3
#
#
#
# Elastic Constant Matrix: (Units=GPa)
#
#
# Indices 1 2 3 4 5 6 
#
# 1 78.7068 49.0616 73.4919 1.6134 0.0000 0.0000
# 2 49.0616 78.7068 73.4919 -1.6134 0.0000 0.0000
# 3 73.4919 73.4919 140.9177 0.0000 0.0000 0.0000
# 4 1.6134 -1.6134 0.0000 23.9597 0.0000 0.0000
# 5 0.0000 0.0000 0.0000 0.0000 23.9597 1.6134
# 6 0.0000 0.0000 0.0000 0.0000 1.6134 14.8226
#
#
#
# Elastic Compliance Matrix: (Units=1/GPa)
#
#
# Indices 1 2 3 4 5 6 
#
# 1 0.026773 -0.007208 -0.010203 -0.002288 0.000000 0.000000
# 2 -0.007208 0.026773 -0.010203 0.002288 0.000000 0.000000
# 3 -0.010203 -0.010203 0.017739 0.000000 0.000000 0.000000
# 4 -0.002288 0.002288 0.000000 0.042045 0.000000 0.000000
# 5 0.000000 0.000000 0.000000 0.000000 0.042045 -0.004576
# 6 0.000000 0.000000 0.000000 0.000000 -0.004576 0.067963
#
#
# Mechanical properties :
#
#
# Convention : Reuss Voigt Hill
#
# Bulk Modulus (GPa) = 62.28765 76.71358 69.50062
# Shear Modulus (GPa) = 17.61067 19.36748 18.48907
#
# Velocity S-wave (km/s) = 3.37924 3.54379 3.46250
# Velocity P-wave (km/s) = 7.45754 8.15402 7.81354
#
# Compressibility (1/GPa) = 0.01605455
#
# Stress axis : x y z
#
# Youngs Moduli (GPa) = 37.35118 37.35118 56.37311
#
# Poissons Ratio (x) = 0.26924 0.57520
# Poissons Ratio (y) = 0.26924 0.57520
# Poissons Ratio (z) = 0.38111 0.38111
#
# Static dielectric constant tensor:
#      x y z
#    x 1.485250 0.000000 0.000000 
#    y 0.000000 1.485250 0.000000 
#    z 0.000000 0.000000 1.541560 
# 
# From -- ./inp_files/5214.got.cif
#   From: 2010.05.17/outbox.cif.g08.bks.cpg/sg164_3_cif.got.tgz:5214.got - 2010.05.20 10:58:56.
