data_PCOD9578751
_publ_section_title
;
Structure prediction by ZEFSAII (Michael W. Deem and Ramdas Pophale) SiO2 
 PCOD9578751
Probable space group: P -3 M 1
;
_chemical_formula_sum "Si O2"
_cell_formula_units_Z 84
_cell_length_a 18.000000
_cell_length_b 18.000000
_cell_length_c 21.000000
_cell_angle_alpha 90.000000
_cell_angle_beta 90.000000
_cell_angle_gamma 120.000000
_cell_volume 5892.436847
_symmetry_space_group_name_H-M "P -3 M 1"
_symmetry_group_IT_number 164
_symmetry_cell_setting 'hexagonal'
loop_
_space_group_symop_operation_xyz
x,y,z
-y,x-y,z
-x+y,-x,z
x-y,-y,-z
-x,-x+y,-z
y,x,-z
-x,-y,-z
y,-x+y,-z
x-y,x,-z
-x+y,y,z
x,x-y,z
-y,-x,z
loop_
_atom_site_type_symbol
_atom_site_label
_atom_site_fract_x
_atom_site_fract_y
_atom_site_fract_z
Si Si1 0.905502 0.270748 0.641643
Si Si2 0.763435 0.701020 0.191971
Si Si3 0.666134 0.160229 0.379442
Si Si4 0.176329 0.177439 0.684806
Si Si5 0.597270 0.579537 0.269133
Si Si6 0.489782 0.156019 0.524610
Si Si7 0.176413 0.000031 0.925379
O O1 0.812796 0.187205 0.655067
O O2 0.896169 0.311433 0.575841
O O3 0.972070 0.234206 0.642118
O O4 0.934579 0.342777 0.696548
O O5 0.836443 0.672885 0.190731
O O6 0.795306 0.774930 0.246596
O O7 0.669541 0.624620 0.213732
O O8 0.769043 0.747764 0.124925
O O9 0.595051 0.190102 0.379277
O O10 0.759954 0.240047 0.367537
O O11 0.638785 0.089602 0.324870
O O12 0.663186 0.126768 0.451355
O O13 0.088756 0.177512 0.666070
O O14 0.161539 0.080770 0.687502
O O15 0.504579 0.495422 0.252929
O O16 0.575661 0.151321 0.538605
O O17 0.509695 0.254848 0.526996
O O18 0.078069 0.921932 0.918390
O O19 0.181931 0.090966 0.911979
O O20 0.199840 0.000000 0.000000
#
# Coordination Sequence:
#
# PCOD9578751 Si02
#       7
#    12  12  12  12  12  12  12
#     4   9  18  30  42  58  82 109 138 177 223 265
#     4   9  17  28  42  62  91 120 143 171 207 249
#     4   9  17  28  44  65  87 109 133 166 211 264
#     4   9  16  26  41  61  84 112 145 178 211 249
#     4  10  19  30  45  63  83 111 144 177 213 251
#     4   9  16  27  43  62  83 106 133 168 214 268
#     4   9  16  26  43  70 102 131 154 175 203 242
#
# _framework density 14.255561999999999
#
# number of rings (size 3 to 8) (size 9 to 14) (size 15 to 20)
#    0.000    2.857    0.000    1.857    0.000    3.429 
#    0.000    3.571    0.000    1.857    0.000    0.000 
#    0.000    0.000    0.000   52.714    0.000    0.000 
#
# Total GULP energy -467854.049861 kJ/mol
# GULP energy per Si atom -5569.691070 kJ/mol
# Density = 1.422312 g / cm^3
# Si number density = 14.255562 Si / 1000 Ang^3
#
#
#
# Elastic Constant Matrix: (Units=GPa)
#
#
# Indices 1 2 3 4 5 6 
#
# 1 90.0079 42.7373 42.0845 -0.8635 0.0000 0.0000
# 2 42.7373 90.0079 42.0845 0.8635 0.0000 0.0000
# 3 42.0845 42.0845 79.0266 0.0000 0.0000 0.0000
# 4 -0.8635 0.8635 0.0000 23.1170 0.0000 0.0000
# 5 0.0000 0.0000 0.0000 0.0000 23.1170 -0.8635
# 6 0.0000 0.0000 0.0000 0.0000 -0.8635 23.6353
#
#
#
# Elastic Compliance Matrix: (Units=1/GPa)
#
#
# Indices 1 2 3 4 5 6 
#
# 1 0.016279 -0.004905 -0.006057 0.000791 0.000000 0.000000
# 2 -0.004905 0.016279 -0.006057 -0.000791 0.000000 0.000000
# 3 -0.006057 -0.006057 0.019105 0.000000 0.000000 0.000000
# 4 0.000791 -0.000791 0.000000 0.043317 0.000000 0.000000
# 5 0.000000 0.000000 0.000000 0.000000 0.043317 0.001583
# 6 0.000000 0.000000 0.000000 0.000000 0.001583 0.042367
#
#
# Mechanical properties :
#
#
# Convention : Reuss Voigt Hill
#
# Bulk Modulus (GPa) = 56.73831 56.98393 56.86112
# Shear Modulus (GPa) = 22.66782 22.78293 22.72538
#
# Velocity S-wave (km/s) = 3.99194 4.00206 3.99700
# Velocity P-wave (km/s) = 7.81886 7.83679 7.82783
#
# Compressibility (1/GPa) = 0.01762478
#
# Stress axis : x y z
#
# Youngs Moduli (GPa) = 61.42999 61.42999 52.34230
#
# Poissons Ratio (x) = 0.30131 0.31703
# Poissons Ratio (y) = 0.30131 0.31703
# Poissons Ratio (z) = 0.37208 0.37208
#
# Static dielectric constant tensor:
#      x y z
#    x 1.478060 0.000000 0.000000 
#    y 0.000000 1.478060 0.000000 
#    z 0.000000 0.000000 1.464950 
# 
# From -- ./inp_files/4627.got.cif
#   From: 2010.05.17/outbox.ucp.g08.bks.cvg/sg164_3_cif.got.tgz:4627.got - 2010.06.11 15:16:10.
