data_PCOD9578285
_publ_section_title
;
Structure prediction by ZEFSAII (Michael W. Deem and Ramdas Pophale) SiO2 
 PCOD9578285
Probable space group: P -3 1 C
;
_chemical_formula_sum "Si O2"
_cell_formula_units_Z 52
_cell_length_a 13.540719
_cell_length_b 13.540719
_cell_length_c 15.230671
_cell_angle_alpha 90.000000
_cell_angle_beta 90.000000
_cell_angle_gamma 120.000000
_cell_volume 2418.427763
_symmetry_space_group_name_H-M "P -3 1 C"
_symmetry_group_IT_number 163
_symmetry_cell_setting 'hexagonal'
loop_
_space_group_symop_operation_xyz
x,y,z
-y,x-y,z
-x+y,-x,z
-y,-x,1/2-z
-x+y,y,1/2-z
x,x-y,1/2-z
-x,-y,-z
y,-x+y,-z
x-y,x,-z
y,x,1/2+z
x-y,-y,1/2+z
-x,-x+y,1/2+z
loop_
_atom_site_type_symbol
_atom_site_label
_atom_site_fract_x
_atom_site_fract_y
_atom_site_fract_z
Si Si1 0.909357 0.413297 0.149799
Si Si2 0.874023 0.125978 0.250000
Si Si3 0.418699 0.257169 0.093496
Si Si4 0.666668 0.333335 0.856454
Si Si5 0.142002 0.727990 0.397386
Si Si6 0.132371 0.867630 0.250000
O O1 0.903929 0.451965 0.250000
O O2 0.799186 0.295015 0.119981
O O3 0.906091 0.512142 0.095032
O O4 0.019931 0.399436 0.133106
O O5 0.794999 0.121490 0.170260
O O6 0.003398 0.182611 0.221930
O O7 0.372222 0.228389 0.995300
O O8 0.666668 0.333334 0.750000
O O9 0.683353 0.231202 0.890724
O O10 0.184107 0.834342 0.331797
#
# Coordination Sequence:
#
# PCOD9578285 Si02
#       6
#    12   6  12   4  12   6
#     4  12  23  46  71 110 149 190 239 304 370 454
#     4  12  27  48  74 102 140 189 248 306 366 432
#     4  12  25  44  72 107 141 189 238 300 373 442
#     4  12  24  42  66 106 149 199 234 303 363 445
#     4  12  27  44  73 104 150 191 246 303 375 442
#     4  12  27  50  72 104 140 191 250 310 366 444
#
# _framework density 21.501570999999998
#
# number of rings (size 3 to 8) (size 9 to 14) (size 15 to 20)
#    0.000    0.000    5.769    3.462    6.462    0.000 
#    0.000    0.000    0.000    2.769    0.000    0.000 
#    0.000    0.000    0.000    0.000    0.000    0.000 
#
# Total GULP energy -290664.702922 kJ/mol
# GULP energy per Si atom -5589.705825 kJ/mol
# Density = 2.145263 g / cm^3
# Si number density = 21.501571 Si / 1000 Ang^3
#
#
#
# Elastic Constant Matrix: (Units=GPa)
#
#
# Indices 1 2 3 4 5 6 
#
# 1 74.3447 14.0967 -10.3171 0.2232 59.3017 -0.0723
# 2 14.0967 74.3461 -10.3221 -0.2313 -59.3035 0.0750
# 3 -10.3171 -10.3221 116.2373 0.0156 0.0089 -0.0044
# 4 0.2232 -0.2313 0.0156 256.4414 0.7340 -59.6023
# 5 59.3017 -59.3035 0.0089 0.7340 255.4668 -0.2381
# 6 -0.0723 0.0750 -0.0044 -59.6023 -0.2381 30.2165
#
#
#
# Elastic Compliance Matrix: (Units=1/GPa)
#
#
# Indices 1 2 3 4 5 6 
#
# 1 0.021056 -0.009510 0.001025 -0.000004 -0.007095 0.000009
# 2 -0.009510 0.021056 0.001025 0.000005 0.007095 -0.000010
# 3 0.001025 0.001025 0.008785 0.000000 0.000000 0.000000
# 4 -0.000004 0.000005 0.000000 0.007201 -0.000005 0.014203
# 5 -0.007095 0.007095 0.000000 -0.000005 0.007209 0.000012
# 6 0.000009 -0.000010 0.000000 0.014203 0.000012 0.061111
#
#
# Mechanical properties :
#
#
# Convention : Reuss Voigt Hill
#
# Bulk Modulus (GPa) = 27.79521 27.98259 27.88890
# Shear Modulus (GPa) = 32.60965 126.52298 79.56631
#
# Velocity S-wave (km/s) = 3.89860 7.67928 6.08976
# Velocity P-wave (km/s) = 5.76373 9.57449 7.90226
#
# Compressibility (1/GPa) = 0.03597742
#
# Stress axis : x y z
#
# Youngs Moduli (GPa) = 47.49254 47.49286 113.82911
#
# Poissons Ratio (x) = 0.45165 -0.11667
# Poissons Ratio (y) = 0.45165 -0.11669
# Poissons Ratio (z) = -0.04868 -0.04869
#
# Static dielectric constant tensor:
#      x y z
#    x 1.802480 0.000000 0.000000 
#    y 0.000000 1.802480 0.000000 
#    z 0.000000 0.000000 1.834300 
# 
# From -- ./inp_files/2351.got.cif
#   From: 2010.05.17/outbox.cif.g08.bks.cpg/sg163_2_cif.got.tgz:2351.got - 2010.05.20 10:56:03.
