data_PCOD9578489
_publ_section_title
;
Structure prediction by ZEFSAII (Michael W. Deem and Ramdas Pophale) SiO2 
 PCOD9578489
Probable space group: P -3 M 1
;
_chemical_formula_sum "Si O2"
_cell_formula_units_Z 96
_cell_length_a 18.467211
_cell_length_b 18.467211
_cell_length_c 19.877438
_cell_angle_alpha 90.000000
_cell_angle_beta 90.000000
_cell_angle_gamma 120.000000
_cell_volume 5870.751015
_symmetry_space_group_name_H-M "P -3 M 1"
_symmetry_group_IT_number 164
_symmetry_cell_setting 'hexagonal'
loop_
_space_group_symop_operation_xyz
x,y,z
-y,x-y,z
-x+y,-x,z
x-y,-y,-z
-x,-x+y,-z
y,x,-z
-x,-y,-z
y,-x+y,-z
x-y,x,-z
-x+y,y,z
x,x-y,z
-y,-x,z
loop_
_atom_site_type_symbol
_atom_site_label
_atom_site_fract_x
_atom_site_fract_y
_atom_site_fract_z
Si Si1 0.745889 0.656637 0.818218
Si Si2 0.730919 0.100700 0.206214
Si Si3 0.602874 0.564487 0.594507
Si Si4 0.165199 0.499453 0.280913
Si Si5 0.666769 0.161150 0.083552
Si Si6 0.878180 0.283825 0.360087
Si Si7 0.826468 0.332124 0.486148
Si Si8 0.648763 0.741238 0.022512
O O1 0.844237 0.688473 0.805778
O O2 0.708776 0.716259 0.798787
O O3 0.694947 0.572382 0.775102
O O4 0.730710 0.637691 0.897535
O O5 0.827133 0.172868 0.196316
O O6 0.678702 0.115296 0.148384
O O7 0.704303 0.115726 0.280109
O O8 0.501943 0.498058 0.595891
O O9 0.640448 0.531738 0.652394
O O10 0.632452 0.660278 0.612171
O O11 0.636404 0.549562 0.524480
O O12 0.256800 0.513600 0.294559
O O13 0.169910 0.584955 0.258726
O O14 0.578212 0.156424 0.082830
O O15 0.742949 0.257052 0.085846
O O16 0.682740 0.118691 0.018585
O O17 0.816487 0.183514 0.371118
O O18 0.835550 0.323868 0.406421
O O19 0.799039 0.399519 0.500667
O O20 0.758077 0.241924 0.511660
O O21 0.672002 0.836001 0.005716
O O22 0.717322 0.717322 0.000000
#
# Coordination Sequence:
#
# PCOD9578489 Si02
#       8
#    12  12  12  12  12  12  12  12
#     4  10  20  35  54  78 104 132 170 210 257 311
#     4  10  20  36  55  76 102 135 173 213 260 308
#     4  10  19  32  51  72  97 133 173 213 254 300
#     4  10  20  33  50  73 103 136 172 211 254 301
#     4  10  21  35  52  74 103 138 176 215 254 297
#     4  10  20  33  49  71  97 128 169 214 260 305
#     4  10  20  33  50  73 104 140 177 215 255 300
#     4  10  20  35  54  78 103 133 170 210 258 311
#
# _framework density 16.352250999999999
#
# number of rings (size 3 to 8) (size 9 to 14) (size 15 to 20)
#    0.000    2.000    2.500    1.500    0.000    3.250 
#    0.000    1.250    0.000    3.625    0.000    0.000 
#    0.000    0.000    0.000    0.500    0.000   37.250 
#
# Total GULP energy -534645.509463 kJ/mol
# GULP energy per Si atom -5569.224057 kJ/mol
# Density = 1.631503 g / cm^3
# Si number density = 16.352251 Si / 1000 Ang^3
#
#
#
# Elastic Constant Matrix: (Units=GPa)
#
#
# Indices 1 2 3 4 5 6 
#
# 1 95.9972 62.6799 31.2116 -0.0756 0.0000 0.0000
# 2 62.6799 95.9972 31.2116 0.0756 0.0000 0.0000
# 3 31.2116 31.2116 84.7567 0.0000 0.0000 0.0000
# 4 -0.0756 0.0756 0.0000 17.5785 0.0000 0.0000
# 5 0.0000 0.0000 0.0000 0.0000 17.5785 -0.0756
# 6 0.0000 0.0000 0.0000 0.0000 -0.0756 16.6587
#
#
#
# Elastic Compliance Matrix: (Units=1/GPa)
#
#
# Indices 1 2 3 4 5 6 
#
# 1 0.018692 -0.011323 -0.002714 0.000129 0.000000 0.000000
# 2 -0.011323 0.018692 -0.002714 -0.000129 0.000000 0.000000
# 3 -0.002714 -0.002714 0.013797 0.000000 0.000000 0.000000
# 4 0.000129 -0.000129 0.000000 0.056889 0.000000 0.000000
# 5 0.000000 0.000000 0.000000 0.000000 0.056889 0.000258
# 6 0.000000 0.000000 0.000000 0.000000 0.000258 0.060030
#
#
# Mechanical properties :
#
#
# Convention : Reuss Voigt Hill
#
# Bulk Modulus (GPa) = 56.55746 58.55084 57.55415
# Shear Modulus (GPa) = 18.91185 20.47298 19.69242
#
# Velocity S-wave (km/s) = 3.40447 3.54220 3.47401
# Velocity P-wave (km/s) = 7.07926 7.25350 7.16691
#
# Compressibility (1/GPa) = 0.01768113
#
# Stress axis : x y z
#
# Youngs Moduli (GPa) = 53.49775 53.49775 72.47815
#
# Poissons Ratio (x) = 0.60573 0.19670
# Poissons Ratio (y) = 0.60573 0.19670
# Poissons Ratio (z) = 0.14519 0.14519
#
# Static dielectric constant tensor:
#      x y z
#    x 1.551000 0.000000 0.000000 
#    y 0.000000 1.551000 0.000000 
#    z 0.000000 0.000000 1.572280 
# 
# From -- ./inp_files/4741.got.cif
#   From: 2010.05.17/outbox.cif.g08.bks.cpg/sg164_3_cif.got.tgz:4741.got - 2010.05.20 10:58:56.
