data_PCOD9578890
_publ_section_title
;
Structure prediction by ZEFSAII (Michael W. Deem and Ramdas Pophale) SiO2 
 PCOD9578890
Probable space group: P -3 C 1
;
_chemical_formula_sum "Si O2"
_cell_formula_units_Z 48
_cell_length_a 14.855048
_cell_length_b 14.855048
_cell_length_c 10.059760
_cell_angle_alpha 90.000000
_cell_angle_beta 90.000000
_cell_angle_gamma 120.000000
_cell_volume 1922.500097
_symmetry_space_group_name_H-M "P -3 C 1"
_symmetry_group_IT_number 165
_symmetry_cell_setting 'hexagonal'
loop_
_space_group_symop_operation_xyz
x,y,z
-y,x-y,z
-x+y,-x,z
x-y,-y,1/2-z
-x,-x+y,1/2-z
y,x,1/2-z
-x,-y,-z
y,-x+y,-z
x-y,x,-z
-x+y,y,1/2+z
x,x-y,1/2+z
-y,-x,1/2+z
loop_
_atom_site_type_symbol
_atom_site_label
_atom_site_fract_x
_atom_site_fract_y
_atom_site_fract_z
Si Si1 0.426472 0.632565 0.176488
Si Si2 0.486346 0.580720 0.909132
Si Si3 0.155307 0.248446 0.989937
Si Si4 0.223091 0.333851 0.257529
O O1 0.442391 0.745248 0.205028
O O2 0.445925 0.628050 0.022206
O O3 0.474600 0.593394 0.287753
O O4 0.500000 0.500000 0.000000
O O5 0.589912 0.672689 0.840916
O O6 0.206594 0.340332 0.101541
O O7 0.193853 0.164008 0.988027
O O8 0.182067 0.308410 0.849433
O O9 0.226606 0.226606 0.250000
#
# Coordination Sequence:
#
# PCOD9578890 Si02
#       4
#    12  12  12  12
#     4  10  24  45  69 102 133 182 232 292 362 433
#     4  12  24  45  71  99 142 187 237 294 375 442
#     4  10  21  41  67 102 145 192 241 298 363 432
#     4  10  23  41  62 101 139 181 241 291 357 435
#
# _framework density 24.967489
#
# number of rings (size 3 to 8) (size 9 to 14) (size 15 to 20)
#    0.500    1.000    0.000    4.750    3.500    0.000 
#    9.000    7.500    0.000    0.000    0.000    0.000 
#    0.000    0.000    0.000    0.000    0.000    0.000 
#
# Total GULP energy -267511.327599 kJ/mol
# GULP energy per Si atom -5573.152658 kJ/mol
# Density = 2.491066 g / cm^3
# Si number density = 24.967489 Si / 1000 Ang^3
#
#
#
# Elastic Constant Matrix: (Units=GPa)
#
#
# Indices 1 2 3 4 5 6 
#
# 1 89.0880 34.5142 36.3850 -7.0177 0.0000 0.0000
# 2 34.5142 89.0880 36.3850 7.0177 0.0000 0.0000
# 3 36.3850 36.3850 187.0464 0.0000 0.0000 0.0000
# 4 -7.0177 7.0177 0.0000 45.5695 0.0000 0.0000
# 5 0.0000 0.0000 0.0000 0.0000 45.5695 -7.0177
# 6 0.0000 0.0000 0.0000 0.0000 -7.0177 27.2869
#
#
#
# Elastic Compliance Matrix: (Units=1/GPa)
#
#
# Indices 1 2 3 4 5 6 
#
# 1 0.014108 -0.004971 -0.001777 0.002938 0.000000 0.000000
# 2 -0.004971 0.014108 -0.001777 -0.002938 0.000000 0.000000
# 3 -0.001777 -0.001777 0.006038 0.000000 0.000000 0.000000
# 4 0.002938 -0.002938 0.000000 0.022849 0.000000 0.000000
# 5 0.000000 0.000000 0.000000 0.000000 0.022849 0.005876
# 6 0.000000 0.000000 0.000000 0.000000 0.005876 0.038159
#
#
# Mechanical properties :
#
#
# Convention : Reuss Voigt Hill
#
# Bulk Modulus (GPa) = 58.13238 64.42120 61.27679
# Shear Modulus (GPa) = 35.48666 40.88106 38.18386
#
# Velocity S-wave (km/s) = 3.77412 4.05083 3.91492
# Velocity P-wave (km/s) = 6.50583 6.90920 6.71055
#
# Compressibility (1/GPa) = 0.01720212
#
# Stress axis : x y z
#
# Youngs Moduli (GPa) = 70.88089 70.88089 165.62499
#
# Poissons Ratio (x) = 0.35237 0.29437
# Poissons Ratio (y) = 0.35237 0.29437
# Poissons Ratio (z) = 0.12598 0.12598
#
# Static dielectric constant tensor:
#      x y z
#    x 2.116750 0.000000 0.000000 
#    y 0.000000 2.116750 0.000000 
#    z 0.000000 0.000000 2.103760 
# 
# From -- ./inp_files/503.got.cif
#   From: 2010.05.17/outbox.cif.g08.bks.cpg/sg165_1_cif.got.tgz:503.got - 2010.05.20 11:02:39.
