data_PCOD9578830
_publ_section_title
;
Structure prediction by ZEFSAII (Michael W. Deem and Ramdas Pophale) SiO2 
 PCOD9578830
Probable space group: P -3 C 1
;
_chemical_formula_sum "Si O2"
_cell_formula_units_Z 30
_cell_length_a 11.842023
_cell_length_b 11.842023
_cell_length_c 14.009098
_cell_angle_alpha 90.000000
_cell_angle_beta 90.000000
_cell_angle_gamma 120.000000
_cell_volume 1701.345848
_symmetry_space_group_name_H-M "P -3 C 1"
_symmetry_group_IT_number 165
_symmetry_cell_setting 'hexagonal'
loop_
_space_group_symop_operation_xyz
x,y,z
-y,x-y,z
-x+y,-x,z
x-y,-y,1/2-z
-x,-x+y,1/2-z
y,x,1/2-z
-x,-y,-z
y,-x+y,-z
x-y,x,-z
-x+y,y,1/2+z
x,x-y,1/2+z
-y,-x,1/2+z
loop_
_atom_site_type_symbol
_atom_site_label
_atom_site_fract_x
_atom_site_fract_y
_atom_site_fract_z
Si Si1 0.333335 0.666667 0.112963
Si Si2 0.790536 0.790536 0.750000
Si Si3 0.000000 0.000000 0.613277
Si Si4 0.333335 0.666668 0.887045
Si Si5 0.557176 0.712828 0.250004
O O1 0.461826 0.673830 0.158906
O O2 0.333334 0.666667 0.000004
O O3 0.786040 0.653925 0.749997
O O4 0.874893 0.874896 0.658970
O O5 0.000000 0.000000 0.500000
O O6 0.212006 0.673832 0.841102
O O7 0.641595 0.641595 0.250000
#
# Coordination Sequence:
#
# PCOD9578830 Si02
#       5
#     4   6   4   4  12
#     4  10  26  40  61  92 115 157 209 241 286 353
#     4  10  20  40  58  90 126 156 194 242 308 350
#     4  10  20  34  55  92 124 154 203 241 292 353
#     4  10  26  40  61  92 115 157 209 241 286 353
#     4  10  21  42  63  83 124 162 189 247 302 349
#
# _framework density 17.633098
#
# number of rings (size 3 to 8) (size 9 to 14) (size 15 to 20)
#    0.000    2.400    4.000    0.000   11.200    4.800 
#    0.000    0.000    0.000    0.000    0.000    0.000 
#    0.000    0.000    0.000    0.000    0.000    0.000 
#
# Total GULP energy -167383.077240 kJ/mol
# GULP energy per Si atom -5579.435908 kJ/mol
# Density = 1.759296 g / cm^3
# Si number density = 17.633098 Si / 1000 Ang^3
#
#
#
# Elastic Constant Matrix: (Units=GPa)
#
#
# Indices 1 2 3 4 5 6 
#
# 1 103.7755 58.4240 41.7554 0.0001 0.0000 0.0000
# 2 58.4240 103.7767 41.7558 -0.0014 0.0000 0.0000
# 3 41.7554 41.7558 189.4402 -0.0001 0.0000 0.0000
# 4 0.0001 -0.0014 -0.0001 0.4128 0.0000 0.0000
# 5 0.0000 0.0000 0.0000 0.0000 0.4127 0.0011
# 6 0.0000 0.0000 0.0000 0.0000 0.0011 22.6763
#
#
#
# Elastic Compliance Matrix: (Units=1/GPa)
#
#
# Indices 1 2 3 4 5 6 
#
# 1 0.014502 -0.007548 -0.001533 -0.000029 0.000000 0.000000
# 2 -0.007548 0.014502 -0.001533 0.000050 0.000000 0.000000
# 3 -0.001533 -0.001533 0.005954 -0.000004 0.000000 0.000000
# 4 -0.000029 0.000050 -0.000004 2.422763 0.000000 0.000000
# 5 0.000000 0.000000 0.000000 0.000000 2.423196 -0.000118
# 6 0.000000 0.000000 0.000000 0.000000 -0.000118 0.044099
#
#
# Mechanical properties :
#
#
# Convention : Reuss Voigt Hill
#
# Bulk Modulus (GPa) = 72.82334 75.65143 74.23739
# Shear Modulus (GPa) = 1.00993 21.70415 11.35704
#
# Velocity S-wave (km/s) = 0.75762 3.51219 2.54062
# Velocity P-wave (km/s) = 6.49263 7.70996 7.12733
#
# Compressibility (1/GPa) = 0.01373186
#
# Stress axis : x y z
#
# Youngs Moduli (GPa) = 68.95535 68.95605 167.94166
#
# Poissons Ratio (x) = 0.52045 0.25743
# Poissons Ratio (y) = 0.52045 0.25743
# Poissons Ratio (z) = 0.10570 0.10570
#
# Static dielectric constant tensor:
#      x y z
#    x 1.608070 0.000000 0.000000 
#    y 0.000000 1.608070 0.000000 
#    z 0.000000 0.000000 1.562130 
# 
# From -- ./inp_files/1357.got.cif
#   From: 2010.05.17/outbox.cif.g08.bks.cpg/sg165_1_cif.got.tgz:1357.got - 2010.05.20 11:02:39.
