data_PCOD9578039
_publ_section_title
;
Structure prediction by ZEFSAII (Michael W. Deem and Ramdas Pophale) SiO2 
 PCOD9578039
Probable space group: P -3 1 C
;
_chemical_formula_sum "Si O2"
_cell_formula_units_Z 78
_cell_length_a 24.010226
_cell_length_b 24.010226
_cell_length_c 8.773954
_cell_angle_alpha 90.000000
_cell_angle_beta 90.000000
_cell_angle_gamma 120.000000
_cell_volume 4380.447511
_symmetry_space_group_name_H-M "P -3 1 C"
_symmetry_group_IT_number 163
_symmetry_cell_setting 'hexagonal'
loop_
_space_group_symop_operation_xyz
x,y,z
-y,x-y,z
-x+y,-x,z
-y,-x,1/2-z
-x+y,y,1/2-z
x,x-y,1/2-z
-x,-y,-z
y,-x+y,-z
x-y,x,-z
y,x,1/2+z
x-y,-y,1/2+z
-x,-x+y,1/2+z
loop_
_atom_site_type_symbol
_atom_site_label
_atom_site_fract_x
_atom_site_fract_y
_atom_site_fract_z
Si Si1 0.582124 0.716756 0.988040
Si Si2 0.074228 0.592858 0.852821
Si Si3 0.083775 0.790122 0.722940
Si Si4 0.392750 0.390458 0.083382
Si Si5 0.332559 0.534814 0.733259
Si Si6 0.951233 0.247876 0.930168
Si Si7 0.821467 0.178534 0.750000
O O1 0.636118 0.758604 0.858740
O O2 0.593961 0.657398 0.020468
O O3 0.510043 0.682240 0.917667
O O4 0.599241 0.765299 0.128893
O O5 0.076671 0.538336 0.750000
O O6 0.033699 0.612688 0.744719
O O7 0.147093 0.651121 0.859975
O O8 0.038216 0.576841 0.012589
O O9 0.134685 0.865316 0.750000
O O10 0.018591 0.764899 0.623445
O O11 0.059220 0.763474 0.890728
O O12 0.317261 0.358748 0.097620
O O13 0.393832 0.606169 0.750000
O O14 0.269144 0.538288 0.750000
O O15 0.887686 0.198631 0.839091
#
# Coordination Sequence:
#
# PCOD9578039 Si02
#       7
#    12  12  12  12  12  12   6
#     4  10  21  36  57  84 113 153 194 239 300 366
#     4  10  20  33  54  77 106 140 185 232 289 351
#     4  11  21  38  57  86 121 163 199 237 292 362
#     4  10  19  35  50  77 113 144 176 227 288 351
#     4  10  21  36  56  79 103 140 199 252 295 349
#     4  11  22  34  57  83 123 159 192 239 297 358
#     4  12  22  34  56  90 120 154 196 244 300 368
#
# _framework density 17.806398999999999
#
# number of rings (size 3 to 8) (size 9 to 14) (size 15 to 20)
#    0.000    1.538    1.538    6.615    2.154    0.000 
#    0.000    0.000    0.000    0.000    0.000    0.000 
#    0.769    1.231    0.000    0.000    0.000    0.000 
#
# Total GULP energy -434423.984209 kJ/mol
# GULP energy per Si atom -5569.538259 kJ/mol
# Density = 1.776587 g / cm^3
# Si number density = 17.806399 Si / 1000 Ang^3
#
#
#
# Elastic Constant Matrix: (Units=GPa)
#
#
# Indices 1 2 3 4 5 6 
#
# 1 84.8661 36.3191 32.9366 0.0006 -9.0061 0.0000
# 2 36.3191 84.8661 32.9366 -0.0006 9.0061 0.0000
# 3 32.9366 32.9366 77.6983 0.0000 0.0000 0.0000
# 4 0.0006 -0.0006 0.0000 23.8599 0.0000 9.0061
# 5 -9.0061 9.0061 0.0000 0.0000 23.8599 0.0006
# 6 0.0000 0.0000 0.0000 9.0061 0.0006 24.2735
#
#
#
# Elastic Compliance Matrix: (Units=1/GPa)
#
#
# Indices 1 2 3 4 5 6 
#
# 1 0.017338 -0.006615 -0.004545 -0.000001 0.009041 0.000000
# 2 -0.006615 0.017338 -0.004545 0.000001 -0.009041 0.000000
# 3 -0.004545 -0.004545 0.016724 0.000000 0.000000 0.000000
# 4 -0.000001 0.000001 0.000000 0.048737 0.000000 -0.018082
# 5 0.009041 -0.009041 0.000000 0.000000 0.048737 -0.000001
# 6 0.000000 0.000000 0.000000 -0.018082 -0.000001 0.047906
#
#
# Mechanical properties :
#
#
# Convention : Reuss Voigt Hill
#
# Bulk Modulus (GPa) = 50.03089 50.20167 50.11628
# Shear Modulus (GPa) = 21.28990 24.08123 22.68557
#
# Velocity S-wave (km/s) = 3.46154 3.68148 3.57320
# Velocity P-wave (km/s) = 6.64338 6.80627 6.72532
#
# Compressibility (1/GPa) = 0.01998765
#
# Stress axis : x y z
#
# Youngs Moduli (GPa) = 57.67740 57.67740 59.79477
#
# Poissons Ratio (x) = 0.38155 0.27179
# Poissons Ratio (y) = 0.38155 0.27179
# Poissons Ratio (z) = 0.26216 0.26216
#
# Static dielectric constant tensor:
#      x y z
#    x 1.644270 0.000000 0.000000 
#    y 0.000000 1.644270 0.000000 
#    z 0.000000 0.000000 1.646030 
# 
# From -- ./inp_files/1289.got.cif
#   From: 2010.05.17/outbox.cif.g08.bks.cpg/sg163_1_cif.got.tgz:1289.got - 2010.05.20 10:56:03.
