data_PCOD9578184
_publ_section_title
;
Structure prediction by ZEFSAII (Michael W. Deem and Ramdas Pophale) SiO2 
 PCOD9578184
Probable space group: P -3 1 C
;
_chemical_formula_sum "Si O2"
_cell_formula_units_Z 76
_cell_length_a 16.955722
_cell_length_b 16.955722
_cell_length_c 13.882245
_cell_angle_alpha 90.000000
_cell_angle_beta 90.000000
_cell_angle_gamma 120.000000
_cell_volume 3456.391363
_symmetry_space_group_name_H-M "P -3 1 C"
_symmetry_group_IT_number 163
_symmetry_cell_setting 'hexagonal'
loop_
_space_group_symop_operation_xyz
x,y,z
-y,x-y,z
-x+y,-x,z
-y,-x,1/2-z
-x+y,y,1/2-z
x,x-y,1/2-z
-x,-y,-z
y,-x+y,-z
x-y,x,-z
y,x,1/2+z
x-y,-y,1/2+z
-x,-x+y,1/2+z
loop_
_atom_site_type_symbol
_atom_site_label
_atom_site_fract_x
_atom_site_fract_y
_atom_site_fract_z
Si Si1 0.826173 0.705664 0.054214
Si Si2 0.221916 0.575186 0.982399
Si Si3 0.701355 0.711774 0.213291
Si Si4 0.663723 0.495546 0.697394
Si Si5 0.000000 0.000000 0.864329
Si Si6 0.556994 0.841034 0.669648
Si Si7 0.030173 0.189088 0.375586
O O1 0.747657 0.712174 0.112438
O O2 0.821916 0.613508 0.087752
O O3 0.925392 0.781277 0.091110
O O4 0.821113 0.726229 0.943116
O O5 0.317637 0.575000 0.976449
O O6 0.182110 0.534363 0.085939
O O7 0.160469 0.523512 0.890902
O O8 0.602333 0.699144 0.204508
O O9 0.694637 0.628071 0.276582
O O10 0.772135 0.802947 0.270214
O O11 0.567911 0.432090 0.750000
O O12 0.738231 0.476462 0.750000
O O13 0.951567 0.057375 0.891263
O O14 0.000000 0.000000 0.750000
O O15 0.524810 0.762405 0.750000
#
# Coordination Sequence:
#
# PCOD9578184 Si02
#       7
#    12  12  12  12   4  12  12
#     4  10  22  40  62  92 133 179 224 277 335 408
#     4  10  22  42  72 105 132 181 228 276 343 411
#     4  10  25  43  66  95 131 181 224 285 345 408
#     4  12  24  45  68  98 138 176 231 283 343 409
#     4  12  24  40  59  91 142 173 232 307 329 403
#     4   9  21  45  66  98 144 175 221 280 341 407
#     4  11  23  39  62  90 130 178 231 274 343 397
#
# _framework density 21.988251000000002
#
# number of rings (size 3 to 8) (size 9 to 14) (size 15 to 20)
#    0.316    1.263    1.579    3.474    6.632    3.158 
#    5.684    2.368    0.000    0.000    0.000    0.000 
#    0.000    0.000    0.000    0.000    0.000    0.000 
#
# Total GULP energy -424849.425597 kJ/mol
# GULP energy per Si atom -5590.124021 kJ/mol
# Density = 2.193820 g / cm^3
# Si number density = 21.988251 Si / 1000 Ang^3
#
#
#
# Elastic Constant Matrix: (Units=GPa)
#
#
# Indices 1 2 3 4 5 6 
#
# 1 54.6642 7.8935 5.1837 -0.0001 -0.9733 0.0000
# 2 7.8935 54.6642 5.1837 0.0001 0.9733 0.0000
# 3 5.1837 5.1837 65.6303 0.0000 0.0000 0.0000
# 4 -0.0001 0.0001 0.0000 27.8022 0.0000 0.9733
# 5 -0.9733 0.9733 0.0000 0.0000 27.8022 -0.0001
# 6 0.0000 0.0000 0.0000 0.9733 -0.0001 23.3854
#
#
#
# Elastic Compliance Matrix: (Units=1/GPa)
#
#
# Indices 1 2 3 4 5 6 
#
# 1 0.018805 -0.002607 -0.001279 0.000000 0.000750 0.000000
# 2 -0.002607 0.018805 -0.001279 0.000000 -0.000750 0.000000
# 3 -0.001279 -0.001279 0.015439 0.000000 0.000000 0.000000
# 4 0.000000 0.000000 0.000000 0.036021 0.000000 -0.001499
# 5 0.000750 -0.000750 0.000000 0.000000 0.036021 0.000000
# 6 0.000000 0.000000 0.000000 -0.001499 0.000000 0.042824
#
#
# Mechanical properties :
#
#
# Convention : Reuss Voigt Hill
#
# Bulk Modulus (GPa) = 23.41034 23.49786 23.45410
# Shear Modulus (GPa) = 25.97605 26.24448 26.11027
#
# Velocity S-wave (km/s) = 3.44082 3.45855 3.44970
# Velocity P-wave (km/s) = 5.14349 5.16319 5.15335
#
# Compressibility (1/GPa) = 0.04271617
#
# Stress axis : x y z
#
# Youngs Moduli (GPa) = 53.17828 53.17828 64.77122
#
# Poissons Ratio (x) = 0.13866 0.08286
# Poissons Ratio (y) = 0.13866 0.08286
# Poissons Ratio (z) = 0.06803 0.06803
#
# Static dielectric constant tensor:
#      x y z
#    x 1.807380 0.000000 0.000000 
#    y 0.000000 1.807380 0.000000 
#    z 0.000000 0.000000 1.795650 
# 
# From -- ./inp_files/2615.got.cif
#   From: 2010.05.17/outbox.cif.g08.bks.cpg/sg163_2_cif.got.tgz:2615.got - 2010.05.20 10:56:03.
