data_PCOD9578205
_publ_section_title
;
Structure prediction by ZEFSAII (Michael W. Deem and Ramdas Pophale) SiO2 
 PCOD9578205
Probable space group: P -3 1 C
;
_chemical_formula_sum "Si O2"
_cell_formula_units_Z 58
_cell_length_a 14.516802
_cell_length_b 14.516802
_cell_length_c 14.113215
_cell_angle_alpha 90.000000
_cell_angle_beta 90.000000
_cell_angle_gamma 120.000000
_cell_volume 2575.719086
_symmetry_space_group_name_H-M "P -3 1 C"
_symmetry_group_IT_number 163
_symmetry_cell_setting 'hexagonal'
loop_
_space_group_symop_operation_xyz
x,y,z
-y,x-y,z
-x+y,-x,z
-y,-x,1/2-z
-x+y,y,1/2-z
x,x-y,1/2-z
-x,-y,-z
y,-x+y,-z
x-y,x,-z
y,x,1/2+z
x-y,-y,1/2+z
-x,-x+y,1/2+z
loop_
_atom_site_type_symbol
_atom_site_label
_atom_site_fract_x
_atom_site_fract_y
_atom_site_fract_z
Si Si1 0.166959 0.979139 0.938945
Si Si2 0.671524 0.729877 0.707475
Si Si3 0.506307 0.636815 0.547746
Si Si4 0.392986 0.006403 0.389625
Si Si5 0.178785 0.089393 0.750000
Si Si6 0.333335 0.666668 0.864523
O O1 0.267653 0.964916 0.919634
O O2 0.129508 0.010065 0.840390
O O3 0.196432 0.073662 0.011990
O O4 0.666454 0.833227 0.750000
O O5 0.614412 0.689625 0.607803
O O6 0.607868 0.630043 0.777973
O O7 0.792839 0.755335 0.705464
O O8 0.537062 0.645456 0.437492
O O9 0.432963 0.511685 0.571816
O O10 0.444720 0.692004 0.591143
O O11 0.333334 0.666667 0.750000
#
# Coordination Sequence:
#
# PCOD9578205 Si02
#       6
#    12  12  12  12   6   4
#     4  11  25  42  65  95 136 185 229 286 341 416
#     4  11  23  45  69  98 137 179 229 294 340 413
#     4  11  23  42  70 102 142 177 230 291 348 423
#     4  10  24  40  65 102 133 184 218 279 362 411
#     4  10  26  40  64 102 132 184 226 276 348 412
#     4  12  24  39  72 114 133 176 238 306 354 405
#
# _framework density 22.517984999999999
#
# number of rings (size 3 to 8) (size 9 to 14) (size 15 to 20)
#    0.000    1.241    0.000    5.172   14.483    0.000 
#    4.345    0.000    0.000    0.000    0.000    0.000 
#    0.000    0.000    0.000    0.000    0.000    0.000 
#
# Total GULP energy -323921.126209 kJ/mol
# GULP energy per Si atom -5584.847004 kJ/mol
# Density = 2.246673 g / cm^3
# Si number density = 22.517985 Si / 1000 Ang^3
#
#
#
# Elastic Constant Matrix: (Units=GPa)
#
#
# Indices 1 2 3 4 5 6 
#
# 1 97.3195 26.2078 22.7885 0.0003 -1.7184 0.0000
# 2 26.2078 97.3200 22.7886 0.0000 1.7185 0.0004
# 3 22.7885 22.7886 109.5529 0.0000 0.0000 0.0001
# 4 0.0003 0.0000 0.0000 41.8068 0.0001 1.7184
# 5 -1.7184 1.7185 0.0000 0.0001 41.8067 0.0000
# 6 0.0000 0.0004 0.0001 1.7184 0.0000 35.5561
#
#
#
# Elastic Compliance Matrix: (Units=1/GPa)
#
#
# Indices 1 2 3 4 5 6 
#
# 1 0.011429 -0.002661 -0.001824 0.000000 0.000579 0.000000
# 2 -0.002661 0.011429 -0.001824 0.000000 -0.000579 0.000000
# 3 -0.001824 -0.001824 0.009887 0.000000 0.000000 0.000000
# 4 0.000000 0.000000 0.000000 0.023967 0.000000 -0.001158
# 5 0.000579 -0.000579 0.000000 0.000000 0.023967 0.000000
# 6 0.000000 0.000000 0.000000 -0.001158 0.000000 0.028181
#
#
# Mechanical properties :
#
#
# Convention : Reuss Voigt Hill
#
# Bulk Modulus (GPa) = 49.68270 49.75135 49.71702
# Shear Modulus (GPa) = 39.00540 39.32775 39.16657
#
# Velocity S-wave (km/s) = 4.16647 4.18365 4.17507
# Velocity P-wave (km/s) = 6.72737 6.74383 6.73560
#
# Compressibility (1/GPa) = 0.02012773
#
# Stress axis : x y z
#
# Youngs Moduli (GPa) = 87.49400 87.49441 101.14477
#
# Poissons Ratio (x) = 0.23282 0.18448
# Poissons Ratio (y) = 0.23282 0.18448
# Poissons Ratio (z) = 0.15958 0.15958
#
# Static dielectric constant tensor:
#      x y z
#    x 1.856000 0.000000 0.000000 
#    y 0.000000 1.856000 0.000000 
#    z 0.000000 0.000000 1.890590 
# 
# From -- ./inp_files/2422.got.cif
#   From: 2010.05.17/outbox.cif.g08.bks.cpg/sg163_2_cif.got.tgz:2422.got - 2010.05.20 10:56:03.
