data_PCOD9578201
_publ_section_title
;
Structure prediction by ZEFSAII (Michael W. Deem and Ramdas Pophale) SiO2 
 PCOD9578201
Probable space group: P -3 1 C
;
_chemical_formula_sum "Si O2"
_cell_formula_units_Z 52
_cell_length_a 17.007005
_cell_length_b 17.007005
_cell_length_c 8.317535
_cell_angle_alpha 90.000000
_cell_angle_beta 90.000000
_cell_angle_gamma 120.000000
_cell_volume 2083.439758
_symmetry_space_group_name_H-M "P -3 1 C"
_symmetry_group_IT_number 163
_symmetry_cell_setting 'hexagonal'
loop_
_space_group_symop_operation_xyz
x,y,z
-y,x-y,z
-x+y,-x,z
-y,-x,1/2-z
-x+y,y,1/2-z
x,x-y,1/2-z
-x,-y,-z
y,-x+y,-z
x-y,x,-z
y,x,1/2+z
x-y,-y,1/2+z
-x,-x+y,1/2+z
loop_
_atom_site_type_symbol
_atom_site_label
_atom_site_fract_x
_atom_site_fract_y
_atom_site_fract_z
Si Si1 0.226341 0.872453 0.590830
Si Si2 0.333333 0.666666 0.060855
Si Si3 0.594104 0.587629 0.281205
Si Si4 0.678567 0.527208 0.561803
Si Si5 0.046921 0.177624 0.421289
O O1 0.162140 0.837861 0.750000
O O2 0.325476 0.926592 0.663313
O O3 0.198812 0.783078 0.489410
O O4 0.213468 0.940954 0.476032
O O5 0.333334 0.666667 0.250000
O O6 0.421911 0.653921 0.025364
O O7 0.504070 0.495931 0.250000
O O8 0.627463 0.564419 0.447476
O O9 0.559189 0.659441 0.236347
O O10 0.091099 0.182197 0.250000
O O11 0.100493 0.155445 0.556525
#
# Coordination Sequence:
#
# PCOD9578201 Si02
#       5
#    12   4  12  12  12
#     4  10  23  43  69 104 142 188 246 308 373 447
#     4  12  27  48  73 110 151 195 250 314 385 456
#     4  11  23  43  70 103 142 188 240 299 366 437
#     4  11  25  45  72 104 145 192 245 305 369 445
#     4  12  25  43  68 101 144 193 247 308 375 453
#
# _framework density 24.958722999999999
#
# number of rings (size 3 to 8) (size 9 to 14) (size 15 to 20)
#    0.000    0.923    0.000    6.462    0.000    8.308 
#    0.000    3.462    0.000    0.000    0.000    0.000 
#    0.000    0.000    0.000    0.000    0.000    0.000 
#
# Total GULP energy -290331.351076 kJ/mol
# GULP energy per Si atom -5583.295213 kJ/mol
# Density = 2.490192 g / cm^3
# Si number density = 24.958723 Si / 1000 Ang^3
#
#
#
# Elastic Constant Matrix: (Units=GPa)
#
#
# Indices 1 2 3 4 5 6 
#
# 1 223.0391 -66.6059 45.8968 -0.0182 -142.9638 -0.0008
# 2 -66.6059 223.0353 45.8967 0.0218 142.9609 0.0034
# 3 45.8968 45.8967 107.1474 0.0003 0.0000 0.0003
# 4 -0.0182 0.0218 0.0003 270.4658 0.0107 142.9500
# 5 -142.9638 142.9609 0.0000 0.0107 270.4872 -0.0093
# 6 -0.0008 0.0034 0.0003 142.9500 -0.0093 144.8150
#
#
#
# Elastic Compliance Matrix: (Units=1/GPa)
#
#
# Indices 1 2 3 4 5 6 
#
# 1 0.007879 0.000660 -0.003658 0.000000 0.003816 0.000000
# 2 0.000660 0.007879 -0.003658 0.000000 -0.003816 0.000000
# 3 -0.003658 -0.003658 0.012466 0.000000 0.000000 0.000000
# 4 0.000000 0.000000 0.000000 0.007731 0.000000 -0.007631
# 5 0.003816 -0.003816 0.000000 0.000000 0.007730 0.000001
# 6 0.000000 0.000000 0.000000 -0.007631 0.000001 0.014438
#
#
# Mechanical properties :
#
#
# Convention : Reuss Voigt Hill
#
# Bulk Modulus (GPa) = 67.05272 67.06635 67.05953
# Shear Modulus (GPa) = 65.44037 172.35588 118.89812
#
# Velocity S-wave (km/s) = 5.12605 8.31903 6.90951
# Velocity P-wave (km/s) = 7.87140 10.91807 9.51744
#
# Compressibility (1/GPa) = 0.01491364
#
# Stress axis : x y z
#
# Youngs Moduli (GPa) = 126.92018 126.91943 80.21528
#
# Poissons Ratio (x) = -0.08375 0.29340
# Poissons Ratio (y) = -0.08375 0.29340
# Poissons Ratio (z) = 0.46423 0.46423
#
# Static dielectric constant tensor:
#      x y z
#    x 2.035580 0.000000 0.000000 
#    y 0.000000 2.035580 0.000000 
#    z 0.000000 0.000000 2.058130 
# 
# From -- ./inp_files/958.got.cif
#   From: 2010.05.17/outbox.cif.g08.bks.cpg/sg163_1_cif.got.tgz:958.got - 2010.05.20 10:56:03.
