data_PCOD9578461
_publ_section_title
;
Structure prediction by ZEFSAII (Michael W. Deem and Ramdas Pophale) SiO2 
 PCOD9578461
Probable space group: P -3 M 1
;
_chemical_formula_sum "Si O2"
_cell_formula_units_Z 96
_cell_length_a 16.669508
_cell_length_b 16.669508
_cell_length_c 20.675787
_cell_angle_alpha 90.000000
_cell_angle_beta 90.000000
_cell_angle_gamma 120.000000
_cell_volume 4975.517348
_symmetry_space_group_name_H-M "P -3 M 1"
_symmetry_group_IT_number 164
_symmetry_cell_setting 'hexagonal'
loop_
_space_group_symop_operation_xyz
x,y,z
-y,x-y,z
-x+y,-x,z
x-y,-y,-z
-x,-x+y,-z
y,x,-z
-x,-y,-z
y,-x+y,-z
x-y,x,-z
-x+y,y,z
x,x-y,z
-y,-x,z
loop_
_atom_site_type_symbol
_atom_site_label
_atom_site_fract_x
_atom_site_fract_y
_atom_site_fract_z
Si Si1 0.736398 0.958944 0.151777
Si Si2 0.616952 0.662206 0.344660
Si Si3 0.333340 0.844784 0.614940
Si Si4 0.085993 0.734995 0.953869
Si Si5 0.714807 0.609999 0.518171
Si Si6 0.813451 0.999787 0.703445
Si Si7 0.618513 0.562474 0.794950
Si Si8 0.515484 0.848311 0.837904
O O1 0.755703 0.877852 0.132311
O O2 0.783075 0.996579 0.221614
O O3 0.769605 0.039333 0.099704
O O4 0.625454 0.916810 0.161957
O O5 0.628799 0.573146 0.353398
O O6 0.574731 0.676384 0.410193
O O7 0.720911 0.748754 0.336847
O O8 0.562995 0.650605 0.278315
O O9 0.405048 0.810096 0.627627
O O10 0.230914 0.769087 0.636639
O O11 0.328009 0.861713 0.538273
O O12 0.175312 0.824689 0.983740
O O13 0.123268 0.679707 0.910722
O O14 0.000000 0.670835 0.000000
O O15 0.685769 0.685769 0.500000
O O16 0.823764 0.647528 0.517512
O O17 0.919633 0.080368 0.695482
O O18 0.799442 0.899721 0.687683
O O19 0.540280 0.459721 0.815837
O O20 0.567843 0.624485 0.797693
O O21 0.407714 0.815427 0.836370
O O22 0.534774 0.767387 0.816019
#
# Coordination Sequence:
#
# PCOD9578461 Si02
#       8
#    12  12  12  12  12  12  12  12
#     4   9  18  32  50  70  94 127 163 200 243 287
#     4  10  19  31  49  70  95 124 156 191 233 286
#     4  10  20  33  49  69  93 120 150 187 231 278
#     4  10  19  31  49  72  99 131 166 202 241 286
#     4   9  19  34  51  70  93 123 159 197 237 283
#     4  10  19  31  48  70  96 125 158 196 236 279
#     4   9  18  31  48  71  96 123 158 198 239 287
#     4   9  18  32  50  73 100 130 162 197 239 285
#
# _framework density 19.294474999999998
#
# number of rings (size 3 to 8) (size 9 to 14) (size 15 to 20)
#    0.000    2.500    0.000    2.250    0.000    7.500 
#    0.000    0.000    0.000    4.875    0.000    0.875 
#    0.000    0.000    0.000    0.000    0.000    0.000 
#
# Total GULP energy -535233.575894 kJ/mol
# GULP energy per Si atom -5575.349749 kJ/mol
# Density = 1.925056 g / cm^3
# Si number density = 19.294475 Si / 1000 Ang^3
#
#
#
# Elastic Constant Matrix: (Units=GPa)
#
#
# Indices 1 2 3 4 5 6 
#
# 1 40.7493 0.6312 -12.8332 2.7924 0.0000 0.0000
# 2 0.6312 40.7493 -12.8332 -2.7924 0.0000 0.0000
# 3 -12.8332 -12.8332 41.5391 0.0000 0.0000 0.0000
# 4 2.7924 -2.7924 0.0000 8.3275 0.0000 0.0000
# 5 0.0000 0.0000 0.0000 0.0000 8.3275 2.7924
# 6 0.0000 0.0000 0.0000 0.0000 2.7924 20.0590
#
#
#
# Elastic Compliance Matrix: (Units=1/GPa)
#
#
# Indices 1 2 3 4 5 6 
#
# 1 0.028021 0.001874 0.009236 -0.008768 0.000000 0.000000
# 2 0.001874 0.028021 0.009236 0.008768 0.000000 0.000000
# 3 0.009236 0.009236 0.029780 0.000000 0.000000 0.000000
# 4 -0.008768 0.008768 0.000000 0.125964 0.000000 0.000000
# 5 0.000000 0.000000 0.000000 0.000000 0.125964 -0.017536
# 6 0.000000 0.000000 0.000000 0.000000 -0.017536 0.052294
#
#
# Mechanical properties :
#
#
# Convention : Reuss Voigt Hill
#
# Bulk Modulus (GPa) = 7.90439 8.10746 8.00592
# Shear Modulus (GPa) = 12.77061 17.21434 14.99247
#
# Velocity S-wave (km/s) = 2.57549 2.99020 2.79056
# Velocity P-wave (km/s) = 3.59858 4.01656 3.81330
#
# Compressibility (1/GPa) = 0.12651204
#
# Stress axis : x y z
#
# Youngs Moduli (GPa) = 35.68787 35.68787 33.57920
#
# Poissons Ratio (x) = -0.06687 -0.31013
# Poissons Ratio (y) = -0.06687 -0.31013
# Poissons Ratio (z) = -0.32960 -0.32960
#
# Static dielectric constant tensor:
#      x y z
#    x 1.667580 0.000000 0.000000 
#    y 0.000000 1.667580 0.000000 
#    z 0.000000 0.000000 1.703070 
# 
# From -- ./inp_files/4707.got.cif
#   From: 2010.05.17/outbox.cif.g08.bks.cpg/sg164_3_cif.got.tgz:4707.got - 2010.05.20 10:58:56.
