data_PCOD9578362
_publ_section_title
;
Structure prediction by ZEFSAII (Michael W. Deem and Ramdas Pophale) SiO2 
 PCOD9578362
Probable space group: P -3 M 1
;
_chemical_formula_sum "Si O2"
_cell_formula_units_Z 96
_cell_length_a 16.996312
_cell_length_b 16.996312
_cell_length_c 23.983661
_cell_angle_alpha 90.000000
_cell_angle_beta 90.000000
_cell_angle_gamma 120.000000
_cell_volume 6000.058687
_symmetry_space_group_name_H-M "P -3 M 1"
_symmetry_group_IT_number 164
_symmetry_cell_setting 'hexagonal'
loop_
_space_group_symop_operation_xyz
x,y,z
-y,x-y,z
-x+y,-x,z
x-y,-y,-z
-x,-x+y,-z
y,x,-z
-x,-y,-z
y,-x+y,-z
x-y,x,-z
-x+y,y,z
x,x-y,z
-y,-x,z
loop_
_atom_site_type_symbol
_atom_site_label
_atom_site_fract_x
_atom_site_fract_y
_atom_site_fract_z
Si Si1 0.332088 0.483904 0.188421
Si Si2 0.678781 0.930373 0.951061
Si Si3 0.744348 0.078262 0.238608
Si Si4 0.950431 0.568989 0.583527
Si Si5 0.432072 0.383563 0.144469
Si Si6 0.177181 0.175867 0.145118
Si Si7 0.097694 0.375519 0.302721
Si Si8 0.332633 0.477879 0.535152
O O1 0.236246 0.472491 0.170499
O O2 0.412458 0.587543 0.185382
O O3 0.364353 0.424626 0.152860
O O4 0.320555 0.448926 0.252406
O O5 0.666411 0.833206 0.969164
O O6 0.599808 0.917138 0.908410
O O7 0.769316 0.978695 0.912844
O O8 0.693103 0.000000 0.000000
O O9 0.826488 0.173513 0.257644
O O10 0.672043 0.090488 0.201570
O O11 0.782658 0.034495 0.193625
O O12 0.698659 0.004291 0.286283
O O13 0.949680 0.474840 0.591782
O O14 0.906673 0.587590 0.637008
O O15 0.892065 0.555411 0.527703
O O16 0.056654 0.643573 0.572842
O O17 0.532226 0.467775 0.138818
O O18 0.101892 0.203784 0.151745
O O19 0.135631 0.067816 0.147432
O O20 0.170923 0.341846 0.301950
O O21 0.237319 0.474638 0.545632
O O22 0.419131 0.580870 0.540386
#
# Coordination Sequence:
#
# PCOD9578362 Si02
#       8
#    12  12  12  12  12  12  12  12
#     4   9  17  28  44  67  94 122 150 182 221 265
#     4  10  20  32  48  69  92 118 148 184 226 272
#     4   9  18  31  47  67  91 119 151 187 226 265
#     4   9  18  30  44  65  93 121 150 187 231 277
#     4   9  18  32  49  68  89 117 153 188 223 266
#     4   9  16  27  43  64  90 118 147 179 218 265
#     4  10  18  28  45  68  93 122 154 185 220 268
#     4   9  17  30  47  66  88 117 153 192 234 278
#
# _framework density 15.999843
#
# number of rings (size 3 to 8) (size 9 to 14) (size 15 to 20)
#    0.000    2.750    0.000    3.750    0.000    4.750 
#    0.000    0.000    0.000    8.250    0.000    1.750 
#    0.000    0.000    0.000    6.375    0.000    0.000 
#
# Total GULP energy -534711.381438 kJ/mol
# GULP energy per Si atom -5569.910223 kJ/mol
# Density = 1.596343 g / cm^3
# Si number density = 15.999843 Si / 1000 Ang^3
#
#
#
# Elastic Constant Matrix: (Units=GPa)
#
#
# Indices 1 2 3 4 5 6 
#
# 1 60.1391 26.2645 3.7481 -5.1047 0.0000 0.0000
# 2 26.2645 60.1391 3.7481 5.1047 0.0000 0.0000
# 3 3.7481 3.7481 40.2048 0.0000 0.0000 0.0000
# 4 -5.1047 5.1047 0.0000 13.9089 0.0000 0.0000
# 5 0.0000 0.0000 0.0000 0.0000 13.9089 -5.1047
# 6 0.0000 0.0000 0.0000 0.0000 -5.1047 16.9373
#
#
#
# Elastic Compliance Matrix: (Units=1/GPa)
#
#
# Indices 1 2 3 4 5 6 
#
# 1 0.022430 -0.010762 -0.001088 0.012182 0.000000 0.000000
# 2 -0.010762 0.022430 -0.001088 -0.012182 0.000000 0.000000
# 3 -0.001088 -0.001088 0.025075 0.000000 0.000000 0.000000
# 4 0.012182 -0.012182 0.000000 0.080838 0.000000 0.000000
# 5 0.000000 0.000000 0.000000 0.000000 0.080838 0.024364
# 6 0.000000 0.000000 0.000000 0.000000 0.024364 0.066384
#
#
# Mechanical properties :
#
#
# Convention : Reuss Voigt Hill
#
# Bulk Modulus (GPa) = 22.69614 25.33383 24.01499
# Shear Modulus (GPa) = 14.76852 17.39918 16.08385
#
# Velocity S-wave (km/s) = 3.04146 3.30124 3.17401
# Velocity P-wave (km/s) = 5.15267 5.51354 5.33615
#
# Compressibility (1/GPa) = 0.04406035
#
# Stress axis : x y z
#
# Youngs Moduli (GPa) = 44.58302 44.58302 39.87966
#
# Poissons Ratio (x) = 0.47981 0.04338
# Poissons Ratio (y) = 0.47981 0.04338
# Poissons Ratio (z) = 0.04850 0.04850
#
# Static dielectric constant tensor:
#      x y z
#    x 1.538490 0.000000 0.000000 
#    y 0.000000 1.538490 0.000000 
#    z 0.000000 0.000000 1.527250 
# 
# From -- ./inp_files/4787.got.cif
#   From: 2010.05.17/outbox.cif.g08.bks.cpg/sg164_3_cif.got.tgz:4787.got - 2010.05.20 10:58:56.
