data_PCOD9578270
_publ_section_title
;
Structure prediction by ZEFSAII (Michael W. Deem and Ramdas Pophale) SiO2 
 PCOD9578270
Probable space group: P -3 1 C
;
_chemical_formula_sum "Si O2"
_cell_formula_units_Z 40
_cell_length_a 18.151671
_cell_length_b 18.151671
_cell_length_c 7.902576
_cell_angle_alpha 90.000000
_cell_angle_beta 90.000000
_cell_angle_gamma 120.000000
_cell_volume 2254.927253
_symmetry_space_group_name_H-M "P -3 1 C"
_symmetry_group_IT_number 163
_symmetry_cell_setting 'hexagonal'
loop_
_space_group_symop_operation_xyz
x,y,z
-y,x-y,z
-x+y,-x,z
-y,-x,1/2-z
-x+y,y,1/2-z
x,x-y,1/2-z
-x,-y,-z
y,-x+y,-z
x-y,x,-z
y,x,1/2+z
x-y,-y,1/2+z
-x,-x+y,1/2+z
loop_
_atom_site_type_symbol
_atom_site_label
_atom_site_fract_x
_atom_site_fract_y
_atom_site_fract_z
Si Si1 0.708484 0.516782 0.045521
Si Si2 0.946001 0.557637 0.746036
Si Si3 0.666667 0.333333 0.549201
Si Si4 0.573906 0.687793 0.887378
O O1 0.808277 0.589946 0.062175
O O2 0.667356 0.511414 0.227626
O O3 0.657967 0.531434 0.895726
O O4 0.706528 0.429481 0.010048
O O5 0.978327 0.489164 0.750000
O O6 0.020442 0.652524 0.696089
O O7 0.909136 0.550081 0.933198
O O8 0.666668 0.333334 0.750000
#
# Coordination Sequence:
#
# PCOD9578270 Si02
#       4
#    12  12   4  12
#     4  11  25  40  57  83 111 146 196 245 298 340
#     4  12  23  38  58  79 112 148 196 236 295 356
#     4  12  24  40  59  79 115 146 190 256 305 337
#     4  11  24  37  57  80 106 147 188 242 285 348
#
# _framework density 17.738932999999999
#
# number of rings (size 3 to 8) (size 9 to 14) (size 15 to 20)
#    0.000    0.600    3.000    6.300    4.200    6.000 
#    0.000    0.000    0.000    0.000    0.000    0.000 
#    0.000    0.000    0.000    0.900   18.600   10.200 
#
# Total GULP energy -222694.748926 kJ/mol
# GULP energy per Si atom -5567.368723 kJ/mol
# Density = 1.769856 g / cm^3
# Si number density = 17.738933 Si / 1000 Ang^3
#
#
#
# Elastic Constant Matrix: (Units=GPa)
#
#
# Indices 1 2 3 4 5 6 
#
# 1 55.2272 33.0483 27.8666 0.0000 -1.8174 -0.0004
# 2 33.0483 55.2264 27.8671 0.0001 1.8178 0.0000
# 3 27.8666 27.8671 175.9831 0.0000 -0.0005 0.0000
# 4 0.0000 0.0001 0.0000 15.8201 -0.0004 1.8175
# 5 -1.8174 1.8178 -0.0005 -0.0004 15.8199 -0.0002
# 6 -0.0004 0.0000 0.0000 1.8175 -0.0002 11.0893
#
#
#
# Elastic Compliance Matrix: (Units=1/GPa)
#
#
# Indices 1 2 3 4 5 6 
#
# 1 0.029270 -0.016684 -0.001993 0.000000 0.005279 0.000001
# 2 -0.016684 0.029271 -0.001993 0.000000 -0.005280 -0.000001
# 3 -0.001993 -0.001993 0.006314 0.000000 0.000000 0.000000
# 4 0.000000 0.000000 0.000000 0.064424 0.000002 -0.010559
# 5 0.005279 -0.005280 0.000000 0.000002 0.064425 0.000001
# 6 0.000001 -0.000001 0.000000 -0.010559 0.000001 0.091908
#
#
# Mechanical properties :
#
#
# Convention : Reuss Voigt Hill
#
# Bulk Modulus (GPa) = 42.52712 51.55563 47.04138
# Shear Modulus (GPa) = 14.93480 21.72283 18.32882
#
# Velocity S-wave (km/s) = 2.90474 3.50320 3.21791
# Velocity P-wave (km/s) = 5.93935 6.74462 6.35475
#
# Compressibility (1/GPa) = 0.02351441
#
# Stress axis : x y z
#
# Youngs Moduli (GPa) = 34.16458 34.16391 158.38899
#
# Poissons Ratio (x) = 0.56998 0.31566
# Poissons Ratio (y) = 0.56999 0.31570
# Poissons Ratio (z) = 0.06809 0.06810
#
# Static dielectric constant tensor:
#      x y z
#    x 1.648790 0.000000 0.000000 
#    y 0.000000 1.648790 0.000000 
#    z 0.000000 0.000000 1.626940 
# 
# From -- ./inp_files/790.got.cif
#   From: 2010.05.17/outbox.cif.g08.bks.cpg/sg163_1_cif.got.tgz:790.got - 2010.05.20 10:56:03.
