data_PCOD9578409
_publ_section_title
;
Structure prediction by ZEFSAII (Michael W. Deem and Ramdas Pophale) SiO2 
 PCOD9578409
Probable space group: P -3 M 1
;
_chemical_formula_sum "Si O2"
_cell_formula_units_Z 52
_cell_length_a 24.288734
_cell_length_b 24.288734
_cell_length_c 8.808206
_cell_angle_alpha 90.000000
_cell_angle_beta 90.000000
_cell_angle_gamma 120.000000
_cell_volume 4500.158933
_symmetry_space_group_name_H-M "P -3 M 1"
_symmetry_group_IT_number 164
_symmetry_cell_setting 'hexagonal'
loop_
_space_group_symop_operation_xyz
x,y,z
-y,x-y,z
-x+y,-x,z
x-y,-y,-z
-x,-x+y,-z
y,x,-z
-x,-y,-z
y,-x+y,-z
x-y,x,-z
-x+y,y,z
x,x-y,z
-y,-x,z
loop_
_atom_site_type_symbol
_atom_site_label
_atom_site_fract_x
_atom_site_fract_y
_atom_site_fract_z
Si Si1 0.865663 0.497681 0.818212
Si Si2 0.632018 0.134337 0.181792
Si Si3 0.739997 0.260003 0.317402
Si Si4 0.479995 0.739998 0.317395
Si Si5 0.666667 0.333333 0.316234
Si Si6 0.333334 0.666668 0.316222
Si Si7 0.566702 0.000000 0.325623
O O1 0.855690 0.427845 0.773675
O O2 0.810527 0.507331 0.746778
O O3 0.935028 0.549743 0.758587
O O4 0.863597 0.499112 0.000002
O O5 0.572156 0.144311 0.226328
O O6 0.696803 0.189474 0.253227
O O7 0.614715 0.064972 0.241415
O O8 0.741461 0.258539 0.500004
O O9 0.703008 0.296993 0.266952
O O10 0.406015 0.703008 0.266942
O O11 0.666667 0.333334 0.500006
O O12 0.500000 0.000000 0.326671
O O13 0.585544 0.000000 0.500000
#
# Coordination Sequence:
#
# PCOD9578409 Si02
#       7
#    12  12   6   6   2   2  12
#     4  10  19  29  40  55  73  92 114 144 179 215
#     4  10  19  29  40  55  73  92 114 144 179 215
#     4  11  19  29  41  55  72  94 119 145 177 219
#     4  11  19  29  41  55  72  94 119 145 177 219
#     4   9  18  27  37  50  70  93 115 143 178 216
#     4   9  18  27  37  50  70  93 115 143 178 216
#     4   9  17  29  43  55  67  89 117 143 171 210
#
# _framework density 11.555148000000001
#
# number of rings (size 3 to 8) (size 9 to 14) (size 15 to 20)
#    0.000    2.077    2.308    2.769    0.000    4.615 
#    0.000    0.000    0.000    0.000    0.000    0.000 
#    0.000    0.000    0.000    0.000    0.000    0.000 
#
# Total GULP energy -289910.448528 kJ/mol
# GULP energy per Si atom -5575.200933 kJ/mol
# Density = 1.152885 g / cm^3
# Si number density = 11.555148 Si / 1000 Ang^3
#
#
#
# Elastic Constant Matrix: (Units=GPa)
#
#
# Indices 1 2 3 4 5 6 
#
# 1 74.9725 41.0305 33.2667 0.0000 0.0000 0.0000
# 2 41.0305 74.9723 33.2667 -0.0001 0.0000 0.0000
# 3 33.2667 33.2667 59.0020 -0.0001 0.0000 0.0000
# 4 0.0000 -0.0001 -0.0001 17.9048 0.0000 0.0000
# 5 0.0000 0.0000 0.0000 0.0000 17.9048 0.0000
# 6 0.0000 0.0000 0.0000 0.0000 0.0000 16.9709
#
#
#
# Elastic Compliance Matrix: (Units=1/GPa)
#
#
# Indices 1 2 3 4 5 6 
#
# 1 0.021101 -0.008361 -0.007183 0.000000 0.000000 0.000000
# 2 -0.008361 0.021101 -0.007183 0.000000 0.000000 0.000000
# 3 -0.007183 -0.007183 0.025049 0.000000 0.000000 0.000000
# 4 0.000000 0.000000 0.000000 0.055851 0.000000 0.000000
# 5 0.000000 0.000000 0.000000 0.000000 0.055851 0.000000
# 6 0.000000 0.000000 0.000000 0.000000 0.000000 0.058924
#
#
# Mechanical properties :
#
#
# Convention : Reuss Voigt Hill
#
# Bulk Modulus (GPa) = 45.87924 47.11939 46.49932
# Shear Modulus (GPa) = 17.20589 17.31498 17.26043
#
# Velocity S-wave (km/s) = 3.86297 3.87520 3.86909
# Velocity P-wave (km/s) = 7.72577 7.80316 7.76456
#
# Compressibility (1/GPa) = 0.02179635
#
# Stress axis : x y z
#
# Youngs Moduli (GPa) = 47.39051 47.39034 39.92189
#
# Poissons Ratio (x) = 0.39622 0.28677
# Poissons Ratio (y) = 0.39622 0.28678
# Poissons Ratio (z) = 0.34042 0.34042
#
# Static dielectric constant tensor:
#      x y z
#    x 1.361570 0.000000 0.000000 
#    y 0.000000 1.361570 0.000000 
#    z 0.000000 0.000000 1.384660 
# 
# From -- ./inp_files/1600.got.cif
#   From: 2010.05.17/outbox.cif.g08.bks.cpg/sg164_1_cif.got.tgz:1600.got - 2010.05.20 10:58:56.
