data_PCOD9578921
_publ_section_title
;
Structure prediction by ZEFSAII (Michael W. Deem and Ramdas Pophale) SiO2 
 PCOD9578921
Probable space group: P -3 C 1
;
_chemical_formula_sum "Si O2"
_cell_formula_units_Z 74
_cell_length_a 17.243676
_cell_length_b 17.243676
_cell_length_c 14.366595
_cell_angle_alpha 90.000000
_cell_angle_beta 90.000000
_cell_angle_gamma 120.000000
_cell_volume 3699.509858
_symmetry_space_group_name_H-M "P -3 C 1"
_symmetry_group_IT_number 165
_symmetry_cell_setting 'hexagonal'
loop_
_space_group_symop_operation_xyz
x,y,z
-y,x-y,z
-x+y,-x,z
x-y,-y,1/2-z
-x,-x+y,1/2-z
y,x,1/2-z
-x,-y,-z
y,-x+y,-z
x-y,x,-z
-x+y,y,1/2+z
x,x-y,1/2+z
-y,-x,1/2+z
loop_
_atom_site_type_symbol
_atom_site_label
_atom_site_fract_x
_atom_site_fract_y
_atom_site_fract_z
Si Si1 0.639114 0.000000 0.250000
Si Si2 0.333334 0.666668 0.186257
Si Si3 0.616281 0.928201 0.625975
Si Si4 0.559325 0.136526 0.069413
Si Si5 0.409041 0.874352 0.633346
Si Si6 0.666667 0.333334 0.090817
Si Si7 0.387684 0.285297 0.084255
Si Si8 0.592071 0.723342 0.320675
O O1 0.545057 0.921132 0.207369
O O2 0.673662 0.966590 0.336858
O O3 0.403598 0.768103 0.154087
O O4 0.333334 0.666667 0.298170
O O5 0.517447 0.918893 0.630579
O O6 0.634666 0.904490 0.524196
O O7 0.609187 0.864838 0.711456
O O8 0.690843 0.030182 0.647419
O O9 0.640446 0.236770 0.054424
O O10 0.612671 0.085047 0.086440
O O11 0.503120 0.138503 0.156434
O O12 0.502354 0.112810 0.974869
O O13 0.407256 0.209635 0.122305
#
# Coordination Sequence:
#
# PCOD9578921 Si02
#       8
#     6   4  12  12  12   4  12  12
#     4  12  24  40  56  84 116 152 200 262 306 348
#     4  12  25  35  61  87 115 164 212 251 286 361
#     4  10  23  40  56  83 113 155 197 249 301 353
#     4  11  21  35  55  82 109 148 197 255 292 352
#     4  11  24  38  57  84 117 153 207 254 306 343
#     4  12  19  32  46  81 112 140 200 254 292 325
#     4  11  24  38  59  84 113 155 200 247 306 352
#     4  11  22  39  60  79 116 156 199 243 304 365
#
# _framework density 20.002651
#
# number of rings (size 3 to 8) (size 9 to 14) (size 15 to 20)
#    0.000    0.973    1.622    6.811    4.541    3.892 
#    0.000    0.000    0.000    0.000    0.000    0.000 
#    0.000    0.000    0.000   30.649    0.000    0.000 
#
# Total GULP energy -413442.134142 kJ/mol
# GULP energy per Si atom -5587.055867 kJ/mol
# Density = 1.995712 g / cm^3
# Si number density = 20.002651 Si / 1000 Ang^3
#
#
#
# Elastic Constant Matrix: (Units=GPa)
#
#
# Indices 1 2 3 4 5 6 
#
# 1 58.6469 20.9817 29.7593 0.6500 0.0000 0.0000
# 2 20.9817 58.6474 29.7591 -0.6502 0.0000 0.0000
# 3 29.7593 29.7591 189.4489 0.0001 0.0000 0.0000
# 4 0.6500 -0.6502 0.0001 25.6566 0.0000 0.0000
# 5 0.0000 0.0000 0.0000 0.0000 25.6565 0.6501
# 6 0.0000 0.0000 0.0000 0.0000 0.6501 18.8328
#
#
#
# Elastic Compliance Matrix: (Units=1/GPa)
#
#
# Indices 1 2 3 4 5 6 
#
# 1 0.020401 -0.006172 -0.002235 -0.000673 0.000000 0.000000
# 2 -0.006172 0.020401 -0.002235 0.000673 0.000000 0.000000
# 3 -0.002235 -0.002235 0.005981 0.000000 0.000000 0.000000
# 4 -0.000673 0.000673 0.000000 0.039010 0.000000 0.000000
# 5 0.000000 0.000000 0.000000 0.000000 0.039011 -0.001347
# 6 0.000000 0.000000 0.000000 0.000000 -0.001347 0.053145
#
#
# Mechanical properties :
#
#
# Convention : Reuss Voigt Hill
#
# Bulk Modulus (GPa) = 39.21879 51.97148 45.59514
# Shear Modulus (GPa) = 24.06943 29.11205 26.59074
#
# Velocity S-wave (km/s) = 3.47264 3.81912 3.65000
# Velocity P-wave (km/s) = 5.97732 6.74435 6.37239
#
# Compressibility (1/GPa) = 0.02549798
#
# Stress axis : x y z
#
# Youngs Moduli (GPa) = 49.01736 49.01779 167.20545
#
# Poissons Ratio (x) = 0.30254 0.37373
# Poissons Ratio (y) = 0.30253 0.37372
# Poissons Ratio (z) = 0.10956 0.10956
#
# Static dielectric constant tensor:
#      x y z
#    x 1.721190 0.000000 0.000000 
#    y 0.000000 1.721190 0.000000 
#    z 0.000000 0.000000 1.822870 
# 
# From -- ./inp_files/1860.got.cif
#   From: 2010.05.17/outbox.cif.g08.bks.cpg/sg165_1_cif.got.tgz:1860.got - 2010.05.20 11:02:39.
