data_PCOD9578518
_publ_section_title
;
Structure prediction by ZEFSAII (Michael W. Deem and Ramdas Pophale) SiO2 
 PCOD9578518
Probable space group: P -3 M 1
;
_chemical_formula_sum "Si O2"
_cell_formula_units_Z 84
_cell_length_a 17.917235
_cell_length_b 17.917235
_cell_length_c 15.428827
_cell_angle_alpha 90.000000
_cell_angle_beta 90.000000
_cell_angle_gamma 120.000000
_cell_volume 4289.488629
_symmetry_space_group_name_H-M "P -3 M 1"
_symmetry_group_IT_number 164
_symmetry_cell_setting 'hexagonal'
loop_
_space_group_symop_operation_xyz
x,y,z
-y,x-y,z
-x+y,-x,z
x-y,-y,-z
-x,-x+y,-z
y,x,-z
-x,-y,-z
y,-x+y,-z
x-y,x,-z
-x+y,y,z
x,x-y,z
-y,-x,z
loop_
_atom_site_type_symbol
_atom_site_label
_atom_site_fract_x
_atom_site_fract_y
_atom_site_fract_z
Si Si1 0.097571 0.636358 0.470522
Si Si2 0.024331 0.599044 0.797807
Si Si3 0.831911 0.999696 0.647146
Si Si4 0.264851 0.907320 0.309935
Si Si5 0.000567 0.157949 0.145662
Si Si6 0.260081 0.342625 0.935243
Si Si7 0.669559 0.500066 0.342947
O O1 0.101916 0.550958 0.448853
O O2 0.121328 0.694919 0.386609
O O3 0.152757 0.677095 0.556481
O O4 0.000000 0.603537 0.500000
O O5 0.002080 0.501040 0.816376
O O6 0.080004 0.665451 0.874075
O O7 0.082205 0.628617 0.711061
O O8 0.945503 0.613501 0.769448
O O9 0.920252 0.079748 0.610122
O O10 0.756209 0.022873 0.645324
O O11 0.846304 0.000822 0.750692
O O12 0.814145 0.907073 0.614369
O O13 0.172692 0.827309 0.282434
O O14 0.096840 0.193680 0.112178
O O15 0.955692 0.211325 0.120679
O O16 0.938517 0.061484 0.113039
O O17 0.180555 0.361110 0.961123
O O18 0.313464 0.313464 0.000000
O O19 0.761406 0.522811 0.306734
O O20 0.601267 0.398734 0.336219
#
# Coordination Sequence:
#
# PCOD9578518 Si02
#       7
#    12  12  12  12  12  12  12
#     4  10  19  35  55  80 115 153 193 241 298 355
#     4  11  23  40  62  86 115 152 192 239 294 352
#     4   9  17  29  48  75 111 151 190 229 271 321
#     4  11  21  34  55  84 116 152 197 245 289 337
#     4   9  16  28  47  76 112 148 181 216 263 319
#     4  11  23  38  60  89 121 152 188 232 281 341
#     4  10  20  35  59  87 117 149 186 234 290 352
#
# _framework density 19.582754000000001
#
# number of rings (size 3 to 8) (size 9 to 14) (size 15 to 20)
#    0.000    1.857    2.857    2.143    0.000    2.571 
#    0.000    0.000    0.000    5.714    0.000    1.000 
#    0.000    2.857    0.000    0.000    0.000    0.000 
#
# Total GULP energy -467834.221768 kJ/mol
# GULP energy per Si atom -5569.455021 kJ/mol
# Density = 1.953818 g / cm^3
# Si number density = 19.582754 Si / 1000 Ang^3
#
#
#
# Elastic Constant Matrix: (Units=GPa)
#
#
# Indices 1 2 3 4 5 6 
#
# 1 86.9772 37.9223 8.0769 12.3693 0.0000 0.0000
# 2 37.9223 86.9772 8.0769 -12.3693 0.0000 0.0000
# 3 8.0769 8.0769 34.6994 0.0000 0.0000 0.0000
# 4 12.3693 -12.3693 0.0000 3.6903 0.0000 0.0000
# 5 0.0000 0.0000 0.0000 0.0000 3.6903 12.3693
# 6 0.0000 0.0000 0.0000 0.0000 12.3693 24.5274
#
#
#
# Elastic Compliance Matrix: (Units=1/GPa)
#
#
# Indices 1 2 3 4 5 6 
#
# 1 -0.010636 0.018891 -0.001921 0.098974 0.000000 0.000000
# 2 0.018891 -0.010636 -0.001921 -0.098974 0.000000 0.000000
# 3 -0.001921 -0.001921 0.029713 0.000000 0.000000 0.000000
# 4 0.098974 -0.098974 0.000000 -0.392516 0.000000 0.000000
# 5 0.000000 0.000000 0.000000 0.000000 -0.392516 0.197948
# 6 0.000000 0.000000 0.000000 0.000000 0.197948 -0.059056
#
#
# Mechanical properties :
#
#
# Convention : Reuss Voigt Hill
#
# Bulk Modulus (GPa) = 25.94882 35.20067 30.57475
# Shear Modulus (GPa) = -5.86237 16.68677 5.41220
#
# Velocity S-wave (km/s) = -1.73209 2.92227 1.66426
# Velocity P-wave (km/s) = 3.04622 5.42223 4.39773
#
# Compressibility (1/GPa) = 0.03853740
#
# Stress axis : x y z
#
# Youngs Moduli (GPa) = -94.01610 -94.01610 33.65481
#
# Poissons Ratio (x) = 1.77610 0.06467
# Poissons Ratio (y) = 1.77610 0.06467
# Poissons Ratio (z) = -0.18065 -0.18065
#
# Static dielectric constant tensor:
#      x y z
#    x 1.742280 0.000000 0.000000 
#    y 0.000000 1.742280 0.000000 
#    z 0.000000 0.000000 1.701130 
# 
# From -- ./inp_files/3572.got.cif
#   From: 2010.05.17/outbox.cif.g08.bks.cpg/sg164_2_cif.got.tgz:3572.got - 2010.05.20 10:58:56.
