data_PCOD9578162
_publ_section_title
;
Structure prediction by ZEFSAII (Michael W. Deem and Ramdas Pophale) SiO2 
 PCOD9578162
Probable space group: P -3 1 C
;
_chemical_formula_sum "Si O2"
_cell_formula_units_Z 52
_cell_length_a 11.329904
_cell_length_b 11.329904
_cell_length_c 21.856847
_cell_angle_alpha 90.000000
_cell_angle_beta 90.000000
_cell_angle_gamma 120.000000
_cell_volume 2429.800426
_symmetry_space_group_name_H-M "P -3 1 C"
_symmetry_group_IT_number 163
_symmetry_cell_setting 'hexagonal'
loop_
_space_group_symop_operation_xyz
x,y,z
-y,x-y,z
-x+y,-x,z
-y,-x,1/2-z
-x+y,y,1/2-z
x,x-y,1/2-z
-x,-y,-z
y,-x+y,-z
x-y,x,-z
y,x,1/2+z
x-y,-y,1/2+z
-x,-x+y,1/2+z
loop_
_atom_site_type_symbol
_atom_site_label
_atom_site_fract_x
_atom_site_fract_y
_atom_site_fract_z
Si Si1 0.666668 0.333335 0.678670
Si Si2 0.864379 0.678252 0.999679
Si Si3 0.714127 0.596931 0.367782
Si Si4 0.384687 0.199639 0.636941
Si Si5 0.553313 0.612925 0.688938
O O1 0.666668 0.333334 0.750000
O O2 0.529753 0.323496 0.656170
O O3 0.836602 0.597110 0.062710
O O4 0.782547 0.758402 0.002796
O O5 0.828061 0.604342 0.934383
O O6 0.718520 0.741677 0.356137
O O7 0.559215 0.476998 0.361691
O O8 0.810003 0.573830 0.320689
O O9 0.367741 0.071320 0.676628
O O10 0.474658 0.525343 0.750000
#
# Coordination Sequence:
#
# PCOD9578162 Si02
#       5
#     4  12  12  12  12
#     4  12  24  45  66  99 135 189 241 317 358 444
#     4  10  21  41  67 104 148 191 243 307 369 443
#     4  11  25  43  71 107 140 195 247 301 373 441
#     4  11  24  42  72 103 141 190 251 302 370 442
#     4  12  25  46  69 104 150 194 244 306 372 439
#
# _framework density 21.400932999999998
#
# number of rings (size 3 to 8) (size 9 to 14) (size 15 to 20)
#    0.000    0.923    4.615    2.077    0.000    2.769 
#    1.385    0.000    0.000    0.000    0.000    0.000 
#    0.000    0.000    0.000    0.000    0.000    0.000 
#
# Total GULP energy -290164.776151 kJ/mol
# GULP energy per Si atom -5580.091849 kJ/mol
# Density = 2.135222 g / cm^3
# Si number density = 21.400933 Si / 1000 Ang^3
#
#
#
# Elastic Constant Matrix: (Units=GPa)
#
#
# Indices 1 2 3 4 5 6 
#
# 1 150.5632 -6.8286 51.1965 -0.0023 2.7075 0.0067
# 2 -6.8286 150.5637 51.1932 0.0019 -2.7077 -0.0053
# 3 51.1965 51.1932 161.7481 0.0006 0.0003 -0.0024
# 4 -0.0023 0.0019 0.0006 44.0655 -0.0005 -2.7052
# 5 2.7075 -2.7077 0.0003 -0.0005 44.0661 0.0021
# 6 0.0067 -0.0053 -0.0024 -2.7052 0.0021 78.6885
#
#
#
# Elastic Compliance Matrix: (Units=1/GPa)
#
#
# Indices 1 2 3 4 5 6 
#
# 1 0.007675 0.001308 -0.002843 0.000000 -0.000391 -0.000001
# 2 0.001308 0.007675 -0.002843 0.000000 0.000391 0.000000
# 3 -0.002843 -0.002843 0.007982 0.000000 0.000000 0.000000
# 4 0.000000 0.000000 0.000000 0.022742 0.000000 0.000782
# 5 -0.000391 0.000391 0.000000 0.000000 0.022741 -0.000001
# 6 -0.000001 0.000000 0.000000 0.000782 -0.000001 0.012735
#
#
# Mechanical properties :
#
#
# Convention : Reuss Voigt Hill
#
# Bulk Modulus (GPa) = 68.61079 72.66637 70.63858
# Shear Modulus (GPa) = 52.54048 57.85160 55.19604
#
# Velocity S-wave (km/s) = 4.96023 5.20490 5.08403
# Velocity P-wave (km/s) = 8.05819 8.37555 8.21840
#
# Compressibility (1/GPa) = 0.01457497
#
# Stress axis : x y z
#
# Youngs Moduli (GPa) = 130.29596 130.29844 125.27943
#
# Poissons Ratio (x) = -0.17040 0.35619
# Poissons Ratio (y) = -0.17039 0.35616
# Poissons Ratio (z) = 0.37045 0.37043
#
# Static dielectric constant tensor:
#      x y z
#    x 1.779120 0.000000 0.000000 
#    y 0.000000 1.779120 0.000000 
#    z 0.000000 0.000000 1.832200 
# 
# From -- ./inp_files/3489.got.cif
#   From: 2010.05.17/outbox.cif.g08.bks.cpg/sg163_2_cif.got.tgz:3489.got - 2010.05.20 10:56:03.
