data_PCOD9578253
_publ_section_title
;
Structure prediction by ZEFSAII (Michael W. Deem and Ramdas Pophale) SiO2 
 PCOD9578253
Probable space group: P -3 1 C
;
_chemical_formula_sum "Si O2"
_cell_formula_units_Z 52
_cell_length_a 11.883278
_cell_length_b 11.883278
_cell_length_c 19.684850
_cell_angle_alpha 90.000000
_cell_angle_beta 90.000000
_cell_angle_gamma 120.000000
_cell_volume 2407.327937
_symmetry_space_group_name_H-M "P -3 1 C"
_symmetry_group_IT_number 163
_symmetry_cell_setting 'hexagonal'
loop_
_space_group_symop_operation_xyz
x,y,z
-y,x-y,z
-x+y,-x,z
-y,-x,1/2-z
-x+y,y,1/2-z
x,x-y,1/2-z
-x,-y,-z
y,-x+y,-z
x-y,x,-z
y,x,1/2+z
x-y,-y,1/2+z
-x,-x+y,1/2+z
loop_
_atom_site_type_symbol
_atom_site_label
_atom_site_fract_x
_atom_site_fract_y
_atom_site_fract_z
Si Si1 0.000000 0.000000 0.832322
Si Si2 0.786848 0.082899 0.848110
Si Si3 0.677653 0.597175 0.039817
Si Si4 0.656147 0.574804 0.417584
Si Si5 0.596459 0.951384 0.220118
O O1 0.000000 0.000000 0.750000
O O2 0.904330 0.052710 0.855789
O O3 0.842122 0.229005 0.820357
O O4 0.698217 0.002762 0.783358
O O5 0.695857 0.041531 0.913729
O O6 0.563782 0.450887 0.052967
O O7 0.809559 0.609636 0.065447
O O8 0.675162 0.630826 0.961285
O O9 0.632937 0.574966 0.337939
O O10 0.455166 0.910331 0.250000
#
# Coordination Sequence:
#
# PCOD9578253 Si02
#       5
#     4  12  12  12  12
#     4  12  21  39  69 105 136 189 222 297 352 426
#     4  11  24  41  68  98 138 177 233 283 353 416
#     4  11  24  44  66  97 135 183 229 289 350 427
#     4  11  24  42  66  93 134 176 228 283 350 416
#     4  11  22  42  63  98 133 175 226 284 342 414
#
# _framework density 21.600714
#
# number of rings (size 3 to 8) (size 9 to 14) (size 15 to 20)
#    0.000    0.923    4.615    3.231    0.000    0.000 
#    5.538    0.000    0.000    4.615    0.000    0.000 
#    0.000    0.000    0.000    0.000    0.000    0.000 
#
# Total GULP energy -290550.058194 kJ/mol
# GULP energy per Si atom -5587.501119 kJ/mol
# Density = 2.155155 g / cm^3
# Si number density = 21.600714 Si / 1000 Ang^3
#
#
#
# Elastic Constant Matrix: (Units=GPa)
#
#
# Indices 1 2 3 4 5 6 
#
# 1 80.2167 38.3475 13.2019 0.0000 -6.5939 0.0000
# 2 38.3475 80.2167 13.2019 0.0000 6.5939 0.0000
# 3 13.2019 13.2019 105.0843 0.0000 0.0000 0.0000
# 4 0.0000 0.0000 0.0000 16.7684 0.0000 6.5939
# 5 -6.5939 6.5939 0.0000 0.0000 16.7684 0.0000
# 6 0.0000 0.0000 0.0000 6.5939 0.0000 20.9346
#
#
#
# Elastic Compliance Matrix: (Units=1/GPa)
#
#
# Indices 1 2 3 4 5 6 
#
# 1 0.017969 -0.009292 -0.001090 0.000000 0.010720 0.000000
# 2 -0.009292 0.017969 -0.001090 0.000000 -0.010720 0.000000
# 3 -0.001090 -0.001090 0.009790 0.000000 0.000000 0.000000
# 4 0.000000 0.000000 0.000000 0.068067 0.000000 -0.021439
# 5 0.010720 -0.010720 0.000000 0.000000 0.068067 0.000000
# 6 0.000000 0.000000 0.000000 -0.021439 0.000000 0.054521
#
#
# Mechanical properties :
#
#
# Convention : Reuss Voigt Hill
#
# Bulk Modulus (GPa) = 43.89111 43.89117 43.89114
# Shear Modulus (GPa) = 18.73218 24.27869 21.50544
#
# Velocity S-wave (km/s) = 2.94802 3.35621 3.15872
# Velocity P-wave (km/s) = 5.65254 5.94830 5.80231
#
# Compressibility (1/GPa) = 0.02278366
#
# Stress axis : x y z
#
# Youngs Moduli (GPa) = 55.65234 55.65234 102.14429
#
# Poissons Ratio (x) = 0.51710 0.11135
# Poissons Ratio (y) = 0.51710 0.11135
# Poissons Ratio (z) = 0.06067 0.06067
#
# Static dielectric constant tensor:
#      x y z
#    x 1.798920 0.000000 0.000000 
#    y 0.000000 1.798920 0.000000 
#    z 0.000000 0.000000 1.802080 
# 
# From -- ./inp_files/3507.got.cif
#   From: 2010.05.17/outbox.cif.g08.bks.cpg/sg163_2_cif.got.tgz:3507.got - 2010.05.20 10:56:03.
