data_PCOD9578212
_publ_section_title
;
Structure prediction by ZEFSAII (Michael W. Deem and Ramdas Pophale) SiO2 
 PCOD9578212
Probable space group: P -3 1 C
;
_chemical_formula_sum "Si O2"
_cell_formula_units_Z 42
_cell_length_a 13.057608
_cell_length_b 13.057608
_cell_length_c 12.923158
_cell_angle_alpha 90.000000
_cell_angle_beta 90.000000
_cell_angle_gamma 120.000000
_cell_volume 1908.211632
_symmetry_space_group_name_H-M "P -3 1 C"
_symmetry_group_IT_number 163
_symmetry_cell_setting 'hexagonal'
loop_
_space_group_symop_operation_xyz
x,y,z
-y,x-y,z
-x+y,-x,z
-y,-x,1/2-z
-x+y,y,1/2-z
x,x-y,1/2-z
-x,-y,-z
y,-x+y,-z
x-y,x,-z
y,x,1/2+z
x-y,-y,1/2+z
-x,-x+y,1/2+z
loop_
_atom_site_type_symbol
_atom_site_label
_atom_site_fract_x
_atom_site_fract_y
_atom_site_fract_z
Si Si1 0.910652 0.235460 0.659671
Si Si2 0.235973 0.117987 0.250000
Si Si3 0.149108 0.404742 0.934283
Si Si4 0.591213 0.490449 0.137669
O O1 0.813320 0.186680 0.750000
O O2 0.862672 0.205033 0.543526
O O3 0.996930 0.182861 0.686437
O O4 0.990515 0.378394 0.657474
O O5 0.314487 0.212178 0.161541
O O6 0.287712 0.489018 0.911979
O O7 0.083565 0.480657 0.929644
O O8 0.569717 0.430284 0.250000
#
# Coordination Sequence:
#
# PCOD9578212 Si02
#       4
#    12   6  12  12
#     4  11  26  42  67 101 143 181 238 295 360 418
#     4  10  24  44  68  96 132 188 238 296 342 424
#     4  11  22  42  70 105 137 188 240 282 353 424
#     4  11  21  42  73 104 144 185 239 289 353 435
#
# _framework density 22.010135999999999
#
# number of rings (size 3 to 8) (size 9 to 14) (size 15 to 20)
#    0.000    1.143    5.714    1.429    8.000    2.286 
#    0.857    0.000    0.000    7.429    0.000    0.000 
#    0.000    0.000    0.000    0.000    0.000    0.000 
#
# Total GULP energy -234481.598085 kJ/mol
# GULP energy per Si atom -5582.895192 kJ/mol
# Density = 2.196004 g / cm^3
# Si number density = 22.010136 Si / 1000 Ang^3
#
#
#
# Elastic Constant Matrix: (Units=GPa)
#
#
# Indices 1 2 3 4 5 6 
#
# 1 60.1598 40.1450 39.0319 -0.0001 5.2787 0.0000
# 2 40.1450 60.1598 39.0319 0.0001 -5.2787 0.0000
# 3 39.0319 39.0319 185.3178 0.0000 0.0000 0.0000
# 4 -0.0001 0.0001 0.0000 32.5382 0.0000 -5.2787
# 5 5.2787 -5.2787 0.0000 0.0000 32.5382 -0.0001
# 6 0.0000 0.0000 0.0000 -5.2787 -0.0001 10.0074
#
#
#
# Elastic Compliance Matrix: (Units=1/GPa)
#
#
# Indices 1 2 3 4 5 6 
#
# 1 0.033281 -0.021357 -0.002511 0.000000 -0.008864 0.000000
# 2 -0.021357 0.033281 -0.002511 0.000000 0.008864 0.000000
# 3 -0.002511 -0.002511 0.006454 0.000000 0.000000 0.000000
# 4 0.000000 0.000000 0.000000 0.033609 0.000000 0.017728
# 5 -0.008864 0.008864 0.000000 0.000000 0.033609 0.000000
# 6 0.000000 0.000000 0.000000 0.017728 0.000000 0.109277
#
#
# Mechanical properties :
#
#
# Convention : Reuss Voigt Hill
#
# Bulk Modulus (GPa) = 49.36678 60.22833 54.79755
# Shear Modulus (GPa) = 16.17993 27.51201 21.84597
#
# Velocity S-wave (km/s) = 2.71424 3.53933 3.15388
# Velocity P-wave (km/s) = 5.68336 6.64272 6.18168
#
# Compressibility (1/GPa) = 0.02025654
#
# Stress axis : x y z
#
# Youngs Moduli (GPa) = 30.04681 30.04681 154.94067
#
# Poissons Ratio (x) = 0.64172 0.38913
# Poissons Ratio (y) = 0.64172 0.38913
# Poissons Ratio (z) = 0.07546 0.07546
#
# Static dielectric constant tensor:
#      x y z
#    x 1.861720 0.000000 0.000000 
#    y 0.000000 1.861720 0.000000 
#    z 0.000000 0.000000 1.808180 
# 
# From -- ./inp_files/1510.got.cif
#   From: 2010.05.17/outbox.cif.g08.bks.cpg/sg163_1_cif.got.tgz:1510.got - 2010.05.20 10:56:03.
