data_PCOD9578785
_publ_section_title
;
Structure prediction by ZEFSAII (Michael W. Deem and Ramdas Pophale) SiO2 
 PCOD9578785
Probable space group: P -3 C 1
;
_chemical_formula_sum "Si O2"
_cell_formula_units_Z 84
_cell_length_a 15.113686
_cell_length_b 15.113686
_cell_length_c 22.652991
_cell_angle_alpha 90.000000
_cell_angle_beta 90.000000
_cell_angle_gamma 120.000000
_cell_volume 4481.227314
_symmetry_space_group_name_H-M "P -3 C 1"
_symmetry_group_IT_number 165
_symmetry_cell_setting 'hexagonal'
loop_
_space_group_symop_operation_xyz
x,y,z
-y,x-y,z
-x+y,-x,z
x-y,-y,1/2-z
-x,-x+y,1/2-z
y,x,1/2-z
-x,-y,-z
y,-x+y,-z
x-y,x,-z
-x+y,y,1/2+z
x,x-y,1/2+z
-y,-x,1/2+z
loop_
_atom_site_type_symbol
_atom_site_label
_atom_site_fract_x
_atom_site_fract_y
_atom_site_fract_z
Si Si1 0.708360 0.695565 0.685048
Si Si2 0.994429 0.178159 0.981576
Si Si3 0.869479 0.704880 0.880101
Si Si4 0.137006 0.664096 0.412682
Si Si5 0.335786 0.467365 0.885649
Si Si6 0.936463 0.333097 0.463400
Si Si7 0.070032 0.282846 0.308230
O O1 0.659247 0.659247 0.750000
O O2 0.686794 0.787242 0.669492
O O3 0.668384 0.614721 0.630828
O O4 0.829732 0.730057 0.691130
O O5 0.923569 0.149815 0.925602
O O6 0.094163 0.171035 0.970970
O O7 0.023017 0.288653 0.003521
O O8 0.857772 0.606296 0.915629
O O9 0.985345 0.766811 0.857670
O O10 0.165261 0.585599 0.382050
O O11 0.233712 0.778122 0.415201
O O12 0.104351 0.632203 0.481001
O O13 0.388855 0.418312 0.925737
O O14 0.293071 0.400635 0.825934
O O15 0.000000 0.245409 0.250000
#
# Coordination Sequence:
#
# PCOD9578785 Si02
#       7
#    12  12  12  12  12  12  12
#     4  11  22  37  57  83 112 154 200 238 281 340
#     4  10  19  29  45  75 113 150 184 221 268 326
#     4  10  20  33  53  78 116 151 188 233 280 332
#     4  11  22  38  61  86 115 143 193 240 294 348
#     4  10  22  37  59  85 112 146 184 240 294 342
#     4  10  20  36  56  81 113 151 181 228 289 351
#     4  10  21  38  55  78 114 155 195 238 285 335
#
# _framework density 18.744864
#
# number of rings (size 3 to 8) (size 9 to 14) (size 15 to 20)
#    0.000    1.714    2.857    2.571    6.000    0.571 
#    0.857    0.714    0.000    0.000    0.000    0.000 
#    0.000    0.000    0.000    0.000    0.000    0.000 
#
# Total GULP energy -467723.106035 kJ/mol
# GULP energy per Si atom -5568.132215 kJ/mol
# Density = 1.870220 g / cm^3
# Si number density = 18.744864 Si / 1000 Ang^3
#
#
#
# Elastic Constant Matrix: (Units=GPa)
#
#
# Indices 1 2 3 4 5 6 
#
# 1 41.3767 -1.4454 4.6424 4.2008 0.0000 0.0000
# 2 -1.4454 41.3767 4.6424 -4.2008 0.0000 0.0000
# 3 4.6424 4.6424 77.6428 0.0000 0.0000 0.0000
# 4 4.2008 -4.2008 0.0000 9.6880 0.0000 0.0000
# 5 0.0000 0.0000 0.0000 0.0000 9.6880 4.2008
# 6 0.0000 0.0000 0.0000 0.0000 4.2008 21.4111
#
#
#
# Elastic Compliance Matrix: (Units=1/GPa)
#
#
# Indices 1 2 3 4 5 6 
#
# 1 0.025460 -0.000064 -0.001518 -0.011067 0.000000 0.000000
# 2 -0.000064 0.025460 -0.001518 0.011067 0.000000 0.000000
# 3 -0.001518 -0.001518 0.013061 0.000000 0.000000 0.000000
# 4 -0.011067 0.011067 0.000000 0.112819 0.000000 0.000000
# 5 0.000000 0.000000 0.000000 0.000000 0.112819 -0.022135
# 6 0.000000 0.000000 0.000000 0.000000 -0.022135 0.051048
#
#
# Mechanical properties :
#
#
# Convention : Reuss Voigt Hill
#
# Bulk Modulus (GPa) = 17.30725 19.56391 18.43558
# Shear Modulus (GPa) = 13.65647 18.32786 15.99216
#
# Velocity S-wave (km/s) = 2.70208 3.13030 2.92404
# Velocity P-wave (km/s) = 4.35754 4.85022 4.61046
#
# Compressibility (1/GPa) = 0.05777926
#
# Stress axis : x y z
#
# Youngs Moduli (GPa) = 39.27744 39.27744 76.56333
#
# Poissons Ratio (x) = 0.00251 0.11626
# Poissons Ratio (y) = 0.00251 0.11626
# Poissons Ratio (z) = 0.05964 0.05964
#
# Static dielectric constant tensor:
#      x y z
#    x 1.670800 0.000000 0.000000 
#    y 0.000000 1.670800 0.000000 
#    z 0.000000 0.000000 1.731270 
# 
# From -- ./inp_files/2959.got.cif
#   From: 2010.05.17/outbox.cif.g08.bks.cpg/sg165_2_cif.got.tgz:2959.got - 2010.05.20 11:02:39.
