data_PCOD9578676
_publ_section_title
;
Structure prediction by ZEFSAII (Michael W. Deem and Ramdas Pophale) SiO2 
 PCOD9578676
Probable space group: P -3 M 1
;
_chemical_formula_sum "Si O2"
_cell_formula_units_Z 84
_cell_length_a 18.151126
_cell_length_b 18.151126
_cell_length_c 15.232183
_cell_angle_alpha 90.000000
_cell_angle_beta 90.000000
_cell_angle_gamma 120.000000
_cell_volume 4346.102088
_symmetry_space_group_name_H-M "P -3 M 1"
_symmetry_group_IT_number 164
_symmetry_cell_setting 'hexagonal'
loop_
_space_group_symop_operation_xyz
x,y,z
-y,x-y,z
-x+y,-x,z
x-y,-y,-z
-x,-x+y,-z
y,x,-z
-x,-y,-z
y,-x+y,-z
x-y,x,-z
-x+y,y,z
x,x-y,z
-y,-x,z
loop_
_atom_site_type_symbol
_atom_site_label
_atom_site_fract_x
_atom_site_fract_y
_atom_site_fract_z
Si Si1 0.057408 0.364152 0.141057
Si Si2 0.107712 0.469919 0.812666
Si Si3 0.901052 0.636153 0.354114
Si Si4 0.170077 0.668661 0.005809
Si Si5 0.999689 0.170110 0.106020
Si Si6 0.901764 0.638867 0.665954
Si Si7 0.159851 0.492856 0.485815
O O1 0.112803 0.413842 0.057320
O O2 0.108619 0.386110 0.231814
O O3 0.987273 0.391746 0.154808
O O4 0.013348 0.262209 0.130558
O O5 0.116638 0.558319 0.781662
O O6 0.122928 0.421291 0.733729
O O7 0.161257 0.487323 0.901238
O O8 0.834812 0.669624 0.363624
O O9 0.886458 0.573979 0.435640
O O10 0.999554 0.707408 0.347860
O O11 0.144148 0.572074 0.026873
O O12 0.266937 0.733064 0.030950
O O13 0.910431 0.089570 0.136122
O O14 0.082017 0.164034 0.136401
O O15 0.000000 0.166981 0.000000
O O16 0.834526 0.669052 0.643072
O O17 0.878493 0.558469 0.604298
O O18 0.258646 0.517291 0.489453
O O19 0.150156 0.575078 0.493298
#
# Coordination Sequence:
#
# PCOD9578676 Si02
#       7
#    12  12  12  12  12  12  12
#     4  11  22  36  55  78 107 146 193 234 271 319
#     4  10  21  36  55  80 109 140 178 229 284 336
#     4  10  21  37  60  88 113 142 182 227 280 339
#     4  11  22  36  53  75 107 147 190 232 274 322
#     4  10  20  34  54  81 112 145 183 232 290 346
#     4  10  22  38  55  79 113 149 185 228 274 320
#     4  10  21  38  61  89 118 147 179 221 276 334
#
# _framework density 19.327663000000001
#
# number of rings (size 3 to 8) (size 9 to 14) (size 15 to 20)
#    0.000    1.714    0.000    4.714    0.000    9.714 
#    0.000    0.000    0.000    6.571    0.000    0.000 
#    0.000    3.429    0.000    0.000    0.000    0.000 
#
# Total GULP energy -468997.122232 kJ/mol
# GULP energy per Si atom -5583.299074 kJ/mol
# Density = 1.928367 g / cm^3
# Si number density = 19.327663 Si / 1000 Ang^3
#
#
#
# Elastic Constant Matrix: (Units=GPa)
#
#
# Indices 1 2 3 4 5 6 
#
# 1 86.9844 58.9602 21.3769 6.0878 0.0000 0.0000
# 2 58.9602 86.9844 21.3769 -6.0878 0.0000 0.0000
# 3 21.3769 21.3769 55.9820 0.0000 0.0000 0.0000
# 4 6.0878 -6.0878 0.0000 13.3093 0.0000 0.0000
# 5 0.0000 0.0000 0.0000 0.0000 13.3093 6.0878
# 6 0.0000 0.0000 0.0000 0.0000 6.0878 14.0121
#
#
#
# Elastic Compliance Matrix: (Units=1/GPa)
#
#
# Indices 1 2 3 4 5 6 
#
# 1 0.026124 -0.018409 -0.002946 -0.020370 0.000000 0.000000
# 2 -0.018409 0.026124 -0.002946 0.020370 0.000000 0.000000
# 3 -0.002946 -0.002946 0.020113 0.000000 0.000000 0.000000
# 4 -0.020370 0.020370 0.000000 0.093770 0.000000 0.000000
# 5 0.000000 0.000000 0.000000 0.000000 0.093770 -0.040740
# 6 0.000000 0.000000 0.000000 0.000000 -0.040740 0.089067
#
#
# Mechanical properties :
#
#
# Convention : Reuss Voigt Hill
#
# Bulk Modulus (GPa) = 42.08983 48.15322 45.12153
# Shear Modulus (GPa) = 12.33075 16.67528 14.50301
#
# Velocity S-wave (km/s) = 2.52858 2.94048 2.74227
# Velocity P-wave (km/s) = 5.50901 6.04126 5.78126
#
# Compressibility (1/GPa) = 0.02375871
#
# Stress axis : x y z
#
# Youngs Moduli (GPa) = 38.27865 38.27865 49.71968
#
# Poissons Ratio (x) = 0.70468 0.14647
# Poissons Ratio (y) = 0.70468 0.14647
# Poissons Ratio (z) = 0.11277 0.11277
#
# Static dielectric constant tensor:
#      x y z
#    x 1.667250 0.000000 0.000000 
#    y 0.000000 1.667250 0.000000 
#    z 0.000000 0.000000 1.676000 
# 
# From -- ./inp_files/3573.got.cif
#   From: 2010.05.17/outbox.cif.g08.bks.cpg/sg164_2_cif.got.tgz:3573.got - 2010.05.20 10:58:56.
