data_PCOD9578245
_publ_section_title
;
Structure prediction by ZEFSAII (Michael W. Deem and Ramdas Pophale) SiO2 
 PCOD9578245
Probable space group: P -3 1 C
;
_chemical_formula_sum "Si O2"
_cell_formula_units_Z 48
_cell_length_a 12.191650
_cell_length_b 12.191650
_cell_length_c 16.202991
_cell_angle_alpha 90.000000
_cell_angle_beta 90.000000
_cell_angle_gamma 120.000000
_cell_volume 2085.694977
_symmetry_space_group_name_H-M "P -3 1 C"
_symmetry_group_IT_number 163
_symmetry_cell_setting 'hexagonal'
loop_
_space_group_symop_operation_xyz
x,y,z
-y,x-y,z
-x+y,-x,z
-y,-x,1/2-z
-x+y,y,1/2-z
x,x-y,1/2-z
-x,-y,-z
y,-x+y,-z
x-y,x,-z
y,x,1/2+z
x-y,-y,1/2+z
-x,-x+y,1/2+z
loop_
_atom_site_type_symbol
_atom_site_label
_atom_site_fract_x
_atom_site_fract_y
_atom_site_fract_z
Si Si1 0.197561 0.255330 0.166530
Si Si2 0.666668 0.333335 0.565209
Si Si3 0.666668 0.333334 0.132961
Si Si4 0.000000 0.000000 0.647383
Si Si5 0.127633 0.723022 0.434385
Si Si6 0.784678 0.617784 0.116717
O O1 0.135123 0.270246 0.250000
O O2 0.225734 0.372367 0.111712
O O3 0.295513 0.204961 0.172229
O O4 0.081261 0.140557 0.118304
O O5 0.666668 0.333334 0.466241
O O6 0.807415 0.360794 0.586724
O O7 0.707832 0.477118 0.154382
O O8 0.000000 0.000000 0.750000
O O9 0.148097 0.760854 0.530760
O O10 0.982254 0.667651 0.403359
#
# Coordination Sequence:
#
# PCOD9578245 Si02
#       6
#    12   4   4   4  12  12
#     4  11  22  37  61  96 135 171 213 272 340 388
#     4   9  24  39  61  94 136 181 220 275 331 390
#     4   9  24  39  63  98 134 177 223 278 325 396
#     4   9  18  33  52  86 121 150 202 254 319 372
#     4  11  22  38  64  95 132 174 223 274 325 399
#     4  11  22  38  66  98 133 172 224 277 327 394
#
# _framework density 23.013911
#
# number of rings (size 3 to 8) (size 9 to 14) (size 15 to 20)
#    0.000    1.500    5.000    0.000    3.500    3.000 
#    0.000    3.750    0.000    4.500    0.000    0.000 
#    0.000    0.000    0.000    0.000    0.000    0.000 
#
# Total GULP energy -267261.450771 kJ/mol
# GULP energy per Si atom -5567.946891 kJ/mol
# Density = 2.296153 g / cm^3
# Si number density = 23.013911 Si / 1000 Ang^3
#
#
#
# Elastic Constant Matrix: (Units=GPa)
#
#
# Indices 1 2 3 4 5 6 
#
# 1 148.8464 80.5792 34.9111 -0.0003 10.3816 -0.0004
# 2 80.5792 148.8448 34.9108 -0.0001 -10.3818 -0.0010
# 3 34.9111 34.9108 47.4174 0.0002 0.0001 -0.0003
# 4 -0.0003 -0.0001 0.0002 0.2683 0.0004 -10.3815
# 5 10.3816 -10.3818 0.0001 0.0004 0.2678 0.0002
# 6 -0.0004 -0.0010 -0.0003 -10.3815 0.0002 34.1329
#
#
#
# Elastic Compliance Matrix: (Units=1/GPa)
#
#
# Indices 1 2 3 4 5 6 
#
# 1 0.002130 0.003487 -0.004136 0.000007 0.052625 0.000002
# 2 0.003487 0.002130 -0.004136 -0.000009 -0.052626 -0.000002
# 3 -0.004136 -0.004136 0.027179 0.000002 0.000001 0.000001
# 4 0.000007 -0.000009 0.000002 -0.346108 -0.000054 -0.105269
# 5 0.052625 -0.052626 0.000001 -0.000054 -0.346045 -0.000016
# 6 0.000002 -0.000002 0.000001 -0.105269 -0.000016 -0.002720
#
#
# Mechanical properties :
#
#
# Convention : Reuss Voigt Hill
#
# Bulk Modulus (GPa) = 45.72293 71.76788 58.74540
# Shear Modulus (GPa) = -7.73305 19.91429 6.09062
#
# Velocity S-wave (km/s) = -1.83506 2.94482 1.62857
# Velocity P-wave (km/s) = 3.92692 6.54331 5.39609
#
# Compressibility (1/GPa) = 0.02187086
#
# Stress axis : x y z
#
# Youngs Moduli (GPa) = 469.48269 469.53092 36.79276
#
# Poissons Ratio (x) = -1.63749 0.15217
# Poissons Ratio (y) = -1.63732 0.15216
# Poissons Ratio (z) = 1.94177 1.94180
#
# Static dielectric constant tensor:
#      x y z
#    x 1.923310 0.000000 0.000000 
#    y 0.000000 1.923310 0.000000 
#    z 0.000000 0.000000 1.910860 
# 
# From -- ./inp_files/3477.got.cif
#   From: 2010.05.17/outbox.cif.g08.bks.cpg/sg163_2_cif.got.tgz:3477.got - 2010.05.20 10:56:03.
