data_PCOD9578485
_publ_section_title
;
Structure prediction by ZEFSAII (Michael W. Deem and Ramdas Pophale) SiO2 
 PCOD9578485
Probable space group: P -3 M 1
;
_chemical_formula_sum "Si O2"
_cell_formula_units_Z 60
_cell_length_a 16.621653
_cell_length_b 16.621653
_cell_length_c 15.286036
_cell_angle_alpha 90.000000
_cell_angle_beta 90.000000
_cell_angle_gamma 120.000000
_cell_volume 3657.412399
_symmetry_space_group_name_H-M "P -3 M 1"
_symmetry_group_IT_number 164
_symmetry_cell_setting 'hexagonal'
loop_
_space_group_symop_operation_xyz
x,y,z
-y,x-y,z
-x+y,-x,z
x-y,-y,-z
-x,-x+y,-z
y,x,-z
-x,-y,-z
y,-x+y,-z
x-y,x,-z
-x+y,y,z
x,x-y,z
-y,-x,z
loop_
_atom_site_type_symbol
_atom_site_label
_atom_site_fract_x
_atom_site_fract_y
_atom_site_fract_z
Si Si1 0.335598 0.372291 0.865382
Si Si2 0.756302 0.051700 0.408447
Si Si3 0.335716 0.857107 0.694127
Si Si4 0.810687 0.809860 0.769759
Si Si5 0.332595 0.476499 0.039190
O O1 0.353607 0.440463 0.784539
O O2 0.249783 0.272839 0.837184
O O3 0.421795 0.357562 0.888543
O O4 0.316925 0.417514 0.950356
O O5 0.855964 0.144037 0.417251
O O6 0.685173 0.085178 0.377706
O O7 0.729650 0.000000 0.500000
O O8 0.767360 0.996220 0.326678
O O9 0.422323 0.844646 0.672492
O O10 0.241686 0.758315 0.704376
O O11 0.902889 0.805778 0.789382
O O12 0.829803 0.914902 0.769712
O O13 0.240371 0.480741 0.059762
O O14 0.421459 0.578542 0.027048
#
# Coordination Sequence:
#
# PCOD9578485 Si02
#       5
#    12  12  12  12  12
#     4  10  20  34  50  71  97 129 159 193 238 287
#     4   9  18  31  48  70  96 125 157 193 234 282
#     4  10  19  32  50  72  97 124 158 198 239 281
#     4  10  19  32  50  72  98 127 161 198 237 280
#     4  11  21  34  52  73  97 124 159 199 239 281
#
# _framework density 16.405042000000002
#
# number of rings (size 3 to 8) (size 9 to 14) (size 15 to 20)
#    0.000    2.000    0.000    7.200    0.000    0.400 
#    0.000    2.000    0.000    3.200    0.000    7.000 
#    0.000   12.800    0.000    0.000    0.000    0.000 
#
# Total GULP energy -334774.887057 kJ/mol
# GULP energy per Si atom -5579.581451 kJ/mol
# Density = 1.636770 g / cm^3
# Si number density = 16.405042 Si / 1000 Ang^3
#
#
#
# Elastic Constant Matrix: (Units=GPa)
#
#
# Indices 1 2 3 4 5 6 
#
# 1 84.3795 35.0588 5.6592 2.4633 0.0000 0.0000
# 2 35.0588 84.3795 5.6592 -2.4633 0.0000 0.0000
# 3 5.6592 5.6592 22.9268 0.0000 0.0000 0.0000
# 4 2.4633 -2.4633 0.0000 11.8195 0.0000 0.0000
# 5 0.0000 0.0000 0.0000 0.0000 11.8195 2.4633
# 6 0.0000 0.0000 0.0000 0.0000 2.4633 24.6604
#
#
#
# Elastic Compliance Matrix: (Units=1/GPa)
#
#
# Indices 1 2 3 4 5 6 
#
# 1 0.014640 -0.006067 -0.002116 -0.004315 0.000000 0.000000
# 2 -0.006067 0.014640 -0.002116 0.004315 0.000000 0.000000
# 3 -0.002116 -0.002116 0.044662 0.000000 0.000000 0.000000
# 4 -0.004315 0.004315 0.000000 0.086404 0.000000 0.000000
# 5 0.000000 0.000000 0.000000 0.000000 0.086404 -0.008631
# 6 0.000000 0.000000 0.000000 0.000000 -0.008631 0.041413
#
#
# Mechanical properties :
#
#
# Convention : Reuss Voigt Hill
#
# Bulk Modulus (GPa) = 18.74652 31.60445 25.17549
# Shear Modulus (GPa) = 15.31196 19.34713 17.32955
#
# Velocity S-wave (km/s) = 3.05842 3.43788 3.25369
# Velocity P-wave (km/s) = 4.89122 5.92162 5.43091
#
# Compressibility (1/GPa) = 0.05334322
#
# Stress axis : x y z
#
# Youngs Moduli (GPa) = 68.30698 68.30698 22.39056
#
# Poissons Ratio (x) = 0.41440 0.04738
# Poissons Ratio (y) = 0.41440 0.04738
# Poissons Ratio (z) = 0.14455 0.14455
#
# Static dielectric constant tensor:
#      x y z
#    x 1.540950 0.000000 0.000000 
#    y 0.000000 1.540950 0.000000 
#    z 0.000000 0.000000 1.535450 
# 
# From -- ./inp_files/3318.got.cif
#   From: 2010.05.17/outbox.cif.g08.bks.cpg/sg164_2_cif.got.tgz:3318.got - 2010.05.20 10:58:56.
