data_PCOD9578269
_publ_section_title
;
Structure prediction by ZEFSAII (Michael W. Deem and Ramdas Pophale) SiO2 
 PCOD9578269
Probable space group: P -3 1 C
;
_chemical_formula_sum "Si O2"
_cell_formula_units_Z 74
_cell_length_a 10.917926
_cell_length_b 10.917926
_cell_length_c 29.320637
_cell_angle_alpha 90.000000
_cell_angle_beta 90.000000
_cell_angle_gamma 120.000000
_cell_volume 3026.804185
_symmetry_space_group_name_H-M "P -3 1 C"
_symmetry_group_IT_number 163
_symmetry_cell_setting 'hexagonal'
loop_
_space_group_symop_operation_xyz
x,y,z
-y,x-y,z
-x+y,-x,z
-y,-x,1/2-z
-x+y,y,1/2-z
x,x-y,1/2-z
-x,-y,-z
y,-x+y,-z
x-y,x,-z
y,x,1/2+z
x-y,-y,1/2+z
-x,-x+y,1/2+z
loop_
_atom_site_type_symbol
_atom_site_label
_atom_site_fract_x
_atom_site_fract_y
_atom_site_fract_z
Si Si1 0.415478 0.006776 0.182350
Si Si2 0.656388 0.828194 0.250000
Si Si3 0.907529 0.256381 0.406170
Si Si4 0.045071 0.560281 0.426366
Si Si5 0.666668 0.333334 0.078572
Si Si6 0.333333 0.666667 0.468333
Si Si7 0.086737 0.349470 0.807085
Si Si8 0.222489 0.959256 0.524474
O O1 0.388810 0.138557 0.192326
O O2 0.576946 0.059282 0.197997
O O3 0.296505 0.871010 0.211402
O O4 0.411384 0.974071 0.127297
O O5 0.748878 0.770820 0.274138
O O6 0.771554 0.281018 0.402329
O O7 0.968420 0.261665 0.357443
O O8 0.868268 0.111755 0.430198
O O9 0.008993 0.399797 0.432427
O O10 0.198358 0.661195 0.445534
O O11 0.950724 0.590882 0.461783
O O12 0.666668 0.333334 0.023285
O O13 0.115889 0.855812 0.486729
#
# Coordination Sequence:
#
# PCOD9578269 Si02
#       8
#    12   6  12  12   4   4  12  12
#     4  11  25  52  84 116 156 206 266 324 400 488
#     4  12  28  44  76 126 148 188 244 336 408 472
#     4  11  23  45  74 109 154 205 260 315 387 460
#     4  11  27  48  76 111 153 210 258 327 392 459
#     4  12  21  42  72 123 158 209 264 333 375 450
#     4  12  30  45  75 118 160 205 268 333 390 453
#     4  11  24  52  81 115 157 205 268 319 398 480
#     4  12  27  46  70 107 154 205 269 314 378 454
#
# _framework density 24.448229999999999
#
# number of rings (size 3 to 8) (size 9 to 14) (size 15 to 20)
#    0.000    0.649    3.243    3.405    9.081    1.297 
#    7.784    1.622    0.000    0.000    0.000    0.000 
#    0.000    0.000    0.000    0.000    0.000    0.000 
#
# Total GULP energy -413124.704999 kJ/mol
# GULP energy per Si atom -5582.766284 kJ/mol
# Density = 2.439258 g / cm^3
# Si number density = 24.448230 Si / 1000 Ang^3
#
#
#
# Elastic Constant Matrix: (Units=GPa)
#
#
# Indices 1 2 3 4 5 6 
#
# 1 95.3379 36.3022 48.0163 0.0001 0.7362 0.0001
# 2 36.3022 95.3379 48.0162 -0.0001 -0.7362 -0.0001
# 3 48.0163 48.0162 155.0602 -0.0001 0.0000 -0.0001
# 4 0.0001 -0.0001 -0.0001 49.5454 0.0000 -0.7362
# 5 0.7362 -0.7362 0.0000 0.0000 49.5454 0.0001
# 6 0.0001 -0.0001 -0.0001 -0.7362 0.0001 29.5178
#
#
#
# Elastic Compliance Matrix: (Units=1/GPa)
#
#
# Indices 1 2 3 4 5 6 
#
# 1 0.013379 -0.003566 -0.003039 0.000000 -0.000252 0.000000
# 2 -0.003566 0.013379 -0.003039 0.000000 0.000252 0.000000
# 3 -0.003039 -0.003039 0.008331 0.000000 0.000000 0.000000
# 4 0.000000 0.000000 0.000000 0.020191 0.000000 0.000504
# 5 -0.000252 0.000252 0.000000 0.000000 0.020191 0.000000
# 6 0.000000 0.000000 0.000000 0.000504 0.000000 0.033890
#
#
# Mechanical properties :
#
#
# Convention : Reuss Voigt Hill
#
# Bulk Modulus (GPa) = 63.28114 67.82280 65.55197
# Shear Modulus (GPa) = 37.33666 39.94847 38.64257
#
# Velocity S-wave (km/s) = 3.91215 4.04667 3.97997
# Velocity P-wave (km/s) = 6.80782 7.04526 6.92756
#
# Compressibility (1/GPa) = 0.01580250
#
# Stress axis : x y z
#
# Youngs Moduli (GPa) = 74.74266 74.74266 120.03197
#
# Poissons Ratio (x) = 0.26653 0.36475
# Poissons Ratio (y) = 0.26653 0.36475
# Poissons Ratio (z) = 0.22713 0.22713
#
# Static dielectric constant tensor:
#      x y z
#    x 1.996290 0.000000 0.000000 
#    y 0.000000 1.996290 0.000000 
#    z 0.000000 0.000000 2.015580 
# 
# From -- ./inp_files/4394.got.cif
#   From: 2010.05.17/outbox.cif.g08.bks.cpg/sg163_3_cif.got.tgz:4394.got - 2010.05.20 10:56:03.
