data_PCOD9578335
_publ_section_title
;
Structure prediction by ZEFSAII (Michael W. Deem and Ramdas Pophale) SiO2 
 PCOD9578335
Probable space group: P -3 M 1
;
_chemical_formula_sum "Si O2"
_cell_formula_units_Z 96
_cell_length_a 18.816606
_cell_length_b 18.816606
_cell_length_c 20.515289
_cell_angle_alpha 90.000000
_cell_angle_beta 90.000000
_cell_angle_gamma 120.000000
_cell_volume 6290.582373
_symmetry_space_group_name_H-M "P -3 M 1"
_symmetry_group_IT_number 164
_symmetry_cell_setting 'hexagonal'
loop_
_space_group_symop_operation_xyz
x,y,z
-y,x-y,z
-x+y,-x,z
x-y,-y,-z
-x,-x+y,-z
y,x,-z
-x,-y,-z
y,-x+y,-z
x-y,x,-z
-x+y,y,z
x,x-y,z
-y,-x,z
loop_
_atom_site_type_symbol
_atom_site_label
_atom_site_fract_x
_atom_site_fract_y
_atom_site_fract_z
Si Si1 0.668386 0.175521 0.008754
Si Si2 0.466231 0.094585 0.376720
Si Si3 0.601424 0.038223 0.116036
Si Si4 0.899030 0.367964 0.612475
Si Si5 0.124573 0.405330 0.120448
Si Si6 0.261376 0.902006 0.505631
Si Si7 0.333510 0.500883 0.767192
Si Si8 0.492407 0.668562 0.249946
O O1 0.602482 0.204963 0.011071
O O2 0.754586 0.245415 0.036182
O O3 0.632801 0.094546 0.052049
O O4 0.683062 0.158945 0.934747
O O5 0.559260 0.118520 0.397106
O O6 0.415380 0.113139 0.430097
O O7 0.471875 0.133397 0.305971
O O8 0.417050 0.995898 0.371890
O O9 0.502148 0.004295 0.118749
O O10 0.639414 0.095807 0.179348
O O11 0.631682 0.972250 0.112431
O O12 0.876158 0.438079 0.594571
O O13 0.884623 0.305583 0.554808
O O14 0.853121 0.324570 0.678519
O O15 0.181672 0.363344 0.112380
O O16 0.140862 0.442022 0.192781
O O17 0.164380 0.835621 0.504834
O O18 0.291521 0.000000 0.500000
O O19 0.244611 0.489221 0.779948
O O20 0.403332 0.596669 0.771201
O O21 0.452703 0.726352 0.246870
O O22 0.425370 0.574631 0.239550
#
# Coordination Sequence:
#
# PCOD9578335 Si02
#       8
#    12  12  12  12  12  12  12  12
#     4  10  19  30  45  65  89 116 147 182 219 260
#     4   9  17  29  46  66  87 114 146 179 215 256
#     4  10  19  31  46  62  84 116 150 182 219 263
#     4   9  17  29  45  64  86 113 144 177 214 259
#     4  10  20  31  44  61  80 108 147 190 228 259
#     4  10  19  31  47  66  88 114 147 185 224 267
#     4  10  19  30  45  66  93 123 154 185 216 252
#     4  10  18  27  39  56  80 108 139 174 212 251
#
# _framework density 15.260908000000001
#
# number of rings (size 3 to 8) (size 9 to 14) (size 15 to 20)
#    0.000    2.250    0.000    4.125    0.000    4.500 
#    0.000    2.500    0.000    3.875    0.000    0.000 
#    0.000    0.000    0.000    3.000    0.000   24.250 
#
# Total GULP energy -534583.917641 kJ/mol
# GULP energy per Si atom -5568.582475 kJ/mol
# Density = 1.522617 g / cm^3
# Si number density = 15.260908 Si / 1000 Ang^3
#
#
#
# Elastic Constant Matrix: (Units=GPa)
#
#
# Indices 1 2 3 4 5 6 
#
# 1 57.9233 28.1437 13.0614 -1.2550 0.0000 0.0000
# 2 28.1437 57.9233 13.0614 1.2550 0.0000 0.0000
# 3 13.0614 13.0614 35.4957 0.0000 0.0000 0.0000
# 4 -1.2550 1.2550 0.0000 17.0642 0.0000 0.0000
# 5 0.0000 0.0000 0.0000 0.0000 17.0642 -1.2550
# 6 0.0000 0.0000 0.0000 0.0000 -1.2550 14.8898
#
#
#
# Elastic Compliance Matrix: (Units=1/GPa)
#
#
# Indices 1 2 3 4 5 6 
#
# 1 0.023435 -0.010355 -0.004813 0.002485 0.000000 0.000000
# 2 -0.010355 0.023435 -0.004813 -0.002485 0.000000 0.000000
# 3 -0.004813 -0.004813 0.031714 0.000000 0.000000 0.000000
# 4 0.002485 -0.002485 0.000000 0.058968 0.000000 0.000000
# 5 0.000000 0.000000 0.000000 0.000000 0.058968 0.004970
# 6 0.000000 0.000000 0.000000 0.000000 0.004970 0.067579
#
#
# Mechanical properties :
#
#
# Convention : Reuss Voigt Hill
#
# Bulk Modulus (GPa) = 25.89195 28.87504 27.38349
# Shear Modulus (GPa) = 15.77617 16.27536 16.02576
#
# Velocity S-wave (km/s) = 3.21871 3.26923 3.24407
# Velocity P-wave (km/s) = 5.55126 5.76303 5.65813
#
# Compressibility (1/GPa) = 0.03862204
#
# Stress axis : x y z
#
# Youngs Moduli (GPa) = 42.67196 42.67196 31.53135
#
# Poissons Ratio (x) = 0.44187 0.15176
# Poissons Ratio (y) = 0.44187 0.15176
# Poissons Ratio (z) = 0.20538 0.20538
#
# Static dielectric constant tensor:
#      x y z
#    x 1.516030 0.000000 0.000000 
#    y 0.000000 1.516030 0.000000 
#    z 0.000000 0.000000 1.516390 
# 
# From -- ./inp_files/4767.got.cif
#   From: 2010.05.17/outbox.cif.g08.bks.cpg/sg164_3_cif.got.tgz:4767.got - 2010.05.20 10:58:56.
