data_PCOD9578106
_publ_section_title
;
Structure prediction by ZEFSAII (Michael W. Deem and Ramdas Pophale) SiO2 
 PCOD9578106
Probable space group: P -3 1 C
;
_chemical_formula_sum "Si O2"
_cell_formula_units_Z 52
_cell_length_a 13.761890
_cell_length_b 13.761890
_cell_length_c 17.339823
_cell_angle_alpha 90.000000
_cell_angle_beta 90.000000
_cell_angle_gamma 120.000000
_cell_volume 2844.012206
_symmetry_space_group_name_H-M "P -3 1 C"
_symmetry_group_IT_number 163
_symmetry_cell_setting 'hexagonal'
loop_
_space_group_symop_operation_xyz
x,y,z
-y,x-y,z
-x+y,-x,z
-y,-x,1/2-z
-x+y,y,1/2-z
x,x-y,1/2-z
-x,-y,-z
y,-x+y,-z
x-y,x,-z
y,x,1/2+z
x-y,-y,1/2+z
-x,-x+y,1/2+z
loop_
_atom_site_type_symbol
_atom_site_label
_atom_site_fract_x
_atom_site_fract_y
_atom_site_fract_z
Si Si1 0.666668 0.333334 0.341844
Si Si2 0.157370 0.896286 0.017119
Si Si3 0.135821 0.653886 0.560870
Si Si4 0.539368 0.427754 0.601083
Si Si5 0.769286 0.179379 0.836674
O O1 0.666668 0.333334 0.250000
O O2 0.770931 0.326045 0.377218
O O3 0.178858 0.872402 0.104622
O O4 0.232382 0.859902 0.966106
O O5 0.027345 0.822961 0.996337
O O6 0.150100 0.595569 0.483556
O O7 0.011852 0.567179 0.591689
O O8 0.497084 0.304961 0.633861
O O9 0.634853 0.523142 0.654434
O O10 0.810819 0.189182 0.750000
#
# Coordination Sequence:
#
# PCOD9578106 Si02
#       5
#     4  12  12  12  12
#     4  12  27  39  57  93 136 173 202 249 318 381
#     4  11  23  44  68  90 119 167 222 264 313 380
#     4  10  22  41  63  90 121 171 216 248 307 391
#     4  10  20  38  65  88 128 165 207 257 308 383
#     4  11  22  36  62 101 128 161 204 264 322 368
#
# _framework density 18.284029
#
# number of rings (size 3 to 8) (size 9 to 14) (size 15 to 20)
#    0.000    1.385    2.308    4.154    6.462    1.846 
#    0.000    1.154    0.000    0.000    0.000    0.000 
#    0.000    0.000    0.000    0.000    0.000    0.000 
#
# Total GULP energy -290709.940527 kJ/mol
# GULP energy per Si atom -5590.575779 kJ/mol
# Density = 1.824241 g / cm^3
# Si number density = 18.284029 Si / 1000 Ang^3
#
#
#
# Elastic Constant Matrix: (Units=GPa)
#
#
# Indices 1 2 3 4 5 6 
#
# 1 96.2065 36.7146 63.7072 0.0002 7.6597 -0.0001
# 2 36.7146 96.2061 63.7072 0.0001 -7.6596 -0.0002
# 3 63.7072 63.7072 125.3825 0.0004 0.0002 0.0001
# 4 0.0002 0.0001 0.0004 9.5944 0.0000 -7.6596
# 5 7.6597 -7.6596 0.0002 0.0000 9.5943 0.0001
# 6 -0.0001 -0.0002 0.0001 -7.6596 0.0001 29.7458
#
#
#
# Elastic Compliance Matrix: (Units=1/GPa)
#
#
# Indices 1 2 3 4 5 6 
#
# 1 0.017913 -0.003246 -0.007452 0.000000 -0.016892 0.000000
# 2 -0.003246 0.017913 -0.007452 0.000000 0.016892 0.000000
# 3 -0.007452 -0.007452 0.015549 -0.000001 0.000000 0.000000
# 4 0.000000 0.000000 -0.000001 0.131199 0.000000 0.033784
# 5 -0.016892 0.016892 0.000000 0.000000 0.131200 -0.000001
# 6 0.000000 0.000000 0.000000 0.033784 -0.000001 0.042318
#
#
# Mechanical properties :
#
#
# Convention : Reuss Voigt Hill
#
# Bulk Modulus (GPa) = 66.34281 71.78369 69.06325
# Shear Modulus (GPa) = 12.58125 20.03130 16.30628
#
# Velocity S-wave (km/s) = 2.62601 3.31352 2.98959
# Velocity P-wave (km/s) = 6.74966 7.34743 7.05488
#
# Compressibility (1/GPa) = 0.01507322
#
# Stress axis : x y z
#
# Youngs Moduli (GPa) = 55.82630 55.82562 64.31453
#
# Poissons Ratio (x) = 0.18121 0.47928
# Poissons Ratio (y) = 0.18121 0.47929
# Poissons Ratio (z) = 0.41603 0.41603
#
# Static dielectric constant tensor:
#      x y z
#    x 1.617310 0.000000 0.000000 
#    y 0.000000 1.617310 0.000000 
#    z 0.000000 0.000000 1.620690 
# 
# From -- ./inp_files/2308.got.cif
#   From: 2010.05.17/outbox.cif.g08.bks.cpg/sg163_2_cif.got.tgz:2308.got - 2010.05.20 10:56:03.
