data_PCOD9578084
_publ_section_title
;
Structure prediction by ZEFSAII (Michael W. Deem and Ramdas Pophale) SiO2 
 PCOD9578084
Probable space group: P -3 1 C
;
_chemical_formula_sum "Si O2"
_cell_formula_units_Z 84
_cell_length_a 15.161340
_cell_length_b 15.161340
_cell_length_c 21.893934
_cell_angle_alpha 90.000000
_cell_angle_beta 90.000000
_cell_angle_gamma 120.000000
_cell_volume 4358.425336
_symmetry_space_group_name_H-M "P -3 1 C"
_symmetry_group_IT_number 163
_symmetry_cell_setting 'hexagonal'
loop_
_space_group_symop_operation_xyz
x,y,z
-y,x-y,z
-x+y,-x,z
-y,-x,1/2-z
-x+y,y,1/2-z
x,x-y,1/2-z
-x,-y,-z
y,-x+y,-z
x-y,x,-z
y,x,1/2+z
x-y,-y,1/2+z
-x,-x+y,1/2+z
loop_
_atom_site_type_symbol
_atom_site_label
_atom_site_fract_x
_atom_site_fract_y
_atom_site_fract_z
Si Si1 0.133552 0.477881 0.060868
Si Si2 0.256978 0.243725 0.892282
Si Si3 0.611048 0.700778 0.940272
Si Si4 0.797732 0.702406 0.811959
Si Si5 0.109372 0.197332 0.505679
Si Si6 0.457094 0.132229 0.899455
Si Si7 0.855856 0.663079 0.182584
O O1 0.042845 0.369647 0.085512
O O2 0.128749 0.569106 0.093284
O O3 0.237672 0.477971 0.075369
O O4 0.123209 0.480916 0.987465
O O5 0.268404 0.153977 0.861990
O O6 0.186493 0.197935 0.952543
O O7 0.207628 0.288449 0.846709
O O8 0.666008 0.633284 0.933357
O O9 0.593933 0.731193 0.872344
O O10 0.686441 0.806095 0.975669
O O11 0.850295 0.700589 0.750000
O O12 0.708508 0.590231 0.831935
O O13 0.749761 0.775504 0.809037
O O14 0.014895 0.137266 0.457335
O O15 0.810560 0.621120 0.250000
#
# Coordination Sequence:
#
# PCOD9578084 Si02
#       7
#    12  12  12  12  12  12  12
#     4  10  21  37  62  87 120 148 195 256 311 370
#     4  10  21  34  52  80 115 155 193 243 295 347
#     4  10  20  36  55  83 114 152 191 244 303 359
#     4  10  20  37  55  81 119 160 201 248 289 354
#     4  11  19  30  46  72 109 149 190 239 293 350
#     4  10  21  37  59  87 116 152 196 252 312 369
#     4  11  20  35  57  78 116 162 205 233 287 359
#
# _framework density 19.273015000000001
#
# number of rings (size 3 to 8) (size 9 to 14) (size 15 to 20)
#    0.000    1.714    2.857    4.286    2.000    0.000 
#    0.857    3.571    0.000    0.000    0.000    0.000 
#    0.000    0.000    0.000    0.000    0.000    0.000 
#
# Total GULP energy -467629.531979 kJ/mol
# GULP energy per Si atom -5567.018238 kJ/mol
# Density = 1.922915 g / cm^3
# Si number density = 19.273015 Si / 1000 Ang^3
#
#
#
# Elastic Constant Matrix: (Units=GPa)
#
#
# Indices 1 2 3 4 5 6 
#
# 1 93.9845 43.2227 36.6290 0.0000 5.4633 0.0000
# 2 43.2227 93.9845 36.6290 0.0000 -5.4633 0.0000
# 3 36.6290 36.6290 111.0203 0.0000 0.0000 0.0000
# 4 0.0000 0.0000 0.0000 20.4010 0.0000 -5.4633
# 5 5.4633 -5.4633 0.0000 0.0000 20.4010 0.0000
# 6 0.0000 0.0000 0.0000 -5.4633 0.0000 25.3809
#
#
#
# Elastic Compliance Matrix: (Units=1/GPa)
#
#
# Indices 1 2 3 4 5 6 
#
# 1 0.014876 -0.006029 -0.002919 0.000000 -0.005598 0.000000
# 2 -0.006029 0.014876 -0.002919 0.000000 0.005598 0.000000
# 3 -0.002919 -0.002919 0.010933 0.000000 0.000000 0.000000
# 4 0.000000 0.000000 0.000000 0.052016 0.000000 0.011197
# 5 -0.005598 0.005598 0.000000 0.000000 0.052016 0.000000
# 6 0.000000 0.000000 0.000000 0.011197 0.000000 0.041810
#
#
# Mechanical properties :
#
#
# Convention : Reuss Voigt Hill
#
# Bulk Modulus (GPa) = 58.99176 59.10566 59.04871
# Shear Modulus (GPa) = 23.15785 25.40384 24.28084
#
# Velocity S-wave (km/s) = 3.47013 3.63451 3.55327
# Velocity P-wave (km/s) = 6.83598 6.95320 6.89484
#
# Compressibility (1/GPa) = 0.01695152
#
# Stress axis : x y z
#
# Youngs Moduli (GPa) = 67.22342 67.22342 91.46327
#
# Poissons Ratio (x) = 0.40530 0.26696
# Poissons Ratio (y) = 0.40530 0.26696
# Poissons Ratio (z) = 0.19621 0.19621
#
# Static dielectric constant tensor:
#      x y z
#    x 1.714460 0.000000 0.000000 
#    y 0.000000 1.714460 0.000000 
#    z 0.000000 0.000000 1.750390 
# 
# From -- ./inp_files/3917.got.cif
#   From: 2010.05.17/outbox.cif.g08.bks.cpg/sg163_2_cif.got.tgz:3917.got - 2010.05.20 10:56:03.
