data_PCOD9578124
_publ_section_title
;
Structure prediction by ZEFSAII (Michael W. Deem and Ramdas Pophale) SiO2 
 PCOD9578124
Probable space group: P -3 1 C
;
_chemical_formula_sum "Si O2"
_cell_formula_units_Z 90
_cell_length_a 20.676415
_cell_length_b 20.676415
_cell_length_c 15.379528
_cell_angle_alpha 90.000000
_cell_angle_beta 90.000000
_cell_angle_gamma 120.000000
_cell_volume 5694.087277
_symmetry_space_group_name_H-M "P -3 1 C"
_symmetry_group_IT_number 163
_symmetry_cell_setting 'hexagonal'
loop_
_space_group_symop_operation_xyz
x,y,z
-y,x-y,z
-x+y,-x,z
-y,-x,1/2-z
-x+y,y,1/2-z
x,x-y,1/2-z
-x,-y,-z
y,-x+y,-z
x-y,x,-z
y,x,1/2+z
x-y,-y,1/2+z
-x,-x+y,1/2+z
loop_
_atom_site_type_symbol
_atom_site_label
_atom_site_fract_x
_atom_site_fract_y
_atom_site_fract_z
Si Si1 0.067348 0.661467 0.218288
Si Si2 0.966280 0.568452 0.079866
Si Si3 0.811677 0.449554 0.339328
Si Si4 0.778604 0.285865 0.593304
Si Si5 0.428086 0.622330 0.341014
Si Si6 0.515212 0.307223 0.096283
Si Si7 0.426857 0.983424 0.616254
Si Si8 0.802187 0.604373 0.750000
O O1 0.128873 0.638997 0.186081
O O2 0.110891 0.750695 0.231470
O O3 0.012492 0.640562 0.137878
O O4 0.026321 0.611803 0.303327
O O5 0.880808 0.534090 0.110766
O O6 0.991646 0.508899 0.109743
O O7 0.986362 0.583511 0.977404
O O8 0.814964 0.407482 0.250000
O O9 0.752422 0.478293 0.343059
O O10 0.782788 0.380656 0.407400
O O11 0.893685 0.516554 0.365832
O O12 0.692134 0.257346 0.608886
O O13 0.827864 0.374861 0.607087
O O14 0.783866 0.267129 0.495230
O O15 0.796616 0.242974 0.666865
O O16 0.387458 0.612543 0.250000
#
# Coordination Sequence:
#
# PCOD9578124 Si02
#       8
#    12  12  12  12  12  12  12   6
#     4  11  21  35  50  70  94 122 156 206 251 307
#     4  10  22  33  54  71  95 128 166 206 252 309
#     4  11  23  39  54  70  95 132 172 217 260 300
#     4  11  20  30  42  68  90 116 146 187 254 304
#     4  11  19  29  45  62  92 118 144 188 253 317
#     4  11  23  36  51  72  95 127 168 215 255 302
#     4  10  21  35  52  73  93 130 166 204 257 306
#     4  10  22  30  50  70  94 118 144 200 260 306
#
# _framework density 15.805869
#
# number of rings (size 3 to 8) (size 9 to 14) (size 15 to 20)
#    0.000    1.333    2.667    5.333    9.333    0.000 
#    0.000    0.000    0.000    0.000    0.000    0.000 
#    0.000    0.000    0.000    0.000    0.000    0.000 
#
# Total GULP energy -501277.025641 kJ/mol
# GULP energy per Si atom -5569.744729 kJ/mol
# Density = 1.576989 g / cm^3
# Si number density = 15.805869 Si / 1000 Ang^3
#
#
#
# Elastic Constant Matrix: (Units=GPa)
#
#
# Indices 1 2 3 4 5 6 
#
# 1 74.7324 28.9174 22.5867 0.0000 -3.8143 0.0000
# 2 28.9174 74.7324 22.5867 0.0000 3.8143 0.0000
# 3 22.5867 22.5867 77.6824 0.0000 0.0000 0.0000
# 4 0.0000 0.0000 0.0000 13.8772 0.0000 3.8143
# 5 -3.8143 3.8143 0.0000 0.0000 13.8772 0.0000
# 6 0.0000 0.0000 0.0000 3.8143 0.0000 22.9075
#
#
#
# Elastic Compliance Matrix: (Units=1/GPa)
#
#
# Indices 1 2 3 4 5 6 
#
# 1 0.016961 -0.005913 -0.003212 0.000000 0.006287 0.000000
# 2 -0.005913 0.016961 -0.003212 0.000000 -0.006287 0.000000
# 3 -0.003212 -0.003212 0.014741 0.000000 0.000000 0.000000
# 4 0.000000 0.000000 0.000000 0.075517 0.000000 -0.012574
# 5 0.006287 -0.006287 0.000000 0.000000 0.075517 0.000000
# 6 0.000000 0.000000 0.000000 -0.012574 0.000000 0.045748
#
#
# Mechanical properties :
#
#
# Convention : Reuss Voigt Hill
#
# Bulk Modulus (GPa) = 41.68812 41.70318 41.69565
# Shear Modulus (GPa) = 17.97818 20.33613 19.15715
#
# Velocity S-wave (km/s) = 3.37625 3.59084 3.48520
# Velocity P-wave (km/s) = 6.45222 6.60561 6.52936
#
# Compressibility (1/GPa) = 0.02398765
#
# Stress axis : x y z
#
# Youngs Moduli (GPa) = 58.95944 58.95944 67.83849
#
# Poissons Ratio (x) = 0.34862 0.21791
# Poissons Ratio (y) = 0.34862 0.21791
# Poissons Ratio (z) = 0.18939 0.18939
#
# Static dielectric constant tensor:
#      x y z
#    x 1.570220 0.000000 0.000000 
#    y 0.000000 1.570220 0.000000 
#    z 0.000000 0.000000 1.630210 
# 
# From -- ./inp_files/2744.got.cif
#   From: 2010.05.17/outbox.cif.g08.bks.cpg/sg163_2_cif.got.tgz:2744.got - 2010.05.20 10:56:03.
