data_PCOD9578072
_publ_section_title
;
Structure prediction by ZEFSAII (Michael W. Deem and Ramdas Pophale) SiO2 
 PCOD9578072
Probable space group: P -3 1 C
;
_chemical_formula_sum "Si O2"
_cell_formula_units_Z 72
_cell_length_a 23.430878
_cell_length_b 23.430878
_cell_length_c 9.247009
_cell_angle_alpha 90.000000
_cell_angle_beta 90.000000
_cell_angle_gamma 120.000000
_cell_volume 4396.519842
_symmetry_space_group_name_H-M "P -3 1 C"
_symmetry_group_IT_number 163
_symmetry_cell_setting 'hexagonal'
loop_
_space_group_symop_operation_xyz
x,y,z
-y,x-y,z
-x+y,-x,z
-y,-x,1/2-z
-x+y,y,1/2-z
x,x-y,1/2-z
-x,-y,-z
y,-x+y,-z
x-y,x,-z
y,x,1/2+z
x-y,-y,1/2+z
-x,-x+y,1/2+z
loop_
_atom_site_type_symbol
_atom_site_label
_atom_site_fract_x
_atom_site_fract_y
_atom_site_fract_z
Si Si1 0.269442 0.869167 0.915547
Si Si2 0.400275 0.130833 0.084453
Si Si3 0.265997 0.200760 0.578705
Si Si4 0.666083 0.467231 0.577628
Si Si5 0.734003 0.799240 0.078705
Si Si6 0.666083 0.467231 0.922372
O O1 0.200881 0.799119 0.913584
O O2 0.286592 0.891646 0.750000
O O3 0.321218 0.852814 0.990592
O O4 0.252676 0.916508 0.008354
O O5 0.336169 0.083492 0.991646
O O6 0.468404 0.147186 0.009408
O O7 0.211422 0.211422 0.500000
O O8 0.266587 0.211520 0.750000
O O9 0.256730 0.128365 0.555298
O O10 0.666721 0.479196 0.750000
O O11 0.598073 0.401927 0.540834
O O12 0.728028 0.456056 0.548954
#
# Coordination Sequence:
#
# PCOD9578072 Si02
#       6
#    12  12  12  12  12  12
#     4   9  17  29  45  66  93 125 161 201 242 283
#     4   9  17  29  45  66  93 125 161 201 242 283
#     4  10  20  34  54  79 104 129 157 190 228 271
#     4   9  16  26  41  62  90 125 165 208 253 299
#     4  10  20  34  54  79 104 129 157 190 228 271
#     4   9  16  26  41  62  90 125 165 208 253 299
#
# _framework density 16.376591000000001
#
# number of rings (size 3 to 8) (size 9 to 14) (size 15 to 20)
#    0.000    2.667    0.000    2.333    0.000    8.000 
#    0.000    0.000    0.000    3.333    0.000    0.000 
#    0.000    0.000    0.000    0.000    0.000    0.000 
#
# Total GULP energy -401343.960708 kJ/mol
# GULP energy per Si atom -5574.221677 kJ/mol
# Density = 1.633932 g / cm^3
# Si number density = 16.376591 Si / 1000 Ang^3
#
#
#
# Elastic Constant Matrix: (Units=GPa)
#
#
# Indices 1 2 3 4 5 6 
#
# 1 74.0782 42.1425 65.0126 0.0000 0.0000 0.0000
# 2 42.1425 74.0782 65.0126 0.0000 0.0000 0.0000
# 3 65.0126 65.0126 112.0135 0.0000 0.0000 0.0000
# 4 0.0000 0.0000 0.0000 24.6212 0.0000 0.0000
# 5 0.0000 0.0000 0.0000 0.0000 24.6212 0.0000
# 6 0.0000 0.0000 0.0000 0.0000 0.0000 15.9678
#
#
#
# Elastic Compliance Matrix: (Units=1/GPa)
#
#
# Indices 1 2 3 4 5 6 
#
# 1 0.027925 -0.003388 -0.014241 0.000000 0.000000 0.000000
# 2 -0.003388 0.027925 -0.014241 0.000000 0.000000 0.000000
# 3 -0.014241 -0.014241 0.025459 0.000000 0.000000 0.000000
# 4 0.000000 0.000000 0.000000 0.040615 0.000000 0.000000
# 5 0.000000 0.000000 0.000000 0.000000 0.040615 0.000000
# 6 0.000000 0.000000 0.000000 0.000000 0.000000 0.062626
#
#
# Mechanical properties :
#
#
# Convention : Reuss Voigt Hill
#
# Bulk Modulus (GPa) = 56.92229 67.16727 62.04478
# Shear Modulus (GPa) = 16.96276 18.90887 17.93581
#
# Velocity S-wave (km/s) = 3.22187 3.40167 3.31299
# Velocity P-wave (km/s) = 6.97670 7.51876 7.25279
#
# Compressibility (1/GPa) = 0.01756781
#
# Stress axis : x y z
#
# Youngs Moduli (GPa) = 35.80999 35.80999 39.27885
#
# Poissons Ratio (x) = 0.12132 0.55939
# Poissons Ratio (y) = 0.12132 0.55939
# Poissons Ratio (z) = 0.50999 0.50999
#
# Static dielectric constant tensor:
#      x y z
#    x 1.539970 0.000000 0.000000 
#    y 0.000000 1.539970 0.000000 
#    z 0.000000 0.000000 1.549560 
# 
# From -- ./inp_files/1241.got.cif
#   From: 2010.05.17/outbox.cif.g08.bks.cpg/sg163_1_cif.got.tgz:1241.got - 2010.05.20 10:56:03.
