data_PCOD9578743
_publ_section_title
;
Structure prediction by ZEFSAII (Michael W. Deem and Ramdas Pophale) SiO2 
 PCOD9578743
Probable space group: P -3 M 1
;
_chemical_formula_sum "Si O2"
_cell_formula_units_Z 60
_cell_length_a 17.399564
_cell_length_b 17.399564
_cell_length_c 11.002572
_cell_angle_alpha 90.000000
_cell_angle_beta 90.000000
_cell_angle_gamma 120.000000
_cell_volume 2884.706164
_symmetry_space_group_name_H-M "P -3 M 1"
_symmetry_group_IT_number 164
_symmetry_cell_setting 'hexagonal'
loop_
_space_group_symop_operation_xyz
x,y,z
-y,x-y,z
-x+y,-x,z
x-y,-y,-z
-x,-x+y,-z
y,x,-z
-x,-y,-z
y,-x+y,-z
x-y,x,-z
-x+y,y,z
x,x-y,z
-y,-x,z
loop_
_atom_site_type_symbol
_atom_site_label
_atom_site_fract_x
_atom_site_fract_y
_atom_site_fract_z
Si Si1 0.334258 0.482377 0.029318
Si Si2 0.629445 0.720946 0.793760
Si Si3 0.850400 0.516770 0.703950
Si Si4 0.665691 0.148271 0.438502
Si Si5 0.178355 0.177236 0.853912
O O1 0.246361 0.492721 0.025921
O O2 0.422293 0.577708 0.014061
O O3 0.419425 0.325520 0.081549
O O4 0.337888 0.446334 0.163759
O O5 0.629494 0.814747 0.794479
O O6 0.575962 0.669276 0.675286
O O7 0.732237 0.751017 0.792113
O O8 0.756556 0.513111 0.704738
O O9 0.834647 0.417324 0.703415
O O10 0.891433 0.555293 0.572260
O O11 0.578983 0.157965 0.427807
O O12 0.754437 0.245563 0.433078
O O13 0.079392 0.158783 0.827701
O O14 0.188780 0.094390 0.819559
O O15 0.189865 0.189865 0.000000
#
# Coordination Sequence:
#
# PCOD9578743 Si02
#       5
#    12  12  12  12  12
#     4   9  15  23  36  58  93 138 183 218 243 269
#     4   9  17  26  39  65  98 126 155 199 252 299
#     4   8  13  20  32  52  82 127 182 228 252 266
#     4   9  15  23  36  58  93 138 183 218 243 269
#     4   9  17  31  52  76  98 119 146 188 248 318
#
# _framework density 20.799346
#
# number of rings (size 3 to 8) (size 9 to 14) (size 15 to 20)
#    0.000    3.200    0.000    1.400    0.000    4.000 
#    0.000    2.000    0.000    2.400    0.000    2.800 
#    0.000   11.200    0.000   13.200    0.000  194.400 
#
# Total GULP energy -334914.429796 kJ/mol
# GULP energy per Si atom -5581.907163 kJ/mol
# Density = 2.075201 g / cm^3
# Si number density = 20.799346 Si / 1000 Ang^3
#
#
#
# Elastic Constant Matrix: (Units=GPa)
#
#
# Indices 1 2 3 4 5 6 
#
# 1 89.0031 43.8647 70.7514 5.5645 0.0000 0.0000
# 2 43.8647 89.0031 70.7514 -5.5645 0.0000 0.0000
# 3 70.7514 70.7514 192.0161 0.0000 0.0000 0.0000
# 4 5.5645 -5.5645 0.0000 9.2077 0.0000 0.0000
# 5 0.0000 0.0000 0.0000 0.0000 9.2077 5.5645
# 6 0.0000 0.0000 0.0000 0.0000 5.5645 22.5692
#
#
#
# Elastic Compliance Matrix: (Units=1/GPa)
#
#
# Indices 1 2 3 4 5 6 
#
# 1 0.019210 -0.006823 -0.004564 -0.015732 0.000000 0.000000
# 2 -0.006823 0.019210 -0.004564 0.015732 0.000000 0.000000
# 3 -0.004564 -0.004564 0.008571 0.000000 0.000000 0.000000
# 4 -0.015732 0.015732 0.000000 0.127619 0.000000 0.000000
# 5 0.000000 0.000000 0.000000 0.000000 0.127619 -0.031465
# 6 0.000000 0.000000 0.000000 0.000000 -0.031465 0.052066
#
#
# Mechanical properties :
#
#
# Convention : Reuss Voigt Hill
#
# Bulk Modulus (GPa) = 66.27454 82.30638 74.29046
# Shear Modulus (GPa) = 12.78029 20.50726 16.64378
#
# Velocity S-wave (km/s) = 2.48151 3.14340 2.83186
# Velocity P-wave (km/s) = 6.33589 7.26857 6.81820
#
# Compressibility (1/GPa) = 0.01508875
#
# Stress axis : x y z
#
# Youngs Moduli (GPa) = 52.05619 52.05619 116.66668
#
# Poissons Ratio (x) = 0.35517 0.53249
# Poissons Ratio (y) = 0.35517 0.53249
# Poissons Ratio (z) = 0.23760 0.23760
#
# Static dielectric constant tensor:
#      x y z
#    x 1.730400 0.000000 0.000000 
#    y 0.000000 1.730400 0.000000 
#    z 0.000000 0.000000 1.760960 
# 
# From -- ./inp_files/3317.got.cif
#   From: 2010.05.17/outbox.cif.g08.bks.cpg/sg164_2_cif.got.tgz:3317.got - 2010.05.20 10:58:56.
