data_PCOD9578341
_publ_section_title
;
Structure prediction by ZEFSAII (Michael W. Deem and Ramdas Pophale) SiO2 
 PCOD9578341
Probable space group: P -3 M 1
;
_chemical_formula_sum "Si O2"
_cell_formula_units_Z 48
_cell_length_a 19.831478
_cell_length_b 19.831478
_cell_length_c 7.042950
_cell_angle_alpha 90.000000
_cell_angle_beta 90.000000
_cell_angle_gamma 120.000000
_cell_volume 2398.807522
_symmetry_space_group_name_H-M "P -3 M 1"
_symmetry_group_IT_number 164
_symmetry_cell_setting 'hexagonal'
loop_
_space_group_symop_operation_xyz
x,y,z
-y,x-y,z
-x+y,-x,z
x-y,-y,-z
-x,-x+y,-z
y,x,-z
-x,-y,-z
y,-x+y,-z
x-y,x,-z
-x+y,y,z
x,x-y,z
-y,-x,z
loop_
_atom_site_type_symbol
_atom_site_label
_atom_site_fract_x
_atom_site_fract_y
_atom_site_fract_z
Si Si1 0.993432 0.422091 0.270664
Si Si2 0.965273 0.183691 0.810930
Si Si3 0.097117 0.343190 0.668671
Si Si4 0.607080 0.876536 0.222506
O O1 0.971170 0.485585 0.205768
O O2 0.935646 0.330499 0.237031
O O3 0.000000 0.428778 0.500000
O O4 0.077085 0.438657 0.192937
O O5 0.897720 0.102281 0.724234
O O6 0.919649 0.228720 0.879375
O O7 0.036580 0.251110 0.693113
O O8 0.000000 0.168032 0.000000
O O9 0.180809 0.361618 0.739488
O O10 0.107160 0.365499 0.444993
O O11 0.569191 0.784596 0.190353
#
# Coordination Sequence:
#
# PCOD9578341 Si02
#       4
#    12  12  12  12
#     4   8  13  22  39  63  86 105 129 166 206 238
#     4  10  18  27  40  60  84 107 135 174 217 255
#     4   9  16  28  45  62  81 111 150 180 203 243
#     4   8  15  27  43  62  82 109 145 177 204 242
#
# _framework density 20.009941999999999
#
# number of rings (size 3 to 8) (size 9 to 14) (size 15 to 20)
#    0.000    3.250    0.000    3.000    0.000    0.000 
#    0.000    1.250    0.000   17.500    0.000    7.000 
#    0.000   59.000    0.000    1.500    0.000   10.000 
#
# Total GULP energy -267322.734463 kJ/mol
# GULP energy per Si atom -5569.223635 kJ/mol
# Density = 1.996440 g / cm^3
# Si number density = 20.009942 Si / 1000 Ang^3
#
#
#
# Elastic Constant Matrix: (Units=GPa)
#
#
# Indices 1 2 3 4 5 6 
#
# 1 124.3340 75.3813 7.6943 -1.6056 0.0000 0.0000
# 2 75.3813 124.3340 7.6943 1.6056 0.0000 0.0000
# 3 7.6943 7.6943 64.5853 0.0000 0.0000 0.0000
# 4 -1.6056 1.6056 0.0000 14.4838 0.0000 0.0000
# 5 0.0000 0.0000 0.0000 0.0000 14.4838 -1.6056
# 6 0.0000 0.0000 0.0000 0.0000 -1.6056 24.4764
#
#
#
# Elastic Compliance Matrix: (Units=1/GPa)
#
#
# Indices 1 2 3 4 5 6 
#
# 1 0.012816 -0.007762 -0.000602 0.002281 0.000000 0.000000
# 2 -0.007762 0.012816 -0.000602 -0.002281 0.000000 0.000000
# 3 -0.000602 -0.000602 0.015627 0.000000 0.000000 0.000000
# 4 0.002281 -0.002281 0.000000 0.069548 0.000000 0.000000
# 5 0.000000 0.000000 0.000000 0.000000 0.069548 0.004562
# 6 0.000000 0.000000 0.000000 0.000000 0.004562 0.041155
#
#
# Mechanical properties :
#
#
# Convention : Reuss Voigt Hill
#
# Bulk Modulus (GPa) = 42.87121 54.97704 48.92412
# Shear Modulus (GPa) = 20.22514 25.52102 22.87308
#
# Velocity S-wave (km/s) = 3.18269 3.57517 3.38462
# Velocity P-wave (km/s) = 5.91417 6.67660 6.30692
#
# Compressibility (1/GPa) = 0.02332568
#
# Stress axis : x y z
#
# Youngs Moduli (GPa) = 78.03041 78.03041 63.99247
#
# Poissons Ratio (x) = 0.60567 0.03853
# Poissons Ratio (y) = 0.60567 0.03853
# Poissons Ratio (z) = 0.04698 0.04698
#
# Static dielectric constant tensor:
#      x y z
#    x 1.709270 0.000000 0.000000 
#    y 0.000000 1.709270 0.000000 
#    z 0.000000 0.000000 1.900680 
# 
# From -- ./inp_files/1411.got.cif
#   From: 2010.05.17/outbox.cif.g08.bks.cpg/sg164_1_cif.got.tgz:1411.got - 2010.05.20 10:58:56.
