data_PCOD9578787
_publ_section_title
;
Structure prediction by ZEFSAII (Michael W. Deem and Ramdas Pophale) SiO2 
 PCOD9578787
Probable space group: P -3 C 1
;
_chemical_formula_sum "Si O2"
_cell_formula_units_Z 84
_cell_length_a 32.639056
_cell_length_b 32.639056
_cell_length_c 5.581969
_cell_angle_alpha 90.000000
_cell_angle_beta 90.000000
_cell_angle_gamma 120.000000
_cell_volume 5149.834007
_symmetry_space_group_name_H-M "P -3 C 1"
_symmetry_group_IT_number 165
_symmetry_cell_setting 'hexagonal'
loop_
_space_group_symop_operation_xyz
x,y,z
-y,x-y,z
-x+y,-x,z
x-y,-y,1/2-z
-x,-x+y,1/2-z
y,x,1/2-z
-x,-y,-z
y,-x+y,-z
x-y,x,-z
-x+y,y,1/2+z
x,x-y,1/2+z
-y,-x,1/2+z
loop_
_atom_site_type_symbol
_atom_site_label
_atom_site_fract_x
_atom_site_fract_y
_atom_site_fract_z
Si Si1 0.544874 0.071242 0.657381
Si Si2 0.782215 0.176065 0.174391
Si Si3 0.339799 0.000000 0.750000
Si Si4 0.104145 0.685786 0.278316
Si Si5 0.566817 0.177546 0.662859
Si Si6 0.906093 0.557045 0.718258
Si Si7 0.340058 0.000000 0.250000
Si Si8 0.232156 0.723171 0.321868
O O1 0.525303 0.046976 0.405069
O O2 0.542444 0.120041 0.660112
O O3 0.598737 0.083781 0.675455
O O4 0.812104 0.191354 0.419701
O O5 0.740949 0.121691 0.189467
O O6 0.751807 0.203334 0.176988
O O7 0.391108 0.047201 0.742169
O O8 0.316376 0.000090 0.499474
O O9 0.117676 0.669879 0.524217
O O10 0.121822 0.679832 0.017748
O O11 0.594008 0.192088 0.407032
O O12 0.532506 0.199119 0.681071
O O13 0.953900 0.607815 0.738242
O O14 0.261024 0.738079 0.573291
#
# Coordination Sequence:
#
# PCOD9578787 Si02
#       8
#    12  12   6  12  12  12   6  12
#     4  10  21  32  43  68  87 102 135 165 193 241
#     4  10  21  33  47  73  95 116 137 166 214 250
#     4   8  16  30  46  73  86 120 156 168 198 228
#     4  10  19  31  53  68  96 120 144 177 198 244
#     4  10  21  33  51  69  84  99 125 159 184 230
#     4  10  19  31  49  67  89 120 144 171 205 227
#     4   8  16  30  44  65  90 114 150 174 192 236
#     4  10  21  36  51  66  88 104 126 156 199 241
#
# _framework density 16.311205999999999
#
# number of rings (size 3 to 8) (size 9 to 14) (size 15 to 20)
#    0.000    2.286    0.000    2.571    8.000    0.000 
#    0.000    0.714    0.000    5.714    0.000    0.000 
#    0.000    0.000    0.000    0.000    0.000    0.000 
#
# Total GULP energy -467938.871684 kJ/mol
# GULP energy per Si atom -5570.700853 kJ/mol
# Density = 1.627408 g / cm^3
# Si number density = 16.311206 Si / 1000 Ang^3
#
#
#
# Elastic Constant Matrix: (Units=GPa)
#
#
# Indices 1 2 3 4 5 6 
#
# 1 41.9196 4.1278 18.7722 1.4555 0.0000 0.0000
# 2 4.1278 41.9196 18.7722 -1.4555 0.0000 0.0000
# 3 18.7722 18.7722 194.2709 0.0000 0.0000 0.0000
# 4 1.4555 -1.4555 0.0000 14.8863 0.0000 0.0000
# 5 0.0000 0.0000 0.0000 0.0000 14.8863 1.4555
# 6 0.0000 0.0000 0.0000 0.0000 1.4555 18.8959
#
#
#
# Elastic Compliance Matrix: (Units=1/GPa)
#
#
# Indices 1 2 3 4 5 6 
#
# 1 0.025118 -0.001544 -0.002278 -0.002607 0.000000 0.000000
# 2 -0.001544 0.025118 -0.002278 0.002607 0.000000 0.000000
# 3 -0.002278 -0.002278 0.005588 0.000000 0.000000 0.000000
# 4 -0.002607 0.002607 0.000000 0.067686 0.000000 0.000000
# 5 0.000000 0.000000 0.000000 0.000000 0.067686 -0.005213
# 6 0.000000 0.000000 0.000000 0.000000 -0.005213 0.053323
#
#
# Mechanical properties :
#
#
# Convention : Reuss Voigt Hill
#
# Bulk Modulus (GPa) = 22.92313 40.16160 31.54236
# Shear Modulus (GPa) = 18.43261 25.49621 21.96441
#
# Velocity S-wave (km/s) = 3.36528 3.95791 3.67356
# Velocity P-wave (km/s) = 5.40225 6.74998 6.11337
#
# Compressibility (1/GPa) = 0.04362406
#
# Stress axis : x y z
#
# Youngs Moduli (GPa) = 39.81237 39.81237 178.96511
#
# Poissons Ratio (x) = 0.06146 0.40767
# Poissons Ratio (y) = 0.06146 0.40767
# Poissons Ratio (z) = 0.09069 0.09069
#
# Static dielectric constant tensor:
#      x y z
#    x 1.564300 0.000000 0.000000 
#    y 0.000000 1.564300 0.000000 
#    z 0.000000 0.000000 1.679280 
# 
# From -- ./inp_files/270.got.cif
#   From: 2010.05.17/outbox.cif.g08.bks.cpg/sg165_1_cif.got.tgz:270.got - 2010.05.20 11:02:39.
