data_PCOD9578705
_publ_section_title
;
Structure prediction by ZEFSAII (Michael W. Deem and Ramdas Pophale) SiO2 
 PCOD9578705
Probable space group: P -3 M 1
;
_chemical_formula_sum "Si O2"
_cell_formula_units_Z 42
_cell_length_a 21.183775
_cell_length_b 21.183775
_cell_length_c 4.922002
_cell_angle_alpha 90.000000
_cell_angle_beta 90.000000
_cell_angle_gamma 120.000000
_cell_volume 1912.842126
_symmetry_space_group_name_H-M "P -3 M 1"
_symmetry_group_IT_number 164
_symmetry_cell_setting 'hexagonal'
loop_
_space_group_symop_operation_xyz
x,y,z
-y,x-y,z
-x+y,-x,z
x-y,-y,-z
-x,-x+y,-z
y,x,-z
-x,-y,-z
y,-x+y,-z
x-y,x,-z
-x+y,y,z
x,x-y,z
-y,-x,z
loop_
_atom_site_type_symbol
_atom_site_label
_atom_site_fract_x
_atom_site_fract_y
_atom_site_fract_z
Si Si1 0.000000 0.860875 0.500000
Si Si2 0.388220 0.922763 0.361246
Si Si3 0.280671 0.207726 0.127697
Si Si4 0.558796 0.707300 0.832434
O O1 0.038737 0.832613 0.704948
O O2 0.936697 0.873393 0.621704
O O3 0.465087 0.930173 0.279218
O O4 0.349815 0.863661 0.599850
O O5 0.407995 0.000000 0.500000
O O6 0.334885 0.894458 0.103133
O O7 0.283367 0.141684 0.964863
O O8 0.357677 0.247541 0.278414
O O9 0.271699 0.271699 0.000000
O O10 0.536180 0.768090 0.889021
#
# Coordination Sequence:
#
# PCOD9578705 Si02
#       4
#     6  12  12  12
#     4  10  21  36  54  78 113 160 214 264 310 360
#     4  11  23  42  68  97 128 167 212 262 320 384
#     4  10  21  34  53  80 114 155 202 255 309 365
#     4  11  24  40  64  96 132 168 207 261 323 383
#
# _framework density 21.956856999999999
#
# number of rings (size 3 to 8) (size 9 to 14) (size 15 to 20)
#    0.000    1.429    0.000    5.286    6.000    2.286 
#    0.000    0.000    0.000   16.000    0.000    0.000 
#    0.000    0.000    0.000    0.000    0.000    0.000 
#
# Total GULP energy -234127.545286 kJ/mol
# GULP energy per Si atom -5574.465364 kJ/mol
# Density = 2.190688 g / cm^3
# Si number density = 21.956857 Si / 1000 Ang^3
#
#
#
# Elastic Constant Matrix: (Units=GPa)
#
#
# Indices 1 2 3 4 5 6 
#
# 1 84.9840 40.3528 20.9533 0.0232 0.0000 0.0000
# 2 40.3528 84.9840 20.9533 -0.0232 0.0000 0.0000
# 3 20.9533 20.9533 71.6262 0.0000 0.0000 0.0000
# 4 0.0232 -0.0232 0.0000 28.8470 0.0000 0.0000
# 5 0.0000 0.0000 0.0000 0.0000 28.8470 0.0232
# 6 0.0000 0.0000 0.0000 0.0000 0.0232 22.3156
#
#
#
# Elastic Compliance Matrix: (Units=1/GPa)
#
#
# Indices 1 2 3 4 5 6 
#
# 1 0.015625 -0.006781 -0.002587 -0.000018 0.000000 0.000000
# 2 -0.006781 0.015625 -0.002587 0.000018 0.000000 0.000000
# 3 -0.002587 -0.002587 0.015475 0.000000 0.000000 0.000000
# 4 -0.000018 0.000018 0.000000 0.034666 0.000000 0.000000
# 5 0.000000 0.000000 0.000000 0.000000 0.034666 -0.000036
# 6 0.000000 0.000000 0.000000 0.000000 -0.000036 0.044812
#
#
# Mechanical properties :
#
#
# Convention : Reuss Voigt Hill
#
# Bulk Modulus (GPa) = 43.83315 45.12364 44.47839
# Shear Modulus (GPa) = 25.98987 26.62423 26.30705
#
# Velocity S-wave (km/s) = 3.44420 3.48598 3.46515
# Velocity P-wave (km/s) = 5.98526 6.06617 6.02585
#
# Compressibility (1/GPa) = 0.02281379
#
# Stress axis : x y z
#
# Youngs Moduli (GPa) = 64.00130 64.00130 64.62045
#
# Poissons Ratio (x) = 0.43401 0.16718
# Poissons Ratio (y) = 0.43401 0.16718
# Poissons Ratio (z) = 0.16557 0.16557
#
# Static dielectric constant tensor:
#      x y z
#    x 2.081880 0.000000 0.000000 
#    y 0.000000 2.081880 0.000000 
#    z 0.000000 0.000000 1.856930 
# 
# From -- ./inp_files/341.got.cif
#   From: 2010.05.17/outbox.cif.g08.bks.cpg/sg164_1_cif.got.tgz:341.got - 2010.05.20 10:58:56.
