data_PCOD9578556
_publ_section_title
;
Structure prediction by ZEFSAII (Michael W. Deem and Ramdas Pophale) SiO2 
 PCOD9578556
Probable space group: P -3 M 1
;
_chemical_formula_sum "Si O2"
_cell_formula_units_Z 60
_cell_length_a 12.818833
_cell_length_b 12.818833
_cell_length_c 26.138218
_cell_angle_alpha 90.000000
_cell_angle_beta 90.000000
_cell_angle_gamma 120.000000
_cell_volume 3719.662933
_symmetry_space_group_name_H-M "P -3 M 1"
_symmetry_group_IT_number 164
_symmetry_cell_setting 'hexagonal'
loop_
_space_group_symop_operation_xyz
x,y,z
-y,x-y,z
-x+y,-x,z
x-y,-y,-z
-x,-x+y,-z
y,x,-z
-x,-y,-z
y,-x+y,-z
x-y,x,-z
-x+y,y,z
x,x-y,z
-y,-x,z
loop_
_atom_site_type_symbol
_atom_site_label
_atom_site_fract_x
_atom_site_fract_y
_atom_site_fract_z
Si Si1 0.086080 0.419314 0.210827
Si Si2 0.751900 0.752079 0.694980
Si Si3 0.913726 0.332514 0.598179
Si Si4 0.751998 0.751998 0.000000
Si Si5 0.419442 0.333565 0.906461
Si Si6 0.000000 0.751856 0.500000
O O1 0.224087 0.448173 0.215719
O O2 0.080471 0.540235 0.220009
O O3 0.011042 0.317335 0.252203
O O4 0.047761 0.379195 0.152192
O O5 0.889731 0.779462 0.693812
O O6 0.684571 0.660477 0.648485
O O7 0.747370 0.873685 0.689974
O O8 0.923235 0.461618 0.596275
O O9 0.774255 0.225746 0.599584
O O10 0.972976 0.306923 0.548922
O O11 0.676920 0.685377 0.050641
O O12 0.881784 0.763568 0.001619
O O13 0.443341 0.221671 0.911396
O O14 0.542346 0.457655 0.914306
O O15 0.882453 0.764906 0.491434
#
# Coordination Sequence:
#
# PCOD9578556 Si02
#       6
#    12  12  12   6  12   6
#     4   9  17  30  50  74  97 121 152 194 242 288
#     4  10  20  33  50  72  99 131 165 201 239 282
#     4  10  20  34  53  76 101 129 162 202 246 289
#     4  10  20  32  46  66  94 128 162 194 232 280
#     4   9  17  30  49  72  95 120 153 195 241 285
#     4  10  20  34  54  78 104 134 166 200 238 284
#
# _framework density 16.130493999999999
#
# number of rings (size 3 to 8) (size 9 to 14) (size 15 to 20)
#    0.000    2.400    0.000    2.800    0.000    2.400 
#    0.000    4.000    0.000   11.200    0.000    0.000 
#    0.000    0.000    0.000    0.000    0.000    0.000 
#
# Total GULP energy -334650.201606 kJ/mol
# GULP energy per Si atom -5577.503360 kJ/mol
# Density = 1.609378 g / cm^3
# Si number density = 16.130494 Si / 1000 Ang^3
#
#
#
# Elastic Constant Matrix: (Units=GPa)
#
#
# Indices 1 2 3 4 5 6 
#
# 1 108.0131 70.5539 76.5423 0.5511 0.0000 0.0000
# 2 70.5539 108.0131 76.5423 -0.5511 0.0000 0.0000
# 3 76.5423 76.5423 128.3263 0.0000 0.0000 0.0000
# 4 0.5511 -0.5511 0.0000 23.6126 0.0000 0.0000
# 5 0.0000 0.0000 0.0000 0.0000 23.6126 0.5511
# 6 0.0000 0.0000 0.0000 0.0000 0.5511 18.7296
#
#
#
# Elastic Compliance Matrix: (Units=1/GPa)
#
#
# Indices 1 2 3 4 5 6 
#
# 1 0.019087 -0.007627 -0.006836 -0.000623 0.000000 0.000000
# 2 -0.007627 0.019087 -0.006836 0.000623 0.000000 0.000000
# 3 -0.006836 -0.006836 0.015947 0.000000 0.000000 0.000000
# 4 -0.000623 0.000623 0.000000 0.042379 0.000000 0.000000
# 5 0.000000 0.000000 0.000000 0.000000 0.042379 -0.001247
# 6 0.000000 0.000000 0.000000 0.000000 -0.001247 0.053428
#
#
# Mechanical properties :
#
#
# Convention : Reuss Voigt Hill
#
# Bulk Modulus (GPa) = 86.76763 87.95885 87.36324
# Shear Modulus (GPa) = 20.94270 21.23857 21.09064
#
# Velocity S-wave (km/s) = 3.60714 3.63253 3.61986
# Velocity P-wave (km/s) = 8.44136 8.49951 8.47048
#
# Compressibility (1/GPa) = 0.01152504
#
# Stress axis : x y z
#
# Youngs Moduli (GPa) = 52.39111 52.39111 62.70704
#
# Poissons Ratio (x) = 0.39958 0.42865
# Poissons Ratio (y) = 0.39958 0.42865
# Poissons Ratio (z) = 0.35813 0.35813
#
# Static dielectric constant tensor:
#      x y z
#    x 1.507160 0.000000 0.000000 
#    y 0.000000 1.507160 0.000000 
#    z 0.000000 0.000000 1.548230 
# 
# From -- ./inp_files/5209.got.cif
#   From: 2010.05.17/outbox.cif.g08.bks.cpg/sg164_3_cif.got.tgz:5209.got - 2010.05.20 10:58:56.
