data_PCOD9578032
_publ_section_title
;
Structure prediction by ZEFSAII (Michael W. Deem and Ramdas Pophale) SiO2 
 PCOD9578032
Probable space group: P -3 1 C
;
_chemical_formula_sum "Si O2"
_cell_formula_units_Z 66
_cell_length_a 12.080985
_cell_length_b 12.080985
_cell_length_c 27.864769
_cell_angle_alpha 90.000000
_cell_angle_beta 90.000000
_cell_angle_gamma 120.000000
_cell_volume 3522.011494
_symmetry_space_group_name_H-M "P -3 1 C"
_symmetry_group_IT_number 163
_symmetry_cell_setting 'hexagonal'
loop_
_space_group_symop_operation_xyz
x,y,z
-y,x-y,z
-x+y,-x,z
-y,-x,1/2-z
-x+y,y,1/2-z
x,x-y,1/2-z
-x,-y,-z
y,-x+y,-z
x-y,x,-z
y,x,1/2+z
x-y,-y,1/2+z
-x,-x+y,1/2+z
loop_
_atom_site_type_symbol
_atom_site_label
_atom_site_fract_x
_atom_site_fract_y
_atom_site_fract_z
Si Si1 0.750100 0.249900 0.750000
Si Si2 0.504362 0.221318 0.364626
Si Si3 0.866722 0.691306 0.048975
Si Si4 0.832057 0.702704 0.556223
Si Si5 0.731059 0.877765 0.693653
Si Si6 0.305419 0.138087 0.662233
O O1 0.804995 0.402498 0.750000
O O2 0.797132 0.208555 0.703251
O O3 0.624191 0.198248 0.365217
O O4 0.414103 0.164344 0.410684
O O5 0.414864 0.165051 0.318518
O O6 0.784809 0.760825 0.057402
O O7 0.014438 0.801956 0.051958
O O8 0.839245 0.632141 0.995181
O O9 0.808978 0.638564 0.608435
O O10 0.756350 0.878175 0.750000
O O11 0.760539 0.774577 0.669825
O O12 0.814880 0.017847 0.671025
#
# Coordination Sequence:
#
# PCOD9578032 Si02
#       6
#     6  12  12  12  12  12
#     4  10  26  46  56  84 126 170 204 250 278 342
#     4  10  24  42  58  84 126 164 203 253 284 344
#     4  10  19  38  58  99 126 145 197 249 313 358
#     4  10  19  33  66  92 119 156 190 247 316 367
#     4  12  23  39  66  98 118 155 192 258 318 354
#     4  12  21  41  65  96 125 147 199 255 311 365
#
# _framework density 18.739293
#
# number of rings (size 3 to 8) (size 9 to 14) (size 15 to 20)
#    0.545    0.727    5.455    0.727    0.000    3.636 
#    0.000    5.455    0.000    0.000    0.000    0.000 
#    0.000    0.000    0.000    0.000    0.000    0.000 
#
# Total GULP energy -367858.733577 kJ/mol
# GULP energy per Si atom -5573.617175 kJ/mol
# Density = 1.869664 g / cm^3
# Si number density = 18.739293 Si / 1000 Ang^3
#
#
#
# Elastic Constant Matrix: (Units=GPa)
#
#
# Indices 1 2 3 4 5 6 
#
# 1 41.9604 -14.6788 2.7191 0.0000 -4.7183 0.0000
# 2 -14.6788 41.9604 2.7191 0.0000 4.7183 0.0000
# 3 2.7191 2.7191 131.0213 0.0000 0.0000 0.0000
# 4 0.0000 0.0000 0.0000 2.8989 0.0000 4.7183
# 5 -4.7183 4.7183 0.0000 0.0000 2.8989 0.0000
# 6 0.0000 0.0000 0.0000 4.7183 0.0000 28.3196
#
#
#
# Elastic Compliance Matrix: (Units=1/GPa)
#
#
# Indices 1 2 3 4 5 6 
#
# 1 0.030516 0.006291 -0.000764 0.000000 0.039429 0.000000
# 2 0.006291 0.030516 -0.000764 0.000000 -0.039429 0.000000
# 3 -0.000764 -0.000764 0.007664 0.000000 0.000000 0.000000
# 4 0.000000 0.000000 0.000000 0.473318 0.000000 -0.078859
# 5 0.039429 -0.039429 0.000000 0.000000 0.473318 0.000000
# 6 0.000000 0.000000 0.000000 -0.078859 0.000000 0.048450
#
#
# Mechanical properties :
#
#
# Convention : Reuss Voigt Hill
#
# Bulk Modulus (GPa) = 12.78405 21.82902 17.30654
# Shear Modulus (GPa) = 4.62822 21.76897 13.19859
#
# Velocity S-wave (km/s) = 1.57326 3.41203 2.65680
# Velocity P-wave (km/s) = 3.18388 5.21505 4.32052
#
# Compressibility (1/GPa) = 0.07822246
#
# Stress axis : x y z
#
# Youngs Moduli (GPa) = 32.76976 32.76976 130.47930
#
# Poissons Ratio (x) = -0.20615 0.09967
# Poissons Ratio (y) = -0.20615 0.09967
# Poissons Ratio (z) = 0.02503 0.02503
#
# Static dielectric constant tensor:
#      x y z
#    x 1.626080 0.000000 0.000000 
#    y 0.000000 1.626080 0.000000 
#    z 0.000000 0.000000 1.694060 
# 
# From -- ./inp_files/4348.got.cif
#   From: 2010.05.17/outbox.cif.g08.bks.cpg/sg163_3_cif.got.tgz:4348.got - 2010.05.20 10:56:03.
