data_PCOD9578096
_publ_section_title
;
Structure prediction by ZEFSAII (Michael W. Deem and Ramdas Pophale) SiO2 
 PCOD9578096
Probable space group: P -3 1 C
;
_chemical_formula_sum "Si O2"
_cell_formula_units_Z 66
_cell_length_a 15.255101
_cell_length_b 15.255101
_cell_length_c 20.004164
_cell_angle_alpha 90.000000
_cell_angle_beta 90.000000
_cell_angle_gamma 120.000000
_cell_volume 4031.635055
_symmetry_space_group_name_H-M "P -3 1 C"
_symmetry_group_IT_number 163
_symmetry_cell_setting 'hexagonal'
loop_
_space_group_symop_operation_xyz
x,y,z
-y,x-y,z
-x+y,-x,z
-y,-x,1/2-z
-x+y,y,1/2-z
x,x-y,1/2-z
-x,-y,-z
y,-x+y,-z
x-y,x,-z
y,x,1/2+z
x-y,-y,1/2+z
-x,-x+y,1/2+z
loop_
_atom_site_type_symbol
_atom_site_label
_atom_site_fract_x
_atom_site_fract_y
_atom_site_fract_z
Si Si1 0.666803 0.121616 0.879196
Si Si2 0.035435 0.617038 0.983603
Si Si3 0.128135 0.669081 0.120705
Si Si4 0.550429 0.321747 0.394540
Si Si5 0.389954 0.988819 0.752613
Si Si6 0.765549 0.531097 0.250000
O O1 0.765280 0.229801 0.873558
O O2 0.570194 0.138731 0.883864
O O3 0.648031 0.048774 0.815740
O O4 0.667766 0.059475 0.943938
O O5 0.132657 0.666308 0.933693
O O6 0.070611 0.672065 0.054162
O O7 0.000000 0.500000 0.000000
O O8 0.062780 0.652932 0.186145
O O9 0.576945 0.234052 0.412480
O O10 0.530076 0.300097 0.315232
O O11 0.482748 0.965496 0.750000
O O12 0.287903 0.884083 0.765916
#
# Coordination Sequence:
#
# PCOD9578096 Si02
#       6
#    12  12  12  12  12   6
#     4  10  20  38  52  79 108 146 186 221 267 324
#     4  10  22  35  48  78 111 144 179 235 265 318
#     4  10  22  33  58  73 110 149 183 220 266 327
#     4  10  22  31  53  77 105 151 186 216 269 338
#     4  10  21  36  51  79 109 143 184 229 265 320
#     4  12  20  34  56  80 114 144 178 240 278 320
#
# _framework density 16.370529000000001
#
# number of rings (size 3 to 8) (size 9 to 14) (size 15 to 20)
#    0.364    1.455    1.818    2.545   10.182    0.000 
#    0.545    1.818    0.000    0.000    0.000    0.000 
#    7.273    1.455    0.000    0.000    0.000    0.000 
#
# Total GULP energy -367595.430845 kJ/mol
# GULP energy per Si atom -5569.627740 kJ/mol
# Density = 1.633327 g / cm^3
# Si number density = 16.370529 Si / 1000 Ang^3
#
#
#
# Elastic Constant Matrix: (Units=GPa)
#
#
# Indices 1 2 3 4 5 6 
#
# 1 76.5060 31.8531 35.9779 0.0000 2.8284 0.0000
# 2 31.8531 76.5060 35.9779 0.0000 -2.8284 0.0000
# 3 35.9779 35.9779 101.7284 0.0000 0.0000 0.0000
# 4 0.0000 0.0000 0.0000 16.3768 0.0000 -2.8284
# 5 2.8284 -2.8284 0.0000 0.0000 16.3768 0.0000
# 6 0.0000 0.0000 0.0000 -2.8284 0.0000 22.3265
#
#
#
# Elastic Compliance Matrix: (Units=1/GPa)
#
#
# Indices 1 2 3 4 5 6 
#
# 1 0.017479 -0.005417 -0.004266 0.000000 -0.003954 0.000000
# 2 -0.005417 0.017479 -0.004266 0.000000 0.003954 0.000000
# 3 -0.004266 -0.004266 0.012847 0.000000 0.000000 0.000000
# 4 0.000000 0.000000 0.000000 0.062428 0.000000 0.007909
# 5 -0.003954 0.003954 0.000000 0.000000 0.062428 0.000000
# 6 0.000000 0.000000 0.000000 0.007909 0.000000 0.045792
#
#
# Mechanical properties :
#
#
# Convention : Reuss Voigt Hill
#
# Bulk Modulus (GPa) = 50.23325 51.37312 50.80319
# Shear Modulus (GPa) = 19.76405 21.07813 20.42109
#
# Velocity S-wave (km/s) = 3.47838 3.59216 3.53573
# Velocity P-wave (km/s) = 6.84719 6.97527 6.91153
#
# Compressibility (1/GPa) = 0.01990713
#
# Stress axis : x y z
#
# Youngs Moduli (GPa) = 57.21310 57.21310 77.83733
#
# Poissons Ratio (x) = 0.30994 0.33202
# Poissons Ratio (y) = 0.30994 0.33202
# Poissons Ratio (z) = 0.24405 0.24405
#
# Static dielectric constant tensor:
#      x y z
#    x 1.545710 0.000000 0.000000 
#    y 0.000000 1.545710 0.000000 
#    z 0.000000 0.000000 1.601210 
# 
# From -- ./inp_files/3607.got.cif
#   From: 2010.05.17/outbox.cif.g08.bks.cpg/sg163_2_cif.got.tgz:3607.got - 2010.05.20 10:56:03.
