data_PCOD9578474
_publ_section_title
;
Structure prediction by ZEFSAII (Michael W. Deem and Ramdas Pophale) SiO2 
 PCOD9578474
Probable space group: P -3 M 1
;
_chemical_formula_sum "Si O2"
_cell_formula_units_Z 72
_cell_length_a 16.961836
_cell_length_b 16.961836
_cell_length_c 17.603647
_cell_angle_alpha 90.000000
_cell_angle_beta 90.000000
_cell_angle_gamma 120.000000
_cell_volume 4386.104782
_symmetry_space_group_name_H-M "P -3 M 1"
_symmetry_group_IT_number 164
_symmetry_cell_setting 'hexagonal'
loop_
_space_group_symop_operation_xyz
x,y,z
-y,x-y,z
-x+y,-x,z
x-y,-y,-z
-x,-x+y,-z
y,x,-z
-x,-y,-z
y,-x+y,-z
x-y,x,-z
-x+y,y,z
x,x-y,z
-y,-x,z
loop_
_atom_site_type_symbol
_atom_site_label
_atom_site_fract_x
_atom_site_fract_y
_atom_site_fract_z
Si Si1 0.515088 0.848961 0.871505
Si Si2 0.962524 0.332542 0.811009
Si Si3 0.054568 0.757501 0.422272
Si Si4 0.145668 0.665332 0.335305
Si Si5 0.901552 0.278708 0.976310
Si Si6 0.187808 0.187512 0.268701
O O1 0.411668 0.823336 0.862371
O O2 0.529518 0.764759 0.852057
O O3 0.579799 0.938281 0.822726
O O4 0.545835 0.875160 0.959585
O O5 0.904016 0.342811 0.744854
O O6 0.910872 0.314571 0.891080
O O7 0.978554 0.248747 0.789036
O O8 0.145427 0.854574 0.432523
O O9 0.087766 0.688031 0.395133
O O10 0.000000 0.728091 0.500000
O O11 0.001151 0.771647 0.352080
O O12 0.148394 0.574197 0.351550
O O13 0.246443 0.753558 0.332665
O O14 0.825458 0.174543 0.979190
O O15 0.000000 0.296467 0.000000
O O16 0.191879 0.095940 0.254837
O O17 0.084663 0.169325 0.266179
#
# Coordination Sequence:
#
# PCOD9578474 Si02
#       6
#    12  12  12  12  12  12
#     4  10  20  33  50  71  94 121 155 198 245 289
#     4  10  19  33  50  69  95 128 163 195 233 285
#     4   9  18  32  50  72  97 125 157 193 233 280
#     4  10  20  33  50  72  98 127 159 197 238 279
#     4   9  18  31  47  66  90 121 156 195 238 282
#     4  10  19  31  49  73 101 130 160 196 236 279
#
# _framework density 16.415476999999999
#
# number of rings (size 3 to 8) (size 9 to 14) (size 15 to 20)
#    0.000    2.333    0.000    4.500    0.000    4.667 
#    0.000    0.000    0.000    4.833    0.000    0.000 
#    0.000   10.667    0.000    0.000    0.000    0.000 
#
# Total GULP energy -401465.322898 kJ/mol
# GULP energy per Si atom -5575.907262 kJ/mol
# Density = 1.637811 g / cm^3
# Si number density = 16.415477 Si / 1000 Ang^3
#
#
#
# Elastic Constant Matrix: (Units=GPa)
#
#
# Indices 1 2 3 4 5 6 
#
# 1 56.7986 9.8027 -7.9270 -6.8493 0.0000 0.0000
# 2 9.8027 56.7986 -7.9270 6.8493 0.0000 0.0000
# 3 -7.9270 -7.9270 38.6675 0.0000 0.0000 0.0000
# 4 -6.8493 6.8493 0.0000 11.2233 0.0000 0.0000
# 5 0.0000 0.0000 0.0000 0.0000 11.2233 -6.8493
# 6 0.0000 0.0000 0.0000 0.0000 -6.8493 23.4979
#
#
#
# Elastic Compliance Matrix: (Units=1/GPa)
#
#
# Indices 1 2 3 4 5 6 
#
# 1 0.020834 -0.005049 0.003236 0.015796 0.000000 0.000000
# 2 -0.005049 0.020834 0.003236 -0.015796 0.000000 0.000000
# 3 0.003236 0.003236 0.027188 0.000000 0.000000 0.000000
# 4 0.015796 -0.015796 0.000000 0.108379 0.000000 0.000000
# 5 0.000000 0.000000 0.000000 0.000000 0.108379 0.031591
# 6 0.000000 0.000000 0.000000 0.000000 0.031591 0.051765
#
#
# Mechanical properties :
#
#
# Convention : Reuss Voigt Hill
#
# Bulk Modulus (GPa) = 13.94654 15.57356 14.76005
# Shear Modulus (GPa) = 13.94954 19.74331 16.84643
#
# Velocity S-wave (km/s) = 2.91826 3.47180 3.20699
# Velocity P-wave (km/s) = 4.45751 5.05756 4.76698
#
# Compressibility (1/GPa) = 0.07170238
#
# Stress axis : x y z
#
# Youngs Moduli (GPa) = 47.99882 47.99882 36.78055
#
# Poissons Ratio (x) = 0.24234 -0.11902
# Poissons Ratio (y) = 0.24234 -0.11902
# Poissons Ratio (z) = -0.15532 -0.15532
#
# Static dielectric constant tensor:
#      x y z
#    x 1.537170 0.000000 0.000000 
#    y 0.000000 1.537170 0.000000 
#    z 0.000000 0.000000 1.554590 
# 
# From -- ./inp_files/4043.got.cif
#   From: 2010.05.17/outbox.cif.g08.bks.cpg/sg164_3_cif.got.tgz:4043.got - 2010.05.20 10:58:56.
