data_PCOD9578406
_publ_section_title
;
Structure prediction by ZEFSAII (Michael W. Deem and Ramdas Pophale) SiO2 
 PCOD9578406
Probable space group: P -3 M 1
;
_chemical_formula_sum "Si O2"
_cell_formula_units_Z 54
_cell_length_a 24.886147
_cell_length_b 24.886147
_cell_length_c 5.153128
_cell_angle_alpha 90.000000
_cell_angle_beta 90.000000
_cell_angle_gamma 120.000000
_cell_volume 2763.865381
_symmetry_space_group_name_H-M "P -3 M 1"
_symmetry_group_IT_number 164
_symmetry_cell_setting 'hexagonal'
loop_
_space_group_symop_operation_xyz
x,y,z
-y,x-y,z
-x+y,-x,z
x-y,-y,-z
-x,-x+y,-z
y,x,-z
-x,-y,-z
y,-x+y,-z
x-y,x,-z
-x+y,y,z
x,x-y,z
-y,-x,z
loop_
_atom_site_type_symbol
_atom_site_label
_atom_site_fract_x
_atom_site_fract_y
_atom_site_fract_z
Si Si1 0.374020 0.187010 0.269431
Si Si2 0.884413 0.351634 0.808765
Si Si3 0.228389 0.771612 0.240819
Si Si4 0.400140 0.000000 0.500000
Si Si5 0.415655 0.831310 0.868188
Si Si6 0.284315 0.344295 0.891683
Si Si7 0.626045 0.252089 0.629594
O O1 0.401126 0.200563 0.555069
O O2 0.336165 0.222166 0.225307
O O3 0.431555 0.215778 0.058514
O O4 0.814916 0.302585 0.707753
O O5 0.871961 0.384260 0.051978
O O6 0.942189 0.401931 0.637129
O O7 0.908707 0.304939 0.886291
O O8 0.342768 0.965183 0.698431
O O9 0.387498 0.774995 0.078912
O O10 0.401289 0.802578 0.583234
O O11 0.284606 0.284606 0.000000
O O12 0.699601 0.300400 0.591526
#
# Coordination Sequence:
#
# PCOD9578406 Si02
#       7
#     6  12   6   6   6  12   6
#     4  10  18  34  53  84 104 138 183 215 270 315
#     4  10  23  36  57  82 110 142 185 228 282 336
#     4  10  20  32  57  78 100 131 178 225 262 328
#     4  10  18  37  56  76 114 146 184 229 276 320
#     4  12  26  41  62  87 106 143 178 225 291 358
#     4   9  19  35  55  81 113 148 182 232 273 325
#     4  10  26  46  65  82 111 138 172 231 301 349
#
# _framework density 19.537852999999998
#
# number of rings (size 3 to 8) (size 9 to 14) (size 15 to 20)
#    0.222    1.778    2.222    0.667    6.222    0.444 
#    0.000    5.000    0.000    0.000    0.000    0.000 
#    0.000    0.000    0.000    0.333    0.000    1.333 
#
# Total GULP energy -300877.863709 kJ/mol
# GULP energy per Si atom -5571.812291 kJ/mol
# Density = 1.949338 g / cm^3
# Si number density = 19.537853 Si / 1000 Ang^3
#
#
#
# Elastic Constant Matrix: (Units=GPa)
#
#
# Indices 1 2 3 4 5 6 
#
# 1 79.2679 35.7826 9.0105 -2.2721 0.0000 0.0000
# 2 35.7826 79.2679 9.0105 2.2721 0.0000 0.0000
# 3 9.0105 9.0105 54.8946 0.0000 0.0000 0.0000
# 4 -2.2721 2.2721 0.0000 29.2262 0.0000 0.0000
# 5 0.0000 0.0000 0.0000 0.0000 29.2262 -2.2721
# 6 0.0000 0.0000 0.0000 0.0000 -2.2721 21.7427
#
#
#
# Elastic Compliance Matrix: (Units=1/GPa)
#
#
# Indices 1 2 3 4 5 6 
#
# 1 0.016053 -0.007132 -0.001464 0.001802 0.000000 0.000000
# 2 -0.007132 0.016053 -0.001464 -0.001802 0.000000 0.000000
# 3 -0.001464 -0.001464 0.018697 0.000000 0.000000 0.000000
# 4 0.001802 -0.001802 0.000000 0.034496 0.000000 0.000000
# 5 0.000000 0.000000 0.000000 0.000000 0.034496 0.003605
# 6 0.000000 0.000000 0.000000 0.000000 0.003605 0.046369
#
#
# Mechanical properties :
#
#
# Convention : Reuss Voigt Hill
#
# Bulk Modulus (GPa) = 32.59188 35.67085 34.13137
# Shear Modulus (GPa) = 25.44361 26.68079 26.06220
#
# Velocity S-wave (km/s) = 3.61262 3.69940 3.65627
# Velocity P-wave (km/s) = 5.84114 6.04520 5.94405
#
# Compressibility (1/GPa) = 0.03068249
#
# Stress axis : x y z
#
# Youngs Moduli (GPa) = 62.29404 62.29404 53.48320
#
# Poissons Ratio (x) = 0.44426 0.07832
# Poissons Ratio (y) = 0.44426 0.07832
# Poissons Ratio (z) = 0.09122 0.09122
#
# Static dielectric constant tensor:
#      x y z
#    x 1.755900 0.000000 0.000000 
#    y 0.000000 1.755900 0.000000 
#    z 0.000000 0.000000 1.765100 
# 
# From -- ./inp_files/673.got.cif
#   From: 2010.05.17/outbox.cif.g08.bks.cpg/sg164_1_cif.got.tgz:673.got - 2010.05.20 10:58:56.
