data_PCOD9578606
_publ_section_title
;
Structure prediction by ZEFSAII (Michael W. Deem and Ramdas Pophale) SiO2 
 PCOD9578606
Probable space group: P -3 M 1
;
_chemical_formula_sum "Si O2"
_cell_formula_units_Z 90
_cell_length_a 17.649854
_cell_length_b 17.649854
_cell_length_c 19.437009
_cell_angle_alpha 90.000000
_cell_angle_beta 90.000000
_cell_angle_gamma 120.000000
_cell_volume 5243.753909
_symmetry_space_group_name_H-M "P -3 M 1"
_symmetry_group_IT_number 164
_symmetry_cell_setting 'hexagonal'
loop_
_space_group_symop_operation_xyz
x,y,z
-y,x-y,z
-x+y,-x,z
x-y,-y,-z
-x,-x+y,-z
y,x,-z
-x,-y,-z
y,-x+y,-z
x-y,x,-z
-x+y,y,z
x,x-y,z
-y,-x,z
loop_
_atom_site_type_symbol
_atom_site_label
_atom_site_fract_x
_atom_site_fract_y
_atom_site_fract_z
Si Si1 0.766553 0.714324 0.209237
Si Si2 0.000000 0.181913 0.500000
Si Si3 0.489884 0.332347 0.536184
Si Si4 0.511495 0.843118 0.311852
Si Si5 0.486894 0.332693 0.387284
Si Si6 0.819966 0.000798 0.924280
Si Si7 0.601982 0.032691 0.256158
Si Si8 0.000391 0.817618 0.348061
O O1 0.855849 0.711698 0.208908
O O2 0.766712 0.767153 0.142456
O O3 0.684436 0.617963 0.207648
O O4 0.766585 0.759309 0.282046
O O5 0.086421 0.172842 0.499044
O O6 0.999377 0.220108 0.424433
O O7 0.522744 0.261372 0.532336
O O8 0.569773 0.430228 0.537632
O O9 0.447657 0.317105 0.610987
O O10 0.444204 0.322219 0.463003
O O11 0.409803 0.819605 0.316703
O O12 0.516910 0.758455 0.290287
O O13 0.559634 0.928775 0.265815
O O14 0.482379 0.241190 0.370190
O O15 0.588324 0.411677 0.392491
O O16 0.443907 0.362649 0.329317
O O17 0.915644 0.084357 0.921504
O O18 0.826988 0.913494 0.920189
O O19 0.781658 0.000000 0.000000
O O20 0.525393 0.050785 0.233940
O O21 0.088926 0.911075 0.342273
O O22 0.914880 0.829759 0.345235
#
# Coordination Sequence:
#
# PCOD9578606 Si02
#       8
#    12   6  12  12  12  12  12  12
#     4  10  20  33  49  69  96 128 158 192 237 284
#     4   8  13  22  36  56  85 124 170 210 234 254
#     4   8  13  22  38  59  80 103 136 182 235 288
#     4   9  17  29  44  61  81 108 145 190 240 289
#     4   9  16  27  44  64  85 110 143 185 234 287
#     4   9  17  30  51  81 115 146 170 189 211 247
#     4  10  21  34  47  63  85 115 150 191 236 281
#     4   9  16  26  42  65  94 130 169 203 231 263
#
# _framework density 17.163277000000001
#
# number of rings (size 3 to 8) (size 9 to 14) (size 15 to 20)
#    0.000    2.933    0.000    1.533    0.000    5.333 
#    0.000    5.333    0.000    5.467    0.000    0.000 
#    0.000    0.000    0.000    0.267    0.000    0.000 
#
# Total GULP energy -501177.793776 kJ/mol
# GULP energy per Si atom -5568.642153 kJ/mol
# Density = 1.712421 g / cm^3
# Si number density = 17.163277 Si / 1000 Ang^3
#
#
#
# Elastic Constant Matrix: (Units=GPa)
#
#
# Indices 1 2 3 4 5 6 
#
# 1 25.1353 10.6732 19.4118 -4.8653 0.0000 0.0000
# 2 10.6732 25.1353 19.4118 4.8653 0.0000 0.0000
# 3 19.4118 19.4118 91.4241 0.0000 0.0000 0.0000
# 4 -4.8653 4.8653 0.0000 5.4507 0.0000 0.0000
# 5 0.0000 0.0000 0.0000 0.0000 5.4507 -4.8653
# 6 0.0000 0.0000 0.0000 0.0000 -4.8653 7.2311
#
#
#
# Elastic Compliance Matrix: (Units=1/GPa)
#
#
# Indices 1 2 3 4 5 6 
#
# 1 0.104693 -0.068416 -0.007703 0.154516 0.000000 0.000000
# 2 -0.068416 0.104693 -0.007703 -0.154516 0.000000 0.000000
# 3 -0.007703 -0.007703 0.014209 0.000000 0.000000 0.000000
# 4 0.154516 -0.154516 0.000000 0.459300 0.000000 0.000000
# 5 0.000000 0.000000 0.000000 0.000000 0.459300 0.309032
# 6 0.000000 0.000000 0.000000 0.000000 0.309032 0.346219
#
#
# Mechanical properties :
#
#
# Convention : Reuss Voigt Hill
#
# Bulk Modulus (GPa) = 17.87203 26.74317 22.30760
# Shear Modulus (GPa) = 2.98559 9.77304 6.37932
#
# Velocity S-wave (km/s) = 1.32034 2.38883 1.93000
# Velocity P-wave (km/s) = 3.57211 4.81914 4.24170
#
# Compressibility (1/GPa) = 0.05595336
#
# Stress axis : x y z
#
# Youngs Moduli (GPa) = 9.55169 9.55169 70.37773
#
# Poissons Ratio (x) = 0.65349 0.54210
# Poissons Ratio (y) = 0.65349 0.54210
# Poissons Ratio (z) = 0.07357 0.07357
#
# Static dielectric constant tensor:
#      x y z
#    x 1.587020 0.000000 0.000000 
#    y 0.000000 1.587020 0.000000 
#    z 0.000000 0.000000 1.605660 
# 
# From -- ./inp_files/4220.got.cif
#   From: 2010.05.17/outbox.cif.g08.bks.cpg/sg164_3_cif.got.tgz:4220.got - 2010.05.20 10:58:56.
