data_PCOD9578433
_publ_section_title
;
Structure prediction by ZEFSAII (Michael W. Deem and Ramdas Pophale) SiO2 
 PCOD9578433
Probable space group: P -3 M 1
;
_chemical_formula_sum "Si O2"
_cell_formula_units_Z 60
_cell_length_a 17.106289
_cell_length_b 17.106289
_cell_length_c 15.676090
_cell_angle_alpha 90.000000
_cell_angle_beta 90.000000
_cell_angle_gamma 120.000000
_cell_volume 3972.647121
_symmetry_space_group_name_H-M "P -3 M 1"
_symmetry_group_IT_number 164
_symmetry_cell_setting 'hexagonal'
loop_
_space_group_symop_operation_xyz
x,y,z
-y,x-y,z
-x+y,-x,z
x-y,-y,-z
-x,-x+y,-z
y,x,-z
-x,-y,-z
y,-x+y,-z
x-y,x,-z
-x+y,y,z
x,x-y,z
-y,-x,z
loop_
_atom_site_type_symbol
_atom_site_label
_atom_site_fract_x
_atom_site_fract_y
_atom_site_fract_z
Si Si1 0.332640 0.479358 0.541600
Si Si2 0.279856 0.905564 0.192792
Si Si3 0.485487 0.151695 0.978754
Si Si4 0.387421 0.425908 0.367635
Si Si5 0.700975 0.940922 0.921191
O O1 0.238690 0.477379 0.554840
O O2 0.418445 0.581556 0.547306
O O3 0.338073 0.442126 0.447963
O O4 0.353722 0.418216 0.606013
O O5 0.179688 0.820313 0.198841
O O6 0.328414 0.880590 0.117035
O O7 0.329700 0.927005 0.282488
O O8 0.280124 0.993540 0.157403
O O9 0.568492 0.136983 0.997637
O O10 0.513283 0.256642 0.984243
O O11 0.401025 0.098573 0.042454
O O12 0.480188 0.519813 0.355880
O O13 0.713356 0.856678 0.902499
O O14 0.762703 0.000000 0.000000
#
# Coordination Sequence:
#
# PCOD9578433 Si02
#       5
#    12  12  12  12  12
#     4   9  17  30  47  67  91 119 150 181 214 253
#     4  10  19  30  46  66  87 113 145 181 221 264
#     4   9  17  28  43  64  90 120 151 181 213 251
#     4   9  18  30  45  67  93 119 147 179 215 257
#     4   9  18  31  46  64  86 114 147 183 223 264
#
# _framework density 15.10328
#
# number of rings (size 3 to 8) (size 9 to 14) (size 15 to 20)
#    0.000    2.800    0.000    4.600    0.000    5.200 
#    0.000    0.000    0.000   10.000    0.000    7.000 
#    0.000    0.000    0.000   10.200    0.000    0.000 
#
# Total GULP energy -334314.083934 kJ/mol
# GULP energy per Si atom -5571.901399 kJ/mol
# Density = 1.506890 g / cm^3
# Si number density = 15.103280 Si / 1000 Ang^3
#
#
#
# Elastic Constant Matrix: (Units=GPa)
#
#
# Indices 1 2 3 4 5 6 
#
# 1 75.8841 53.4264 30.1356 4.2388 0.0000 0.0000
# 2 53.4264 75.8841 30.1356 -4.2388 0.0000 0.0000
# 3 30.1356 30.1356 70.1763 0.0000 0.0000 0.0000
# 4 4.2388 -4.2388 0.0000 16.2918 0.0000 0.0000
# 5 0.0000 0.0000 0.0000 0.0000 16.2918 4.2388
# 6 0.0000 0.0000 0.0000 0.0000 4.2388 11.2288
#
#
#
# Elastic Compliance Matrix: (Units=1/GPa)
#
#
# Indices 1 2 3 4 5 6 
#
# 1 0.029523 -0.019855 -0.004152 -0.012847 0.000000 0.000000
# 2 -0.019855 0.029523 -0.004152 0.012847 0.000000 0.000000
# 3 -0.004152 -0.004152 0.017816 0.000000 0.000000 0.000000
# 4 -0.012847 0.012847 0.000000 0.068066 0.000000 0.000000
# 5 0.000000 0.000000 0.000000 0.000000 0.068066 -0.025694
# 6 0.000000 0.000000 0.000000 0.000000 -0.025694 0.098756
#
#
# Mechanical properties :
#
#
# Convention : Reuss Voigt Hill
#
# Bulk Modulus (GPa) = 48.67347 49.92662 49.30005
# Shear Modulus (GPa) = 13.33639 15.97896 14.65768
#
# Velocity S-wave (km/s) = 2.97478 3.25619 3.11866
# Velocity P-wave (km/s) = 6.64049 6.87500 6.75876
#
# Compressibility (1/GPa) = 0.02054507
#
# Stress axis : x y z
#
# Youngs Moduli (GPa) = 33.87172 33.87172 56.13025
#
# Poissons Ratio (x) = 0.67251 0.23305
# Poissons Ratio (y) = 0.67251 0.23305
# Poissons Ratio (z) = 0.14063 0.14063
#
# Static dielectric constant tensor:
#      x y z
#    x 1.494920 0.000000 0.000000 
#    y 0.000000 1.494920 0.000000 
#    z 0.000000 0.000000 1.491070 
# 
# From -- ./inp_files/3389.got.cif
#   From: 2010.05.17/outbox.cif.g08.bks.cpg/sg164_2_cif.got.tgz:3389.got - 2010.05.20 10:58:56.
