data_PCOD9578463
_publ_section_title
;
Structure prediction by ZEFSAII (Michael W. Deem and Ramdas Pophale) SiO2 
 PCOD9578463
Probable space group: P -3 M 1
;
_chemical_formula_sum "Si O2"
_cell_formula_units_Z 84
_cell_length_a 18.425609
_cell_length_b 18.425609
_cell_length_c 16.297927
_cell_angle_alpha 90.000000
_cell_angle_beta 90.000000
_cell_angle_gamma 120.000000
_cell_volume 4791.888476
_symmetry_space_group_name_H-M "P -3 M 1"
_symmetry_group_IT_number 164
_symmetry_cell_setting 'hexagonal'
loop_
_space_group_symop_operation_xyz
x,y,z
-y,x-y,z
-x+y,-x,z
x-y,-y,-z
-x,-x+y,-z
y,x,-z
-x,-y,-z
y,-x+y,-z
x-y,x,-z
-x+y,y,z
x,x-y,z
-y,-x,z
loop_
_atom_site_type_symbol
_atom_site_label
_atom_site_fract_x
_atom_site_fract_y
_atom_site_fract_z
Si Si1 0.836809 0.836808 0.819412
Si Si2 0.245443 0.320030 0.934221
Si Si3 0.695299 0.042861 0.585572
Si Si4 0.836218 0.332877 0.152439
Si Si5 0.836993 0.999888 0.377883
Si Si6 0.668390 0.173640 0.508414
Si Si7 0.460564 0.090539 0.332811
O O1 0.865626 0.932813 0.841728
O O2 0.746904 0.781146 0.860196
O O3 0.830775 0.831877 0.720978
O O4 0.907404 0.814808 0.845751
O O5 0.157990 0.315979 0.961504
O O6 0.306252 0.413994 0.901813
O O7 0.288872 0.288872 0.000000
O O8 0.704072 0.132349 0.571852
O O9 0.650947 0.000000 0.500000
O O10 0.776988 0.033941 0.591352
O O11 0.631386 0.989326 0.657160
O O12 0.847268 0.423634 0.133739
O O13 0.740260 0.259741 0.142078
O O14 0.861668 0.333883 0.247833
O O15 0.906778 0.093223 0.405047
O O16 0.865073 0.932537 0.399610
O O17 0.572644 0.145287 0.526992
O O18 0.727461 0.272539 0.512831
O O19 0.671207 0.146885 0.413983
O O20 0.532552 0.065103 0.335402
#
# Coordination Sequence:
#
# PCOD9578463 Si02
#       7
#    12  12  12  12  12  12  12
#     4   9  17  30  49  72  98 127 160 199 242 287
#     4  10  20  33  50  73 101 132 162 193 231 278
#     4  10  20  32  47  66  93 126 161 197 240 291
#     4  10  20  34  53  76 101 128 159 197 242 289
#     4  10  20  33  48  66  90 123 164 208 250 290
#     4  10  19  31  48  70  97 128 163 202 243 287
#     4   9  18  32  50  72  97 124 155 196 244 290
#
# _framework density 17.529623999999998
#
# number of rings (size 3 to 8) (size 9 to 14) (size 15 to 20)
#    0.000    2.286    0.000    3.143    0.000    7.714 
#    0.000    1.429    0.000    3.143    0.000    0.000 
#    0.000    0.000    0.000   12.714    0.000    0.000 
#
# Total GULP energy -468117.663552 kJ/mol
# GULP energy per Si atom -5572.829328 kJ/mol
# Density = 1.748973 g / cm^3
# Si number density = 17.529624 Si / 1000 Ang^3
#
#
#
# Elastic Constant Matrix: (Units=GPa)
#
#
# Indices 1 2 3 4 5 6 
#
# 1 105.2629 57.3772 37.7294 -4.7183 0.0000 0.0000
# 2 57.3772 105.2629 37.7294 4.7183 0.0000 0.0000
# 3 37.7294 37.7294 44.5309 0.0000 0.0000 0.0000
# 4 -4.7183 4.7183 0.0000 22.6867 0.0000 0.0000
# 5 0.0000 0.0000 0.0000 0.0000 22.6867 -4.7183
# 6 0.0000 0.0000 0.0000 0.0000 -4.7183 23.9428
#
#
#
# Elastic Compliance Matrix: (Units=1/GPa)
#
#
# Indices 1 2 3 4 5 6 
#
# 1 0.015953 -0.005822 -0.008584 0.004529 0.000000 0.000000
# 2 -0.005822 0.015953 -0.008584 -0.004529 0.000000 0.000000
# 3 -0.008584 -0.008584 0.037001 0.000000 0.000000 0.000000
# 4 0.004529 -0.004529 0.000000 0.045963 0.000000 0.000000
# 5 0.000000 0.000000 0.000000 0.000000 0.045963 0.009058
# 6 0.000000 0.000000 0.000000 0.000000 0.009058 0.043551
#
#
# Mechanical properties :
#
#
# Convention : Reuss Voigt Hill
#
# Bulk Modulus (GPa) = 43.61291 57.85874 50.73582
# Shear Modulus (GPa) = 19.37936 22.01128 20.69532
#
# Velocity S-wave (km/s) = 3.32854 3.54738 3.43970
# Velocity P-wave (km/s) = 6.30126 7.06091 6.69187
#
# Compressibility (1/GPa) = 0.02292899
#
# Stress axis : x y z
#
# Youngs Moduli (GPa) = 62.68300 62.68300 27.02595
#
# Poissons Ratio (x) = 0.36496 0.23198
# Poissons Ratio (y) = 0.36496 0.23198
# Poissons Ratio (z) = 0.53805 0.53805
#
# Static dielectric constant tensor:
#      x y z
#    x 1.605080 0.000000 0.000000 
#    y 0.000000 1.605080 0.000000 
#    z 0.000000 0.000000 1.584900 
# 
# From -- ./inp_files/3583.got.cif
#   From: 2010.05.17/outbox.cif.g08.bks.cpg/sg164_2_cif.got.tgz:3583.got - 2010.05.20 10:58:56.
