data_PCOD9578231
_publ_section_title
;
Structure prediction by ZEFSAII (Michael W. Deem and Ramdas Pophale) SiO2 
 PCOD9578231
Probable space group: P -3 1 C
;
_chemical_formula_sum "Si O2"
_cell_formula_units_Z 60
_cell_length_a 15.582534
_cell_length_b 15.582534
_cell_length_c 13.805992
_cell_angle_alpha 90.000000
_cell_angle_beta 90.000000
_cell_angle_gamma 120.000000
_cell_volume 2903.183022
_symmetry_space_group_name_H-M "P -3 1 C"
_symmetry_group_IT_number 163
_symmetry_cell_setting 'hexagonal'
loop_
_space_group_symop_operation_xyz
x,y,z
-y,x-y,z
-x+y,-x,z
-y,-x,1/2-z
-x+y,y,1/2-z
x,x-y,1/2-z
-x,-y,-z
y,-x+y,-z
x-y,x,-z
y,x,1/2+z
x-y,-y,1/2+z
-x,-x+y,1/2+z
loop_
_atom_site_type_symbol
_atom_site_label
_atom_site_fract_x
_atom_site_fract_y
_atom_site_fract_z
Si Si1 0.474850 0.876669 0.859906
Si Si2 0.970813 0.320440 0.589304
Si Si3 0.832508 0.046650 0.532509
Si Si4 0.257335 0.032844 0.281645
Si Si5 0.266627 0.440880 0.577177
O O1 0.437171 0.874341 0.750000
O O2 0.563454 0.984819 0.890842
O O3 0.519444 0.804286 0.881551
O O4 0.376716 0.842553 0.920772
O O5 0.982482 0.278485 0.691496
O O6 0.047844 0.306119 0.520896
O O7 0.867648 0.263665 0.530492
O O8 0.813215 0.937861 0.507113
O O9 0.822008 0.048127 0.646732
O O10 0.226153 0.113077 0.250000
O O11 0.356804 0.098756 0.346701
#
# Coordination Sequence:
#
# PCOD9578231 Si02
#       5
#    12  12  12  12  12
#     4  12  21  39  66 100 137 176 229 292 349 412
#     4  11  22  40  62  93 135 181 223 284 345 422
#     4  11  23  39  63  91 129 170 227 286 344 408
#     4  11  19  41  62  89 129 177 226 275 343 419
#     4  11  23  37  66 101 138 173 230 289 348 409
#
# _framework density 20.666972999999999
#
# number of rings (size 3 to 8) (size 9 to 14) (size 15 to 20)
#    0.000    0.800    6.000    3.000    0.000    0.800 
#    0.000    0.000    0.000    0.000    0.000    0.000 
#    0.000    0.000    0.000    0.000    0.000    0.000 
#
# Total GULP energy -334937.168135 kJ/mol
# GULP energy per Si atom -5582.286136 kJ/mol
# Density = 2.061993 g / cm^3
# Si number density = 20.666973 Si / 1000 Ang^3
#
#
#
# Elastic Constant Matrix: (Units=GPa)
#
#
# Indices 1 2 3 4 5 6 
#
# 1 65.6595 30.8995 35.3571 0.0000 7.3231 0.0000
# 2 30.8995 65.6595 35.3571 0.0000 -7.3231 0.0000
# 3 35.3571 35.3571 155.5517 0.0000 0.0000 0.0000
# 4 0.0000 0.0000 0.0000 36.2247 0.0000 -7.3231
# 5 7.3231 -7.3231 0.0000 0.0000 36.2247 0.0000
# 6 0.0000 0.0000 0.0000 -7.3231 0.0000 17.3800
#
#
#
# Elastic Compliance Matrix: (Units=1/GPa)
#
#
# Indices 1 2 3 4 5 6 
#
# 1 0.021936 -0.009511 -0.002824 0.000000 -0.006357 0.000000
# 2 -0.009511 0.021936 -0.002824 0.000000 0.006357 0.000000
# 3 -0.002824 -0.002824 0.007713 0.000000 0.000000 0.000000
# 4 0.000000 0.000000 0.000000 0.030176 0.000000 0.012715
# 5 -0.006357 0.006357 0.000000 0.000000 0.030176 0.000000
# 6 0.000000 0.000000 0.000000 0.012715 0.000000 0.062895
#
#
# Mechanical properties :
#
#
# Convention : Reuss Voigt Hill
#
# Bulk Modulus (GPa) = 47.02509 54.45538 50.74023
# Shear Modulus (GPa) = 23.55839 30.31634 26.93736
#
# Velocity S-wave (km/s) = 3.37991 3.83417 3.61418
# Velocity P-wave (km/s) = 6.16724 6.78287 6.48237
#
# Compressibility (1/GPa) = 0.02126525
#
# Stress axis : x y z
#
# Youngs Moduli (GPa) = 45.58721 45.58721 129.65815
#
# Poissons Ratio (x) = 0.43360 0.36617
# Poissons Ratio (y) = 0.43360 0.36617
# Poissons Ratio (z) = 0.12874 0.12874
#
# Static dielectric constant tensor:
#      x y z
#    x 1.776890 0.000000 0.000000 
#    y 0.000000 1.776890 0.000000 
#    z 0.000000 0.000000 1.788630 
# 
# From -- ./inp_files/1726.got.cif
#   From: 2010.05.17/outbox.cif.g08.bks.cpg/sg163_1_cif.got.tgz:1726.got - 2010.05.20 10:56:03.
