data_PCOD9578238
_publ_section_title
;
Structure prediction by ZEFSAII (Michael W. Deem and Ramdas Pophale) SiO2 
 PCOD9578238
Probable space group: P -3 1 C
;
_chemical_formula_sum "Si O2"
_cell_formula_units_Z 64
_cell_length_a 16.438473
_cell_length_b 16.438473
_cell_length_c 17.996204
_cell_angle_alpha 90.000000
_cell_angle_beta 90.000000
_cell_angle_gamma 120.000000
_cell_volume 4211.477498
_symmetry_space_group_name_H-M "P -3 1 C"
_symmetry_group_IT_number 163
_symmetry_cell_setting 'hexagonal'
loop_
_space_group_symop_operation_xyz
x,y,z
-y,x-y,z
-x+y,-x,z
-y,-x,1/2-z
-x+y,y,1/2-z
x,x-y,1/2-z
-x,-y,-z
y,-x+y,-z
x-y,x,-z
y,x,1/2+z
x-y,-y,1/2+z
-x,-x+y,1/2+z
loop_
_atom_site_type_symbol
_atom_site_label
_atom_site_fract_x
_atom_site_fract_y
_atom_site_fract_z
Si Si1 0.957702 0.719167 0.417403
Si Si2 0.000000 0.000000 0.411681
Si Si3 0.238535 0.957702 0.917403
Si Si4 0.666435 0.143155 0.337463
Si Si5 0.898516 0.101486 0.837704
Si Si6 0.143155 0.666435 0.662537
O O1 0.868582 0.737164 0.414955
O O2 0.917980 0.613829 0.388035
O O3 1.000000 0.737442 0.500000
O O4 0.041475 0.791435 0.364233
O O5 0.895651 0.947824 0.380564
O O6 0.000000 0.000000 0.500000
O O7 0.304151 0.917979 0.888036
O O8 0.250041 0.041474 0.864233
O O9 0.748596 0.251404 0.346137
O O10 0.565865 0.131729 0.354875
O O11 0.667293 0.119727 0.250000
O O12 0.905694 0.094306 0.750000
#
# Coordination Sequence:
#
# PCOD9578238 Si02
#       6
#    12   4  12  12  12  12
#     4  11  21  33  49  70 101 136 167 203 245 292
#     4  12  22  32  46  66 100 140 172 204 244 281
#     4  11  21  33  49  70 101 136 167 203 245 292
#     4   9  18  33  53  75  98 124 158 202 252 302
#     4  12  22  32  48  70  98 136 176 206 236 284
#     4   9  18  33  53  75  98 124 158 202 252 302
#
# _framework density 15.196567
#
# number of rings (size 3 to 8) (size 9 to 14) (size 15 to 20)
#    0.000    1.500    3.750    3.188    0.000    3.750 
#    0.000    0.000    0.000    0.000    0.000    0.000 
#    1.875    0.000    2.250    0.000    0.000    0.000 
#
# Total GULP energy -357109.192524 kJ/mol
# GULP energy per Si atom -5579.831133 kJ/mol
# Density = 1.516198 g / cm^3
# Si number density = 15.196567 Si / 1000 Ang^3
#
#
#
# Elastic Constant Matrix: (Units=GPa)
#
#
# Indices 1 2 3 4 5 6 
#
# 1 91.7267 47.1438 46.4602 0.0000 0.0000 0.0000
# 2 47.1438 91.7267 46.4602 0.0000 0.0000 0.0000
# 3 46.4602 46.4602 120.3811 0.0000 0.0000 0.0000
# 4 0.0000 0.0000 0.0000 24.5930 0.0000 0.0000
# 5 0.0000 0.0000 0.0000 0.0000 24.5930 0.0000
# 6 0.0000 0.0000 0.0000 0.0000 0.0000 22.2914
#
#
#
# Elastic Compliance Matrix: (Units=1/GPa)
#
#
# Indices 1 2 3 4 5 6 
#
# 1 0.016069 -0.006361 -0.003747 0.000000 0.000000 0.000000
# 2 -0.006361 0.016069 -0.003747 0.000000 0.000000 0.000000
# 3 -0.003747 -0.003747 0.011199 0.000000 0.000000 0.000000
# 4 0.000000 0.000000 0.000000 0.040662 0.000000 0.000000
# 5 0.000000 0.000000 0.000000 0.000000 0.040662 0.000000
# 6 0.000000 0.000000 0.000000 0.000000 0.000000 0.044860
#
#
# Mechanical properties :
#
#
# Convention : Reuss Voigt Hill
#
# Bulk Modulus (GPa) = 63.98762 64.88476 64.43619
# Shear Modulus (GPa) = 24.69872 25.21351 24.95612
#
# Velocity S-wave (km/s) = 4.03585 4.07770 4.05683
# Velocity P-wave (km/s) = 7.99472 8.05977 8.02731
#
# Compressibility (1/GPa) = 0.01562802
#
# Stress axis : x y z
#
# Youngs Moduli (GPa) = 62.23150 62.23150 89.29385
#
# Poissons Ratio (x) = 0.39586 0.33456
# Poissons Ratio (y) = 0.39586 0.33456
# Poissons Ratio (z) = 0.23316 0.23316
#
# Static dielectric constant tensor:
#      x y z
#    x 1.470230 0.000000 0.000000 
#    y 0.000000 1.470230 0.000000 
#    z 0.000000 0.000000 1.489050 
# 
# From -- ./inp_files/3091.got.cif
#   From: 2010.05.17/outbox.cif.g08.bks.cpg/sg163_2_cif.got.tgz:3091.got - 2010.05.20 10:56:03.
