data_PCOD9578588
_publ_section_title
;
Structure prediction by ZEFSAII (Michael W. Deem and Ramdas Pophale) SiO2 
 PCOD9578588
Probable space group: P -3 M 1
;
_chemical_formula_sum "Si O2"
_cell_formula_units_Z 54
_cell_length_a 12.696282
_cell_length_b 12.696282
_cell_length_c 23.943379
_cell_angle_alpha 90.000000
_cell_angle_beta 90.000000
_cell_angle_gamma 120.000000
_cell_volume 3342.482883
_symmetry_space_group_name_H-M "P -3 M 1"
_symmetry_group_IT_number 164
_symmetry_cell_setting 'hexagonal'
loop_
_space_group_symop_operation_xyz
x,y,z
-y,x-y,z
-x+y,-x,z
x-y,-y,-z
-x,-x+y,-z
y,x,-z
-x,-y,-z
y,-x+y,-z
x-y,x,-z
-x+y,y,z
x,x-y,z
-y,-x,z
loop_
_atom_site_type_symbol
_atom_site_label
_atom_site_fract_x
_atom_site_fract_y
_atom_site_fract_z
Si Si1 0.252344 0.999964 0.377609
Si Si2 0.000000 0.749158 0.500000
Si Si3 0.416383 0.082852 0.945522
Si Si4 0.249712 0.999552 0.162981
Si Si5 0.333587 0.917353 0.270723
O O1 0.252381 0.126191 0.370992
O O2 0.304077 0.997327 0.439403
O O3 0.322411 0.978619 0.327564
O O4 0.113629 0.886371 0.375594
O O5 0.881470 0.762940 0.498092
O O6 0.547882 0.095764 0.936860
O O7 0.428712 0.214356 0.953180
O O8 0.331895 0.021806 0.891699
O O9 0.357314 0.000000 0.000000
O O10 0.109743 0.890257 0.164103
O O11 0.312368 0.982837 0.217987
O O12 0.256821 0.128411 0.161932
O O13 0.460009 0.920017 0.266809
O O14 0.221138 0.778863 0.270423
#
# Coordination Sequence:
#
# PCOD9578588 Si02
#       5
#    12   6  12  12  12
#     4   9  16  27  46  71  97 122 150 189 237 286
#     4   8  13  22  39  66  96 122 148 182 230 284
#     4  10  20  34  53  76 103 135 169 203 237 276
#     4  10  20  34  53  76 100 124 153 194 244 293
#     4  10  20  33  49  68  92 124 161 199 236 277
#
# _framework density 16.155654999999999
#
# number of rings (size 3 to 8) (size 9 to 14) (size 15 to 20)
#    0.000    2.444    0.000    3.000    0.000    1.778 
#    0.000    5.000    0.000   12.889    0.000    0.000 
#    0.000    0.000    0.000    0.000    0.000    0.000 
#
# Total GULP energy -300990.659897 kJ/mol
# GULP energy per Si atom -5573.901109 kJ/mol
# Density = 1.611888 g / cm^3
# Si number density = 16.155655 Si / 1000 Ang^3
#
#
#
# Elastic Constant Matrix: (Units=GPa)
#
#
# Indices 1 2 3 4 5 6 
#
# 1 105.3255 72.8657 84.4123 0.2281 0.0000 0.0000
# 2 72.8657 105.3255 84.4123 -0.2281 0.0000 0.0000
# 3 84.4123 84.4123 175.0256 0.0000 0.0000 0.0000
# 4 0.2281 -0.2281 0.0000 17.5839 0.0000 0.0000
# 5 0.0000 0.0000 0.0000 0.0000 17.5839 0.2281
# 6 0.0000 0.0000 0.0000 0.0000 0.2281 16.2299
#
#
#
# Elastic Compliance Matrix: (Units=1/GPa)
#
#
# Indices 1 2 3 4 5 6 
#
# 1 0.020573 -0.010240 -0.004984 -0.000400 0.000000 0.000000
# 2 -0.010240 0.020573 -0.004984 0.000400 0.000000 0.000000
# 3 -0.004984 -0.004984 0.010521 0.000000 0.000000 0.000000
# 4 -0.000400 0.000400 0.000000 0.056881 0.000000 0.000000
# 5 0.000000 0.000000 0.000000 0.000000 0.056881 -0.000799
# 6 0.000000 0.000000 0.000000 0.000000 -0.000799 0.061626
#
#
# Mechanical properties :
#
#
# Convention : Reuss Voigt Hill
#
# Bulk Modulus (GPa) = 88.86546 96.56191 92.71369
# Shear Modulus (GPa) = 18.43522 19.87864 19.15693
#
# Velocity S-wave (km/s) = 3.38168 3.51157 3.44724
# Velocity P-wave (km/s) = 8.38886 8.73734 8.56487
#
# Compressibility (1/GPa) = 0.01125297
#
# Stress axis : x y z
#
# Youngs Moduli (GPa) = 48.60647 48.60647 95.05052
#
# Poissons Ratio (x) = 0.49771 0.47372
# Poissons Ratio (y) = 0.49771 0.47372
# Poissons Ratio (z) = 0.24225 0.24225
#
# Static dielectric constant tensor:
#      x y z
#    x 1.505530 0.000000 0.000000 
#    y 0.000000 1.505530 0.000000 
#    z 0.000000 0.000000 1.567220 
# 
# From -- ./inp_files/4848.got.cif
#   From: 2010.05.17/outbox.cif.g08.bks.cpg/sg164_3_cif.got.tgz:4848.got - 2010.05.20 10:58:56.
