data_PCOD9578370
_publ_section_title
;
Structure prediction by ZEFSAII (Michael W. Deem and Ramdas Pophale) SiO2 
 PCOD9578370
Probable space group: P -3 M 1
;
_chemical_formula_sum "Si O2"
_cell_formula_units_Z 96
_cell_length_a 17.209206
_cell_length_b 17.209206
_cell_length_c 26.463135
_cell_angle_alpha 90.000000
_cell_angle_beta 90.000000
_cell_angle_gamma 120.000000
_cell_volume 6787.246005
_symmetry_space_group_name_H-M "P -3 M 1"
_symmetry_group_IT_number 164
_symmetry_cell_setting 'hexagonal'
loop_
_space_group_symop_operation_xyz
x,y,z
-y,x-y,z
-x+y,-x,z
x-y,-y,-z
-x,-x+y,-z
y,x,-z
-x,-y,-z
y,-x+y,-z
x-y,x,-z
-x+y,y,z
x,x-y,z
-y,-x,z
loop_
_atom_site_type_symbol
_atom_site_label
_atom_site_fract_x
_atom_site_fract_y
_atom_site_fract_z
Si Si1 0.852721 0.518529 0.981740
Si Si2 0.667447 0.153868 0.579155
Si Si3 0.667148 0.517121 0.283011
Si Si4 0.849794 0.515981 0.166333
Si Si5 0.426966 0.038621 0.380203
Si Si6 0.096259 0.724931 0.519689
Si Si7 0.179479 0.179493 0.061249
Si Si8 0.628272 0.653398 0.922424
O O1 0.761500 0.523000 0.975547
O O2 0.833278 0.416639 0.984719
O O3 0.927913 0.571276 0.938497
O O4 0.904859 0.571522 0.032652
O O5 0.588138 0.176275 0.581935
O O6 0.761636 0.238365 0.593111
O O7 0.675498 0.125742 0.521821
O O8 0.640154 0.067185 0.613410
O O9 0.759253 0.518505 0.293140
O O10 0.584157 0.415844 0.287318
O O11 0.668353 0.544305 0.224704
O O12 0.651039 0.573746 0.325426
O O13 0.762242 0.524484 0.154297
O O14 0.825007 0.412504 0.162111
O O15 0.930530 0.573992 0.128318
O O16 0.526221 0.052442 0.388594
O O17 0.404343 0.086084 0.425409
O O18 0.172063 0.827938 0.519883
O O19 0.000000 0.705640 0.500000
O O20 0.166030 0.083015 0.075749
O O21 0.273828 0.258866 0.080445
O O22 0.094627 0.189255 0.076512
O O23 0.184624 0.184624 0.000000
#
# Coordination Sequence:
#
# PCOD9578370 Si02
#       8
#    12  12  12  12  12  12  12  12
#     4  11  21  33  47  65  88 115 144 173 206 246
#     4   9  16  25  38  57  82 112 143 175 209 247
#     4   9  17  28  43  62  85 111 139 171 209 251
#     4  10  19  31  46  65  87 112 141 174 212 254
#     4   9  16  26  40  59  82 109 139 172 208 248
#     4   9  16  25  38  57  82 110 139 170 207 251
#     4  10  18  29  45  66  90 115 140 168 203 248
#     4  11  20  31  48  66  89 115 142 174 210 249
#
# _framework density 14.144176
#
# number of rings (size 3 to 8) (size 9 to 14) (size 15 to 20)
#    0.000    2.250    1.250    4.375    0.000    3.000 
#    0.000    1.250    0.000    5.625    0.000    0.000 
#    0.000    2.000    0.000    0.000    0.000    1.000 
#
# Total GULP energy -534994.712876 kJ/mol
# GULP energy per Si atom -5572.861592 kJ/mol
# Density = 1.411198 g / cm^3
# Si number density = 14.144176 Si / 1000 Ang^3
#
#
#
# Elastic Constant Matrix: (Units=GPa)
#
#
# Indices 1 2 3 4 5 6 
#
# 1 91.9742 47.0037 47.4164 -1.2425 0.0000 0.0000
# 2 47.0037 91.9742 47.4164 1.2425 0.0000 0.0000
# 3 47.4164 47.4164 76.5227 0.0000 0.0000 0.0000
# 4 -1.2425 1.2425 0.0000 15.9991 0.0000 0.0000
# 5 0.0000 0.0000 0.0000 0.0000 15.9991 -1.2425
# 6 0.0000 0.0000 0.0000 0.0000 -1.2425 22.4852
#
#
#
# Elastic Compliance Matrix: (Units=1/GPa)
#
#
# Indices 1 2 3 4 5 6 
#
# 1 0.017400 -0.004933 -0.007725 0.001734 0.000000 0.000000
# 2 -0.004933 0.017400 -0.007725 -0.001734 0.000000 0.000000
# 3 -0.007725 -0.007725 0.022641 0.000000 0.000000 0.000000
# 4 0.001734 -0.001734 0.000000 0.062773 0.000000 0.000000
# 5 0.000000 0.000000 0.000000 0.000000 0.062773 0.003469
# 6 0.000000 0.000000 0.000000 0.000000 0.003469 0.044665
#
#
# Mechanical properties :
#
#
# Convention : Reuss Voigt Hill
#
# Bulk Modulus (GPa) = 59.96944 60.46045 60.21495
# Shear Modulus (GPa) = 18.24987 18.80564 18.52775
#
# Velocity S-wave (km/s) = 3.59594 3.65028 3.62321
# Velocity P-wave (km/s) = 7.72863 7.78490 7.75682
#
# Compressibility (1/GPa) = 0.01667516
#
# Stress axis : x y z
#
# Youngs Moduli (GPa) = 57.47287 57.47287 44.16775
#
# Poissons Ratio (x) = 0.28352 0.34118
# Poissons Ratio (y) = 0.28352 0.34118
# Poissons Ratio (z) = 0.44396 0.44396
#
# Static dielectric constant tensor:
#      x y z
#    x 1.460110 0.000000 0.000000 
#    y 0.000000 1.460110 0.000000 
#    z 0.000000 0.000000 1.455190 
# 
# From -- ./inp_files/5095.got.cif
#   From: 2010.05.17/outbox.cif.g08.bks.cpg/sg164_3_cif.got.tgz:5095.got - 2010.05.20 10:58:56.
