data_PCOD9578343
_publ_section_title
;
Structure prediction by ZEFSAII (Michael W. Deem and Ramdas Pophale) SiO2 
 PCOD9578343
Probable space group: P -3 M 1
;
_chemical_formula_sum "Si O2"
_cell_formula_units_Z 96
_cell_length_a 17.525745
_cell_length_b 17.525745
_cell_length_c 25.781129
_cell_angle_alpha 90.000000
_cell_angle_beta 90.000000
_cell_angle_gamma 120.000000
_cell_volume 6857.811451
_symmetry_space_group_name_H-M "P -3 M 1"
_symmetry_group_IT_number 164
_symmetry_cell_setting 'hexagonal'
loop_
_space_group_symop_operation_xyz
x,y,z
-y,x-y,z
-x+y,-x,z
x-y,-y,-z
-x,-x+y,-z
y,x,-z
-x,-y,-z
y,-x+y,-z
x-y,x,-z
-x+y,y,z
x,x-y,z
-y,-x,z
loop_
_atom_site_type_symbol
_atom_site_label
_atom_site_fract_x
_atom_site_fract_y
_atom_site_fract_z
Si Si1 0.246439 0.935325 0.048560
Si Si2 0.999924 0.179494 0.738617
Si Si3 0.666037 0.515968 0.483214
Si Si4 0.666988 0.513337 0.774297
Si Si5 0.912835 0.268328 0.679365
Si Si6 0.846938 0.513553 0.892717
Si Si7 0.976187 0.397644 0.582409
Si Si8 0.180049 0.000312 0.856903
O O1 0.152568 0.847433 0.037514
O O2 0.313534 0.903345 0.066660
O O3 0.231403 0.981256 0.098632
O O4 0.279147 0.000000 0.000000
O O5 0.093293 0.186586 0.730814
O O6 0.995771 0.208243 0.797891
O O7 0.977701 0.233969 0.698010
O O8 0.921682 0.078319 0.734919
O O9 0.761095 0.522189 0.479667
O O10 0.585747 0.414254 0.480055
O O11 0.651382 0.554570 0.537206
O O12 0.644386 0.570415 0.440300
O O13 0.744977 0.489953 0.770942
O O14 0.573641 0.426360 0.766768
O O15 0.686352 0.583295 0.729501
O O16 0.670575 0.545960 0.833283
O O17 0.818325 0.181676 0.666976
O O18 0.950210 0.334573 0.631609
O O19 0.746604 0.493207 0.896972
O O20 0.851735 0.425868 0.900144
O O21 0.974241 0.487121 0.594553
O O22 0.092794 0.907207 0.864250
O O23 0.157256 0.078628 0.860829
#
# Coordination Sequence:
#
# PCOD9578343 Si02
#       8
#    12  12  12  12  12  12  12  12
#     4  10  19  29  41  58  80 104 130 162 200 239
#     4   9  17  28  42  59  79 105 137 171 202 232
#     4   9  17  30  47  64  82 107 139 171 201 234
#     4   9  16  26  41  61  84 108 132 158 190 232
#     4  10  18  27  41  61  85 111 136 162 196 239
#     4   9  17  29  44  60  78 102 132 164 197 234
#     4   9  18  30  43  62  87 111 134 164 202 239
#     4   9  16  27  42  59  80 106 135 164 195 233
#
# _framework density 13.998635
#
# number of rings (size 3 to 8) (size 9 to 14) (size 15 to 20)
#    0.000    2.750    0.000    3.250    0.000    5.750 
#    0.000    0.000    0.000    6.000    0.000    0.000 
#    0.000    0.000    0.000   15.500    0.000   75.750 
#
# Total GULP energy -534713.850050 kJ/mol
# GULP energy per Si atom -5569.935938 kJ/mol
# Density = 1.396677 g / cm^3
# Si number density = 13.998635 Si / 1000 Ang^3
#
#
#
# Elastic Constant Matrix: (Units=GPa)
#
#
# Indices 1 2 3 4 5 6 
#
# 1 87.1630 53.7536 65.1888 1.0693 0.0000 0.0000
# 2 53.7536 87.1630 65.1888 -1.0693 0.0000 0.0000
# 3 65.1888 65.1888 101.4308 0.0000 0.0000 0.0000
# 4 1.0693 -1.0693 0.0000 24.4417 0.0000 0.0000
# 5 0.0000 0.0000 0.0000 0.0000 24.4417 1.0693
# 6 0.0000 0.0000 0.0000 0.0000 1.0693 16.7047
#
#
#
# Elastic Compliance Matrix: (Units=1/GPa)
#
#
# Indices 1 2 3 4 5 6 
#
# 1 0.023761 -0.006255 -0.011251 -0.001313 0.000000 0.000000
# 2 -0.006255 0.023761 -0.011251 0.001313 0.000000 0.000000
# 3 -0.011251 -0.011251 0.024321 0.000000 0.000000 0.000000
# 4 -0.001313 0.001313 0.000000 0.041029 0.000000 0.000000
# 5 0.000000 0.000000 0.000000 0.000000 0.041029 -0.002626
# 6 0.000000 0.000000 0.000000 0.000000 -0.002626 0.060031
#
#
# Mechanical properties :
#
#
# Convention : Reuss Voigt Hill
#
# Bulk Modulus (GPa) = 69.78938 71.55769 70.67354
# Shear Modulus (GPa) = 18.10148 19.22599 18.66373
#
# Velocity S-wave (km/s) = 3.59986 3.70999 3.65534
# Velocity P-wave (km/s) = 8.20008 8.34150 8.27109
#
# Compressibility (1/GPa) = 0.01432883
#
# Stress axis : x y z
#
# Youngs Moduli (GPa) = 42.08617 42.08617 41.11730
#
# Poissons Ratio (x) = 0.26325 0.46261
# Poissons Ratio (y) = 0.26325 0.46261
# Poissons Ratio (z) = 0.47351 0.47351
#
# Static dielectric constant tensor:
#      x y z
#    x 1.442740 0.000000 0.000000 
#    y 0.000000 1.442740 0.000000 
#    z 0.000000 0.000000 1.455240 
# 
# From -- ./inp_files/5079.got.cif
#   From: 2010.05.17/outbox.cif.g08.bks.cpg/sg164_3_cif.got.tgz:5079.got - 2010.05.20 10:58:56.
