data_PCOD9578808
_publ_section_title
;
Structure prediction by ZEFSAII (Michael W. Deem and Ramdas Pophale) SiO2 
 PCOD9578808
Probable space group: P -3 C 1
;
_chemical_formula_sum "Si O2"
_cell_formula_units_Z 72
_cell_length_a 16.930455
_cell_length_b 16.930455
_cell_length_c 16.977713
_cell_angle_alpha 90.000000
_cell_angle_beta 90.000000
_cell_angle_gamma 120.000000
_cell_volume 4214.509907
_symmetry_space_group_name_H-M "P -3 C 1"
_symmetry_group_IT_number 165
_symmetry_cell_setting 'hexagonal'
loop_
_space_group_symop_operation_xyz
x,y,z
-y,x-y,z
-x+y,-x,z
x-y,-y,1/2-z
-x,-x+y,1/2-z
y,x,1/2-z
-x,-y,-z
y,-x+y,-z
x-y,x,-z
-x+y,y,1/2+z
x,x-y,1/2+z
-y,-x,1/2+z
loop_
_atom_site_type_symbol
_atom_site_label
_atom_site_fract_x
_atom_site_fract_y
_atom_site_fract_z
Si Si1 0.805752 0.973241 0.478557
Si Si2 0.476936 0.321983 0.084130
Si Si3 0.675438 0.046664 0.935407
Si Si4 0.270015 0.377087 0.734006
Si Si5 0.776759 0.699287 0.684859
Si Si6 0.852405 0.344116 0.120345
O O1 0.895502 0.071417 0.486845
O O2 0.725684 0.974811 0.528780
O O3 0.768405 0.947429 0.388862
O O4 0.395947 0.298953 0.146205
O O5 0.571378 0.408316 0.108933
O O6 0.482565 0.229457 0.081114
O O7 0.445263 0.343325 0.001878
O O8 0.718233 0.110704 0.858909
O O9 0.585671 0.950944 0.913071
O O10 0.317472 0.317472 0.750000
O O11 0.169237 0.322304 0.769590
O O12 0.321292 0.467278 0.787396
O O13 0.735787 0.735787 0.750000
#
# Coordination Sequence:
#
# PCOD9578808 Si02
#       6
#    12  12  12  12  12  12
#     4  11  21  35  54  78 110 145 181 226 275 323
#     4  10  21  36  55  80 106 140 176 220 274 324
#     4  10  19  35  57  79 104 139 183 221 262 323
#     4   9  18  34  54  76 103 139 176 216 266 319
#     4  10  21  34  53  79 105 138 181 224 267 322
#     4  10  20  36  55  76 107 139 172 217 271 321
#
# _framework density 17.083836999999999
#
# number of rings (size 3 to 8) (size 9 to 14) (size 15 to 20)
#    0.000    2.000    0.000    6.000    0.000    3.333 
#    0.000    3.333    0.000    0.333    0.000    0.000 
#    0.000    0.000    0.000    0.000    0.000    0.000 
#
# Total GULP energy -401588.000554 kJ/mol
# GULP energy per Si atom -5577.611119 kJ/mol
# Density = 1.704495 g / cm^3
# Si number density = 17.083837 Si / 1000 Ang^3
#
#
#
# Elastic Constant Matrix: (Units=GPa)
#
#
# Indices 1 2 3 4 5 6 
#
# 1 89.5220 43.2676 43.5174 7.7606 0.0000 0.0000
# 2 43.2676 89.5220 43.5174 -7.7606 0.0000 0.0000
# 3 43.5174 43.5174 100.8839 0.0000 0.0000 0.0000
# 4 7.7606 -7.7606 0.0000 13.2444 0.0000 0.0000
# 5 0.0000 0.0000 0.0000 0.0000 13.2444 7.7606
# 6 0.0000 0.0000 0.0000 0.0000 7.7606 23.1272
#
#
#
# Elastic Compliance Matrix: (Units=1/GPa)
#
#
# Indices 1 2 3 4 5 6 
#
# 1 0.018705 -0.008206 -0.004529 -0.015769 0.000000 0.000000
# 2 -0.008206 0.018705 -0.004529 0.015769 0.000000 0.000000
# 3 -0.004529 -0.004529 0.013820 0.000000 0.000000 0.000000
# 4 -0.015769 0.015769 0.000000 0.093983 0.000000 0.000000
# 5 0.000000 0.000000 0.000000 0.000000 0.093983 -0.031537
# 6 0.000000 0.000000 0.000000 0.000000 -0.031537 0.053822
#
#
# Mechanical properties :
#
#
# Convention : Reuss Voigt Hill
#
# Bulk Modulus (GPa) = 59.87249 60.05919 59.96584
# Shear Modulus (GPa) = 15.00992 19.89822 17.45407
#
# Velocity S-wave (km/s) = 2.96734 3.41653 3.19983
# Velocity P-wave (km/s) = 6.84562 7.12709 6.98777
#
# Compressibility (1/GPa) = 0.01670216
#
# Stress axis : x y z
#
# Youngs Moduli (GPa) = 53.46155 53.46155 72.36100
#
# Poissons Ratio (x) = 0.43870 0.32772
# Poissons Ratio (y) = 0.43870 0.32772
# Poissons Ratio (z) = 0.24212 0.24212
#
# Static dielectric constant tensor:
#      x y z
#    x 1.565040 0.000000 0.000000 
#    y 0.000000 1.565040 0.000000 
#    z 0.000000 0.000000 1.594030 
# 
# From -- ./inp_files/2260.got.cif
#   From: 2010.05.17/outbox.cif.g08.bks.cpg/sg165_2_cif.got.tgz:2260.got - 2010.05.20 11:02:39.
