data_PCOD9578256
_publ_section_title
;
Structure prediction by ZEFSAII (Michael W. Deem and Ramdas Pophale) SiO2 
 PCOD9578256
Probable space group: P -3 1 C
;
_chemical_formula_sum "Si O2"
_cell_formula_units_Z 70
_cell_length_a 14.858641
_cell_length_b 14.858641
_cell_length_c 17.491382
_cell_angle_alpha 90.000000
_cell_angle_beta 90.000000
_cell_angle_gamma 120.000000
_cell_volume 3344.359349
_symmetry_space_group_name_H-M "P -3 1 C"
_symmetry_group_IT_number 163
_symmetry_cell_setting 'hexagonal'
loop_
_space_group_symop_operation_xyz
x,y,z
-y,x-y,z
-x+y,-x,z
-y,-x,1/2-z
-x+y,y,1/2-z
x,x-y,1/2-z
-x,-y,-z
y,-x+y,-z
x-y,x,-z
y,x,1/2+z
x-y,-y,1/2+z
-x,-x+y,1/2+z
loop_
_atom_site_type_symbol
_atom_site_label
_atom_site_fract_x
_atom_site_fract_y
_atom_site_fract_z
Si Si1 0.644662 0.822331 0.250000
Si Si2 0.164850 0.230994 0.519301
Si Si3 0.516221 0.083718 0.936205
Si Si4 0.498968 0.390517 0.172797
Si Si5 0.218043 0.274553 0.696424
Si Si6 0.563484 0.804814 0.420124
Si Si7 0.333335 0.666668 0.655438
O O1 0.713543 0.769144 0.266370
O O2 0.584389 0.807625 0.329238
O O3 0.190998 0.147856 0.484077
O O4 0.196568 0.242795 0.607943
O O5 0.222525 0.336763 0.469856
O O6 0.638738 0.161623 0.928123
O O7 0.464837 0.155280 0.948676
O O8 0.458939 0.003475 0.866743
O O9 0.500000 0.000000 0.000000
O O10 0.552256 0.447745 0.250000
O O11 0.399170 0.281238 0.192530
O O12 0.584493 0.369628 0.130965
O O13 0.118953 0.237905 0.750000
O O14 0.333334 0.666667 0.750000
#
# Coordination Sequence:
#
# PCOD9578256 Si02
#       7
#     6  12  12  12  12  12   4
#     4  12  24  48  70 106 146 192 252 302 366 448
#     4  12  25  48  72 102 142 189 240 299 369 435
#     4  12  27  46  72 105 146 193 250 305 375 442
#     4  11  22  43  66 104 141 191 239 305 371 432
#     4  12  25  43  72 105 144 192 246 305 373 440
#     4  12  26  47  74 106 147 195 249 304 366 450
#     4   9  21  36  66 102 138 171 238 287 364 435
#
# _framework density 20.930765000000001
#
# number of rings (size 3 to 8) (size 9 to 14) (size 15 to 20)
#    0.000    0.343    3.429    6.171    0.000    5.486 
#    0.514    0.000    0.000    0.000    0.000    0.000 
#    0.000    0.000    0.000    0.000    0.000    0.000 
#
# Total GULP energy -391428.618307 kJ/mol
# GULP energy per Si atom -5591.837404 kJ/mol
# Density = 2.088313 g / cm^3
# Si number density = 20.930765 Si / 1000 Ang^3
#
#
#
# Elastic Constant Matrix: (Units=GPa)
#
#
# Indices 1 2 3 4 5 6 
#
# 1 103.3424 -0.6031 1.5601 -0.0002 1.8182 -0.0002
# 2 -0.6031 103.3423 1.5602 0.0001 -1.8184 0.0000
# 3 1.5601 1.5602 67.5970 0.0000 0.0000 0.0002
# 4 -0.0002 0.0001 0.0000 30.7539 -0.0002 -1.8182
# 5 1.8182 -1.8184 0.0000 -0.0002 30.7542 -0.0002
# 6 -0.0002 0.0000 0.0002 -1.8182 -0.0002 51.9728
#
#
#
# Elastic Compliance Matrix: (Units=1/GPa)
#
#
# Indices 1 2 3 4 5 6 
#
# 1 0.009690 0.000050 -0.000225 0.000000 -0.000570 0.000000
# 2 0.000050 0.009690 -0.000225 0.000000 0.000570 0.000000
# 3 -0.000225 -0.000225 0.014804 0.000000 0.000000 0.000000
# 4 0.000000 0.000000 0.000000 0.032584 0.000000 0.001140
# 5 -0.000570 0.000570 0.000000 0.000000 0.032583 0.000000
# 6 0.000000 0.000000 0.000000 0.001140 0.000000 0.019281
#
#
# Mechanical properties :
#
#
# Convention : Reuss Voigt Hill
#
# Bulk Modulus (GPa) = 29.95345 31.03511 30.49428
# Shear Modulus (GPa) = 38.29661 40.81382 39.55521
#
# Velocity S-wave (km/s) = 4.28212 4.42061 4.35191
# Velocity P-wave (km/s) = 6.22820 6.39651 6.31292
#
# Compressibility (1/GPa) = 0.03338514
#
# Stress axis : x y z
#
# Youngs Moduli (GPa) = 103.19616 103.19608 67.54958
#
# Poissons Ratio (x) = -0.00515 0.01518
# Poissons Ratio (y) = -0.00515 0.01519
# Poissons Ratio (z) = 0.02320 0.02320
#
# Static dielectric constant tensor:
#      x y z
#    x 1.797010 0.000000 0.000000 
#    y 0.000000 1.797010 0.000000 
#    z 0.000000 0.000000 1.993810 
# 
# From -- ./inp_files/3159.got.cif
#   From: 2010.05.17/outbox.cif.g08.bks.cpg/sg163_2_cif.got.tgz:3159.got - 2010.05.20 10:56:03.
