data_PCOD9578613
_publ_section_title
;
Structure prediction by ZEFSAII (Michael W. Deem and Ramdas Pophale) SiO2 
 PCOD9578613
Probable space group: P -3 M 1
;
_chemical_formula_sum "Si O2"
_cell_formula_units_Z 54
_cell_length_a 12.862298
_cell_length_b 12.862298
_cell_length_c 23.519587
_cell_angle_alpha 90.000000
_cell_angle_beta 90.000000
_cell_angle_gamma 120.000000
_cell_volume 3369.748259
_symmetry_space_group_name_H-M "P -3 M 1"
_symmetry_group_IT_number 164
_symmetry_cell_setting 'hexagonal'
loop_
_space_group_symop_operation_xyz
x,y,z
-y,x-y,z
-x+y,-x,z
x-y,-y,-z
-x,-x+y,-z
y,x,-z
-x,-y,-z
y,-x+y,-z
x-y,x,-z
-x+y,y,z
x,x-y,z
-y,-x,z
loop_
_atom_site_type_symbol
_atom_site_label
_atom_site_fract_x
_atom_site_fract_y
_atom_site_fract_z
Si Si1 0.666551 0.580778 0.679410
Si Si2 0.000000 0.246697 0.000000
Si Si3 0.086713 0.419784 0.108319
Si Si4 0.333562 0.420233 0.783820
Si Si5 0.667206 0.086680 0.550507
O O1 0.792061 0.584121 0.688194
O O2 0.556462 0.443539 0.684117
O O3 0.642386 0.655131 0.726696
O O4 0.663796 0.622236 0.614871
O O5 0.971009 0.304449 0.945878
O O6 0.117069 0.234137 0.989579
O O7 0.217223 0.434445 0.118323
O O8 0.097696 0.548848 0.098432
O O9 0.001607 0.361108 0.162787
O O10 0.206490 0.412979 0.788803
O O11 0.441650 0.558351 0.782125
O O12 0.551620 0.103239 0.544895
O O13 0.786384 0.213617 0.545423
O O14 0.658707 0.000000 0.500000
#
# Coordination Sequence:
#
# PCOD9578613 Si02
#       5
#    12   6  12  12  12
#     4   9  17  30  49  71  94 121 155 196 239 281
#     4  10  20  34  52  74 102 136 170 200 232 276
#     4  10  20  34  53  76 100 126 159 201 245 285
#     4  10  20  33  49  70  97 127 157 190 232 284
#     4   9  17  29  46  69  95 123 155 192 235 281
#
# _framework density 16.024937000000001
#
# number of rings (size 3 to 8) (size 9 to 14) (size 15 to 20)
#    0.000    2.444    0.000    2.667    0.000    2.667 
#    0.000    2.222    0.000   14.889    0.000    0.000 
#    0.000    0.000    0.000    0.000    0.000    0.000 
#
# Total GULP energy -301110.956846 kJ/mol
# GULP energy per Si atom -5576.128830 kJ/mol
# Density = 1.598846 g / cm^3
# Si number density = 16.024937 Si / 1000 Ang^3
#
#
#
# Elastic Constant Matrix: (Units=GPa)
#
#
# Indices 1 2 3 4 5 6 
#
# 1 109.0853 69.4572 80.2003 1.1240 0.0000 0.0000
# 2 69.4572 109.0853 80.2003 -1.1240 0.0000 0.0000
# 3 80.2003 80.2003 130.1357 0.0000 0.0000 0.0000
# 4 1.1240 -1.1240 0.0000 25.1889 0.0000 0.0000
# 5 0.0000 0.0000 0.0000 0.0000 25.1889 1.1240
# 6 0.0000 0.0000 0.0000 0.0000 1.1240 19.8141
#
#
#
# Elastic Compliance Matrix: (Units=1/GPa)
#
#
# Indices 1 2 3 4 5 6 
#
# 1 0.018924 -0.006375 -0.007733 -0.001129 0.000000 0.000000
# 2 -0.006375 0.018924 -0.007733 0.001129 0.000000 0.000000
# 3 -0.007733 -0.007733 0.017216 0.000000 0.000000 0.000000
# 4 -0.001129 0.001129 0.000000 0.039801 0.000000 0.000000
# 5 0.000000 0.000000 0.000000 0.000000 0.039801 -0.002258
# 6 0.000000 0.000000 0.000000 0.000000 -0.002258 0.050597
#
#
# Mechanical properties :
#
#
# Convention : Reuss Voigt Hill
#
# Bulk Modulus (GPa) = 87.87681 89.78024 88.82852
# Shear Modulus (GPa) = 21.48326 21.93494 21.70910
#
# Velocity S-wave (km/s) = 3.66541 3.70374 3.68463
# Velocity P-wave (km/s) = 8.53641 8.62770 8.58218
#
# Compressibility (1/GPa) = 0.01137957
#
# Stress axis : x y z
#
# Youngs Moduli (GPa) = 52.84408 52.84408 58.08461
#
# Poissons Ratio (x) = 0.33688 0.44919
# Poissons Ratio (y) = 0.33688 0.44919
# Poissons Ratio (z) = 0.40867 0.40867
#
# Static dielectric constant tensor:
#      x y z
#    x 1.504230 0.000000 0.000000 
#    y 0.000000 1.504230 0.000000 
#    z 0.000000 0.000000 1.543650 
# 
# From -- ./inp_files/4859.got.cif
#   From: 2010.05.17/outbox.cif.g08.bks.cpg/sg164_3_cif.got.tgz:4859.got - 2010.05.20 10:58:56.
