data_PCOD9578441
_publ_section_title
;
Structure prediction by ZEFSAII (Michael W. Deem and Ramdas Pophale) SiO2 
 PCOD9578441
Probable space group: P -3 M 1
;
_chemical_formula_sum "Si O2"
_cell_formula_units_Z 84
_cell_length_a 19.165743
_cell_length_b 19.165743
_cell_length_c 14.562088
_cell_angle_alpha 90.000000
_cell_angle_beta 90.000000
_cell_angle_gamma 120.000000
_cell_volume 4632.395205
_symmetry_space_group_name_H-M "P -3 M 1"
_symmetry_group_IT_number 164
_symmetry_cell_setting 'hexagonal'
loop_
_space_group_symop_operation_xyz
x,y,z
-y,x-y,z
-x+y,-x,z
x-y,-y,-z
-x,-x+y,-z
y,x,-z
-x,-y,-z
y,-x+y,-z
x-y,x,-z
-x+y,y,z
x,x-y,z
-y,-x,z
loop_
_atom_site_type_symbol
_atom_site_label
_atom_site_fract_x
_atom_site_fract_y
_atom_site_fract_z
Si Si1 0.917768 0.671579 0.292344
Si Si2 0.159014 0.159512 0.389756
Si Si3 0.667165 0.492060 0.069786
Si Si4 0.489664 0.821196 0.336599
Si Si5 0.512080 0.640365 0.135359
Si Si6 0.337566 0.019981 0.102123
Si Si7 0.579894 0.585107 0.609598
O O1 0.824956 0.649912 0.301251
O O2 0.972222 0.754455 0.346831
O O3 0.945247 0.689858 0.185791
O O4 0.937635 0.605377 0.335769
O O5 0.165971 0.165971 0.500000
O O6 0.136603 0.068302 0.366014
O O7 0.088088 0.176176 0.360780
O O8 0.751060 0.502120 0.104527
O O9 0.590521 0.409480 0.102190
O O10 0.657856 0.569076 0.090286
O O11 0.667679 0.490615 0.958826
O O12 0.401921 0.803841 0.368537
O O13 0.509603 0.754802 0.373318
O O14 0.489021 0.819314 0.226187
O O15 0.551783 0.913563 0.358315
O O16 0.456882 0.543119 0.136326
O O17 0.605155 0.667176 0.134760
O O18 0.297782 0.000000 0.000000
O O19 0.594098 0.594098 0.500000
O O20 0.487596 0.512405 0.625680
#
# Coordination Sequence:
#
# PCOD9578441 Si02
#       7
#    12  12  12  12  12  12  12
#     4  11  22  37  57  83 112 145 188 237 282 322
#     4   9  18  34  58  88 118 143 169 209 271 344
#     4  10  19  30  47  71 101 133 172 221 276 328
#     4  10  19  32  53  81 112 141 176 220 272 330
#     4   9  17  31  50  72  99 133 171 216 270 330
#     4  10  20  35  51  72 100 141 189 230 272 324
#     4  10  22  39  58  81 112 152 192 229 277 339
#
# _framework density 18.133168000000001
#
# number of rings (size 3 to 8) (size 9 to 14) (size 15 to 20)
#    0.000    2.143    1.429    2.143    0.000    4.000 
#    0.000    2.857    0.000    0.286    0.000    0.000 
#    0.000    2.857    0.000    0.000    0.000    0.000 
#
# Total GULP energy -468058.592499 kJ/mol
# GULP energy per Si atom -5572.126101 kJ/mol
# Density = 1.809190 g / cm^3
# Si number density = 18.133168 Si / 1000 Ang^3
#
#
#
# Elastic Constant Matrix: (Units=GPa)
#
#
# Indices 1 2 3 4 5 6 
#
# 1 75.3822 56.3306 24.1705 0.6243 0.0000 0.0000
# 2 56.3306 75.3822 24.1705 -0.6243 0.0000 0.0000
# 3 24.1705 24.1705 56.9048 0.0000 0.0000 0.0000
# 4 0.6243 -0.6243 0.0000 15.3596 0.0000 0.0000
# 5 0.0000 0.0000 0.0000 0.0000 15.3596 0.6243
# 6 0.0000 0.0000 0.0000 0.0000 0.6243 9.5258
#
#
#
# Elastic Compliance Matrix: (Units=1/GPa)
#
#
# Indices 1 2 3 4 5 6 
#
# 1 0.030812 -0.021817 -0.003820 -0.002139 0.000000 0.000000
# 2 -0.021817 0.030812 -0.003820 0.002139 0.000000 0.000000
# 3 -0.003820 -0.003820 0.020819 0.000000 0.000000 0.000000
# 4 -0.002139 0.002139 0.000000 0.065280 0.000000 0.000000
# 5 0.000000 0.000000 0.000000 0.000000 0.065280 -0.004278
# 6 0.000000 0.000000 0.000000 0.000000 -0.004278 0.105258
#
#
# Mechanical properties :
#
#
# Convention : Reuss Voigt Hill
#
# Bulk Modulus (GPa) = 42.50636 46.33470 44.42053
# Shear Modulus (GPa) = 12.98639 14.91550 13.95094
#
# Velocity S-wave (km/s) = 2.67903 2.87113 2.77674
# Velocity P-wave (km/s) = 5.74993 6.04972 5.90173
#
# Compressibility (1/GPa) = 0.02352589
#
# Stress axis : x y z
#
# Youngs Moduli (GPa) = 32.45512 32.45512 48.03377
#
# Poissons Ratio (x) = 0.70808 0.18351
# Poissons Ratio (y) = 0.70808 0.18351
# Poissons Ratio (z) = 0.12399 0.12399
#
# Static dielectric constant tensor:
#      x y z
#    x 1.627880 0.000000 0.000000 
#    y 0.000000 1.627880 0.000000 
#    z 0.000000 0.000000 1.659250 
# 
# From -- ./inp_files/3591.got.cif
#   From: 2010.05.17/outbox.cif.g08.bks.cpg/sg164_2_cif.got.tgz:3591.got - 2010.05.20 10:58:56.
