data_PCOD9578378
_publ_section_title
;
Structure prediction by ZEFSAII (Michael W. Deem and Ramdas Pophale) SiO2 
 PCOD9578378
Probable space group: P -3 M 1
;
_chemical_formula_sum "Si O2"
_cell_formula_units_Z 84
_cell_length_a 21.420983
_cell_length_b 21.420983
_cell_length_c 12.919133
_cell_angle_alpha 90.000000
_cell_angle_beta 90.000000
_cell_angle_gamma 120.000000
_cell_volume 5133.845492
_symmetry_space_group_name_H-M "P -3 M 1"
_symmetry_group_IT_number 164
_symmetry_cell_setting 'hexagonal'
loop_
_space_group_symop_operation_xyz
x,y,z
-y,x-y,z
-x+y,-x,z
x-y,-y,-z
-x,-x+y,-z
y,x,-z
-x,-y,-z
y,-x+y,-z
x-y,x,-z
-x+y,y,z
x,x-y,z
-y,-x,z
loop_
_atom_site_type_symbol
_atom_site_label
_atom_site_fract_x
_atom_site_fract_y
_atom_site_fract_z
Si Si1 0.666622 0.191134 0.195978
Si Si2 0.140848 0.001446 0.218792
Si Si3 0.667133 0.478957 0.950148
Si Si4 0.201669 0.946913 0.597294
Si Si5 0.029513 0.440913 0.117384
Si Si6 0.925964 0.626285 0.242603
Si Si7 0.205159 0.932798 0.936625
O O1 0.588108 0.176216 0.223797
O O2 0.725375 0.274626 0.207184
O O3 0.690314 0.142413 0.257923
O O4 0.665833 0.173383 0.073537
O O5 0.107400 0.053700 0.222689
O O6 0.188937 0.017400 0.320892
O O7 0.196354 0.028573 0.123900
O O8 0.080256 0.919745 0.208955
O O9 0.744484 0.488967 0.924194
O O10 0.603424 0.396577 0.933791
O O11 0.644610 0.529845 0.889955
O O12 0.133282 0.866719 0.574584
O O13 0.264793 0.941730 0.658268
O O14 0.232323 0.000000 0.500000
O O15 0.018841 0.509421 0.142295
O O16 0.989022 0.375866 0.197895
O O17 0.000000 0.418034 0.000000
O O18 0.909120 0.666313 0.149667
O O19 0.140249 0.859752 0.987317
O O20 0.266683 0.000000 0.000000
#
# Coordination Sequence:
#
# PCOD9578378 Si02
#       7
#    12  12  12  12  12  12  12
#     4  10  18  29  47  71 100 131 166 205 245 287
#     4   9  17  30  48  69  90 115 151 196 245 294
#     4   9  17  28  44  67  99 138 180 217 245 277
#     4  10  21  37  55  72  94 123 161 211 268 322
#     4  10  18  31  48  72 106 144 176 201 237 290
#     4  11  20  33  49  73  98 129 165 205 251 306
#     4  10  20  31  43  62  92 128 162 193 229 283
#
# _framework density 16.362003999999999
#
# number of rings (size 3 to 8) (size 9 to 14) (size 15 to 20)
#    0.000    2.143    1.429    4.286    0.000    1.143 
#    0.000    3.571    0.000    6.286    0.000    0.000 
#    0.000    0.000    0.000    3.857    0.000    0.000 
#
# Total GULP energy -468306.885849 kJ/mol
# GULP energy per Si atom -5575.081974 kJ/mol
# Density = 1.632476 g / cm^3
# Si number density = 16.362004 Si / 1000 Ang^3
#
#
#
# Elastic Constant Matrix: (Units=GPa)
#
#
# Indices 1 2 3 4 5 6 
#
# 1 89.7456 49.1596 18.1210 0.3787 0.0000 0.0000
# 2 49.1596 89.7456 18.1210 -0.3787 0.0000 0.0000
# 3 18.1210 18.1210 35.6018 0.0000 0.0000 0.0000
# 4 0.3787 -0.3787 0.0000 16.1891 0.0000 0.0000
# 5 0.0000 0.0000 0.0000 0.0000 16.1891 0.3787
# 6 0.0000 0.0000 0.0000 0.0000 0.3787 20.2930
#
#
#
# Elastic Compliance Matrix: (Units=1/GPa)
#
#
# Indices 1 2 3 4 5 6 
#
# 1 0.016476 -0.008174 -0.004225 -0.000577 0.000000 0.000000
# 2 -0.008174 0.016476 -0.004225 0.000577 0.000000 0.000000
# 3 -0.004225 -0.004225 0.032390 0.000000 0.000000 0.000000
# 4 -0.000577 0.000577 0.000000 0.061797 0.000000 0.000000
# 5 0.000000 0.000000 0.000000 0.000000 0.061797 -0.001153
# 6 0.000000 0.000000 0.000000 0.000000 -0.001153 0.049300
#
#
# Mechanical properties :
#
#
# Convention : Reuss Voigt Hill
#
# Bulk Modulus (GPa) = 31.16104 42.87737 37.01921
# Shear Modulus (GPa) = 17.71904 19.18032 18.44968
#
# Velocity S-wave (km/s) = 3.29437 3.42752 3.36161
# Velocity P-wave (km/s) = 5.79281 6.47505 6.14341
#
# Compressibility (1/GPa) = 0.03209135
#
# Stress axis : x y z
#
# Youngs Moduli (GPa) = 60.69543 60.69543 30.87377
#
# Poissons Ratio (x) = 0.49613 0.13046
# Poissons Ratio (y) = 0.49613 0.13046
# Poissons Ratio (z) = 0.25647 0.25647
#
# Static dielectric constant tensor:
#      x y z
#    x 1.575500 0.000000 0.000000 
#    y 0.000000 1.575500 0.000000 
#    z 0.000000 0.000000 1.527870 
# 
# From -- ./inp_files/2952.got.cif
#   From: 2010.05.17/outbox.cif.g08.bks.cpg/sg164_2_cif.got.tgz:2952.got - 2010.05.20 10:58:56.
