data_PCOD9578058
_publ_section_title
;
Structure prediction by ZEFSAII (Michael W. Deem and Ramdas Pophale) SiO2 
 PCOD9578058
Probable space group: P -3 1 C
;
_chemical_formula_sum "Si O2"
_cell_formula_units_Z 72
_cell_length_a 24.081730
_cell_length_b 24.081730
_cell_length_c 9.285956
_cell_angle_alpha 90.000000
_cell_angle_beta 90.000000
_cell_angle_gamma 120.000000
_cell_volume 4663.721616
_symmetry_space_group_name_H-M "P -3 1 C"
_symmetry_group_IT_number 163
_symmetry_cell_setting 'hexagonal'
loop_
_space_group_symop_operation_xyz
x,y,z
-y,x-y,z
-x+y,-x,z
-y,-x,1/2-z
-x+y,y,1/2-z
x,x-y,1/2-z
-x,-y,-z
y,-x+y,-z
x-y,x,-z
y,x,1/2+z
x-y,-y,1/2+z
-x,-x+y,1/2+z
loop_
_atom_site_type_symbol
_atom_site_label
_atom_site_fract_x
_atom_site_fract_y
_atom_site_fract_z
Si Si1 0.141506 0.412331 0.578549
Si Si2 0.932613 0.401173 0.920359
Si Si3 0.932977 0.194535 0.422620
Si Si4 0.067387 0.598827 0.420358
Si Si5 0.270825 0.858494 0.921451
Si Si6 0.932977 0.194535 0.077380
O O1 0.119709 0.454277 0.488781
O O2 0.136291 0.420454 0.750000
O O3 0.213378 0.426757 0.549385
O O4 0.094833 0.336895 0.544781
O O5 0.939623 0.394780 0.750000
O O6 0.917294 0.458647 0.941928
O O7 0.000000 0.423772 1.000000
O O8 0.905167 0.242062 0.455219
O O9 0.940737 0.195397 0.250000
O O10 0.876711 0.123289 0.463660
O O11 0.000000 0.218536 0.500000
O O12 0.119709 0.665433 0.488780
#
# Coordination Sequence:
#
# PCOD9578058 Si02
#       6
#    12  12  12  12  12  12
#     4   9  18  32  49  70  96 123 151 188 233 278
#     4  10  20  32  47  69  96 125 157 193 232 274
#     4   9  18  31  46  67  94 120 148 184 224 266
#     4  10  20  32  47  69  96 125 157 193 232 274
#     4   9  18  32  49  70  96 123 151 188 233 278
#     4   9  18  31  46  67  94 120 148 184 224 266
#
# _framework density 15.438314
#
# number of rings (size 3 to 8) (size 9 to 14) (size 15 to 20)
#    0.000    2.667    0.000    4.000    0.000    7.333 
#    0.000    3.333    0.000    1.000    0.000    0.000 
#    0.000    0.000    0.000    0.000    0.000    0.000 
#
# Total GULP energy -401520.619313 kJ/mol
# GULP energy per Si atom -5576.675268 kJ/mol
# Density = 1.540318 g / cm^3
# Si number density = 15.438314 Si / 1000 Ang^3
#
#
#
# Elastic Constant Matrix: (Units=GPa)
#
#
# Indices 1 2 3 4 5 6 
#
# 1 99.5672 64.7516 66.2097 0.0000 0.0000 0.0000
# 2 64.7516 99.5672 66.2097 0.0000 0.0000 0.0000
# 3 66.2097 66.2097 66.2051 0.0000 0.0000 0.0000
# 4 0.0000 0.0000 0.0000 31.2417 0.0000 0.0000
# 5 0.0000 0.0000 0.0000 0.0000 31.2417 0.0000
# 6 0.0000 0.0000 0.0000 0.0000 0.0000 17.4078
#
#
#
# Elastic Compliance Matrix: (Units=1/GPa)
#
#
# Indices 1 2 3 4 5 6 
#
# 1 0.030040 0.001317 -0.031360 0.000000 0.000000 0.000000
# 2 0.001317 0.030040 -0.031360 0.000000 0.000000 0.000000
# 3 -0.031360 -0.031360 0.077828 0.000000 0.000000 0.000000
# 4 0.000000 0.000000 0.000000 0.032009 0.000000 0.000000
# 5 0.000000 0.000000 0.000000 0.000000 0.032009 0.000000
# 6 0.000000 0.000000 0.000000 0.000000 0.000000 0.057445
#
#
# Mechanical properties :
#
#
# Convention : Reuss Voigt Hill
#
# Bulk Modulus (GPa) = 66.20513 73.29794 69.75154
# Shear Modulus (GPa) = 12.91291 20.52281 16.71786
#
# Velocity S-wave (km/s) = 2.89523 3.64997 3.29429
# Velocity P-wave (km/s) = 7.35889 8.08357 7.72972
#
# Compressibility (1/GPa) = 0.01510457
#
# Stress axis : x y z
#
# Youngs Moduli (GPa) = 33.28884 33.28884 12.84882
#
# Poissons Ratio (x) = -0.04385 0.40293
# Poissons Ratio (y) = -0.04385 0.40293
# Poissons Ratio (z) = 1.04393 1.04393
#
# Static dielectric constant tensor:
#      x y z
#    x 1.499050 0.000000 0.000000 
#    y 0.000000 1.499050 0.000000 
#    z 0.000000 0.000000 1.508120 
# 
# From -- ./inp_files/1257.got.cif
#   From: 2010.05.17/outbox.cif.g08.bks.cpg/sg163_1_cif.got.tgz:1257.got - 2010.05.20 10:56:03.
