data_PCOD9578347
_publ_section_title
;
Structure prediction by ZEFSAII (Michael W. Deem and Ramdas Pophale) SiO2 
 PCOD9578347
Probable space group: P -3 M 1
;
_chemical_formula_sum "Si O2"
_cell_formula_units_Z 84
_cell_length_a 21.190002
_cell_length_b 21.190002
_cell_length_c 13.250906
_cell_angle_alpha 90.000000
_cell_angle_beta 90.000000
_cell_angle_gamma 120.000000
_cell_volume 5152.739658
_symmetry_space_group_name_H-M "P -3 M 1"
_symmetry_group_IT_number 164
_symmetry_cell_setting 'hexagonal'
loop_
_space_group_symop_operation_xyz
x,y,z
-y,x-y,z
-x+y,-x,z
x-y,-y,-z
-x,-x+y,-z
y,x,-z
-x,-y,-z
y,-x+y,-z
x-y,x,-z
-x+y,y,z
x,x-y,z
-y,-x,z
loop_
_atom_site_type_symbol
_atom_site_label
_atom_site_fract_x
_atom_site_fract_y
_atom_site_fract_z
Si Si1 0.555667 0.964678 0.607178
Si Si2 0.666805 0.189365 0.487498
Si Si3 0.520667 0.187881 0.719036
Si Si4 0.778474 0.075866 0.044116
Si Si5 0.042160 0.393572 0.816192
Si Si6 0.664615 0.478302 0.098187
Si Si7 0.108076 0.674660 0.092785
O O1 0.492637 0.985274 0.629829
O O2 0.515219 0.878539 0.586156
O O3 0.608396 0.981877 0.701430
O O4 0.590100 0.000000 0.500000
O O5 0.608517 0.217034 0.487646
O O6 0.745979 0.254022 0.461198
O O7 0.666595 0.164496 0.603229
O O8 0.587144 0.174288 0.743525
O O9 0.547048 0.273524 0.722156
O O10 0.457289 0.147906 0.800272
O O11 0.860190 0.139811 0.061038
O O12 0.727079 0.058207 0.142953
O O13 0.740340 0.103743 0.962221
O O14 0.766495 0.000000 0.000000
O O15 0.116975 0.468698 0.833697
O O16 0.975783 0.385681 0.885475
O O17 0.745907 0.491813 0.110433
O O18 0.604854 0.395147 0.117168
O O19 0.655414 0.501620 0.985122
#
# Coordination Sequence:
#
# PCOD9578347 Si02
#       7
#    12  12  12  12  12  12  12
#     4  10  20  33  47  64  88 116 151 198 247 287
#     4   9  18  30  44  61  81 110 147 188 233 281
#     4  10  18  28  42  61  87 117 151 191 236 282
#     4   9  18  33  52  75 101 128 156 183 218 266
#     4  10  20  33  50  68  87 117 155 195 233 273
#     4  11  22  34  47  65  91 120 151 186 227 275
#     4  10  19  30  47  68  90 118 151 189 226 270
#
# _framework density 16.302007
#
# number of rings (size 3 to 8) (size 9 to 14) (size 15 to 20)
#    0.000    2.143    0.000    6.000    0.000    6.286 
#    0.000    1.429    0.000    1.857    0.000    0.000 
#    0.000    0.000    0.000    0.000    0.000    0.714 
#
# Total GULP energy -468442.872811 kJ/mol
# GULP energy per Si atom -5576.700867 kJ/mol
# Density = 1.626490 g / cm^3
# Si number density = 16.302007 Si / 1000 Ang^3
#
#
#
# Elastic Constant Matrix: (Units=GPa)
#
#
# Indices 1 2 3 4 5 6 
#
# 1 54.8468 21.2370 19.7101 -0.2034 0.0000 0.0000
# 2 21.2370 54.8468 19.7101 0.2034 0.0000 0.0000
# 3 19.7101 19.7101 68.6984 0.0000 0.0000 0.0000
# 4 -0.2034 0.2034 0.0000 12.3655 0.0000 0.0000
# 5 0.0000 0.0000 0.0000 0.0000 12.3655 -0.2034
# 6 0.0000 0.0000 0.0000 0.0000 -0.2034 16.8049
#
#
#
# Elastic Compliance Matrix: (Units=1/GPa)
#
#
# Indices 1 2 3 4 5 6 
#
# 1 0.022599 -0.007160 -0.004429 0.000490 0.000000 0.000000
# 2 -0.007160 0.022599 -0.004429 -0.000490 0.000000 0.000000
# 3 -0.004429 -0.004429 0.017098 0.000000 0.000000 0.000000
# 4 0.000490 -0.000490 0.000000 0.080886 0.000000 0.000000
# 5 0.000000 0.000000 0.000000 0.000000 0.080886 0.000979
# 6 0.000000 0.000000 0.000000 0.000000 0.000979 0.059518
#
#
# Mechanical properties :
#
#
# Convention : Reuss Voigt Hill
#
# Bulk Modulus (GPa) = 33.05001 33.30072 33.17536
# Shear Modulus (GPa) = 15.35104 16.15615 15.75359
#
# Velocity S-wave (km/s) = 3.07199 3.15151 3.11200
# Velocity P-wave (km/s) = 5.73589 5.80641 5.77126
#
# Compressibility (1/GPa) = 0.03025718
#
# Stress axis : x y z
#
# Youngs Moduli (GPa) = 44.25021 44.25021 58.48628
#
# Poissons Ratio (x) = 0.31685 0.25906
# Poissons Ratio (y) = 0.31685 0.25906
# Poissons Ratio (z) = 0.19600 0.19600
#
# Static dielectric constant tensor:
#      x y z
#    x 1.554550 0.000000 0.000000 
#    y 0.000000 1.554550 0.000000 
#    z 0.000000 0.000000 1.577600 
# 
# From -- ./inp_files/2888.got.cif
#   From: 2010.05.17/outbox.cif.g08.bks.cpg/sg164_2_cif.got.tgz:2888.got - 2010.05.20 10:58:56.
