data_PCOD9578939
_publ_section_title
;
Structure prediction by ZEFSAII (Michael W. Deem and Ramdas Pophale) SiO2 
 PCOD9578939
Probable space group: P -3 C 1
;
_chemical_formula_sum "Si O2"
_cell_formula_units_Z 46
_cell_length_a 12.745161
_cell_length_b 12.745161
_cell_length_c 15.404509
_cell_angle_alpha 90.000000
_cell_angle_beta 90.000000
_cell_angle_gamma 120.000000
_cell_volume 2167.051058
_symmetry_space_group_name_H-M "P -3 C 1"
_symmetry_group_IT_number 165
_symmetry_cell_setting 'hexagonal'
loop_
_space_group_symop_operation_xyz
x,y,z
-y,x-y,z
-x+y,-x,z
x-y,-y,1/2-z
-x,-x+y,1/2-z
y,x,1/2-z
-x,-y,-z
y,-x+y,-z
x-y,x,-z
-x+y,y,1/2+z
x,x-y,1/2+z
-y,-x,1/2+z
loop_
_atom_site_type_symbol
_atom_site_label
_atom_site_fract_x
_atom_site_fract_y
_atom_site_fract_z
Si Si1 0.210209 0.817773 0.452187
Si Si2 0.531134 0.444927 0.082851
Si Si3 0.387990 0.000000 0.250000
Si Si4 0.808278 0.076335 0.873989
Si Si5 0.000000 0.000000 0.893276
O O1 0.114674 0.691556 0.409194
O O2 0.333244 0.812579 0.444276
O O3 0.166763 0.821488 0.549260
O O4 0.229814 0.940099 0.407390
O O5 0.555246 0.517872 0.171809
O O6 0.500000 0.500000 0.000000
O O7 0.353276 0.096215 0.291406
O O8 0.930072 0.069683 0.862433
O O9 0.000000 0.000000 0.000000
#
# Coordination Sequence:
#
# PCOD9578939 Si02
#       5
#    12  12   6  12   4
#     4  11  20  42  68  93 133 185 233 289 348 429
#     4  11  23  44  68  96 138 183 233 287 360 416
#     4  10  24  44  62  98 144 174 238 290 340 422
#     4  11  22  41  69 103 143 182 238 295 353 440
#     4  12  21  37  71 109 138 193 233 281 386 442
#
# _framework density 21.227003
#
# number of rings (size 3 to 8) (size 9 to 14) (size 15 to 20)
#    0.000    1.043    7.826    0.522    0.000    1.043 
#    9.391    0.000    0.000    0.000    0.000    0.000 
#    0.000    0.000    0.000    0.000    0.000    0.000 
#
# Total GULP energy -256368.528179 kJ/mol
# GULP energy per Si atom -5573.228873 kJ/mol
# Density = 2.117869 g / cm^3
# Si number density = 21.227003 Si / 1000 Ang^3
#
#
#
# Elastic Constant Matrix: (Units=GPa)
#
#
# Indices 1 2 3 4 5 6 
#
# 1 74.8643 -5.1506 27.4255 -3.8446 0.0000 0.0000
# 2 -5.1506 74.8643 27.4255 3.8446 0.0000 0.0000
# 3 27.4255 27.4255 136.5223 0.0000 0.0000 0.0000
# 4 -3.8446 3.8446 0.0000 35.6155 0.0000 0.0000
# 5 0.0000 0.0000 0.0000 0.0000 35.6155 -3.8446
# 6 0.0000 0.0000 0.0000 0.0000 -3.8446 40.0074
#
#
#
# Elastic Compliance Matrix: (Units=1/GPa)
#
#
# Indices 1 2 3 4 5 6 
#
# 1 0.014833 0.002204 -0.003423 0.001363 0.000000 0.000000
# 2 0.002204 0.014833 -0.003423 -0.001363 0.000000 0.000000
# 3 -0.003423 -0.003423 0.008700 0.000000 0.000000 0.000000
# 4 0.001363 -0.001363 0.000000 0.028372 0.000000 0.000000
# 5 0.000000 0.000000 0.000000 0.000000 0.028372 0.002726
# 6 0.000000 0.000000 0.000000 0.000000 0.002726 0.025257
#
#
# Mechanical properties :
#
#
# Convention : Reuss Voigt Hill
#
# Bulk Modulus (GPa) = 34.38292 42.85019 38.61656
# Shear Modulus (GPa) = 35.88255 38.01773 36.95014
#
# Velocity S-wave (km/s) = 4.11593 4.23662 4.17671
# Velocity P-wave (km/s) = 6.23063 6.64548 6.44140
#
# Compressibility (1/GPa) = 0.02908421
#
# Stress axis : x y z
#
# Youngs Moduli (GPa) = 67.41734 67.41734 114.94383
#
# Poissons Ratio (x) = -0.14861 0.39340
# Poissons Ratio (y) = -0.14861 0.39340
# Poissons Ratio (z) = 0.23074 0.23074
#
# Static dielectric constant tensor:
#      x y z
#    x 2.618770 0.000000 0.000000 
#    y 0.000000 2.618770 0.000000 
#    z 0.000000 0.000000 2.007970 
# 
# From -- ./inp_files/1544.got.cif
#   From: 2010.05.17/outbox.cif.g08.bks.cpg/sg165_1_cif.got.tgz:1544.got - 2010.05.20 11:02:39.
