data_PCOD9578623
_publ_section_title
;
Structure prediction by ZEFSAII (Michael W. Deem and Ramdas Pophale) SiO2 
 PCOD9578623
Probable space group: P -3 M 1
;
_chemical_formula_sum "Si O2"
_cell_formula_units_Z 84
_cell_length_a 18.036436
_cell_length_b 18.036436
_cell_length_c 15.671637
_cell_angle_alpha 90.000000
_cell_angle_beta 90.000000
_cell_angle_gamma 120.000000
_cell_volume 4415.159990
_symmetry_space_group_name_H-M "P -3 M 1"
_symmetry_group_IT_number 164
_symmetry_cell_setting 'hexagonal'
loop_
_space_group_symop_operation_xyz
x,y,z
-y,x-y,z
-x+y,-x,z
x-y,-y,-z
-x,-x+y,-z
y,x,-z
-x,-y,-z
y,-x+y,-z
x-y,x,-z
-x+y,y,z
x,x-y,z
-y,-x,z
loop_
_atom_site_type_symbol
_atom_site_label
_atom_site_fract_x
_atom_site_fract_y
_atom_site_fract_z
Si Si1 0.366365 0.468754 0.000625
Si Si2 0.096664 0.369458 0.343813
Si Si3 0.840479 0.333014 0.500212
Si Si4 0.668192 0.160338 0.190438
Si Si5 0.826228 0.998935 0.896992
Si Si6 0.360917 0.265829 0.343228
Si Si7 0.092429 0.735674 0.156274
O O1 0.430818 0.569183 0.017069
O O2 0.303303 0.420359 0.077475
O O3 0.423085 0.423085 0.000000
O O4 0.327382 0.461051 0.907008
O O5 0.175359 0.350718 0.351954
O O6 0.114922 0.441322 0.413413
O O7 0.092839 0.397776 0.246792
O O8 0.002188 0.288703 0.355571
O O9 0.850124 0.425062 0.488467
O O10 0.740799 0.259201 0.504921
O O11 0.880358 0.306921 0.422107
O O12 0.573672 0.147345 0.203158
O O13 0.740621 0.259380 0.201957
O O14 0.690743 0.108275 0.258550
O O15 0.819117 0.909559 0.871540
O O16 0.749922 0.012189 0.860735
O O17 0.920581 0.079420 0.875569
O O18 0.819398 0.000000 0.000000
O O19 0.331452 0.165726 0.340293
O O20 0.167960 0.832041 0.163810
#
# Coordination Sequence:
#
# PCOD9578623 Si02
#       7
#    12  12  12  12  12  12  12
#     4  10  20  33  49  70  99 137 181 226 268 314
#     4  10  22  38  55  78 110 147 186 229 271 313
#     4  10  21  38  61  88 116 144 175 216 270 330
#     4  10  20  34  54  81 112 143 176 219 275 338
#     4   9  17  29  48  75 106 140 178 223 276 331
#     4  10  21  36  57  85 113 143 178 220 275 333
#     4  10  20  34  51  72 101 139 183 225 264 309
#
# _framework density 19.025358000000001
#
# number of rings (size 3 to 8) (size 9 to 14) (size 15 to 20)
#    0.000    2.143    0.000    3.000    0.000    3.429 
#    0.000    5.000    0.000    0.571    0.000    0.000 
#    0.000    3.429    0.000    0.429    0.000    0.000 
#
# Total GULP energy -468516.837256 kJ/mol
# GULP energy per Si atom -5577.581396 kJ/mol
# Density = 1.898206 g / cm^3
# Si number density = 19.025358 Si / 1000 Ang^3
#
#
#
# Elastic Constant Matrix: (Units=GPa)
#
#
# Indices 1 2 3 4 5 6 
#
# 1 40.3071 8.2628 14.2524 2.2750 0.0000 0.0000
# 2 8.2628 40.3071 14.2524 -2.2750 0.0000 0.0000
# 3 14.2524 14.2524 89.4319 0.0000 0.0000 0.0000
# 4 2.2750 -2.2750 0.0000 17.1135 0.0000 0.0000
# 5 0.0000 0.0000 0.0000 0.0000 17.1135 2.2750
# 6 0.0000 0.0000 0.0000 0.0000 2.2750 16.0221
#
#
#
# Elastic Compliance Matrix: (Units=1/GPa)
#
#
# Indices 1 2 3 4 5 6 
#
# 1 0.027260 -0.004547 -0.003620 -0.004228 0.000000 0.000000
# 2 -0.004547 0.027260 -0.003620 0.004228 0.000000 0.000000
# 3 -0.003620 -0.003620 0.012335 0.000000 0.000000 0.000000
# 4 -0.004228 0.004228 0.000000 0.059558 0.000000 0.000000
# 5 0.000000 0.000000 0.000000 0.000000 0.059558 -0.008457
# 6 0.000000 0.000000 0.000000 0.000000 -0.008457 0.063615
#
#
# Mechanical properties :
#
#
# Convention : Reuss Voigt Hill
#
# Bulk Modulus (GPa) = 23.10375 27.06457 25.08416
# Shear Modulus (GPa) = 17.38608 18.93504 18.16056
#
# Velocity S-wave (km/s) = 3.02625 3.15819 3.09292
# Velocity P-wave (km/s) = 4.93771 5.24931 5.09589
#
# Compressibility (1/GPa) = 0.04328302
#
# Stress axis : x y z
#
# Youngs Moduli (GPa) = 36.68345 36.68345 81.06745
#
# Poissons Ratio (x) = 0.16680 0.29344
# Poissons Ratio (y) = 0.16680 0.29344
# Poissons Ratio (z) = 0.13278 0.13278
#
# Static dielectric constant tensor:
#      x y z
#    x 1.666450 0.000000 0.000000 
#    y 0.000000 1.666450 0.000000 
#    z 0.000000 0.000000 1.693790 
# 
# From -- ./inp_files/3569.got.cif
#   From: 2010.05.17/outbox.cif.g08.bks.cpg/sg164_2_cif.got.tgz:3569.got - 2010.05.20 10:58:56.
