data_PCOD9578768
_publ_section_title
;
Structure prediction by ZEFSAII (Michael W. Deem and Ramdas Pophale) SiO2 
 PCOD9578768
Probable space group: P -3 C 1
;
_chemical_formula_sum "Si O2"
_cell_formula_units_Z 48
_cell_length_a 16.426085
_cell_length_b 16.426085
_cell_length_c 10.332173
_cell_angle_alpha 90.000000
_cell_angle_beta 90.000000
_cell_angle_gamma 120.000000
_cell_volume 2414.295543
_symmetry_space_group_name_H-M "P -3 C 1"
_symmetry_group_IT_number 165
_symmetry_cell_setting 'hexagonal'
loop_
_space_group_symop_operation_xyz
x,y,z
-y,x-y,z
-x+y,-x,z
x-y,-y,1/2-z
-x,-x+y,1/2-z
y,x,1/2-z
-x,-y,-z
y,-x+y,-z
x-y,x,-z
-x+y,y,1/2+z
x,x-y,1/2+z
-y,-x,1/2+z
loop_
_atom_site_type_symbol
_atom_site_label
_atom_site_fract_x
_atom_site_fract_y
_atom_site_fract_z
Si Si1 0.115249 0.634569 0.260124
Si Si2 0.688059 0.959514 0.893463
Si Si3 0.210662 0.289689 0.353722
Si Si4 0.482550 0.893757 0.983321
O O1 0.129067 0.736644 0.285908
O O2 0.151147 0.599698 0.379361
O O3 0.000000 0.570302 0.250000
O O4 0.151109 0.618691 0.124304
O O5 0.733719 0.893269 0.886249
O O6 0.578268 0.903388 0.929138
O O7 0.696336 0.000000 0.750000
O O8 0.736521 0.032155 0.011850
O O9 0.223012 0.223012 0.250000
O O10 0.500000 0.000000 0.000000
#
# Coordination Sequence:
#
# PCOD9578768 Si02
#       4
#    12  12  12  12
#     4   9  17  32  54  81 121 140 184 241 296 356
#     4  12  23  35  63  87 117 163 209 255 322 366
#     4  11  22  41  55  87 124 157 208 276 301 368
#     4  10  17  33  57  88 117 146 185 241 303 369
#
# _framework density 19.881575999999999
#
# number of rings (size 3 to 8) (size 9 to 14) (size 15 to 20)
#    0.000    1.500    7.500    3.750    0.000    0.000 
#    0.000    0.000    0.000   11.000    0.000    3.500 
#    0.000    0.000    0.000    0.000    0.000    0.000 
#
# Total GULP energy -267739.825518 kJ/mol
# GULP energy per Si atom -5577.913032 kJ/mol
# Density = 1.983632 g / cm^3
# Si number density = 19.881576 Si / 1000 Ang^3
#
#
#
# Elastic Constant Matrix: (Units=GPa)
#
#
# Indices 1 2 3 4 5 6 
#
# 1 22.6566 3.5700 8.9357 3.1484 0.0000 0.0000
# 2 3.5700 22.6566 8.9357 -3.1484 0.0000 0.0000
# 3 8.9357 8.9357 130.4199 0.0000 0.0000 0.0000
# 4 3.1484 -3.1484 0.0000 10.1886 0.0000 0.0000
# 5 0.0000 0.0000 0.0000 0.0000 10.1886 3.1484
# 6 0.0000 0.0000 0.0000 0.0000 3.1484 9.5433
#
#
#
# Elastic Compliance Matrix: (Units=1/GPa)
#
#
# Indices 1 2 3 4 5 6 
#
# 1 0.049169 -0.009172 -0.002740 -0.018028 0.000000 0.000000
# 2 -0.009172 0.049169 -0.002740 0.018028 0.000000 0.000000
# 3 -0.002740 -0.002740 0.008043 0.000000 0.000000 0.000000
# 4 -0.018028 0.018028 0.000000 0.109290 0.000000 0.000000
# 5 0.000000 0.000000 0.000000 0.000000 0.109290 -0.036056
# 6 0.000000 0.000000 0.000000 0.000000 -0.036056 0.116681
#
#
# Mechanical properties :
#
#
# Convention : Reuss Voigt Hill
#
# Bulk Modulus (GPa) = 12.97443 24.29066 18.63254
# Shear Modulus (GPa) = 10.06767 16.27021 13.16894
#
# Velocity S-wave (km/s) = 2.25273 2.86380 2.57645
# Velocity P-wave (km/s) = 3.64780 4.81449 4.27117
#
# Compressibility (1/GPa) = 0.07707469
#
# Stress axis : x y z
#
# Youngs Moduli (GPa) = 20.33819 20.33819 124.33087
#
# Poissons Ratio (x) = 0.18654 0.34071
# Poissons Ratio (y) = 0.18654 0.34071
# Poissons Ratio (z) = 0.05573 0.05573
#
# Static dielectric constant tensor:
#      x y z
#    x 1.724750 0.000000 0.000000 
#    y 0.000000 1.724750 0.000000 
#    z 0.000000 0.000000 1.748340 
# 
# From -- ./inp_files/540.got.cif
#   From: 2010.05.17/outbox.cif.g08.bks.cpg/sg165_1_cif.got.tgz:540.got - 2010.05.20 11:02:39.
