data_PCOD9578295
_publ_section_title
;
Structure prediction by ZEFSAII (Michael W. Deem and Ramdas Pophale) SiO2 
 PCOD9578295
Probable space group: P -3 1 C
;
_chemical_formula_sum "Si O2"
_cell_formula_units_Z 72
_cell_length_a 24.806428
_cell_length_b 24.806428
_cell_length_c 7.540707
_cell_angle_alpha 90.000000
_cell_angle_beta 90.000000
_cell_angle_gamma 120.000000
_cell_volume 4018.566533
_symmetry_space_group_name_H-M "P -3 1 C"
_symmetry_group_IT_number 163
_symmetry_cell_setting 'hexagonal'
loop_
_space_group_symop_operation_xyz
x,y,z
-y,x-y,z
-x+y,-x,z
-y,-x,1/2-z
-x+y,y,1/2-z
x,x-y,1/2-z
-x,-y,-z
y,-x+y,-z
x-y,x,-z
y,x,1/2+z
x-y,-y,1/2+z
-x,-x+y,1/2+z
loop_
_atom_site_type_symbol
_atom_site_label
_atom_site_fract_x
_atom_site_fract_y
_atom_site_fract_z
Si Si1 0.403329 0.475678 0.462798
Si Si2 0.404614 0.141151 0.533263
Si Si3 0.858849 0.263462 0.966736
Si Si4 0.808793 0.737217 0.962033
Si Si5 0.737217 0.808793 0.037967
Si Si6 0.524322 0.596671 0.462798
O O1 0.333473 0.449709 0.529333
O O2 0.457495 0.542505 0.531247
O O3 0.401668 0.480869 0.250000
O O4 0.426890 0.426890 0.500000
O O5 0.405100 0.140460 0.750000
O O6 0.421015 0.210508 0.480386
O O7 0.333282 0.094791 0.475582
O O8 0.905209 0.238491 0.024417
O O9 0.883764 0.333473 0.029333
O O10 0.877534 0.755068 0.027740
O O11 0.810036 0.733110 0.750000
O O12 0.783996 0.783996 1.000000
#
# Coordination Sequence:
#
# PCOD9578295 Si02
#       6
#    12  12  12  12  12  12
#     4   9  16  25  39  59  80 103 131 161 194 231
#     4   8  14  25  40  57  79 106 132 159 193 232
#     4   8  14  25  40  57  79 106 132 159 193 232
#     4   9  17  28  42  60  80 103 130 158 192 233
#     4   9  17  28  42  60  80 103 130 158 192 233
#     4   9  16  25  39  59  80 103 131 161 194 231
#
# _framework density 17.916834999999999
#
# number of rings (size 3 to 8) (size 9 to 14) (size 15 to 20)
#    0.000    3.333    0.000    3.000    0.000    0.667 
#    0.000    0.000    0.000    4.000    0.000    4.667 
#    0.000    0.000    0.000    0.000    0.000    0.333 
#
# Total GULP energy -401167.637234 kJ/mol
# GULP energy per Si atom -5571.772739 kJ/mol
# Density = 1.787606 g / cm^3
# Si number density = 17.916835 Si / 1000 Ang^3
#
#
#
# Elastic Constant Matrix: (Units=GPa)
#
#
# Indices 1 2 3 4 5 6 
#
# 1 164.1727 112.8033 4.2796 0.0000 0.0000 0.0000
# 2 112.8033 164.1727 4.2796 0.0000 0.0000 0.0000
# 3 4.2796 4.2796 42.3184 0.0000 0.0000 0.0000
# 4 0.0000 0.0000 0.0000 -1.0693 0.0000 0.0000
# 5 0.0000 0.0000 0.0000 0.0000 -1.0693 0.0000
# 6 0.0000 0.0000 0.0000 0.0000 0.0000 25.6847
#
#
#
# Elastic Compliance Matrix: (Units=1/GPa)
#
#
# Indices 1 2 3 4 5 6 
#
# 1 0.011544 -0.007923 -0.000366 0.000000 0.000000 0.000000
# 2 -0.007923 0.011544 -0.000366 0.000000 0.000000 0.000000
# 3 -0.000366 -0.000366 0.023704 0.000000 0.000000 0.000000
# 4 0.000000 0.000000 0.000000 -0.935181 0.000000 0.000001
# 5 0.000000 0.000000 0.000000 0.000000 -0.935181 0.000000
# 6 0.000000 0.000000 0.000000 0.000001 0.000000 0.038934
#
#
# Mechanical properties :
#
#
# Convention : Reuss Voigt Hill
#
# Bulk Modulus (GPa) = 33.91800 68.15433 51.03616
# Shear Modulus (GPa) = -2.84495 21.32930 9.24218
#
# Velocity S-wave (km/s) = -1.26147 3.45405 2.27367
# Velocity P-wave (km/s) = 4.10489 7.35045 5.95312
#
# Compressibility (1/GPa) = 0.02948287
#
# Stress axis : x y z
#
# Youngs Moduli (GPa) = 86.62295 86.62295 42.18617
#
# Poissons Ratio (x) = 0.68627 0.01545
# Poissons Ratio (y) = 0.68627 0.01545
# Poissons Ratio (z) = 0.03173 0.03173
#
# Static dielectric constant tensor:
#      x y z
#    x 1.616240 0.000000 0.000000 
#    y 0.000000 1.616240 0.000000 
#    z 0.000000 0.000000 1.698640 
# 
# From -- ./inp_files/1221.got.cif
#   From: 2010.05.17/outbox.cif.g08.bks.cpg/sg163_1_cif.got.tgz:1221.got - 2010.05.20 10:56:03.
