data_PCOD9578548
_publ_section_title
;
Structure prediction by ZEFSAII (Michael W. Deem and Ramdas Pophale) SiO2 
 PCOD9578548
Probable space group: P -3 M 1
;
_chemical_formula_sum "Si O2"
_cell_formula_units_Z 60
_cell_length_a 13.144954
_cell_length_b 13.144954
_cell_length_c 25.519090
_cell_angle_alpha 90.000000
_cell_angle_beta 90.000000
_cell_angle_gamma 120.000000
_cell_volume 3818.686067
_symmetry_space_group_name_H-M "P -3 M 1"
_symmetry_group_IT_number 164
_symmetry_cell_setting 'hexagonal'
loop_
_space_group_symop_operation_xyz
x,y,z
-y,x-y,z
-x+y,-x,z
x-y,-y,-z
-x,-x+y,-z
y,x,-z
-x,-y,-z
y,-x+y,-z
x-y,x,-z
-x+y,y,z
x,x-y,z
-y,-x,z
loop_
_atom_site_type_symbol
_atom_site_label
_atom_site_fract_x
_atom_site_fract_y
_atom_site_fract_z
Si Si1 0.333604 0.425231 0.349230
Si Si2 0.574945 0.908590 0.047435
Si Si3 0.238199 0.237959 0.137594
Si Si4 0.239318 0.238776 0.260121
Si Si5 0.761048 0.999586 0.561142
O O1 0.225324 0.450647 0.348715
O O2 0.456115 0.543886 0.349666
O O3 0.317269 0.345656 0.298465
O O4 0.314968 0.344896 0.399969
O O5 0.444907 0.889814 0.053578
O O6 0.570320 0.785160 0.037447
O O7 0.653393 0.965033 0.099253
O O8 0.636906 0.000000 0.000000
O O9 0.102292 0.204584 0.131971
O O10 0.269218 0.267904 0.198802
O O11 0.251438 0.125719 0.124593
O O12 0.247399 0.123700 0.272608
O O13 0.105480 0.210960 0.267258
O O14 0.750935 0.875468 0.573406
O O15 0.730500 0.000000 0.500000
O O16 0.895866 0.104135 0.567535
#
# Coordination Sequence:
#
# PCOD9578548 Si02
#       5
#    12  12  12  12  12
#     4  10  20  32  46  65  92 127 163 195 226 265
#     4  10  20  33  49  69  94 125 160 196 232 271
#     4   9  17  30  49  73  98 121 147 184 233 285
#     4   9  17  30  50  74  96 118 147 188 237 283
#     4   9  17  30  50  75  98 118 144 185 237 285
#
# _framework density 15.712211999999999
#
# number of rings (size 3 to 8) (size 9 to 14) (size 15 to 20)
#    0.000    2.600    0.000    2.200    0.000    3.600 
#    0.000    2.000    0.000    9.200    0.000    0.000 
#    0.000    0.000    0.000    0.000    0.000    0.000 
#
# Total GULP energy -334537.658108 kJ/mol
# GULP energy per Si atom -5575.627635 kJ/mol
# Density = 1.567645 g / cm^3
# Si number density = 15.712212 Si / 1000 Ang^3
#
#
#
# Elastic Constant Matrix: (Units=GPa)
#
#
# Indices 1 2 3 4 5 6 
#
# 1 125.1159 82.9059 80.7735 -0.5368 0.0000 0.0000
# 2 82.9059 125.1159 80.7735 0.5368 0.0000 0.0000
# 3 80.7735 80.7735 91.5651 0.0000 0.0000 0.0000
# 4 -0.5368 0.5368 0.0000 20.3603 0.0000 0.0000
# 5 0.0000 0.0000 0.0000 0.0000 20.3603 -0.5368
# 6 0.0000 0.0000 0.0000 0.0000 -0.5368 21.1050
#
#
#
# Elastic Compliance Matrix: (Units=1/GPa)
#
#
# Indices 1 2 3 4 5 6 
#
# 1 0.019485 -0.004222 -0.013465 0.000625 0.000000 0.000000
# 2 -0.004222 0.019485 -0.013465 -0.000625 0.000000 0.000000
# 3 -0.013465 -0.013465 0.034677 0.000000 0.000000 0.000000
# 4 0.000625 -0.000625 0.000000 0.049148 0.000000 0.000000
# 5 0.000000 0.000000 0.000000 0.000000 0.049148 0.001250
# 6 0.000000 0.000000 0.000000 0.000000 0.001250 0.047414
#
#
# Mechanical properties :
#
#
# Convention : Reuss Voigt Hill
#
# Bulk Modulus (GPa) = 88.14276 92.30029 90.22153
# Shear Modulus (GPa) = 17.51665 18.85471 18.18568
#
# Velocity S-wave (km/s) = 3.34255 3.46787 3.40578
# Velocity P-wave (km/s) = 8.43308 8.65486 8.54469
#
# Compressibility (1/GPa) = 0.01134523
#
# Stress axis : x y z
#
# Youngs Moduli (GPa) = 51.32044 51.32044 28.83744
#
# Poissons Ratio (x) = 0.21665 0.38829
# Poissons Ratio (y) = 0.21665 0.38829
# Poissons Ratio (z) = 0.69103 0.69103
#
# Static dielectric constant tensor:
#      x y z
#    x 1.495270 0.000000 0.000000 
#    y 0.000000 1.495270 0.000000 
#    z 0.000000 0.000000 1.531190 
# 
# From -- ./inp_files/5184.got.cif
#   From: 2010.05.17/outbox.cif.g08.bks.cpg/sg164_3_cif.got.tgz:5184.got - 2010.05.20 10:58:56.
