data_PCOD9578077
_publ_section_title
;
Structure prediction by ZEFSAII (Michael W. Deem and Ramdas Pophale) SiO2 
 PCOD9578077
Probable space group: P -3 1 C
;
_chemical_formula_sum "Si O2"
_cell_formula_units_Z 84
_cell_length_a 21.147115
_cell_length_b 21.147115
_cell_length_c 12.659882
_cell_angle_alpha 90.000000
_cell_angle_beta 90.000000
_cell_angle_gamma 120.000000
_cell_volume 4903.007341
_symmetry_space_group_name_H-M "P -3 1 C"
_symmetry_group_IT_number 163
_symmetry_cell_setting 'hexagonal'
loop_
_space_group_symop_operation_xyz
x,y,z
-y,x-y,z
-x+y,-x,z
-y,-x,1/2-z
-x+y,y,1/2-z
x,x-y,1/2-z
-x,-y,-z
y,-x+y,-z
x-y,x,-z
y,x,1/2+z
x-y,-y,1/2+z
-x,-x+y,1/2+z
loop_
_atom_site_type_symbol
_atom_site_label
_atom_site_fract_x
_atom_site_fract_y
_atom_site_fract_z
Si Si1 0.155012 0.461173 0.481987
Si Si2 0.746220 0.171550 0.851907
Si Si3 0.297073 0.075726 0.490092
Si Si4 0.702713 0.782101 0.573874
Si Si5 0.924801 0.533970 0.724167
Si Si6 0.936344 0.630918 0.219630
Si Si7 0.475376 0.666621 0.713340
O O1 0.227426 0.468712 0.427283
O O2 0.107339 0.375620 0.515350
O O3 0.109698 0.475954 0.393004
O O4 0.176519 0.508777 0.588025
O O5 0.798938 0.201063 0.750000
O O6 0.664904 0.135431 0.806933
O O7 0.758636 0.113203 0.914848
O O8 0.277386 0.135285 0.447001
O O9 0.338406 0.061452 0.395416
O O10 0.233805 0.997715 0.528614
O O11 0.683896 0.753234 0.693845
O O12 0.945271 0.472636 0.750000
O O13 0.993257 0.615259 0.736203
O O14 0.865017 0.552034 0.232449
O O15 0.411423 0.588578 0.750000
O O16 0.457078 0.728539 0.750000
#
# Coordination Sequence:
#
# PCOD9578077 Si02
#       7
#    12  12  12  12  12  12  12
#     4   9  20  38  56  80 114 147 193 239 295 344
#     4   9  19  36  56  79 111 152 187 238 288 342
#     4  11  20  35  60  83 118 149 190 236 286 343
#     4  10  20  35  57  86 114 150 189 235 286 346
#     4  11  21  34  56  86 118 147 192 246 294 352
#     4  11  21  38  54  86 116 147 189 244 299 345
#     4  11  23  40  56  78 108 151 201 242 289 351
#
# _framework density 17.132342000000001
#
# number of rings (size 3 to 8) (size 9 to 14) (size 15 to 20)
#    0.000    1.714    2.857    3.571    0.000    2.286 
#    0.000    2.857    0.000    8.000    0.000    0.000 
#    0.000    0.286    0.000    0.000    0.000    0.000 
#
# Total GULP energy -468760.370950 kJ/mol
# GULP energy per Si atom -5580.480607 kJ/mol
# Density = 1.709335 g / cm^3
# Si number density = 17.132342 Si / 1000 Ang^3
#
#
#
# Elastic Constant Matrix: (Units=GPa)
#
#
# Indices 1 2 3 4 5 6 
#
# 1 69.4681 42.3958 27.3449 -0.0005 4.1915 0.0000
# 2 42.3958 69.4681 27.3449 0.0005 -4.1915 0.0000
# 3 27.3449 27.3449 66.1702 0.0000 0.0000 0.0000
# 4 -0.0005 0.0005 0.0000 14.5118 0.0000 -4.1915
# 5 4.1915 -4.1915 0.0000 0.0000 14.5118 -0.0005
# 6 0.0000 0.0000 0.0000 -4.1915 -0.0005 13.5362
#
#
#
# Elastic Compliance Matrix: (Units=1/GPa)
#
#
# Indices 1 2 3 4 5 6 
#
# 1 0.025885 -0.014682 -0.004630 0.000002 -0.011717 0.000000
# 2 -0.014682 0.025885 -0.004630 -0.000002 0.011717 0.000000
# 3 -0.004630 -0.004630 0.018939 0.000000 0.000000 0.000000
# 4 0.000002 -0.000002 0.000000 0.075678 0.000000 0.023434
# 5 -0.011717 0.011717 0.000000 0.000000 0.075678 0.000003
# 6 0.000000 0.000000 0.000000 0.023434 0.000003 0.081133
#
#
# Mechanical properties :
#
#
# Convention : Reuss Voigt Hill
#
# Bulk Modulus (GPa) = 43.80929 44.36421 44.08675
# Shear Modulus (GPa) = 13.93974 15.71335 14.82654
#
# Velocity S-wave (km/s) = 2.85555 3.03177 2.94498
# Velocity P-wave (km/s) = 6.04143 6.18116 6.11169
#
# Compressibility (1/GPa) = 0.02282621
#
# Stress axis : x y z
#
# Youngs Moduli (GPa) = 38.63310 38.63310 52.80138
#
# Poissons Ratio (x) = 0.56720 0.24445
# Poissons Ratio (y) = 0.56720 0.24445
# Poissons Ratio (z) = 0.17886 0.17886
#
# Static dielectric constant tensor:
#      x y z
#    x 1.568790 0.000000 0.000000 
#    y 0.000000 1.568790 0.000000 
#    z 0.000000 0.000000 1.620830 
# 
# From -- ./inp_files/1845.got.cif
#   From: 2010.05.17/outbox.cif.g08.bks.cpg/sg163_1_cif.got.tgz:1845.got - 2010.05.20 10:56:03.
