data_PCOD9578729
_publ_section_title
;
Structure prediction by ZEFSAII (Michael W. Deem and Ramdas Pophale) SiO2 
 PCOD9578729
Probable space group: P -3 M 1
;
_chemical_formula_sum "Si O2"
_cell_formula_units_Z 54
_cell_length_a 29.319750
_cell_length_b 29.319750
_cell_length_c 5.106647
_cell_angle_alpha 90.000000
_cell_angle_beta 90.000000
_cell_angle_gamma 120.000000
_cell_volume 3801.780121
_symmetry_space_group_name_H-M "P -3 M 1"
_symmetry_group_IT_number 164
_symmetry_cell_setting 'hexagonal'
loop_
_space_group_symop_operation_xyz
x,y,z
-y,x-y,z
-x+y,-x,z
x-y,-y,-z
-x,-x+y,-z
y,x,-z
-x,-y,-z
y,-x+y,-z
x-y,x,-z
-x+y,y,z
x,x-y,z
-y,-x,z
loop_
_atom_site_type_symbol
_atom_site_label
_atom_site_fract_x
_atom_site_fract_y
_atom_site_fract_z
Si Si1 0.480839 0.519162 0.251447
Si Si2 0.382050 0.961737 0.249013
Si Si3 0.097327 0.301723 0.592475
Si Si4 0.335886 0.061620 0.918878
Si Si5 0.856903 0.820788 0.254204
O O1 0.500000 0.500000 0.500000
O O2 0.516161 0.582523 0.264601
O O3 0.500000 0.500000 0.000000
O O4 0.320169 0.928359 0.192047
O O5 0.394312 0.000000 0.500000
O O6 0.404471 0.000000 0.000000
O O7 0.156487 0.312974 0.559448
O O8 0.074834 0.308726 0.318750
O O9 0.062353 0.241342 0.685892
O O10 0.092787 0.337106 0.820921
O O11 0.302521 0.000000 0.000000
O O12 0.851777 0.851777 0.500000
O O13 0.915879 0.831758 0.216773
O O14 0.835883 0.835883 0.000000
#
# Coordination Sequence:
#
# PCOD9578729 Si02
#       5
#     6  12  12  12  12
#     4   8  14  24  36  54  82 108 136 168 198 226
#     4   9  16  25  39  59  81 109 138 171 204 228
#     4  11  22  33  46  64  86 110 136 171 208 249
#     4  11  19  30  46  63  83 108 141 176 209 240
#     4  11  22  36  53  69  84 102 124 155 201 253
#
# _framework density 14.203872
#
# number of rings (size 3 to 8) (size 9 to 14) (size 15 to 20)
#    0.000    1.778    0.000    8.000    0.000    3.556 
#    0.000    0.000    0.000    4.444    0.000    0.000 
#    0.000    0.000    0.000    0.000    0.000    0.000 
#
# Total GULP energy -301027.421885 kJ/mol
# GULP energy per Si atom -5574.581887 kJ/mol
# Density = 1.417154 g / cm^3
# Si number density = 14.203872 Si / 1000 Ang^3
#
#
#
# Elastic Constant Matrix: (Units=GPa)
#
#
# Indices 1 2 3 4 5 6 
#
# 1 58.1339 52.0257 23.2299 -10.0087 0.0000 0.0000
# 2 52.0257 58.1339 23.2299 10.0087 0.0000 0.0000
# 3 23.2299 23.2299 107.9216 0.0000 0.0000 0.0000
# 4 -10.0087 10.0087 0.0000 10.4406 0.0000 0.0000
# 5 0.0000 0.0000 0.0000 0.0000 10.4406 -10.0087
# 6 0.0000 0.0000 0.0000 0.0000 -10.0087 3.0541
#
#
#
# Elastic Compliance Matrix: (Units=1/GPa)
#
#
# Indices 1 2 3 4 5 6 
#
# 1 -0.033232 0.043216 -0.002149 -0.073284 0.000000 0.000000
# 2 0.043216 -0.033232 -0.002149 0.073284 0.000000 0.000000
# 3 -0.002149 -0.002149 0.010191 0.000000 0.000000 0.000000
# 4 -0.073284 0.073284 0.000000 -0.044724 0.000000 0.000000
# 5 0.000000 0.000000 0.000000 0.000000 -0.044724 -0.146568
# 6 0.000000 0.000000 0.000000 0.000000 -0.146568 -0.152894
#
#
# Mechanical properties :
#
#
# Convention : Reuss Voigt Hill
#
# Bulk Modulus (GPa) = 46.37548 46.79561 46.58554
# Shear Modulus (GPa) = -13.54051 13.16733 -0.18659
#
# Velocity S-wave (km/s) = -3.09090 3.04801 -0.36284
# Velocity P-wave (km/s) = 4.47018 6.73827 5.71782
#
# Compressibility (1/GPa) = 0.02156312
#
# Stress axis : x y z
#
# Youngs Moduli (GPa) = -30.09192 -30.09192 98.12441
#
# Poissons Ratio (x) = 1.30044 0.21087
# Poissons Ratio (y) = 1.30044 0.21087
# Poissons Ratio (z) = -0.06467 -0.06467
#
# Static dielectric constant tensor:
#      x y z
#    x 1.488340 0.000000 0.000000 
#    y 0.000000 1.488340 0.000000 
#    z 0.000000 0.000000 1.479800 
# 
# From -- ./inp_files/634.got.cif
#   From: 2010.05.17/outbox.cif.g08.bks.cpg/sg164_1_cif.got.tgz:634.got - 2010.05.20 10:58:56.
