data_PCOD9578714
_publ_section_title
;
Structure prediction by ZEFSAII (Michael W. Deem and Ramdas Pophale) SiO2 
 PCOD9578714
Probable space group: P -3 M 1
;
_chemical_formula_sum "Si O2"
_cell_formula_units_Z 48
_cell_length_a 17.766569
_cell_length_b 17.766569
_cell_length_c 9.314389
_cell_angle_alpha 90.000000
_cell_angle_beta 90.000000
_cell_angle_gamma 120.000000
_cell_volume 2546.197791
_symmetry_space_group_name_H-M "P -3 M 1"
_symmetry_group_IT_number 164
_symmetry_cell_setting 'hexagonal'
loop_
_space_group_symop_operation_xyz
x,y,z
-y,x-y,z
-x+y,-x,z
x-y,-y,-z
-x,-x+y,-z
y,x,-z
-x,-y,-z
y,-x+y,-z
x-y,x,-z
-x+y,y,z
x,x-y,z
-y,-x,z
loop_
_atom_site_type_symbol
_atom_site_label
_atom_site_fract_x
_atom_site_fract_y
_atom_site_fract_z
Si Si1 0.666096 0.154439 0.489957
Si Si2 0.636619 0.636619 0.000000
Si Si3 0.665704 0.505321 0.822493
Si Si4 0.671709 0.745799 0.717313
Si Si5 0.178928 0.178928 0.500000
O O1 0.574993 0.149986 0.459848
O O2 0.746979 0.253022 0.473808
O O3 0.666952 0.131434 0.657902
O O4 0.684149 0.094130 0.384476
O O5 0.631675 0.551663 0.930145
O O6 0.666137 0.703779 0.869538
O O7 0.761601 0.523202 0.859111
O O8 0.597297 0.402704 0.822687
O O9 0.668236 0.834118 0.733432
O O10 0.760689 0.771521 0.635590
O O11 0.171482 0.085741 0.511690
#
# Coordination Sequence:
#
# PCOD9578714 Si02
#       5
#    12   6  12  12   6
#     4   9  18  35  59  85 112 146 188 231 273 321
#     4  12  23  36  54  82 117 154 188 220 263 330
#     4  10  21  37  57  80 109 146 189 234 278 324
#     4  10  22  38  57  82 113 147 182 225 278 330
#     4  10  21  40  65  88 108 136 180 234 287 336
#
# _framework density 18.851638999999999
#
# number of rings (size 3 to 8) (size 9 to 14) (size 15 to 20)
#    0.000    2.000    0.000    3.250    0.000    8.000 
#    0.000    3.125    0.000    3.000    0.000    4.375 
#    0.000    0.000    0.000    0.000    0.000    0.000 
#
# Total GULP energy -268155.613458 kJ/mol
# GULP energy per Si atom -5586.575280 kJ/mol
# Density = 1.880873 g / cm^3
# Si number density = 18.851639 Si / 1000 Ang^3
#
#
#
# Elastic Constant Matrix: (Units=GPa)
#
#
# Indices 1 2 3 4 5 6 
#
# 1 82.1475 60.9501 64.5291 9.2210 0.0000 0.0000
# 2 60.9501 82.1475 64.5291 -9.2210 0.0000 0.0000
# 3 64.5291 64.5291 125.9741 0.0000 0.0000 0.0000
# 4 9.2210 -9.2210 0.0000 23.7101 0.0000 0.0000
# 5 0.0000 0.0000 0.0000 0.0000 23.7101 9.2210
# 6 0.0000 0.0000 0.0000 0.0000 9.2210 10.5987
#
#
#
# Elastic Compliance Matrix: (Units=1/GPa)
#
#
# Indices 1 2 3 4 5 6 
#
# 1 0.042145 -0.029156 -0.006653 -0.027729 0.000000 0.000000
# 2 -0.029156 0.042145 -0.006653 0.027729 0.000000 0.000000
# 3 -0.006653 -0.006653 0.014754 0.000000 0.000000 0.000000
# 4 -0.027729 0.027729 0.000000 0.063744 0.000000 0.000000
# 5 0.000000 0.000000 0.000000 0.000000 0.063744 -0.055459
# 6 0.000000 0.000000 0.000000 0.000000 -0.055459 0.142601
#
#
# Mechanical properties :
#
#
# Convention : Reuss Voigt Hill
#
# Bulk Modulus (GPa) = 70.82910 74.47622 72.65266
# Shear Modulus (GPa) = 10.89883 18.28784 14.59333
#
# Velocity S-wave (km/s) = 2.40706 3.11801 2.78531
# Velocity P-wave (km/s) = 6.73637 7.24948 6.99763
#
# Compressibility (1/GPa) = 0.01411849
#
# Stress axis : x y z
#
# Youngs Moduli (GPa) = 23.72777 23.72777 67.77599
#
# Poissons Ratio (x) = 0.69180 0.45094
# Poissons Ratio (y) = 0.69180 0.45094
# Poissons Ratio (z) = 0.15787 0.15787
#
# Static dielectric constant tensor:
#      x y z
#    x 1.648060 0.000000 0.000000 
#    y 0.000000 1.648060 0.000000 
#    z 0.000000 0.000000 1.624150 
# 
# From -- ./inp_files/1291.got.cif
#   From: 2010.05.17/outbox.cif.g08.bks.cpg/sg164_1_cif.got.tgz:1291.got - 2010.05.20 10:58:56.
