data_PCOD9578621
_publ_section_title
;
Structure prediction by ZEFSAII (Michael W. Deem and Ramdas Pophale) SiO2 
 PCOD9578621
Probable space group: P -3 M 1
;
_chemical_formula_sum "Si O2"
_cell_formula_units_Z 66
_cell_length_a 12.832596
_cell_length_b 12.832596
_cell_length_c 28.609553
_cell_angle_alpha 90.000000
_cell_angle_beta 90.000000
_cell_angle_gamma 120.000000
_cell_volume 4080.099440
_symmetry_space_group_name_H-M "P -3 M 1"
_symmetry_group_IT_number 164
_symmetry_cell_setting 'hexagonal'
loop_
_space_group_symop_operation_xyz
x,y,z
-y,x-y,z
-x+y,-x,z
x-y,-y,-z
-x,-x+y,-z
y,x,-z
-x,-y,-z
y,-x+y,-z
x-y,x,-z
-x+y,y,z
x,x-y,z
-y,-x,z
loop_
_atom_site_type_symbol
_atom_site_label
_atom_site_fract_x
_atom_site_fract_y
_atom_site_fract_z
Si Si1 0.000000 0.752930 0.000000
Si Si2 0.419972 0.333430 0.911366
Si Si3 0.085792 0.666383 0.367079
Si Si4 0.333788 0.418904 0.544370
Si Si5 0.246649 0.246752 0.826559
Si Si6 0.245428 0.245566 0.281173
O O1 0.975476 0.669286 0.954899
O O2 0.882840 0.765680 0.007332
O O3 0.448860 0.224430 0.910069
O O4 0.540127 0.459874 0.916211
O O5 0.348744 0.324405 0.863856
O O6 0.107697 0.553849 0.364811
O O7 0.210652 0.789349 0.375598
O O8 0.030580 0.681865 0.318815
O O9 0.992385 0.639950 0.408995
O O10 0.354003 0.354003 0.500000
O O11 0.206115 0.412229 0.543232
O O12 0.442610 0.557391 0.543046
O O13 0.219839 0.109920 0.832002
O O14 0.283871 0.282396 0.772618
O O15 0.125593 0.251186 0.835157
O O16 0.106613 0.213226 0.284977
O O17 0.255318 0.127659 0.290319
#
# Coordination Sequence:
#
# PCOD9578621 Si02
#       6
#     6  12  12  12  12  12
#     4  10  20  34  54  78 100 122 152 196 246 290
#     4  10  20  33  49  70  98 132 166 197 232 279
#     4  10  20  33  50  72  99 131 165 201 240 284
#     4  10  20  34  53  75  99 128 162 200 240 284
#     4   9  17  30  50  74  98 125 159 202 248 290
#     4   9  17  30  49  73  99 127 160 199 245 293
#
# _framework density 16.176075000000001
#
# number of rings (size 3 to 8) (size 9 to 14) (size 15 to 20)
#    0.000    2.364    0.000    2.909    0.000    2.182 
#    0.000    3.636    0.000   10.909    0.000    0.000 
#    0.000    0.000    0.000    0.000    0.000    0.000 
#
# Total GULP energy -368166.749938 kJ/mol
# GULP energy per Si atom -5578.284090 kJ/mol
# Density = 1.613926 g / cm^3
# Si number density = 16.176075 Si / 1000 Ang^3
#
#
#
# Elastic Constant Matrix: (Units=GPa)
#
#
# Indices 1 2 3 4 5 6 
#
# 1 119.0970 83.0286 80.3584 1.6364 0.0000 0.0000
# 2 83.0286 119.0970 80.3584 -1.6364 0.0000 0.0000
# 3 80.3584 80.3584 114.6655 0.0000 0.0000 0.0000
# 4 1.6364 -1.6364 0.0000 21.1664 0.0000 0.0000
# 5 0.0000 0.0000 0.0000 0.0000 21.1664 1.6364
# 6 0.0000 0.0000 0.0000 0.0000 1.6364 18.0342
#
#
#
# Elastic Compliance Matrix: (Units=1/GPa)
#
#
# Indices 1 2 3 4 5 6 
#
# 1 0.019547 -0.008374 -0.007831 -0.002159 0.000000 0.000000
# 2 -0.008374 0.019547 -0.007831 0.002159 0.000000 0.000000
# 3 -0.007831 -0.007831 0.019697 0.000000 0.000000 0.000000
# 4 -0.002159 0.002159 0.000000 0.047579 0.000000 0.000000
# 5 0.000000 0.000000 0.000000 0.000000 0.047579 -0.004317
# 6 0.000000 0.000000 0.000000 0.000000 -0.004317 0.055842
#
#
# Mechanical properties :
#
#
# Convention : Reuss Voigt Hill
#
# Bulk Modulus (GPa) = 93.27041 93.37227 93.32134
# Shear Modulus (GPa) = 19.12522 19.34763 19.23642
#
# Velocity S-wave (km/s) = 3.44221 3.46217 3.45220
# Velocity P-wave (km/s) = 8.57806 8.59243 8.58525
#
# Compressibility (1/GPa) = 0.01072151
#
# Stress axis : x y z
#
# Youngs Moduli (GPa) = 51.15749 51.15749 50.76978
#
# Poissons Ratio (x) = 0.42837 0.39757
# Poissons Ratio (y) = 0.42837 0.39757
# Poissons Ratio (z) = 0.40060 0.40060
#
# Static dielectric constant tensor:
#      x y z
#    x 1.509920 0.000000 0.000000 
#    y 0.000000 1.509920 0.000000 
#    z 0.000000 0.000000 1.542970 
# 
# From -- ./inp_files/5433.got.cif
#   From: 2010.05.17/outbox.cif.g08.bks.cpg/sg164_3_cif.got.tgz:5433.got - 2010.05.20 10:58:56.
