data_PCOD9578520
_publ_section_title
;
Structure prediction by ZEFSAII (Michael W. Deem and Ramdas Pophale) SiO2 
 PCOD9578520
Probable space group: P -3 M 1
;
_chemical_formula_sum "Si O2"
_cell_formula_units_Z 58
_cell_length_a 15.849934
_cell_length_b 15.849934
_cell_length_c 14.973269
_cell_angle_alpha 90.000000
_cell_angle_beta 90.000000
_cell_angle_gamma 120.000000
_cell_volume 3257.633143
_symmetry_space_group_name_H-M "P -3 M 1"
_symmetry_group_IT_number 164
_symmetry_cell_setting 'hexagonal'
loop_
_space_group_symop_operation_xyz
x,y,z
-y,x-y,z
-x+y,-x,z
x-y,-y,-z
-x,-x+y,-z
y,x,-z
-x,-y,-z
y,-x+y,-z
x-y,x,-z
-x+y,y,z
x,x-y,z
-y,-x,z
loop_
_atom_site_type_symbol
_atom_site_label
_atom_site_fract_x
_atom_site_fract_y
_atom_site_fract_z
Si Si1 0.566481 0.433520 0.429850
Si Si2 0.280665 0.362756 0.076517
Si Si3 0.653618 0.728243 0.783544
Si Si4 0.455854 0.911708 0.769796
Si Si5 0.349554 0.274702 0.427890
Si Si6 0.333334 0.666667 0.467478
Si Si7 0.666667 0.333334 0.745041
Si Si8 0.561622 0.438379 0.835489
O O1 0.573846 0.426155 0.322542
O O2 0.452502 0.370850 0.445373
O O3 0.613358 0.386643 0.491041
O O4 0.177249 0.354497 0.055438
O O5 0.276602 0.298490 0.161744
O O6 0.358933 0.473641 0.104017
O O7 0.324486 0.324486 0.000000
O O8 0.668462 0.834231 0.802242
O O9 0.540894 0.646711 0.809186
O O10 0.669337 0.721262 0.677611
O O11 0.515312 0.030624 0.767366
O O12 0.275347 0.275347 0.500000
O O13 0.360778 0.180389 0.440572
O O14 0.333334 0.666667 0.361487
O O15 0.611835 0.388166 0.782366
#
# Coordination Sequence:
#
# PCOD9578520 Si02
#       8
#     6  12  12   6  12   2   2   6
#     4  10  19  36  47  77 116 154 196 246 291 322
#     4  11  22  38  64  90 116 150 187 237 293 357
#     4   9  19  36  54  81 114 149 189 239 293 347
#     4   8  18  33  57  76 109 152 203 235 285 334
#     4  10  20  34  54  77 110 151 196 243 286 346
#     4  12  24  30  54  87 124 170 205 252 291 345
#     4  12  24  39  57  84 127 164 208 228 303 354
#     4  10  21  42  59  86 118 162 191 239 283 351
#
# _framework density 17.804338999999999
#
# number of rings (size 3 to 8) (size 9 to 14) (size 15 to 20)
#    0.000    2.069    2.069    1.241    1.448    5.793 
#    0.621    0.000    0.000    3.931    0.000    0.000 
#    0.000    0.000    0.000    0.000    0.000    0.000 
#
# Total GULP energy -322982.783510 kJ/mol
# GULP energy per Si atom -5568.668681 kJ/mol
# Density = 1.776382 g / cm^3
# Si number density = 17.804339 Si / 1000 Ang^3
#
#
#
# Elastic Constant Matrix: (Units=GPa)
#
#
# Indices 1 2 3 4 5 6 
#
# 1 85.9889 31.7265 51.6850 2.1818 0.0000 0.0000
# 2 31.7265 85.9891 51.6853 -2.1817 0.0000 0.0000
# 3 51.6850 51.6853 85.3422 0.0000 0.0000 0.0000
# 4 2.1818 -2.1817 0.0000 31.3572 0.0000 0.0000
# 5 0.0000 0.0000 0.0000 0.0000 31.3571 2.1817
# 6 0.0000 0.0000 0.0000 0.0000 2.1817 27.1320
#
#
#
# Elastic Compliance Matrix: (Units=1/GPa)
#
#
# Indices 1 2 3 4 5 6 
#
# 1 0.018339 -0.000194 -0.010989 -0.001289 0.000000 0.000000
# 2 -0.000194 0.018339 -0.010989 0.001289 0.000000 0.000000
# 3 -0.010989 -0.010989 0.025028 0.000000 0.000000 0.000000
# 4 -0.001289 0.001289 0.000000 0.032070 0.000000 0.000000
# 5 0.000000 0.000000 0.000000 0.000000 0.032070 -0.002579
# 6 0.000000 0.000000 0.000000 0.000000 -0.002579 0.037064
#
#
# Mechanical properties :
#
#
# Convention : Reuss Voigt Hill
#
# Bulk Modulus (GPa) = 57.59772 58.61264 58.10518
# Shear Modulus (GPa) = 23.46973 26.11749 24.79361
#
# Velocity S-wave (km/s) = 3.63464 3.83419 3.73575
# Velocity P-wave (km/s) = 7.07353 7.25212 7.16338
#
# Compressibility (1/GPa) = 0.01736180
#
# Stress axis : x y z
#
# Youngs Moduli (GPa) = 54.52944 54.52931 39.95551
#
# Poissons Ratio (x) = 0.01057 0.43907
# Poissons Ratio (y) = 0.01057 0.43907
# Poissons Ratio (z) = 0.59922 0.59922
#
# Static dielectric constant tensor:
#      x y z
#    x 1.795930 0.000000 0.000000 
#    y 0.000000 1.796480 -0.000010 
#    z 0.000000 -0.000010 1.645710 
# 
# From -- ./inp_files/3349.got.cif
#   From: 2010.05.17/outbox.cif.g08.bks.cpg/sg164_2_cif.got.tgz:3349.got - 2010.05.20 10:58:56.
