data_PCOD9578155
_publ_section_title
;
Structure prediction by ZEFSAII (Michael W. Deem and Ramdas Pophale) SiO2 
 PCOD9578155
Probable space group: P -3 1 C
;
_chemical_formula_sum "Si O2"
_cell_formula_units_Z 44
_cell_length_a 12.837461
_cell_length_b 12.837461
_cell_length_c 14.972685
_cell_angle_alpha 90.000000
_cell_angle_beta 90.000000
_cell_angle_gamma 120.000000
_cell_volume 2136.921625
_symmetry_space_group_name_H-M "P -3 1 C"
_symmetry_group_IT_number 163
_symmetry_cell_setting 'hexagonal'
loop_
_space_group_symop_operation_xyz
x,y,z
-y,x-y,z
-x+y,-x,z
-y,-x,1/2-z
-x+y,y,1/2-z
x,x-y,1/2-z
-x,-y,-z
y,-x+y,-z
x-y,x,-z
y,x,1/2+z
x-y,-y,1/2+z
-x,-x+y,1/2+z
loop_
_atom_site_type_symbol
_atom_site_label
_atom_site_fract_x
_atom_site_fract_y
_atom_site_fract_z
Si Si1 0.333334 0.666666 0.378618
Si Si2 0.445760 0.078927 0.887225
Si Si3 0.564785 0.652305 0.590889
Si Si4 0.333334 0.666668 0.903620
Si Si5 0.755438 0.754476 0.242668
O O1 0.210441 0.546807 0.351955
O O2 0.333334 0.666667 0.487550
O O3 0.335070 0.009341 0.821045
O O4 0.507603 0.998221 0.900124
O O5 0.408547 0.096272 0.986810
O O6 0.461808 0.682106 0.623181
O O7 0.682500 0.707857 0.650588
O O8 0.755027 0.877514 0.250000
O O9 0.888211 0.776422 0.250000
#
# Coordination Sequence:
#
# PCOD9578155 Si02
#       5
#     4  12  12   4  12
#     4   9  18  36  64  95 125 158 202 258 316 374
#     4  10  21  39  64  94 126 159 198 249 310 374
#     4  10  21  39  64  94 126 159 198 249 310 374
#     4   9  18  36  64  95 125 158 202 258 316 374
#     4  12  26  42  60  84 118 162 210 258 310 370
#
# _framework density 20.590367000000001
#
# number of rings (size 3 to 8) (size 9 to 14) (size 15 to 20)
#    0.000    1.636    0.000    4.364    0.000    6.545 
#    0.000    5.455    0.000    3.273    0.000    0.000 
#    0.000    0.000    0.000    0.000    0.000    0.000 
#
# Total GULP energy -246035.058150 kJ/mol
# GULP energy per Si atom -5591.705867 kJ/mol
# Density = 2.054350 g / cm^3
# Si number density = 20.590367 Si / 1000 Ang^3
#
#
#
# Elastic Constant Matrix: (Units=GPa)
#
#
# Indices 1 2 3 4 5 6 
#
# 1 68.7156 -15.8017 17.9515 0.0001 -0.6998 -0.0002
# 2 -15.8017 68.7159 17.9513 -0.0001 0.6998 0.0004
# 3 17.9515 17.9513 76.1167 0.0000 0.0000 -0.0002
# 4 0.0001 -0.0001 0.0000 23.2666 0.0000 0.6997
# 5 -0.6998 0.6998 0.0000 0.0000 23.2666 0.0001
# 6 -0.0002 0.0004 -0.0002 0.6997 0.0001 42.2590
#
#
#
# Elastic Compliance Matrix: (Units=1/GPa)
#
#
# Indices 1 2 3 4 5 6 
#
# 1 0.017168 0.005331 -0.005306 0.000000 0.000356 0.000000
# 2 0.005331 0.017168 -0.005306 0.000000 -0.000356 0.000000
# 3 -0.005306 -0.005306 0.015641 0.000000 0.000000 0.000000
# 4 0.000000 0.000000 0.000000 0.043002 0.000000 -0.000712
# 5 0.000356 -0.000356 0.000000 0.000000 0.043002 0.000000
# 6 0.000000 0.000000 0.000000 -0.000712 0.000000 0.023675
#
#
# Mechanical properties :
#
#
# Convention : Reuss Voigt Hill
#
# Bulk Modulus (GPa) = 25.37191 28.19450 26.78320
# Shear Modulus (GPa) = 27.26920 30.65490 28.96205
#
# Velocity S-wave (km/s) = 3.64313 3.86268 3.75451
# Velocity P-wave (km/s) = 5.48138 5.79797 5.64190
#
# Compressibility (1/GPa) = 0.03941367
#
# Stress axis : x y z
#
# Youngs Moduli (GPa) = 58.24662 58.24699 63.93646
#
# Poissons Ratio (x) = -0.31049 0.33926
# Poissons Ratio (y) = -0.31049 0.33925
# Poissons Ratio (z) = 0.30907 0.30907
#
# Static dielectric constant tensor:
#      x y z
#    x 1.704590 0.000000 0.000000 
#    y 0.000000 1.704590 0.000000 
#    z 0.000000 0.000000 1.777620 
# 
# From -- ./inp_files/2969.got.cif
#   From: 2010.05.17/outbox.cif.g08.bks.cpg/sg163_2_cif.got.tgz:2969.got - 2010.05.20 10:56:03.
