data_PCOD9578066
_publ_section_title
;
Structure prediction by ZEFSAII (Michael W. Deem and Ramdas Pophale) SiO2 
 PCOD9578066
Probable space group: P -3 1 C
;
_chemical_formula_sum "Si O2"
_cell_formula_units_Z 76
_cell_length_a 18.755688
_cell_length_b 18.755688
_cell_length_c 14.601596
_cell_angle_alpha 90.000000
_cell_angle_beta 90.000000
_cell_angle_gamma 120.000000
_cell_volume 4448.329602
_symmetry_space_group_name_H-M "P -3 1 C"
_symmetry_group_IT_number 163
_symmetry_cell_setting 'hexagonal'
loop_
_space_group_symop_operation_xyz
x,y,z
-y,x-y,z
-x+y,-x,z
-y,-x,1/2-z
-x+y,y,1/2-z
x,x-y,1/2-z
-x,-y,-z
y,-x+y,-z
x-y,x,-z
y,x,1/2+z
x-y,-y,1/2+z
-x,-x+y,1/2+z
loop_
_atom_site_type_symbol
_atom_site_label
_atom_site_fract_x
_atom_site_fract_y
_atom_site_fract_z
Si Si1 0.666667 0.333334 0.361891
Si Si2 0.525864 0.774941 0.589124
Si Si3 0.177953 0.507884 0.267822
Si Si4 0.075928 0.494919 0.424477
Si Si5 0.602413 0.939068 0.897690
Si Si6 0.079941 0.612601 0.705091
Si Si7 0.317839 0.886923 0.084718
O O1 0.666668 0.333334 0.250000
O O2 0.571711 0.293296 0.398221
O O3 0.587556 0.740268 0.607662
O O4 0.539802 0.847226 0.659020
O O5 0.549005 0.817474 0.489686
O O6 0.274454 0.548907 0.250000
O O7 0.150377 0.575189 0.250000
O O8 0.144615 0.483027 0.370002
O O9 0.142725 0.438648 0.189470
O O10 0.073185 0.466285 0.527750
O O11 0.095903 0.588485 0.425756
O O12 0.992104 0.438867 0.367738
O O13 0.588879 0.958134 0.794079
O O14 0.679093 0.026165 0.930632
O O15 0.114526 0.557263 0.750000
#
# Coordination Sequence:
#
# PCOD9578066 Si02
#       7
#     4  12  12  12  12  12  12
#     4  12  24  39  48  78 115 140 178 246 297 324
#     4  12  25  36  55  79 109 142 181 239 292 329
#     4  10  20  34  51  74 100 134 178 233 279 318
#     4  11  20  35  56  72  99 141 184 224 269 340
#     4  12  22  36  53  76 101 134 183 230 275 333
#     4  12  20  35  56  76 101 138 183 227 277 335
#     4  11  21  36  54  73 100 139 185 218 272 342
#
# _framework density 17.085063999999999
#
# number of rings (size 3 to 8) (size 9 to 14) (size 15 to 20)
#    0.000    0.632    4.737    6.789    0.000    1.263 
#    0.000    0.000    0.000    0.000    0.000    0.000 
#    0.000    0.000    0.000    0.474    0.316    3.000 
#
# Total GULP energy -423611.979913 kJ/mol
# GULP energy per Si atom -5573.841841 kJ/mol
# Density = 1.704618 g / cm^3
# Si number density = 17.085064 Si / 1000 Ang^3
#
#
#
# Elastic Constant Matrix: (Units=GPa)
#
#
# Indices 1 2 3 4 5 6 
#
# 1 59.5658 18.7463 21.2324 0.0000 -1.9511 0.0001
# 2 18.7463 59.5659 21.2324 0.0001 1.9510 0.0000
# 3 21.2324 21.2324 83.7950 0.0000 0.0000 0.0000
# 4 0.0000 0.0001 0.0000 22.0683 0.0000 1.9511
# 5 -1.9511 1.9510 0.0000 0.0000 22.0682 0.0000
# 6 0.0001 0.0000 0.0000 1.9511 0.0000 20.4098
#
#
#
# Elastic Compliance Matrix: (Units=1/GPa)
#
#
# Indices 1 2 3 4 5 6 
#
# 1 0.019755 -0.004952 -0.003751 0.000000 0.002184 0.000000
# 2 -0.004952 0.019755 -0.003751 0.000000 -0.002184 0.000000
# 3 -0.003751 -0.003751 0.013835 0.000000 0.000000 0.000000
# 4 0.000000 0.000000 0.000000 0.045700 0.000000 -0.004369
# 5 0.002184 -0.002184 0.000000 0.000000 0.045700 0.000000
# 6 0.000000 0.000000 0.000000 -0.004369 0.000000 0.049414
#
#
# Mechanical properties :
#
#
# Convention : Reuss Voigt Hill
#
# Bulk Modulus (GPa) = 35.16460 36.14987 35.65723
# Shear Modulus (GPa) = 21.87745 22.35696 22.11720
#
# Velocity S-wave (km/s) = 3.58229 3.62134 3.60187
# Velocity P-wave (km/s) = 6.14306 6.22014 6.18172
#
# Compressibility (1/GPa) = 0.02843769
#
# Stress axis : x y z
#
# Youngs Moduli (GPa) = 50.61977 50.61983 72.28179
#
# Poissons Ratio (x) = 0.25066 0.27112
# Poissons Ratio (y) = 0.25066 0.27113
# Poissons Ratio (z) = 0.18987 0.18987
#
# Static dielectric constant tensor:
#      x y z
#    x 1.616680 0.000000 0.000000 
#    y 0.000000 1.616680 0.000000 
#    z 0.000000 0.000000 1.666390 
# 
# From -- ./inp_files/2600.got.cif
#   From: 2010.05.17/outbox.cif.g08.bks.cpg/sg163_2_cif.got.tgz:2600.got - 2010.05.20 10:56:03.
