data_PCOD9578174
_publ_section_title
;
Structure prediction by ZEFSAII (Michael W. Deem and Ramdas Pophale) SiO2 
 PCOD9578174
Probable space group: P -3 1 C
;
_chemical_formula_sum "Si O2"
_cell_formula_units_Z 58
_cell_length_a 14.604295
_cell_length_b 14.604295
_cell_length_c 16.608630
_cell_angle_alpha 90.000000
_cell_angle_beta 90.000000
_cell_angle_gamma 120.000000
_cell_volume 3067.790058
_symmetry_space_group_name_H-M "P -3 1 C"
_symmetry_group_IT_number 163
_symmetry_cell_setting 'hexagonal'
loop_
_space_group_symop_operation_xyz
x,y,z
-y,x-y,z
-x+y,-x,z
-y,-x,1/2-z
-x+y,y,1/2-z
x,x-y,1/2-z
-x,-y,-z
y,-x+y,-z
x-y,x,-z
y,x,1/2+z
x-y,-y,1/2+z
-x,-x+y,1/2+z
loop_
_atom_site_type_symbol
_atom_site_label
_atom_site_fract_x
_atom_site_fract_y
_atom_site_fract_z
Si Si1 0.333335 0.666668 0.154226
Si Si2 0.650318 0.136033 0.893278
Si Si3 0.454497 0.285512 0.077034
Si Si4 0.262072 0.938244 0.781566
Si Si5 0.634731 0.817366 0.250000
Si Si6 0.107322 0.617201 0.857184
O O1 0.333334 0.666667 0.250000
O O2 0.394648 0.785052 0.120462
O O3 0.741640 0.175067 0.824528
O O4 0.561478 0.014554 0.882629
O O5 0.692064 0.149072 0.983460
O O6 0.354229 0.272984 0.125241
O O7 0.551887 0.384991 0.123091
O O8 0.454406 0.177290 0.091945
O O9 0.145172 0.854829 0.750000
O O10 0.338129 0.906260 0.729555
O O11 0.295929 0.059296 0.771036
#
# Coordination Sequence:
#
# PCOD9578174 Si02
#       6
#     4  12  12  12   6  12
#     4  12  24  39  57  84 124 173 208 246 309 369
#     4  11  24  37  59  90 124 165 212 251 313 371
#     4  11  21  36  62  85 125 157 207 255 307 366
#     4   9  21  39  60  86 116 159 202 252 317 367
#     4  10  22  40  60  84 124 158 206 252 312 376
#     4  10  22  38  57  91 123 162 205 256 312 373
#
# _framework density 18.906119
#
# number of rings (size 3 to 8) (size 9 to 14) (size 15 to 20)
#    0.000    1.655    1.034    2.897    5.793    0.000 
#    0.621    2.069    0.000    0.000    0.000    1.448 
#    0.000    0.000    0.000    0.000    0.000    0.000 
#
# Total GULP energy -323285.998510 kJ/mol
# GULP energy per Si atom -5573.896526 kJ/mol
# Density = 1.886309 g / cm^3
# Si number density = 18.906119 Si / 1000 Ang^3
#
#
#
# Elastic Constant Matrix: (Units=GPa)
#
#
# Indices 1 2 3 4 5 6 
#
# 1 69.4283 39.9587 8.9644 0.0001 7.3319 0.0006
# 2 39.9587 69.4287 8.9646 0.0000 -7.3321 0.0001
# 3 8.9644 8.9646 85.6416 0.0001 0.0000 0.0002
# 4 0.0001 0.0000 0.0001 9.1238 -0.0001 -7.3322
# 5 7.3319 -7.3321 0.0000 -0.0001 9.1238 -0.0004
# 6 0.0006 0.0001 0.0002 -7.3322 -0.0004 14.7346
#
#
#
# Elastic Compliance Matrix: (Units=1/GPa)
#
#
# Indices 1 2 3 4 5 6 
#
# 1 0.032922 -0.023621 -0.000974 -0.000004 -0.045439 -0.000004
# 2 -0.023621 0.032922 -0.000974 0.000003 0.045439 0.000004
# 3 -0.000974 -0.000974 0.011880 0.000000 0.000000 0.000000
# 4 -0.000004 0.000003 0.000000 0.182642 0.000011 0.090886
# 5 -0.045439 0.045439 0.000000 0.000011 0.182634 0.000011
# 6 -0.000004 0.000004 0.000000 0.090886 0.000011 0.113094
#
#
# Mechanical properties :
#
#
# Convention : Reuss Voigt Hill
#
# Bulk Modulus (GPa) = 37.60990 37.80822 37.70906
# Shear Modulus (GPa) = 8.11565 17.70383 12.90974
#
# Velocity S-wave (km/s) = 2.07411 3.06340 2.61594
# Velocity P-wave (km/s) = 5.06676 5.70560 5.39564
#
# Compressibility (1/GPa) = 0.02658874
#
# Stress axis : x y z
#
# Youngs Moduli (GPa) = 30.37465 30.37470 84.17232
#
# Poissons Ratio (x) = 0.71747 0.08195
# Poissons Ratio (y) = 0.71747 0.08196
# Poissons Ratio (z) = 0.02957 0.02958
#
# Static dielectric constant tensor:
#      x y z
#    x 1.665670 0.000000 0.000000 
#    y 0.000000 1.665670 0.000000 
#    z 0.000000 0.000000 1.937860 
# 
# From -- ./inp_files/2404.got.cif
#   From: 2010.05.17/outbox.cif.g08.bks.cpg/sg163_2_cif.got.tgz:2404.got - 2010.05.20 10:56:03.
