data_PCOD9578482
_publ_section_title
;
Structure prediction by ZEFSAII (Michael W. Deem and Ramdas Pophale) SiO2 
 PCOD9578482
Probable space group: P -3 M 1
;
_chemical_formula_sum "Si O2"
_cell_formula_units_Z 72
_cell_length_a 16.805675
_cell_length_b 16.805675
_cell_length_c 16.379793
_cell_angle_alpha 90.000000
_cell_angle_beta 90.000000
_cell_angle_gamma 120.000000
_cell_volume 4006.369140
_symmetry_space_group_name_H-M "P -3 M 1"
_symmetry_group_IT_number 164
_symmetry_cell_setting 'hexagonal'
loop_
_space_group_symop_operation_xyz
x,y,z
-y,x-y,z
-x+y,-x,z
x-y,-y,-z
-x,-x+y,-z
y,x,-z
-x,-y,-z
y,-x+y,-z
x-y,x,-z
-x+y,y,z
x,x-y,z
-y,-x,z
loop_
_atom_site_type_symbol
_atom_site_label
_atom_site_fract_x
_atom_site_fract_y
_atom_site_fract_z
Si Si1 0.523497 0.668887 0.549669
Si Si2 0.999519 0.821030 0.902491
Si Si3 0.849823 0.518610 0.965070
Si Si4 0.282230 0.386741 0.861413
Si Si5 0.561845 0.623397 0.202552
Si Si6 0.429035 0.377897 0.620592
O O1 0.523300 0.761650 0.571146
O O2 0.420976 0.579025 0.555144
O O3 0.558401 0.673422 0.456362
O O4 0.591410 0.646142 0.601781
O O5 0.070968 0.929033 0.890183
O O6 0.043836 0.767458 0.859149
O O7 0.897667 0.795333 0.877930
O O8 0.000000 0.805409 0.000000
O O9 0.741870 0.483739 0.963605
O O10 0.868364 0.434182 0.972760
O O11 0.892275 0.570884 0.880170
O O12 0.889692 0.581658 0.044685
O O13 0.207611 0.415221 0.835641
O O14 0.374263 0.422140 0.810348
O O15 0.456059 0.543942 0.203783
O O16 0.585068 0.669045 0.291325
O O17 0.525160 0.474841 0.624210
#
# Coordination Sequence:
#
# PCOD9578482 Si02
#       6
#    12  12  12  12  12  12
#     4   9  16  29  49  71  94 120 150 181 219 271
#     4   9  16  26  40  58  80 105 134 171 217 266
#     4  10  20  33  48  65  87 118 157 199 238 274
#     4  10  20  31  45  66  89 116 154 196 233 271
#     4  10  19  32  48  64  88 122 154 185 228 278
#     4   8  17  31  45  66  95 121 145 181 228 271
#
# _framework density 17.971384
#
# number of rings (size 3 to 8) (size 9 to 14) (size 15 to 20)
#    0.000    2.667    0.000    3.500    0.000    5.333 
#    0.000    0.000    0.000    2.333    0.000    0.000 
#    0.000    0.000    0.000   16.000    0.000    0.000 
#
# Total GULP energy -401077.620117 kJ/mol
# GULP energy per Si atom -5570.522502 kJ/mol
# Density = 1.793048 g / cm^3
# Si number density = 17.971384 Si / 1000 Ang^3
#
#
#
# Elastic Constant Matrix: (Units=GPa)
#
#
# Indices 1 2 3 4 5 6 
#
# 1 45.4273 -1.0110 -12.9315 3.0454 0.0000 0.0000
# 2 -1.0110 45.4273 -12.9315 -3.0454 0.0000 0.0000
# 3 -12.9315 -12.9315 39.6393 0.0000 0.0000 0.0000
# 4 3.0454 -3.0454 0.0000 5.2767 0.0000 0.0000
# 5 0.0000 0.0000 0.0000 0.0000 5.2767 3.0454
# 6 0.0000 0.0000 0.0000 0.0000 3.0454 23.2191
#
#
#
# Elastic Compliance Matrix: (Units=1/GPa)
#
#
# Indices 1 2 3 4 5 6 
#
# 1 0.025546 0.002248 0.009067 -0.013446 0.000000 0.000000
# 2 0.002248 0.025546 0.009067 0.013446 0.000000 0.000000
# 3 0.009067 0.009067 0.031143 0.000000 0.000000 0.000000
# 4 -0.013446 0.013446 0.000000 0.205033 0.000000 0.000000
# 5 0.000000 0.000000 0.000000 0.000000 0.205033 -0.026892
# 6 0.000000 0.000000 0.000000 0.000000 -0.026892 0.046595
#
#
# Mechanical properties :
#
#
# Convention : Reuss Voigt Hill
#
# Bulk Modulus (GPa) = 8.13009 8.52735 8.32872
# Shear Modulus (GPa) = 9.27418 17.24570 13.25994
#
# Velocity S-wave (km/s) = 2.27414 3.10113 2.71926
# Velocity P-wave (km/s) = 3.38074 4.19261 3.80837
#
# Compressibility (1/GPa) = 0.12299981
#
# Stress axis : x y z
#
# Youngs Moduli (GPa) = 39.14549 39.14549 32.10951
#
# Poissons Ratio (x) = -0.08801 -0.29114
# Poissons Ratio (y) = -0.08801 -0.29114
# Poissons Ratio (z) = -0.35494 -0.35494
#
# Static dielectric constant tensor:
#      x y z
#    x 1.636610 0.000000 0.000000 
#    y 0.000000 1.636610 0.000000 
#    z 0.000000 0.000000 1.647380 
# 
# From -- ./inp_files/4088.got.cif
#   From: 2010.05.17/outbox.cif.g08.bks.cpg/sg164_3_cif.got.tgz:4088.got - 2010.05.20 10:58:56.
