data_PCOD9578426
_publ_section_title
;
Structure prediction by ZEFSAII (Michael W. Deem and Ramdas Pophale) SiO2 
 PCOD9578426
Probable space group: P -3 M 1
;
_chemical_formula_sum "Si O2"
_cell_formula_units_Z 60
_cell_length_a 17.184503
_cell_length_b 17.184503
_cell_length_c 13.294362
_cell_angle_alpha 90.000000
_cell_angle_beta 90.000000
_cell_angle_gamma 120.000000
_cell_volume 3399.946509
_symmetry_space_group_name_H-M "P -3 M 1"
_symmetry_group_IT_number 164
_symmetry_cell_setting 'hexagonal'
loop_
_space_group_symop_operation_xyz
x,y,z
-y,x-y,z
-x+y,-x,z
x-y,-y,-z
-x,-x+y,-z
y,x,-z
-x,-y,-z
y,-x+y,-z
x-y,x,-z
-x+y,y,z
x,x-y,z
-y,-x,z
loop_
_atom_site_type_symbol
_atom_site_label
_atom_site_fract_x
_atom_site_fract_y
_atom_site_fract_z
Si Si1 0.332499 0.849611 0.747734
Si Si2 0.180475 0.997628 0.729542
Si Si3 0.148838 0.666406 0.978694
Si Si4 0.307996 0.246665 0.909718
Si Si5 0.334298 0.078138 0.426836
O O1 0.430317 0.860634 0.732796
O O2 0.255506 0.744495 0.744377
O O3 0.328061 0.879113 0.863007
O O4 0.305209 0.896528 0.660843
O O5 0.172117 0.086059 0.721739
O O6 0.260783 0.017197 0.806019
O O7 0.206418 0.969646 0.625898
O O8 0.087352 0.912649 0.765268
O O9 0.147278 0.573639 0.989795
O O10 0.249632 0.750369 0.989960
O O11 0.086974 0.678216 0.060571
O O12 0.310067 0.155034 0.913603
O O13 0.247518 0.247518 0.000000
O O14 0.349258 0.174629 0.468375
O O15 0.326935 0.000000 0.500000
#
# Coordination Sequence:
#
# PCOD9578426 Si02
#       5
#    12  12  12  12  12
#     4   9  17  30  50  75 101 129 161 197 237 282
#     4  10  20  34  51  70  94 126 165 206 246 289
#     4   9  17  30  49  73 100 130 163 198 236 279
#     4  10  19  30  45  66  94 126 157 193 237 283
#     4  10  20  34  52  73  97 125 158 200 249 295
#
# _framework density 17.647335999999999
#
# number of rings (size 3 to 8) (size 9 to 14) (size 15 to 20)
#    0.000    2.400    0.000    3.000    0.000    5.600 
#    0.000    1.000    0.000    6.400    0.000    0.000 
#    0.000    3.200    0.000    0.000    0.000    0.000 
#
# Total GULP energy -334262.519621 kJ/mol
# GULP energy per Si atom -5571.041994 kJ/mol
# Density = 1.760717 g / cm^3
# Si number density = 17.647336 Si / 1000 Ang^3
#
#
#
# Elastic Constant Matrix: (Units=GPa)
#
#
# Indices 1 2 3 4 5 6 
#
# 1 38.3657 82.4591 22.6738 -25.6094 0.0000 0.0000
# 2 82.4591 38.3657 22.6738 25.6094 0.0000 0.0000
# 3 22.6738 22.6738 35.8547 0.0000 0.0000 0.0000
# 4 -25.6094 25.6094 0.0000 11.3048 0.0000 0.0000
# 5 0.0000 0.0000 0.0000 0.0000 11.3048 -25.6094
# 6 0.0000 0.0000 0.0000 0.0000 -25.6094 -22.0467
#
#
#
# Elastic Compliance Matrix: (Units=1/GPa)
#
#
# Indices 1 2 3 4 5 6 
#
# 1 0.002303 0.008549 -0.006863 -0.014148 0.000000 0.000000
# 2 0.008549 0.002303 -0.006863 0.014148 0.000000 0.000000
# 3 -0.006863 -0.006863 0.036570 0.000000 0.000000 0.000000
# 4 -0.014148 0.014148 0.000000 0.024359 0.000000 0.000000
# 5 0.000000 0.000000 0.000000 0.000000 0.024359 -0.028295
# 6 0.000000 0.000000 0.000000 0.000000 -0.028295 -0.012491
#
#
# Mechanical properties :
#
#
# Convention : Reuss Voigt Hill
#
# Bulk Modulus (GPa) = 32.44270 40.91103 36.67687
# Shear Modulus (GPa) = 51.00363 -0.90212 25.05075
#
# Velocity S-wave (km/s) = 5.38185 -0.71576 3.77174
# Velocity P-wave (km/s) = 7.55268 4.74866 6.30844
#
# Compressibility (1/GPa) = 0.03082358
#
# Stress axis : x y z
#
# Youngs Moduli (GPa) = 434.13423 434.13423 27.34483
#
# Poissons Ratio (x) = -3.71128 0.18766
# Poissons Ratio (y) = -3.71128 0.18766
# Poissons Ratio (z) = 2.97932 2.97932
#
# Static dielectric constant tensor:
#      x y z
#    x 1.612960 0.000000 0.000000 
#    y 0.000000 1.612960 0.000000 
#    z 0.000000 0.000000 1.610090 
# 
# From -- ./inp_files/2650.got.cif
#   From: 2010.05.17/outbox.cif.g08.bks.cpg/sg164_2_cif.got.tgz:2650.got - 2010.05.20 10:58:56.
