data_PCOD9578170
_publ_section_title
;
Structure prediction by ZEFSAII (Michael W. Deem and Ramdas Pophale) SiO2 
 PCOD9578170
Probable space group: P -3 1 C
;
_chemical_formula_sum "Si O2"
_cell_formula_units_Z 74
_cell_length_a 14.463843
_cell_length_b 14.463843
_cell_length_c 18.362140
_cell_angle_alpha 90.000000
_cell_angle_beta 90.000000
_cell_angle_gamma 120.000000
_cell_volume 3326.758874
_symmetry_space_group_name_H-M "P -3 1 C"
_symmetry_group_IT_number 163
_symmetry_cell_setting 'hexagonal'
loop_
_space_group_symop_operation_xyz
x,y,z
-y,x-y,z
-x+y,-x,z
-y,-x,1/2-z
-x+y,y,1/2-z
x,x-y,1/2-z
-x,-y,-z
y,-x+y,-z
x-y,x,-z
y,x,1/2+z
x-y,-y,1/2+z
-x,-x+y,1/2+z
loop_
_atom_site_type_symbol
_atom_site_label
_atom_site_fract_x
_atom_site_fract_y
_atom_site_fract_z
Si Si1 0.602510 0.503321 0.083247
Si Si2 0.333335 0.666667 0.091599
Si Si3 0.859895 0.929948 0.250000
Si Si4 0.661981 0.813111 0.351603
Si Si5 0.501928 0.118040 0.675493
Si Si6 0.666667 0.333335 0.415516
Si Si7 0.919063 0.154750 0.501069
Si Si8 0.362371 0.369549 0.059926
O O1 0.563902 0.563393 0.139733
O O2 0.661633 0.439215 0.107875
O O3 0.486472 0.411035 0.056883
O O4 0.657714 0.580832 0.013860
O O5 0.214000 0.585449 0.122080
O O6 0.333334 0.666667 0.004190
O O7 0.778270 0.872156 0.315736
O O8 0.942870 0.885740 0.250000
O O9 0.588174 0.849501 0.312019
O O10 0.683974 0.860081 0.433379
O O11 0.606995 0.686656 0.368260
O O12 0.559977 0.119953 0.750000
O O13 0.035368 0.180713 0.526655
O O14 0.942367 0.242398 0.441217
#
# Coordination Sequence:
#
# PCOD9578170 Si02
#       8
#    12   4   6  12  12   4  12  12
#     4  11  24  44  64  99 141 179 239 282 364 414
#     4  12  25  43  78 112 145 171 235 299 382 408
#     4  10  28  48  64  96 140 194 244 292 350 446
#     4  11  24  43  70  98 139 180 240 288 360 424
#     4  12  26  45  71 107 143 189 228 292 353 452
#     4  12  27  43  74  97 138 192 232 317 337 414
#     4  10  22  36  64  97 131 172 222 285 347 408
#     4  10  22  39  69  97 134 174 220 300 353 422
#
# _framework density 22.243873000000001
#
# number of rings (size 3 to 8) (size 9 to 14) (size 15 to 20)
#    0.162    0.973    1.622    4.541   13.622    0.000 
#    0.000    0.811    0.000    0.000    0.000    0.000 
#    0.000    0.000    0.000    0.000    0.000    0.000 
#
# Total GULP energy -413087.342568 kJ/mol
# GULP energy per Si atom -5582.261386 kJ/mol
# Density = 2.219325 g / cm^3
# Si number density = 22.243873 Si / 1000 Ang^3
#
#
#
# Elastic Constant Matrix: (Units=GPa)
#
#
# Indices 1 2 3 4 5 6 
#
# 1 112.6733 40.2666 33.6903 0.0001 4.8406 0.0003
# 2 40.2666 112.6741 33.6902 -0.0001 -4.8406 0.0004
# 3 33.6903 33.6902 77.3248 0.0002 0.0001 -0.0001
# 4 0.0001 -0.0001 0.0002 36.0676 -0.0001 -4.8406
# 5 4.8406 -4.8406 0.0001 -0.0001 36.0677 0.0000
# 6 0.0003 0.0004 -0.0001 -4.8406 0.0000 36.2036
#
#
#
# Elastic Compliance Matrix: (Units=1/GPa)
#
#
# Indices 1 2 3 4 5 6 
#
# 1 0.011077 -0.002986 -0.003526 0.000000 -0.001887 0.000000
# 2 -0.002986 0.011077 -0.003526 0.000000 0.001887 0.000000
# 3 -0.003526 -0.003526 0.016005 0.000000 0.000000 0.000000
# 4 0.000000 0.000000 0.000000 0.028232 0.000000 0.003775
# 5 -0.001887 0.001887 0.000000 0.000000 0.028232 0.000000
# 6 0.000000 0.000000 0.000000 0.003775 0.000000 0.028126
#
#
# Mechanical properties :
#
#
# Convention : Reuss Voigt Hill
#
# Bulk Modulus (GPa) = 55.29178 57.55184 56.42181
# Shear Modulus (GPa) = 33.59028 34.66946 34.12987
#
# Velocity S-wave (km/s) = 3.89021 3.95220 3.92133
# Velocity P-wave (km/s) = 6.71486 6.83782 6.77662
#
# Compressibility (1/GPa) = 0.01808587
#
# Stress axis : x y z
#
# Youngs Moduli (GPa) = 90.27312 90.27385 62.48200
#
# Poissons Ratio (x) = 0.26953 0.22029
# Poissons Ratio (y) = 0.26953 0.22028
# Poissons Ratio (z) = 0.31827 0.31826
#
# Static dielectric constant tensor:
#      x y z
#    x 1.860290 0.000000 0.000000 
#    y 0.000000 1.860290 0.000000 
#    z 0.000000 0.000000 1.846050 
# 
# From -- ./inp_files/3649.got.cif
#   From: 2010.05.17/outbox.cif.g08.bks.cpg/sg163_2_cif.got.tgz:3649.got - 2010.05.20 10:56:03.
