data_PCOD9578425
_publ_section_title
;
Structure prediction by ZEFSAII (Michael W. Deem and Ramdas Pophale) SiO2 
 PCOD9578425
Probable space group: P -3 M 1
;
_chemical_formula_sum "Si O2"
_cell_formula_units_Z 84
_cell_length_a 17.787372
_cell_length_b 17.787372
_cell_length_c 22.382309
_cell_angle_alpha 90.000000
_cell_angle_beta 90.000000
_cell_angle_gamma 120.000000
_cell_volume 6132.804133
_symmetry_space_group_name_H-M "P -3 M 1"
_symmetry_group_IT_number 164
_symmetry_cell_setting 'hexagonal'
loop_
_space_group_symop_operation_xyz
x,y,z
-y,x-y,z
-x+y,-x,z
x-y,-y,-z
-x,-x+y,-z
y,x,-z
-x,-y,-z
y,-x+y,-z
x-y,x,-z
-x+y,y,z
x,x-y,z
-y,-x,z
loop_
_atom_site_type_symbol
_atom_site_label
_atom_site_fract_x
_atom_site_fract_y
_atom_site_fract_z
Si Si1 0.000000 0.591007 0.790844
Si Si2 0.845105 0.512046 0.568301
Si Si3 0.154895 0.667942 0.879274
Si Si4 0.899264 0.624489 1.000000
Si Si5 0.408442 0.408442 0.654407
Si Si6 0.845105 0.513046 0.879274
Si Si7 0.487955 0.333059 0.431699
O O1 0.000000 0.500000 0.788820
O O2 0.085796 0.654926 0.828031
O O3 0.000000 0.618142 0.722662
O O4 0.914204 0.569130 0.828030
O O5 0.755173 0.510347 0.575549
O O6 0.830439 0.415220 0.574913
O O7 0.876608 0.539568 0.500000
O O8 0.915583 0.571774 0.616712
O O9 0.159805 0.579903 0.882849
O O10 0.249267 0.750733 0.867879
O O11 0.120193 0.684551 0.941591
O O12 0.827723 0.655446 1.000000
O O13 0.879808 0.564358 0.941591
O O14 0.000000 0.698312 0.000000
O O15 0.500001 0.500000 0.655153
O O16 0.343811 0.428228 0.616712
O O17 0.750734 0.501467 0.867879
O O18 0.840195 0.420098 0.882848
O O19 0.489653 0.244826 0.424450
O O20 0.584782 0.415219 0.425087
#
# Coordination Sequence:
#
# PCOD9578425 Si02
#       7
#    12  12  12  12  12  12  12
#     4   9  18  30  42  56  80 113 143 175 214 252
#     4   9  16  26  41  60  81 106 138 176 215 254
#     4  10  19  30  45  64  87 114 146 181 219 259
#     4  10  19  31  49  70  91 116 144 180 223 265
#     4   9  17  28  40  56  79 109 142 174 212 253
#     4  10  19  30  45  64  87 114 146 181 219 259
#     4   9  16  26  41  60  81 106 138 176 215 254
#
# _framework density 13.696833
#
# number of rings (size 3 to 8) (size 9 to 14) (size 15 to 20)
#    0.000    2.571    1.429    1.429    0.000    4.571 
#    0.000    1.429    0.000    3.571    0.000    0.000 
#    0.000    0.000    0.000    0.429    0.000    9.857 
#
# Total GULP energy -467921.397392 kJ/mol
# GULP energy per Si atom -5570.492826 kJ/mol
# Density = 1.366566 g / cm^3
# Si number density = 13.696833 Si / 1000 Ang^3
#
#
#
# Elastic Constant Matrix: (Units=GPa)
#
#
# Indices 1 2 3 4 5 6 
#
# 1 77.8648 46.7978 54.9955 0.0000 0.0000 0.0000
# 2 46.7978 77.8648 54.9955 0.0000 0.0000 0.0000
# 3 54.9955 54.9955 134.5808 0.0000 0.0000 0.0000
# 4 0.0000 0.0000 0.0000 13.4291 0.0000 0.0000
# 5 0.0000 0.0000 0.0000 0.0000 13.4291 0.0000
# 6 0.0000 0.0000 0.0000 0.0000 0.0000 15.5335
#
#
#
# Elastic Compliance Matrix: (Units=1/GPa)
#
#
# Indices 1 2 3 4 5 6 
#
# 1 0.022367 -0.009822 -0.005126 0.000000 0.000000 0.000000
# 2 -0.009822 0.022367 -0.005126 0.000000 0.000000 0.000000
# 3 -0.005126 -0.005126 0.011620 0.000000 0.000000 0.000000
# 4 0.000000 0.000000 0.000000 0.074465 0.000000 0.000000
# 5 0.000000 0.000000 0.000000 0.000000 0.074465 0.000000
# 6 0.000000 0.000000 0.000000 0.000000 0.000000 0.064377
#
#
# Mechanical properties :
#
#
# Convention : Reuss Voigt Hill
#
# Bulk Modulus (GPa) = 61.71221 67.09868 64.40545
# Shear Modulus (GPa) = 15.86241 17.37979 16.62110
#
# Velocity S-wave (km/s) = 3.40679 3.56601 3.48731
# Velocity P-wave (km/s) = 7.78644 8.12712 7.95860
#
# Compressibility (1/GPa) = 0.01620425
#
# Stress axis : x y z
#
# Youngs Moduli (GPa) = 44.70967 44.70967 86.05772
#
# Poissons Ratio (x) = 0.43913 0.44115
# Poissons Ratio (y) = 0.43913 0.44115
# Poissons Ratio (z) = 0.22919 0.22919
#
# Static dielectric constant tensor:
#      x y z
#    x 1.428910 0.000000 0.000000 
#    y 0.000000 1.428910 0.000000 
#    z 0.000000 0.000000 1.461130 
# 
# From -- ./inp_files/4672.got.cif
#   From: 2010.05.17/outbox.cif.g08.bks.cpg/sg164_3_cif.got.tgz:4672.got - 2010.05.20 10:58:56.
