data_PCOD9578183
_publ_section_title
;
Structure prediction by ZEFSAII (Michael W. Deem and Ramdas Pophale) SiO2 
 PCOD9578183
Probable space group: P -3 1 C
;
_chemical_formula_sum "Si O2"
_cell_formula_units_Z 66
_cell_length_a 20.226358
_cell_length_b 20.226358
_cell_length_c 9.225675
_cell_angle_alpha 90.000000
_cell_angle_beta 90.000000
_cell_angle_gamma 120.000000
_cell_volume 3268.617960
_symmetry_space_group_name_H-M "P -3 1 C"
_symmetry_group_IT_number 163
_symmetry_cell_setting 'hexagonal'
loop_
_space_group_symop_operation_xyz
x,y,z
-y,x-y,z
-x+y,-x,z
-y,-x,1/2-z
-x+y,y,1/2-z
x,x-y,1/2-z
-x,-y,-z
y,-x+y,-z
x-y,x,-z
y,x,1/2+z
x-y,-y,1/2+z
-x,-x+y,1/2+z
loop_
_atom_site_type_symbol
_atom_site_label
_atom_site_fract_x
_atom_site_fract_y
_atom_site_fract_z
Si Si1 0.665425 0.488123 0.742023
Si Si2 0.705972 0.808776 0.549922
Si Si3 0.552315 0.104629 0.250000
Si Si4 0.571328 0.627266 0.987827
Si Si5 0.668157 0.552132 0.052468
Si Si6 0.960421 0.237280 0.361956
O O1 0.599990 0.400011 0.750000
O O2 0.748565 0.497130 0.750000
O O3 0.653428 0.528900 0.602341
O O4 0.654571 0.524936 0.887520
O O5 0.614272 0.756875 0.566219
O O6 0.732161 0.778003 0.415487
O O7 0.733281 0.897291 0.550177
O O8 0.734927 0.786965 0.695284
O O9 0.567524 0.058367 0.124313
O O10 0.632503 0.150073 0.335159
O O11 0.618309 0.594123 0.072257
O O12 0.636648 0.696863 0.895472
#
# Coordination Sequence:
#
# PCOD9578183 Si02
#       6
#    12  12   6  12  12  12
#     4  12  26  43  61  83 121 166 210 248 302 374
#     4  10  22  40  61  91 128 163 206 257 314 376
#     4  12  20  36  60  90 124 150 194 252 314 358
#     4  11  23  38  62  92 121 157 199 257 310 362
#     4  11  23  38  62  92 121 157 199 257 310 362
#     4  10  22  40  61  91 128 163 206 257 314 376
#
# _framework density 20.192019999999999
#
# number of rings (size 3 to 8) (size 9 to 14) (size 15 to 20)
#    0.000    1.091    3.636    2.909   10.182    0.727 
#    0.000    0.000    0.000    0.364    0.000    0.000 
#    0.000    0.000    0.000    0.000    0.000    0.000 
#
# Total GULP energy -368772.845964 kJ/mol
# GULP energy per Si atom -5587.467363 kJ/mol
# Density = 2.014606 g / cm^3
# Si number density = 20.192020 Si / 1000 Ang^3
#
#
#
# Elastic Constant Matrix: (Units=GPa)
#
#
# Indices 1 2 3 4 5 6 
#
# 1 44.5369 20.8423 7.8391 0.0000 1.3410 0.0000
# 2 20.8423 44.5369 7.8391 0.0000 -1.3410 0.0000
# 3 7.8391 7.8391 61.8138 0.0000 0.0000 0.0000
# 4 0.0000 0.0000 0.0000 24.0767 0.0000 -1.3410
# 5 1.3410 -1.3410 0.0000 0.0000 24.0767 0.0000
# 6 0.0000 0.0000 0.0000 -1.3410 0.0000 11.8473
#
#
#
# Elastic Compliance Matrix: (Units=1/GPa)
#
#
# Indices 1 2 3 4 5 6 
#
# 1 0.029123 -0.013348 -0.002001 0.000000 -0.002366 0.000000
# 2 -0.013348 0.029123 -0.002001 0.000000 0.002366 0.000000
# 3 -0.002001 -0.002001 0.016685 0.000000 0.000000 0.000000
# 4 0.000000 0.000000 0.000000 0.041797 0.000000 0.004731
# 5 -0.002366 0.002366 0.000000 0.000000 0.041797 0.000000
# 6 0.000000 0.000000 0.000000 0.004731 0.000000 0.084943
#
#
# Mechanical properties :
#
#
# Convention : Reuss Voigt Hill
#
# Bulk Modulus (GPa) = 24.85520 24.88095 24.86807
# Shear Modulus (GPa) = 17.14801 19.62463 18.38632
#
# Velocity S-wave (km/s) = 2.91735 3.12091 3.02084
# Velocity P-wave (km/s) = 4.86662 5.03346 4.95074
#
# Compressibility (1/GPa) = 0.04023303
#
# Stress axis : x y z
#
# Youngs Moduli (GPa) = 34.33677 34.33677 59.93393
#
# Poissons Ratio (x) = 0.45833 0.11990
# Poissons Ratio (y) = 0.45833 0.11990
# Poissons Ratio (z) = 0.06869 0.06869
#
# Static dielectric constant tensor:
#      x y z
#    x 1.717350 0.000000 0.000000 
#    y 0.000000 1.717350 0.000000 
#    z 0.000000 0.000000 1.735010 
# 
# From -- ./inp_files/1160.got.cif
#   From: 2010.05.17/outbox.cif.g08.bks.cpg/sg163_1_cif.got.tgz:1160.got - 2010.05.20 10:56:03.
