data_PCOD9578056
_publ_section_title
;
Structure prediction by ZEFSAII (Michael W. Deem and Ramdas Pophale) SiO2 
 PCOD9578056
Probable space group: P -3 1 C
;
_chemical_formula_sum "Si O2"
_cell_formula_units_Z 60
_cell_length_a 13.299820
_cell_length_b 13.299820
_cell_length_c 25.726011
_cell_angle_alpha 90.000000
_cell_angle_beta 90.000000
_cell_angle_gamma 120.000000
_cell_volume 3940.892690
_symmetry_space_group_name_H-M "P -3 1 C"
_symmetry_group_IT_number 163
_symmetry_cell_setting 'hexagonal'
loop_
_space_group_symop_operation_xyz
x,y,z
-y,x-y,z
-x+y,-x,z
-y,-x,1/2-z
-x+y,y,1/2-z
x,x-y,1/2-z
-x,-y,-z
y,-x+y,-z
x-y,x,-z
y,x,1/2+z
x-y,-y,1/2+z
-x,-x+y,1/2+z
loop_
_atom_site_type_symbol
_atom_site_label
_atom_site_fract_x
_atom_site_fract_y
_atom_site_fract_z
Si Si1 0.569894 0.903013 0.458047
Si Si2 0.240069 0.239850 0.750000
Si Si3 0.429184 0.095158 0.662278
Si Si4 0.334026 0.429184 0.162278
Si Si5 0.569894 0.666881 0.458047
O O1 0.602445 0.940005 0.397983
O O2 0.576626 0.788313 0.466744
O O3 0.437925 0.875851 0.463834
O O4 0.644813 1.000000 0.500000
O O5 0.213202 0.106601 0.750000
O O6 0.322327 0.302060 0.799664
O O7 0.322327 0.302060 0.700336
O O8 0.122744 0.245488 0.750000
O O9 0.457046 0.228523 0.667033
O O10 0.544130 0.088259 0.675001
O O11 0.337560 0.397555 0.102017
#
# Coordination Sequence:
#
# PCOD9578056 Si02
#       5
#    12  12  12  12  12
#     4   9  17  29  46  68  93 120 150 185 224 265
#     4  10  20  32  46  64  88 118 148 178 216 266
#     4   9  17  30  49  71  91 113 146 190 233 265
#     4   9  17  30  49  71  91 113 146 190 233 265
#     4   9  17  29  46  68  93 120 150 185 224 265
#
# _framework density 15.224977000000001
#
# number of rings (size 3 to 8) (size 9 to 14) (size 15 to 20)
#    0.000    2.800    0.000    1.600    0.000    4.800 
#    0.000    2.000    0.000    3.600    0.000    0.000 
#    0.000    0.000    0.000    0.000    0.000    0.000 
#
# Total GULP energy -334336.144719 kJ/mol
# GULP energy per Si atom -5572.269079 kJ/mol
# Density = 1.519032 g / cm^3
# Si number density = 15.224977 Si / 1000 Ang^3
#
#
#
# Elastic Constant Matrix: (Units=GPa)
#
#
# Indices 1 2 3 4 5 6 
#
# 1 102.4178 71.8630 85.4862 0.0000 0.0000 0.0000
# 2 71.8630 102.4178 85.4862 0.0000 0.0000 0.0000
# 3 85.4862 85.4862 119.1602 0.0000 0.0000 0.0000
# 4 0.0000 0.0000 0.0000 21.3162 0.0000 0.0000
# 5 0.0000 0.0000 0.0000 0.0000 21.3162 0.0000
# 6 0.0000 0.0000 0.0000 0.0000 0.0000 15.2774
#
#
#
# Elastic Compliance Matrix: (Units=1/GPa)
#
#
# Indices 1 2 3 4 5 6 
#
# 1 0.026049 -0.006679 -0.013897 0.000000 0.000000 0.000000
# 2 -0.006679 0.026049 -0.013897 0.000000 0.000000 0.000000
# 3 -0.013897 -0.013897 0.028331 0.000000 0.000000 0.000000
# 4 0.000000 0.000000 0.000000 0.046913 0.000000 0.000000
# 5 0.000000 0.000000 0.000000 0.000000 0.046913 0.000000
# 6 0.000000 0.000000 0.000000 0.000000 0.000000 0.065456
#
#
# Mechanical properties :
#
#
# Convention : Reuss Voigt Hill
#
# Bulk Modulus (GPa) = 87.06295 89.96296 88.51296
# Shear Modulus (GPa) = 16.00082 16.99267 16.49674
#
# Velocity S-wave (km/s) = 3.24537 3.34444 3.29528
# Velocity P-wave (km/s) = 8.44699 8.60994 8.52885
#
# Compressibility (1/GPa) = 0.01148594
#
# Stress axis : x y z
#
# Youngs Moduli (GPa) = 38.38861 38.38861 35.29686
#
# Poissons Ratio (x) = 0.25639 0.49051
# Poissons Ratio (y) = 0.25639 0.49051
# Poissons Ratio (z) = 0.53347 0.53347
#
# Static dielectric constant tensor:
#      x y z
#    x 1.477200 0.000000 0.000000 
#    y 0.000000 1.477200 0.000000 
#    z 0.000000 0.000000 1.522530 
# 
# From -- ./inp_files/4106.got.cif
#   From: 2010.05.17/outbox.cif.g08.bks.cpg/sg163_3_cif.got.tgz:4106.got - 2010.05.20 10:56:03.
