data_PCOD9578807
_publ_section_title
;
Structure prediction by ZEFSAII (Michael W. Deem and Ramdas Pophale) SiO2 
 PCOD9578807
Probable space group: P -3 C 1
;
_chemical_formula_sum "Si O2"
_cell_formula_units_Z 84
_cell_length_a 18.629767
_cell_length_b 18.629767
_cell_length_c 14.052154
_cell_angle_alpha 90.000000
_cell_angle_beta 90.000000
_cell_angle_gamma 120.000000
_cell_volume 4223.654439
_symmetry_space_group_name_H-M "P -3 C 1"
_symmetry_group_IT_number 165
_symmetry_cell_setting 'hexagonal'
loop_
_space_group_symop_operation_xyz
x,y,z
-y,x-y,z
-x+y,-x,z
x-y,-y,1/2-z
-x,-x+y,1/2-z
y,x,1/2-z
-x,-y,-z
y,-x+y,-z
x-y,x,-z
-x+y,y,1/2+z
x,x-y,1/2+z
-y,-x,1/2+z
loop_
_atom_site_type_symbol
_atom_site_label
_atom_site_fract_x
_atom_site_fract_y
_atom_site_fract_z
Si Si1 0.571595 0.488231 0.620596
Si Si2 0.661332 0.563643 0.226024
Si Si3 0.904785 0.506954 0.435241
Si Si4 0.449724 0.220427 0.867534
Si Si5 0.676885 0.798096 0.993026
Si Si6 0.326212 0.054087 0.050934
Si Si7 0.726078 0.634363 0.708860
O O1 0.519858 0.402818 0.674075
O O2 0.561360 0.458907 0.510600
O O3 0.524687 0.542051 0.630119
O O4 0.661158 0.544634 0.664542
O O5 0.611395 0.611395 0.250000
O O6 0.698773 0.534254 0.309995
O O7 0.726976 0.627798 0.148799
O O8 0.819748 0.491810 0.387141
O O9 0.939548 0.596963 0.488777
O O10 0.379474 0.150640 0.798112
O O11 0.415014 0.228016 0.969382
O O12 0.714961 0.896522 0.996507
O O13 0.682793 0.775750 0.884493
O O14 0.704520 0.745431 0.057945
O O15 0.676872 0.676872 0.750000
#
# Coordination Sequence:
#
# PCOD9578807 Si02
#       7
#    12  12  12  12  12  12  12
#     4  10  20  35  61  91 118 156 223 268 319 399
#     4  11  21  34  56  90 122 160 203 265 333 391
#     4   9  19  35  56  88 120 160 205 270 324 384
#     4  11  22  36  58  89 130 159 209 269 343 387
#     4  11  21  37  59  88 126 160 202 264 319 395
#     4  10  19  35  56  85 120 156 203 254 328 370
#     4  12  21  38  61  93 123 164 211 275 333 389
#
# _framework density 19.887992000000001
#
# number of rings (size 3 to 8) (size 9 to 14) (size 15 to 20)
#    0.000    1.429    5.714    1.286    0.000    0.000 
#    0.000    0.000    0.000    0.857    3.714    0.000 
#    0.000    1.143    0.000    0.000    0.000    0.000 
#
# Total GULP energy -467772.744286 kJ/mol
# GULP energy per Si atom -5568.723146 kJ/mol
# Density = 1.984273 g / cm^3
# Si number density = 19.887992 Si / 1000 Ang^3
#
#
#
# Elastic Constant Matrix: (Units=GPa)
#
#
# Indices 1 2 3 4 5 6 
#
# 1 61.2270 18.1981 9.3375 -1.4897 0.0000 0.0000
# 2 18.1981 61.2270 9.3375 1.4897 0.0000 0.0000
# 3 9.3375 9.3375 73.0666 0.0000 0.0000 0.0000
# 4 -1.4897 1.4897 0.0000 33.0402 0.0000 0.0000
# 5 0.0000 0.0000 0.0000 0.0000 33.0402 -1.4897
# 6 0.0000 0.0000 0.0000 0.0000 -1.4897 21.5145
#
#
#
# Elastic Compliance Matrix: (Units=1/GPa)
#
#
# Indices 1 2 3 4 5 6 
#
# 1 0.018147 -0.005166 -0.001659 0.001051 0.000000 0.000000
# 2 -0.005166 0.018147 -0.001659 -0.001051 0.000000 0.000000
# 3 -0.001659 -0.001659 0.014110 0.000000 0.000000 0.000000
# 4 0.001051 -0.001051 0.000000 0.030361 0.000000 0.000000
# 5 0.000000 0.000000 0.000000 0.000000 0.030361 0.002102
# 6 0.000000 0.000000 0.000000 0.000000 0.002102 0.046626
#
#
# Mechanical properties :
#
#
# Convention : Reuss Voigt Hill
#
# Bulk Modulus (GPa) = 29.90803 29.91851 29.91327
# Shear Modulus (GPa) = 26.90133 28.09549 27.49841
#
# Velocity S-wave (km/s) = 3.68182 3.76265 3.72245
# Velocity P-wave (km/s) = 5.75719 5.82691 5.79216
#
# Compressibility (1/GPa) = 0.03343583
#
# Stress axis : x y z
#
# Youngs Moduli (GPa) = 55.10632 55.10632 70.87109
#
# Poissons Ratio (x) = 0.28469 0.11756
# Poissons Ratio (y) = 0.28469 0.11756
# Poissons Ratio (z) = 0.09141 0.09141
#
# Static dielectric constant tensor:
#      x y z
#    x 1.735990 0.000000 0.000000 
#    y 0.000000 1.735990 0.000000 
#    z 0.000000 0.000000 1.815860 
# 
# From -- ./inp_files/1868.got.cif
#   From: 2010.05.17/outbox.cif.g08.bks.cpg/sg165_1_cif.got.tgz:1868.got - 2010.05.20 11:02:39.
