data_PCOD9578070
_publ_section_title
;
Structure prediction by ZEFSAII (Michael W. Deem and Ramdas Pophale) SiO2 
 PCOD9578070
Probable space group: P -3 1 C
;
_chemical_formula_sum "Si O2"
_cell_formula_units_Z 68
_cell_length_a 19.389109
_cell_length_b 19.389109
_cell_length_c 13.081086
_cell_angle_alpha 90.000000
_cell_angle_beta 90.000000
_cell_angle_gamma 120.000000
_cell_volume 4258.828354
_symmetry_space_group_name_H-M "P -3 1 C"
_symmetry_group_IT_number 163
_symmetry_cell_setting 'hexagonal'
loop_
_space_group_symop_operation_xyz
x,y,z
-y,x-y,z
-x+y,-x,z
-y,-x,1/2-z
-x+y,y,1/2-z
x,x-y,1/2-z
-x,-y,-z
y,-x+y,-z
x-y,x,-z
y,x,1/2+z
x-y,-y,1/2+z
-x,-x+y,1/2+z
loop_
_atom_site_type_symbol
_atom_site_label
_atom_site_fract_x
_atom_site_fract_y
_atom_site_fract_z
Si Si1 0.333334 0.666668 0.874637
Si Si2 0.000000 0.000000 0.628021
Si Si3 0.186453 0.093227 0.627535
Si Si4 0.000000 0.746873 0.500000
Si Si5 0.714658 0.593171 0.128091
Si Si6 0.593170 0.878512 0.628090
Si Si7 0.150543 0.575271 0.626044
O O1 0.333334 0.666667 0.750000
O O2 0.378838 0.757675 0.908030
O O3 0.092701 0.046351 0.599822
O O4 0.000000 0.000000 0.750000
O O5 0.193550 0.096775 0.750000
O O6 0.226736 0.180380 0.578466
O O7 0.226736 0.046357 0.578466
O O8 0.062460 0.731992 0.562737
O O9 0.937541 0.669533 0.437262
O O10 0.711816 0.607176 0.250000
O O11 0.787720 0.575441 0.114727
O O12 0.630808 0.516506 0.096334
O O13 0.516505 0.885697 0.596333
O O14 0.151152 0.575576 0.750000
#
# Coordination Sequence:
#
# PCOD9578070 Si02
#       7
#     4   4  12  12  12  12  12
#     4   9  12  21  45  72  99 123 151 188 244 303
#     4   9  21  37  53  73  97 131 187 238 266 301
#     4  11  23  38  55  76 104 144 189 230 274 320
#     4  12  22  36  52  74 108 146 176 216 264 322
#     4  10  20  34  53  78 107 135 170 217 267 316
#     4  10  20  34  53  78 107 135 170 217 267 316
#     4   9  16  29  52  79 103 130 162 206 260 312
#
# _framework density 15.966832999999999
#
# number of rings (size 3 to 8) (size 9 to 14) (size 15 to 20)
#    0.000    1.765    3.529    2.118    0.000    1.412 
#    0.000    0.000    0.000    0.000    0.000    0.000 
#    0.000    0.000    0.000    0.000    0.000    0.000 
#
# Total GULP energy -379272.135535 kJ/mol
# GULP energy per Si atom -5577.531405 kJ/mol
# Density = 1.593049 g / cm^3
# Si number density = 15.966833 Si / 1000 Ang^3
#
#
#
# Elastic Constant Matrix: (Units=GPa)
#
#
# Indices 1 2 3 4 5 6 
#
# 1 135.3238 74.1657 55.6298 0.0001 0.0001 0.0000
# 2 74.1657 135.3238 55.6298 0.0001 0.0000 0.0000
# 3 55.6298 55.6298 86.8604 -0.0001 0.0000 0.0000
# 4 0.0001 0.0001 -0.0001 16.5289 0.0001 0.0000
# 5 0.0001 0.0000 0.0000 0.0001 16.5289 0.0000
# 6 0.0000 0.0000 0.0000 0.0000 0.0000 30.5790
#
#
#
# Elastic Compliance Matrix: (Units=1/GPa)
#
#
# Indices 1 2 3 4 5 6 
#
# 1 0.011793 -0.004558 -0.004633 0.000000 0.000000 0.000000
# 2 -0.004558 0.011793 -0.004633 0.000000 0.000000 0.000000
# 3 -0.004633 -0.004633 0.017447 0.000000 0.000000 0.000000
# 4 0.000000 0.000000 0.000000 0.060500 0.000000 0.000000
# 5 0.000000 0.000000 0.000000 0.000000 0.060500 0.000000
# 6 0.000000 0.000000 0.000000 0.000000 0.000000 0.032702
#
#
# Mechanical properties :
#
#
# Convention : Reuss Voigt Hill
#
# Bulk Modulus (GPa) = 74.72095 80.92874 77.82485
# Shear Modulus (GPa) = 22.04145 24.19953 23.12049
#
# Velocity S-wave (km/s) = 3.71947 3.89731 3.80943
# Velocity P-wave (km/s) = 8.08364 8.42897 8.25811
#
# Compressibility (1/GPa) = 0.01338313
#
# Stress axis : x y z
#
# Youngs Moduli (GPa) = 84.79881 84.79881 57.31542
#
# Poissons Ratio (x) = 0.38655 0.26555
# Poissons Ratio (y) = 0.38655 0.26555
# Poissons Ratio (z) = 0.39288 0.39288
#
# Static dielectric constant tensor:
#      x y z
#    x 1.530930 0.000000 0.000000 
#    y 0.000000 1.530930 0.000000 
#    z 0.000000 0.000000 1.510210 
# 
# From -- ./inp_files/2583.got.cif
#   From: 2010.05.17/outbox.cif.g08.bks.cpg/sg163_2_cif.got.tgz:2583.got - 2010.05.20 10:56:03.
