data_PCOD9578373
_publ_section_title
;
Structure prediction by ZEFSAII (Michael W. Deem and Ramdas Pophale) SiO2 
 PCOD9578373
Probable space group: P -3 M 1
;
_chemical_formula_sum "Si O2"
_cell_formula_units_Z 96
_cell_length_a 18.625790
_cell_length_b 18.625790
_cell_length_c 19.481208
_cell_angle_alpha 90.000000
_cell_angle_beta 90.000000
_cell_angle_gamma 120.000000
_cell_volume 5852.964894
_symmetry_space_group_name_H-M "P -3 M 1"
_symmetry_group_IT_number 164
_symmetry_cell_setting 'hexagonal'
loop_
_space_group_symop_operation_xyz
x,y,z
-y,x-y,z
-x+y,-x,z
x-y,-y,-z
-x,-x+y,-z
y,x,-z
-x,-y,-z
y,-x+y,-z
x-y,x,-z
-x+y,y,z
x,x-y,z
-y,-x,z
loop_
_atom_site_type_symbol
_atom_site_label
_atom_site_fract_x
_atom_site_fract_y
_atom_site_fract_z
Si Si1 0.513188 0.645741 0.142380
Si Si2 0.167306 0.669964 0.297462
Si Si3 0.066001 0.452199 0.871405
Si Si4 0.693953 0.929747 0.806101
Si Si5 0.070403 0.758207 0.311038
Si Si6 0.191961 0.225724 0.068619
Si Si7 0.718696 0.127538 0.996256
Si Si8 0.000122 0.832960 0.581090
O O1 0.416519 0.583482 0.140077
O O2 0.527500 0.685624 0.216659
O O3 0.562771 0.595417 0.140605
O O4 0.537090 0.693685 0.071890
O O5 0.153692 0.576846 0.305391
O O6 0.259838 0.740163 0.319275
O O7 0.100646 0.692338 0.329377
O O8 0.097949 0.548975 0.858286
O O9 0.096440 0.400472 0.825941
O O10 0.082502 0.437646 0.950186
O O11 0.700354 0.850177 0.783647
O O12 0.727093 0.004321 0.751120
O O13 0.749878 0.967851 0.875135
O O14 0.155354 0.844647 0.293907
O O15 0.027153 0.778797 0.373595
O O16 0.108078 0.216155 0.100235
O O17 0.242859 0.317482 0.035507
O O18 0.170815 0.170815 0.000000
O O19 0.793830 0.206171 0.033130
O O20 0.928746 0.857492 0.591493
O O21 0.000000 0.815694 0.500000
O O22 0.089615 0.910386 0.599697
#
# Coordination Sequence:
#
# PCOD9578373 Si02
#       8
#    12  12  12  12  12  12  12  12
#     4  10  18  29  46  64  87 115 148 196 250 305
#     4  10  19  32  50  74 102 132 164 202 252 310
#     4  11  21  33  47  65  88 116 156 203 251 302
#     4  12  22  35  51  71  95 125 167 209 248 292
#     4  10  20  34  53  78 106 136 167 205 250 294
#     4  11  20  32  48  66  90 119 157 202 247 295
#     4  11  19  30  46  65  87 113 150 201 257 310
#     4   9  17  31  53  82 114 146 176 205 241 288
#
# _framework density 16.401944
#
# number of rings (size 3 to 8) (size 9 to 14) (size 15 to 20)
#    0.000    1.500    3.750    2.875    0.000    3.500 
#    0.000    0.000    0.000   11.125    0.000    0.000 
#    0.000    0.000    0.000    0.000    0.000    0.125 
#
# Total GULP energy -534745.994015 kJ/mol
# GULP energy per Si atom -5570.270771 kJ/mol
# Density = 1.636461 g / cm^3
# Si number density = 16.401944 Si / 1000 Ang^3
#
#
#
# Elastic Constant Matrix: (Units=GPa)
#
#
# Indices 1 2 3 4 5 6 
#
# 1 170.3051 -33.5010 29.2100 -7.8806 0.0000 0.0000
# 2 -33.5010 170.3051 29.2100 7.8806 0.0000 0.0000
# 3 29.2100 29.2100 43.5479 0.0000 0.0000 0.0000
# 4 -7.8806 7.8806 0.0000 19.1126 0.0000 0.0000
# 5 0.0000 0.0000 0.0000 0.0000 19.1126 -7.8806
# 6 0.0000 0.0000 0.0000 0.0000 -7.8806 101.9030
#
#
#
# Elastic Compliance Matrix: (Units=1/GPa)
#
#
# Indices 1 2 3 4 5 6 
#
# 1 0.007656 0.002588 -0.006871 0.002090 0.000000 0.000000
# 2 0.002588 0.007656 -0.006871 -0.002090 0.000000 0.000000
# 3 -0.006871 -0.006871 0.032181 0.000000 0.000000 0.000000
# 4 0.002090 -0.002090 0.000000 0.054045 0.000000 0.000000
# 5 0.000000 0.000000 0.000000 0.000000 0.054045 0.004179
# 6 0.000000 0.000000 0.000000 0.000000 0.004179 0.010136
#
#
# Mechanical properties :
#
#
# Convention : Reuss Voigt Hill
#
# Bulk Modulus (GPa) = 39.70756 48.22181 43.96469
# Shear Modulus (GPa) = 25.45526 51.97491 38.71508
#
# Velocity S-wave (km/s) = 3.94377 5.63534 4.86366
# Velocity P-wave (km/s) = 6.70816 8.47388 7.64219
#
# Compressibility (1/GPa) = 0.02518412
#
# Stress axis : x y z
#
# Youngs Moduli (GPa) = 130.61488 130.61487 31.07425
#
# Poissons Ratio (x) = -0.33801 0.21352
# Poissons Ratio (y) = -0.33801 0.21352
# Poissons Ratio (z) = 0.89748 0.89748
#
# Static dielectric constant tensor:
#      x y z
#    x 1.631810 0.000000 0.000000 
#    y 0.000000 1.631810 0.000000 
#    z 0.000000 0.000000 1.566880 
# 
# From -- ./inp_files/4722.got.cif
#   From: 2010.05.17/outbox.cif.g08.bks.cpg/sg164_3_cif.got.tgz:4722.got - 2010.05.20 10:58:56.
