data_PCOD9578748
_publ_section_title
;
Structure prediction by ZEFSAII (Michael W. Deem and Ramdas Pophale) SiO2 
 PCOD9578748
Probable space group: P -3 M 1
;
_chemical_formula_sum "Si O2"
_cell_formula_units_Z 60
_cell_length_a 13.945027
_cell_length_b 13.945027
_cell_length_c 24.143770
_cell_angle_alpha 90.000000
_cell_angle_beta 90.000000
_cell_angle_gamma 120.000000
_cell_volume 4066.066113
_symmetry_space_group_name_H-M "P -3 M 1"
_symmetry_group_IT_number 164
_symmetry_cell_setting 'hexagonal'
loop_
_space_group_symop_operation_xyz
x,y,z
-y,x-y,z
-x+y,-x,z
x-y,-y,-z
-x,-x+y,-z
y,x,-z
-x,-y,-z
y,-x+y,-z
x-y,x,-z
-x+y,y,z
x,x-y,z
-y,-x,z
loop_
_atom_site_type_symbol
_atom_site_label
_atom_site_fract_x
_atom_site_fract_y
_atom_site_fract_z
Si Si1 0.332642 0.441949 0.766398
Si Si2 0.665980 0.557480 0.365308
Si Si3 0.109696 0.667711 0.033677
Si Si4 0.441912 0.109587 0.834442
Si Si5 0.999334 0.224259 0.565811
O O1 0.215912 0.431824 0.780780
O O2 0.433155 0.566846 0.776863
O O3 0.333452 0.421966 0.700555
O O4 0.360854 0.361173 0.800760
O O5 0.766460 0.532920 0.375606
O O6 0.549046 0.450955 0.379721
O O7 0.694719 0.666734 0.399641
O O8 0.132835 0.566418 0.023260
O O9 0.216388 0.783613 0.018372
O O10 0.090857 0.668724 0.099609
O O11 0.000000 0.639341 0.000000
O O12 0.566491 0.132981 0.824137
O O13 0.432322 0.216161 0.819188
O O14 0.882405 0.117595 0.580088
O O15 0.000000 0.245359 0.500000
O O16 0.099837 0.199674 0.575977
#
# Coordination Sequence:
#
# PCOD9578748 Si02
#       5
#    12  12  12  12  12
#     4   9  17  29  45  65  88 113 141 174 212 252
#     4   9  17  29  45  64  86 113 143 174 209 251
#     4   9  17  29  45  65  88 113 141 174 212 252
#     4   9  17  29  45  64  86 113 143 174 209 250
#     4   9  17  29  45  64  85 110 141 178 218 256
#
# _framework density 14.756278
#
# number of rings (size 3 to 8) (size 9 to 14) (size 15 to 20)
#    0.000    3.000    0.000    1.000    0.000    6.000 
#    0.000    0.000    0.000    3.400    0.000    0.000 
#    0.000    0.000    0.000    0.000    0.000    0.000 
#
# Total GULP energy -334235.541094 kJ/mol
# GULP energy per Si atom -5570.592352 kJ/mol
# Density = 1.472269 g / cm^3
# Si number density = 14.756278 Si / 1000 Ang^3
#
#
#
# Elastic Constant Matrix: (Units=GPa)
#
#
# Indices 1 2 3 4 5 6 
#
# 1 133.5320 88.4412 62.4682 -2.4030 0.0000 0.0000
# 2 88.4412 133.5320 62.4682 2.4030 0.0000 0.0000
# 3 62.4682 62.4682 40.9951 0.0000 0.0000 0.0000
# 4 -2.4030 2.4030 0.0000 25.5397 0.0000 0.0000
# 5 0.0000 0.0000 0.0000 0.0000 25.5397 -2.4030
# 6 0.0000 0.0000 0.0000 0.0000 -2.4030 22.5454
#
#
#
# Elastic Compliance Matrix: (Units=1/GPa)
#
#
# Indices 1 2 3 4 5 6 
#
# 1 0.027026 0.004624 -0.048228 0.002108 0.000000 0.000000
# 2 0.004624 0.027026 -0.048228 -0.002108 0.000000 0.000000
# 3 -0.048228 -0.048228 0.171373 0.000000 0.000000 0.000000
# 4 0.002108 -0.002108 0.000000 0.039551 0.000000 0.000000
# 5 0.000000 0.000000 0.000000 0.000000 0.039551 0.004216
# 6 0.000000 0.000000 0.000000 0.000000 0.004216 0.044804
#
#
# Mechanical properties :
#
#
# Convention : Reuss Voigt Hill
#
# Bulk Modulus (GPa) = 23.94623 81.64605 52.79614
# Shear Modulus (GPa) = 9.14216 21.03704 15.08960
#
# Velocity S-wave (km/s) = 2.49176 3.77985 3.20126
# Velocity P-wave (km/s) = 4.95394 8.63131 7.03708
#
# Compressibility (1/GPa) = 0.04176023
#
# Stress axis : x y z
#
# Youngs Moduli (GPa) = 37.00132 37.00132 5.83524
#
# Poissons Ratio (x) = -0.17109 0.28142
# Poissons Ratio (y) = -0.17109 0.28142
# Poissons Ratio (z) = 1.78450 1.78450
#
# Static dielectric constant tensor:
#      x y z
#    x 1.469970 0.000000 0.000000 
#    y 0.000000 1.469970 0.000000 
#    z 0.000000 0.000000 1.480200 
# 
# From -- ./inp_files/4466.got.cif
#   From: 2010.05.17/outbox.cif.g08.bks.cpg/sg164_3_cif.got.tgz:4466.got - 2010.05.20 10:58:56.
