data_PCOD9578302
_publ_section_title
;
Structure prediction by ZEFSAII (Michael W. Deem and Ramdas Pophale) SiO2 
 PCOD9578302
Probable space group: P -3 1 C
;
_chemical_formula_sum "Si O2"
_cell_formula_units_Z 60
_cell_length_a 12.000000
_cell_length_b 12.000000
_cell_length_c 27.000000
_cell_angle_alpha 90.000000
_cell_angle_beta 90.000000
_cell_angle_gamma 120.000000
_cell_volume 3367.106770
_symmetry_space_group_name_H-M "P -3 1 C"
_symmetry_group_IT_number 163
_symmetry_cell_setting 'hexagonal'
loop_
_space_group_symop_operation_xyz
x,y,z
-y,x-y,z
-x+y,-x,z
-y,-x,1/2-z
-x+y,y,1/2-z
x,x-y,1/2-z
-x,-y,-z
y,-x+y,-z
x-y,x,-z
y,x,1/2+z
x-y,-y,1/2+z
-x,-x+y,1/2+z
loop_
_atom_site_type_symbol
_atom_site_label
_atom_site_fract_x
_atom_site_fract_y
_atom_site_fract_z
Si Si1 0.329674 0.403916 0.250000
Si Si2 0.665827 0.070290 0.152512
Si Si3 0.266264 0.265056 0.945915
Si Si4 0.734944 0.733736 0.945915
Si Si5 0.665827 0.595537 0.152512
O O1 0.466598 0.533403 0.250000
O O2 0.219693 0.439385 0.250000
O O3 0.322677 0.328751 0.200155
O O4 0.322677 0.328752 0.299846
O O5 0.653997 0.998461 0.101171
O O6 0.544908 0.089816 0.158437
O O7 0.793546 0.206454 0.150459
O O8 0.127443 0.254885 0.942957
O O9 0.346003 0.344464 0.898829
O O10 0.248400 0.124200 0.943900
O O11 0.322292 0.322292 0.000000
#
# Coordination Sequence:
#
# PCOD9578302 Si02
#       5
#    12  12  12  12  12
#     4  10  20  34  52  72  94 120 152 192 236 282
#     4  10  20  33  50  71  97 129 162 196 233 279
#     4   9  17  30  49  72  97 126 161 202 247 291
#     4   9  17  30  49  72  97 126 161 202 247 291
#     4  10  20  33  50  71  97 129 162 196 233 279
#
# _framework density 17.819452999999999
#
# number of rings (size 3 to 8) (size 9 to 14) (size 15 to 20)
#    0.000    2.400    0.000    2.800    0.000    2.400 
#    0.000    2.000    0.000    6.400    0.000    0.000 
#    0.000    0.000    0.000    0.000    0.000    0.000 
#
# Total GULP energy -334094.243811 kJ/mol
# GULP energy per Si atom -5568.237397 kJ/mol
# Density = 1.777889 g / cm^3
# Si number density = 17.819453 Si / 1000 Ang^3
#
#
#
# Elastic Constant Matrix: (Units=GPa)
#
#
# Indices 1 2 3 4 5 6 
#
# 1 35.1715 2.6509 39.3161 0.0000 0.0000 0.0000
# 2 2.6509 35.1715 39.3161 0.0000 0.0000 0.0000
# 3 39.3161 39.3161 168.5880 0.0000 0.0000 0.0000
# 4 0.0000 0.0000 0.0000 27.5379 0.0000 0.0000
# 5 0.0000 0.0000 0.0000 0.0000 27.5379 0.0000
# 6 0.0000 0.0000 0.0000 0.0000 0.0000 16.2603
#
#
#
# Elastic Compliance Matrix: (Units=1/GPa)
#
#
# Indices 1 2 3 4 5 6 
#
# 1 0.041036 0.010286 -0.011969 0.000000 0.000000 0.000000
# 2 0.010286 0.041036 -0.011969 0.000000 0.000000 0.000000
# 3 -0.011969 -0.011969 0.011514 0.000000 0.000000 0.000000
# 4 0.000000 0.000000 0.000000 0.036314 0.000000 0.000000
# 5 0.000000 0.000000 0.000000 0.000000 0.036314 0.000000
# 6 0.000000 0.000000 0.000000 0.000000 0.000000 0.061500
#
#
# Mechanical properties :
#
#
# Convention : Reuss Voigt Hill
#
# Bulk Modulus (GPa) = 15.08669 44.61081 29.84875
# Shear Modulus (GPa) = 18.04337 24.77707 21.41022
#
# Velocity S-wave (km/s) = 3.18554 3.73292 3.47004
# Velocity P-wave (km/s) = 4.69201 6.60824 5.73079
#
# Compressibility (1/GPa) = 0.06628358
#
# Stress axis : x y z
#
# Youngs Moduli (GPa) = 24.36880 24.36880 86.85030
#
# Poissons Ratio (x) = -0.25066 1.03949
# Poissons Ratio (y) = -0.25066 1.03949
# Poissons Ratio (z) = 0.29167 0.29167
#
# Static dielectric constant tensor:
#      x y z
#    x 1.563010 0.000000 0.000000 
#    y 0.000000 1.563010 0.000000 
#    z 0.000000 0.000000 1.678040 
# 
# From -- ./inp_files/4093.got.cif
#   From: 2010.05.17/outbox.ucp.g08.bks.cvg/sg163_3_cif.got.tgz:4093.got - 2010.06.11 15:15:55.
