data_PCOD9578448
_publ_section_title
;
Structure prediction by ZEFSAII (Michael W. Deem and Ramdas Pophale) SiO2 
 PCOD9578448
Probable space group: P -3 M 1
;
_chemical_formula_sum "Si O2"
_cell_formula_units_Z 72
_cell_length_a 17.538133
_cell_length_b 17.538133
_cell_length_c 18.292197
_cell_angle_alpha 90.000000
_cell_angle_beta 90.000000
_cell_angle_gamma 120.000000
_cell_volume 4872.627591
_symmetry_space_group_name_H-M "P -3 M 1"
_symmetry_group_IT_number 164
_symmetry_cell_setting 'hexagonal'
loop_
_space_group_symop_operation_xyz
x,y,z
-y,x-y,z
-x+y,-x,z
x-y,-y,-z
-x,-x+y,-z
y,x,-z
-x,-y,-z
y,-x+y,-z
x-y,x,-z
-x+y,y,z
x,x-y,z
-y,-x,z
loop_
_atom_site_type_symbol
_atom_site_label
_atom_site_fract_x
_atom_site_fract_y
_atom_site_fract_z
Si Si1 0.821256 0.998494 0.132517
Si Si2 0.846277 0.512012 0.942135
Si Si3 0.940050 0.236275 0.722601
Si Si4 0.629710 0.904399 0.917161
Si Si5 0.000208 0.180118 0.583415
Si Si6 0.019405 0.421683 0.190964
O O1 0.921265 0.078736 0.133326
O O2 0.763772 0.029000 0.085384
O O3 0.815515 0.907758 0.108028
O O4 0.778213 0.981913 0.213538
O O5 0.750717 0.501433 0.933570
O O6 0.840071 0.420036 0.962262
O O7 0.900939 0.545002 0.867516
O O8 0.895861 0.582510 0.006100
O O9 0.836473 0.163528 0.722588
O O10 0.979661 0.231570 0.645146
O O11 0.960341 0.332651 0.745012
O O12 0.617918 0.808959 0.900330
O O13 0.587230 0.936242 0.855078
O O14 0.921154 0.078847 0.587812
O O15 0.000000 0.209556 0.500000
O O16 0.092564 0.185128 0.597474
O O17 0.009729 0.504865 0.212247
#
# Coordination Sequence:
#
# PCOD9578448 Si02
#       6
#    12  12  12  12  12  12
#     4   9  16  26  41  61  86 118 153 184 211 244
#     4  10  19  31  47  65  84 105 134 176 226 275
#     4   9  17  28  42  63  90 116 143 175 213 255
#     4   9  18  30  43  62  86 111 142 181 223 264
#     4   9  16  26  43  69 100 130 155 177 201 233
#     4  10  19  31  47  64  83 109 141 177 217 262
#
# _framework density 14.776420999999999
#
# number of rings (size 3 to 8) (size 9 to 14) (size 15 to 20)
#    0.000    2.667    0.000    2.500    0.000    3.333 
#    0.000    2.500    0.000    1.167    0.000    0.000 
#    0.000   46.667    0.000    0.333    0.000    0.000 
#
# Total GULP energy -401574.525472 kJ/mol
# GULP energy per Si atom -5577.423965 kJ/mol
# Density = 1.474279 g / cm^3
# Si number density = 14.776421 Si / 1000 Ang^3
#
#
#
# Elastic Constant Matrix: (Units=GPa)
#
#
# Indices 1 2 3 4 5 6 
#
# 1 90.9411 57.7527 45.4209 1.4889 0.0000 0.0000
# 2 57.7527 90.9411 45.4209 -1.4889 0.0000 0.0000
# 3 45.4209 45.4209 76.6199 0.0000 0.0000 0.0000
# 4 1.4889 -1.4889 0.0000 17.7035 0.0000 0.0000
# 5 0.0000 0.0000 0.0000 0.0000 17.7035 1.4889
# 6 0.0000 0.0000 0.0000 0.0000 1.4889 16.5942
#
#
#
# Elastic Compliance Matrix: (Units=1/GPa)
#
#
# Indices 1 2 3 4 5 6 
#
# 1 0.020452 -0.009908 -0.006250 -0.002553 0.000000 0.000000
# 2 -0.009908 0.020452 -0.006250 0.002553 0.000000 0.000000
# 3 -0.006250 -0.006250 0.020462 0.000000 0.000000 0.000000
# 4 -0.002553 0.002553 0.000000 0.056915 0.000000 0.000000
# 5 0.000000 0.000000 0.000000 0.000000 0.056915 -0.005107
# 6 0.000000 0.000000 0.000000 0.000000 -0.005107 0.060720
#
#
# Mechanical properties :
#
#
# Convention : Reuss Voigt Hill
#
# Bulk Modulus (GPa) = 60.43068 61.74347 61.08708
# Shear Modulus (GPa) = 17.46716 17.72741 17.59728
#
# Velocity S-wave (km/s) = 3.44189 3.46744 3.45469
# Velocity P-wave (km/s) = 7.53532 7.60964 7.57257
#
# Compressibility (1/GPa) = 0.01654789
#
# Stress axis : x y z
#
# Youngs Moduli (GPa) = 48.89497 48.89497 48.87073
#
# Poissons Ratio (x) = 0.48446 0.30547
# Poissons Ratio (y) = 0.48446 0.30547
# Poissons Ratio (z) = 0.30562 0.30562
#
# Static dielectric constant tensor:
#      x y z
#    x 1.491390 0.000000 0.000000 
#    y 0.000000 1.491390 0.000000 
#    z 0.000000 0.000000 1.479690 
# 
# From -- ./inp_files/4074.got.cif
#   From: 2010.05.17/outbox.cif.g08.bks.cpg/sg164_3_cif.got.tgz:4074.got - 2010.05.20 10:58:56.
