data_PCOD9578163
_publ_section_title
;
Structure prediction by ZEFSAII (Michael W. Deem and Ramdas Pophale) SiO2 
 PCOD9578163
Probable space group: P -3 1 C
;
_chemical_formula_sum "Si O2"
_cell_formula_units_Z 76
_cell_length_a 17.045570
_cell_length_b 17.045570
_cell_length_c 14.736274
_cell_angle_alpha 90.000000
_cell_angle_beta 90.000000
_cell_angle_gamma 120.000000
_cell_volume 3708.014099
_symmetry_space_group_name_H-M "P -3 1 C"
_symmetry_group_IT_number 163
_symmetry_cell_setting 'hexagonal'
loop_
_space_group_symop_operation_xyz
x,y,z
-y,x-y,z
-x+y,-x,z
-y,-x,1/2-z
-x+y,y,1/2-z
x,x-y,1/2-z
-x,-y,-z
y,-x+y,-z
x-y,x,-z
y,x,1/2+z
x-y,-y,1/2+z
-x,-x+y,1/2+z
loop_
_atom_site_type_symbol
_atom_site_label
_atom_site_fract_x
_atom_site_fract_y
_atom_site_fract_z
Si Si1 0.925274 0.506436 0.338018
Si Si2 0.396983 0.381449 0.064757
Si Si3 0.695360 0.704231 0.764324
Si Si4 0.000000 0.000000 0.386689
Si Si5 0.834060 0.500257 0.921071
Si Si6 0.204321 0.795680 0.250000
Si Si7 0.916058 0.832116 0.250000
Si Si8 0.505648 0.330563 0.510566
O O1 0.890439 0.445220 0.250000
O O2 0.986332 0.468281 0.385912
O O3 0.967748 0.610760 0.304231
O O4 0.848095 0.477698 0.411034
O O5 0.353301 0.303157 0.139214
O O6 0.325674 0.412479 0.038284
O O7 0.432126 0.359042 0.972918
O O8 0.753951 0.654365 0.777567
O O9 0.765044 0.807901 0.739367
O O10 0.943566 0.899933 0.337984
O O11 0.000000 0.000000 0.500000
O O12 0.807154 0.532685 0.829798
O O13 0.760846 0.494581 0.991536
O O14 0.820427 0.400442 0.918915
#
# Coordination Sequence:
#
# PCOD9578163 Si02
#       8
#    12  12  12   4  12   6   6  12
#     4   9  20  38  65  87 125 177 211 262 335 387
#     4  10  21  42  62  91 132 178 213 267 347 394
#     4  11  22  41  66 101 128 166 222 286 331 397
#     4  10  23  55  73  95 145 202 206 280 394 416
#     4  11  24  38  65  91 130 175 219 270 326 401
#     4  12  22  41  62  96 130 168 216 271 334 398
#     4  10  24  45  72 104 140 166 240 291 328 432
#     4  11  21  42  59  93 129 170 219 266 320 402
#
# _framework density 20.496148000000002
#
# number of rings (size 3 to 8) (size 9 to 14) (size 15 to 20)
#    0.000    1.579    1.579    5.053    2.211    0.632 
#    8.526    0.000    0.000    0.000    0.000    0.000 
#    0.000    0.000    0.000    0.000    0.000    0.000 
#
# Total GULP energy -423189.810350 kJ/mol
# GULP energy per Si atom -5568.286978 kJ/mol
# Density = 2.044950 g / cm^3
# Si number density = 20.496148 Si / 1000 Ang^3
#
#
#
# Elastic Constant Matrix: (Units=GPa)
#
#
# Indices 1 2 3 4 5 6 
#
# 1 146.6645 -33.3899 25.6598 -0.0008 -31.3083 0.0000
# 2 -33.3899 146.6645 25.6598 0.0008 31.3083 0.0000
# 3 25.6598 25.6598 121.3727 0.0000 0.0000 0.0000
# 4 -0.0008 0.0008 0.0000 43.4366 0.0000 31.3083
# 5 -31.3083 31.3083 0.0000 0.0000 43.4366 -0.0008
# 6 0.0000 0.0000 0.0000 31.3083 -0.0008 90.0272
#
#
#
# Elastic Compliance Matrix: (Units=1/GPa)
#
#
# Indices 1 2 3 4 5 6 
#
# 1 0.008587 0.001176 -0.002064 0.000000 0.005342 0.000000
# 2 0.001176 0.008587 -0.002064 0.000000 -0.005342 0.000000
# 3 -0.002064 -0.002064 0.009112 0.000000 0.000000 0.000000
# 4 0.000000 0.000000 0.000000 0.030723 0.000000 -0.010684
# 5 0.005342 -0.005342 0.000000 0.000000 0.030723 0.000000
# 6 0.000000 0.000000 0.000000 -0.010684 0.000000 0.014823
#
#
# Mechanical properties :
#
#
# Convention : Reuss Voigt Hill
#
# Bulk Modulus (GPa) = 49.06290 50.06236 49.56263
# Shear Modulus (GPa) = 43.38191 61.83155 52.60673
#
# Velocity S-wave (km/s) = 4.60563 5.49844 5.07172
# Velocity P-wave (km/s) = 7.22994 8.04915 7.65052
#
# Compressibility (1/GPa) = 0.02038200
#
# Stress axis : x y z
#
# Youngs Moduli (GPa) = 116.44858 116.44858 109.74741
#
# Poissons Ratio (x) = -0.13692 0.22653
# Poissons Ratio (y) = -0.13692 0.22653
# Poissons Ratio (z) = 0.24036 0.24036
#
# Static dielectric constant tensor:
#      x y z
#    x 1.754200 0.000000 0.000000 
#    y 0.000000 1.754200 0.000000 
#    z 0.000000 0.000000 1.784390 
# 
# From -- ./inp_files/2636.got.cif
#   From: 2010.05.17/outbox.cif.g08.bks.cpg/sg163_2_cif.got.tgz:2636.got - 2010.05.20 10:56:03.
