data_PCOD9578390
_publ_section_title
;
Structure prediction by ZEFSAII (Michael W. Deem and Ramdas Pophale) SiO2 
 PCOD9578390
Probable space group: P -3 M 1
;
_chemical_formula_sum "Si O2"
_cell_formula_units_Z 90
_cell_length_a 18.166486
_cell_length_b 18.166486
_cell_length_c 18.793273
_cell_angle_alpha 90.000000
_cell_angle_beta 90.000000
_cell_angle_gamma 120.000000
_cell_volume 5371.244367
_symmetry_space_group_name_H-M "P -3 M 1"
_symmetry_group_IT_number 164
_symmetry_cell_setting 'hexagonal'
loop_
_space_group_symop_operation_xyz
x,y,z
-y,x-y,z
-x+y,-x,z
x-y,-y,-z
-x,-x+y,-z
y,x,-z
-x,-y,-z
y,-x+y,-z
x-y,x,-z
-x+y,y,z
x,x-y,z
-y,-x,z
loop_
_atom_site_type_symbol
_atom_site_label
_atom_site_fract_x
_atom_site_fract_y
_atom_site_fract_z
Si Si1 0.498458 0.830426 0.096620
Si Si2 0.971289 0.572963 0.664212
Si Si3 0.625721 0.085071 0.048219
Si Si4 0.302583 0.066123 0.132386
Si Si5 0.332348 0.494198 0.625178
Si Si6 0.092045 0.735615 0.211741
Si Si7 0.826840 0.826840 0.000000
Si Si8 0.332661 0.496104 0.454955
O O1 0.428119 0.856238 0.113521
O O2 0.465506 0.732753 0.114551
O O3 0.583397 0.884000 0.141883
O O4 0.516177 0.844060 0.012504
O O5 0.965890 0.482945 0.679503
O O6 0.924019 0.596172 0.723890
O O7 0.921446 0.560571 0.590054
O O8 0.071028 0.641891 0.659016
O O9 0.545331 0.090662 0.077586
O O10 0.689786 0.084583 0.105522
O O11 0.587153 0.000000 0.000000
O O12 0.306616 0.153308 0.152599
O O13 0.238279 0.026372 0.065547
O O14 0.267953 0.995479 0.193185
O O15 0.242525 0.485050 0.646573
O O16 0.410332 0.589669 0.639424
O O17 0.330816 0.481882 0.539569
O O18 0.170794 0.829207 0.224949
O O19 0.835996 0.917998 0.017316
O O20 0.241552 0.483104 0.432959
O O21 0.406285 0.593716 0.442413
#
# Coordination Sequence:
#
# PCOD9578390 Si02
#       8
#    12  12  12  12  12  12   6  12
#     4  10  19  31  48  70  96 125 157 193 232 278
#     4  10  20  32  48  70  97 130 165 200 234 275
#     4  10  18  30  50  73  95 120 153 194 240 286
#     4  11  21  34  52  72  93 121 158 201 243 290
#     4   9  17  30  50  74 100 128 160 198 238 280
#     4  11  22  35  49  67  94 127 161 195 235 283
#     4  10  19  32  51  74  98 118 144 188 247 306
#     4   9  16  28  47  73 102 131 161 194 235 280
#
# _framework density 16.755894000000001
#
# number of rings (size 3 to 8) (size 9 to 14) (size 15 to 20)
#    0.000    2.000    2.000    2.467    0.000    5.867 
#    0.000    0.000    0.000    4.800    0.000    0.933 
#    0.000    0.000    0.000    0.000    0.000   18.267 
#
# Total GULP energy -502027.247295 kJ/mol
# GULP energy per Si atom -5578.080526 kJ/mol
# Density = 1.671776 g / cm^3
# Si number density = 16.755894 Si / 1000 Ang^3
#
#
#
# Elastic Constant Matrix: (Units=GPa)
#
#
# Indices 1 2 3 4 5 6 
#
# 1 95.3397 52.9228 20.7141 0.9300 0.0000 0.0000
# 2 52.9228 95.3397 20.7141 -0.9300 0.0000 0.0000
# 3 20.7141 20.7141 21.2117 0.0000 0.0000 0.0000
# 4 0.9300 -0.9300 0.0000 21.5932 0.0000 0.0000
# 5 0.0000 0.0000 0.0000 0.0000 21.5932 0.9300
# 6 0.0000 0.0000 0.0000 0.0000 0.9300 21.2085
#
#
#
# Elastic Compliance Matrix: (Units=1/GPa)
#
#
# Indices 1 2 3 4 5 6 
#
# 1 0.016448 -0.007172 -0.009058 -0.001017 0.000000 0.000000
# 2 -0.007172 0.016448 -0.009058 0.001017 0.000000 0.000000
# 3 -0.009058 -0.009058 0.064835 0.000000 0.000000 0.000000
# 4 -0.001017 0.001017 0.000000 0.046399 0.000000 0.000000
# 5 0.000000 0.000000 0.000000 0.000000 0.046399 -0.002035
# 6 0.000000 0.000000 0.000000 0.000000 -0.002035 0.047240
#
#
# Mechanical properties :
#
#
# Convention : Reuss Voigt Hill
#
# Bulk Modulus (GPa) = 21.20712 44.51036 32.85874
# Shear Modulus (GPa) = 16.44391 20.71498 18.57945
#
# Velocity S-wave (km/s) = 3.13610 3.51989 3.33352
# Velocity P-wave (km/s) = 5.07912 6.56820 5.87106
#
# Compressibility (1/GPa) = 0.04715397
#
# Stress axis : x y z
#
# Youngs Moduli (GPa) = 60.79769 60.79769 15.42368
#
# Poissons Ratio (x) = 0.43605 0.13971
# Poissons Ratio (y) = 0.43605 0.13971
# Poissons Ratio (z) = 0.55072 0.55072
#
# Static dielectric constant tensor:
#      x y z
#    x 1.575660 0.000000 0.000000 
#    y 0.000000 1.575660 0.000000 
#    z 0.000000 0.000000 1.560530 
# 
# From -- ./inp_files/4273.got.cif
#   From: 2010.05.17/outbox.cif.g08.bks.cpg/sg164_3_cif.got.tgz:4273.got - 2010.05.20 10:58:56.
