data_PCOD9578627
_publ_section_title
;
Structure prediction by ZEFSAII (Michael W. Deem and Ramdas Pophale) SiO2 
 PCOD9578627
Probable space group: P -3 M 1
;
_chemical_formula_sum "Si O2"
_cell_formula_units_Z 66
_cell_length_a 12.827127
_cell_length_b 12.827127
_cell_length_c 28.660098
_cell_angle_alpha 90.000000
_cell_angle_beta 90.000000
_cell_angle_gamma 120.000000
_cell_volume 4083.824705
_symmetry_space_group_name_H-M "P -3 M 1"
_symmetry_group_IT_number 164
_symmetry_cell_setting 'hexagonal'
loop_
_space_group_symop_operation_xyz
x,y,z
-y,x-y,z
-x+y,-x,z
x-y,-y,-z
-x,-x+y,-z
y,x,-z
-x,-y,-z
y,-x+y,-z
x-y,x,-z
-x+y,y,z
x,x-y,z
-y,-x,z
loop_
_atom_site_type_symbol
_atom_site_label
_atom_site_fract_x
_atom_site_fract_y
_atom_site_fract_z
Si Si1 0.419651 0.333186 0.956112
Si Si2 0.333048 0.912918 0.870604
Si Si3 0.000051 0.247772 0.322553
Si Si4 0.751765 0.000000 0.500000
Si Si5 0.420977 0.333492 0.236308
Si Si6 0.332652 0.418820 0.410640
O O1 0.414507 0.207254 0.959369
O O2 0.557203 0.442798 0.956575
O O3 0.360237 0.346226 0.908652
O O4 0.355286 0.355286 0.000000
O O5 0.441770 0.883540 0.874218
O O6 0.206899 0.793102 0.879696
O O7 0.333909 0.952270 0.817111
O O8 0.877977 0.122024 0.330991
O O9 0.983622 0.302234 0.274347
O O10 0.113943 0.227886 0.320459
O O11 0.024743 0.340726 0.364416
O O12 0.764636 0.882318 0.507251
O O13 0.666830 0.974615 0.455242
O O14 0.453204 0.226602 0.238715
O O15 0.539072 0.460929 0.245917
O O16 0.225275 0.450550 0.410064
O O17 0.461515 0.538486 0.412611
#
# Coordination Sequence:
#
# PCOD9578627 Si02
#       6
#    12  12  12   6  12  12
#     4  10  20  33  50  71  95 123 155 194 238 284
#     4   9  17  30  50  74  98 125 158 197 239 283
#     4  10  20  33  50  71  97 130 166 204 243 286
#     4  10  20  34  54  78 104 134 166 200 236 280
#     4   9  17  30  49  73  99 127 160 199 242 285
#     4  10  20  34  52  73  98 128 162 202 247 293
#
# _framework density 16.161321000000001
#
# number of rings (size 3 to 8) (size 9 to 14) (size 15 to 20)
#    0.000    2.364    0.000    2.909    0.000    2.182 
#    0.000    3.636    0.000    8.727    0.000    0.000 
#    0.000    0.000    0.000    0.000    0.000    0.000 
#
# Total GULP energy -368176.639767 kJ/mol
# GULP energy per Si atom -5578.433936 kJ/mol
# Density = 1.612454 g / cm^3
# Si number density = 16.161321 Si / 1000 Ang^3
#
#
#
# Elastic Constant Matrix: (Units=GPa)
#
#
# Indices 1 2 3 4 5 6 
#
# 1 120.3799 85.0044 83.6733 0.7789 0.0000 0.0000
# 2 85.0044 120.3799 83.6733 -0.7789 0.0000 0.0000
# 3 83.6733 83.6733 129.2675 0.0000 0.0000 0.0000
# 4 0.7789 -0.7789 0.0000 23.0438 0.0000 0.0000
# 5 0.0000 0.0000 0.0000 0.0000 23.0438 0.7789
# 6 0.0000 0.0000 0.0000 0.0000 0.7789 17.6877
#
#
#
# Elastic Compliance Matrix: (Units=1/GPa)
#
#
# Indices 1 2 3 4 5 6 
#
# 1 0.019306 -0.009004 -0.006669 -0.000957 0.000000 0.000000
# 2 -0.009004 0.019306 -0.006669 0.000957 0.000000 0.000000
# 3 -0.006669 -0.006669 0.016369 0.000000 0.000000 0.000000
# 4 -0.000957 0.000957 0.000000 0.043460 0.000000 0.000000
# 5 0.000000 0.000000 0.000000 0.000000 0.043460 -0.001914
# 6 0.000000 0.000000 0.000000 0.000000 -0.001914 0.056621
#
#
# Mechanical properties :
#
#
# Convention : Reuss Voigt Hill
#
# Bulk Modulus (GPa) = 97.09396 97.19216 97.14306
# Shear Modulus (GPa) = 20.27252 20.60013 20.43633
#
# Velocity S-wave (km/s) = 3.54557 3.57411 3.55987
# Velocity P-wave (km/s) = 8.77325 8.79213 8.78270
#
# Compressibility (1/GPa) = 0.01029930
#
# Stress axis : x y z
#
# Youngs Moduli (GPa) = 51.79611 51.79611 61.09066
#
# Poissons Ratio (x) = 0.46636 0.40740
# Poissons Ratio (y) = 0.46636 0.40740
# Poissons Ratio (z) = 0.34542 0.34542
#
# Static dielectric constant tensor:
#      x y z
#    x 1.509950 0.000000 0.000000 
#    y 0.000000 1.509950 0.000000 
#    z 0.000000 0.000000 1.541840 
# 
# From -- ./inp_files/5522.got.cif
#   From: 2010.05.17/outbox.cif.g08.bks.cpg/sg164_3_cif.got.tgz:5522.got - 2010.05.20 10:58:56.
