data_PCOD9578147
_publ_section_title
;
Structure prediction by ZEFSAII (Michael W. Deem and Ramdas Pophale) SiO2 
 PCOD9578147
Probable space group: P -3 1 C
;
_chemical_formula_sum "Si O2"
_cell_formula_units_Z 84
_cell_length_a 17.371332
_cell_length_b 17.371332
_cell_length_c 15.664498
_cell_angle_alpha 90.000000
_cell_angle_beta 90.000000
_cell_angle_gamma 120.000000
_cell_volume 4093.674941
_symmetry_space_group_name_H-M "P -3 1 C"
_symmetry_group_IT_number 163
_symmetry_cell_setting 'hexagonal'
loop_
_space_group_symop_operation_xyz
x,y,z
-y,x-y,z
-x+y,-x,z
-y,-x,1/2-z
-x+y,y,1/2-z
x,x-y,1/2-z
-x,-y,-z
y,-x+y,-z
x-y,x,-z
y,x,1/2+z
x-y,-y,1/2+z
-x,-x+y,1/2+z
loop_
_atom_site_type_symbol
_atom_site_label
_atom_site_fract_x
_atom_site_fract_y
_atom_site_fract_z
Si Si1 0.079583 0.777689 0.315168
Si Si2 0.467444 0.233722 0.250000
Si Si3 0.923498 0.121831 0.520290
Si Si4 0.821045 0.452949 0.660263
Si Si5 0.485680 0.183384 0.581365
Si Si6 0.369420 0.366731 0.682874
Si Si7 0.136283 0.372010 0.921139
Si Si8 0.438160 0.561841 0.750000
O O1 0.146885 0.853116 0.250000
O O2 0.055180 0.826502 0.388989
O O3 0.131291 0.734983 0.363722
O O4 0.003324 0.695564 0.260596
O O5 0.405634 0.223021 0.169661
O O6 0.527173 0.336671 0.279184
O O7 0.866440 0.154680 0.465368
O O8 0.015907 0.150016 0.472948
O O9 0.802285 0.401143 0.750000
O O10 0.857927 0.406325 0.596869
O O11 0.740135 0.457508 0.618120
O O12 0.896415 0.553666 0.675673
O O13 0.454410 0.180123 0.485627
O O14 0.310506 0.344897 0.598433
O O15 0.417806 0.473411 0.696624
#
# Coordination Sequence:
#
# PCOD9578147 Si02
#       8
#    12   6  12  12  12  12  12   6
#     4  11  20  41  69  97 136 182 227 288 351 422
#     4  10  23  44  68  92 144 186 244 276 347 406
#     4  11  26  46  71 100 137 170 222 295 373 424
#     4  12  21  38  66  98 140 185 231 285 348 408
#     4  11  23  38  59 101 145 178 233 286 351 404
#     4  11  21  40  66  99 132 176 246 274 334 411
#     4  10  26  43  65 100 130 187 230 286 350 418
#     4  10  21  38  66  96 124 176 230 284 321 384
#
# _framework density 20.519459999999999
#
# number of rings (size 3 to 8) (size 9 to 14) (size 15 to 20)
#    0.000    1.143    3.571    1.857    6.000    2.857 
#    0.000    1.429    0.000    0.000    0.000    0.000 
#    0.000    0.000    0.000    0.000    0.000    0.000 
#
# Total GULP energy -468583.364715 kJ/mol
# GULP energy per Si atom -5578.373389 kJ/mol
# Density = 2.047276 g / cm^3
# Si number density = 20.519460 Si / 1000 Ang^3
#
#
#
# Elastic Constant Matrix: (Units=GPa)
#
#
# Indices 1 2 3 4 5 6 
#
# 1 62.4213 15.2963 20.1123 0.0000 -0.1061 0.0000
# 2 15.2963 62.4213 20.1123 0.0000 0.1061 0.0000
# 3 20.1123 20.1123 79.7114 0.0000 0.0000 0.0000
# 4 0.0000 0.0000 0.0000 26.7682 0.0000 0.1061
# 5 -0.1061 0.1061 0.0000 0.0000 26.7682 0.0000
# 6 0.0000 0.0000 0.0000 0.1061 0.0000 23.5625
#
#
#
# Elastic Compliance Matrix: (Units=1/GPa)
#
#
# Indices 1 2 3 4 5 6 
#
# 1 0.018010 -0.003210 -0.003734 0.000000 0.000084 0.000000
# 2 -0.003210 0.018010 -0.003734 0.000000 -0.000084 0.000000
# 3 -0.003734 -0.003734 0.014430 0.000000 0.000000 0.000000
# 4 0.000000 0.000000 0.000000 0.037358 0.000000 -0.000168
# 5 0.000084 -0.000084 0.000000 0.000000 0.037358 0.000000
# 6 0.000000 0.000000 0.000000 -0.000168 0.000000 0.042441
#
#
# Mechanical properties :
#
#
# Convention : Reuss Voigt Hill
#
# Bulk Modulus (GPa) = 34.37316 35.06621 34.71969
# Shear Modulus (GPa) = 25.16828 25.35534 25.26181
#
# Velocity S-wave (km/s) = 3.50602 3.51903 3.51253
# Velocity P-wave (km/s) = 5.75999 5.79981 5.77993
#
# Compressibility (1/GPa) = 0.02909247
#
# Stress axis : x y z
#
# Youngs Moduli (GPa) = 55.52419 55.52419 69.30183
#
# Poissons Ratio (x) = 0.17825 0.25879
# Poissons Ratio (y) = 0.17825 0.25879
# Poissons Ratio (z) = 0.20734 0.20734
#
# Static dielectric constant tensor:
#      x y z
#    x 1.764720 0.000000 0.000000 
#    y 0.000000 1.764720 0.000000 
#    z 0.000000 0.000000 1.741810 
# 
# From -- ./inp_files/2706.got.cif
#   From: 2010.05.17/outbox.cif.g08.bks.cpg/sg163_2_cif.got.tgz:2706.got - 2010.05.20 10:56:03.
