data_PCOD9578979
_publ_section_title
;
Structure prediction by ZEFSAII (Michael W. Deem and Ramdas Pophale) SiO2 
 PCOD9578979
Probable space group: P -3 C 1
;
_chemical_formula_sum "Si O2"
_cell_formula_units_Z 84
_cell_length_a 16.823269
_cell_length_b 16.823269
_cell_length_c 15.230593
_cell_angle_alpha 90.000000
_cell_angle_beta 90.000000
_cell_angle_gamma 120.000000
_cell_volume 3733.087960
_symmetry_space_group_name_H-M "P -3 C 1"
_symmetry_group_IT_number 165
_symmetry_cell_setting 'hexagonal'
loop_
_space_group_symop_operation_xyz
x,y,z
-y,x-y,z
-x+y,-x,z
x-y,-y,1/2-z
-x,-x+y,1/2-z
y,x,1/2-z
-x,-y,-z
y,-x+y,-z
x-y,x,-z
-x+y,y,1/2+z
x,x-y,1/2+z
-y,-x,1/2+z
loop_
_atom_site_type_symbol
_atom_site_label
_atom_site_fract_x
_atom_site_fract_y
_atom_site_fract_z
Si Si1 0.199978 0.100035 0.285390
Si Si2 0.235235 0.297202 0.570846
Si Si3 0.534756 0.098612 0.713511
Si Si4 0.854062 0.234302 0.048934
Si Si5 0.427821 0.890683 0.488263
Si Si6 0.596936 0.831914 0.268523
Si Si7 0.488139 0.323674 0.858953
O O1 0.124608 0.124608 0.250000
O O2 0.227785 0.091139 0.385111
O O3 0.295340 0.179258 0.247723
O O4 0.171791 0.000000 0.250000
O O5 0.213399 0.349215 0.494309
O O6 0.291228 0.246612 0.549177
O O7 0.305439 0.383225 0.632739
O O8 0.568782 0.124081 0.614903
O O9 0.441658 0.101594 0.712559
O O10 0.608706 0.162866 0.784198
O O11 0.511535 0.000000 0.750000
O O12 0.864212 0.322436 0.996662
O O13 0.816409 0.231223 0.147081
O O14 0.461765 0.835777 0.550648
O O15 0.500000 0.000000 0.500000
O O16 0.541620 0.775217 0.182391
#
# Coordination Sequence:
#
# PCOD9578979 Si02
#       7
#    12  12  12  12  12  12  12
#     4  11  24  43  69 102 143 194 247 307 372 438
#     4  11  26  42  73 103 144 190 244 310 366 440
#     4  12  24  45  74 104 139 186 243 293 358 442
#     4  12  25  46  71 107 143 188 249 304 369 436
#     4  12  24  41  75 103 137 182 239 295 360 441
#     4  11  26  45  72 103 143 190 237 299 366 445
#     4  11  25  46  68 103 140 182 231 296 367 428
#
# _framework density 22.501480000000001
#
# number of rings (size 3 to 8) (size 9 to 14) (size 15 to 20)
#    0.000    0.571    5.714    1.429    6.000    0.000 
#    0.857    0.000    0.000    1.143    0.000    0.000 
#    0.000    0.000    0.000    0.000    0.000    0.000 
#
# Total GULP energy -468442.279679 kJ/mol
# GULP energy per Si atom -5576.693806 kJ/mol
# Density = 2.245027 g / cm^3
# Si number density = 22.501480 Si / 1000 Ang^3
#
#
#
# Elastic Constant Matrix: (Units=GPa)
#
#
# Indices 1 2 3 4 5 6 
#
# 1 79.1503 17.4064 35.8832 -4.7920 0.0000 0.0000
# 2 17.4064 79.1503 35.8832 4.7920 0.0000 0.0000
# 3 35.8832 35.8832 143.8644 0.0000 0.0000 0.0000
# 4 -4.7920 4.7920 0.0000 30.0002 0.0000 0.0000
# 5 0.0000 0.0000 0.0000 0.0000 30.0002 -4.7920
# 6 0.0000 0.0000 0.0000 0.0000 -4.7920 30.8719
#
#
#
# Elastic Compliance Matrix: (Units=1/GPa)
#
#
# Indices 1 2 3 4 5 6 
#
# 1 0.014661 -0.001947 -0.003171 0.002653 0.000000 0.000000
# 2 -0.001947 0.014661 -0.003171 -0.002653 0.000000 0.000000
# 3 -0.003171 -0.003171 0.008533 0.000000 0.000000 0.000000
# 4 0.002653 -0.002653 0.000000 0.034181 0.000000 0.000000
# 5 0.000000 0.000000 0.000000 0.000000 0.034181 0.005306
# 6 0.000000 0.000000 0.000000 0.000000 0.005306 0.033215
#
#
# Mechanical properties :
#
#
# Convention : Reuss Voigt Hill
#
# Bulk Modulus (GPa) = 47.00204 53.39009 50.19607
# Shear Modulus (GPa) = 30.65585 32.37394 31.51489
#
# Velocity S-wave (km/s) = 3.69506 3.79720 3.74648
# Velocity P-wave (km/s) = 6.25607 6.55773 6.40868
#
# Compressibility (1/GPa) = 0.02127567
#
# Stress axis : x y z
#
# Youngs Moduli (GPa) = 68.21000 68.21000 117.19395
#
# Poissons Ratio (x) = 0.13281 0.37163
# Poissons Ratio (y) = 0.13281 0.37163
# Poissons Ratio (z) = 0.21630 0.21630
#
# Static dielectric constant tensor:
#      x y z
#    x 2.519480 0.000000 0.000000 
#    y 0.000000 2.519480 0.000000 
#    z 0.000000 0.000000 1.933120 
# 
# From -- ./inp_files/1871.got.cif
#   From: 2010.05.17/outbox.cif.g08.bks.cpg/sg165_1_cif.got.tgz:1871.got - 2010.05.20 11:02:39.
