data_PCOD9578856
_publ_section_title
;
Structure prediction by ZEFSAII (Michael W. Deem and Ramdas Pophale) SiO2 
 PCOD9578856
Probable space group: P -3 C 1
;
_chemical_formula_sum "Si O2"
_cell_formula_units_Z 76
_cell_length_a 16.379403
_cell_length_b 16.379403
_cell_length_c 17.045428
_cell_angle_alpha 90.000000
_cell_angle_beta 90.000000
_cell_angle_gamma 120.000000
_cell_volume 3960.360125
_symmetry_space_group_name_H-M "P -3 C 1"
_symmetry_group_IT_number 165
_symmetry_cell_setting 'hexagonal'
loop_
_space_group_symop_operation_xyz
x,y,z
-y,x-y,z
-x+y,-x,z
x-y,-y,1/2-z
-x,-x+y,1/2-z
y,x,1/2-z
-x,-y,-z
y,-x+y,-z
x-y,x,-z
-x+y,y,1/2+z
x,x-y,1/2+z
-y,-x,1/2+z
loop_
_atom_site_type_symbol
_atom_site_label
_atom_site_fract_x
_atom_site_fract_y
_atom_site_fract_z
Si Si1 0.541357 0.930718 0.430380
Si Si2 0.000000 0.000000 0.656507
Si Si3 0.767507 0.549762 0.364790
Si Si4 0.945269 0.240249 0.465497
Si Si5 0.115819 0.899021 0.391641
Si Si6 0.631653 0.735924 0.785807
Si Si7 0.430067 0.868424 0.579769
O O1 0.634065 0.967522 0.485862
O O2 0.560346 0.883155 0.356135
O O3 0.457206 0.864871 0.488932
O O4 0.534690 0.021525 0.405375
O O5 0.954722 0.892948 0.627908
O O6 0.000000 0.000000 0.750000
O O7 0.790548 0.640967 0.416729
O O8 0.817522 0.583635 0.281064
O O9 0.809730 0.490022 0.404413
O O10 0.654392 0.485582 0.366985
O O11 0.927418 0.161787 0.529734
O O12 0.027941 0.252896 0.408889
O O13 0.105945 0.826620 0.323983
O O14 0.670448 0.670448 0.750000
#
# Coordination Sequence:
#
# PCOD9578856 Si02
#       7
#    12   4  12  12  12  12  12
#     4   9  20  41  67  91 121 166 213 257 320 382
#     4  12  27  37  53  85 126 181 209 271 330 367
#     4  11  23  40  68  95 127 165 207 263 339 381
#     4  10  22  39  64  92 121 168 219 270 309 382
#     4  11  24  39  60  88 126 168 227 264 311 378
#     4  11  23  41  64  91 127 173 208 268 326 379
#     4  10  20  40  65  93 121 162 212 259 313 394
#
# _framework density 19.190175
#
# number of rings (size 3 to 8) (size 9 to 14) (size 15 to 20)
#    0.000    1.579    1.579    2.684    6.632    0.632 
#    0.000   12.632    0.000    0.000    0.000    0.000 
#    0.000    0.000    0.000    0.000    0.000    0.000 
#
# Total GULP energy -424668.833346 kJ/mol
# GULP energy per Si atom -5587.747807 kJ/mol
# Density = 1.914650 g / cm^3
# Si number density = 19.190175 Si / 1000 Ang^3
#
#
#
# Elastic Constant Matrix: (Units=GPa)
#
#
# Indices 1 2 3 4 5 6 
#
# 1 70.6380 21.0283 50.2293 -7.5040 0.0000 0.0000
# 2 21.0283 70.6380 50.2293 7.5040 0.0000 0.0000
# 3 50.2293 50.2293 103.7473 0.0000 0.0000 0.0000
# 4 -7.5040 7.5040 0.0000 30.6755 0.0000 0.0000
# 5 0.0000 0.0000 0.0000 0.0000 30.6755 -7.5040
# 6 0.0000 0.0000 0.0000 0.0000 -7.5040 24.8048
#
#
#
# Elastic Compliance Matrix: (Units=1/GPa)
#
#
# Indices 1 2 3 4 5 6 
#
# 1 0.022504 0.000736 -0.011252 0.005325 0.000000 0.000000
# 2 0.000736 0.022504 -0.011252 -0.005325 0.000000 0.000000
# 3 -0.011252 -0.011252 0.020534 0.000000 0.000000 0.000000
# 4 0.005325 -0.005325 0.000000 0.035205 0.000000 0.000000
# 5 0.000000 0.000000 0.000000 0.000000 0.035205 0.010650
# 6 0.000000 0.000000 0.000000 0.000000 0.010650 0.043537
#
#
# Mechanical properties :
#
#
# Convention : Reuss Voigt Hill
#
# Bulk Modulus (GPa) = 45.43973 54.22191 49.83082
# Shear Modulus (GPa) = 21.70530 25.46693 23.58612
#
# Velocity S-wave (km/s) = 3.36678 3.64687 3.50962
# Velocity P-wave (km/s) = 6.23247 6.78596 6.51509
#
# Compressibility (1/GPa) = 0.02200717
#
# Stress axis : x y z
#
# Youngs Moduli (GPa) = 44.43622 44.43622 48.70010
#
# Poissons Ratio (x) = -0.03270 0.54796
# Poissons Ratio (y) = -0.03270 0.54796
# Poissons Ratio (z) = 0.49998 0.49998
#
# Static dielectric constant tensor:
#      x y z
#    x 1.666810 0.000000 0.000000 
#    y 0.000000 1.666810 0.000000 
#    z 0.000000 0.000000 1.659340 
# 
# From -- ./inp_files/1815.got.cif
#   From: 2010.05.17/outbox.cif.g08.bks.cpg/sg165_1_cif.got.tgz:1815.got - 2010.05.20 11:02:39.
