data_PCOD9578264
_publ_section_title
;
Structure prediction by ZEFSAII (Michael W. Deem and Ramdas Pophale) SiO2 
 PCOD9578264
Probable space group: P -3 1 C
;
_chemical_formula_sum "Si O2"
_cell_formula_units_Z 68
_cell_length_a 11.203892
_cell_length_b 11.203892
_cell_length_c 32.427402
_cell_angle_alpha 90.000000
_cell_angle_beta 90.000000
_cell_angle_gamma 120.000000
_cell_volume 3525.174458
_symmetry_space_group_name_H-M "P -3 1 C"
_symmetry_group_IT_number 163
_symmetry_cell_setting 'hexagonal'
loop_
_space_group_symop_operation_xyz
x,y,z
-y,x-y,z
-x+y,-x,z
-y,-x,1/2-z
-x+y,y,1/2-z
x,x-y,1/2-z
-x,-y,-z
y,-x+y,-z
x-y,x,-z
y,x,1/2+z
x-y,-y,1/2+z
-x,-x+y,1/2+z
loop_
_atom_site_type_symbol
_atom_site_label
_atom_site_fract_x
_atom_site_fract_y
_atom_site_fract_z
Si Si1 0.334148 0.943867 0.545681
Si Si2 0.621583 0.670180 0.750000
Si Si3 0.056133 0.390280 0.954319
Si Si4 0.000000 0.000000 0.549563
Si Si5 0.827009 0.172991 0.686524
Si Si6 0.296112 0.148056 0.906812
Si Si7 0.666667 0.333334 0.699221
O O1 0.451249 0.902498 0.545766
O O2 0.187100 0.812900 0.555112
O O3 0.332971 1.000000 0.500000
O O4 0.370143 0.065469 0.577879
O O5 0.481117 0.518884 0.750000
O O6 0.587563 0.793782 0.750000
O O7 0.721806 0.686000 0.711761
O O8 0.721806 0.686000 0.788239
O O9 0.934531 0.304674 0.922121
O O10 0.923381 0.076620 0.567902
O O11 0.000000 0.000000 0.500000
O O12 0.861115 0.138885 0.641907
O O13 0.744316 0.255684 0.683690
O O14 0.666668 0.333334 0.750000
#
# Coordination Sequence:
#
# PCOD9578264 Si02
#       7
#    12  12  12   4  12  12   4
#     4  11  23  41  62  89 124 167 217 273 332 390
#     4  11  23  44  70  98 135 177 216 262 332 401
#     4  11  23  41  62  89 124 167 217 273 332 390
#     4  12  24  45  75  88 128 187 237 270 333 429
#     4  11  24  42  68 100 133 168 223 277 323 402
#     4  12  25  40  66  97 127 168 225 273 333 385
#     4  12  18  48  78  90 120 189 234 258 336 417
#
# _framework density 19.289826000000001
#
# number of rings (size 3 to 8) (size 9 to 14) (size 15 to 20)
#    0.000    0.706    7.059    1.588    4.941    0.000 
#    5.294    0.000    0.000    4.235    0.000    0.000 
#    0.000    0.000    0.000    0.000    0.000    0.000 
#
# Total GULP energy -379889.842987 kJ/mol
# GULP energy per Si atom -5586.615338 kJ/mol
# Density = 1.924592 g / cm^3
# Si number density = 19.289826 Si / 1000 Ang^3
#
#
#
# Elastic Constant Matrix: (Units=GPa)
#
#
# Indices 1 2 3 4 5 6 
#
# 1 93.6457 32.5112 34.3445 0.0000 0.0000 0.0000
# 2 32.5112 93.6456 34.3446 0.0000 0.0000 0.0000
# 3 34.3445 34.3446 147.0889 0.0000 0.0000 0.0000
# 4 0.0000 0.0000 0.0000 13.3484 0.0000 0.0000
# 5 0.0000 0.0000 0.0000 0.0000 13.3484 0.0000
# 6 0.0000 0.0000 0.0000 0.0000 0.0000 30.5672
#
#
#
# Elastic Compliance Matrix: (Units=1/GPa)
#
#
# Indices 1 2 3 4 5 6 
#
# 1 0.012719 -0.003638 -0.002120 0.000000 0.000000 0.000000
# 2 -0.003638 0.012719 -0.002120 0.000000 0.000000 0.000000
# 3 -0.002120 -0.002120 0.007789 0.000000 0.000000 0.000000
# 4 0.000000 0.000000 0.000000 0.074915 0.000000 0.000000
# 5 0.000000 0.000000 0.000000 0.000000 0.074915 0.000000
# 6 0.000000 0.000000 0.000000 0.000000 0.000000 0.032715
#
#
# Mechanical properties :
#
#
# Convention : Reuss Voigt Hill
#
# Bulk Modulus (GPa) = 57.24265 59.64231 58.44248
# Shear Modulus (GPa) = 21.06558 26.99812 24.03185
#
# Velocity S-wave (km/s) = 3.30821 3.74519 3.53346
# Velocity P-wave (km/s) = 6.65822 7.04898 6.85638
#
# Compressibility (1/GPa) = 0.01746949
#
# Stress axis : x y z
#
# Youngs Moduli (GPa) = 78.62088 78.62081 128.38916
#
# Poissons Ratio (x) = 0.28603 0.27224
# Poissons Ratio (y) = 0.28603 0.27224
# Poissons Ratio (z) = 0.16671 0.16671
#
# Static dielectric constant tensor:
#      x y z
#    x 1.675280 0.000000 0.000000 
#    y 0.000000 1.675280 0.000000 
#    z 0.000000 0.000000 1.661750 
# 
# From -- ./inp_files/4368.got.cif
#   From: 2010.05.17/outbox.cif.g08.bks.cpg/sg163_3_cif.got.tgz:4368.got - 2010.05.20 10:56:03.
