data_PCOD9578977
_publ_section_title
;
Structure prediction by ZEFSAII (Michael W. Deem and Ramdas Pophale) SiO2 
 PCOD9578977
Probable space group: P -3 C 1
;
_chemical_formula_sum "Si O2"
_cell_formula_units_Z 48
_cell_length_a 12.177240
_cell_length_b 12.177240
_cell_length_c 18.638519
_cell_angle_alpha 90.000000
_cell_angle_beta 90.000000
_cell_angle_gamma 120.000000
_cell_volume 2393.534896
_symmetry_space_group_name_H-M "P -3 C 1"
_symmetry_group_IT_number 165
_symmetry_cell_setting 'hexagonal'
loop_
_space_group_symop_operation_xyz
x,y,z
-y,x-y,z
-x+y,-x,z
x-y,-y,1/2-z
-x,-x+y,1/2-z
y,x,1/2-z
-x,-y,-z
y,-x+y,-z
x-y,x,-z
-x+y,y,1/2+z
x,x-y,1/2+z
-y,-x,1/2+z
loop_
_atom_site_type_symbol
_atom_site_label
_atom_site_fract_x
_atom_site_fract_y
_atom_site_fract_z
Si Si1 0.666668 0.333335 0.269888
Si Si2 0.333335 0.666668 0.402009
Si Si3 0.036344 0.769383 0.164891
Si Si4 0.436616 0.487648 0.423277
Si Si5 0.915847 0.332200 0.318254
Si Si6 0.000000 0.000000 0.836636
O O1 0.666668 0.333334 0.184194
O O2 0.801513 0.356910 0.297162
O O3 0.353235 0.554468 0.428483
O O4 0.187980 0.851381 0.156929
O O5 0.984473 0.864089 0.143140
O O6 0.000000 0.731216 0.250000
O O7 0.992768 0.647315 0.114699
O O8 0.500000 0.500000 0.500000
O O9 0.557505 0.564462 0.371625
O O10 0.000000 0.345320 0.250000
O O11 0.000000 0.000000 0.750000
#
# Coordination Sequence:
#
# PCOD9578977 Si02
#       6
#     4   4  12  12  12   4
#     4  12  21  40  71 106 132 178 233 292 345 400
#     4  12  27  46  71 103 138 175 242 286 345 406
#     4  11  23  45  71 104 138 174 231 286 353 410
#     4  12  29  44  68  99 141 187 226 282 341 419
#     4  12  23  41  71 100 136 177 230 284 345 407
#     4   9  21  39  75 106 134 172 220 296 355 420
#
# _framework density 20.054020999999999
#
# number of rings (size 3 to 8) (size 9 to 14) (size 15 to 20)
#    0.000    0.500    5.000    4.500    7.000    0.000 
#    0.000    0.000    0.000    1.500    0.000    0.000 
#    0.000    0.000    0.000    0.000    0.000    0.000 
#
# Total GULP energy -268303.896251 kJ/mol
# GULP energy per Si atom -5589.664505 kJ/mol
# Density = 2.000838 g / cm^3
# Si number density = 20.054021 Si / 1000 Ang^3
#
#
#
# Elastic Constant Matrix: (Units=GPa)
#
#
# Indices 1 2 3 4 5 6 
#
# 1 117.7337 40.3378 29.1487 4.4341 0.0000 0.0000
# 2 40.3378 117.7352 29.1491 -4.4353 0.0000 0.0000
# 3 29.1487 29.1491 69.1796 -0.0026 0.0000 0.0000
# 4 4.4341 -4.4353 -0.0026 19.2894 0.0000 0.0000
# 5 0.0000 0.0000 0.0000 0.0000 19.2817 4.4335
# 6 0.0000 0.0000 0.0000 0.0000 4.4335 38.6985
#
#
#
# Elastic Compliance Matrix: (Units=1/GPa)
#
#
# Indices 1 2 3 4 5 6 
#
# 1 0.010380 -0.002890 -0.003156 -0.003051 0.000000 0.000000
# 2 -0.002890 0.010380 -0.003156 0.003051 0.000000 0.000000
# 3 -0.003156 -0.003156 0.017115 0.000002 0.000000 0.000000
# 4 -0.003051 0.003051 0.000002 0.053245 0.000000 0.000000
# 5 0.000000 0.000000 0.000000 0.000000 0.053266 -0.006102
# 6 0.000000 0.000000 0.000000 0.000000 -0.006102 0.026540
#
#
# Mechanical properties :
#
#
# Convention : Reuss Voigt Hill
#
# Bulk Modulus (GPa) = 51.35830 55.76888 53.56359
# Shear Modulus (GPa) = 25.53369 29.18811 27.36090
#
# Velocity S-wave (km/s) = 3.57213 3.81921 3.69773
# Velocity P-wave (km/s) = 6.53292 6.87882 6.70810
#
# Compressibility (1/GPa) = 0.01947105
#
# Stress axis : x y z
#
# Youngs Moduli (GPa) = 96.33722 96.33876 58.42938
#
# Poissons Ratio (x) = 0.27841 0.18441
# Poissons Ratio (y) = 0.27841 0.18440
# Poissons Ratio (z) = 0.30405 0.30403
#
# Static dielectric constant tensor:
#      x y z
#    x 1.716180 0.000000 0.000000 
#    y 0.000000 1.716180 0.000000 
#    z 0.000000 0.000000 2.388150 
# 
# From -- ./inp_files/2553.got.cif
#   From: 2010.05.17/outbox.cif.g08.bks.cpg/sg165_2_cif.got.tgz:2553.got - 2010.05.20 11:02:39.
