data_PCOD9578746
_publ_section_title
;
Structure prediction by ZEFSAII (Michael W. Deem and Ramdas Pophale) SiO2 
 PCOD9578746
Probable space group: P -3 M 1
;
_chemical_formula_sum "Si O2"
_cell_formula_units_Z 72
_cell_length_a 17.692635
_cell_length_b 17.692635
_cell_length_c 18.766018
_cell_angle_alpha 90.000000
_cell_angle_beta 90.000000
_cell_angle_gamma 120.000000
_cell_volume 5087.305242
_symmetry_space_group_name_H-M "P -3 M 1"
_symmetry_group_IT_number 164
_symmetry_cell_setting 'hexagonal'
loop_
_space_group_symop_operation_xyz
x,y,z
-y,x-y,z
-x+y,-x,z
x-y,-y,-z
-x,-x+y,-z
y,x,-z
-x,-y,-z
y,-x+y,-z
x-y,x,-z
-x+y,y,z
x,x-y,z
-y,-x,z
loop_
_atom_site_type_symbol
_atom_site_label
_atom_site_fract_x
_atom_site_fract_y
_atom_site_fract_z
Si Si1 0.729971 0.635402 0.970722
Si Si2 0.427024 0.032828 0.836240
Si Si3 0.023403 0.603477 0.322780
Si Si4 0.845779 0.333158 0.553574
Si Si5 0.667028 0.512499 0.388663
Si Si6 0.667859 0.509366 0.105380
O O1 0.830994 0.661988 0.965260
O O2 0.678901 0.600684 0.896381
O O3 0.709404 0.709404 0.000000
O O4 0.686515 0.557127 0.028662
O O5 0.526713 0.053426 0.846396
O O6 0.414171 0.054792 0.755817
O O7 0.367619 0.927974 0.846499
O O8 0.021741 0.510871 0.323822
O O9 0.085257 0.658337 0.387513
O O10 0.924518 0.577739 0.338974
O O11 0.831812 0.415906 0.563204
O O12 0.755207 0.244794 0.562673
O O13 0.874174 0.337330 0.471381
O O14 0.756656 0.513311 0.377293
O O15 0.585143 0.414858 0.378479
O O16 0.757352 0.514704 0.129758
O O17 0.590023 0.409978 0.100359
#
# Coordination Sequence:
#
# PCOD9578746 Si02
#       6
#    12  12  12  12  12  12
#     4   9  17  29  45  62  79 101 129 161 195 232
#     4   9  17  28  40  56  80 108 134 159 191 231
#     4   9  17  27  38  54  78 106 133 162 197 233
#     4   9  16  26  40  56  74  99 133 170 203 234
#     4   9  16  26  40  57  77 103 135 167 196 227
#     4   9  16  26  41  60  81 105 133 163 192 223
#
# _framework density 14.152877
#
# number of rings (size 3 to 8) (size 9 to 14) (size 15 to 20)
#    0.000    3.000    0.000    1.500    0.000    6.667 
#    0.000    0.000    0.000    2.500    0.000    0.000 
#    0.000    0.000    0.000    0.500    0.000    7.500 
#
# Total GULP energy -400856.837864 kJ/mol
# GULP energy per Si atom -5567.456081 kJ/mol
# Density = 1.412066 g / cm^3
# Si number density = 14.152877 Si / 1000 Ang^3
#
#
#
# Elastic Constant Matrix: (Units=GPa)
#
#
# Indices 1 2 3 4 5 6 
#
# 1 42.7082 12.3190 14.4214 -3.0629 0.0000 0.0000
# 2 12.3190 42.7082 14.4214 3.0629 0.0000 0.0000
# 3 14.4214 14.4214 49.6013 0.0000 0.0000 0.0000
# 4 -3.0629 3.0629 0.0000 12.1188 0.0000 0.0000
# 5 0.0000 0.0000 0.0000 0.0000 12.1188 -3.0629
# 6 0.0000 0.0000 0.0000 0.0000 -3.0629 15.1946
#
#
#
# Elastic Compliance Matrix: (Units=1/GPa)
#
#
# Indices 1 2 3 4 5 6 
#
# 1 0.028057 -0.006616 -0.006234 0.008763 0.000000 0.000000
# 2 -0.006616 0.028057 -0.006234 -0.008763 0.000000 0.000000
# 3 -0.006234 -0.006234 0.023786 0.000000 0.000000 0.000000
# 4 0.008763 -0.008763 0.000000 0.086946 0.000000 0.000000
# 5 0.000000 0.000000 0.000000 0.000000 0.086946 0.017526
# 6 0.000000 0.000000 0.000000 0.000000 0.017526 0.069346
#
#
# Mechanical properties :
#
#
# Convention : Reuss Voigt Hill
#
# Bulk Modulus (GPa) = 23.96277 24.14902 24.05590
# Shear Modulus (GPa) = 13.32575 14.14352 13.73464
#
# Velocity S-wave (km/s) = 3.07181 3.16466 3.11858
# Velocity P-wave (km/s) = 5.43594 5.51847 5.47736
#
# Compressibility (1/GPa) = 0.04173141
#
# Stress axis : x y z
#
# Youngs Moduli (GPa) = 35.64231 35.64231 42.04228
#
# Poissons Ratio (x) = 0.23582 0.26208
# Poissons Ratio (y) = 0.23582 0.26208
# Poissons Ratio (z) = 0.22218 0.22218
#
# Static dielectric constant tensor:
#      x y z
#    x 1.448860 0.000000 0.000000 
#    y 0.000000 1.448860 0.000000 
#    z 0.000000 0.000000 1.490020 
# 
# From -- ./inp_files/4059.got.cif
#   From: 2010.05.17/outbox.cif.g08.bks.cpg/sg164_3_cif.got.tgz:4059.got - 2010.05.20 10:58:56.
