data_PCOD9578697
_publ_section_title
;
Structure prediction by ZEFSAII (Michael W. Deem and Ramdas Pophale) SiO2 
 PCOD9578697
Probable space group: P -3 M 1
;
_chemical_formula_sum "Si O2"
_cell_formula_units_Z 84
_cell_length_a 18.764569
_cell_length_b 18.764569
_cell_length_c 13.899404
_cell_angle_alpha 90.000000
_cell_angle_beta 90.000000
_cell_angle_gamma 120.000000
_cell_volume 4238.420068
_symmetry_space_group_name_H-M "P -3 M 1"
_symmetry_group_IT_number 164
_symmetry_cell_setting 'hexagonal'
loop_
_space_group_symop_operation_xyz
x,y,z
-y,x-y,z
-x+y,-x,z
x-y,-y,-z
-x,-x+y,-z
y,x,-z
-x,-y,-z
y,-x+y,-z
x-y,x,-z
-x+y,y,z
x,x-y,z
-y,-x,z
loop_
_atom_site_type_symbol
_atom_site_label
_atom_site_fract_x
_atom_site_fract_y
_atom_site_fract_z
Si Si1 0.505891 0.332931 0.172602
Si Si2 0.000523 0.165864 0.385497
Si Si3 0.999275 0.845088 0.115377
Si Si4 0.957897 0.657424 0.690030
Si Si5 0.173200 0.505523 0.406296
Si Si6 0.697592 0.029553 0.109689
Si Si7 0.631288 0.101796 0.381888
O O1 0.531693 0.265847 0.149703
O O2 0.576209 0.423791 0.143178
O O3 0.417965 0.306149 0.126096
O O4 0.494382 0.335309 0.287836
O O5 0.070311 0.140622 0.370226
O O6 0.029159 0.252458 0.332192
O O7 0.000000 0.181341 0.500000
O O8 0.909286 0.090715 0.360870
O O9 0.935916 0.871831 0.153854
O O10 0.962885 0.748622 0.129633
O O11 0.092177 0.907824 0.148202
O O12 0.000000 0.852687 0.000000
O O13 0.876136 0.579583 0.651182
O O14 0.968609 0.645462 0.803402
O O15 0.031183 0.653594 0.633666
O O16 0.269380 0.538760 0.395678
O O17 0.151717 0.575859 0.377713
O O18 0.148590 0.484441 0.518362
O O19 0.673899 0.000000 0.000000
O O20 0.532912 0.065823 0.382490
#
# Coordination Sequence:
#
# PCOD9578697 Si02
#       7
#    12  12  12  12  12  12  12
#     4  10  20  36  60  89 118 147 184 232 287 344
#     4  10  21  37  57  83 117 155 192 231 279 337
#     4   9  17  31  53  80 108 138 175 222 277 336
#     4  11  22  36  59  85 111 147 195 243 284 329
#     4  11  22  37  58  86 122 158 190 225 273 336
#     4  10  23  41  59  79 110 150 195 242 293 345
#     4   9  19  35  57  87 120 150 179 221 280 342
#
# _framework density 19.818705000000001
#
# number of rings (size 3 to 8) (size 9 to 14) (size 15 to 20)
#    0.000    2.000    0.000    3.571    0.000    9.429 
#    0.000    1.429    0.000    1.714    0.000    2.000 
#    0.000    0.000    0.000    0.000    0.000    0.000 
#
# Total GULP energy -468743.417028 kJ/mol
# GULP energy per Si atom -5580.278774 kJ/mol
# Density = 1.977360 g / cm^3
# Si number density = 19.818705 Si / 1000 Ang^3
#
#
#
# Elastic Constant Matrix: (Units=GPa)
#
#
# Indices 1 2 3 4 5 6 
#
# 1 109.8335 61.2870 21.3718 9.3978 0.0000 0.0000
# 2 61.2870 109.8335 21.3718 -9.3978 0.0000 0.0000
# 3 21.3718 21.3718 94.0846 0.0000 0.0000 0.0000
# 4 9.3978 -9.3978 0.0000 3.5094 0.0000 0.0000
# 5 0.0000 0.0000 0.0000 0.0000 3.5094 9.3978
# 6 0.0000 0.0000 0.0000 0.0000 9.3978 24.2732
#
#
#
# Elastic Compliance Matrix: (Units=1/GPa)
#
#
# Indices 1 2 3 4 5 6 
#
# 1 -0.276858 0.283054 -0.001407 1.499373 0.000000 0.000000
# 2 0.283054 -0.276858 -0.001407 -1.499373 0.000000 0.000000
# 3 -0.001407 -0.001407 0.011268 0.000000 0.000000 0.000000
# 4 1.499373 -1.499373 0.000000 -7.745313 0.000000 0.000000
# 5 0.000000 0.000000 0.000000 0.000000 -7.745313 2.998747
# 6 0.000000 0.000000 0.000000 0.000000 2.998747 -1.119825
#
#
# Mechanical properties :
#
#
# Convention : Reuss Voigt Hill
#
# Bulk Modulus (GPa) = 55.46440 57.97919 56.72179
# Shear Modulus (GPa) = -0.28237 20.23981 9.97872
#
# Velocity S-wave (km/s) = -0.37787 3.19916 2.24632
# Velocity P-wave (km/s) = 5.27790 6.55473 5.95066
#
# Compressibility (1/GPa) = 0.01802958
#
# Stress axis : x y z
#
# Youngs Moduli (GPa) = -3.61195 -3.61195 88.74620
#
# Poissons Ratio (x) = 1.02238 0.12489
# Poissons Ratio (y) = 1.02238 0.12489
# Poissons Ratio (z) = -0.00508 -0.00508
#
# Static dielectric constant tensor:
#      x y z
#    x 1.687750 0.000000 0.000000 
#    y 0.000000 1.687750 0.000000 
#    z 0.000000 0.000000 1.713930 
# 
# From -- ./inp_files/3597.got.cif
#   From: 2010.05.17/outbox.cif.g08.bks.cpg/sg164_2_cif.got.tgz:3597.got - 2010.05.20 10:58:56.
