data_PCOD9578595
_publ_section_title
;
Structure prediction by ZEFSAII (Michael W. Deem and Ramdas Pophale) SiO2 
 PCOD9578595
Probable space group: P -3 M 1
;
_chemical_formula_sum "Si O2"
_cell_formula_units_Z 60
_cell_length_a 12.835650
_cell_length_b 12.835650
_cell_length_c 26.116486
_cell_angle_alpha 90.000000
_cell_angle_beta 90.000000
_cell_angle_gamma 120.000000
_cell_volume 3726.328225
_symmetry_space_group_name_H-M "P -3 M 1"
_symmetry_group_IT_number 164
_symmetry_cell_setting 'hexagonal'
loop_
_space_group_symop_operation_xyz
x,y,z
-y,x-y,z
-x+y,-x,z
x-y,-y,-z
-x,-x+y,-z
y,x,-z
-x,-y,-z
y,-x+y,-z
x-y,x,-z
-x+y,y,z
x,x-y,z
-y,-x,z
loop_
_atom_site_type_symbol
_atom_site_label
_atom_site_fract_x
_atom_site_fract_y
_atom_site_fract_z
Si Si1 0.753417 0.000017 0.857624
Si Si2 0.085088 0.666176 0.451383
Si Si3 0.245976 0.999803 0.740256
Si Si4 0.580962 0.914688 0.951702
Si Si5 0.666341 0.085642 0.354243
O O1 0.874148 0.125853 0.866437
O O2 0.713534 0.998492 0.798899
O O3 0.781195 0.890598 0.862101
O O4 0.653931 0.975509 0.899846
O O5 0.114854 0.557427 0.452860
O O6 0.206078 0.793923 0.452537
O O7 0.000000 0.645989 0.500000
O O8 0.007312 0.647247 0.400355
O O9 0.254550 0.127275 0.730803
O O10 0.318236 0.970281 0.698434
O O11 0.107386 0.892615 0.736454
O O12 0.448345 0.896690 0.949040
O O13 0.575933 0.787967 0.957715
O O14 0.647147 0.000000 0.000000
O O15 0.553706 0.107412 0.351575
O O16 0.789297 0.210704 0.363364
#
# Coordination Sequence:
#
# PCOD9578595 Si02
#       5
#    12  12  12  12  12
#     4   9  17  30  49  72  96 122 154 194 239 285
#     4  10  20  34  53  75  99 128 162 200 241 286
#     4   9  17  30  49  72  97 125 157 194 237 284
#     4  10  20  33  49  69  94 125 160 197 238 284
#     4  10  20  33  50  72  99 131 165 201 240 283
#
# _framework density 16.101641999999998
#
# number of rings (size 3 to 8) (size 9 to 14) (size 15 to 20)
#    0.000    2.400    0.000    2.800    0.000    2.400 
#    0.000    2.000    0.000   11.200    0.000    0.000 
#    0.000    0.000    0.000    0.000    0.000    0.000 
#
# Total GULP energy -334625.330424 kJ/mol
# GULP energy per Si atom -5577.088840 kJ/mol
# Density = 1.606499 g / cm^3
# Si number density = 16.101642 Si / 1000 Ang^3
#
#
#
# Elastic Constant Matrix: (Units=GPa)
#
#
# Indices 1 2 3 4 5 6 
#
# 1 107.7071 70.4283 81.8842 -0.1901 0.0000 0.0000
# 2 70.4283 107.7071 81.8842 0.1901 0.0000 0.0000
# 3 81.8842 81.8842 132.6760 0.0000 0.0000 0.0000
# 4 -0.1901 0.1901 0.0000 25.3300 0.0000 0.0000
# 5 0.0000 0.0000 0.0000 0.0000 25.3300 -0.1901
# 6 0.0000 0.0000 0.0000 0.0000 -0.1901 18.6394
#
#
#
# Elastic Compliance Matrix: (Units=1/GPa)
#
#
# Indices 1 2 3 4 5 6 
#
# 1 0.019902 -0.006925 -0.008009 0.000201 0.000000 0.000000
# 2 -0.006925 0.019902 -0.008009 -0.000201 0.000000 0.000000
# 3 -0.008009 -0.008009 0.017423 0.000000 0.000000 0.000000
# 4 0.000201 -0.000201 0.000000 0.039482 0.000000 0.000000
# 5 0.000000 0.000000 0.000000 0.000000 0.039482 0.000403
# 6 0.000000 0.000000 0.000000 0.000000 0.000403 0.053654
#
#
# Mechanical properties :
#
#
# Convention : Reuss Voigt Hill
#
# Bulk Modulus (GPa) = 88.17762 90.72040 89.44901
# Shear Modulus (GPa) = 20.87594 21.45276 21.16435
#
# Velocity S-wave (km/s) = 3.60461 3.65407 3.62943
# Velocity P-wave (km/s) = 8.49743 8.61787 8.55786
#
# Compressibility (1/GPa) = 0.01134075
#
# Stress axis : x y z
#
# Youngs Moduli (GPa) = 50.24676 50.24676 57.39596
#
# Poissons Ratio (x) = 0.34797 0.45967
# Poissons Ratio (y) = 0.34797 0.45967
# Poissons Ratio (z) = 0.40242 0.40242
#
# Static dielectric constant tensor:
#      x y z
#    x 1.507780 0.000000 0.000000 
#    y 0.000000 1.507780 0.000000 
#    z 0.000000 0.000000 1.537610 
# 
# From -- ./inp_files/5173.got.cif
#   From: 2010.05.17/outbox.cif.g08.bks.cpg/sg164_3_cif.got.tgz:5173.got - 2010.05.20 10:58:56.
