data_PCOD9578281
_publ_section_title
;
Structure prediction by ZEFSAII (Michael W. Deem and Ramdas Pophale) SiO2 
 PCOD9578281
Probable space group: P -3 1 C
;
_chemical_formula_sum "Si O2"
_cell_formula_units_Z 48
_cell_length_a 11.765975
_cell_length_b 11.765975
_cell_length_c 19.128823
_cell_angle_alpha 90.000000
_cell_angle_beta 90.000000
_cell_angle_gamma 120.000000
_cell_volume 2293.373146
_symmetry_space_group_name_H-M "P -3 1 C"
_symmetry_group_IT_number 163
_symmetry_cell_setting 'hexagonal'
loop_
_space_group_symop_operation_xyz
x,y,z
-y,x-y,z
-x+y,-x,z
-y,-x,1/2-z
-x+y,y,1/2-z
x,x-y,1/2-z
-x,-y,-z
y,-x+y,-z
x-y,x,-z
y,x,1/2+z
x-y,-y,1/2+z
-x,-x+y,1/2+z
loop_
_atom_site_type_symbol
_atom_site_label
_atom_site_fract_x
_atom_site_fract_y
_atom_site_fract_z
Si Si1 0.470741 0.959806 0.826661
Si Si2 0.666668 0.333335 0.161732
Si Si3 0.333334 0.666668 0.002881
Si Si4 0.000000 0.000000 0.915751
Si Si5 0.012293 0.743755 0.090988
Si Si6 0.595942 0.690461 0.056453
O O1 0.513047 0.026093 0.750000
O O2 0.437092 0.811582 0.816670
O O3 0.343620 0.963198 0.857376
O O4 0.580803 0.012567 0.886657
O O5 0.666668 0.333334 0.079022
O O6 0.453042 0.650983 0.028274
O O7 0.031740 0.147328 0.895249
O O8 0.000000 0.000000 0.000000
O O9 0.169307 0.826589 0.093379
O O10 0.976260 0.686039 0.011472
#
# Coordination Sequence:
#
# PCOD9578281 Si02
#       6
#    12   4   4   4  12  12
#     4  12  28  45  68 100 143 189 232 282 344 418
#     4  12  25  46  69  97 136 178 236 289 334 409
#     4  12  21  40  74 106 129 169 242 289 339 403
#     4  12  24  42  75 114 142 174 231 300 364 423
#     4  12  24  44  74 104 142 181 229 292 356 420
#     4  12  23  43  71 106 135 176 233 291 351 406
#
# _framework density 20.929869
#
# number of rings (size 3 to 8) (size 9 to 14) (size 15 to 20)
#    0.000    0.000    7.500    3.000    3.500    1.000 
#    0.000    0.000    0.000    0.000    0.000    0.000 
#    0.000    0.000    0.000    0.000    0.000    0.000 
#
# Total GULP energy -268256.050264 kJ/mol
# GULP energy per Si atom -5588.667714 kJ/mol
# Density = 2.088223 g / cm^3
# Si number density = 20.929869 Si / 1000 Ang^3
#
#
#
# Elastic Constant Matrix: (Units=GPa)
#
#
# Indices 1 2 3 4 5 6 
#
# 1 119.0645 -4.5930 31.6609 -0.0007 -33.7092 0.0011
# 2 -4.5930 119.0656 31.6614 0.0026 33.7103 -0.0002
# 3 31.6609 31.6614 89.3924 0.0014 0.0008 0.0004
# 4 -0.0007 0.0026 0.0014 43.6135 0.0047 33.7118
# 5 -33.7092 33.7103 0.0008 0.0047 43.6082 0.0018
# 6 0.0011 -0.0002 0.0004 33.7118 0.0018 61.8283
#
#
#
# Elastic Compliance Matrix: (Units=1/GPa)
#
#
# Indices 1 2 3 4 5 6 
#
# 1 0.012421 -0.001557 -0.003848 -0.000001 0.010805 0.000000
# 2 -0.001557 0.012421 -0.003848 0.000000 -0.010805 0.000000
# 3 -0.003848 -0.003848 0.013912 0.000000 0.000000 0.000000
# 4 -0.000001 0.000000 0.000000 0.039632 -0.000004 -0.021609
# 5 0.010805 -0.010805 0.000000 -0.000004 0.039636 0.000001
# 6 0.000000 0.000000 0.000000 -0.021609 0.000001 0.027956
#
#
# Mechanical properties :
#
#
# Convention : Reuss Voigt Hill
#
# Bulk Modulus (GPa) = 49.38457 49.44234 49.41345
# Shear Modulus (GPa) = 29.19980 47.72954 38.46467
#
# Velocity S-wave (km/s) = 3.73919 4.78059 4.29159
# Velocity P-wave (km/s) = 6.50296 7.35841 6.94387
#
# Compressibility (1/GPa) = 0.02024924
#
# Stress axis : x y z
#
# Youngs Moduli (GPa) = 80.50826 80.50819 71.87850
#
# Poissons Ratio (x) = 0.12533 0.27659
# Poissons Ratio (y) = 0.12533 0.27658
# Poissons Ratio (z) = 0.30980 0.30979
#
# Static dielectric constant tensor:
#      x y z
#    x 1.769330 0.000000 0.000000 
#    y 0.000000 1.769330 0.000000 
#    z 0.000000 0.000000 1.871570 
# 
# From -- ./inp_files/3481.got.cif
#   From: 2010.05.17/outbox.cif.g08.bks.cpg/sg163_2_cif.got.tgz:3481.got - 2010.05.20 10:56:03.
