data_PCOD9578386
_publ_section_title
;
Structure prediction by ZEFSAII (Michael W. Deem and Ramdas Pophale) SiO2 
 PCOD9578386
Probable space group: P -3 M 1
;
_chemical_formula_sum "Si O2"
_cell_formula_units_Z 54
_cell_length_a 17.838576
_cell_length_b 17.838576
_cell_length_c 12.585560
_cell_angle_alpha 90.000000
_cell_angle_beta 90.000000
_cell_angle_gamma 120.000000
_cell_volume 3468.354994
_symmetry_space_group_name_H-M "P -3 M 1"
_symmetry_group_IT_number 164
_symmetry_cell_setting 'hexagonal'
loop_
_space_group_symop_operation_xyz
x,y,z
-y,x-y,z
-x+y,-x,z
x-y,-y,-z
-x,-x+y,-z
y,x,-z
-x,-y,-z
y,-x+y,-z
x-y,x,-z
-x+y,y,z
x,x-y,z
-y,-x,z
loop_
_atom_site_type_symbol
_atom_site_label
_atom_site_fract_x
_atom_site_fract_y
_atom_site_fract_z
Si Si1 0.000000 0.821580 0.000000
Si Si2 0.937326 0.238163 0.795434
Si Si3 0.235317 0.300750 0.598544
Si Si4 0.840576 0.333174 0.741141
Si Si5 0.365915 0.470053 0.504190
O O1 0.975486 0.756347 0.900668
O O2 0.915551 0.831102 0.021908
O O3 0.853169 0.146832 0.762296
O O4 0.900580 0.304431 0.804305
O O5 0.008921 0.274485 0.704209
O O6 0.258986 0.258986 0.500000
O O7 0.135047 0.270093 0.601148
O O8 0.288360 0.404495 0.578532
O O9 0.854528 0.427264 0.766907
O O10 0.741600 0.258401 0.757155
O O11 0.862475 0.334375 0.615293
O O12 0.423833 0.423833 0.500000
O O13 0.431019 0.568982 0.538290
#
# Coordination Sequence:
#
# PCOD9578386 Si02
#       5
#     6  12  12  12  12
#     4  10  21  38  57  74  92 122 166 212 251 288
#     4  10  20  34  51  71  97 128 162 202 245 289
#     4  11  19  29  47  71  98 127 158 193 241 296
#     4  10  18  30  48  73 102 132 164 199 238 284
#     4   9  16  26  43  67  96 130 163 192 227 275
#
# _framework density 15.56934
#
# number of rings (size 3 to 8) (size 9 to 14) (size 15 to 20)
#    0.000    2.000    4.444    2.333    0.000    0.000 
#    0.000    0.556    0.000    5.778    0.000    0.000 
#    0.000    0.000    0.000    0.000    0.000    0.000 
#
# Total GULP energy -300730.029233 kJ/mol
# GULP energy per Si atom -5569.074615 kJ/mol
# Density = 1.553390 g / cm^3
# Si number density = 15.569340 Si / 1000 Ang^3
#
#
#
# Elastic Constant Matrix: (Units=GPa)
#
#
# Indices 1 2 3 4 5 6 
#
# 1 108.5841 61.7484 44.6059 -0.5557 0.0000 0.0000
# 2 61.7484 108.5841 44.6059 0.5557 0.0000 0.0000
# 3 44.6059 44.6059 56.5226 0.0000 0.0000 0.0000
# 4 -0.5557 0.5557 0.0000 20.1922 0.0000 0.0000
# 5 0.0000 0.0000 0.0000 0.0000 20.1922 -0.5557
# 6 0.0000 0.0000 0.0000 0.0000 -0.5557 23.4178
#
#
#
# Elastic Compliance Matrix: (Units=1/GPa)
#
#
# Indices 1 2 3 4 5 6 
#
# 1 0.015686 -0.005679 -0.007897 0.000588 0.000000 0.000000
# 2 -0.005679 0.015686 -0.007897 -0.000588 0.000000 0.000000
# 3 -0.007897 -0.007897 0.030157 0.000000 0.000000 0.000000
# 4 0.000588 -0.000588 0.000000 0.049557 0.000000 0.000000
# 5 0.000000 0.000000 0.000000 0.000000 0.049557 0.001176
# 6 0.000000 0.000000 0.000000 0.000000 0.001176 0.042730
#
#
# Mechanical properties :
#
#
# Convention : Reuss Voigt Hill
#
# Bulk Modulus (GPa) = 53.81650 63.95680 58.88665
# Shear Modulus (GPa) = 19.80091 20.94246 20.37168
#
# Velocity S-wave (km/s) = 3.57008 3.67155 3.62117
# Velocity P-wave (km/s) = 7.18573 7.69036 7.44232
#
# Compressibility (1/GPa) = 0.01858166
#
# Stress axis : x y z
#
# Youngs Moduli (GPa) = 63.75050 63.75050 33.16017
#
# Poissons Ratio (x) = 0.36204 0.26188
# Poissons Ratio (y) = 0.36204 0.26188
# Poissons Ratio (z) = 0.50346 0.50346
#
# Static dielectric constant tensor:
#      x y z
#    x 1.543030 0.000000 0.000000 
#    y 0.000000 1.543030 0.000000 
#    z 0.000000 0.000000 1.487130 
# 
# From -- ./inp_files/2582.got.cif
#   From: 2010.05.17/outbox.cif.g08.bks.cpg/sg164_2_cif.got.tgz:2582.got - 2010.05.20 10:58:56.
