data_PCOD9578297
_publ_section_title
;
Structure prediction by ZEFSAII (Michael W. Deem and Ramdas Pophale) SiO2 
 PCOD9578297
Probable space group: P -3 1 C
;
_chemical_formula_sum "Si O2"
_cell_formula_units_Z 72
_cell_length_a 17.441121
_cell_length_b 17.441121
_cell_length_c 18.435854
_cell_angle_alpha 90.000000
_cell_angle_beta 90.000000
_cell_angle_gamma 120.000000
_cell_volume 4856.715703
_symmetry_space_group_name_H-M "P -3 1 C"
_symmetry_group_IT_number 163
_symmetry_cell_setting 'hexagonal'
loop_
_space_group_symop_operation_xyz
x,y,z
-y,x-y,z
-x+y,-x,z
-y,-x,1/2-z
-x+y,y,1/2-z
x,x-y,1/2-z
-x,-y,-z
y,-x+y,-z
x-y,x,-z
y,x,1/2+z
x-y,-y,1/2+z
-x,-x+y,1/2+z
loop_
_atom_site_type_symbol
_atom_site_label
_atom_site_fract_x
_atom_site_fract_y
_atom_site_fract_z
Si Si1 0.369719 0.272915 0.027413
Si Si2 0.667826 0.156026 0.613226
Si Si3 0.571290 0.610479 0.831779
Si Si4 0.727085 0.630281 0.027413
Si Si5 0.332174 0.843974 0.113226
Si Si6 0.389521 0.960811 0.668221
O O1 0.403507 0.317870 0.105474
O O2 0.340453 0.170226 0.028852
O O3 0.295570 0.295570 1.000000
O O4 0.448730 0.318800 0.968289
O O5 0.635531 0.066742 0.659103
O O6 0.681200 0.129929 0.531711
O O7 0.760177 0.239823 0.636659
O O8 0.589089 0.178178 0.614974
O O9 0.577794 0.643892 0.750000
O O10 0.472460 0.527540 0.843348
O O11 0.682130 0.596493 0.105474
O O12 0.364469 0.933258 0.159103
#
# Coordination Sequence:
#
# PCOD9578297 Si02
#       6
#    12  12  12  12  12  12
#     4   9  17  29  45  63  82 106 139 178 217 256
#     4   9  16  26  41  61  85 113 143 172 201 235
#     4   9  17  28  41  59  85 114 141 170 204 242
#     4   9  17  29  45  63  82 106 139 178 217 256
#     4   9  16  26  41  61  85 113 143 172 201 235
#     4   9  17  28  41  59  85 114 141 170 204 242
#
# _framework density 14.824832000000001
#
# number of rings (size 3 to 8) (size 9 to 14) (size 15 to 20)
#    0.000    3.000    0.000    1.333    0.000    5.333 
#    0.000    0.000    0.000    3.000    0.000    0.000 
#    0.000    0.000    0.000    1.000    0.000    0.000 
#
# Total GULP energy -400988.485118 kJ/mol
# GULP energy per Si atom -5569.284516 kJ/mol
# Density = 1.479109 g / cm^3
# Si number density = 14.824832 Si / 1000 Ang^3
#
#
#
# Elastic Constant Matrix: (Units=GPa)
#
#
# Indices 1 2 3 4 5 6 
#
# 1 40.7839 6.8628 12.8402 0.0000 0.0000 0.0000
# 2 6.8628 40.7839 12.8402 0.0000 0.0000 0.0000
# 3 12.8402 12.8402 82.9021 0.0000 0.0000 0.0000
# 4 0.0000 0.0000 0.0000 9.6759 0.0000 0.0000
# 5 0.0000 0.0000 0.0000 0.0000 9.6759 0.0000
# 6 0.0000 0.0000 0.0000 0.0000 0.0000 16.9606
#
#
#
# Elastic Compliance Matrix: (Units=1/GPa)
#
#
# Indices 1 2 3 4 5 6 
#
# 1 0.026190 -0.003290 -0.003547 0.000000 0.000000 0.000000
# 2 -0.003290 0.026190 -0.003547 0.000000 0.000000 0.000000
# 3 -0.003547 -0.003547 0.013161 0.000000 0.000000 0.000000
# 4 0.000000 0.000000 0.000000 0.103349 0.000000 0.000000
# 5 0.000000 0.000000 0.000000 0.000000 0.103349 0.000000
# 6 0.000000 0.000000 0.000000 0.000000 0.000000 0.058960
#
#
# Mechanical properties :
#
#
# Convention : Reuss Voigt Hill
#
# Bulk Modulus (GPa) = 22.33494 25.50627 23.92060
# Shear Modulus (GPa) = 13.62801 16.05760 14.84281
#
# Velocity S-wave (km/s) = 3.03523 3.29470 3.16763
# Velocity P-wave (km/s) = 5.23279 5.63169 5.43590
#
# Compressibility (1/GPa) = 0.04477290
#
# Stress axis : x y z
#
# Youngs Moduli (GPa) = 38.18284 38.18284 75.98154
#
# Poissons Ratio (x) = 0.12564 0.26949
# Poissons Ratio (y) = 0.12564 0.26949
# Poissons Ratio (z) = 0.13543 0.13543
#
# Static dielectric constant tensor:
#      x y z
#    x 1.473230 0.000000 0.000000 
#    y 0.000000 1.473230 0.000000 
#    z 0.000000 0.000000 1.501010 
# 
# From -- ./inp_files/3202.got.cif
#   From: 2010.05.17/outbox.cif.g08.bks.cpg/sg163_2_cif.got.tgz:3202.got - 2010.05.20 10:56:03.
