data_PCOD9578971
_publ_section_title
;
Structure prediction by ZEFSAII (Michael W. Deem and Ramdas Pophale) SiO2 
 PCOD9578971
Probable space group: P -3 C 1
;
_chemical_formula_sum "Si O2"
_cell_formula_units_Z 72
_cell_length_a 22.241396
_cell_length_b 22.241396
_cell_length_c 9.932544
_cell_angle_alpha 90.000000
_cell_angle_beta 90.000000
_cell_angle_gamma 120.000000
_cell_volume 4255.153335
_symmetry_space_group_name_H-M "P -3 C 1"
_symmetry_group_IT_number 165
_symmetry_cell_setting 'hexagonal'
loop_
_space_group_symop_operation_xyz
x,y,z
-y,x-y,z
-x+y,-x,z
x-y,-y,1/2-z
-x,-x+y,1/2-z
y,x,1/2-z
-x,-y,-z
y,-x+y,-z
x-y,x,-z
-x+y,y,1/2+z
x,x-y,1/2+z
-y,-x,1/2+z
loop_
_atom_site_type_symbol
_atom_site_label
_atom_site_fract_x
_atom_site_fract_y
_atom_site_fract_z
Si Si1 0.147272 0.147272 0.250000
Si Si2 0.869142 0.241589 0.385559
Si Si3 0.507670 0.915127 0.906488
Si Si4 0.772182 0.001550 0.986712
Si Si5 0.000000 0.136518 0.250000
Si Si6 0.378362 0.250980 0.562504
Si Si7 0.483928 0.082118 0.402726
O O1 0.197734 0.186217 0.124274
O O2 0.135071 0.070433 0.276952
O O3 0.929710 0.227567 0.436678
O O4 0.801400 0.189879 0.468610
O O5 0.862604 0.232788 0.222915
O O6 0.890340 0.320609 0.419545
O O7 0.555809 0.883724 0.948503
O O8 0.489029 0.900425 0.749796
O O9 0.557556 0.998529 0.916958
O O10 0.439786 0.892380 0.995028
O O11 0.813024 0.983656 0.875970
O O12 0.692469 0.940061 0.987183
#
# Coordination Sequence:
#
# PCOD9578971 Si02
#       7
#     6  12  12  12   6  12  12
#     4  12  27  40  60  82 101 148 204 254 304 362
#     4  11  22  38  59  85 119 155 191 235 288 345
#     4   9  18  35  56  82 114 146 178 221 274 327
#     4  12  24  40  56  82 115 148 191 246 310 349
#     4  12  23  44  60  74 109 146 196 256 304 364
#     4  11  22  38  59  85 119 155 191 235 288 345
#     4   9  18  35  56  82 114 146 178 221 274 327
#
# _framework density 16.920658
#
# number of rings (size 3 to 8) (size 9 to 14) (size 15 to 20)
#    0.000    1.333    3.333    3.167    2.333    1.333 
#    0.000    1.667    0.000    0.667    0.000    0.000 
#    0.000    0.000    0.000    0.000    0.000    0.000 
#
# Total GULP energy -401933.846959 kJ/mol
# GULP energy per Si atom -5582.414541 kJ/mol
# Density = 1.688215 g / cm^3
# Si number density = 16.920658 Si / 1000 Ang^3
#
#
#
# Elastic Constant Matrix: (Units=GPa)
#
#
# Indices 1 2 3 4 5 6 
#
# 1 63.3050 21.7658 22.1452 1.4726 0.0000 0.0000
# 2 21.7658 63.3050 22.1452 -1.4726 0.0000 0.0000
# 3 22.1452 22.1452 48.3463 0.0000 0.0000 0.0000
# 4 1.4726 -1.4726 0.0000 29.8274 0.0000 0.0000
# 5 0.0000 0.0000 0.0000 0.0000 29.8274 1.4726
# 6 0.0000 0.0000 0.0000 0.0000 1.4726 20.7696
#
#
#
# Elastic Compliance Matrix: (Units=1/GPa)
#
#
# Indices 1 2 3 4 5 6 
#
# 1 0.019797 -0.004361 -0.007071 -0.001193 0.000000 0.000000
# 2 -0.004361 0.019797 -0.007071 0.001193 0.000000 0.000000
# 3 -0.007071 -0.007071 0.027161 0.000000 0.000000 0.000000
# 4 -0.001193 0.001193 0.000000 0.033644 0.000000 0.000000
# 5 0.000000 0.000000 0.000000 0.000000 0.033644 -0.002385
# 6 0.000000 0.000000 0.000000 0.000000 -0.002385 0.048316
#
#
# Mechanical properties :
#
#
# Convention : Reuss Voigt Hill
#
# Bulk Modulus (GPa) = 33.61186 34.11877 33.86531
# Shear Modulus (GPa) = 21.80725 23.34487 22.57606
#
# Velocity S-wave (km/s) = 3.59387 3.71842 3.65667
# Velocity P-wave (km/s) = 6.09334 6.21637 6.15516
#
# Compressibility (1/GPa) = 0.02975140
#
# Stress axis : x y z
#
# Youngs Moduli (GPa) = 50.51240 50.51240 36.81690
#
# Poissons Ratio (x) = 0.22029 0.26031
# Poissons Ratio (y) = 0.22029 0.26031
# Poissons Ratio (z) = 0.35715 0.35715
#
# Static dielectric constant tensor:
#      x y z
#    x 1.623160 0.000000 0.000000 
#    y 0.000000 1.623160 0.000000 
#    z 0.000000 0.000000 1.589990 
# 
# From -- ./inp_files/791.got.cif
#   From: 2010.05.17/outbox.cif.g08.bks.cpg/sg165_1_cif.got.tgz:791.got - 2010.05.20 11:02:39.
