data_PCOD9578101
_publ_section_title
;
Structure prediction by ZEFSAII (Michael W. Deem and Ramdas Pophale) SiO2 
 PCOD9578101
Probable space group: P -3 1 C
;
_chemical_formula_sum "Si O2"
_cell_formula_units_Z 84
_cell_length_a 17.479341
_cell_length_b 17.479341
_cell_length_c 14.788382
_cell_angle_alpha 90.000000
_cell_angle_beta 90.000000
_cell_angle_gamma 120.000000
_cell_volume 3912.923903
_symmetry_space_group_name_H-M "P -3 1 C"
_symmetry_group_IT_number 163
_symmetry_cell_setting 'hexagonal'
loop_
_space_group_symop_operation_xyz
x,y,z
-y,x-y,z
-x+y,-x,z
-y,-x,1/2-z
-x+y,y,1/2-z
x,x-y,1/2-z
-x,-y,-z
y,-x+y,-z
x-y,x,-z
y,x,1/2+z
x-y,-y,1/2+z
-x,-x+y,1/2+z
loop_
_atom_site_type_symbol
_atom_site_label
_atom_site_fract_x
_atom_site_fract_y
_atom_site_fract_z
Si Si1 0.446372 0.078339 0.414976
Si Si2 0.982124 0.827623 0.528109
Si Si3 0.716732 0.785935 0.814725
Si Si4 0.324728 0.356831 0.318726
Si Si5 0.503861 0.496140 0.250000
Si Si6 0.456771 0.264066 0.934551
Si Si7 0.079411 0.705037 0.978591
Si Si8 0.723327 0.446653 0.750000
O O1 0.374713 0.100302 0.369301
O O2 0.501038 0.064331 0.335872
O O3 0.495752 0.149327 0.495190
O O4 0.382842 0.984634 0.464249
O O5 0.036702 0.835306 0.618279
O O6 0.900796 0.844875 0.537573
O O7 0.946666 0.727034 0.497271
O O8 0.710433 0.855217 0.750000
O O9 0.727809 0.712493 0.758681
O O10 0.401188 0.449317 0.279030
O O11 0.266449 0.372529 0.391483
O O12 0.377687 0.318816 0.374043
O O13 0.503461 0.258260 0.844102
O O14 0.433411 0.178595 0.991600
O O15 0.618817 0.381183 0.750000
#
# Coordination Sequence:
#
# PCOD9578101 Si02
#       8
#    12  12  12  12   6  12  12   6
#     4   9  21  38  60  95 121 165 211 261 331 375
#     4  11  22  38  58  82 124 170 216 260 320 376
#     4  10  20  38  60  87 128 161 216 275 315 379
#     4  10  22  38  62  96 122 161 212 264 329 376
#     4  10  22  37  58  92 130 152 204 276 318 390
#     4  11  23  40  68  90 126 167 214 260 328 398
#     4  10  21  40  62  92 119 166 210 265 318 384
#     4  10  28  45  60  98 130 170 200 258 338 402
#
# _framework density 21.467323
#
# number of rings (size 3 to 8) (size 9 to 14) (size 15 to 20)
#    0.143    1.714    0.000    4.429    7.000    3.429 
#    0.000    5.000    0.000    0.000    0.000    0.000 
#    5.714    0.000    0.000    0.000    0.000    0.000 
#
# Total GULP energy -468901.154502 kJ/mol
# GULP energy per Si atom -5582.156601 kJ/mol
# Density = 2.141846 g / cm^3
# Si number density = 21.467323 Si / 1000 Ang^3
#
#
#
# Elastic Constant Matrix: (Units=GPa)
#
#
# Indices 1 2 3 4 5 6 
#
# 1 49.3887 17.5033 14.2959 0.0000 -13.3471 0.0000
# 2 17.5033 49.3887 14.2959 0.0000 13.3471 0.0000
# 3 14.2959 14.2959 86.3082 0.0000 0.0000 0.0000
# 4 0.0000 0.0000 0.0000 22.7859 0.0000 13.3471
# 5 -13.3471 13.3471 0.0000 0.0000 22.7859 0.0000
# 6 0.0000 0.0000 0.0000 13.3471 0.0000 15.9427
#
#
#
# Elastic Compliance Matrix: (Units=1/GPa)
#
#
# Indices 1 2 3 4 5 6 
#
# 1 0.038815 -0.022727 -0.002665 0.000000 0.036049 0.000000
# 2 -0.022727 0.038815 -0.002665 0.000000 -0.036049 0.000000
# 3 -0.002665 -0.002665 0.012469 0.000000 0.000000 0.000000
# 4 0.000000 0.000000 0.000000 0.086119 0.000000 -0.072098
# 5 0.036049 -0.036049 0.000000 0.000000 0.086119 0.000000
# 6 0.000000 0.000000 0.000000 -0.072098 0.000000 0.123085
#
#
# Mechanical properties :
#
#
# Convention : Reuss Voigt Hill
#
# Bulk Modulus (GPa) = 29.42325 30.80846 30.11586
# Shear Modulus (GPa) = 11.04083 21.56895 16.30489
#
# Velocity S-wave (km/s) = 2.27030 3.17319 2.75893
# Velocity P-wave (km/s) = 4.53962 5.27333 4.92017
#
# Compressibility (1/GPa) = 0.03398672
#
# Stress axis : x y z
#
# Youngs Moduli (GPa) = 25.76298 25.76298 80.19768
#
# Poissons Ratio (x) = 0.58551 0.21372
# Poissons Ratio (y) = 0.58551 0.21372
# Poissons Ratio (z) = 0.06866 0.06866
#
# Static dielectric constant tensor:
#      x y z
#    x 1.797950 0.000000 0.000000 
#    y 0.000000 1.797950 0.000000 
#    z 0.000000 0.000000 1.668680 
# 
# From -- ./inp_files/2711.got.cif
#   From: 2010.05.17/outbox.cif.g08.bks.cpg/sg163_2_cif.got.tgz:2711.got - 2010.05.20 10:56:03.
