data_PCOD9578608
_publ_section_title
;
Structure prediction by ZEFSAII (Michael W. Deem and Ramdas Pophale) SiO2 
 PCOD9578608
Probable space group: P -3 M 1
;
_chemical_formula_sum "Si O2"
_cell_formula_units_Z 60
_cell_length_a 12.742098
_cell_length_b 12.742098
_cell_length_c 26.102907
_cell_angle_alpha 90.000000
_cell_angle_beta 90.000000
_cell_angle_gamma 120.000000
_cell_volume 3670.298529
_symmetry_space_group_name_H-M "P -3 M 1"
_symmetry_group_IT_number 164
_symmetry_cell_setting 'hexagonal'
loop_
_space_group_symop_operation_xyz
x,y,z
-y,x-y,z
-x+y,-x,z
x-y,-y,-z
-x,-x+y,-z
y,x,-z
-x,-y,-z
y,-x+y,-z
x-y,x,-z
-x+y,y,z
x,x-y,z
-y,-x,z
loop_
_atom_site_type_symbol
_atom_site_label
_atom_site_fract_x
_atom_site_fract_y
_atom_site_fract_z
Si Si1 0.582754 0.916420 0.049796
Si Si2 0.999796 0.751526 0.558167
Si Si3 0.333806 0.915756 0.654255
Si Si4 0.000598 0.751218 0.148707
Si Si5 0.666587 0.083474 0.752749
O O1 0.451299 0.902597 0.058118
O O2 0.571288 0.785644 0.042515
O O3 0.667944 0.977790 0.098880
O O4 0.640865 0.000000 0.000000
O O5 0.872747 0.745494 0.567476
O O6 0.000000 0.708745 0.500000
O O7 0.026903 0.680169 0.601564
O O8 0.109272 0.890729 0.560282
O O9 0.446800 0.893599 0.651268
O O10 0.209622 0.790379 0.662566
O O11 0.358944 0.006534 0.701359
O O12 0.109005 0.890996 0.149014
O O13 0.018859 0.689731 0.199180
O O14 0.871373 0.742745 0.147820
O O15 0.545964 0.091928 0.760864
O O16 0.783543 0.216458 0.748119
#
# Coordination Sequence:
#
# PCOD9578608 Si02
#       5
#    12  12  12  12  12
#     4  10  20  34  53  76 103 135 170 209 251 296
#     4   9  17  30  49  72  96 122 155 198 247 295
#     4  10  20  33  49  69  96 130 165 200 238 285
#     4  10  20  34  52  74 100 129 162 200 243 290
#     4  10  20  34  53  75  99 127 160 200 244 290
#
# _framework density 16.347445
#
# number of rings (size 3 to 8) (size 9 to 14) (size 15 to 20)
#    0.000    2.200    0.000    3.400    0.000    1.200 
#    0.000    2.000    0.000   15.600    0.000    0.000 
#    0.000    0.000    0.000    0.000    0.000    0.000 
#
# Total GULP energy -334818.379631 kJ/mol
# GULP energy per Si atom -5580.306327 kJ/mol
# Density = 1.631024 g / cm^3
# Si number density = 16.347445 Si / 1000 Ang^3
#
#
#
# Elastic Constant Matrix: (Units=GPa)
#
#
# Indices 1 2 3 4 5 6 
#
# 1 125.5506 86.8042 90.4797 1.6896 0.0000 0.0000
# 2 86.8042 125.5506 90.4797 -1.6896 0.0000 0.0000
# 3 90.4797 90.4797 142.1120 0.0000 0.0000 0.0000
# 4 1.6896 -1.6896 0.0000 26.0328 0.0000 0.0000
# 5 0.0000 0.0000 0.0000 0.0000 26.0328 1.6896
# 6 0.0000 0.0000 0.0000 0.0000 1.6896 19.3732
#
#
#
# Elastic Compliance Matrix: (Units=1/GPa)
#
#
# Indices 1 2 3 4 5 6 
#
# 1 0.018125 -0.007831 -0.006554 -0.001685 0.000000 0.000000
# 2 -0.007831 0.018125 -0.006554 0.001685 0.000000 0.000000
# 3 -0.006554 -0.006554 0.015382 0.000000 0.000000 0.000000
# 4 -0.001685 0.001685 0.000000 0.038632 0.000000 0.000000
# 5 0.000000 0.000000 0.000000 0.000000 0.038632 -0.003369
# 6 0.000000 0.000000 0.000000 0.000000 -0.003369 0.051912
#
#
# Mechanical properties :
#
#
# Convention : Reuss Voigt Hill
#
# Bulk Modulus (GPa) = 102.51755 103.19337 102.85546
# Shear Modulus (GPa) = 22.13006 22.65107 22.39056
#
# Velocity S-wave (km/s) = 3.68330 3.72641 3.70492
# Velocity P-wave (km/s) = 8.99649 9.04306 9.01980
#
# Compressibility (1/GPa) = 0.00975443
#
# Stress axis : x y z
#
# Youngs Moduli (GPa) = 55.17239 55.17239 65.00926
#
# Poissons Ratio (x) = 0.43204 0.42608
# Poissons Ratio (y) = 0.43204 0.42608
# Poissons Ratio (z) = 0.36161 0.36161
#
# Static dielectric constant tensor:
#      x y z
#    x 1.517220 0.000000 0.000000 
#    y 0.000000 1.517220 0.000000 
#    z 0.000000 0.000000 1.535090 
# 
# From -- ./inp_files/5168.got.cif
#   From: 2010.05.17/outbox.cif.g08.bks.cpg/sg164_3_cif.got.tgz:5168.got - 2010.05.20 10:58:56.
