data_PCOD9578345
_publ_section_title
;
Structure prediction by ZEFSAII (Michael W. Deem and Ramdas Pophale) SiO2 
 PCOD9578345
Probable space group: P -3 M 1
;
_chemical_formula_sum "Si O2"
_cell_formula_units_Z 66
_cell_length_a 26.299441
_cell_length_b 26.299441
_cell_length_c 5.028510
_cell_angle_alpha 90.000000
_cell_angle_beta 90.000000
_cell_angle_gamma 120.000000
_cell_volume 3012.055605
_symmetry_space_group_name_H-M "P -3 M 1"
_symmetry_group_IT_number 164
_symmetry_cell_setting 'hexagonal'
loop_
_space_group_symop_operation_xyz
x,y,z
-y,x-y,z
-x+y,-x,z
x-y,-y,-z
-x,-x+y,-z
y,x,-z
-x,-y,-z
y,-x+y,-z
x-y,x,-z
-x+y,y,z
x,x-y,z
-y,-x,z
loop_
_atom_site_type_symbol
_atom_site_label
_atom_site_fract_x
_atom_site_fract_y
_atom_site_fract_z
Si Si1 0.226965 0.000000 0.500000
Si Si2 0.144349 0.515787 0.675782
Si Si3 0.903243 0.806485 0.339103
Si Si4 0.873845 0.936923 0.136347
Si Si5 0.333892 0.555288 0.176588
Si Si6 0.898523 0.678787 0.817805
Si Si7 0.599717 0.858948 0.683920
O O1 0.218490 0.053207 0.391813
O O2 0.274940 0.035926 0.724984
O O3 0.115548 0.557774 0.713735
O O4 0.166359 0.523891 0.372840
O O5 0.119998 0.447447 0.734788
O O6 0.199961 0.544277 0.874486
O O7 0.931064 0.862127 0.550783
O O8 0.906655 0.813310 0.021193
O O9 0.905852 0.905852 0.000000
O O10 0.267201 0.534401 0.231645
O O11 0.375820 0.624180 0.230587
O O12 0.849431 0.698862 0.784665
O O13 0.875491 0.624344 0.613046
O O14 0.891665 0.653746 0.112941
O O15 0.577728 0.788864 0.721219
#
# Coordination Sequence:
#
# PCOD9578345 Si02
#       7
#     6  12   6   6  12  12  12
#     4  12  24  48  64  99 125 164 202 256 310 374
#     4  10  20  32  51  77 109 152 200 244 301 362
#     4  12  26  40  69  88 128 162 204 246 310 360
#     4  12  23  40  56  88 116 168 204 244 276 340
#     4  10  18  27  41  66 102 149 195 241 285 339
#     4  10  23  38  62  89 118 157 202 253 307 363
#     4  10  20  37  57  86 119 156 204 256 305 362
#
# _framework density 21.911944999999999
#
# number of rings (size 3 to 8) (size 9 to 14) (size 15 to 20)
#    0.000    1.455    2.727    3.000    0.000    5.091 
#    0.000    2.727    0.000    0.364    0.000    3.818 
#    0.000    0.000    0.000    0.000    0.000    0.000 
#
# Total GULP energy -367832.970293 kJ/mol
# GULP energy per Si atom -5573.226823 kJ/mol
# Density = 2.186207 g / cm^3
# Si number density = 21.911945 Si / 1000 Ang^3
#
#
#
# Elastic Constant Matrix: (Units=GPa)
#
#
# Indices 1 2 3 4 5 6 
#
# 1 88.2778 32.3448 5.1249 -6.9157 0.0000 0.0000
# 2 32.3448 88.2778 5.1249 6.9157 0.0000 0.0000
# 3 5.1249 5.1249 54.1562 0.0000 0.0000 0.0000
# 4 -6.9157 6.9157 0.0000 21.9237 0.0000 0.0000
# 5 0.0000 0.0000 0.0000 0.0000 21.9237 -6.9157
# 6 0.0000 0.0000 0.0000 0.0000 -6.9157 27.9665
#
#
#
# Elastic Compliance Matrix: (Units=1/GPa)
#
#
# Indices 1 2 3 4 5 6 
#
# 1 0.013874 -0.005517 -0.000791 0.006117 0.000000 0.000000
# 2 -0.005517 0.013874 -0.000791 -0.006117 0.000000 0.000000
# 3 -0.000791 -0.000791 0.018615 0.000000 0.000000 0.000000
# 4 0.006117 -0.006117 0.000000 0.049472 0.000000 0.000000
# 5 0.000000 0.000000 0.000000 0.000000 0.049472 0.012234
# 6 0.000000 0.000000 0.000000 0.000000 0.012234 0.038782
#
#
# Mechanical properties :
#
#
# Convention : Reuss Voigt Hill
#
# Bulk Modulus (GPa) = 31.08843 35.10010 33.09426
# Shear Modulus (GPa) = 23.92248 26.90392 25.41320
#
# Velocity S-wave (km/s) = 3.30776 3.50783 3.40926
# Velocity P-wave (km/s) = 5.36722 5.69736 5.53475
#
# Compressibility (1/GPa) = 0.03216631
#
# Stress axis : x y z
#
# Youngs Moduli (GPa) = 72.07566 72.07566 53.72070
#
# Poissons Ratio (x) = 0.39763 0.04249
# Poissons Ratio (y) = 0.39763 0.04249
# Poissons Ratio (z) = 0.05700 0.05700
#
# Static dielectric constant tensor:
#      x y z
#    x 1.875040 0.000000 0.000000 
#    y 0.000000 1.875040 0.000000 
#    z 0.000000 0.000000 1.787810 
# 
# From -- ./inp_files/784.got.cif
#   From: 2010.05.17/outbox.cif.g08.bks.cpg/sg164_1_cif.got.tgz:784.got - 2010.05.20 10:58:56.
