data_PCOD9578568
_publ_section_title
;
Structure prediction by ZEFSAII (Michael W. Deem and Ramdas Pophale) SiO2 
 PCOD9578568
Probable space group: P -3 M 1
;
_chemical_formula_sum "Si O2"
_cell_formula_units_Z 54
_cell_length_a 12.720609
_cell_length_b 12.720609
_cell_length_c 24.204187
_cell_angle_alpha 90.000000
_cell_angle_beta 90.000000
_cell_angle_gamma 120.000000
_cell_volume 3391.852349
_symmetry_space_group_name_H-M "P -3 M 1"
_symmetry_group_IT_number 164
_symmetry_cell_setting 'hexagonal'
loop_
_space_group_symop_operation_xyz
x,y,z
-y,x-y,z
-x+y,-x,z
x-y,-y,-z
-x,-x+y,-z
y,x,-z
-x,-y,-z
y,-x+y,-z
x-y,x,-z
-x+y,y,z
x,x-y,z
-y,-x,z
loop_
_atom_site_type_symbol
_atom_site_label
_atom_site_fract_x
_atom_site_fract_y
_atom_site_fract_z
Si Si1 0.251720 0.000154 0.940679
Si Si2 0.749913 0.000000 0.500000
Si Si3 0.416421 0.083231 0.392842
Si Si4 0.999996 0.748223 0.180496
Si Si5 0.416763 0.333917 0.714035
O O1 0.119578 0.880422 0.939838
O O2 0.237530 0.118765 0.941774
O O3 0.306228 0.001855 0.880526
O O4 0.310648 0.000000 0.000000
O O5 0.689144 0.021990 0.446290
O O6 0.881081 0.118920 0.507481
O O7 0.546628 0.093256 0.400252
O O8 0.430613 0.215307 0.386101
O O9 0.355202 0.002258 0.338698
O O10 0.113812 0.886189 0.182013
O O11 0.020339 0.678565 0.230453
O O12 0.874361 0.748721 0.186671
O O13 0.420958 0.210479 0.707546
O O14 0.551163 0.448838 0.717918
#
# Coordination Sequence:
#
# PCOD9578568 Si02
#       5
#    12   6  12  12  12
#     4   8  12  18  31  54  84 114 140 168 208 261
#     4  10  20  34  52  74 100 128 156 184 216 256
#     4  10  20  34  52  73  96 121 150 185 225 267
#     4   9  16  26  42  65  91 116 142 176 221 271
#     4  10  20  33  48  65  87 117 153 190 225 262
#
# _framework density 15.920505
#
# number of rings (size 3 to 8) (size 9 to 14) (size 15 to 20)
#    0.000    2.667    0.000    2.667    0.000    2.667 
#    0.000    0.000    0.000   15.333    0.000    0.000 
#    0.000    0.000    0.000    0.000    0.000    0.000 
#
# Total GULP energy -300625.271037 kJ/mol
# GULP energy per Si atom -5567.134649 kJ/mol
# Density = 1.588427 g / cm^3
# Si number density = 15.920505 Si / 1000 Ang^3
#
#
#
# Elastic Constant Matrix: (Units=GPa)
#
#
# Indices 1 2 3 4 5 6 
#
# 1 72.5351 45.9065 78.9770 1.0734 0.0000 0.0000
# 2 45.9065 72.5351 78.9770 -1.0734 0.0000 0.0000
# 3 78.9770 78.9770 186.9409 0.0000 0.0000 0.0000
# 4 1.0734 -1.0734 0.0000 19.7284 0.0000 0.0000
# 5 0.0000 0.0000 0.0000 0.0000 19.7284 1.0734
# 6 0.0000 0.0000 0.0000 0.0000 1.0734 13.3143
#
#
#
# Elastic Compliance Matrix: (Units=1/GPa)
#
#
# Indices 1 2 3 4 5 6 
#
# 1 0.028529 -0.009190 -0.008170 -0.002052 0.000000 0.000000
# 2 -0.009190 0.028529 -0.008170 0.002052 0.000000 0.000000
# 3 -0.008170 -0.008170 0.012252 0.000000 0.000000 0.000000
# 4 -0.002052 0.002052 0.000000 0.050912 0.000000 0.000000
# 5 0.000000 0.000000 0.000000 0.000000 0.050912 -0.004105
# 6 0.000000 0.000000 0.000000 0.000000 -0.004105 0.075438
#
#
# Mechanical properties :
#
#
# Convention : Reuss Voigt Hill
#
# Bulk Modulus (GPa) = 54.79592 82.19245 68.49419
# Shear Modulus (GPa) = 16.46280 19.09758 17.78019
#
# Velocity S-wave (km/s) = 3.21917 3.46722 3.34550
# Velocity P-wave (km/s) = 6.95058 8.23211 7.61834
#
# Compressibility (1/GPa) = 0.01824953
#
# Stress axis : x y z
#
# Youngs Moduli (GPa) = 35.05233 35.05233 81.61693
#
# Poissons Ratio (x) = 0.32215 0.66680
# Poissons Ratio (y) = 0.32215 0.66680
# Poissons Ratio (z) = 0.28637 0.28637
#
# Static dielectric constant tensor:
#      x y z
#    x 1.496950 0.000000 0.000000 
#    y 0.000000 1.496950 0.000000 
#    z 0.000000 0.000000 1.571540 
# 
# From -- ./inp_files/4885.got.cif
#   From: 2010.05.17/outbox.cif.g08.bks.cpg/sg164_3_cif.got.tgz:4885.got - 2010.05.20 10:58:56.
