data_PCOD9578822
_publ_section_title
;
Structure prediction by ZEFSAII (Michael W. Deem and Ramdas Pophale) SiO2 
 PCOD9578822
Probable space group: P -3 C 1
;
_chemical_formula_sum "Si O2"
_cell_formula_units_Z 78
_cell_length_a 22.349208
_cell_length_b 22.349208
_cell_length_c 8.857358
_cell_angle_alpha 90.000000
_cell_angle_beta 90.000000
_cell_angle_gamma 120.000000
_cell_volume 3831.414205
_symmetry_space_group_name_H-M "P -3 C 1"
_symmetry_group_IT_number 165
_symmetry_cell_setting 'hexagonal'
loop_
_space_group_symop_operation_xyz
x,y,z
-y,x-y,z
-x+y,-x,z
x-y,-y,1/2-z
-x,-x+y,1/2-z
y,x,1/2-z
-x,-y,-z
y,-x+y,-z
x-y,x,-z
-x+y,y,1/2+z
x,x-y,1/2+z
-y,-x,1/2+z
loop_
_atom_site_type_symbol
_atom_site_label
_atom_site_fract_x
_atom_site_fract_y
_atom_site_fract_z
Si Si1 0.519963 0.519963 0.250000
Si Si2 0.572023 0.591795 0.527123
Si Si3 0.803960 0.593207 0.706003
Si Si4 0.736296 0.965772 0.586412
Si Si5 0.909477 0.248155 0.933498
Si Si6 0.961290 0.093040 0.409448
Si Si7 0.701441 0.574197 0.474796
O O1 0.541434 0.584793 0.359222
O O2 0.491032 0.455431 0.363503
O O3 0.614537 0.669045 0.587130
O O4 0.624981 0.561760 0.506351
O O5 0.790879 0.647468 0.800333
O O6 0.863710 0.632808 0.584262
O O7 0.733197 0.551623 0.611384
O O8 0.827607 0.553076 0.821126
O O9 0.787074 0.935269 0.594083
O O10 0.658131 0.913138 0.542035
O O11 0.739473 0.000000 0.750000
O O12 0.765202 0.028122 0.466238
O O13 0.000000 0.101039 0.250000
O O14 0.017837 0.115058 0.542719
#
# Coordination Sequence:
#
# PCOD9578822 Si02
#       7
#     6  12  12  12  12  12  12
#     4  10  20  32  56  78 100 150 194 202 248 310
#     4  10  20  35  52  77 111 149 178 227 252 311
#     4  10  20  30  52  76 102 145 175 216 258 344
#     4  10  21  34  54  74  96 134 164 228 266 334
#     4  10  20  34  51  75 111 138 179 211 278 309
#     4  11  25  41  56  69  88 118 165 230 280 330
#     4  10  20  34  51  75 111 138 179 211 278 309
#
# _framework density 20.358018000000001
#
# number of rings (size 3 to 8) (size 9 to 14) (size 15 to 20)
#    0.000    1.846    1.538    2.462    6.462    1.846 
#    2.769    0.000    0.000    0.000    0.000    0.000 
#    0.000    0.000    0.000  852.923    0.000    0.000 
#
# Total GULP energy -435173.900383 kJ/mol
# GULP energy per Si atom -5579.152569 kJ/mol
# Density = 2.031168 g / cm^3
# Si number density = 20.358018 Si / 1000 Ang^3
#
#
#
# Elastic Constant Matrix: (Units=GPa)
#
#
# Indices 1 2 3 4 5 6 
#
# 1 49.8383 23.6281 1.1062 1.1740 0.0000 0.0000
# 2 23.6281 49.8383 1.1062 -1.1740 0.0000 0.0000
# 3 1.1062 1.1062 72.8507 0.0000 0.0000 0.0000
# 4 1.1740 -1.1740 0.0000 16.7190 0.0000 0.0000
# 5 0.0000 0.0000 0.0000 0.0000 16.7190 1.1740
# 6 0.0000 0.0000 0.0000 0.0000 1.1740 13.1051
#
#
#
# Elastic Compliance Matrix: (Units=1/GPa)
#
#
# Indices 1 2 3 4 5 6 
#
# 1 0.026006 -0.012388 -0.000207 -0.002696 0.000000 0.000000
# 2 -0.012388 0.026006 -0.000207 0.002696 0.000000 0.000000
# 3 -0.000207 -0.000207 0.013733 0.000000 0.000000 0.000000
# 4 -0.002696 0.002696 0.000000 0.060191 0.000000 0.000000
# 5 0.000000 0.000000 0.000000 0.000000 0.060191 -0.005392
# 6 0.000000 0.000000 0.000000 0.000000 -0.005392 0.076789
#
#
# Mechanical properties :
#
#
# Convention : Reuss Voigt Hill
#
# Bulk Modulus (GPa) = 24.91178 24.91203 24.91190
# Shear Modulus (GPa) = 16.56177 19.08775 17.82476
#
# Velocity S-wave (km/s) = 2.85533 3.06535 2.96220
# Velocity P-wave (km/s) = 4.80978 4.97916 4.89520
#
# Compressibility (1/GPa) = 0.04014166
#
# Stress axis : x y z
#
# Youngs Moduli (GPa) = 38.45239 38.45239 72.81735
#
# Poissons Ratio (x) = 0.47636 0.01506
# Poissons Ratio (y) = 0.47636 0.01506
# Poissons Ratio (z) = 0.00795 0.00795
#
# Static dielectric constant tensor:
#      x y z
#    x 1.728690 0.000000 0.000000 
#    y 0.000000 1.728690 0.000000 
#    z 0.000000 0.000000 1.813900 
# 
# From -- ./inp_files/816.got.cif
#   From: 2010.05.17/outbox.cif.g08.bks.cpg/sg165_1_cif.got.tgz:816.got - 2010.05.20 11:02:39.
