data_PCOD9578216
_publ_section_title
;
Structure prediction by ZEFSAII (Michael W. Deem and Ramdas Pophale) SiO2 
 PCOD9578216
Probable space group: P -3 1 C
;
_chemical_formula_sum "Si O2"
_cell_formula_units_Z 36
_cell_length_a 11.332386
_cell_length_b 11.332386
_cell_length_c 13.406071
_cell_angle_alpha 90.000000
_cell_angle_beta 90.000000
_cell_angle_gamma 120.000000
_cell_volume 1490.990460
_symmetry_space_group_name_H-M "P -3 1 C"
_symmetry_group_IT_number 163
_symmetry_cell_setting 'hexagonal'
loop_
_space_group_symop_operation_xyz
x,y,z
-y,x-y,z
-x+y,-x,z
-y,-x,1/2-z
-x+y,y,1/2-z
x,x-y,1/2-z
-x,-y,-z
y,-x+y,-z
x-y,x,-z
y,x,1/2+z
x-y,-y,1/2+z
-x,-x+y,1/2+z
loop_
_atom_site_type_symbol
_atom_site_label
_atom_site_fract_x
_atom_site_fract_y
_atom_site_fract_z
Si Si1 0.735990 0.785291 0.456337
Si Si2 0.498310 0.501691 0.750000
Si Si3 0.176117 0.823884 0.250000
Si Si4 0.462125 0.837267 0.953197
O O1 0.861165 0.758907 0.461006
O O2 0.729999 0.851260 0.352124
O O3 0.590037 0.648975 0.479718
O O4 0.660376 0.561344 0.752241
O O5 0.416375 0.518954 0.842416
O O6 0.301249 0.770976 0.972082
#
# Coordination Sequence:
#
# PCOD9578216 Si02
#       4
#    12   6   6  12
#     4  12  27  51  75 109 155 204 253 315 375 462
#     4  12  23  48  70 118 151 198 248 316 374 455
#     4  12  29  42  78 110 153 198 252 308 386 447
#     4  10  24  44  77 106 150 196 251 308 379 450
#
# _framework density 24.145023999999999
#
# number of rings (size 3 to 8) (size 9 to 14) (size 15 to 20)
#    0.667    0.000    3.333    3.667    4.667    4.000 
#    0.000    0.000    0.000    0.000    0.000    0.000 
#    0.000    0.000    0.000    0.000    0.000    0.000 
#
# Total GULP energy -200839.821464 kJ/mol
# GULP energy per Si atom -5578.883930 kJ/mol
# Density = 2.409007 g / cm^3
# Si number density = 24.145024 Si / 1000 Ang^3
#
#
#
# Elastic Constant Matrix: (Units=GPa)
#
#
# Indices 1 2 3 4 5 6 
#
# 1 63.5631 53.1314 5.5762 0.0002 -4.1378 0.0000
# 2 53.1314 63.5631 5.5762 -0.0002 4.1378 0.0000
# 3 5.5762 5.5762 112.1897 0.0000 0.0000 0.0000
# 4 0.0002 -0.0002 0.0000 41.7634 0.0000 4.1378
# 5 -4.1378 4.1378 0.0000 0.0000 41.7634 0.0002
# 6 0.0000 0.0000 0.0000 4.1378 0.0002 5.2159
#
#
#
# Elastic Compliance Matrix: (Units=1/GPa)
#
#
# Indices 1 2 3 4 5 6 
#
# 1 0.056324 -0.047714 -0.000428 -0.000001 0.010308 0.000000
# 2 -0.047714 0.056324 -0.000428 0.000001 -0.010308 0.000000
# 3 -0.000428 -0.000428 0.008956 0.000000 0.000000 0.000000
# 4 -0.000001 0.000001 0.000000 0.025987 0.000000 -0.020616
# 5 0.010308 -0.010308 0.000000 0.000000 0.025987 -0.000001
# 6 0.000000 0.000000 0.000000 -0.020616 -0.000001 0.208077
#
#
# Mechanical properties :
#
#
# Convention : Reuss Voigt Hill
#
# Bulk Modulus (GPa) = 40.87514 40.87594 40.87554
# Shear Modulus (GPa) = 10.26798 29.41736 19.84267
#
# Velocity S-wave (km/s) = 2.06443 3.49429 2.86984
# Velocity P-wave (km/s) = 4.75902 5.76595 5.28651
#
# Compressibility (1/GPa) = 0.02446475
#
# Stress axis : x y z
#
# Youngs Moduli (GPa) = 17.75430 17.75430 111.65676
#
# Poissons Ratio (x) = 0.84713 0.04778
# Poissons Ratio (y) = 0.84713 0.04778
# Poissons Ratio (z) = 0.00760 0.00760
#
# Static dielectric constant tensor:
#      x y z
#    x 1.968200 0.000000 0.000000 
#    y 0.000000 1.968200 0.000000 
#    z 0.000000 0.000000 1.946110 
# 
# From -- ./inp_files/2106.got.cif
#   From: 2010.05.17/outbox.cif.g08.bks.cpg/sg163_2_cif.got.tgz:2106.got - 2010.05.20 10:56:03.
