data_PCOD9578442
_publ_section_title
;
Structure prediction by ZEFSAII (Michael W. Deem and Ramdas Pophale) SiO2 
 PCOD9578442
Probable space group: P -3 M 1
;
_chemical_formula_sum "Si O2"
_cell_formula_units_Z 60
_cell_length_a 17.804815
_cell_length_b 17.804815
_cell_length_c 13.229424
_cell_angle_alpha 90.000000
_cell_angle_beta 90.000000
_cell_angle_gamma 120.000000
_cell_volume 3632.005508
_symmetry_space_group_name_H-M "P -3 M 1"
_symmetry_group_IT_number 164
_symmetry_cell_setting 'hexagonal'
loop_
_space_group_symop_operation_xyz
x,y,z
-y,x-y,z
-x+y,-x,z
x-y,-y,-z
-x,-x+y,-z
y,x,-z
-x,-y,-z
y,-x+y,-z
x-y,x,-z
-x+y,y,z
x,x-y,z
-y,-x,z
loop_
_atom_site_type_symbol
_atom_site_label
_atom_site_fract_x
_atom_site_fract_y
_atom_site_fract_z
Si Si1 0.156131 0.489506 0.232384
Si Si2 0.337309 0.082494 0.930311
Si Si3 0.168231 0.169255 0.789533
Si Si4 0.579950 0.995820 0.621691
Si Si5 0.939815 0.231140 0.401537
O O1 0.248199 0.496398 0.254737
O O2 0.166757 0.583379 0.210499
O O3 0.114102 0.422462 0.139108
O O4 0.089478 0.449906 0.326635
O O5 0.343077 0.171539 0.974773
O O6 0.252950 0.041309 0.858396
O O7 0.317360 0.000000 0.000000
O O8 0.091027 0.182054 0.831789
O O9 0.195272 0.215847 0.681400
O O10 0.136943 0.068472 0.779390
O O11 0.482277 0.964554 0.657351
O O12 0.624899 0.939469 0.644855
O O13 0.578797 0.000000 0.500000
O O14 0.844515 0.155486 0.428155
O O15 0.000000 0.260946 0.500000
#
# Coordination Sequence:
#
# PCOD9578442 Si02
#       5
#    12  12  12  12  12
#     4  10  20  35  56  80 106 134 169 215 265 313
#     4  10  20  34  52  73 100 133 170 215 262 312
#     4  10  19  31  46  68  98 133 172 210 251 297
#     4   9  18  32  50  74 103 134 166 204 250 301
#     4  10  19  30  48  73 101 134 170 207 247 298
#
# _framework density 16.5198
#
# number of rings (size 3 to 8) (size 9 to 14) (size 15 to 20)
#    0.000    2.200    2.000    1.600    0.000    3.600 
#    0.000    0.000    0.000    6.800    0.000    0.000 
#    0.000    0.000    0.000    0.000    0.000    0.000 
#
# Total GULP energy -334039.070079 kJ/mol
# GULP energy per Si atom -5567.317835 kJ/mol
# Density = 1.648220 g / cm^3
# Si number density = 16.519800 Si / 1000 Ang^3
#
#
#
# Elastic Constant Matrix: (Units=GPa)
#
#
# Indices 1 2 3 4 5 6 
#
# 1 106.5122 74.5203 30.5827 6.4106 0.0000 0.0000
# 2 74.5203 106.5122 30.5827 -6.4106 0.0000 0.0000
# 3 30.5827 30.5827 41.7758 0.0000 0.0000 0.0000
# 4 6.4106 -6.4106 0.0000 17.2614 0.0000 0.0000
# 5 0.0000 0.0000 0.0000 0.0000 17.2614 6.4106
# 6 0.0000 0.0000 0.0000 0.0000 6.4106 15.9959
#
#
#
# Elastic Compliance Matrix: (Units=1/GPa)
#
#
# Indices 1 2 3 4 5 6 
#
# 1 0.022031 -0.014692 -0.005373 -0.013639 0.000000 0.000000
# 2 -0.014692 0.022031 -0.005373 0.013639 0.000000 0.000000
# 3 -0.005373 -0.005373 0.031804 0.000000 0.000000 0.000000
# 4 -0.013639 0.013639 0.000000 0.068063 0.000000 0.000000
# 5 0.000000 0.000000 0.000000 0.000000 0.068063 -0.027277
# 6 0.000000 0.000000 0.000000 0.000000 -0.027277 0.073448
#
#
# Mechanical properties :
#
#
# Convention : Reuss Voigt Hill
#
# Bulk Modulus (GPa) = 40.01436 58.46350 49.23893
# Shear Modulus (GPa) = 14.50763 18.04474 16.27618
#
# Velocity S-wave (km/s) = 2.96665 3.30860 3.14228
# Velocity P-wave (km/s) = 6.00078 7.07549 6.56018
#
# Compressibility (1/GPa) = 0.02499103
#
# Stress axis : x y z
#
# Youngs Moduli (GPa) = 45.38956 45.38956 31.44288
#
# Poissons Ratio (x) = 0.66688 0.16893
# Poissons Ratio (y) = 0.66688 0.16893
# Poissons Ratio (z) = 0.24387 0.24387
#
# Static dielectric constant tensor:
#      x y z
#    x 1.570540 0.000000 0.000000 
#    y 0.000000 1.570540 0.000000 
#    z 0.000000 0.000000 1.556040 
# 
# From -- ./inp_files/2654.got.cif
#   From: 2010.05.17/outbox.cif.g08.bks.cpg/sg164_2_cif.got.tgz:2654.got - 2010.05.20 10:58:56.
