data_PCOD9578197
_publ_section_title
;
Structure prediction by ZEFSAII (Michael W. Deem and Ramdas Pophale) SiO2 
 PCOD9578197
Probable space group: P -3 1 C
;
_chemical_formula_sum "Si O2"
_cell_formula_units_Z 52
_cell_length_a 15.280474
_cell_length_b 15.280474
_cell_length_c 15.327902
_cell_angle_alpha 90.000000
_cell_angle_beta 90.000000
_cell_angle_gamma 120.000000
_cell_volume 3099.466875
_symmetry_space_group_name_H-M "P -3 1 C"
_symmetry_group_IT_number 163
_symmetry_cell_setting 'hexagonal'
loop_
_space_group_symop_operation_xyz
x,y,z
-y,x-y,z
-x+y,-x,z
-y,-x,1/2-z
-x+y,y,1/2-z
x,x-y,1/2-z
-x,-y,-z
y,-x+y,-z
x-y,x,-z
y,x,1/2+z
x-y,-y,1/2+z
-x,-x+y,1/2+z
loop_
_atom_site_type_symbol
_atom_site_label
_atom_site_fract_x
_atom_site_fract_y
_atom_site_fract_z
Si Si1 0.330322 0.273943 0.927313
Si Si2 0.120383 0.903700 0.651412
Si Si3 0.311452 0.257423 0.590612
Si Si4 0.667375 0.539395 0.744032
Si Si5 0.000000 0.000000 0.105925
O O1 0.227711 0.268996 0.893932
O O2 0.319609 0.161702 0.936165
O O3 0.409578 0.323823 0.849647
O O4 0.342897 0.333881 0.017324
O O5 0.125444 0.874557 0.750000
O O6 0.027481 0.806146 0.608015
O O7 0.090790 0.990182 0.644689
O O8 0.379109 0.303787 0.677360
O O9 0.557986 0.442015 0.750000
O O10 0.754835 0.509670 0.750000
O O11 0.000000 0.000000 0.000000
#
# Coordination Sequence:
#
# PCOD9578197 Si02
#       5
#    12  12  12  12   4
#     4  11  21  33  53  82 114 146 176 207 254 317
#     4  12  20  30  46  77 119 158 182 198 239 308
#     4  11  21  33  53  82 114 146 176 207 254 317
#     4  10  23  41  58  76  98 134 182 235 281 312
#     4  12  22  26  40  72 124 173 181 196 233 295
#
# _framework density 16.777079000000001
#
# number of rings (size 3 to 8) (size 9 to 14) (size 15 to 20)
#    0.000    0.923    6.923    2.308    0.000    0.923 
#    0.000    0.000    0.000    0.000    0.000    0.000 
#    9.231    0.000    0.000    0.000    0.000    0.000 
#
# Total GULP energy -289497.333670 kJ/mol
# GULP energy per Si atom -5567.256417 kJ/mol
# Density = 1.673889 g / cm^3
# Si number density = 16.777079 Si / 1000 Ang^3
#
#
#
# Elastic Constant Matrix: (Units=GPa)
#
#
# Indices 1 2 3 4 5 6 
#
# 1 68.4668 34.8727 27.9674 0.0001 4.9686 0.0000
# 2 34.8727 68.4668 27.9674 -0.0001 -4.9686 0.0000
# 3 27.9674 27.9674 90.0654 0.0000 0.0000 0.0000
# 4 0.0001 -0.0001 0.0000 14.5145 0.0000 -4.9686
# 5 4.9686 -4.9686 0.0000 0.0000 14.5145 0.0001
# 6 0.0000 0.0000 0.0000 -4.9686 0.0001 16.7971
#
#
#
# Elastic Compliance Matrix: (Units=1/GPa)
#
#
# Indices 1 2 3 4 5 6 
#
# 1 0.022376 -0.010745 -0.003612 0.000000 -0.011338 0.000000
# 2 -0.010745 0.022376 -0.003612 0.000000 0.011338 0.000000
# 3 -0.003612 -0.003612 0.013346 0.000000 0.000000 0.000000
# 4 0.000000 0.000000 0.000000 0.076659 0.000000 0.022676
# 5 -0.011338 0.011338 0.000000 0.000000 0.076659 0.000000
# 6 0.000000 0.000000 0.000000 0.022676 0.000000 0.066242
#
#
# Mechanical properties :
#
#
# Convention : Reuss Voigt Hill
#
# Bulk Modulus (GPa) = 45.12195 45.40153 45.26174
# Shear Modulus (GPa) = 15.57709 18.24464 16.91087
#
# Velocity S-wave (km/s) = 3.05039 3.30126 3.17831
# Velocity P-wave (km/s) = 6.27375 6.45380 6.36441
#
# Compressibility (1/GPa) = 0.02216216
#
# Stress axis : x y z
#
# Youngs Moduli (GPa) = 44.68989 44.68989 74.92747
#
# Poissons Ratio (x) = 0.48017 0.27064
# Poissons Ratio (y) = 0.48017 0.27064
# Poissons Ratio (z) = 0.16142 0.16142
#
# Static dielectric constant tensor:
#      x y z
#    x 1.443440 0.000000 0.000000 
#    y 0.000000 1.443440 0.000000 
#    z 0.000000 0.000000 1.673890 
# 
# From -- ./inp_files/2312.got.cif
#   From: 2010.05.17/outbox.cif.g08.bks.cpg/sg163_2_cif.got.tgz:2312.got - 2010.05.20 10:56:03.
