data_PCOD9578537
_publ_section_title
;
Structure prediction by ZEFSAII (Michael W. Deem and Ramdas Pophale) SiO2 
 PCOD9578537
Probable space group: P -3 M 1
;
_chemical_formula_sum "Si O2"
_cell_formula_units_Z 72
_cell_length_a 12.795113
_cell_length_b 12.795113
_cell_length_c 31.389220
_cell_angle_alpha 90.000000
_cell_angle_beta 90.000000
_cell_angle_gamma 120.000000
_cell_volume 4450.403690
_symmetry_space_group_name_H-M "P -3 M 1"
_symmetry_group_IT_number 164
_symmetry_cell_setting 'hexagonal'
loop_
_space_group_symop_operation_xyz
x,y,z
-y,x-y,z
-x+y,-x,z
x-y,-y,-z
-x,-x+y,-z
y,x,-z
-x,-y,-z
y,-x+y,-z
x-y,x,-z
-x+y,y,z
x,x-y,z
-y,-x,z
loop_
_atom_site_type_symbol
_atom_site_label
_atom_site_fract_x
_atom_site_fract_y
_atom_site_fract_z
Si Si1 0.249034 0.249034 0.000000
Si Si2 0.667523 0.085701 0.082009
Si Si3 0.914204 0.581385 0.754922
Si Si4 0.580894 0.666835 0.675458
Si Si5 0.751676 0.000000 0.500000
Si Si6 0.999797 0.248751 0.836508
Si Si7 0.914974 0.581188 0.421184
O O1 0.308911 0.333886 0.959074
O O2 0.118083 0.236167 0.006444
O O3 0.537869 0.075737 0.081048
O O4 0.774547 0.225454 0.082253
O O5 0.686726 0.024891 0.123947
O O6 0.779407 0.558813 0.751684
O O7 0.913211 0.456606 0.762339
O O8 0.987256 0.638624 0.711437
O O9 0.978221 0.672945 0.793949
O O10 0.586941 0.793470 0.683320
O O11 0.442074 0.557927 0.676951
O O12 0.624606 0.667347 0.627184
O O13 0.763123 0.881562 0.497974
O O14 0.675769 0.989419 0.542190
O O15 0.116533 0.233065 0.832136
O O16 0.880005 0.119996 0.844009
O O17 0.778230 0.556460 0.423631
O O18 0.916405 0.458203 0.427859
#
# Coordination Sequence:
#
# PCOD9578537 Si02
#       7
#     6  12  12  12   6  12  12
#     4  10  20  34  54  78 104 134 168 208 250 292
#     4  10  20  34  52  74 101 132 165 201 242 289
#     4  10  20  33  49  69  96 130 164 197 233 278
#     4   9  17  30  49  72  95 119 150 191 239 286
#     4  10  20  32  46  64  90 124 158 190 224 270
#     4  10  20  34  53  75  99 127 160 201 245 288
#     4   9  17  30  49  71  93 117 148 190 238 284
#
# _framework density 16.178307
#
# number of rings (size 3 to 8) (size 9 to 14) (size 15 to 20)
#    0.000    2.333    0.000    3.000    0.000    2.000 
#    0.000    1.667    0.000   10.667    0.000    0.000 
#    0.000    0.000    0.000    0.000    0.000    0.000 
#
# Total GULP energy -401617.452915 kJ/mol
# GULP energy per Si atom -5578.020179 kJ/mol
# Density = 1.614148 g / cm^3
# Si number density = 16.178307 Si / 1000 Ang^3
#
#
#
# Elastic Constant Matrix: (Units=GPa)
#
#
# Indices 1 2 3 4 5 6 
#
# 1 111.3882 73.9264 83.3665 2.5899 0.0000 0.0000
# 2 73.9264 111.3882 83.3665 -2.5899 0.0000 0.0000
# 3 83.3665 83.3665 141.9951 0.0000 0.0000 0.0000
# 4 2.5899 -2.5899 0.0000 25.5688 0.0000 0.0000
# 5 0.0000 0.0000 0.0000 0.0000 25.5688 2.5899
# 6 0.0000 0.0000 0.0000 0.0000 2.5899 18.7309
#
#
#
# Elastic Compliance Matrix: (Units=1/GPa)
#
#
# Indices 1 2 3 4 5 6 
#
# 1 0.019256 -0.007817 -0.006716 -0.002742 0.000000 0.000000
# 2 -0.007817 0.019256 -0.006716 0.002742 0.000000 0.000000
# 3 -0.006716 -0.006716 0.014928 0.000000 0.000000 0.000000
# 4 -0.002742 0.002742 0.000000 0.039666 0.000000 0.000000
# 5 0.000000 0.000000 0.000000 0.000000 0.039666 -0.005485
# 6 0.000000 0.000000 0.000000 0.000000 -0.005485 0.054146
#
#
# Mechanical properties :
#
#
# Convention : Reuss Voigt Hill
#
# Bulk Modulus (GPa) = 91.38638 94.01000 92.69819
# Shear Modulus (GPa) = 21.45356 22.24786 21.85071
#
# Velocity S-wave (km/s) = 3.64547 3.71235 3.67906
# Velocity P-wave (km/s) = 8.62142 8.75272 8.68732
#
# Compressibility (1/GPa) = 0.01094255
#
# Stress axis : x y z
#
# Youngs Moduli (GPa) = 51.93255 51.93255 66.98784
#
# Poissons Ratio (x) = 0.40597 0.44986
# Poissons Ratio (y) = 0.40597 0.44986
# Poissons Ratio (z) = 0.34876 0.34876
#
# Static dielectric constant tensor:
#      x y z
#    x 1.510740 0.000000 0.000000 
#    y 0.000000 1.510740 0.000000 
#    z 0.000000 0.000000 1.536440 
# 
# From -- ./inp_files/5611.got.cif
#   From: 2010.05.17/outbox.cif.g08.bks.cpg/sg164_3_cif.got.tgz:5611.got - 2010.05.20 10:58:56.
