data_PCOD9578377
_publ_section_title
;
Structure prediction by ZEFSAII (Michael W. Deem and Ramdas Pophale) SiO2 
 PCOD9578377
Probable space group: P -3 M 1
;
_chemical_formula_sum "Si O2"
_cell_formula_units_Z 84
_cell_length_a 20.471379
_cell_length_b 20.471379
_cell_length_c 13.086231
_cell_angle_alpha 90.000000
_cell_angle_beta 90.000000
_cell_angle_gamma 120.000000
_cell_volume 4749.407256
_symmetry_space_group_name_H-M "P -3 M 1"
_symmetry_group_IT_number 164
_symmetry_cell_setting 'hexagonal'
loop_
_space_group_symop_operation_xyz
x,y,z
-y,x-y,z
-x+y,-x,z
x-y,-y,-z
-x,-x+y,-z
y,x,-z
-x,-y,-z
y,-x+y,-z
x-y,x,-z
-x+y,y,z
x,x-y,z
-y,-x,z
loop_
_atom_site_type_symbol
_atom_site_label
_atom_site_fract_x
_atom_site_fract_y
_atom_site_fract_z
Si Si1 0.325143 0.088604 0.587085
Si Si2 0.818477 0.335863 0.419832
Si Si3 0.619672 0.086783 0.031594
Si Si4 0.530158 0.614332 0.373967
Si Si5 0.182342 0.665882 0.168571
Si Si6 0.733746 0.939183 0.642586
Si Si7 0.413859 0.130519 0.233678
O O1 0.350150 0.175075 0.616697
O O2 0.380725 0.056097 0.615984
O O3 0.312768 0.083732 0.464909
O O4 0.244244 0.028966 0.635155
O O5 0.793802 0.396901 0.394295
O O6 0.746778 0.253223 0.430758
O O7 0.861512 0.359706 0.527253
O O8 0.869719 0.333735 0.328607
O O9 0.550808 0.101615 0.055420
O O10 0.670044 0.102729 0.130814
O O11 0.662647 0.137430 0.933564
O O12 0.582146 0.000000 0.000000
O O13 0.478417 0.521584 0.376913
O O14 0.509476 0.637615 0.266798
O O15 0.209280 0.604640 0.154397
O O16 0.252405 0.747596 0.186990
O O17 0.769254 0.884627 0.649371
O O18 0.672870 0.915885 0.732261
O O19 0.433502 0.216751 0.220541
#
# Coordination Sequence:
#
# PCOD9578377 Si02
#       7
#    12  12  12  12  12  12  12
#     4  10  18  33  54  78 109 145 180 211 257 322
#     4  10  18  29  46  71 102 134 169 211 259 310
#     4  10  22  37  50  67  92 125 168 217 266 311
#     4  10  20  32  48  76 110 141 176 215 256 304
#     4  10  20  34  51  69  92 126 169 215 259 308
#     4   9  19  33  53  79 106 136 170 215 264 314
#     4  10  19  34  53  71  96 129 166 208 260 317
#
# _framework density 17.686418
#
# number of rings (size 3 to 8) (size 9 to 14) (size 15 to 20)
#    0.000    2.143    1.429    2.429    2.000    0.000 
#    0.000    3.571    0.000    5.143    0.000    2.000 
#    0.000    0.000    0.000    0.429    0.000    5.714 
#
# Total GULP energy -468020.243272 kJ/mol
# GULP energy per Si atom -5571.669563 kJ/mol
# Density = 1.764616 g / cm^3
# Si number density = 17.686418 Si / 1000 Ang^3
#
#
#
# Elastic Constant Matrix: (Units=GPa)
#
#
# Indices 1 2 3 4 5 6 
#
# 1 47.7550 12.8106 11.4576 4.1059 0.0000 0.0000
# 2 12.8106 47.7550 11.4576 -4.1059 0.0000 0.0000
# 3 11.4576 11.4576 95.2388 0.0000 0.0000 0.0000
# 4 4.1059 -4.1059 0.0000 16.5776 0.0000 0.0000
# 5 0.0000 0.0000 0.0000 0.0000 16.5776 4.1059
# 6 0.0000 0.0000 0.0000 0.0000 4.1059 17.4722
#
#
#
# Elastic Compliance Matrix: (Units=1/GPa)
#
#
# Indices 1 2 3 4 5 6 
#
# 1 0.023842 -0.006544 -0.002081 -0.007526 0.000000 0.000000
# 2 -0.006544 0.023842 -0.002081 0.007526 0.000000 0.000000
# 3 -0.002081 -0.002081 0.011001 0.000000 0.000000 0.000000
# 4 -0.007526 0.007526 0.000000 0.064050 0.000000 0.000000
# 5 0.000000 0.000000 0.000000 0.000000 0.064050 -0.015052
# 6 0.000000 0.000000 0.000000 0.000000 -0.015052 0.060771
#
#
# Mechanical properties :
#
#
# Convention : Reuss Voigt Hill
#
# Bulk Modulus (GPa) = 26.82896 29.13340 27.98118
# Shear Modulus (GPa) = 17.76882 20.46034 19.11458
#
# Velocity S-wave (km/s) = 3.17307 3.40492 3.29104
# Velocity P-wave (km/s) = 5.35039 5.65384 5.50421
#
# Compressibility (1/GPa) = 0.03727315
#
# Stress axis : x y z
#
# Youngs Moduli (GPa) = 41.94295 41.94295 90.90381
#
# Poissons Ratio (x) = 0.27445 0.18918
# Poissons Ratio (y) = 0.27445 0.18918
# Poissons Ratio (z) = 0.08729 0.08729
#
# Static dielectric constant tensor:
#      x y z
#    x 1.638800 0.000000 0.000000 
#    y 0.000000 1.638800 0.000000 
#    z 0.000000 0.000000 1.578060 
# 
# From -- ./inp_files/2897.got.cif
#   From: 2010.05.17/outbox.cif.g08.bks.cpg/sg164_2_cif.got.tgz:2897.got - 2010.05.20 10:58:56.
