data_PCOD9578791
_publ_section_title
;
Structure prediction by ZEFSAII (Michael W. Deem and Ramdas Pophale) SiO2 
 PCOD9578791
Probable space group: P -3 C 1
;
_chemical_formula_sum "Si O2"
_cell_formula_units_Z 56
_cell_length_a 12.319714
_cell_length_b 12.319714
_cell_length_c 21.667144
_cell_angle_alpha 90.000000
_cell_angle_beta 90.000000
_cell_angle_gamma 120.000000
_cell_volume 2847.957822
_symmetry_space_group_name_H-M "P -3 C 1"
_symmetry_group_IT_number 165
_symmetry_cell_setting 'hexagonal'
loop_
_space_group_symop_operation_xyz
x,y,z
-y,x-y,z
-x+y,-x,z
x-y,-y,1/2-z
-x,-x+y,1/2-z
y,x,1/2-z
-x,-y,-z
y,-x+y,-z
x-y,x,-z
-x+y,y,1/2+z
x,x-y,1/2+z
-y,-x,1/2+z
loop_
_atom_site_type_symbol
_atom_site_label
_atom_site_fract_x
_atom_site_fract_y
_atom_site_fract_z
Si Si1 0.666667 0.333334 0.037404
Si Si2 0.270790 0.056993 0.007885
Si Si3 0.144502 0.014336 0.823860
Si Si4 0.333334 0.666668 0.613854
Si Si5 0.481160 0.431277 0.565610
Si Si6 0.694719 0.588594 0.883542
O O1 0.803352 0.378130 0.063372
O O2 0.666668 0.333334 0.962014
O O3 0.373081 0.117392 0.953573
O O4 0.226820 0.156793 0.019388
O O5 0.341057 0.028721 0.062939
O O6 0.279309 0.046507 0.848387
O O7 0.110088 0.122449 0.842504
O O8 0.144063 0.000000 0.750000
O O9 0.241599 0.524549 0.635210
O O10 0.500000 0.500000 0.500000
O O11 0.525629 0.543497 0.614247
#
# Coordination Sequence:
#
# PCOD9578791 Si02
#       6
#     4  12  12   4  12  12
#     4  12  18  36  48  73 122 166 219 216 303 340
#     4  11  22  32  49  81 123 164 206 253 296 349
#     4   8  19  42  71  93 113 144 192 266 331 373
#     4  12  21  36  54  82 122 175 192 240 285 376
#     4  10  19  32  50  73 110 165 198 247 273 361
#     4  11  22  35  59  85 119 159 208 240 305 374
#
# _framework density 19.663214
#
# number of rings (size 3 to 8) (size 9 to 14) (size 15 to 20)
#    0.429    1.286    4.286    4.071    3.000    0.000 
#    3.857    0.000    4.714    0.000    0.000    0.000 
#    0.000    0.000    0.000    0.000    0.000    0.000 
#
# Total GULP energy -311926.602475 kJ/mol
# GULP energy per Si atom -5570.117901 kJ/mol
# Density = 1.961846 g / cm^3
# Si number density = 19.663214 Si / 1000 Ang^3
#
#
#
# Elastic Constant Matrix: (Units=GPa)
#
#
# Indices 1 2 3 4 5 6 
#
# 1 152.1933 71.9038 22.4598 3.1745 0.0000 0.0000
# 2 71.9038 152.1915 22.4597 -3.1742 0.0000 0.0000
# 3 22.4598 22.4597 23.2033 0.0001 0.0000 0.0000
# 4 3.1745 -3.1742 0.0001 22.1205 0.0000 0.0000
# 5 0.0000 0.0000 0.0000 0.0000 22.1204 3.1746
# 6 0.0000 0.0000 0.0000 0.0000 3.1746 40.1441
#
#
#
# Elastic Compliance Matrix: (Units=1/GPa)
#
#
# Indices 1 2 3 4 5 6 
#
# 1 0.009067 -0.003531 -0.005359 -0.001808 0.000000 0.000000
# 2 -0.003531 0.009067 -0.005359 0.001808 0.000000 0.000000
# 3 -0.005359 -0.005359 0.053472 0.000000 0.000000 0.000000
# 4 -0.001808 0.001808 0.000000 0.045726 0.000000 0.000000
# 5 0.000000 0.000000 0.000000 0.000000 0.045726 -0.003616
# 6 0.000000 0.000000 0.000000 0.000000 -0.003616 0.025196
#
#
# Mechanical properties :
#
#
# Convention : Reuss Voigt Hill
#
# Bulk Modulus (GPa) = 23.19714 62.35941 42.77828
# Shear Modulus (GPa) = 21.63351 30.92797 26.28074
#
# Velocity S-wave (km/s) = 3.32053 3.97026 3.65984
# Velocity P-wave (km/s) = 5.15015 7.26636 6.29778
#
# Compressibility (1/GPa) = 0.04310876
#
# Stress axis : x y z
#
# Youngs Moduli (GPa) = 110.28681 110.28564 18.70126
#
# Poissons Ratio (x) = 0.38939 0.10022
# Poissons Ratio (y) = 0.38939 0.10022
# Poissons Ratio (z) = 0.59105 0.59104
#
# Static dielectric constant tensor:
#      x y z
#    x 1.714280 0.000000 0.000000 
#    y 0.000000 1.714290 0.000000 
#    z 0.000000 0.000000 1.698480 
# 
# From -- ./inp_files/3094.got.cif
#   From: 2010.05.17/outbox.cif.g08.bks.cpg/sg165_2_cif.got.tgz:3094.got - 2010.05.20 11:02:39.
