data_PCOD9578524
_publ_section_title
;
Structure prediction by ZEFSAII (Michael W. Deem and Ramdas Pophale) SiO2 
 PCOD9578524
Probable space group: P -3 M 1
;
_chemical_formula_sum "Si O2"
_cell_formula_units_Z 24
_cell_length_a 18.309524
_cell_length_b 18.309524
_cell_length_c 5.246934
_cell_angle_alpha 90.000000
_cell_angle_beta 90.000000
_cell_angle_gamma 120.000000
_cell_volume 1523.317183
_symmetry_space_group_name_H-M "P -3 M 1"
_symmetry_group_IT_number 164
_symmetry_cell_setting 'hexagonal'
loop_
_space_group_symop_operation_xyz
x,y,z
-y,x-y,z
-x+y,-x,z
x-y,-y,-z
-x,-x+y,-z
y,x,-z
-x,-y,-z
y,-x+y,-z
x-y,x,-z
-x+y,y,z
x,x-y,z
-y,-x,z
loop_
_atom_site_type_symbol
_atom_site_label
_atom_site_fract_x
_atom_site_fract_y
_atom_site_fract_z
Si Si1 0.770094 0.229907 0.307378
Si Si2 0.280077 0.560154 0.193109
Si Si3 0.444349 0.057298 0.249770
O O1 0.756499 0.243502 0.602340
O O2 0.869075 0.289865 0.255173
O O3 0.732380 0.267621 0.100096
O O4 0.379337 0.620664 0.244111
O O5 0.545705 0.091409 0.248633
O O6 0.408910 0.000000 0.500000
O O7 0.407992 0.000000 0.000000
#
# Coordination Sequence:
#
# PCOD9578524 Si02
#       3
#     6   6  12
#     4  12  20  34  52  68  96 133 172 205 256 308
#     4  10  20  28  44  72  92 117 162 221 242 272
#     4  10  21  35  50  70 100 133 165 210 261 297
#
# _framework density 15.755089999999999
#
# number of rings (size 3 to 8) (size 9 to 14) (size 15 to 20)
#    0.500    1.000    0.000    7.500    0.000    4.000 
#    1.500    0.000    0.000    0.000    0.000    0.000 
#    0.000    0.000    0.000   15.000    0.000    0.000 
#
# Total GULP energy -133709.554671 kJ/mol
# GULP energy per Si atom -5571.231445 kJ/mol
# Density = 1.571923 g / cm^3
# Si number density = 15.755090 Si / 1000 Ang^3
#
#
#
# Elastic Constant Matrix: (Units=GPa)
#
#
# Indices 1 2 3 4 5 6 
#
# 1 72.8324 33.7323 25.1482 -0.8878 0.0000 0.0000
# 2 33.7323 72.8324 25.1482 0.8878 0.0000 0.0000
# 3 25.1482 25.1482 88.8789 0.0000 0.0000 0.0000
# 4 -0.8878 0.8878 0.0000 19.0135 0.0000 0.0000
# 5 0.0000 0.0000 0.0000 0.0000 19.0135 -0.8878
# 6 0.0000 0.0000 0.0000 0.0000 -0.8878 19.5501
#
#
#
# Elastic Compliance Matrix: (Units=1/GPa)
#
#
# Indices 1 2 3 4 5 6 
#
# 1 0.018230 -0.007400 -0.003064 0.001197 0.000000 0.000000
# 2 -0.007400 0.018230 -0.003064 -0.001197 0.000000 0.000000
# 3 -0.003064 -0.003064 0.012985 0.000000 0.000000 0.000000
# 4 0.001197 -0.001197 0.000000 0.052706 0.000000 0.000000
# 5 0.000000 0.000000 0.000000 0.000000 0.052706 0.002393
# 6 0.000000 0.000000 0.000000 0.000000 0.002393 0.051259
#
#
# Mechanical properties :
#
#
# Convention : Reuss Voigt Hill
#
# Bulk Modulus (GPa) = 44.66609 44.73344 44.69976
# Shear Modulus (GPa) = 20.77820 21.54974 21.16397
#
# Velocity S-wave (km/s) = 3.63550 3.70238 3.66910
# Velocity P-wave (km/s) = 6.78486 6.83604 6.81050
#
# Compressibility (1/GPa) = 0.02238835
#
# Stress axis : x y z
#
# Youngs Moduli (GPa) = 54.85461 54.85461 77.00950
#
# Poissons Ratio (x) = 0.40591 0.23599
# Poissons Ratio (y) = 0.40591 0.23599
# Poissons Ratio (z) = 0.16810 0.16810
#
# Static dielectric constant tensor:
#      x y z
#    x 1.550390 0.000000 0.000000 
#    y 0.000000 1.550390 0.000000 
#    z 0.000000 0.000000 1.530440 
# 
# From -- ./inp_files/123.got.cif
#   From: 2010.05.17/outbox.cif.g08.bks.cpg/sg164_1_cif.got.tgz:123.got - 2010.05.20 10:58:56.
