data_PCOD9578413
_publ_section_title
;
Structure prediction by ZEFSAII (Michael W. Deem and Ramdas Pophale) SiO2 
 PCOD9578413
Probable space group: P -3 M 1
;
_chemical_formula_sum "Si O2"
_cell_formula_units_Z 60
_cell_length_a 28.993814
_cell_length_b 28.993814
_cell_length_c 5.214928
_cell_angle_alpha 90.000000
_cell_angle_beta 90.000000
_cell_angle_gamma 120.000000
_cell_volume 3796.554560
_symmetry_space_group_name_H-M "P -3 M 1"
_symmetry_group_IT_number 164
_symmetry_cell_setting 'hexagonal'
loop_
_space_group_symop_operation_xyz
x,y,z
-y,x-y,z
-x+y,-x,z
x-y,-y,-z
-x,-x+y,-z
y,x,-z
-x,-y,-z
y,-x+y,-z
x-y,x,-z
-x+y,y,z
x,x-y,z
-y,-x,z
loop_
_atom_site_type_symbol
_atom_site_label
_atom_site_fract_x
_atom_site_fract_y
_atom_site_fract_z
Si Si1 0.141318 0.173578 0.261605
Si Si2 0.286399 0.089919 0.524059
Si Si3 0.421457 0.064769 0.996052
Si Si4 0.646670 0.768487 0.962904
Si Si5 0.935950 0.415964 0.495310
O O1 0.136226 0.136226 0.500000
O O2 0.087160 0.174320 0.219143
O O3 0.186765 0.232206 0.350610
O O4 0.157510 0.157510 0.000000
O O5 0.273969 0.136985 0.465799
O O6 0.310678 0.085261 0.256311
O O7 0.328988 0.108629 0.752005
O O8 0.396497 0.102698 0.039583
O O9 0.463119 0.076180 0.223511
O O10 0.452681 0.077641 0.727587
O O11 0.378011 0.000000 0.000000
O O12 0.632400 0.816200 0.912299
O O13 0.914550 0.457275 0.524398
O O14 0.000000 0.451535 0.500000
#
# Coordination Sequence:
#
# PCOD9578413 Si02
#       5
#    12  12  12  12  12
#     4  11  22  37  56  75  93 115 147 187 233 286
#     4   9  19  33  48  66  89 120 154 183 220 273
#     4  10  19  29  44  67  92 124 165 199 231 278
#     4  10  19  32  47  67  99 132 159 193 239 285
#     4   9  17  30  46  64  89 121 157 198 238 270
#
# _framework density 15.803804
#
# number of rings (size 3 to 8) (size 9 to 14) (size 15 to 20)
#    0.000    2.200    0.000    3.600    0.000    8.000 
#    0.000    0.000    0.000    4.000    0.000    0.000 
#    0.000    0.000    0.000   12.000    0.000    0.000 
#
# Total GULP energy -334050.414004 kJ/mol
# GULP energy per Si atom -5567.506900 kJ/mol
# Density = 1.576783 g / cm^3
# Si number density = 15.803804 Si / 1000 Ang^3
#
#
#
# Elastic Constant Matrix: (Units=GPa)
#
#
# Indices 1 2 3 4 5 6 
#
# 1 57.6796 39.6892 16.4298 10.4828 0.0000 0.0000
# 2 39.6892 57.6796 16.4298 -10.4828 0.0000 0.0000
# 3 16.4298 16.4298 84.9479 0.0000 0.0000 0.0000
# 4 10.4828 -10.4828 0.0000 4.8005 0.0000 0.0000
# 5 0.0000 0.0000 0.0000 0.0000 4.8005 10.4828
# 6 0.0000 0.0000 0.0000 0.0000 10.4828 8.9952
#
#
#
# Elastic Compliance Matrix: (Units=1/GPa)
#
#
# Indices 1 2 3 4 5 6 
#
# 1 -0.012497 0.023484 -0.002125 0.078572 0.000000 0.000000
# 2 0.023484 -0.012497 -0.002125 -0.078572 0.000000 0.000000
# 3 -0.002125 -0.002125 0.012594 0.000000 0.000000 0.000000
# 4 0.078572 -0.078572 0.000000 -0.134843 0.000000 0.000000
# 5 0.000000 0.000000 0.000000 0.000000 -0.134843 0.157144
# 6 0.000000 0.000000 0.000000 0.000000 0.157144 -0.071962
#
#
# Mechanical properties :
#
#
# Convention : Reuss Voigt Hill
#
# Bulk Modulus (GPa) = 38.36060 38.37832 38.36946
# Shear Modulus (GPa) = -13.02672 12.23644 -0.39514
#
# Velocity S-wave (km/s) = -2.87414 2.78559 -0.50057
# Velocity P-wave (km/s) = 3.64849 5.88923 4.89870
#
# Compressibility (1/GPa) = 0.02606841
#
# Stress axis : x y z
#
# Youngs Moduli (GPa) = -80.02081 -80.02081 79.40325
#
# Poissons Ratio (x) = 1.87922 0.16874
# Poissons Ratio (y) = 1.87922 0.16874
# Poissons Ratio (z) = -0.17005 -0.17005
#
# Static dielectric constant tensor:
#      x y z
#    x 1.540170 0.000000 0.000000 
#    y 0.000000 1.540170 0.000000 
#    z 0.000000 0.000000 1.442950 
# 
# From -- ./inp_files/685.got.cif
#   From: 2010.05.17/outbox.cif.g08.bks.cpg/sg164_1_cif.got.tgz:685.got - 2010.05.20 10:58:56.
