data_PCOD9578562
_publ_section_title
;
Structure prediction by ZEFSAII (Michael W. Deem and Ramdas Pophale) SiO2 
 PCOD9578562
Probable space group: P -3 M 1
;
_chemical_formula_sum "Si O2"
_cell_formula_units_Z 42
_cell_length_a 23.627031
_cell_length_b 23.627031
_cell_length_c 5.086604
_cell_angle_alpha 90.000000
_cell_angle_beta 90.000000
_cell_angle_gamma 120.000000
_cell_volume 2459.103808
_symmetry_space_group_name_H-M "P -3 M 1"
_symmetry_group_IT_number 164
_symmetry_cell_setting 'hexagonal'
loop_
_space_group_symop_operation_xyz
x,y,z
-y,x-y,z
-x+y,-x,z
x-y,-y,-z
-x,-x+y,-z
y,x,-z
-x,-y,-z
y,-x+y,-z
x-y,x,-z
-x+y,y,z
x,x-y,z
-y,-x,z
loop_
_atom_site_type_symbol
_atom_site_label
_atom_site_fract_x
_atom_site_fract_y
_atom_site_fract_z
Si Si1 0.177991 0.954531 0.747271
Si Si2 0.075610 0.659100 0.093047
Si Si3 0.523852 0.047704 0.752439
Si Si4 0.121811 0.745747 0.604921
O O1 0.104141 0.895860 0.777845
O O2 0.221789 0.920580 0.700273
O O3 0.187132 0.000000 0.500000
O O4 0.203154 0.000000 0.000000
O O5 0.086362 0.601743 0.213104
O O6 0.092222 0.709476 0.330667
O O7 0.116042 0.695909 0.833713
O O8 0.000000 0.625514 0.000000
O O9 0.500000 0.000000 0.500000
O O10 0.500000 0.000000 0.000000
O O11 0.195534 0.804467 0.568792
#
# Coordination Sequence:
#
# PCOD9578562 Si02
#       4
#    12  12   6  12
#     4  11  22  36  54  75  99 131 169 210 259 313
#     4  11  20  34  53  75 109 142 170 207 255 308
#     4  10  20  32  50  78 106 138 172 202 244 312
#     4  11  22  34  52  78 108 138 175 212 255 311
#
# _framework density 17.079391999999999
#
# number of rings (size 3 to 8) (size 9 to 14) (size 15 to 20)
#    0.000    1.143    0.000   10.286    0.000    4.571 
#    0.000    0.000    0.000    5.714    0.000    0.000 
#   28.571    0.000    0.000    0.000    0.000    0.000 
#
# Total GULP energy -234621.160463 kJ/mol
# GULP energy per Si atom -5586.218106 kJ/mol
# Density = 1.704052 g / cm^3
# Si number density = 17.079392 Si / 1000 Ang^3
#
#
#
# Elastic Constant Matrix: (Units=GPa)
#
#
# Indices 1 2 3 4 5 6 
#
# 1 86.9388 51.4960 41.5579 -5.2171 0.0000 0.0000
# 2 51.4960 86.9388 41.5579 5.2171 0.0000 0.0000
# 3 41.5579 41.5579 143.7693 0.0000 0.0000 0.0000
# 4 -5.2171 5.2171 0.0000 21.0541 0.0000 0.0000
# 5 0.0000 0.0000 0.0000 0.0000 21.0541 -5.2171
# 6 0.0000 0.0000 0.0000 0.0000 -5.2171 17.7214
#
#
#
# Elastic Compliance Matrix: (Units=1/GPa)
#
#
# Indices 1 2 3 4 5 6 
#
# 1 0.019588 -0.010847 -0.002527 0.007541 0.000000 0.000000
# 2 -0.010847 0.019588 -0.002527 -0.007541 0.000000 0.000000
# 3 -0.002527 -0.002527 0.008416 0.000000 0.000000 0.000000
# 4 0.007541 -0.007541 0.000000 0.051234 0.000000 0.000000
# 5 0.000000 0.000000 0.000000 0.000000 0.051234 0.015083
# 6 0.000000 0.000000 0.000000 0.000000 0.015083 0.060869
#
#
# Mechanical properties :
#
#
# Convention : Reuss Voigt Hill
#
# Bulk Modulus (GPa) = 63.32658 65.20784 64.26721
# Shear Modulus (GPa) = 20.16187 24.16826 22.16506
#
# Velocity S-wave (km/s) = 3.43954 3.76580 3.60636
# Velocity P-wave (km/s) = 7.27545 7.56112 7.41966
#
# Compressibility (1/GPa) = 0.01579116
#
# Stress axis : x y z
#
# Youngs Moduli (GPa) = 51.05278 51.05278 118.81800
#
# Poissons Ratio (x) = 0.55377 0.30020
# Poissons Ratio (y) = 0.55377 0.30020
# Poissons Ratio (z) = 0.12899 0.12899
#
# Static dielectric constant tensor:
#      x y z
#    x 1.596660 0.000000 0.000000 
#    y 0.000000 1.596660 0.000000 
#    z 0.000000 0.000000 1.561890 
# 
# From -- ./inp_files/330.got.cif
#   From: 2010.05.17/outbox.cif.g08.bks.cpg/sg164_1_cif.got.tgz:330.got - 2010.05.20 10:58:56.
