data_PCOD9578211
_publ_section_title
;
Structure prediction by ZEFSAII (Michael W. Deem and Ramdas Pophale) SiO2 
 PCOD9578211
Probable space group: P -3 1 C
;
_chemical_formula_sum "Si O2"
_cell_formula_units_Z 46
_cell_length_a 14.534123
_cell_length_b 14.534123
_cell_length_c 10.053883
_cell_angle_alpha 90.000000
_cell_angle_beta 90.000000
_cell_angle_gamma 120.000000
_cell_volume 1839.255744
_symmetry_space_group_name_H-M "P -3 1 C"
_symmetry_group_IT_number 163
_symmetry_cell_setting 'hexagonal'
loop_
_space_group_symop_operation_xyz
x,y,z
-y,x-y,z
-x+y,-x,z
-y,-x,1/2-z
-x+y,y,1/2-z
x,x-y,1/2-z
-x,-y,-z
y,-x+y,-z
x-y,x,-z
y,x,1/2+z
x-y,-y,1/2+z
-x,-x+y,1/2+z
loop_
_atom_site_type_symbol
_atom_site_label
_atom_site_fract_x
_atom_site_fract_y
_atom_site_fract_z
Si Si1 0.887304 0.121865 0.502103
Si Si2 0.401063 0.428491 0.162141
Si Si3 0.333335 0.666668 0.906822
Si Si4 0.437447 0.314166 0.398138
Si Si5 0.660242 0.830121 0.250000
O O1 0.803150 0.140253 0.421404
O O2 0.913903 0.188266 0.637323
O O3 0.002252 0.165170 0.441827
O O4 0.467072 0.532929 0.250000
O O5 0.431924 0.351179 0.246055
O O6 0.281240 0.401968 0.181888
O O7 0.395121 0.424049 0.000659
O O8 0.333334 0.666667 0.750000
O O9 0.323451 0.551169 0.936659
#
# Coordination Sequence:
#
# PCOD9578211 Si02
#       5
#    12  12   4  12   6
#     4  11  24  46  73 107 150 196 260 325 393 465
#     4  11  24  46  77 106 150 200 257 317 390 457
#     4  12  30  51  79 125 160 213 268 323 400 480
#     4  11  27  50  79 110 159 201 266 321 395 471
#     4  10  24  44  64 110 136 196 250 310 392 462
#
# _framework density 25.010116
#
# number of rings (size 3 to 8) (size 9 to 14) (size 15 to 20)
#    0.000    1.043    2.609    1.826    7.304    9.391 
#    0.783    0.000    0.000    0.000    0.000    0.000 
#    0.000    0.000    0.000    0.000    0.000    0.000 
#
# Total GULP energy -256263.883714 kJ/mol
# GULP energy per Si atom -5570.953994 kJ/mol
# Density = 2.495319 g / cm^3
# Si number density = 25.010116 Si / 1000 Ang^3
#
#
#
# Elastic Constant Matrix: (Units=GPa)
#
#
# Indices 1 2 3 4 5 6 
#
# 1 89.3966 81.1428 20.8586 -0.0015 -19.1654 0.0000
# 2 81.1428 89.3971 20.8587 0.0014 19.1656 0.0011
# 3 20.8586 20.8587 104.0654 -0.0002 -0.0001 0.0001
# 4 -0.0015 0.0014 -0.0002 27.9339 -0.0004 19.1655
# 5 -19.1654 19.1656 -0.0001 -0.0004 27.9341 -0.0006
# 6 0.0000 0.0011 0.0001 19.1655 -0.0006 4.1282
#
#
#
# Elastic Compliance Matrix: (Units=1/GPa)
#
#
# Indices 1 2 3 4 5 6 
#
# 1 -0.024626 0.030792 -0.001236 -0.000003 -0.038022 -0.000001
# 2 0.030792 -0.024626 -0.001236 0.000002 0.038022 0.000002
# 3 -0.001236 -0.001236 0.010105 0.000000 0.000000 0.000000
# 4 -0.000003 0.000002 0.000000 -0.016382 -0.000002 0.076054
# 5 -0.038022 0.038022 0.000000 -0.000002 -0.016375 -0.000003
# 6 -0.000001 0.000002 0.000000 0.076054 -0.000003 -0.110849
#
#
# Mechanical properties :
#
#
# Convention : Reuss Voigt Hill
#
# Bulk Modulus (GPa) = 57.16482 58.73102 57.94792
# Shear Modulus (GPa) = -21.40761 22.66583 0.62911
#
# Velocity S-wave (km/s) = -2.92885 3.01369 0.50208
# Velocity P-wave (km/s) = 3.38655 5.97023 4.85347
#
# Compressibility (1/GPa) = 0.01749327
#
# Stress axis : x y z
#
# Youngs Moduli (GPa) = -40.60770 -40.60778 98.96295
#
# Poissons Ratio (x) = 1.25039 0.12232
# Poissons Ratio (y) = 1.25039 0.12230
# Poissons Ratio (z) = -0.05019 -0.05018
#
# Static dielectric constant tensor:
#      x y z
#    x 2.056380 0.000000 0.000000 
#    y 0.000000 2.056380 0.000000 
#    z 0.000000 0.000000 2.371890 
# 
# From -- ./inp_files/1598.got.cif
#   From: 2010.05.17/outbox.cif.g08.bks.cpg/sg163_1_cif.got.tgz:1598.got - 2010.05.20 10:56:03.
