data_PCOD9578953
_publ_section_title
;
Structure prediction by ZEFSAII (Michael W. Deem and Ramdas Pophale) SiO2 
 PCOD9578953
Probable space group: P -3 C 1
;
_chemical_formula_sum "Si O2"
_cell_formula_units_Z 84
_cell_length_a 17.963128
_cell_length_b 17.963128
_cell_length_c 13.842891
_cell_angle_alpha 90.000000
_cell_angle_beta 90.000000
_cell_angle_gamma 120.000000
_cell_volume 3868.310798
_symmetry_space_group_name_H-M "P -3 C 1"
_symmetry_group_IT_number 165
_symmetry_cell_setting 'hexagonal'
loop_
_space_group_symop_operation_xyz
x,y,z
-y,x-y,z
-x+y,-x,z
x-y,-y,1/2-z
-x,-x+y,1/2-z
y,x,1/2-z
-x,-y,-z
y,-x+y,-z
x-y,x,-z
-x+y,y,1/2+z
x,x-y,1/2+z
-y,-x,1/2+z
loop_
_atom_site_type_symbol
_atom_site_label
_atom_site_fract_x
_atom_site_fract_y
_atom_site_fract_z
Si Si1 0.456539 0.531618 0.320506
Si Si2 0.897469 0.793498 0.268678
Si Si3 0.996038 0.345037 0.134551
Si Si4 0.593803 0.223645 0.335008
Si Si5 0.142316 0.674592 0.494294
Si Si6 0.878171 0.810179 0.482304
Si Si7 0.337093 0.164797 0.105821
O O1 0.464994 0.464994 0.250000
O O2 0.548984 0.591820 0.367541
O O3 0.440681 0.593893 0.249081
O O4 0.390551 0.484879 0.406554
O O5 0.846813 0.846813 0.250000
O O6 0.885760 0.774098 0.381140
O O7 0.855999 0.702302 0.213070
O O8 0.000000 0.853772 0.250000
O O9 0.928840 0.254694 0.087302
O O10 0.000000 0.329376 0.250000
O O11 0.083707 0.397250 0.075277
O O12 0.697316 0.272486 0.324912
O O13 0.554355 0.187796 0.440679
O O14 0.193794 0.764382 0.434941
O O15 0.853730 0.882681 0.468396
O O16 0.818763 0.731607 0.549614
#
# Coordination Sequence:
#
# PCOD9578953 Si02
#       7
#    12  12  12  12  12  12  12
#     4  11  25  48  75 104 142 190 233 291 361 449
#     4  12  24  43  67  97 142 195 253 304 364 417
#     4  11  25  47  73 100 144 190 236 287 367 439
#     4  10  26  46  77 110 146 180 239 299 360 431
#     4  12  27  47  74 109 142 193 240 293 371 430
#     4  12  23  43  65  96 137 189 247 298 355 419
#     4  12  28  40  70 103 141 191 234 311 354 431
#
# _framework density 21.714905000000002
#
# number of rings (size 3 to 8) (size 9 to 14) (size 15 to 20)
#    0.286    0.286    5.714    2.000    6.000    0.571 
#    0.000    0.000    0.000    0.000    0.000    0.000 
#    0.000    0.000    0.000    0.000    0.000    0.000 
#
# Total GULP energy -468270.787960 kJ/mol
# GULP energy per Si atom -5574.652238 kJ/mol
# Density = 2.166548 g / cm^3
# Si number density = 21.714905 Si / 1000 Ang^3
#
#
#
# Elastic Constant Matrix: (Units=GPa)
#
#
# Indices 1 2 3 4 5 6 
#
# 1 54.0205 -9.1203 21.5858 -3.9437 0.0000 0.0000
# 2 -9.1203 54.0205 21.5858 3.9437 0.0000 0.0000
# 3 21.5858 21.5858 113.5184 0.0000 0.0000 0.0000
# 4 -3.9437 3.9437 0.0000 25.1050 0.0000 0.0000
# 5 0.0000 0.0000 0.0000 0.0000 25.1050 -3.9437
# 6 0.0000 0.0000 0.0000 0.0000 -3.9437 31.5704
#
#
#
# Elastic Compliance Matrix: (Units=1/GPa)
#
#
# Indices 1 2 3 4 5 6 
#
# 1 0.021705 0.005550 -0.005183 0.002538 0.000000 0.000000
# 2 0.005550 0.021705 -0.005183 -0.002538 0.000000 0.000000
# 3 -0.005183 -0.005183 0.010780 0.000000 0.000000 0.000000
# 4 0.002538 -0.002538 0.000000 0.040630 0.000000 0.000000
# 5 0.000000 0.000000 0.000000 0.000000 0.040630 0.005075
# 6 0.000000 0.000000 0.000000 0.000000 0.005075 0.032309
#
#
# Mechanical properties :
#
#
# Convention : Reuss Voigt Hill
#
# Bulk Modulus (GPa) = 22.44207 32.18466 27.31336
# Shear Modulus (GPa) = 26.00893 28.85662 27.43278
#
# Velocity S-wave (km/s) = 3.46460 3.64934 3.55817
# Velocity P-wave (km/s) = 5.13439 5.71057 5.43012
#
# Compressibility (1/GPa) = 0.04455918
#
# Stress axis : x y z
#
# Youngs Moduli (GPa) = 46.07316 46.07316 92.76368
#
# Poissons Ratio (x) = -0.25571 0.48075
# Poissons Ratio (y) = -0.25571 0.48075
# Poissons Ratio (z) = 0.23878 0.23878
#
# Static dielectric constant tensor:
#      x y z
#    x 1.833450 0.000000 0.000000 
#    y 0.000000 1.833450 0.000000 
#    z 0.000000 0.000000 1.816060 
# 
# From -- ./inp_files/1866.got.cif
#   From: 2010.05.17/outbox.cif.g08.bks.cpg/sg165_1_cif.got.tgz:1866.got - 2010.05.20 11:02:39.
