data_PCOD9578573
_publ_section_title
;
Structure prediction by ZEFSAII (Michael W. Deem and Ramdas Pophale) SiO2 
 PCOD9578573
Probable space group: P -3 M 1
;
_chemical_formula_sum "Si O2"
_cell_formula_units_Z 72
_cell_length_a 12.692124
_cell_length_b 12.692124
_cell_length_c 31.777645
_cell_angle_alpha 90.000000
_cell_angle_beta 90.000000
_cell_angle_gamma 120.000000
_cell_volume 4433.237045
_symmetry_space_group_name_H-M "P -3 M 1"
_symmetry_group_IT_number 164
_symmetry_cell_setting 'hexagonal'
loop_
_space_group_symop_operation_xyz
x,y,z
-y,x-y,z
-x+y,-x,z
x-y,-y,-z
-x,-x+y,-z
y,x,-z
-x,-y,-z
y,-x+y,-z
x-y,x,-z
-x+y,y,z
x,x-y,z
-y,-x,z
loop_
_atom_site_type_symbol
_atom_site_label
_atom_site_fract_x
_atom_site_fract_y
_atom_site_fract_z
Si Si1 0.250913 0.250913 0.000000
Si Si2 0.667231 0.083556 0.081885
Si Si3 0.917228 0.584128 0.754396
Si Si4 0.583724 0.666093 0.672737
Si Si5 0.748877 0.000000 0.500000
Si Si6 0.999825 0.250737 0.836467
Si Si7 0.999984 0.747691 0.407931
O O1 0.311885 0.333829 0.959116
O O2 0.238116 0.119058 0.994446
O O3 0.537627 0.075253 0.081321
O O4 0.776236 0.223765 0.081974
O O5 0.685713 0.022283 0.123436
O O6 0.783988 0.567977 0.749590
O O7 0.909191 0.454596 0.760375
O O8 0.996699 0.644835 0.712780
O O9 0.978988 0.669520 0.794743
O O10 0.579874 0.789937 0.677786
O O11 0.448894 0.551107 0.670014
O O12 0.657891 0.678250 0.630242
O O13 0.692589 0.997380 0.545610
O O14 0.881290 0.118711 0.501452
O O15 0.118341 0.236681 0.831884
O O16 0.880012 0.119989 0.842857
O O17 0.126143 0.873858 0.403241
O O18 0.886151 0.772302 0.406854
#
# Coordination Sequence:
#
# PCOD9578573 Si02
#       7
#     6  12  12  12   6  12  12
#     4  10  20  34  54  78 104 134 168 208 252 298
#     4  10  20  34  52  74 101 133 168 205 244 287
#     4  10  20  34  52  73  97 125 157 195 239 286
#     4  10  20  33  48  66  90 122 159 196 233 275
#     4   8  13  22  39  64  92 118 144 178 224 278
#     4  10  20  34  53  76 102 131 162 198 239 284
#     4   9  16  27  45  69  94 118 146 184 232 282
#
# _framework density 16.240953000000001
#
# number of rings (size 3 to 8) (size 9 to 14) (size 15 to 20)
#    0.000    2.333    0.000    3.250    0.000    1.333 
#    0.000    2.083    0.000   15.667    0.000    0.000 
#    0.000    0.000    0.000    0.000    0.000    0.000 
#
# Total GULP energy -401456.892323 kJ/mol
# GULP energy per Si atom -5575.790171 kJ/mol
# Density = 1.620399 g / cm^3
# Si number density = 16.240953 Si / 1000 Ang^3
#
#
#
# Elastic Constant Matrix: (Units=GPa)
#
#
# Indices 1 2 3 4 5 6 
#
# 1 108.5900 71.3782 91.0986 0.8400 0.0000 0.0000
# 2 71.3782 108.5900 91.0986 -0.8400 0.0000 0.0000
# 3 91.0986 91.0986 173.7578 0.0000 0.0000 0.0000
# 4 0.8400 -0.8400 0.0000 23.5404 0.0000 0.0000
# 5 0.0000 0.0000 0.0000 0.0000 23.5404 0.8400
# 6 0.0000 0.0000 0.0000 0.0000 0.8400 18.6059
#
#
#
# Elastic Compliance Matrix: (Units=1/GPa)
#
#
# Indices 1 2 3 4 5 6 
#
# 1 0.019379 -0.007537 -0.006209 -0.000960 0.000000 0.000000
# 2 -0.007537 0.019379 -0.006209 0.000960 0.000000 0.000000
# 3 -0.006209 -0.006209 0.012265 0.000000 0.000000 0.000000
# 4 -0.000960 0.000960 0.000000 0.042549 0.000000 0.000000
# 5 0.000000 0.000000 0.000000 0.000000 0.042549 -0.001921
# 6 0.000000 0.000000 0.000000 0.000000 -0.001921 0.053833
#
#
# Mechanical properties :
#
#
# Convention : Reuss Voigt Hill
#
# Bulk Modulus (GPa) = 89.96889 99.78763 94.87826
# Shear Modulus (GPa) = 21.40704 22.29486 21.85095
#
# Velocity S-wave (km/s) = 3.63449 3.70909 3.67198
# Velocity P-wave (km/s) = 8.55156 8.93972 8.74779
#
# Compressibility (1/GPa) = 0.01111495
#
# Stress axis : x y z
#
# Youngs Moduli (GPa) = 51.60152 51.60152 81.53092
#
# Poissons Ratio (x) = 0.38893 0.50619
# Poissons Ratio (y) = 0.38893 0.50619
# Poissons Ratio (z) = 0.32037 0.32037
#
# Static dielectric constant tensor:
#      x y z
#    x 1.511120 0.000000 0.000000 
#    y 0.000000 1.511120 0.000000 
#    z 0.000000 0.000000 1.551680 
# 
# From -- ./inp_files/5610.got.cif
#   From: 2010.05.17/outbox.cif.g08.bks.cpg/sg164_3_cif.got.tgz:5610.got - 2010.05.20 10:58:56.
