data_PCOD9578651
_publ_section_title
;
Structure prediction by ZEFSAII (Michael W. Deem and Ramdas Pophale) SiO2 
 PCOD9578651
Probable space group: P -3 M 1
;
_chemical_formula_sum "Si O2"
_cell_formula_units_Z 72
_cell_length_a 21.695042
_cell_length_b 21.695042
_cell_length_c 10.660892
_cell_angle_alpha 90.000000
_cell_angle_beta 90.000000
_cell_angle_gamma 120.000000
_cell_volume 4345.554149
_symmetry_space_group_name_H-M "P -3 M 1"
_symmetry_group_IT_number 164
_symmetry_cell_setting 'hexagonal'
loop_
_space_group_symop_operation_xyz
x,y,z
-y,x-y,z
-x+y,-x,z
x-y,-y,-z
-x,-x+y,-z
y,x,-z
-x,-y,-z
y,-x+y,-z
x-y,x,-z
-x+y,y,z
x,x-y,z
-y,-x,z
loop_
_atom_site_type_symbol
_atom_site_label
_atom_site_fract_x
_atom_site_fract_y
_atom_site_fract_z
Si Si1 0.188112 0.666577 0.457910
Si Si2 0.453029 0.050857 0.384809
Si Si3 0.354013 0.990830 0.867047
Si Si4 0.951534 0.755299 0.120284
Si Si5 0.612623 0.736409 0.280842
Si Si6 0.232328 0.188720 0.627365
O O1 0.193469 0.596735 0.427021
O O2 0.265157 0.734844 0.482797
O O3 0.132382 0.645083 0.571777
O O4 0.151482 0.689092 0.349113
O O5 0.517285 0.034569 0.369957
O O6 0.413005 0.036959 0.253923
O O7 0.405543 0.000000 0.500000
O O8 0.268540 0.946795 0.883777
O O9 0.374659 0.070463 0.829545
O O10 0.392042 0.000000 0.000000
O O11 0.875755 0.751510 0.116893
O O12 0.993428 0.790452 0.250082
O O13 0.000000 0.797346 0.000000
O O14 0.615884 0.807942 0.235970
O O15 0.681308 0.761940 0.371052
O O16 0.202452 0.202452 0.500000
O O17 0.216081 0.108041 0.636021
#
# Coordination Sequence:
#
# PCOD9578651 Si02
#       6
#    12  12  12  12  12  12
#     4  10  20  34  55  80 108 143 184 227 268 316
#     4  10  20  35  54  77 111 147 178 218 269 323
#     4  10  21  33  52  81 111 141 180 223 271 325
#     4  10  21  36  55  75 103 142 182 225 271 327
#     4   9  19  33  51  75 106 143 179 218 269 324
#     4  10  20  33  52  77 104 134 172 222 276 328
#
# _framework density 16.568657000000002
#
# number of rings (size 3 to 8) (size 9 to 14) (size 15 to 20)
#    0.000    2.167    1.667    1.167    4.667    5.000 
#    0.000    0.000    0.000    6.667    0.000    0.000 
#    0.000    6.667    0.000    0.000    0.000    0.000 
#
# Total GULP energy -401249.927530 kJ/mol
# GULP energy per Si atom -5572.915660 kJ/mol
# Density = 1.653095 g / cm^3
# Si number density = 16.568657 Si / 1000 Ang^3
#
#
#
# Elastic Constant Matrix: (Units=GPa)
#
#
# Indices 1 2 3 4 5 6 
#
# 1 91.2537 60.8186 48.3429 -1.8268 0.0000 0.0000
# 2 60.8186 91.2537 48.3429 1.8268 0.0000 0.0000
# 3 48.3429 48.3429 114.5311 0.0000 0.0000 0.0000
# 4 -1.8268 1.8268 0.0000 17.8281 0.0000 0.0000
# 5 0.0000 0.0000 0.0000 0.0000 17.8281 -1.8268
# 6 0.0000 0.0000 0.0000 0.0000 -1.8268 15.2175
#
#
#
# Elastic Compliance Matrix: (Units=1/GPa)
#
#
# Indices 1 2 3 4 5 6 
#
# 1 0.021127 -0.012139 -0.003794 0.003409 0.000000 0.000000
# 2 -0.012139 0.021127 -0.003794 -0.003409 0.000000 0.000000
# 3 -0.003794 -0.003794 0.011934 0.000000 0.000000 0.000000
# 4 0.003409 -0.003409 0.000000 0.056790 0.000000 0.000000
# 5 0.000000 0.000000 0.000000 0.000000 0.056790 0.006818
# 6 0.000000 0.000000 0.000000 0.000000 0.006818 0.066532
#
#
# Mechanical properties :
#
#
# Convention : Reuss Voigt Hill
#
# Bulk Modulus (GPa) = 67.86716 68.00525 67.93621
# Shear Modulus (GPa) = 17.94276 19.47703 18.70990
#
# Velocity S-wave (km/s) = 3.29437 3.43233 3.36405
# Velocity P-wave (km/s) = 7.45121 7.53933 7.49540
#
# Compressibility (1/GPa) = 0.01473467
#
# Stress axis : x y z
#
# Youngs Moduli (GPa) = 47.33295 47.33295 83.79533
#
# Poissons Ratio (x) = 0.57458 0.31789
# Poissons Ratio (y) = 0.57458 0.31789
# Poissons Ratio (z) = 0.17957 0.17957
#
# Static dielectric constant tensor:
#      x y z
#    x 1.566640 0.000000 0.000000 
#    y 0.000000 1.566640 0.000000 
#    z 0.000000 0.000000 1.555090 
# 
# From -- ./inp_files/1912.got.cif
#   From: 2010.05.17/outbox.cif.g08.bks.cpg/sg164_1_cif.got.tgz:1912.got - 2010.05.20 10:58:56.
