data_PCOD9578718
_publ_section_title
;
Structure prediction by ZEFSAII (Michael W. Deem and Ramdas Pophale) SiO2 
 PCOD9578718
Probable space group: P -3 M 1
;
_chemical_formula_sum "Si O2"
_cell_formula_units_Z 84
_cell_length_a 18.206426
_cell_length_b 18.206426
_cell_length_c 15.129013
_cell_angle_alpha 90.000000
_cell_angle_beta 90.000000
_cell_angle_gamma 120.000000
_cell_volume 4343.007990
_symmetry_space_group_name_H-M "P -3 M 1"
_symmetry_group_IT_number 164
_symmetry_cell_setting 'hexagonal'
loop_
_space_group_symop_operation_xyz
x,y,z
-y,x-y,z
-x+y,-x,z
x-y,-y,-z
-x,-x+y,-z
y,x,-z
-x,-y,-z
y,-x+y,-z
x-y,x,-z
-x+y,y,z
x,x-y,z
-y,-x,z
loop_
_atom_site_type_symbol
_atom_site_label
_atom_site_fract_x
_atom_site_fract_y
_atom_site_fract_z
Si Si1 0.499565 0.831472 0.142445
Si Si2 0.234392 0.296343 0.582113
Si Si3 0.431078 0.403946 0.356955
Si Si4 0.296356 0.061960 0.082107
Si Si5 0.972870 0.568926 0.143080
Si Si6 0.668092 0.168529 0.642399
Si Si7 0.824756 0.825312 0.750003
O O1 0.404182 0.808364 0.118182
O O2 0.521166 0.760583 0.110814
O O3 0.502016 0.831313 0.250023
O O4 0.561000 0.928774 0.116316
O O5 0.260173 0.260173 0.500000
O O6 0.148256 0.296511 0.565726
O O7 0.310484 0.389835 0.605376
O O8 0.218704 0.234528 0.665356
O O9 0.525153 0.474848 0.385750
O O10 0.431508 0.400990 0.250018
O O11 0.367784 0.439008 0.383725
O O12 0.296533 0.148267 0.065697
O O13 0.389840 0.079354 0.105403
O O14 0.234522 0.015843 0.165341
O O15 0.260199 0.000000 0.000000
O O16 0.949706 0.474853 0.114285
O O17 0.595822 0.191644 0.618137
O O18 0.760586 0.239415 0.610769
O O19 0.909294 0.818588 0.750007
O O20 0.847223 0.923612 0.749988
#
# Coordination Sequence:
#
# PCOD9578718 Si02
#       7
#    12  12  12  12  12  12  12
#     4   8  13  21  37  65 102 141 178 215 263 325
#     4  11  23  39  60  88 118 155 201 251 306 364
#     4   9  18  34  55  82 115 152 191 235 288 346
#     4  11  23  39  60  88 118 155 201 251 306 364
#     4   9  18  34  55  82 115 152 191 235 288 346
#     4   8  13  21  37  65 102 141 178 215 263 325
#     4  10  21  38  59  84 116 154 198 252 313 372
#
# _framework density 19.341434
#
# number of rings (size 3 to 8) (size 9 to 14) (size 15 to 20)
#    0.000    2.571    1.429    3.000    0.000    4.000 
#    0.000    0.000    0.000    5.143    0.000    2.000 
#    0.000    0.000    0.000    0.000    0.000    0.000 
#
# Total GULP energy -469011.822017 kJ/mol
# GULP energy per Si atom -5583.474072 kJ/mol
# Density = 1.929741 g / cm^3
# Si number density = 19.341434 Si / 1000 Ang^3
#
#
#
# Elastic Constant Matrix: (Units=GPa)
#
#
# Indices 1 2 3 4 5 6 
#
# 1 77.7094 63.7510 39.5229 0.0039 0.0000 0.0000
# 2 63.7510 77.7094 39.5229 -0.0039 0.0000 0.0000
# 3 39.5229 39.5229 75.2882 0.0000 0.0000 0.0000
# 4 0.0039 -0.0039 0.0000 11.9072 0.0000 0.0000
# 5 0.0000 0.0000 0.0000 0.0000 11.9072 0.0039
# 6 0.0000 0.0000 0.0000 0.0000 0.0039 6.9792
#
#
#
# Elastic Compliance Matrix: (Units=1/GPa)
#
#
# Indices 1 2 3 4 5 6 
#
# 1 0.040823 -0.030819 -0.005251 -0.000023 0.000000 0.000000
# 2 -0.030819 0.040823 -0.005251 0.000023 0.000000 0.000000
# 3 -0.005251 -0.005251 0.018796 0.000000 0.000000 0.000000
# 4 -0.000023 0.000023 0.000000 0.083983 0.000000 0.000000
# 5 0.000000 0.000000 0.000000 0.000000 0.083983 -0.000047
# 6 0.000000 0.000000 0.000000 0.000000 -0.000047 0.143284
#
#
# Mechanical properties :
#
#
# Convention : Reuss Voigt Hill
#
# Bulk Modulus (GPa) = 56.18848 57.36672 56.77760
# Shear Modulus (GPa) = 9.99467 12.01937 11.00702
#
# Velocity S-wave (km/s) = 2.27568 2.49556 2.38815
# Velocity P-wave (km/s) = 6.00157 6.16670 6.08469
#
# Compressibility (1/GPa) = 0.01779724
#
# Stress axis : x y z
#
# Youngs Moduli (GPa) = 24.49621 24.49621 53.20342
#
# Poissons Ratio (x) = 0.75495 0.27939
# Poissons Ratio (y) = 0.75495 0.27939
# Poissons Ratio (z) = 0.12864 0.12864
#
# Static dielectric constant tensor:
#      x y z
#    x 1.666470 0.000000 0.000000 
#    y 0.000000 1.666470 0.000000 
#    z 0.000000 0.000000 1.703770 
# 
# From -- ./inp_files/3599.got.cif
#   From: 2010.05.17/outbox.cif.g08.bks.cpg/sg164_2_cif.got.tgz:3599.got - 2010.05.20 10:58:56.
