data_PCOD9578357
_publ_section_title
;
Structure prediction by ZEFSAII (Michael W. Deem and Ramdas Pophale) SiO2 
 PCOD9578357
Probable space group: P -3 M 1
;
_chemical_formula_sum "Si O2"
_cell_formula_units_Z 42
_cell_length_a 16.530032
_cell_length_b 16.530032
_cell_length_c 10.975922
_cell_angle_alpha 90.000000
_cell_angle_beta 90.000000
_cell_angle_gamma 120.000000
_cell_volume 2597.281561
_symmetry_space_group_name_H-M "P -3 M 1"
_symmetry_group_IT_number 164
_symmetry_cell_setting 'hexagonal'
loop_
_space_group_symop_operation_xyz
x,y,z
-y,x-y,z
-x+y,-x,z
x-y,-y,-z
-x,-x+y,-z
y,x,-z
-x,-y,-z
y,-x+y,-z
x-y,x,-z
-x+y,y,z
x,x-y,z
-y,-x,z
loop_
_atom_site_type_symbol
_atom_site_label
_atom_site_fract_x
_atom_site_fract_y
_atom_site_fract_z
Si Si1 0.000272 0.815550 0.695067
Si Si2 0.332911 0.858282 0.675256
Si Si3 0.000000 0.316722 0.500000
Si Si4 0.333807 0.259300 0.099658
O O1 0.921976 0.843952 0.704177
O O2 0.966824 0.727573 0.606037
O O3 0.024093 0.786829 0.823897
O O4 0.097876 0.902125 0.647720
O O5 0.430071 0.860141 0.680453
O O6 0.245977 0.754023 0.661900
O O7 0.313218 0.898992 0.799366
O O8 0.330558 0.920546 0.563519
O O9 0.345102 0.172551 0.051440
O O10 0.324788 0.324788 0.000000
#
# Coordination Sequence:
#
# PCOD9578357 Si02
#       4
#    12  12   6  12
#     4  10  18  28  44  67  98 132 164 196 229 270
#     4  10  20  34  52  72  94 120 153 193 235 279
#     4  10  19  32  47  68  94 122 154 192 235 278
#     4   9  18  31  47  68  94 124 157 192 230 273
#
# _framework density 16.170753999999999
#
# number of rings (size 3 to 8) (size 9 to 14) (size 15 to 20)
#    0.000    2.286    0.000    6.143    0.000    0.571 
#    0.000    1.429    0.000    4.571    0.000    0.000 
#    0.000   18.286    0.000    0.000    0.000    0.000 
#
# Total GULP energy -234066.829596 kJ/mol
# GULP energy per Si atom -5573.019752 kJ/mol
# Density = 1.613395 g / cm^3
# Si number density = 16.170754 Si / 1000 Ang^3
#
#
#
# Elastic Constant Matrix: (Units=GPa)
#
#
# Indices 1 2 3 4 5 6 
#
# 1 108.4567 59.1799 42.5248 -2.5041 0.0000 0.0000
# 2 59.1799 108.4567 42.5248 2.5041 0.0000 0.0000
# 3 42.5248 42.5248 47.5054 0.0000 0.0000 0.0000
# 4 -2.5041 2.5041 0.0000 11.4915 0.0000 0.0000
# 5 0.0000 0.0000 0.0000 0.0000 11.4915 -2.5041
# 6 0.0000 0.0000 0.0000 0.0000 -2.5041 24.6384
#
#
#
# Elastic Compliance Matrix: (Units=1/GPa)
#
#
# Indices 1 2 3 4 5 6 
#
# 1 0.015841 -0.004912 -0.009783 0.004522 0.000000 0.000000
# 2 -0.004912 0.015841 -0.009783 -0.004522 0.000000 0.000000
# 3 -0.009783 -0.009783 0.038564 0.000000 0.000000 0.000000
# 4 0.004522 -0.004522 0.000000 0.088992 0.000000 0.000000
# 5 0.000000 0.000000 0.000000 0.000000 0.088992 0.009045
# 6 0.000000 0.000000 0.000000 0.000000 0.009045 0.041506
#
#
# Mechanical properties :
#
#
# Convention : Reuss Voigt Hill
#
# Bulk Modulus (GPa) = 46.96936 61.43088 54.20012
# Shear Modulus (GPa) = 14.45972 17.53690 15.99831
#
# Velocity S-wave (km/s) = 2.99354 3.29672 3.14878
# Velocity P-wave (km/s) = 6.40760 7.25000 6.84178
#
# Compressibility (1/GPa) = 0.02129047
#
# Stress axis : x y z
#
# Youngs Moduli (GPa) = 63.12800 63.12800 25.93064
#
# Poissons Ratio (x) = 0.31010 0.25367
# Poissons Ratio (y) = 0.31010 0.25367
# Poissons Ratio (z) = 0.61757 0.61757
#
# Static dielectric constant tensor:
#      x y z
#    x 1.526640 0.000000 0.000000 
#    y 0.000000 1.526640 0.000000 
#    z 0.000000 0.000000 1.554210 
# 
# From -- ./inp_files/2275.got.cif
#   From: 2010.05.17/outbox.cif.g08.bks.cpg/sg164_2_cif.got.tgz:2275.got - 2010.05.20 10:58:56.
