data_PCOD9578094
_publ_section_title
;
Structure prediction by ZEFSAII (Michael W. Deem and Ramdas Pophale) SiO2 
 PCOD9578094
Probable space group: P -3 1 C
;
_chemical_formula_sum "Si O2"
_cell_formula_units_Z 60
_cell_length_a 16.668889
_cell_length_b 16.668889
_cell_length_c 11.584731
_cell_angle_alpha 90.000000
_cell_angle_beta 90.000000
_cell_angle_gamma 120.000000
_cell_volume 2787.596398
_symmetry_space_group_name_H-M "P -3 1 C"
_symmetry_group_IT_number 163
_symmetry_cell_setting 'hexagonal'
loop_
_space_group_symop_operation_xyz
x,y,z
-y,x-y,z
-x+y,-x,z
-y,-x,1/2-z
-x+y,y,1/2-z
x,x-y,1/2-z
-x,-y,-z
y,-x+y,-z
x-y,x,-z
y,x,1/2+z
x-y,-y,1/2+z
-x,-x+y,1/2+z
loop_
_atom_site_type_symbol
_atom_site_label
_atom_site_fract_x
_atom_site_fract_y
_atom_site_fract_z
Si Si1 0.878850 0.467634 0.122907
Si Si2 0.670263 0.745188 0.213120
Si Si3 0.655208 0.763754 0.851137
Si Si4 0.425373 0.518275 0.371605
Si Si5 0.133360 0.197944 0.470259
O O1 0.843676 0.421838 0.250000
O O2 0.856609 0.549887 0.122077
O O3 0.989655 0.505243 0.126172
O O4 0.856221 0.429931 0.990431
O O5 0.642731 0.821366 0.250000
O O6 0.699207 0.698615 0.314520
O O7 0.585985 0.663331 0.141206
O O8 0.766701 0.805651 0.143877
O O9 0.662701 0.831351 0.750000
O O10 0.708469 0.827439 0.958058
O O11 0.431689 0.568312 0.250000
O O12 0.152537 0.127898 0.543493
#
# Coordination Sequence:
#
# PCOD9578094 Si02
#       5
#    12  12  12  12  12
#     4  10  20  37  63  95 128 158 208 268 332 390
#     4  12  23  39  62  93 130 175 224 282 329 406
#     4  12  23  39  62  93 130 175 224 282 329 406
#     4  10  20  37  63  95 128 158 208 268 332 390
#     4  12  25  40  59  86 132 184 242 288 347 396
#
# _framework density 21.523918999999999
#
# number of rings (size 3 to 8) (size 9 to 14) (size 15 to 20)
#    0.000    0.800   10.000    0.200    0.000    0.000 
#    3.600    0.000    0.000    0.800    0.000    0.000 
#    0.000    0.000    0.000    0.000    0.000    0.000 
#
# Total GULP energy -334315.437562 kJ/mol
# GULP energy per Si atom -5571.923959 kJ/mol
# Density = 2.147493 g / cm^3
# Si number density = 21.523919 Si / 1000 Ang^3
#
#
#
# Elastic Constant Matrix: (Units=GPa)
#
#
# Indices 1 2 3 4 5 6 
#
# 1 39.0753 18.8178 -3.9281 -0.0002 5.7351 0.0000
# 2 18.8178 39.0753 -3.9281 0.0002 -5.7351 0.0000
# 3 -3.9281 -3.9281 127.2114 0.0000 0.0000 0.0000
# 4 -0.0002 0.0002 0.0000 16.5491 0.0000 -5.7351
# 5 5.7351 -5.7351 0.0000 0.0000 16.5491 -0.0002
# 6 0.0000 0.0000 0.0000 -5.7351 -0.0002 10.1287
#
#
#
# Elastic Compliance Matrix: (Units=1/GPa)
#
#
# Indices 1 2 3 4 5 6 
#
# 1 0.039381 -0.022035 0.000536 0.000001 -0.021284 0.000000
# 2 -0.022035 0.039381 0.000536 -0.000001 0.021284 0.000000
# 3 0.000536 0.000536 0.007894 0.000000 0.000000 0.000000
# 4 0.000001 -0.000001 0.000000 0.075178 0.000000 0.042567
# 5 -0.021284 0.021284 0.000000 0.000000 0.075178 0.000001
# 6 0.000000 0.000000 0.000000 0.042567 0.000001 0.122831
#
#
# Mechanical properties :
#
#
# Convention : Reuss Voigt Hill
#
# Bulk Modulus (GPa) = 22.35722 25.25391 23.80556
# Shear Modulus (GPa) = 11.99964 21.60541 16.80253
#
# Velocity S-wave (km/s) = 2.36371 3.17170 2.79703
# Velocity P-wave (km/s) = 4.22602 5.01710 4.63845
#
# Compressibility (1/GPa) = 0.04472828
#
# Stress axis : x y z
#
# Youngs Moduli (GPa) = 25.39310 25.39310 126.67832
#
# Poissons Ratio (x) = 0.55953 -0.06785
# Poissons Ratio (y) = 0.55953 -0.06785
# Poissons Ratio (z) = -0.01360 -0.01360
#
# Static dielectric constant tensor:
#      x y z
#    x 1.765470 0.000000 0.000000 
#    y 0.000000 1.765470 0.000000 
#    z 0.000000 0.000000 1.903090 
# 
# From -- ./inp_files/1761.got.cif
#   From: 2010.05.17/outbox.cif.g08.bks.cpg/sg163_1_cif.got.tgz:1761.got - 2010.05.20 10:56:03.
