data_PCOD9578980
_publ_section_title
;
Structure prediction by ZEFSAII (Michael W. Deem and Ramdas Pophale) SiO2 
 PCOD9578980
Probable space group: P -3 C 1
;
_chemical_formula_sum "Si O2"
_cell_formula_units_Z 48
_cell_length_a 11.996121
_cell_length_b 11.996121
_cell_length_c 18.259920
_cell_angle_alpha 90.000000
_cell_angle_beta 90.000000
_cell_angle_gamma 120.000000
_cell_volume 2275.679920
_symmetry_space_group_name_H-M "P -3 C 1"
_symmetry_group_IT_number 165
_symmetry_cell_setting 'hexagonal'
loop_
_space_group_symop_operation_xyz
x,y,z
-y,x-y,z
-x+y,-x,z
x-y,-y,1/2-z
-x,-x+y,1/2-z
y,x,1/2-z
-x,-y,-z
y,-x+y,-z
x-y,x,-z
-x+y,y,1/2+z
x,x-y,1/2+z
-y,-x,1/2+z
loop_
_atom_site_type_symbol
_atom_site_label
_atom_site_fract_x
_atom_site_fract_y
_atom_site_fract_z
Si Si1 0.000000 0.000000 0.661252
Si Si2 0.506386 0.935462 0.924803
Si Si3 0.589176 0.925453 0.176807
Si Si4 0.333334 0.666668 0.480896
Si Si5 0.333333 0.666666 0.658704
Si Si6 0.733890 0.964731 0.663289
O O1 0.882098 0.020997 0.639891
O O2 0.000000 0.000000 0.750000
O O3 0.455134 0.789691 0.947546
O O4 0.419030 0.969106 0.872893
O O5 0.642228 0.988009 0.884727
O O6 0.500000 0.000000 0.000000
O O7 0.442553 0.807053 0.185122
O O8 0.666583 0.855469 0.151741
O O9 0.655051 0.000000 0.250000
O O10 0.333334 0.666667 0.569343
O O11 0.733782 0.000000 0.750000
#
# Coordination Sequence:
#
# PCOD9578980 Si02
#       6
#     4  12  12   4   4  12
#     4   9  21  42  72 100 140 181 223 299 361 432
#     4  12  27  46  72 102 143 195 234 295 353 428
#     4  12  25  43  73 102 145 185 236 297 365 426
#     4  12  27  46  74 106 147 193 251 286 363 433
#     4  12  24  49  65 109 153 184 236 310 354 418
#     4  11  24  47  71 104 142 182 238 293 366 422
#
# _framework density 21.092599
#
# number of rings (size 3 to 8) (size 9 to 14) (size 15 to 20)
#    0.000    0.500    5.000    3.000    7.000    0.000 
#    0.000    0.000    0.000    1.500    0.000    0.000 
#    0.000    0.000    0.000    0.000    0.000    0.000 
#
# Total GULP energy -268240.594600 kJ/mol
# GULP energy per Si atom -5588.345721 kJ/mol
# Density = 2.104459 g / cm^3
# Si number density = 21.092599 Si / 1000 Ang^3
#
#
#
# Elastic Constant Matrix: (Units=GPa)
#
#
# Indices 1 2 3 4 5 6 
#
# 1 93.7167 42.9610 42.9230 -4.6144 0.0000 0.0000
# 2 42.9610 93.7177 42.9230 4.6124 0.0000 0.0000
# 3 42.9230 42.9230 53.7995 -0.0001 0.0000 0.0000
# 4 -4.6144 4.6124 -0.0001 19.4665 0.0000 0.0000
# 5 0.0000 0.0000 0.0000 0.0000 19.4696 -4.6122
# 6 0.0000 0.0000 0.0000 0.0000 -4.6122 25.3776
#
#
#
# Elastic Compliance Matrix: (Units=1/GPa)
#
#
# Indices 1 2 3 4 5 6 
#
# 1 0.017628 -0.002962 -0.011701 0.004880 0.000000 0.000000
# 2 -0.002962 0.017627 -0.011700 -0.004879 0.000000 0.000000
# 3 -0.011701 -0.011700 0.037258 -0.000001 0.000000 0.000000
# 4 0.004880 -0.004879 -0.000001 0.053683 0.000000 0.000000
# 5 0.000000 0.000000 0.000000 0.000000 0.053673 0.009755
# 6 0.000000 0.000000 0.000000 0.000000 0.009755 0.041178
#
#
# Mechanical properties :
#
#
# Convention : Reuss Voigt Hill
#
# Bulk Modulus (GPa) = 50.53994 55.42756 52.98375
# Shear Modulus (GPa) = 17.83375 20.35787 19.09581
#
# Velocity S-wave (km/s) = 2.91090 3.11008 3.01214
# Velocity P-wave (km/s) = 5.94229 6.26355 6.10503
#
# Compressibility (1/GPa) = 0.01978633
#
# Stress axis : x y z
#
# Youngs Moduli (GPa) = 56.72942 56.73122 26.84009
#
# Poissons Ratio (x) = 0.16803 0.31405
# Poissons Ratio (y) = 0.16802 0.31404
# Poissons Ratio (z) = 0.66378 0.66378
#
# Static dielectric constant tensor:
#      x y z
#    x 2.031850 0.000000 0.000000 
#    y 0.000000 2.032450 0.000020 
#    z 0.000000 0.000020 1.658880 
# 
# From -- ./inp_files/2562.got.cif
#   From: 2010.05.17/outbox.cif.g08.bks.cpg/sg165_2_cif.got.tgz:2562.got - 2010.05.20 11:02:39.
