data_PCOD9578685
_publ_section_title
;
Structure prediction by ZEFSAII (Michael W. Deem and Ramdas Pophale) SiO2 
 PCOD9578685
Probable space group: P -3 M 1
;
_chemical_formula_sum "Si O2"
_cell_formula_units_Z 84
_cell_length_a 20.817246
_cell_length_b 20.817246
_cell_length_c 11.156748
_cell_angle_alpha 90.000000
_cell_angle_beta 90.000000
_cell_angle_gamma 120.000000
_cell_volume 4187.114181
_symmetry_space_group_name_H-M "P -3 M 1"
_symmetry_group_IT_number 164
_symmetry_cell_setting 'hexagonal'
loop_
_space_group_symop_operation_xyz
x,y,z
-y,x-y,z
-x+y,-x,z
x-y,-y,-z
-x,-x+y,-z
y,x,-z
-x,-y,-z
y,-x+y,-z
x-y,x,-z
-x+y,y,z
x,x-y,z
-y,-x,z
loop_
_atom_site_type_symbol
_atom_site_label
_atom_site_fract_x
_atom_site_fract_y
_atom_site_fract_z
Si Si1 0.333299 0.526059 0.200481
Si Si2 0.973385 0.281505 0.637526
Si Si3 0.941234 0.398474 0.354991
Si Si4 0.917479 0.331244 0.957779
Si Si5 0.843218 0.295126 0.557216
Si Si6 0.185509 0.519741 0.841957
Si Si7 0.051808 0.254765 0.117079
O O1 0.251716 0.503432 0.154286
O O2 0.390363 0.609638 0.169605
O O3 0.360803 0.472676 0.148558
O O4 0.326177 0.513809 0.341642
O O5 0.013028 0.369234 0.672374
O O6 0.000000 0.276535 0.500000
O O7 0.887920 0.259344 0.620863
O O8 0.982823 0.236327 0.749134
O O9 0.975130 0.487565 0.351359
O O10 0.904046 0.363747 0.482328
O O11 0.870605 0.364504 0.268276
O O12 0.917056 0.257408 0.918844
O O13 0.858750 0.315001 0.061273
O O14 0.000000 0.389397 0.000000
O O15 0.772407 0.227594 0.491508
O O16 0.263732 0.527465 0.813073
O O17 0.195574 0.597787 0.885888
O O18 0.118907 0.237814 0.128654
O O19 0.000000 0.211987 0.000000
#
# Coordination Sequence:
#
# PCOD9578685 Si02
#       7
#    12  12  12  12  12  12  12
#     4  11  22  35  53  76 107 148 196 249 303 361
#     4  10  21  37  58  89 124 160 204 254 315 372
#     4  10  21  36  55  81 112 150 200 255 309 370
#     4  11  23  38  57  82 110 147 192 246 306 366
#     4  10  20  35  54  77 109 152 199 248 308 365
#     4  11  23  38  55  76 107 147 194 247 307 376
#     4  11  22  41  66  95 131 168 205 249 301 364
#
# _framework density 20.06155
#
# number of rings (size 3 to 8) (size 9 to 14) (size 15 to 20)
#    0.000    1.429    1.429    5.000    0.000    4.286 
#    0.000    5.000    0.000    5.143    0.000    0.000 
#    0.000    0.571    0.000    0.000    0.000    0.000 
#
# Total GULP energy -468319.301223 kJ/mol
# GULP energy per Si atom -5575.229776 kJ/mol
# Density = 2.001589 g / cm^3
# Si number density = 20.061550 Si / 1000 Ang^3
#
#
#
# Elastic Constant Matrix: (Units=GPa)
#
#
# Indices 1 2 3 4 5 6 
#
# 1 79.0603 32.9692 27.9968 -12.2978 0.0000 0.0000
# 2 32.9692 79.0603 27.9968 12.2978 0.0000 0.0000
# 3 27.9968 27.9968 95.5159 0.0000 0.0000 0.0000
# 4 -12.2978 12.2978 0.0000 262.4638 0.0000 0.0000
# 5 0.0000 0.0000 0.0000 0.0000 262.4638 -12.2978
# 6 0.0000 0.0000 0.0000 0.0000 -12.2978 23.0456
#
#
#
# Elastic Compliance Matrix: (Units=1/GPa)
#
#
# Indices 1 2 3 4 5 6 
#
# 1 0.016355 -0.005897 -0.003065 0.001043 0.000000 0.000000
# 2 -0.005897 0.016355 -0.003065 -0.001043 0.000000 0.000000
# 3 -0.003065 -0.003065 0.012267 0.000000 0.000000 0.000000
# 4 0.001043 -0.001043 0.000000 0.003908 0.000000 0.000000
# 5 0.000000 0.000000 0.000000 0.000000 0.003908 0.002085
# 6 0.000000 0.000000 0.000000 0.000000 0.002085 0.044505
#
#
# Mechanical properties :
#
#
# Convention : Reuss Voigt Hill
#
# Bulk Modulus (GPa) = 47.79800 47.95135 47.87467
# Shear Modulus (GPa) = 38.96272 120.57289 79.76780
#
# Velocity S-wave (km/s) = 4.41177 7.76093 6.31252
# Velocity P-wave (km/s) = 7.05897 10.21094 8.77760
#
# Compressibility (1/GPa) = 0.02092138
#
# Stress axis : x y z
#
# Youngs Moduli (GPa) = 61.14169 61.14169 81.52281
#
# Poissons Ratio (x) = 0.36056 0.24991
# Poissons Ratio (y) = 0.36056 0.24991
# Poissons Ratio (z) = 0.18743 0.18743
#
# Static dielectric constant tensor:
#      x y z
#    x 1.699420 0.000000 0.000000 
#    y 0.000000 1.699420 0.000000 
#    z 0.000000 0.000000 1.858940 
# 
# From -- ./inp_files/2921.got.cif
#   From: 2010.05.17/outbox.cif.g08.bks.cpg/sg164_2_cif.got.tgz:2921.got - 2010.05.20 10:58:56.
