data_PCOD9578865
_publ_section_title
;
Structure prediction by ZEFSAII (Michael W. Deem and Ramdas Pophale) SiO2 
 PCOD9578865
Probable space group: P -3 C 1
;
_chemical_formula_sum "Si O2"
_cell_formula_units_Z 48
_cell_length_a 24.186424
_cell_length_b 24.186424
_cell_length_c 4.944970
_cell_angle_alpha 90.000000
_cell_angle_beta 90.000000
_cell_angle_gamma 120.000000
_cell_volume 2505.172392
_symmetry_space_group_name_H-M "P -3 C 1"
_symmetry_group_IT_number 165
_symmetry_cell_setting 'hexagonal'
loop_
_space_group_symop_operation_xyz
x,y,z
-y,x-y,z
-x+y,-x,z
x-y,-y,1/2-z
-x,-x+y,1/2-z
y,x,1/2-z
-x,-y,-z
y,-x+y,-z
x-y,x,-z
-x+y,y,1/2+z
x,x-y,1/2+z
-y,-x,1/2+z
loop_
_atom_site_type_symbol
_atom_site_label
_atom_site_fract_x
_atom_site_fract_y
_atom_site_fract_z
Si Si1 0.000000 0.304543 0.250000
Si Si2 0.000000 0.379339 0.750000
Si Si3 0.203707 0.868058 0.029383
Si Si4 0.279933 0.488640 0.567102
Si Si5 0.485843 0.585497 0.001048
O O1 0.940685 0.241694 0.373969
O O2 0.025138 0.354287 0.502303
O O3 0.052124 0.444111 0.890816
O O4 0.145803 0.824423 0.230194
O O5 0.252485 0.840317 0.048701
O O6 0.266312 0.502966 0.866681
O O7 0.353424 0.523478 0.484742
O O8 0.438204 0.527576 0.808614
#
# Coordination Sequence:
#
# PCOD9578865 Si02
#       5
#     6   6  12  12  12
#     4  12  22  37  60  84 124 152 188 235 270 322
#     4  12  24  37  56  86 118 152 182 225 288 350
#     4  10  21  36  57  84 112 150 190 222 267 326
#     4  10  21  38  59  78 102 137 184 232 275 344
#     4  12  24  39  57  82 113 145 181 233 296 354
#
# _framework density 19.160359
#
# number of rings (size 3 to 8) (size 9 to 14) (size 15 to 20)
#    0.000    1.000    2.500    5.250    7.000    0.000 
#    0.000    0.000    0.000   10.000    0.000    0.000 
#    0.000    0.000    0.000    7.500    0.000    0.000 
#
# Total GULP energy -268393.136268 kJ/mol
# GULP energy per Si atom -5591.523672 kJ/mol
# Density = 1.911675 g / cm^3
# Si number density = 19.160359 Si / 1000 Ang^3
#
#
#
# Elastic Constant Matrix: (Units=GPa)
#
#
# Indices 1 2 3 4 5 6 
#
# 1 55.2071 17.4679 8.0502 -8.9462 0.0000 0.0000
# 2 17.4679 55.2071 8.0502 8.9462 0.0000 0.0000
# 3 8.0502 8.0502 70.3861 0.0000 0.0000 0.0000
# 4 -8.9462 8.9462 0.0000 21.8357 0.0000 0.0000
# 5 0.0000 0.0000 0.0000 0.0000 21.8357 -8.9462
# 6 0.0000 0.0000 0.0000 0.0000 -8.9462 18.8696
#
#
#
# Elastic Compliance Matrix: (Units=1/GPa)
#
#
# Indices 1 2 3 4 5 6 
#
# 1 0.023502 -0.009384 -0.001615 0.013473 0.000000 0.000000
# 2 -0.009384 0.023502 -0.001615 -0.013473 0.000000 0.000000
# 3 -0.001615 -0.001615 0.014577 0.000000 0.000000 0.000000
# 4 0.013473 -0.013473 0.000000 0.056837 0.000000 0.000000
# 5 0.000000 0.000000 0.000000 0.000000 0.056837 0.026947
# 6 0.000000 0.000000 0.000000 0.000000 0.026947 0.065771
#
#
# Mechanical properties :
#
#
# Convention : Reuss Voigt Hill
#
# Bulk Modulus (GPa) = 27.50785 27.54854 27.52819
# Shear Modulus (GPa) = 17.96180 22.32365 20.14273
#
# Velocity S-wave (km/s) = 3.06510 3.41705 3.24585
# Velocity P-wave (km/s) = 5.18789 5.47516 5.33346
#
# Compressibility (1/GPa) = 0.03635327
#
# Stress axis : x y z
#
# Youngs Moduli (GPa) = 42.55041 42.55041 68.60266
#
# Poissons Ratio (x) = 0.39929 0.11077
# Poissons Ratio (y) = 0.39929 0.11077
# Poissons Ratio (z) = 0.06870 0.06870
#
# Static dielectric constant tensor:
#      x y z
#    x 1.667690 0.000000 0.000000 
#    y 0.000000 1.667690 0.000000 
#    z 0.000000 0.000000 1.664670 
# 
# From -- ./inp_files/140.got.cif
#   From: 2010.05.17/outbox.cif.g08.bks.cpg/sg165_1_cif.got.tgz:140.got - 2010.05.20 11:02:39.
