data_PCOD9578502
_publ_section_title
;
Structure prediction by ZEFSAII (Michael W. Deem and Ramdas Pophale) SiO2 
 PCOD9578502
Probable space group: P -3 M 1
;
_chemical_formula_sum "Si O2"
_cell_formula_units_Z 84
_cell_length_a 19.223663
_cell_length_b 19.223663
_cell_length_c 14.524238
_cell_angle_alpha 90.000000
_cell_angle_beta 90.000000
_cell_angle_gamma 120.000000
_cell_volume 4648.322776
_symmetry_space_group_name_H-M "P -3 M 1"
_symmetry_group_IT_number 164
_symmetry_cell_setting 'hexagonal'
loop_
_space_group_symop_operation_xyz
x,y,z
-y,x-y,z
-x+y,-x,z
x-y,-y,-z
-x,-x+y,-z
y,x,-z
-x,-y,-z
y,-x+y,-z
x-y,x,-z
-x+y,y,z
x,x-y,z
-y,-x,z
loop_
_atom_site_type_symbol
_atom_site_label
_atom_site_fract_x
_atom_site_fract_y
_atom_site_fract_z
Si Si1 0.917680 0.671161 0.291819
Si Si2 0.000423 0.159747 0.389570
Si Si3 0.823887 0.489509 0.069568
Si Si4 0.488751 0.822105 0.338297
Si Si5 0.537897 0.693716 0.135829
Si Si6 0.343946 0.020334 0.103120
Si Si7 0.580348 0.584600 0.610308
O O1 0.825169 0.650338 0.300144
O O2 0.945209 0.686064 0.184861
O O3 0.937501 0.605634 0.337320
O O4 0.972234 0.755029 0.344329
O O5 0.087766 0.175532 0.361434
O O6 0.000000 0.168050 0.500000
O O7 0.931611 0.068390 0.367594
O O8 0.752093 0.504185 0.100667
O O9 0.812441 0.406221 0.105081
O O10 0.910626 0.563661 0.092422
O O11 0.822886 0.488808 0.958312
O O12 0.403638 0.807275 0.374639
O O13 0.507298 0.753649 0.371278
O O14 0.486293 0.819077 0.227530
O O15 0.554600 0.912931 0.359616
O O16 0.581571 0.790786 0.133989
O O17 0.601347 0.663689 0.136805
O O18 0.305230 0.000000 0.000000
O O19 0.591218 0.591218 0.500000
O O20 0.489356 0.510645 0.629939
#
# Coordination Sequence:
#
# PCOD9578502 Si02
#       7
#    12  12  12  12  12  12  12
#     4  11  22  37  57  83 111 145 190 237 279 324
#     4   9  18  33  56  87 119 146 173 212 270 338
#     4  10  20  33  51  75 106 141 181 226 275 325
#     4  10  19  32  53  81 112 141 176 219 272 332
#     4   9  18  32  51  77 104 134 172 219 274 333
#     4  10  21  36  53  75 105 144 188 234 279 329
#     4  10  22  39  58  81 112 151 190 230 281 339
#
# _framework density 18.071034000000001
#
# number of rings (size 3 to 8) (size 9 to 14) (size 15 to 20)
#    0.000    2.143    1.429    1.714    0.000    6.571 
#    0.000    1.429    0.000    0.286    0.000    0.000 
#    0.000    2.857    0.000    0.000    0.000    0.000 
#
# Total GULP energy -467973.665261 kJ/mol
# GULP energy per Si atom -5571.115063 kJ/mol
# Density = 1.802990 g / cm^3
# Si number density = 18.071034 Si / 1000 Ang^3
#
#
#
# Elastic Constant Matrix: (Units=GPa)
#
#
# Indices 1 2 3 4 5 6 
#
# 1 106.8811 78.4580 28.0400 3.1795 0.0000 0.0000
# 2 78.4580 106.8811 28.0400 -3.1795 0.0000 0.0000
# 3 28.0400 28.0400 55.4061 0.0000 0.0000 0.0000
# 4 3.1795 -3.1795 0.0000 16.1338 0.0000 0.0000
# 5 0.0000 0.0000 0.0000 0.0000 16.1338 3.1795
# 6 0.0000 0.0000 0.0000 0.0000 3.1795 14.2116
#
#
#
# Elastic Compliance Matrix: (Units=1/GPa)
#
#
# Indices 1 2 3 4 5 6 
#
# 1 0.021588 -0.015217 -0.003224 -0.007253 0.000000 0.000000
# 2 -0.015217 0.021588 -0.003224 0.007253 0.000000 0.000000
# 3 -0.003224 -0.003224 0.021312 0.000000 0.000000 0.000000
# 4 -0.007253 0.007253 0.000000 0.064841 0.000000 0.000000
# 5 0.000000 0.000000 0.000000 0.000000 0.064841 -0.014507
# 6 0.000000 0.000000 0.000000 0.000000 -0.014507 0.073611
#
#
# Mechanical properties :
#
#
# Convention : Reuss Voigt Hill
#
# Bulk Modulus (GPa) = 47.26545 59.80493 53.53519
# Shear Modulus (GPa) = 15.71515 18.27118 16.99317
#
# Velocity S-wave (km/s) = 2.95215 3.18319 3.06985
# Velocity P-wave (km/s) = 6.15081 6.83202 6.50034
#
# Compressibility (1/GPa) = 0.02115710
#
# Stress axis : x y z
#
# Youngs Moduli (GPa) = 46.32148 46.32148 46.92171
#
# Poissons Ratio (x) = 0.70488 0.15129
# Poissons Ratio (y) = 0.70488 0.15129
# Poissons Ratio (z) = 0.14935 0.14935
#
# Static dielectric constant tensor:
#      x y z
#    x 1.622340 0.000000 0.000000 
#    y 0.000000 1.622340 0.000000 
#    z 0.000000 0.000000 1.649250 
# 
# From -- ./inp_files/3555.got.cif
#   From: 2010.05.17/outbox.cif.g08.bks.cpg/sg164_2_cif.got.tgz:3555.got - 2010.05.20 10:58:56.
