data_PCOD9578554
_publ_section_title
;
Structure prediction by ZEFSAII (Michael W. Deem and Ramdas Pophale) SiO2 
 PCOD9578554
Probable space group: P -3 M 1
;
_chemical_formula_sum "Si O2"
_cell_formula_units_Z 66
_cell_length_a 12.799358
_cell_length_b 12.799358
_cell_length_c 28.750024
_cell_angle_alpha 90.000000
_cell_angle_beta 90.000000
_cell_angle_gamma 120.000000
_cell_volume 4078.920270
_symmetry_space_group_name_H-M "P -3 M 1"
_symmetry_group_IT_number 164
_symmetry_cell_setting 'hexagonal'
loop_
_space_group_symop_operation_xyz
x,y,z
-y,x-y,z
-x+y,-x,z
x-y,-y,-z
-x,-x+y,-z
y,x,-z
-x,-y,-z
y,-x+y,-z
x-y,x,-z
-x+y,y,z
x,x-y,z
-y,-x,z
loop_
_atom_site_type_symbol
_atom_site_label
_atom_site_fract_x
_atom_site_fract_y
_atom_site_fract_z
Si Si1 0.581509 0.665946 0.544295
Si Si2 0.085375 0.666495 0.085422
Si Si3 0.752738 0.000089 0.722682
Si Si4 0.085217 0.666779 0.366375
Si Si5 0.248386 0.248386 0.000000
Si Si6 0.085277 0.418557 0.191825
O O1 0.647413 0.647413 0.500000
O O2 0.589336 0.794668 0.544228
O O3 0.442283 0.557718 0.542126
O O4 0.638625 0.643629 0.590503
O O5 0.084462 0.542231 0.078671
O O6 0.221398 0.778603 0.081048
O O7 0.008241 0.684877 0.046075
O O8 0.046540 0.669140 0.138613
O O9 0.745111 0.872556 0.717419
O O10 0.691195 0.029553 0.679671
O O11 0.690806 0.009135 0.770085
O O12 0.891544 0.108457 0.724063
O O13 0.101732 0.550866 0.360187
O O14 0.213863 0.786137 0.375354
O O15 0.236800 0.118400 0.001393
O O16 0.222849 0.445698 0.196478
O O17 0.081481 0.540741 0.199525
#
# Coordination Sequence:
#
# PCOD9578554 Si02
#       6
#    12  12  12  12   6  12
#     4  10  20  34  53  76 103 135 169 205 244 288
#     4   9  17  30  49  72  95 120 153 195 242 287
#     4  10  20  33  49  70  98 132 167 200 235 279
#     4  10  20  34  54  78 102 128 160 202 249 294
#     4  10  20  32  46  66  94 128 162 194 230 276
#     4   9  17  30  50  74  97 121 152 195 244 289
#
# _framework density 16.180754
#
# number of rings (size 3 to 8) (size 9 to 14) (size 15 to 20)
#    0.000    2.364    0.000    2.909    0.000    2.182 
#    0.000    3.636    0.000   10.909    0.000    0.000 
#    0.000    0.000    0.000    0.000    0.000    0.000 
#
# Total GULP energy -368143.338009 kJ/mol
# GULP energy per Si atom -5577.929364 kJ/mol
# Density = 1.614393 g / cm^3
# Si number density = 16.180754 Si / 1000 Ang^3
#
#
#
# Elastic Constant Matrix: (Units=GPa)
#
#
# Indices 1 2 3 4 5 6 
#
# 1 109.4220 71.0329 75.0608 2.0597 0.0000 0.0000
# 2 71.0329 109.4220 75.0608 -2.0597 0.0000 0.0000
# 3 75.0608 75.0608 125.4591 0.0000 0.0000 0.0000
# 4 2.0597 -2.0597 0.0000 21.2313 0.0000 0.0000
# 5 0.0000 0.0000 0.0000 0.0000 21.2313 2.0597
# 6 0.0000 0.0000 0.0000 0.0000 2.0597 19.1945
#
#
#
# Elastic Compliance Matrix: (Units=1/GPa)
#
#
# Indices 1 2 3 4 5 6 
#
# 1 0.018678 -0.007645 -0.006601 -0.002554 0.000000 0.000000
# 2 -0.007645 0.018678 -0.006601 0.002554 0.000000 0.000000
# 3 -0.006601 -0.006601 0.015869 0.000000 0.000000 0.000000
# 4 -0.002554 0.002554 0.000000 0.047596 0.000000 0.000000
# 5 0.000000 0.000000 0.000000 0.000000 0.047596 -0.005107
# 6 0.000000 0.000000 0.000000 0.000000 -0.005107 0.052646
#
#
# Mechanical properties :
#
#
# Convention : Reuss Voigt Hill
#
# Bulk Modulus (GPa) = 86.71908 87.40136 87.06022
# Shear Modulus (GPa) = 20.27573 20.54132 20.40853
#
# Velocity S-wave (km/s) = 3.54372 3.56686 3.55531
# Velocity P-wave (km/s) = 8.39370 8.43186 8.41280
#
# Compressibility (1/GPa) = 0.01153149
#
# Stress axis : x y z
#
# Youngs Moduli (GPa) = 53.53905 53.53905 63.01546
#
# Poissons Ratio (x) = 0.40931 0.41595
# Poissons Ratio (y) = 0.40931 0.41595
# Poissons Ratio (z) = 0.35340 0.35340
#
# Static dielectric constant tensor:
#      x y z
#    x 1.509210 0.000000 0.000000 
#    y 0.000000 1.509210 0.000000 
#    z 0.000000 0.000000 1.546150 
# 
# From -- ./inp_files/5432.got.cif
#   From: 2010.05.17/outbox.cif.g08.bks.cpg/sg164_3_cif.got.tgz:5432.got - 2010.05.20 10:58:56.
