data_PCOD9578306
_publ_section_title
;
Structure prediction by ZEFSAII (Michael W. Deem and Ramdas Pophale) SiO2 
 PCOD9578306
Probable space group: P -3 1 C
;
_chemical_formula_sum "Si O2"
_cell_formula_units_Z 84
_cell_length_a 18.000000
_cell_length_b 18.000000
_cell_length_c 15.000000
_cell_angle_alpha 90.000000
_cell_angle_beta 90.000000
_cell_angle_gamma 120.000000
_cell_volume 4208.883462
_symmetry_space_group_name_H-M "P -3 1 C"
_symmetry_group_IT_number 163
_symmetry_cell_setting 'hexagonal'
loop_
_space_group_symop_operation_xyz
x,y,z
-y,x-y,z
-x+y,-x,z
-y,-x,1/2-z
-x+y,y,1/2-z
x,x-y,1/2-z
-x,-y,-z
y,-x+y,-z
x-y,x,-z
y,x,1/2+z
x-y,-y,1/2+z
-x,-x+y,1/2+z
loop_
_atom_site_type_symbol
_atom_site_label
_atom_site_fract_x
_atom_site_fract_y
_atom_site_fract_z
Si Si1 0.005418 0.257792 0.098626
Si Si2 0.189253 0.738255 0.159952
Si Si3 0.072462 0.634660 0.499924
Si Si4 0.506807 0.958823 0.151567
Si Si5 0.561729 0.309558 0.979950
Si Si6 0.094482 0.271139 0.438643
Si Si7 0.176991 0.176442 0.227877
O O1 0.037833 0.348977 0.051988
O O2 0.076694 0.233141 0.074352
O O3 0.997107 0.245908 0.204323
O O4 0.923188 0.195393 0.042207
O O5 0.209181 0.790820 0.250000
O O6 0.125218 0.638297 0.172721
O O7 0.279034 0.753708 0.119648
O O8 0.143386 0.774385 0.095812
O O9 0.064338 0.568310 0.421472
O O10 0.172673 0.689792 0.526202
O O11 0.021835 0.588512 0.589902
O O12 0.495312 0.990623 0.250000
O O13 0.598767 0.245571 0.998640
O O14 0.014564 0.214921 0.372199
O O15 0.084794 0.169587 0.250000
O O16 0.171627 0.085814 0.250000
#
# Coordination Sequence:
#
# PCOD9578306 Si02
#       7
#    12  12  12  12  12  12  12
#     4  11  22  38  61  88 127 164 211 263 320 385
#     4  12  22  35  60  93 130 160 205 263 329 390
#     4  11  22  40  62  89 128 171 210 263 321 397
#     4  11  24  39  61  91 126 166 211 261 323 386
#     4  10  21  37  59  90 121 166 209 259 323 380
#     4  11  23  38  60  92 123 168 207 261 324 381
#     4  10  22  40  62  89 124 168 213 263 313 377
#
# _framework density 19.957787
#
# number of rings (size 3 to 8) (size 9 to 14) (size 15 to 20)
#    0.286    0.857    4.286    3.143    2.000    0.000 
#    0.000    0.000    0.000    5.429    0.000    0.000 
#    0.000    0.000    0.000    0.000    0.000    0.000 
#
# Total GULP energy -467648.550516 kJ/mol
# GULP energy per Si atom -5567.244649 kJ/mol
# Density = 1.991236 g / cm^3
# Si number density = 19.957787 Si / 1000 Ang^3
#
#
#
# Elastic Constant Matrix: (Units=GPa)
#
#
# Indices 1 2 3 4 5 6 
#
# 1 67.8505 18.0346 27.2664 0.0001 -1.6611 0.0000
# 2 18.0346 67.8505 27.2664 -0.0001 1.6611 0.0000
# 3 27.2664 27.2664 98.8248 0.0000 0.0000 0.0000
# 4 0.0001 -0.0001 0.0000 28.7710 0.0000 1.6611
# 5 -1.6611 1.6611 0.0000 0.0000 28.7710 0.0001
# 6 0.0000 0.0000 0.0000 1.6611 0.0001 24.9079
#
#
#
# Elastic Compliance Matrix: (Units=1/GPa)
#
#
# Indices 1 2 3 4 5 6 
#
# 1 0.017134 -0.003018 -0.003895 0.000000 0.001163 0.000000
# 2 -0.003018 0.017134 -0.003895 0.000000 -0.001163 0.000000
# 3 -0.003895 -0.003895 0.012268 0.000000 0.000000 0.000000
# 4 0.000000 0.000000 0.000000 0.034892 0.000000 -0.002327
# 5 0.001163 -0.001163 0.000000 0.000000 0.034892 0.000000
# 6 0.000000 0.000000 0.000000 -0.002327 0.000000 0.040303
#
#
# Mechanical properties :
#
#
# Convention : Reuss Voigt Hill
#
# Bulk Modulus (GPa) = 40.12554 42.18453 41.15503
# Shear Modulus (GPa) = 26.80333 27.28721 27.04527
#
# Velocity S-wave (km/s) = 3.66867 3.70164 3.68519
# Velocity P-wave (km/s) = 6.17207 6.28111 6.22682
#
# Compressibility (1/GPa) = 0.02492178
#
# Stress axis : x y z
#
# Youngs Moduli (GPa) = 58.36345 58.36345 81.51195
#
# Poissons Ratio (x) = 0.17611 0.31748
# Poissons Ratio (y) = 0.17611 0.31748
# Poissons Ratio (z) = 0.22732 0.22732
#
# Static dielectric constant tensor:
#      x y z
#    x 1.764800 0.000000 0.000000 
#    y 0.000000 1.764800 0.000000 
#    z 0.000000 0.000000 1.686390 
# 
# From -- ./inp_files/2666.got.cif
#   From: 2010.05.17/outbox.ucp.g08.bks.cvg/sg163_2_cif.got.tgz:2666.got - 2010.06.11 15:15:55.
