data_PCOD9578437
_publ_section_title
;
Structure prediction by ZEFSAII (Michael W. Deem and Ramdas Pophale) SiO2 
 PCOD9578437
Probable space group: P -3 M 1
;
_chemical_formula_sum "Si O2"
_cell_formula_units_Z 84
_cell_length_a 17.864051
_cell_length_b 17.864051
_cell_length_c 15.674373
_cell_angle_alpha 90.000000
_cell_angle_beta 90.000000
_cell_angle_gamma 120.000000
_cell_volume 4331.922806
_symmetry_space_group_name_H-M "P -3 M 1"
_symmetry_group_IT_number 164
_symmetry_cell_setting 'hexagonal'
loop_
_space_group_symop_operation_xyz
x,y,z
-y,x-y,z
-x+y,-x,z
x-y,-y,-z
-x,-x+y,-z
y,x,-z
-x,-y,-z
y,-x+y,-z
x-y,x,-z
-x+y,y,z
x,x-y,z
-y,-x,z
loop_
_atom_site_type_symbol
_atom_site_label
_atom_site_fract_x
_atom_site_fract_y
_atom_site_fract_z
Si Si1 0.091052 0.460088 0.689330
Si Si2 0.498093 0.330387 0.487664
Si Si3 0.887088 0.528259 0.665593
Si Si4 0.293181 0.059277 0.237683
Si Si5 0.064754 0.757259 0.078696
Si Si6 0.330679 0.837632 0.145772
Si Si7 0.000144 0.820807 0.402765
O O1 0.121877 0.560939 0.709660
O O2 0.134794 0.452372 0.602516
O O3 0.096589 0.396584 0.757664
O O4 0.989446 0.415470 0.671249
O O5 0.540711 0.270355 0.488519
O O6 0.568559 0.431442 0.487475
O O7 0.445674 0.310115 0.575621
O O8 0.849083 0.424542 0.661115
O O9 0.855095 0.541497 0.756159
O O10 0.277334 0.138667 0.221368
O O11 0.248998 0.018044 0.329064
O O12 0.252045 0.988208 0.164599
O O13 0.147332 0.852669 0.070425
O O14 0.102719 0.692165 0.088144
O O15 0.000000 0.731453 0.000000
O O16 0.428250 0.856499 0.139567
O O17 0.261849 0.738152 0.126731
O O18 0.919655 0.839309 0.399124
O O19 0.000000 0.790093 0.500000
O O20 0.090905 0.909096 0.388478
#
# Coordination Sequence:
#
# PCOD9578437 Si02
#       7
#    12  12  12  12  12  12  12
#     4  10  20  35  52  74 110 154 199 244 292 349
#     4  10  19  30  46  70 105 152 204 253 295 337
#     4   9  17  31  50  74 108 150 196 245 295 345
#     4  11  22  38  60  87 117 151 196 247 296 347
#     4  11  24  43  66  91 120 155 194 241 296 353
#     4  10  20  36  60  92 125 158 195 241 297 354
#     4   9  18  33  54  82 116 153 190 233 290 358
#
# _framework density 19.390926
#
# number of rings (size 3 to 8) (size 9 to 14) (size 15 to 20)
#    0.000    2.000    1.429    2.571    0.000    3.714 
#    0.000    2.857    0.000    3.714    0.000    0.000 
#    0.000    0.000    0.000    0.000    0.000    0.000 
#
# Total GULP energy -468252.783340 kJ/mol
# GULP energy per Si atom -5574.437897 kJ/mol
# Density = 1.934679 g / cm^3
# Si number density = 19.390926 Si / 1000 Ang^3
#
#
#
# Elastic Constant Matrix: (Units=GPa)
#
#
# Indices 1 2 3 4 5 6 
#
# 1 105.6330 16.4751 46.1025 -100.8881 0.0000 0.0000
# 2 16.4751 105.6330 46.1025 100.8881 0.0000 0.0000
# 3 46.1025 46.1025 91.7507 0.0000 0.0000 0.0000
# 4 -100.8881 100.8881 0.0000 367.9938 0.0000 0.0000
# 5 0.0000 0.0000 0.0000 0.0000 367.9938 -100.8881
# 6 0.0000 0.0000 0.0000 0.0000 -100.8881 44.5789
#
#
#
# Elastic Compliance Matrix: (Units=1/GPa)
#
#
# Indices 1 2 3 4 5 6 
#
# 1 0.021374 -0.008177 -0.006631 0.008102 0.000000 0.000000
# 2 -0.008177 0.021374 -0.006631 -0.008102 0.000000 0.000000
# 3 -0.006631 -0.006631 0.017563 0.000000 0.000000 0.000000
# 4 0.008102 -0.008102 0.000000 0.007160 0.000000 0.000000
# 5 0.000000 0.000000 0.000000 0.000000 0.007160 0.016203
# 6 0.000000 0.000000 0.000000 0.000000 0.016203 0.059103
#
#
# Mechanical properties :
#
#
# Convention : Reuss Voigt Hill
#
# Bulk Modulus (GPa) = 57.36510 57.81964 57.59237
# Shear Modulus (GPa) = 27.40895 169.06909 98.23902
#
# Velocity S-wave (km/s) = 3.76372 9.34768 7.12547
# Velocity P-wave (km/s) = 6.96672 12.09909 9.87227
#
# Compressibility (1/GPa) = 0.01743220
#
# Stress axis : x y z
#
# Youngs Moduli (GPa) = 46.78593 46.78593 56.93835
#
# Poissons Ratio (x) = 0.38259 0.37755
# Poissons Ratio (y) = 0.38259 0.37755
# Poissons Ratio (z) = 0.31023 0.31023
#
# Static dielectric constant tensor:
#      x y z
#    x 1.695080 0.000000 0.000000 
#    y 0.000000 1.695080 0.000000 
#    z 0.000000 0.000000 1.697730 
# 
# From -- ./inp_files/3611.got.cif
#   From: 2010.05.17/outbox.cif.g08.bks.cpg/sg164_2_cif.got.tgz:3611.got - 2010.05.20 10:58:56.
