data_PCOD9578740
_publ_section_title
;
Structure prediction by ZEFSAII (Michael W. Deem and Ramdas Pophale) SiO2 
 PCOD9578740
Probable space group: P -3 M 1
;
_chemical_formula_sum "Si O2"
_cell_formula_units_Z 36
_cell_length_a 20.270992
_cell_length_b 20.270992
_cell_length_c 5.073208
_cell_angle_alpha 90.000000
_cell_angle_beta 90.000000
_cell_angle_gamma 120.000000
_cell_volume 1805.357875
_symmetry_space_group_name_H-M "P -3 M 1"
_symmetry_group_IT_number 164
_symmetry_cell_setting 'hexagonal'
loop_
_space_group_symop_operation_xyz
x,y,z
-y,x-y,z
-x+y,-x,z
x-y,-y,-z
-x,-x+y,-z
y,x,-z
-x,-y,-z
y,-x+y,-z
x-y,x,-z
-x+y,y,z
x,x-y,z
-y,-x,z
loop_
_atom_site_type_symbol
_atom_site_label
_atom_site_fract_x
_atom_site_fract_y
_atom_site_fract_z
Si Si1 0.422692 0.336622 0.565950
Si Si2 0.205424 0.256908 0.258759
Si Si3 0.821363 0.487209 0.060748
O O1 0.401522 0.401522 0.500000
O O2 0.343541 0.262571 0.649937
O O3 0.458476 0.321415 0.308442
O O4 0.479306 0.355481 0.808896
O O5 0.205520 0.205520 0.500000
O O6 0.123178 0.246356 0.206090
O O7 0.239084 0.239084 0.000000
O O8 0.742822 0.485644 0.004131
O O9 0.806845 0.403423 0.121366
#
# Coordination Sequence:
#
# PCOD9578740 Si02
#       3
#    12  12  12
#     4  11  24  41  64  93 121 155 200 258 312 351
#     4  11  22  39  64  92 123 158 201 249 302 361
#     4  12  25  42  63  88 124 165 205 245 295 363
#
# _framework density 19.940646000000001
#
# number of rings (size 3 to 8) (size 9 to 14) (size 15 to 20)
#    0.000    0.667    0.000   10.333    0.000    4.000 
#    0.000    3.333    0.000    6.667    0.000    0.000 
#    0.000    0.000    0.000    0.000    0.000    0.000 
#
# Total GULP energy -201558.556933 kJ/mol
# GULP energy per Si atom -5598.848804 kJ/mol
# Density = 1.989526 g / cm^3
# Si number density = 19.940646 Si / 1000 Ang^3
#
#
#
# Elastic Constant Matrix: (Units=GPa)
#
#
# Indices 1 2 3 4 5 6 
#
# 1 101.8036 88.7749 54.6821 6.3868 0.0000 0.0000
# 2 88.7749 101.8036 54.6821 -6.3868 0.0000 0.0000
# 3 54.6821 54.6821 144.0639 0.0000 0.0000 0.0000
# 4 6.3868 -6.3868 0.0000 18.5497 0.0000 0.0000
# 5 0.0000 0.0000 0.0000 0.0000 18.5497 6.3868
# 6 0.0000 0.0000 0.0000 0.0000 6.3868 6.5144
#
#
#
# Elastic Compliance Matrix: (Units=1/GPa)
#
#
# Indices 1 2 3 4 5 6 
#
# 1 0.061287 -0.054579 -0.002546 -0.039894 0.000000 0.000000
# 2 -0.054579 0.061287 -0.002546 0.039894 0.000000 0.000000
# 3 -0.002546 -0.002546 0.008874 0.000000 0.000000 0.000000
# 4 -0.039894 0.039894 0.000000 0.081381 0.000000 0.000000
# 5 0.000000 0.000000 0.000000 0.000000 0.081381 -0.079788
# 6 0.000000 0.000000 0.000000 0.000000 -0.079788 0.231733
#
#
# Mechanical properties :
#
#
# Convention : Reuss Voigt Hill
#
# Bulk Modulus (GPa) = 82.60400 82.66102 82.63251
# Shear Modulus (GPa) = 7.70033 18.69156 13.19594
#
# Velocity S-wave (km/s) = 1.96723 3.06495 2.57526
# Velocity P-wave (km/s) = 6.83190 7.35315 7.09731
#
# Compressibility (1/GPa) = 0.01210595
#
# Stress axis : x y z
#
# Youngs Moduli (GPa) = 16.31656 16.31656 112.68441
#
# Poissons Ratio (x) = 0.89054 0.28693
# Poissons Ratio (y) = 0.89054 0.28693
# Poissons Ratio (z) = 0.04155 0.04155
#
# Static dielectric constant tensor:
#      x y z
#    x 1.687430 0.000000 0.000000 
#    y 0.000000 1.687430 0.000000 
#    z 0.000000 0.000000 1.679910 
# 
# From -- ./inp_files/283.got.cif
#   From: 2010.05.17/outbox.cif.g08.bks.cpg/sg164_1_cif.got.tgz:283.got - 2010.05.20 10:58:56.
