data_PCOD9578333
_publ_section_title
;
Structure prediction by ZEFSAII (Michael W. Deem and Ramdas Pophale) SiO2 
 PCOD9578333
Probable space group: P -3 M 1
;
_chemical_formula_sum "Si O2"
_cell_formula_units_Z 96
_cell_length_a 19.450904
_cell_length_b 19.450904
_cell_length_c 20.460692
_cell_angle_alpha 90.000000
_cell_angle_beta 90.000000
_cell_angle_gamma 120.000000
_cell_volume 6703.946354
_symmetry_space_group_name_H-M "P -3 M 1"
_symmetry_group_IT_number 164
_symmetry_cell_setting 'hexagonal'
loop_
_space_group_symop_operation_xyz
x,y,z
-y,x-y,z
-x+y,-x,z
x-y,-y,-z
-x,-x+y,-z
y,x,-z
-x,-y,-z
y,-x+y,-z
x-y,x,-z
-x+y,y,z
x,x-y,z
-y,-x,z
loop_
_atom_site_type_symbol
_atom_site_label
_atom_site_fract_x
_atom_site_fract_y
_atom_site_fract_z
Si Si1 0.058068 0.612628 0.378262
Si Si2 0.329796 0.824565 0.490941
Si Si3 0.667263 0.491080 0.017612
Si Si4 0.964995 0.400707 0.116624
Si Si5 0.668951 0.174318 0.736518
Si Si6 0.707136 0.570427 0.879776
Si Si7 0.668969 0.173959 0.220805
Si Si8 0.879263 0.356423 0.365721
O O1 0.055253 0.527627 0.377770
O O2 0.101497 0.653268 0.445487
O O3 0.109502 0.660009 0.316027
O O4 0.969057 0.593594 0.371373
O O5 0.408069 0.816137 0.487166
O O6 0.254529 0.745471 0.465612
O O7 0.317252 0.837066 0.566626
O O8 0.752434 0.504868 0.039507
O O9 0.598883 0.401118 0.030539
O O10 0.638657 0.545365 0.054732
O O11 0.674344 0.509892 0.940665
O O12 0.990200 0.495100 0.117284
O O13 0.905995 0.360690 0.178424
O O14 0.040456 0.387433 0.115970
O O15 0.587976 0.175951 0.736143
O O16 0.741076 0.258925 0.716862
O O17 0.684525 0.155250 0.809268
O O18 0.804224 0.608448 0.884659
O O19 0.595823 0.191645 0.217509
O O20 0.749987 0.250014 0.197226
O O21 0.680702 0.157987 0.296275
O O22 0.881604 0.440802 0.364875
#
# Coordination Sequence:
#
# PCOD9578333 Si02
#       8
#    12  12  12  12  12  12  12  12
#     4   9  17  28  40  53  71  98 131 164 200 245
#     4  10  18  27  39  55  75  97 125 164 209 250
#     4  10  19  30  45  65  89 116 147 182 218 255
#     4  10  19  31  46  62  84 115 147 179 219 263
#     4  10  18  27  39  55  75  97 125 164 209 250
#     4  10  20  31  44  61  80 108 146 185 219 253
#     4  10  19  30  45  65  89 116 147 182 218 255
#     4   9  17  28  41  55  73 101 135 170 206 245
#
# _framework density 14.319924
#
# number of rings (size 3 to 8) (size 9 to 14) (size 15 to 20)
#    0.000    2.250    0.000    4.250    0.000    4.500 
#    0.000    5.000    0.000    0.250    0.000    0.000 
#    0.000    0.000    0.000    3.000    0.000   23.000 
#
# Total GULP energy -534639.085457 kJ/mol
# GULP energy per Si atom -5569.157140 kJ/mol
# Density = 1.428733 g / cm^3
# Si number density = 14.319924 Si / 1000 Ang^3
#
#
#
# Elastic Constant Matrix: (Units=GPa)
#
#
# Indices 1 2 3 4 5 6 
#
# 1 111.7055 41.6093 0.2616 -3.4327 0.0000 0.0000
# 2 41.6093 111.7055 0.2616 3.4327 0.0000 0.0000
# 3 0.2616 0.2616 78.2249 0.0000 0.0000 0.0000
# 4 -3.4327 3.4327 0.0000 16.9900 0.0000 0.0000
# 5 0.0000 0.0000 0.0000 0.0000 16.9900 -3.4327
# 6 0.0000 0.0000 0.0000 0.0000 -3.4327 35.0481
#
#
#
# Elastic Compliance Matrix: (Units=1/GPa)
#
#
# Indices 1 2 3 4 5 6 
#
# 1 0.010538 -0.004016 -0.000022 0.002941 0.000000 0.000000
# 2 -0.004016 0.010538 -0.000022 -0.002941 0.000000 0.000000
# 3 -0.000022 -0.000022 0.012784 0.000000 0.000000 0.000000
# 4 0.002941 -0.002941 0.000000 0.060046 0.000000 0.000000
# 5 0.000000 0.000000 0.000000 0.000000 0.060046 0.005881
# 6 0.000000 0.000000 0.000000 0.000000 0.005881 0.029108
#
#
# Mechanical properties :
#
#
# Convention : Reuss Voigt Hill
#
# Bulk Modulus (GPa) = 38.84739 42.87786 40.86262
# Shear Modulus (GPa) = 25.02993 31.10585 28.06789
#
# Velocity S-wave (km/s) = 4.18534 4.66575 4.43206
# Velocity P-wave (km/s) = 7.10937 7.68332 7.40191
#
# Compressibility (1/GPa) = 0.02574176
#
# Stress axis : x y z
#
# Youngs Moduli (GPa) = 94.89140 94.89140 78.22405
#
# Poissons Ratio (x) = 0.38106 0.00171
# Poissons Ratio (y) = 0.38106 0.00171
# Poissons Ratio (z) = 0.00207 0.00207
#
# Static dielectric constant tensor:
#      x y z
#    x 1.463650 0.000000 0.000000 
#    y 0.000000 1.463650 0.000000 
#    z 0.000000 0.000000 1.508360 
# 
# From -- ./inp_files/4699.got.cif
#   From: 2010.05.17/outbox.cif.g08.bks.cpg/sg164_3_cif.got.tgz:4699.got - 2010.05.20 10:58:56.
