data_PCOD9578429
_publ_section_title
;
Structure prediction by ZEFSAII (Michael W. Deem and Ramdas Pophale) SiO2 
 PCOD9578429
Probable space group: P -3 M 1
;
_chemical_formula_sum "Si O2"
_cell_formula_units_Z 84
_cell_length_a 18.075751
_cell_length_b 18.075751
_cell_length_c 15.848767
_cell_angle_alpha 90.000000
_cell_angle_beta 90.000000
_cell_angle_gamma 120.000000
_cell_volume 4484.549403
_symmetry_space_group_name_H-M "P -3 M 1"
_symmetry_group_IT_number 164
_symmetry_cell_setting 'hexagonal'
loop_
_space_group_symop_operation_xyz
x,y,z
-y,x-y,z
-x+y,-x,z
x-y,-y,-z
-x,-x+y,-z
y,x,-z
-x,-y,-z
y,-x+y,-z
x-y,x,-z
-x+y,y,z
x,x-y,z
-y,-x,z
loop_
_atom_site_type_symbol
_atom_site_label
_atom_site_fract_x
_atom_site_fract_y
_atom_site_fract_z
Si Si1 0.872324 0.289659 0.354597
Si Si2 0.829108 0.003104 0.776462
Si Si3 0.334018 0.493580 0.465730
Si Si4 0.222721 0.191745 0.405095
Si Si5 0.566086 0.957436 0.317249
Si Si6 0.333219 0.842148 0.155644
Si Si7 0.067221 0.309433 0.075300
O O1 0.779998 0.220003 0.318196
O O2 0.859617 0.336575 0.434842
O O3 0.912446 0.236024 0.393792
O O4 0.948839 0.356205 0.296434
O O5 0.928281 0.071720 0.793027
O O6 0.774365 0.023078 0.843220
O O7 0.811847 0.905924 0.782482
O O8 0.808129 0.021512 0.681608
O O9 0.243485 0.486971 0.448645
O O10 0.412221 0.587780 0.445206
O O11 0.345934 0.427277 0.407120
O O12 0.209304 0.209304 0.500000
O O13 0.179883 0.089942 0.400225
O O14 0.484608 0.969215 0.325163
O O15 0.543334 0.886054 0.246882
O O16 0.423139 0.846277 0.136687
O O17 0.254963 0.745038 0.156346
O O18 0.305774 0.896506 0.095772
O O19 0.150310 0.300619 0.055372
O O20 0.000000 0.276518 0.000000
#
# Coordination Sequence:
#
# PCOD9578429 Si02
#       7
#    12  12  12  12  12  12  12
#     4  10  20  31  44  64  93 134 183 232 279 327
#     4  10  20  34  53  77 108 146 188 235 284 333
#     4  10  19  30  46  69 100 138 181 232 288 345
#     4  10  19  30  45  66  95 133 178 227 276 325
#     4  10  19  32  51  74 101 134 174 221 276 336
#     4  10  21  37  59  86 114 142 172 212 267 332
#     4  10  21  37  58  84 113 146 184 227 275 327
#
# _framework density 18.730979000000001
#
# number of rings (size 3 to 8) (size 9 to 14) (size 15 to 20)
#    0.000    2.000    0.000    4.286    0.000    1.429 
#    0.000    7.857    0.000    4.857    0.000    0.000 
#    0.000    1.143    0.000    0.429    0.000    0.000 
#
# Total GULP energy -467965.814207 kJ/mol
# GULP energy per Si atom -5571.021598 kJ/mol
# Density = 1.868835 g / cm^3
# Si number density = 18.730979 Si / 1000 Ang^3
#
#
#
# Elastic Constant Matrix: (Units=GPa)
#
#
# Indices 1 2 3 4 5 6 
#
# 1 86.6476 52.4555 44.5896 -7.0638 0.0000 0.0000
# 2 52.4555 86.6476 44.5896 7.0638 0.0000 0.0000
# 3 44.5896 44.5896 81.5422 0.0000 0.0000 0.0000
# 4 -7.0638 7.0638 0.0000 8.8759 0.0000 0.0000
# 5 0.0000 0.0000 0.0000 0.0000 8.8759 -7.0638
# 6 0.0000 0.0000 0.0000 0.0000 -7.0638 17.0960
#
#
#
# Elastic Compliance Matrix: (Units=1/GPa)
#
#
# Indices 1 2 3 4 5 6 
#
# 1 0.027323 -0.016253 -0.006053 0.034679 0.000000 0.000000
# 2 -0.016253 0.027323 -0.006053 -0.034679 0.000000 0.000000
# 3 -0.006053 -0.006053 0.018884 0.000000 0.000000 0.000000
# 4 0.034679 -0.034679 0.000000 0.167864 0.000000 0.000000
# 5 0.000000 0.000000 0.000000 0.000000 0.167864 0.069359
# 6 0.000000 0.000000 0.000000 0.000000 0.069359 0.087151
#
#
# Mechanical properties :
#
#
# Convention : Reuss Voigt Hill
#
# Bulk Modulus (GPa) = 59.48769 59.78964 59.63866
# Shear Modulus (GPa) = 8.94887 14.51640 11.73263
#
# Velocity S-wave (km/s) = 2.18814 2.78689 2.50547
# Velocity P-wave (km/s) = 6.18157 6.50732 6.34654
#
# Compressibility (1/GPa) = 0.01681020
#
# Stress axis : x y z
#
# Youngs Moduli (GPa) = 36.59980 36.59980 52.95577
#
# Poissons Ratio (x) = 0.59485 0.32055
# Poissons Ratio (y) = 0.59485 0.32055
# Poissons Ratio (z) = 0.22154 0.22154
#
# Static dielectric constant tensor:
#      x y z
#    x 1.667260 0.000000 0.000000 
#    y 0.000000 1.667260 0.000000 
#    z 0.000000 0.000000 1.655180 
# 
# From -- ./inp_files/3559.got.cif
#   From: 2010.05.17/outbox.cif.g08.bks.cpg/sg164_2_cif.got.tgz:3559.got - 2010.05.20 10:58:56.
