data_PCOD9578260
_publ_section_title
;
Structure prediction by ZEFSAII (Michael W. Deem and Ramdas Pophale) SiO2 
 PCOD9578260
Probable space group: P -3 1 C
;
_chemical_formula_sum "Si O2"
_cell_formula_units_Z 82
_cell_length_a 20.440693
_cell_length_b 20.440693
_cell_length_c 11.409578
_cell_angle_alpha 90.000000
_cell_angle_beta 90.000000
_cell_angle_gamma 120.000000
_cell_volume 4128.491973
_symmetry_space_group_name_H-M "P -3 1 C"
_symmetry_group_IT_number 163
_symmetry_cell_setting 'hexagonal'
loop_
_space_group_symop_operation_xyz
x,y,z
-y,x-y,z
-x+y,-x,z
-y,-x,1/2-z
-x+y,y,1/2-z
x,x-y,1/2-z
-x,-y,-z
y,-x+y,-z
x-y,x,-z
y,x,1/2+z
x-y,-y,1/2+z
-x,-x+y,1/2+z
loop_
_atom_site_type_symbol
_atom_site_label
_atom_site_fract_x
_atom_site_fract_y
_atom_site_fract_z
Si Si1 0.886063 0.211460 0.983203
Si Si2 0.333334 0.666668 0.886714
Si Si3 0.596665 0.182641 0.489745
Si Si4 0.310738 0.057538 0.554473
Si Si5 0.368222 0.929362 0.892084
Si Si6 0.326619 0.919406 0.285214
Si Si7 0.581886 0.418115 0.750000
Si Si8 0.452672 0.287445 0.330333
O O1 0.834170 0.123197 0.952014
O O2 0.875644 0.256808 0.874391
O O3 0.858218 0.233743 0.101240
O O4 0.975864 0.246490 0.006487
O O5 0.333334 0.666667 0.750000
O O6 0.254631 0.598833 0.931303
O O7 0.518158 0.107946 0.458454
O O8 0.612239 0.202202 0.625698
O O9 0.662038 0.174767 0.427342
O O10 0.382265 0.086619 0.467405
O O11 0.344813 0.051604 0.680726
O O12 0.344243 0.895520 0.762469
O O13 0.410439 0.018307 0.869180
O O14 0.369713 0.878721 0.232097
O O15 0.474370 0.237185 0.250000
#
# Coordination Sequence:
#
# PCOD9578260 Si02
#       8
#    12   4  12  12  12  12   6  12
#     4  11  24  42  69  97 131 169 216 266 331 398
#     4  12  27  49  62  88 126 168 235 284 325 378
#     4  12  26  42  63  91 125 176 226 284 331 382
#     4  11  23  44  68  98 132 170 215 267 333 398
#     4  11  23  38  64  91 127 171 222 272 323 385
#     4  11  24  41  62  96 136 170 216 271 328 392
#     4  12  26  42  64  92 132 178 220 274 338 390
#     4  12  22  40  63  93 125 172 223 277 329 376
#
# _framework density 19.861974
#
# number of rings (size 3 to 8) (size 9 to 14) (size 15 to 20)
#    0.000    0.585    5.854    3.073    2.049    1.171 
#    2.634    0.000    0.000    0.293    0.000    0.000 
#    0.000    0.293    0.000    0.000    0.000    0.000 
#
# Total GULP energy -457700.361886 kJ/mol
# GULP energy per Si atom -5581.711730 kJ/mol
# Density = 1.981677 g / cm^3
# Si number density = 19.861974 Si / 1000 Ang^3
#
#
#
# Elastic Constant Matrix: (Units=GPa)
#
#
# Indices 1 2 3 4 5 6 
#
# 1 83.3226 42.7632 19.5442 0.0020 -5.4659 0.0026
# 2 42.7632 83.3219 19.5441 -0.0017 5.4656 -0.0026
# 3 19.5442 19.5441 125.0061 0.0009 0.0000 0.0008
# 4 0.0020 -0.0017 0.0009 29.4631 -0.0025 5.4649
# 5 -5.4659 5.4656 0.0000 -0.0025 29.4640 -0.0032
# 6 0.0026 -0.0026 0.0008 5.4649 -0.0032 20.2786
#
#
#
# Elastic Compliance Matrix: (Units=1/GPa)
#
#
# Indices 1 2 3 4 5 6 
#
# 1 0.017144 -0.008809 -0.001303 -0.000001 0.004814 -0.000002
# 2 -0.008809 0.017144 -0.001303 0.000001 -0.004814 0.000002
# 3 -0.001303 -0.001303 0.008407 0.000000 0.000000 0.000000
# 4 -0.000001 0.000001 0.000000 0.035727 0.000002 -0.009628
# 5 0.004814 -0.004814 0.000000 0.000002 0.035726 0.000004
# 6 -0.000002 0.000002 0.000000 -0.009628 0.000004 0.051908
#
#
# Mechanical properties :
#
#
# Convention : Reuss Voigt Hill
#
# Bulk Modulus (GPa) = 50.34054 50.59486 50.46770
# Shear Modulus (GPa) = 25.57446 29.82774 27.70110
#
# Velocity S-wave (km/s) = 3.59222 3.87945 3.73859
# Velocity P-wave (km/s) = 6.52730 6.75243 6.64082
#
# Compressibility (1/GPa) = 0.01986471
#
# Stress axis : x y z
#
# Youngs Moduli (GPa) = 58.32949 58.32906 118.94715
#
# Poissons Ratio (x) = 0.51382 0.15501
# Poissons Ratio (y) = 0.51382 0.15501
# Poissons Ratio (z) = 0.07601 0.07601
#
# Static dielectric constant tensor:
#      x y z
#    x 1.502840 -0.000470 0.000000 
#    y -0.000470 1.502580 0.000010 
#    z 0.000000 0.000010 1.721630 
# 
# From -- ./inp_files/1869.got.cif
#   From: 2010.05.17/outbox.cif.g08.bks.cpg/sg163_1_cif.got.tgz:1869.got - 2010.05.20 10:56:03.
