data_PCOD9578755
_publ_section_title
;
Structure prediction by ZEFSAII (Michael W. Deem and Ramdas Pophale) SiO2 
 PCOD9578755
Probable space group: P -3 M 1
;
_chemical_formula_sum "Si O2"
_cell_formula_units_Z 84
_cell_length_a 18.000000
_cell_length_b 18.000000
_cell_length_c 15.000000
_cell_angle_alpha 90.000000
_cell_angle_beta 90.000000
_cell_angle_gamma 120.000000
_cell_volume 4208.883462
_symmetry_space_group_name_H-M "P -3 M 1"
_symmetry_group_IT_number 164
_symmetry_cell_setting 'hexagonal'
loop_
_space_group_symop_operation_xyz
x,y,z
-y,x-y,z
-x+y,-x,z
x-y,-y,-z
-x,-x+y,-z
y,x,-z
-x,-y,-z
y,-x+y,-z
x-y,x,-z
-x+y,y,z
x,x-y,z
-y,-x,z
loop_
_atom_site_type_symbol
_atom_site_label
_atom_site_fract_x
_atom_site_fract_y
_atom_site_fract_z
Si Si1 0.665939 0.175614 0.068469
Si Si2 0.968632 0.397012 0.342753
Si Si3 0.501461 0.333465 0.672906
Si Si4 0.695229 0.550530 0.876968
Si Si5 0.039419 0.348234 0.845735
Si Si6 0.707720 0.941661 0.583621
Si Si7 0.999055 0.176424 0.241870
O O1 0.569921 0.139842 0.102053
O O2 0.728183 0.271818 0.100194
O O3 0.708143 0.120044 0.097119
O O4 0.665389 0.175377 0.961684
O O5 0.945530 0.472765 0.348132
O O6 0.951319 0.351607 0.246020
O O7 0.927529 0.315385 0.406917
O O8 0.071156 0.442309 0.359400
O O9 0.475302 0.237651 0.645538
O O10 0.598705 0.401296 0.647903
O O11 0.493775 0.333793 0.780934
O O12 0.798234 0.596467 0.874487
O O13 0.662769 0.616713 0.889091
O O14 0.024503 0.253760 0.828983
O O15 0.702061 0.851031 0.578464
O O16 0.752321 0.000000 0.500000
O O17 0.769917 0.990908 0.667502
O O18 0.092022 0.184043 0.232580
O O19 0.922632 0.077369 0.242263
#
# Coordination Sequence:
#
# PCOD9578755 Si02
#       7
#    12  12  12  12  12  12  12
#     4  11  22  34  48  68  97 133 174 220 268 312
#     4   9  19  34  52  75 103 136 173 210 247 291
#     4   9  16  27  45  71 103 137 172 209 251 298
#     4   9  18  30  46  70  98 131 170 214 264 310
#     4  10  19  33  52  73 100 133 173 215 254 301
#     4  10  21  36  57  83 109 137 168 204 250 304
#     4  10  20  35  56  81 108 135 164 202 250 306
#
# _framework density 19.957787
#
# number of rings (size 3 to 8) (size 9 to 14) (size 15 to 20)
#    0.000    2.286    0.000    3.000    0.000    7.143 
#    0.000    1.429    0.000    2.571    0.000    1.000 
#    0.000    6.857    0.000    0.000    0.000    0.000 
#
# Total GULP energy -467868.718700 kJ/mol
# GULP energy per Si atom -5569.865699 kJ/mol
# Density = 1.991236 g / cm^3
# Si number density = 19.957787 Si / 1000 Ang^3
#
#
#
# Elastic Constant Matrix: (Units=GPa)
#
#
# Indices 1 2 3 4 5 6 
#
# 1 81.4773 42.5265 18.6168 -3.9276 0.0000 0.0000
# 2 42.5265 81.4773 18.6168 3.9276 0.0000 0.0000
# 3 18.6168 18.6168 24.6489 0.0000 0.0000 0.0000
# 4 -3.9276 3.9276 0.0000 10.9735 0.0000 0.0000
# 5 0.0000 0.0000 0.0000 0.0000 10.9735 -3.9276
# 6 0.0000 0.0000 0.0000 0.0000 -3.9276 19.4754
#
#
#
# Elastic Compliance Matrix: (Units=1/GPa)
#
#
# Indices 1 2 3 4 5 6 
#
# 1 0.019050 -0.008621 -0.007877 0.009904 0.000000 0.000000
# 2 -0.008621 0.019050 -0.007877 -0.009904 0.000000 0.000000
# 3 -0.007877 -0.007877 0.052469 0.000000 0.000000 0.000000
# 4 0.009904 -0.009904 0.000000 0.098218 0.000000 0.000000
# 5 0.000000 0.000000 0.000000 0.000000 0.098218 0.019807
# 6 0.000000 0.000000 0.000000 0.000000 0.019807 0.055341
#
#
# Mechanical properties :
#
#
# Convention : Reuss Voigt Hill
#
# Bulk Modulus (GPa) = 23.91260 38.56930 31.24095
# Shear Modulus (GPa) = 12.34462 15.47406 13.90934
#
# Velocity S-wave (km/s) = 2.48974 2.78751 2.64282
# Velocity P-wave (km/s) = 4.50252 5.45231 5.00002
#
# Compressibility (1/GPa) = 0.04181896
#
# Stress axis : x y z
#
# Youngs Moduli (GPa) = 52.49326 52.49326 19.05900
#
# Poissons Ratio (x) = 0.45252 0.15013
# Poissons Ratio (y) = 0.45252 0.15013
# Poissons Ratio (z) = 0.41350 0.41350
#
# Static dielectric constant tensor:
#      x y z
#    x 1.705340 0.000000 0.000000 
#    y 0.000000 1.705340 0.000000 
#    z 0.000000 0.000000 1.929550 
# 
# From -- ./inp_files/3598.got.cif
#   From: 2010.05.17/outbox.ucp.g08.bks.cvg/sg164_2_cif.got.tgz:3598.got - 2010.06.11 15:16:10.
