data_PCOD9578481
_publ_section_title
;
Structure prediction by ZEFSAII (Michael W. Deem and Ramdas Pophale) SiO2 
 PCOD9578481
Probable space group: P -3 M 1
;
_chemical_formula_sum "Si O2"
_cell_formula_units_Z 48
_cell_length_a 18.720252
_cell_length_b 18.720252
_cell_length_c 8.863571
_cell_angle_alpha 90.000000
_cell_angle_beta 90.000000
_cell_angle_gamma 120.000000
_cell_volume 2690.064795
_symmetry_space_group_name_H-M "P -3 M 1"
_symmetry_group_IT_number 164
_symmetry_cell_setting 'hexagonal'
loop_
_space_group_symop_operation_xyz
x,y,z
-y,x-y,z
-x+y,-x,z
x-y,-y,-z
-x,-x+y,-z
y,x,-z
-x,-y,-z
y,-x+y,-z
x-y,x,-z
-x+y,y,z
x,x-y,z
-y,-x,z
loop_
_atom_site_type_symbol
_atom_site_label
_atom_site_fract_x
_atom_site_fract_y
_atom_site_fract_z
Si Si1 0.666592 0.679005 0.178766
Si Si2 0.668647 0.167621 0.698190
Si Si3 0.837051 0.000114 0.816127
Si Si4 0.378521 0.461275 0.603782
O O1 0.582026 0.677142 0.221555
O O2 0.747133 0.763512 0.228755
O O3 0.667254 0.603668 0.265217
O O4 0.670549 0.670549 0.000000
O O5 0.579430 0.158859 0.727510
O O6 0.743454 0.256547 0.741557
O O7 0.671746 0.153273 0.518053
O O8 0.823904 0.911952 0.766508
O O9 0.924953 0.075048 0.766118
O O10 0.837972 0.000000 0.000000
O O11 0.420151 0.420151 0.500000
O O12 0.453528 0.546473 0.665289
#
# Coordination Sequence:
#
# PCOD9578481 Si02
#       4
#    12  12  12  12
#     4  10  19  31  52  80 108 133 167 216 269 321
#     4  10  20  35  54  75 102 138 180 221 262 313
#     4   9  17  29  45  67  97 132 167 202 244 297
#     4   8  16  31  49  70  96 128 166 206 249 298
#
# _framework density 17.843436000000001
#
# number of rings (size 3 to 8) (size 9 to 14) (size 15 to 20)
#    0.000    2.750    0.000    3.500    0.000    5.000 
#    0.000    0.000    0.000    0.000    0.000    3.500 
#    0.000   20.000    0.000    0.000    0.000    0.000 
#
# Total GULP energy -267411.487631 kJ/mol
# GULP energy per Si atom -5571.072659 kJ/mol
# Density = 1.780282 g / cm^3
# Si number density = 17.843436 Si / 1000 Ang^3
#
#
#
# Elastic Constant Matrix: (Units=GPa)
#
#
# Indices 1 2 3 4 5 6 
#
# 1 115.3218 86.9196 25.3761 -3.7765 0.0000 0.0000
# 2 86.9196 115.3218 25.3761 3.7765 0.0000 0.0000
# 3 25.3761 25.3761 35.2099 0.0000 0.0000 0.0000
# 4 -3.7765 3.7765 0.0000 19.0749 0.0000 0.0000
# 5 0.0000 0.0000 0.0000 0.0000 19.0749 -3.7765
# 6 0.0000 0.0000 0.0000 0.0000 -3.7765 14.2011
#
#
#
# Elastic Compliance Matrix: (Units=1/GPa)
#
#
# Indices 1 2 3 4 5 6 
#
# 1 0.021601 -0.015565 -0.004350 0.007358 0.000000 0.000000
# 2 -0.015565 0.021601 -0.004350 -0.007358 0.000000 0.000000
# 3 -0.004350 -0.004350 0.034672 0.000000 0.000000 0.000000
# 4 0.007358 -0.007358 0.000000 0.055338 0.000000 0.000000
# 5 0.000000 0.000000 0.000000 0.000000 0.055338 0.014716
# 6 0.000000 0.000000 0.000000 0.000000 0.014716 0.074331
#
#
# Mechanical properties :
#
#
# Convention : Reuss Voigt Hill
#
# Bulk Modulus (GPa) = 34.07990 60.13301 47.10646
# Shear Modulus (GPa) = 15.56698 19.01564 17.29131
#
# Velocity S-wave (km/s) = 2.95688 3.26804 3.11635
# Velocity P-wave (km/s) = 5.54963 6.92919 6.27742
#
# Compressibility (1/GPa) = 0.02934281
#
# Stress axis : x y z
#
# Youngs Moduli (GPa) = 46.29454 46.29454 28.84181
#
# Poissons Ratio (x) = 0.72055 0.12547
# Poissons Ratio (y) = 0.72055 0.12547
# Poissons Ratio (z) = 0.20140 0.20140
#
# Static dielectric constant tensor:
#      x y z
#    x 1.614170 0.000000 0.000000 
#    y 0.000000 1.614170 0.000000 
#    z 0.000000 0.000000 1.610890 
# 
# From -- ./inp_files/1240.got.cif
#   From: 2010.05.17/outbox.cif.g08.bks.cpg/sg164_1_cif.got.tgz:1240.got - 2010.05.20 10:58:56.
