data_PCOD9578033
_publ_section_title
;
Structure prediction by ZEFSAII (Michael W. Deem and Ramdas Pophale) SiO2 
 PCOD9578033
Probable space group: P -3 1 C
;
_chemical_formula_sum "Si O2"
_cell_formula_units_Z 78
_cell_length_a 25.071963
_cell_length_b 25.071963
_cell_length_c 8.794892
_cell_angle_alpha 90.000000
_cell_angle_beta 90.000000
_cell_angle_gamma 120.000000
_cell_volume 4787.820048
_symmetry_space_group_name_H-M "P -3 1 C"
_symmetry_group_IT_number 163
_symmetry_cell_setting 'hexagonal'
loop_
_space_group_symop_operation_xyz
x,y,z
-y,x-y,z
-x+y,-x,z
-y,-x,1/2-z
-x+y,y,1/2-z
x,x-y,1/2-z
-x,-y,-z
y,-x+y,-z
x-y,x,-z
y,x,1/2+z
x-y,-y,1/2+z
-x,-x+y,1/2+z
loop_
_atom_site_type_symbol
_atom_site_label
_atom_site_fract_x
_atom_site_fract_y
_atom_site_fract_z
Si Si1 0.026543 0.915155 0.900686
Si Si2 0.262275 0.943006 0.065536
Si Si3 0.024855 0.551188 0.132939
Si Si4 0.760794 0.125372 0.251886
Si Si5 0.756557 0.815612 0.545854
Si Si6 0.858947 0.141054 0.750000
Si Si7 0.961519 0.367171 0.128245
O O1 0.044098 0.955903 0.750000
O O2 0.040250 0.860374 0.871322
O O3 0.958561 0.888762 0.964244
O O4 0.211112 0.894222 0.182503
O O5 0.246144 0.996532 0.023275
O O6 0.334307 0.981073 0.117931
O O7 0.253552 0.905013 0.913390
O O8 0.060812 0.530406 0.250000
O O9 0.976771 0.557679 0.243769
O O10 0.051532 0.612259 0.033595
O O11 0.000000 0.500000 0.000000
O O12 0.801824 0.198177 0.250000
O O13 0.799551 0.101637 0.350111
O O14 0.695575 0.098031 0.329417
O O15 0.753238 0.849385 0.392491
#
# Coordination Sequence:
#
# PCOD9578033 Si02
#       7
#    12  12  12  12  12   6  12
#     4  12  28  44  60  70  85 108 148 215 297 371
#     4  11  23  36  55  76 105 137 176 226 278 330
#     4   9  18  32  54  83 110 146 193 214 250 304
#     4  11  21  36  51  77 107 142 180 221 272 336
#     4  11  24  38  56  72  93 121 170 225 282 344
#     4  12  24  36  54  76  96 130 186 224 280 354
#     4  10  19  34  54  78 113 150 182 227 267 313
#
# _framework density 16.291339000000001
#
# number of rings (size 3 to 8) (size 9 to 14) (size 15 to 20)
#    0.000    1.231    3.077    3.846    8.615    0.000 
#    0.000    0.000    0.000    0.000    0.000    0.000 
#    0.000    0.000    0.000   12.462   29.692    0.154 
#
# Total GULP energy -434668.551132 kJ/mol
# GULP energy per Si atom -5572.673732 kJ/mol
# Density = 1.625426 g / cm^3
# Si number density = 16.291339 Si / 1000 Ang^3
#
#
#
# Elastic Constant Matrix: (Units=GPa)
#
#
# Indices 1 2 3 4 5 6 
#
# 1 65.1918 37.7225 29.6782 0.0001 -1.4277 0.0000
# 2 37.7225 65.1918 29.6782 -0.0001 1.4277 0.0000
# 3 29.6782 29.6782 85.7163 0.0000 0.0000 0.0000
# 4 0.0001 -0.0001 0.0000 24.0194 0.0000 1.4277
# 5 -1.4277 1.4277 0.0000 0.0000 24.0194 0.0001
# 6 0.0000 0.0000 0.0000 1.4277 0.0001 13.7346
#
#
#
# Elastic Compliance Matrix: (Units=1/GPa)
#
#
# Indices 1 2 3 4 5 6 
#
# 1 0.024386 -0.012245 -0.004204 0.000000 0.002177 0.000000
# 2 -0.012245 0.024386 -0.004204 0.000000 -0.002177 0.000000
# 3 -0.004204 -0.004204 0.014577 0.000000 0.000000 0.000000
# 4 0.000000 0.000000 0.000000 0.041892 0.000000 -0.004355
# 5 0.002177 -0.002177 0.000000 0.000000 0.041892 0.000000
# 6 0.000000 0.000000 0.000000 -0.004355 0.000000 0.073261
#
#
# Mechanical properties :
#
#
# Convention : Reuss Voigt Hill
#
# Bulk Modulus (GPa) = 45.36179 45.58419 45.47299
# Shear Modulus (GPa) = 18.58410 20.28941 19.43675
#
# Velocity S-wave (km/s) = 3.38114 3.53287 3.45784
# Velocity P-wave (km/s) = 6.56867 6.68453 6.62685
#
# Compressibility (1/GPa) = 0.02204499
#
# Stress axis : x y z
#
# Youngs Moduli (GPa) = 41.00713 41.00713 68.59924
#
# Poissons Ratio (x) = 0.50212 0.28838
# Poissons Ratio (y) = 0.50212 0.28838
# Poissons Ratio (z) = 0.17239 0.17239
#
# Static dielectric constant tensor:
#      x y z
#    x 1.567110 0.000000 0.000000 
#    y 0.000000 1.567110 0.000000 
#    z 0.000000 0.000000 1.613660 
# 
# From -- ./inp_files/1300.got.cif
#   From: 2010.05.17/outbox.cif.g08.bks.cpg/sg163_1_cif.got.tgz:1300.got - 2010.05.20 10:56:03.
