data_PCOD9578766
_publ_section_title
;
Structure prediction by ZEFSAII (Michael W. Deem and Ramdas Pophale) SiO2 
 PCOD9578766
Probable space group: P -3 C 1
;
_chemical_formula_sum "Si O2"
_cell_formula_units_Z 76
_cell_length_a 16.249086
_cell_length_b 16.249086
_cell_length_c 14.535988
_cell_angle_alpha 90.000000
_cell_angle_beta 90.000000
_cell_angle_gamma 120.000000
_cell_volume 3323.786059
_symmetry_space_group_name_H-M "P -3 C 1"
_symmetry_group_IT_number 165
_symmetry_cell_setting 'hexagonal'
loop_
_space_group_symop_operation_xyz
x,y,z
-y,x-y,z
-x+y,-x,z
x-y,-y,1/2-z
-x,-x+y,1/2-z
y,x,1/2-z
-x,-y,-z
y,-x+y,-z
x-y,x,-z
-x+y,y,1/2+z
x,x-y,1/2+z
-y,-x,1/2+z
loop_
_atom_site_type_symbol
_atom_site_label
_atom_site_fract_x
_atom_site_fract_y
_atom_site_fract_z
Si Si1 0.181258 0.904083 0.193103
Si Si2 0.000000 0.000000 0.640040
Si Si3 0.769662 0.059852 0.458914
Si Si4 0.342091 0.507166 0.086064
Si Si5 0.124695 0.230712 0.377504
Si Si6 0.344723 0.777969 0.376720
Si Si7 0.841959 0.330916 0.315992
O O1 0.116607 0.865589 0.103398
O O2 0.115461 0.839450 0.276950
O O3 0.274678 0.898565 0.171910
O O4 0.208116 0.000000 0.250000
O O5 0.940406 0.886269 0.614717
O O6 0.000000 0.000000 0.750000
O O7 0.700536 0.095517 0.422494
O O8 0.795148 0.073420 0.566541
O O9 0.732680 0.952759 0.434723
O O10 0.444427 0.570630 0.132383
O O11 0.263917 0.521644 0.143031
O O12 0.347677 0.538516 0.980485
O O13 0.248824 0.676006 0.364961
O O14 0.347375 0.841091 0.292788
#
# Coordination Sequence:
#
# PCOD9578766 Si02
#       7
#    12   4  12  12  12  12  12
#     4  11  24  41  63  90 131 172 213 272 337 401
#     4  12  24  40  80 103 133 179 235 292 326 442
#     4  11  25  38  68  93 137 175 214 277 338 407
#     4  11  20  38  60  94 127 169 220 276 326 395
#     4  12  23  44  64 102 132 173 225 273 347 401
#     4  10  17  29  60  89 117 151 213 270 311 375
#     4  11  20  37  62  89 126 167 218 273 327 389
#
# _framework density 22.865490999999999
#
# number of rings (size 3 to 8) (size 9 to 14) (size 15 to 20)
#    0.316    0.632    3.158    6.000    0.000    0.632 
#    0.000    3.158    0.000    3.789    0.000    0.000 
#    0.000    0.000    0.000    0.000    0.000    0.000 
#
# Total GULP energy -424040.780282 kJ/mol
# GULP energy per Si atom -5579.483951 kJ/mol
# Density = 2.281345 g / cm^3
# Si number density = 22.865491 Si / 1000 Ang^3
#
#
#
# Elastic Constant Matrix: (Units=GPa)
#
#
# Indices 1 2 3 4 5 6 
#
# 1 63.6837 26.4742 1.2952 0.7670 0.0000 0.0000
# 2 26.4742 63.6837 1.2952 -0.7670 0.0000 0.0000
# 3 1.2952 1.2952 125.6261 0.0000 0.0000 0.0000
# 4 0.7670 -0.7670 0.0000 21.1210 0.0000 0.0000
# 5 0.0000 0.0000 0.0000 0.0000 21.1210 0.7670
# 6 0.0000 0.0000 0.0000 0.0000 0.7670 18.6047
#
#
#
# Elastic Compliance Matrix: (Units=1/GPa)
#
#
# Indices 1 2 3 4 5 6 
#
# 1 0.019005 -0.007910 -0.000114 -0.000977 0.000000 0.000000
# 2 -0.007910 0.019005 -0.000114 0.000977 0.000000 0.000000
# 3 -0.000114 -0.000114 0.007962 0.000000 0.000000 0.000000
# 4 -0.000977 0.000977 0.000000 0.047417 0.000000 0.000000
# 5 0.000000 0.000000 0.000000 0.000000 0.047417 -0.001955
# 6 0.000000 0.000000 0.000000 0.000000 -0.001955 0.053830
#
#
# Mechanical properties :
#
#
# Convention : Reuss Voigt Hill
#
# Bulk Modulus (GPa) = 33.67591 34.56918 34.12255
# Shear Modulus (GPa) = 22.64353 27.09793 24.87073
#
# Velocity S-wave (km/s) = 3.15031 3.44627 3.30160
# Velocity P-wave (km/s) = 5.29078 5.56659 5.43044
#
# Compressibility (1/GPa) = 0.02969482
#
# Stress axis : x y z
#
# Youngs Moduli (GPa) = 52.61752 52.61752 125.58886
#
# Poissons Ratio (x) = 0.41621 0.01437
# Poissons Ratio (y) = 0.41621 0.01437
# Poissons Ratio (z) = 0.00602 0.00602
#
# Static dielectric constant tensor:
#      x y z
#    x 1.936650 0.000000 0.000000 
#    y 0.000000 1.936650 0.000000 
#    z 0.000000 0.000000 2.012670 
# 
# From -- ./inp_files/1856.got.cif
#   From: 2010.05.17/outbox.cif.g08.bks.cpg/sg165_1_cif.got.tgz:1856.got - 2010.05.20 11:02:39.
