data_PCOD9578540
_publ_section_title
;
Structure prediction by ZEFSAII (Michael W. Deem and Ramdas Pophale) SiO2 
 PCOD9578540
Probable space group: P -3 M 1
;
_chemical_formula_sum "Si O2"
_cell_formula_units_Z 66
_cell_length_a 13.242259
_cell_length_b 13.242259
_cell_length_c 28.170506
_cell_angle_alpha 90.000000
_cell_angle_beta 90.000000
_cell_angle_gamma 120.000000
_cell_volume 4278.085256
_symmetry_space_group_name_H-M "P -3 M 1"
_symmetry_group_IT_number 164
_symmetry_cell_setting 'hexagonal'
loop_
_space_group_symop_operation_xyz
x,y,z
-y,x-y,z
-x+y,-x,z
x-y,-y,-z
-x,-x+y,-z
y,x,-z
-x,-y,-z
y,-x+y,-z
x-y,x,-z
-x+y,y,z
x,x-y,z
-y,-x,z
loop_
_atom_site_type_symbol
_atom_site_label
_atom_site_fract_x
_atom_site_fract_y
_atom_site_fract_z
Si Si1 0.666660 0.573905 0.770667
Si Si2 0.427713 0.333345 0.148310
Si Si3 0.429384 0.332981 0.308943
Si Si4 0.333652 0.430455 0.579829
Si Si5 0.905084 0.332733 0.038587
Si Si6 0.000000 0.759900 0.500000
O O1 0.789357 0.578714 0.771011
O O2 0.559504 0.440497 0.771092
O O3 0.647535 0.637392 0.815825
O O4 0.647802 0.635210 0.724680
O O5 0.420426 0.210213 0.158016
O O6 0.561479 0.438522 0.153665
O O7 0.393403 0.334556 0.093424
O O8 0.418563 0.209282 0.297263
O O9 0.563177 0.436824 0.302286
O O10 0.401174 0.333220 0.364583
O O11 0.231277 0.462553 0.574167
O O12 0.458163 0.541838 0.568357
O O13 0.300916 0.322680 0.545356
O O14 0.885067 0.442534 0.032928
O O15 0.785495 0.214506 0.031013
O O16 0.000000 0.348744 0.000000
O O17 0.885588 0.771176 0.506111
#
# Coordination Sequence:
#
# PCOD9578540 Si02
#       6
#    12  12  12  12  12   6
#     4  10  20  32  46  65  92 124 153 181 216 264
#     4   9  17  30  49  71  92 115 147 190 235 272
#     4   9  17  30  50  74  95 115 143 184 232 276
#     4   9  17  30  49  72  95 117 144 184 234 280
#     4   9  17  29  46  69  95 121 149 183 225 270
#     4  10  20  32  46  64  90 126 164 196 222 256
#
# _framework density 15.427462
#
# number of rings (size 3 to 8) (size 9 to 14) (size 15 to 20)
#    0.000    2.727    0.000    1.818    0.000    4.364 
#    0.000    1.818    0.000    5.636    0.000    0.000 
#    0.000    0.000    0.000    0.000    0.000    0.000 
#
# Total GULP energy -367857.134569 kJ/mol
# GULP energy per Si atom -5573.592948 kJ/mol
# Density = 1.539235 g / cm^3
# Si number density = 15.427462 Si / 1000 Ang^3
#
#
#
# Elastic Constant Matrix: (Units=GPa)
#
#
# Indices 1 2 3 4 5 6 
#
# 1 110.8839 71.1747 79.9946 0.1321 0.0000 0.0000
# 2 71.1747 110.8839 79.9946 -0.1321 0.0000 0.0000
# 3 79.9946 79.9946 100.7201 0.0000 0.0000 0.0000
# 4 0.1321 -0.1321 0.0000 20.5376 0.0000 0.0000
# 5 0.0000 0.0000 0.0000 0.0000 20.5376 0.1321
# 6 0.0000 0.0000 0.0000 0.0000 0.1321 19.8546
#
#
#
# Elastic Compliance Matrix: (Units=1/GPa)
#
#
# Indices 1 2 3 4 5 6 
#
# 1 0.021685 -0.003500 -0.014443 -0.000162 0.000000 0.000000
# 2 -0.003500 0.021685 -0.014443 0.000162 0.000000 0.000000
# 3 -0.014443 -0.014443 0.032870 0.000000 0.000000 0.000000
# 4 -0.000162 0.000162 0.000000 0.048693 0.000000 0.000000
# 5 0.000000 0.000000 0.000000 0.000000 0.048693 -0.000324
# 6 0.000000 0.000000 0.000000 0.000000 -0.000324 0.050368
#
#
# Mechanical properties :
#
#
# Convention : Reuss Voigt Hill
#
# Bulk Modulus (GPa) = 87.19541 87.20173 87.19857
# Shear Modulus (GPa) = 17.08888 18.27422 17.68155
#
# Velocity S-wave (km/s) = 3.33181 3.44543 3.38910
# Velocity P-wave (km/s) = 8.45243 8.51319 8.48286
#
# Compressibility (1/GPa) = 0.01146849
#
# Stress axis : x y z
#
# Youngs Moduli (GPa) = 46.11586 46.11586 30.42254
#
# Poissons Ratio (x) = 0.16139 0.43939
# Poissons Ratio (y) = 0.16139 0.43939
# Poissons Ratio (z) = 0.66605 0.66605
#
# Static dielectric constant tensor:
#      x y z
#    x 1.484700 0.000000 0.000000 
#    y 0.000000 1.484700 0.000000 
#    z 0.000000 0.000000 1.526470 
# 
# From -- ./inp_files/5491.got.cif
#   From: 2010.05.17/outbox.cif.g08.bks.cpg/sg164_3_cif.got.tgz:5491.got - 2010.05.20 10:58:56.
