data_PCOD9578284
_publ_section_title
;
Structure prediction by ZEFSAII (Michael W. Deem and Ramdas Pophale) SiO2 
 PCOD9578284
Probable space group: P -3 1 C
;
_chemical_formula_sum "Si O2"
_cell_formula_units_Z 60
_cell_length_a 20.084020
_cell_length_b 20.084020
_cell_length_c 7.568568
_cell_angle_alpha 90.000000
_cell_angle_beta 90.000000
_cell_angle_gamma 120.000000
_cell_volume 2643.903741
_symmetry_space_group_name_H-M "P -3 1 C"
_symmetry_group_IT_number 163
_symmetry_cell_setting 'hexagonal'
loop_
_space_group_symop_operation_xyz
x,y,z
-y,x-y,z
-x+y,-x,z
-y,-x,1/2-z
-x+y,y,1/2-z
x,x-y,1/2-z
-x,-y,-z
y,-x+y,-z
x-y,x,-z
y,x,1/2+z
x-y,-y,1/2+z
-x,-x+y,1/2+z
loop_
_atom_site_type_symbol
_atom_site_label
_atom_site_fract_x
_atom_site_fract_y
_atom_site_fract_z
Si Si1 0.891553 0.187482 0.463518
Si Si2 0.667342 0.564514 0.369391
Si Si3 0.765527 0.948799 0.179153
Si Si4 0.949870 0.543630 0.506174
Si Si5 0.478596 0.813981 0.291213
O O1 0.868382 0.243040 0.370030
O O2 0.924978 0.219951 0.660980
O O3 0.824100 0.102063 0.508073
O O4 0.962857 0.188668 0.365278
O O5 0.628428 0.536893 0.179260
O O6 0.629217 0.612375 0.450521
O O7 0.654492 0.498687 0.508205
O O8 0.811621 0.905811 0.250000
O O9 0.887893 0.516399 0.661973
O O10 0.000000 0.500000 0.500000
O O11 0.388658 0.777316 0.250000
O O12 0.505616 0.752808 0.250000
#
# Coordination Sequence:
#
# PCOD9578284 Si02
#       5
#    12  12  12  12  12
#     4   9  20  37  57  95 125 170 212 276 350 414
#     4  12  23  40  73 101 142 179 233 304 357 444
#     4   8  20  35  59  83 132 166 211 265 346 424
#     4  12  24  43  73 105 134 191 246 296 369 443
#     4  12  28  47  72 103 149 193 249 305 374 447
#
# _framework density 22.693715000000001
#
# number of rings (size 3 to 8) (size 9 to 14) (size 15 to 20)
#    1.200    0.000    4.000    2.000    2.800    1.600 
#    0.000    2.000    0.000    2.800    0.000    0.000 
#    0.000    0.000    0.000    0.000    0.000    0.000 
#
# Total GULP energy -334948.683850 kJ/mol
# GULP energy per Si atom -5582.478064 kJ/mol
# Density = 2.264206 g / cm^3
# Si number density = 22.693715 Si / 1000 Ang^3
#
#
#
# Elastic Constant Matrix: (Units=GPa)
#
#
# Indices 1 2 3 4 5 6 
#
# 1 61.8676 37.2417 45.6765 0.0002 -5.6030 0.0000
# 2 37.2417 61.8676 45.6765 -0.0002 5.6030 0.0000
# 3 45.6765 45.6765 161.6880 0.0000 0.0000 0.0000
# 4 0.0002 -0.0002 0.0000 34.8566 0.0000 5.6030
# 5 -5.6030 5.6030 0.0000 0.0000 34.8566 0.0002
# 6 0.0000 0.0000 0.0000 5.6030 0.0002 12.3129
#
#
#
# Elastic Compliance Matrix: (Units=1/GPa)
#
#
# Indices 1 2 3 4 5 6 
#
# 1 0.028727 -0.015085 -0.003854 0.000000 0.007043 0.000000
# 2 -0.015085 0.028727 -0.003854 0.000000 -0.007043 0.000000
# 3 -0.003854 -0.003854 0.008362 0.000000 0.000000 0.000000
# 4 0.000000 0.000000 0.000000 0.030953 0.000000 -0.014085
# 5 0.007043 -0.007043 0.000000 0.000000 0.030953 -0.000001
# 6 0.000000 0.000000 0.000000 -0.014085 -0.000001 0.087625
#
#
# Mechanical properties :
#
#
# Convention : Reuss Voigt Hill
#
# Bulk Modulus (GPa) = 49.42920 60.29029 54.85975
# Shear Modulus (GPa) = 18.67921 26.86046 22.76984
#
# Velocity S-wave (km/s) = 2.87209 3.44409 3.17101
# Velocity P-wave (km/s) = 5.72947 6.51462 6.13462
#
# Compressibility (1/GPa) = 0.02023096
#
# Stress axis : x y z
#
# Youngs Moduli (GPa) = 34.81008 34.81008 119.58608
#
# Poissons Ratio (x) = 0.52512 0.46087
# Poissons Ratio (y) = 0.52512 0.46087
# Poissons Ratio (z) = 0.13415 0.13415
#
# Static dielectric constant tensor:
#      x y z
#    x 1.885930 0.000000 0.000000 
#    y 0.000000 1.885930 0.000000 
#    z 0.000000 0.000000 1.897770 
# 
# From -- ./inp_files/1735.got.cif
#   From: 2010.05.17/outbox.cif.g08.bks.cpg/sg163_1_cif.got.tgz:1735.got - 2010.05.20 10:56:03.
