data_PCOD9578220
_publ_section_title
;
Structure prediction by ZEFSAII (Michael W. Deem and Ramdas Pophale) SiO2 
 PCOD9578220
Probable space group: P -3 1 C
;
_chemical_formula_sum "Si O2"
_cell_formula_units_Z 84
_cell_length_a 17.939185
_cell_length_b 17.939185
_cell_length_c 14.227897
_cell_angle_alpha 90.000000
_cell_angle_beta 90.000000
_cell_angle_gamma 120.000000
_cell_volume 3965.306496
_symmetry_space_group_name_H-M "P -3 1 C"
_symmetry_group_IT_number 163
_symmetry_cell_setting 'hexagonal'
loop_
_space_group_symop_operation_xyz
x,y,z
-y,x-y,z
-x+y,-x,z
-y,-x,1/2-z
-x+y,y,1/2-z
x,x-y,1/2-z
-x,-y,-z
y,-x+y,-z
x-y,x,-z
y,x,1/2+z
x-y,-y,1/2+z
-x,-x+y,1/2+z
loop_
_atom_site_type_symbol
_atom_site_label
_atom_site_fract_x
_atom_site_fract_y
_atom_site_fract_z
Si Si1 0.802563 0.197437 0.750000
Si Si2 0.542115 0.009927 0.345727
Si Si3 0.419245 0.553435 0.502408
Si Si4 0.224154 0.470593 0.459251
Si Si5 0.798394 0.794785 0.382881
Si Si6 0.943638 0.887276 0.750000
Si Si7 0.708220 0.700277 0.211454
Si Si8 0.290858 0.110233 0.039705
O O1 0.767825 0.215951 0.652493
O O2 0.756663 0.094840 0.770507
O O3 0.488843 0.977686 0.250000
O O4 0.536534 0.087722 0.396045
O O5 0.507536 0.936730 0.425501
O O6 0.636791 0.033295 0.312557
O O7 0.322390 0.533293 0.490061
O O8 0.486252 0.652517 0.479286
O O9 0.191340 0.385236 0.524259
O O10 0.830725 0.888269 0.336713
O O11 0.768051 0.722684 0.302723
O O12 0.863843 0.782383 0.448215
O O13 0.718612 0.776361 0.445873
O O14 0.907704 0.953852 0.750000
O O15 0.771217 0.725824 0.123903
#
# Coordination Sequence:
#
# PCOD9578220 Si02
#       8
#     6  12  12  12  12   6  12  12
#     4  12  23  42  76 106 148 186 234 298 360 434
#     4  11  25  45  73 102 140 191 233 288 369 433
#     4  11  26  45  73 103 147 181 241 297 354 443
#     4  12  25  47  71 109 144 188 235 300 364 426
#     4  12  28  43  73 102 139 187 245 291 361 425
#     4  10  25  46  64  90 138 180 232 298 348 410
#     4  12  24  46  68 106 141 186 235 293 352 429
#     4  12  28  45  72 103 143 188 238 301 355 424
#
# _framework density 21.183733
#
# number of rings (size 3 to 8) (size 9 to 14) (size 15 to 20)
#    0.143    0.286    4.286    3.714    6.000    0.000 
#    0.000    1.429    0.000    0.000    0.000    0.000 
#    0.000    0.000    0.000    0.000    0.000    0.000 
#
# Total GULP energy -468836.876128 kJ/mol
# GULP energy per Si atom -5581.391382 kJ/mol
# Density = 2.113552 g / cm^3
# Si number density = 21.183733 Si / 1000 Ang^3
#
#
#
# Elastic Constant Matrix: (Units=GPa)
#
#
# Indices 1 2 3 4 5 6 
#
# 1 53.4402 -4.2709 15.8151 -0.0002 -8.1051 0.0000
# 2 -4.2709 53.4402 15.8151 0.0002 8.1051 0.0000
# 3 15.8151 15.8151 104.6544 0.0000 0.0000 0.0000
# 4 -0.0002 0.0002 0.0000 20.5433 0.0000 8.1051
# 5 -8.1051 8.1051 0.0000 0.0000 20.5433 -0.0002
# 6 0.0000 0.0000 0.0000 8.1051 -0.0002 28.8556
#
#
#
# Elastic Compliance Matrix: (Units=1/GPa)
#
#
# Indices 1 2 3 4 5 6 
#
# 1 0.021008 0.001520 -0.003404 0.000000 0.007688 0.000000
# 2 0.001520 0.021008 -0.003404 0.000000 -0.007688 0.000000
# 3 -0.003404 -0.003404 0.010584 0.000000 0.000000 0.000000
# 4 0.000000 0.000000 0.000000 0.054745 0.000000 -0.015377
# 5 0.007688 -0.007688 0.000000 0.000000 0.054745 0.000000
# 6 0.000000 0.000000 0.000000 -0.015377 0.000000 0.038975
#
#
# Mechanical properties :
#
#
# Convention : Reuss Voigt Hill
#
# Bulk Modulus (GPa) = 23.79678 29.58372 26.69025
# Shear Modulus (GPa) = 22.15849 26.26680 24.21264
#
# Velocity S-wave (km/s) = 3.23772 3.52511 3.38447
# Velocity P-wave (km/s) = 5.02345 5.52849 5.28201
#
# Compressibility (1/GPa) = 0.04202250
#
# Stress axis : x y z
#
# Youngs Moduli (GPa) = 47.60191 47.60191 94.48066
#
# Poissons Ratio (x) = -0.07237 0.32165
# Poissons Ratio (y) = -0.07237 0.32165
# Poissons Ratio (z) = 0.16205 0.16205
#
# Static dielectric constant tensor:
#      x y z
#    x 1.907540 0.000000 0.000000 
#    y 0.000000 1.907540 0.000000 
#    z 0.000000 0.000000 1.814630 
# 
# From -- ./inp_files/2688.got.cif
#   From: 2010.05.17/outbox.cif.g08.bks.cpg/sg163_2_cif.got.tgz:2688.got - 2010.05.20 10:56:03.
