data_PCOD9578271
_publ_section_title
;
Structure prediction by ZEFSAII (Michael W. Deem and Ramdas Pophale) SiO2 
 PCOD9578271
Probable space group: P -3 1 C
;
_chemical_formula_sum "Si O2"
_cell_formula_units_Z 60
_cell_length_a 12.121621
_cell_length_b 12.121621
_cell_length_c 22.834833
_cell_angle_alpha 90.000000
_cell_angle_beta 90.000000
_cell_angle_gamma 120.000000
_cell_volume 2905.693980
_symmetry_space_group_name_H-M "P -3 1 C"
_symmetry_group_IT_number 163
_symmetry_cell_setting 'hexagonal'
loop_
_space_group_symop_operation_xyz
x,y,z
-y,x-y,z
-x+y,-x,z
-y,-x,1/2-z
-x+y,y,1/2-z
x,x-y,1/2-z
-x,-y,-z
y,-x+y,-z
x-y,x,-z
y,x,1/2+z
x-y,-y,1/2+z
-x,-x+y,1/2+z
loop_
_atom_site_type_symbol
_atom_site_label
_atom_site_fract_x
_atom_site_fract_y
_atom_site_fract_z
Si Si1 0.974223 0.307006 0.086569
Si Si2 0.666667 0.333334 0.094079
Si Si3 0.333335 0.666668 0.045834
Si Si4 0.000000 0.000000 0.680296
Si Si5 0.755887 0.137363 0.540831
Si Si6 0.049722 0.593282 0.618278
Si Si7 0.181765 0.904616 0.816574
O O1 0.100220 0.304338 0.064659
O O2 0.006316 0.449140 0.106431
O O3 0.898045 0.214006 0.139792
O O4 0.884625 0.262752 0.028744
O O5 0.643746 0.198926 0.115350
O O6 0.666668 0.333334 0.024459
O O7 0.233535 0.709423 0.062814
O O8 0.000000 0.000000 0.750000
O O9 0.001854 0.872004 0.664972
O O10 0.650919 0.003137 0.567858
O O11 0.034443 0.666575 0.674199
O O12 0.141328 0.858673 0.750000
#
# Coordination Sequence:
#
# PCOD9578271 Si02
#       7
#    12   4   4   4  12  12  12
#     4  12  24  40  65  99 135 176 221 276 339 406
#     4  12  21  39  61  91 135 172 220 264 331 413
#     4  12  18  33  60  88 128 172 207 255 325 392
#     4   9  21  45  69  88 119 172 234 270 325 395
#     4  12  24  39  64  99 134 173 220 272 335 406
#     4  12  23  40  65  97 133 170 223 272 338 405
#     4  11  24  43  67  95 130 177 224 282 331 399
#
# _framework density 20.649111000000001
#
# number of rings (size 3 to 8) (size 9 to 14) (size 15 to 20)
#    0.000    0.400    6.000    4.200    0.000    0.800 
#    0.000    0.000    0.000    4.000    0.000    0.000 
#    0.000    0.000    0.000    0.000    0.000    0.000 
#
# Total GULP energy -334532.166801 kJ/mol
# GULP energy per Si atom -5575.536113 kJ/mol
# Density = 2.060211 g / cm^3
# Si number density = 20.649111 Si / 1000 Ang^3
#
#
#
# Elastic Constant Matrix: (Units=GPa)
#
#
# Indices 1 2 3 4 5 6 
#
# 1 95.6698 31.1502 22.1103 0.0000 9.0094 0.0003
# 2 31.1502 95.6700 22.1105 0.0003 -9.0093 -0.0001
# 3 22.1103 22.1105 91.6572 0.0001 0.0000 0.0002
# 4 0.0000 0.0003 0.0001 24.2737 0.0000 -9.0092
# 5 9.0094 -9.0093 0.0000 0.0000 24.2737 0.0002
# 6 0.0003 -0.0001 0.0002 -9.0092 0.0002 32.2597
#
#
#
# Elastic Compliance Matrix: (Units=1/GPa)
#
#
# Indices 1 2 3 4 5 6 
#
# 1 0.012950 -0.004341 -0.002077 0.000000 -0.006418 0.000000
# 2 -0.004341 0.012950 -0.002077 0.000000 0.006418 0.000000
# 3 -0.002077 -0.002077 0.011912 0.000000 0.000000 0.000000
# 4 0.000000 0.000000 0.000000 0.045961 0.000000 0.012836
# 5 -0.006418 0.006418 0.000000 0.000000 0.045961 0.000000
# 6 0.000000 0.000000 0.000000 0.012836 0.000000 0.034583
#
#
# Mechanical properties :
#
#
# Convention : Reuss Voigt Hill
#
# Bulk Modulus (GPa) = 48.02245 48.19323 48.10784
# Shear Modulus (GPa) = 26.56065 30.00315 28.28190
#
# Velocity S-wave (km/s) = 3.59037 3.81596 3.70488
# Velocity P-wave (km/s) = 6.36354 6.54257 6.45367
#
# Compressibility (1/GPa) = 0.02082359
#
# Stress axis : x y z
#
# Youngs Moduli (GPa) = 77.21745 77.21763 83.94753
#
# Poissons Ratio (x) = 0.33521 0.17434
# Poissons Ratio (y) = 0.33521 0.17435
# Poissons Ratio (z) = 0.16037 0.16037
#
# Static dielectric constant tensor:
#      x y z
#    x 1.810330 0.000000 0.000000 
#    y 0.000000 1.810330 0.000000 
#    z 0.000000 0.000000 1.728160 
# 
# From -- ./inp_files/4142.got.cif
#   From: 2010.05.17/outbox.cif.g08.bks.cpg/sg163_3_cif.got.tgz:4142.got - 2010.05.20 10:56:03.
