data_PCOD9578803
_publ_section_title
;
Structure prediction by ZEFSAII (Michael W. Deem and Ramdas Pophale) SiO2 
 PCOD9578803
Probable space group: P -3 C 1
;
_chemical_formula_sum "Si O2"
_cell_formula_units_Z 56
_cell_length_a 9.569749
_cell_length_b 9.569749
_cell_length_c 33.010929
_cell_angle_alpha 90.000000
_cell_angle_beta 90.000000
_cell_angle_gamma 120.000000
_cell_volume 2618.119542
_symmetry_space_group_name_H-M "P -3 C 1"
_symmetry_group_IT_number 165
_symmetry_cell_setting 'hexagonal'
loop_
_space_group_symop_operation_xyz
x,y,z
-y,x-y,z
-x+y,-x,z
x-y,-y,1/2-z
-x,-x+y,1/2-z
y,x,1/2-z
-x,-y,-z
y,-x+y,-z
x-y,x,-z
-x+y,y,1/2+z
x,x-y,1/2+z
-y,-x,1/2+z
loop_
_atom_site_type_symbol
_atom_site_label
_atom_site_fract_x
_atom_site_fract_y
_atom_site_fract_z
Si Si1 0.911460 0.265763 0.412732
Si Si2 0.495321 0.477772 0.841299
Si Si3 0.640766 0.915597 0.415162
Si Si4 0.666668 0.333334 0.195018
Si Si5 0.372778 0.104868 0.498655
Si Si6 0.666667 0.333334 0.291679
O O1 0.878205 0.319428 0.369857
O O2 0.101758 0.339272 0.409546
O O3 0.863228 0.319878 0.454732
O O4 0.817144 0.073947 0.418346
O O5 0.568918 0.612950 0.876552
O O6 0.372474 0.527335 0.820404
O O7 0.603495 0.452841 0.808037
O O8 0.546678 0.888009 0.458041
O O9 0.666668 0.333334 0.243361
O O10 0.226276 0.921928 0.495966
#
# Coordination Sequence:
#
# PCOD9578803 Si02
#       6
#    12  12  12   4  12   4
#     4  10  19  34  57  86 124 163 209 249 300 359
#     4  12  23  41  68  90 120 162 198 259 317 376
#     4  10  19  34  57  86 124 163 209 249 300 359
#     4  12  27  48  69  94 122 157 207 261 327 390
#     4   8  15  27  48  80 118 164 205 247 288 348
#     4  12  27  48  69  94 122 157 207 261 327 390
#
# _framework density 21.389398
#
# number of rings (size 3 to 8) (size 9 to 14) (size 15 to 20)
#    0.000    1.714    4.286    1.286    0.000    4.286 
#    0.000    0.000    0.000    0.000    0.000    6.000 
#    0.000    0.000    0.000    0.000    0.000    0.000 
#
# Total GULP energy -311758.947681 kJ/mol
# GULP energy per Si atom -5567.124066 kJ/mol
# Density = 2.134072 g / cm^3
# Si number density = 21.389398 Si / 1000 Ang^3
#
#
#
# Elastic Constant Matrix: (Units=GPa)
#
#
# Indices 1 2 3 4 5 6 
#
# 1 84.9006 -8.6266 29.5574 -1.5621 0.0000 0.0000
# 2 -8.6266 84.8999 29.5567 1.5622 0.0000 0.0000
# 3 29.5574 29.5567 188.3853 -0.0001 0.0000 0.0000
# 4 -1.5621 1.5622 -0.0001 -10.1812 0.0000 0.0000
# 5 0.0000 0.0000 0.0000 0.0000 -10.1804 -1.5618
# 6 0.0000 0.0000 0.0000 0.0000 -1.5618 46.7630
#
#
#
# Elastic Compliance Matrix: (Units=1/GPa)
#
#
# Indices 1 2 3 4 5 6 
#
# 1 0.012782 0.002144 -0.002342 -0.001632 0.000000 0.000000
# 2 0.002144 0.012782 -0.002342 0.001632 0.000000 0.000000
# 3 -0.002342 -0.002342 0.006043 0.000000 0.000000 0.000000
# 4 -0.001632 0.001632 0.000000 -0.097720 0.000000 0.000000
# 5 0.000000 0.000000 0.000000 0.000000 -0.097727 -0.003264
# 6 0.000000 0.000000 0.000000 0.000000 -0.003264 0.021275
#
#
# Mechanical properties :
#
#
# Convention : Reuss Voigt Hill
#
# Bulk Modulus (GPa) = 37.69709 51.01788 44.35748
# Shear Modulus (GPa) = -38.86709 25.79350 -6.53680
#
# Velocity S-wave (km/s) = -4.26739 3.47638 -1.75006
# Velocity P-wave (km/s) = 2.57263 6.32592 4.08650
#
# Compressibility (1/GPa) = 0.02652725
#
# Stress axis : x y z
#
# Youngs Moduli (GPa) = 78.23754 78.23715 165.47772
#
# Poissons Ratio (x) = -0.16774 0.38752
# Poissons Ratio (y) = -0.16774 0.38751
# Poissons Ratio (z) = 0.18322 0.18321
#
# Static dielectric constant tensor:
#      x y z
#    x 1.796290 0.000000 0.000000 
#    y 0.000000 1.796290 0.000000 
#    z 0.000000 0.000000 1.831650 
# 
# From -- ./inp_files/2894.got.cif
#   From: 2010.05.17/outbox.cif.g08.bks.cpg/sg165_2_cif.got.tgz:2894.got - 2010.05.20 11:02:39.
