data_PCOD9578296
_publ_section_title
;
Structure prediction by ZEFSAII (Michael W. Deem and Ramdas Pophale) SiO2 
 PCOD9578296
Probable space group: P -3 1 C
;
_chemical_formula_sum "Si O2"
_cell_formula_units_Z 28
_cell_length_a 7.987642
_cell_length_b 7.987642
_cell_length_c 17.843375
_cell_angle_alpha 90.000000
_cell_angle_beta 90.000000
_cell_angle_gamma 120.000000
_cell_volume 985.927132
_symmetry_space_group_name_H-M "P -3 1 C"
_symmetry_group_IT_number 163
_symmetry_cell_setting 'hexagonal'
loop_
_space_group_symop_operation_xyz
x,y,z
-y,x-y,z
-x+y,-x,z
-y,-x,1/2-z
-x+y,y,1/2-z
x,x-y,1/2-z
-x,-y,-z
y,-x+y,-z
x-y,x,-z
y,x,1/2+z
x-y,-y,1/2+z
-x,-x+y,1/2+z
loop_
_atom_site_type_symbol
_atom_site_label
_atom_site_fract_x
_atom_site_fract_y
_atom_site_fract_z
Si Si1 0.534488 0.458373 0.168741
Si Si2 0.071130 0.734616 0.446328
Si Si3 0.000000 0.000000 0.159905
O O1 0.462327 0.230647 0.167203
O O2 0.489875 0.510126 0.250000
O O3 0.494509 0.556775 0.098879
O O4 0.862867 0.646313 0.488590
O O5 0.089467 0.879981 0.379510
O O6 0.000000 0.000000 0.250000
#
# Coordination Sequence:
#
# PCOD9578296 Si02
#       3
#    12  12   4
#     4   8  17  30  48  70  93 127 166 198 235 293
#     4   9  18  33  47  73 101 128 163 203 247 289
#     4   9  19  26  52  72  97 131 160 201 247 290
#
# _framework density 28.399664000000001
#
# number of rings (size 3 to 8) (size 9 to 14) (size 15 to 20)
#    0.857    2.571    0.000    1.714    6.000    1.714 
#    0.000    0.000    0.000    0.000    0.000    0.000 
#    0.000    3.429    0.000    0.000    0.000    0.000 
#
# Total GULP energy -156451.670286 kJ/mol
# GULP energy per Si atom -5587.559653 kJ/mol
# Density = 2.833502 g / cm^3
# Si number density = 28.399664 Si / 1000 Ang^3
#
#
#
# Elastic Constant Matrix: (Units=GPa)
#
#
# Indices 1 2 3 4 5 6 
#
# 1 65.3202 5.1132 51.7611 0.0000 0.3057 0.0000
# 2 5.1132 65.3202 51.7611 0.0000 -0.3057 0.0000
# 3 51.7611 51.7611 308.7788 0.0000 0.0000 0.0000
# 4 0.0000 0.0000 0.0000 43.2560 0.0000 -0.3057
# 5 0.3057 -0.3057 0.0000 0.0000 43.2560 0.0000
# 6 0.0000 0.0000 0.0000 -0.3057 0.0000 30.1035
#
#
#
# Elastic Compliance Matrix: (Units=1/GPa)
#
#
# Indices 1 2 3 4 5 6 
#
# 1 0.017725 0.001114 -0.003158 0.000000 -0.000117 0.000000
# 2 0.001114 0.017725 -0.003158 0.000000 0.000117 0.000000
# 3 -0.003158 -0.003158 0.004297 0.000000 0.000000 0.000000
# 4 0.000000 0.000000 0.000000 0.023120 0.000000 0.000235
# 5 -0.000117 0.000117 0.000000 0.000000 0.023120 0.000000
# 6 0.000000 0.000000 0.000000 0.000235 0.000000 0.033221
#
#
# Mechanical properties :
#
#
# Convention : Reuss Voigt Hill
#
# Bulk Modulus (GPa) = 34.07848 72.96556 53.52202
# Shear Modulus (GPa) = 35.86982 45.37538 40.62260
#
# Velocity S-wave (km/s) = 3.55778 4.00151 3.78615
# Velocity P-wave (km/s) = 5.37612 6.86277 6.16443
#
# Compressibility (1/GPa) = 0.02934403
#
# Stress axis : x y z
#
# Youngs Moduli (GPa) = 56.41735 56.41735 232.70104
#
# Poissons Ratio (x) = -0.06288 0.73489
# Poissons Ratio (y) = -0.06288 0.73489
# Poissons Ratio (z) = 0.17817 0.17817
#
# Static dielectric constant tensor:
#      x y z
#    x 2.333990 0.000000 0.000000 
#    y 0.000000 2.333990 0.000000 
#    z 0.000000 0.000000 2.078660 
# 
# From -- ./inp_files/1980.got.cif
#   From: 2010.05.17/outbox.cif.g08.bks.cpg/sg163_1_cif.got.tgz:1980.got - 2010.05.20 10:56:03.
