data_PCOD9578925
_publ_section_title
;
Structure prediction by ZEFSAII (Michael W. Deem and Ramdas Pophale) SiO2 
 PCOD9578925
Probable space group: P -3 C 1
;
_chemical_formula_sum "Si O2"
_cell_formula_units_Z 60
_cell_length_a 15.721104
_cell_length_b 15.721104
_cell_length_c 13.402198
_cell_angle_alpha 90.000000
_cell_angle_beta 90.000000
_cell_angle_gamma 120.000000
_cell_volume 2868.618156
_symmetry_space_group_name_H-M "P -3 C 1"
_symmetry_group_IT_number 165
_symmetry_cell_setting 'hexagonal'
loop_
_space_group_symop_operation_xyz
x,y,z
-y,x-y,z
-x+y,-x,z
x-y,-y,1/2-z
-x,-x+y,1/2-z
y,x,1/2-z
-x,-y,-z
y,-x+y,-z
x-y,x,-z
-x+y,y,1/2+z
x,x-y,1/2+z
-y,-x,1/2+z
loop_
_atom_site_type_symbol
_atom_site_label
_atom_site_fract_x
_atom_site_fract_y
_atom_site_fract_z
Si Si1 0.911882 0.334569 0.868370
Si Si2 0.869684 0.381555 0.661712
Si Si3 0.784829 0.938957 0.125324
Si Si4 0.548895 0.718370 0.409089
Si Si5 0.776147 0.937142 0.882594
O O1 0.857338 0.354087 0.778560
O O2 0.921458 0.240681 0.839055
O O3 0.021092 0.428661 0.871204
O O4 0.861400 0.310480 0.975796
O O5 0.793760 0.285111 0.601405
O O6 0.855892 0.474024 0.645035
O O7 0.800241 0.848344 0.152071
O O8 0.869231 0.048737 0.152273
O O9 0.782175 0.939661 0.003918
O O10 0.659783 0.770662 0.364725
#
# Coordination Sequence:
#
# PCOD9578925 Si02
#       5
#    12  12  12  12  12
#     4  10  23  43  67  94 139 175 217 286 345 388
#     4  11  24  45  66  98 136 173 228 288 337 399
#     4   9  16  33  60  96 139 175 208 279 320 400
#     4  11  23  42  70  95 131 181 230 274 339 410
#     4   9  17  31  62 101 132 176 227 252 337 407
#
# _framework density 20.915994000000001
#
# number of rings (size 3 to 8) (size 9 to 14) (size 15 to 20)
#    0.000    2.000    2.000    1.400    2.800    3.200 
#    7.200    0.000    0.000    0.000    0.000    0.000 
#    0.000    0.000    0.000    0.000    0.000    0.000 
#
# Total GULP energy -335573.423724 kJ/mol
# GULP energy per Si atom -5592.890395 kJ/mol
# Density = 2.086839 g / cm^3
# Si number density = 20.915994 Si / 1000 Ang^3
#
#
#
# Elastic Constant Matrix: (Units=GPa)
#
#
# Indices 1 2 3 4 5 6 
#
# 1 405.9142 -171.4730 38.8069 -9.5368 0.0000 0.0000
# 2 -171.4730 405.9142 38.8069 9.5368 0.0000 0.0000
# 3 38.8069 38.8069 99.3630 0.0000 0.0000 0.0000
# 4 -9.5368 9.5368 0.0000 32.5172 0.0000 0.0000
# 5 0.0000 0.0000 0.0000 0.0000 32.5172 -9.5368
# 6 0.0000 0.0000 0.0000 0.0000 -9.5368 288.6936
#
#
#
# Elastic Compliance Matrix: (Units=1/GPa)
#
#
# Indices 1 2 3 4 5 6 
#
# 1 0.003324 0.001575 -0.001913 0.000513 0.000000 0.000000
# 2 0.001575 0.003324 -0.001913 -0.000513 0.000000 0.000000
# 3 -0.001913 -0.001913 0.011559 0.000000 0.000000 0.000000
# 4 0.000513 -0.000513 0.000000 0.031054 0.000000 0.000000
# 5 0.000000 0.000000 0.000000 0.000000 0.031054 0.001026
# 6 0.000000 0.000000 0.000000 0.000000 0.001026 0.003498
#
#
# Mechanical properties :
#
#
# Convention : Reuss Voigt Hill
#
# Bulk Modulus (GPa) = 72.97567 80.38588 76.68078
# Shear Modulus (GPa) = 53.83138 137.74898 95.79018
#
# Velocity S-wave (km/s) = 5.07866 8.12411 6.77473
# Velocity P-wave (km/s) = 8.32803 11.24801 9.89631
#
# Compressibility (1/GPa) = 0.01370320
#
# Stress axis : x y z
#
# Youngs Moduli (GPa) = 300.85335 300.85335 86.51565
#
# Poissons Ratio (x) = -0.47384 0.16553
# Poissons Ratio (y) = -0.47384 0.16553
# Poissons Ratio (z) = 0.57562 0.57562
#
# Static dielectric constant tensor:
#      x y z
#    x 1.710740 0.000000 0.000000 
#    y 0.000000 1.710740 0.000000 
#    z 0.000000 0.000000 1.816440 
# 
# From -- ./inp_files/1652.got.cif
#   From: 2010.05.17/outbox.cif.g08.bks.cpg/sg165_1_cif.got.tgz:1652.got - 2010.05.20 11:02:39.
