data_PCOD9578458
_publ_section_title
;
Structure prediction by ZEFSAII (Michael W. Deem and Ramdas Pophale) SiO2 
 PCOD9578458
Probable space group: P -3 M 1
;
_chemical_formula_sum "Si O2"
_cell_formula_units_Z 96
_cell_length_a 17.927182
_cell_length_b 17.927182
_cell_length_c 21.928670
_cell_angle_alpha 90.000000
_cell_angle_beta 90.000000
_cell_angle_gamma 120.000000
_cell_volume 6103.331776
_symmetry_space_group_name_H-M "P -3 M 1"
_symmetry_group_IT_number 164
_symmetry_cell_setting 'hexagonal'
loop_
_space_group_symop_operation_xyz
x,y,z
-y,x-y,z
-x+y,-x,z
x-y,-y,-z
-x,-x+y,-z
y,x,-z
-x,-y,-z
y,-x+y,-z
x-y,x,-z
-x+y,y,z
x,x-y,z
-y,-x,z
loop_
_atom_site_type_symbol
_atom_site_label
_atom_site_fract_x
_atom_site_fract_y
_atom_site_fract_z
Si Si1 0.696762 0.135649 0.415198
Si Si2 0.497043 0.665715 0.450203
Si Si3 0.824131 0.823826 0.070826
Si Si4 0.940853 0.236761 0.817610
Si Si5 0.028931 0.427083 0.247772
Si Si6 0.951840 0.652295 0.628746
Si Si7 0.830484 0.333420 0.279707
Si Si8 0.824412 0.823030 0.700510
O O1 0.798924 0.201077 0.418286
O O2 0.659537 0.147485 0.478016
O O3 0.666105 0.160317 0.353219
O O4 0.673240 0.039006 0.405217
O O5 0.459615 0.729808 0.443412
O O6 0.429274 0.570727 0.426573
O O7 0.588685 0.710871 0.416578
O O8 0.844638 0.922319 0.077956
O O9 0.748569 0.768203 0.118083
O O10 0.909417 0.818834 0.084153
O O11 0.800265 0.800265 0.000000
O O12 0.843781 0.156220 0.813843
O O13 0.942635 0.325481 0.803752
O O14 0.993043 0.218552 0.764332
O O15 0.052948 0.526474 0.241982
O O16 0.060111 0.405086 0.311030
O O17 0.925050 0.371309 0.252560
O O18 0.966836 0.744480 0.651616
O O19 0.797456 0.398728 0.263278
O O20 0.763278 0.236723 0.261127
O O21 0.812836 0.906418 0.690828
O O22 0.925099 0.850198 0.702410
#
# Coordination Sequence:
#
# PCOD9578458 Si02
#       8
#    12  12  12  12  12  12  12  12
#     4   9  18  30  45  65  85 107 136 173 219 269
#     4  11  22  34  47  63  84 109 139 179 229 281
#     4   9  16  26  42  67 100 134 162 185 213 256
#     4   9  18  30  46  68  93 122 153 186 223 260
#     4   9  18  31  46  63  85 115 149 185 224 262
#     4  10  19  32  48  65  86 112 146 182 218 262
#     4   9  16  26  41  62  87 113 140 170 209 259
#     4  10  19  31  48  70  96 123 150 179 211 251
#
# _framework density 15.729113
#
# number of rings (size 3 to 8) (size 9 to 14) (size 15 to 20)
#    0.000    2.500    0.000    2.750    0.000    6.500 
#    0.000    2.500    0.000    0.625    0.000    0.000 
#    0.000    6.000    0.000    0.250    0.000    0.000 
#
# Total GULP energy -534588.873245 kJ/mol
# GULP energy per Si atom -5568.634096 kJ/mol
# Density = 1.569331 g / cm^3
# Si number density = 15.729113 Si / 1000 Ang^3
#
#
#
# Elastic Constant Matrix: (Units=GPa)
#
#
# Indices 1 2 3 4 5 6 
#
# 1 61.8612 46.2845 31.3060 -6.6651 0.0000 0.0000
# 2 46.2845 61.8612 31.3060 6.6651 0.0000 0.0000
# 3 31.3060 31.3060 47.8255 0.0000 0.0000 0.0000
# 4 -6.6651 6.6651 0.0000 12.3455 0.0000 0.0000
# 5 0.0000 0.0000 0.0000 0.0000 12.3455 -6.6651
# 6 0.0000 0.0000 0.0000 0.0000 -6.6651 7.7883
#
#
#
# Elastic Compliance Matrix: (Units=1/GPa)
#
#
# Indices 1 2 3 4 5 6 
#
# 1 0.067111 -0.052221 -0.009747 0.064425 0.000000 0.000000
# 2 -0.052221 0.067111 -0.009747 -0.064425 0.000000 0.000000
# 3 -0.009747 -0.009747 0.033669 0.000000 0.000000 0.000000
# 4 0.064425 -0.064425 0.000000 0.150565 0.000000 0.000000
# 5 0.000000 0.000000 0.000000 0.000000 0.150565 0.128850
# 6 0.000000 0.000000 0.000000 0.000000 0.128850 0.238664
#
#
# Mechanical properties :
#
#
# Convention : Reuss Voigt Hill
#
# Bulk Modulus (GPa) = 40.87922 43.26010 42.06966
# Shear Modulus (GPa) = 5.81890 10.67261 8.24576
#
# Velocity S-wave (km/s) = 1.92548 2.60768 2.29210
# Velocity P-wave (km/s) = 5.56680 6.05224 5.81459
#
# Compressibility (1/GPa) = 0.02446231
#
# Stress axis : x y z
#
# Youngs Moduli (GPa) = 14.90071 14.90071 29.70051
#
# Poissons Ratio (x) = 0.77813 0.28948
# Poissons Ratio (y) = 0.77813 0.28948
# Poissons Ratio (z) = 0.14523 0.14523
#
# Static dielectric constant tensor:
#      x y z
#    x 1.549110 0.000000 0.000000 
#    y 0.000000 1.549110 0.000000 
#    z 0.000000 0.000000 1.519710 
# 
# From -- ./inp_files/4693.got.cif
#   From: 2010.05.17/outbox.cif.g08.bks.cpg/sg164_3_cif.got.tgz:4693.got - 2010.05.20 10:58:56.
