data_PCOD9578723
_publ_section_title
;
Structure prediction by ZEFSAII (Michael W. Deem and Ramdas Pophale) SiO2 
 PCOD9578723
Probable space group: P -3 M 1
;
_chemical_formula_sum "Si O2"
_cell_formula_units_Z 84
_cell_length_a 27.085653
_cell_length_b 27.085653
_cell_length_c 6.781503
_cell_angle_alpha 90.000000
_cell_angle_beta 90.000000
_cell_angle_gamma 120.000000
_cell_volume 4308.590411
_symmetry_space_group_name_H-M "P -3 M 1"
_symmetry_group_IT_number 164
_symmetry_cell_setting 'hexagonal'
loop_
_space_group_symop_operation_xyz
x,y,z
-y,x-y,z
-x+y,-x,z
x-y,-y,-z
-x,-x+y,-z
y,x,-z
-x,-y,-z
y,-x+y,-z
x-y,x,-z
-x+y,y,z
x,x-y,z
-y,-x,z
loop_
_atom_site_type_symbol
_atom_site_label
_atom_site_fract_x
_atom_site_fract_y
_atom_site_fract_z
Si Si1 0.888856 0.502625 0.490549
Si Si2 0.549604 0.332306 0.193696
Si Si3 0.627340 0.038455 0.172031
Si Si4 0.542207 0.685241 0.113013
Si Si5 0.042909 0.730026 0.655686
Si Si6 0.120153 0.348424 0.317816
Si Si7 0.250210 0.066417 0.003335
O O1 0.894747 0.447374 0.516902
O O2 0.942404 0.548340 0.360855
O O3 0.881771 0.524012 0.702753
O O4 0.831091 0.482537 0.361702
O O5 0.554495 0.277248 0.248079
O O6 0.611427 0.388574 0.165879
O O7 0.512168 0.317901 0.993252
O O8 0.668457 0.014220 0.239374
O O9 0.667705 0.096303 0.056869
O O10 0.584521 0.000000 0.000000
O O11 0.593725 0.743602 0.194211
O O12 0.090795 0.733463 0.508334
O O13 0.000000 0.732953 0.500000
O O14 0.067914 0.781707 0.805532
O O15 0.167377 0.334753 0.395329
O O16 0.080058 0.294980 0.176307
O O17 0.235484 0.117742 0.005764
O O18 0.199071 0.000000 0.000000
#
# Coordination Sequence:
#
# PCOD9578723 Si02
#       7
#    12  12  12  12  12  12  12
#     4  10  23  41  59  80 112 154 198 256 310 366
#     4  10  22  40  62  86 114 150 197 255 318 381
#     4  11  23  37  59  86 117 156 201 248 302 362
#     4  11  21  40  58  86 119 153 197 246 305 371
#     4  12  21  37  60  88 124 160 203 243 299 359
#     4  11  22  35  57  87 120 158 197 242 299 360
#     4  11  23  41  62  94 131 167 210 255 300 353
#
# _framework density 19.495934999999999
#
# number of rings (size 3 to 8) (size 9 to 14) (size 15 to 20)
#    0.000    1.143    4.286    2.714    0.000    2.000 
#    0.000    0.714    0.000    1.857    0.000    0.000 
#    0.000    0.571    0.000    0.000    0.000    0.000 
#
# Total GULP energy -468533.999336 kJ/mol
# GULP energy per Si atom -5577.785706 kJ/mol
# Density = 1.945156 g / cm^3
# Si number density = 19.495935 Si / 1000 Ang^3
#
#
#
# Elastic Constant Matrix: (Units=GPa)
#
#
# Indices 1 2 3 4 5 6 
#
# 1 69.1643 36.6616 22.4438 0.7284 0.0000 0.0000
# 2 36.6616 69.1643 22.4438 -0.7284 0.0000 0.0000
# 3 22.4438 22.4438 87.2305 0.0000 0.0000 0.0000
# 4 0.7284 -0.7284 0.0000 25.1531 0.0000 0.0000
# 5 0.0000 0.0000 0.0000 0.0000 25.1531 0.7284
# 6 0.0000 0.0000 0.0000 0.0000 0.7284 16.2514
#
#
#
# Elastic Compliance Matrix: (Units=1/GPa)
#
#
# Indices 1 2 3 4 5 6 
#
# 1 0.020707 -0.010100 -0.002729 -0.000892 0.000000 0.000000
# 2 -0.010100 0.020707 -0.002729 0.000892 0.000000 0.000000
# 3 -0.002729 -0.002729 0.012868 0.000000 0.000000 0.000000
# 4 -0.000892 0.000892 0.000000 0.039808 0.000000 0.000000
# 5 0.000000 0.000000 0.000000 0.000000 0.039808 -0.001784
# 6 0.000000 0.000000 0.000000 0.000000 -0.001784 0.061613
#
#
# Mechanical properties :
#
#
# Convention : Reuss Voigt Hill
#
# Bulk Modulus (GPa) = 43.16689 43.18417 43.17553
# Shear Modulus (GPa) = 21.33565 22.91218 22.12391
#
# Velocity S-wave (km/s) = 3.31171 3.43188 3.37233
# Velocity P-wave (km/s) = 6.06735 6.15647 6.11207
#
# Compressibility (1/GPa) = 0.02316590
#
# Stress axis : x y z
#
# Youngs Moduli (GPa) = 48.29324 48.29324 77.71065
#
# Poissons Ratio (x) = 0.48775 0.21208
# Poissons Ratio (y) = 0.48775 0.21208
# Poissons Ratio (z) = 0.13180 0.13180
#
# Static dielectric constant tensor:
#      x y z
#    x 1.706010 0.000000 0.000000 
#    y 0.000000 1.706010 0.000000 
#    z 0.000000 0.000000 1.678810 
# 
# From -- ./inp_files/840.got.cif
#   From: 2010.05.17/outbox.cif.g08.bks.cpg/sg164_1_cif.got.tgz:840.got - 2010.05.20 10:58:56.
