data_PCOD9578593
_publ_section_title
;
Structure prediction by ZEFSAII (Michael W. Deem and Ramdas Pophale) SiO2 
 PCOD9578593
Probable space group: P -3 M 1
;
_chemical_formula_sum "Si O2"
_cell_formula_units_Z 66
_cell_length_a 12.850130
_cell_length_b 12.850130
_cell_length_c 28.688647
_cell_angle_alpha 90.000000
_cell_angle_beta 90.000000
_cell_angle_gamma 120.000000
_cell_volume 4102.567554
_symmetry_space_group_name_H-M "P -3 M 1"
_symmetry_group_IT_number 164
_symmetry_cell_setting 'hexagonal'
loop_
_space_group_symop_operation_xyz
x,y,z
-y,x-y,z
-x+y,-x,z
x-y,-y,-z
-x,-x+y,-z
y,x,-z
-x,-y,-z
y,-x+y,-z
x-y,x,-z
-x+y,y,z
x,x-y,z
-y,-x,z
loop_
_atom_site_type_symbol
_atom_site_label
_atom_site_fract_x
_atom_site_fract_y
_atom_site_fract_z
Si Si1 0.086557 0.667391 0.957940
Si Si2 0.913659 0.580391 0.411087
Si Si3 0.333518 0.913964 0.322200
Si Si4 0.580459 0.666504 0.853001
Si Si5 0.753189 0.000520 0.766344
Si Si6 0.000000 0.753040 0.500000
O O1 0.105722 0.552861 0.960590
O O2 0.211994 0.788007 0.963052
O O3 0.039820 0.665326 0.905497
O O4 0.000000 0.654849 0.000000
O O5 0.783438 0.566875 0.402984
O O6 0.901953 0.450977 0.419400
O O7 0.971753 0.666837 0.455509
O O8 0.999100 0.638639 0.366428
O O9 0.449304 0.898607 0.315056
O O10 0.214452 0.785549 0.330265
O O11 0.309353 0.972780 0.276983
O O12 0.552121 0.776061 0.851775
O O13 0.459077 0.540924 0.844894
O O14 0.677554 0.693825 0.813214
O O15 0.756106 0.878053 0.758710
O O16 0.886749 0.113251 0.770644
O O17 0.882855 0.765710 0.508364
#
# Coordination Sequence:
#
# PCOD9578593 Si02
#       6
#    12  12  12  12  12   6
#     4   9  17  29  46  67  91 119 151 188 229 273
#     4  10  20  34  52  74 100 129 161 197 237 280
#     4  10  20  34  52  73  97 125 157 194 235 279
#     4   9  17  30  48  69  91 117 151 191 233 274
#     4  10  20  33  49  69  94 124 156 190 229 275
#     4  10  20  34  52  74 100 130 164 200 238 280
#
# _framework density 16.087485999999998
#
# number of rings (size 3 to 8) (size 9 to 14) (size 15 to 20)
#    0.000    2.364    0.000    2.909    0.000    2.182 
#    0.000    0.000    0.000   18.000    0.000    0.000 
#    0.000    0.000    0.000    0.000    0.000    0.000 
#
# Total GULP energy -368080.879084 kJ/mol
# GULP energy per Si atom -5576.983016 kJ/mol
# Density = 1.605087 g / cm^3
# Si number density = 16.087486 Si / 1000 Ang^3
#
#
#
# Elastic Constant Matrix: (Units=GPa)
#
#
# Indices 1 2 3 4 5 6 
#
# 1 111.1588 79.9916 88.6957 6.3169 0.0000 0.0000
# 2 79.9916 111.1588 88.6957 -6.3169 0.0000 0.0000
# 3 88.6957 88.6957 133.7553 0.0000 0.0000 0.0000
# 4 6.3169 -6.3169 0.0000 26.1912 0.0000 0.0000
# 5 0.0000 0.0000 0.0000 0.0000 26.1912 6.3169
# 6 0.0000 0.0000 0.0000 0.0000 6.3169 15.5836
#
#
#
# Elastic Compliance Matrix: (Units=1/GPa)
#
#
# Indices 1 2 3 4 5 6 
#
# 1 0.024582 -0.010980 -0.009020 -0.008577 0.000000 0.000000
# 2 -0.010980 0.024582 -0.009020 0.008577 0.000000 0.000000
# 3 -0.009020 -0.009020 0.019439 0.000000 0.000000 0.000000
# 4 -0.008577 0.008577 0.000000 0.042318 0.000000 0.000000
# 5 0.000000 0.000000 0.000000 0.000000 0.042318 -0.017154
# 6 0.000000 0.000000 0.000000 0.000000 -0.017154 0.071124
#
#
# Mechanical properties :
#
#
# Convention : Reuss Voigt Hill
#
# Bulk Modulus (GPa) = 94.66397 96.75986 95.71191
# Shear Modulus (GPa) = 17.48728 20.17251 18.82990
#
# Velocity S-wave (km/s) = 3.30056 3.54492 3.42492
# Velocity P-wave (km/s) = 8.57298 8.77678 8.67548
#
# Compressibility (1/GPa) = 0.01056368
#
# Stress axis : x y z
#
# Youngs Moduli (GPa) = 40.68036 40.68036 51.44390
#
# Poissons Ratio (x) = 0.44667 0.46401
# Poissons Ratio (y) = 0.44667 0.46401
# Poissons Ratio (z) = 0.36693 0.36693
#
# Static dielectric constant tensor:
#      x y z
#    x 1.509540 0.000000 0.000000 
#    y 0.000000 1.509540 0.000000 
#    z 0.000000 0.000000 1.531180 
# 
# From -- ./inp_files/5412.got.cif
#   From: 2010.05.17/outbox.cif.g08.bks.cpg/sg164_3_cif.got.tgz:5412.got - 2010.05.20 10:58:56.
