data_PCOD9578025
_publ_section_title
;
Structure prediction by ZEFSAII (Michael W. Deem and Ramdas Pophale) SiO2 
 PCOD9578025
Probable space group: P -3 1 C
;
_chemical_formula_sum "Si O2"
_cell_formula_units_Z 72
_cell_length_a 23.147611
_cell_length_b 23.147611
_cell_length_c 8.131120
_cell_angle_alpha 90.000000
_cell_angle_beta 90.000000
_cell_angle_gamma 120.000000
_cell_volume 3773.056884
_symmetry_space_group_name_H-M "P -3 1 C"
_symmetry_group_IT_number 163
_symmetry_cell_setting 'hexagonal'
loop_
_space_group_symop_operation_xyz
x,y,z
-y,x-y,z
-x+y,-x,z
-y,-x,1/2-z
-x+y,y,1/2-z
x,x-y,1/2-z
-x,-y,-z
y,-x+y,-z
x-y,x,-z
y,x,1/2+z
x-y,-y,1/2+z
-x,-x+y,1/2+z
loop_
_atom_site_type_symbol
_atom_site_label
_atom_site_fract_x
_atom_site_fract_y
_atom_site_fract_z
Si Si1 0.398152 0.388416 0.543254
Si Si2 0.610740 0.099767 0.833945
Si Si3 0.041774 0.748792 0.683166
Si Si4 0.868885 0.581539 0.348800
Si Si5 0.255390 0.440526 0.483957
Si Si6 0.288179 0.092905 0.632097
O O1 0.433123 0.380328 0.703381
O O2 0.412295 0.461699 0.491819
O O3 0.318812 0.342872 0.578093
O O4 0.423885 0.356050 0.404969
O O5 0.556888 0.113775 0.750000
O O6 0.679405 0.166494 0.877788
O O7 0.097631 0.758904 0.816998
O O8 0.069732 0.808396 0.552676
O O9 0.974028 0.730498 0.770712
O O10 0.810103 0.553390 0.483078
O O11 0.838112 0.554380 0.169758
O O12 0.226555 0.367386 0.403490
O O13 0.265728 0.132864 0.750000
#
# Coordination Sequence:
#
# PCOD9578025 Si02
#       6
#    12  12  12  12  12  12
#     4  12  18  35  51  74 107 151 194 238 294 351
#     4  12  23  34  50  75 114 158 192 241 302 365
#     4  11  18  34  52  76 114 149 199 235 285 352
#     4  10  19  32  56  77 107 151 193 250 283 357
#     4  10  20  34  51  78 109 149 203 234 298 358
#     4  11  21  32  52  78 112 157 199 233 291 348
#
# _framework density 19.08267
#
# number of rings (size 3 to 8) (size 9 to 14) (size 15 to 20)
#    0.000    1.000    8.333    1.500    0.000    0.000 
#    0.000    0.000    0.000    0.000    0.000    0.000 
#    6.667    0.000    5.667    5.000    0.000    0.500 
#
# Total GULP energy -401040.029732 kJ/mol
# GULP energy per Si atom -5570.000413 kJ/mol
# Density = 1.903924 g / cm^3
# Si number density = 19.082670 Si / 1000 Ang^3
#
#
#
# Elastic Constant Matrix: (Units=GPa)
#
#
# Indices 1 2 3 4 5 6 
#
# 1 63.9107 29.1598 24.5720 0.0001 3.7020 0.0000
# 2 29.1598 63.9107 24.5720 -0.0001 -3.7020 0.0000
# 3 24.5720 24.5720 59.7135 0.0000 0.0000 0.0000
# 4 0.0001 -0.0001 0.0000 22.7095 0.0000 -3.7020
# 5 3.7020 -3.7020 0.0000 0.0000 22.7095 0.0001
# 6 0.0000 0.0000 0.0000 -3.7020 0.0001 17.3755
#
#
#
# Elastic Compliance Matrix: (Units=1/GPa)
#
#
# Indices 1 2 3 4 5 6 
#
# 1 0.021769 -0.008042 -0.005649 0.000000 -0.004860 0.000000
# 2 -0.008042 0.021769 -0.005649 0.000000 0.004860 0.000000
# 3 -0.005649 -0.005649 0.021396 0.000000 0.000000 0.000000
# 4 0.000000 0.000000 0.000000 0.045619 0.000000 0.009720
# 5 -0.004860 0.004860 0.000000 0.000000 0.045619 0.000000
# 6 0.000000 0.000000 0.000000 0.009720 0.000000 0.059623
#
#
# Mechanical properties :
#
#
# Convention : Reuss Voigt Hill
#
# Bulk Modulus (GPa) = 38.08790 38.23806 38.16298
# Shear Modulus (GPa) = 18.99503 19.84095 19.41799
#
# Velocity S-wave (km/s) = 3.15843 3.22799 3.19340
# Velocity P-wave (km/s) = 5.77093 5.82880 5.79994
#
# Compressibility (1/GPa) = 0.02625506
#
# Stress axis : x y z
#
# Youngs Moduli (GPa) = 45.93594 45.93594 46.73873
#
# Poissons Ratio (x) = 0.36943 0.26402
# Poissons Ratio (y) = 0.36943 0.26402
# Poissons Ratio (z) = 0.25948 0.25948
#
# Static dielectric constant tensor:
#      x y z
#    x 1.684200 0.000000 0.000000 
#    y 0.000000 1.684200 0.000000 
#    z 0.000000 0.000000 1.804130 
# 
# From -- ./inp_files/1225.got.cif
#   From: 2010.05.17/outbox.cif.g08.bks.cpg/sg163_1_cif.got.tgz:1225.got - 2010.05.20 10:56:03.
