data_PCOD9578000
_publ_section_title
;
Structure prediction by ZEFSAII (Michael W. Deem and Ramdas Pophale) SiO2 
 PCOD9578000
Probable space group: P -3 1 C
;
_chemical_formula_sum "Si O2"
_cell_formula_units_Z 34
_cell_length_a 8.433060
_cell_length_b 8.433060
_cell_length_c 28.769128
_cell_angle_alpha 90.000000
_cell_angle_beta 90.000000
_cell_angle_gamma 120.000000
_cell_volume 1771.853092
_symmetry_space_group_name_H-M "P -3 1 C"
_symmetry_group_IT_number 163
_symmetry_cell_setting 'hexagonal'
loop_
_space_group_symop_operation_xyz
x,y,z
-y,x-y,z
-x+y,-x,z
-y,-x,1/2-z
-x+y,y,1/2-z
x,x-y,1/2-z
-x,-y,-z
y,-x+y,-z
x-y,x,-z
y,x,1/2+z
x-y,-y,1/2+z
-x,-x+y,1/2+z
loop_
_atom_site_type_symbol
_atom_site_label
_atom_site_fract_x
_atom_site_fract_y
_atom_site_fract_z
Si Si1 0.000000 0.000000 0.055055
Si Si2 0.303026 0.297661 0.880679
Si Si3 0.907643 0.453822 0.750000
Si Si4 0.382471 0.007015 0.346199
O O1 0.815234 0.827629 0.076161
O O2 0.000000 0.000000 0.000000
O O3 0.387202 0.186661 0.855050
O O4 0.471065 0.503180 0.885907
O O5 0.154181 0.317497 0.850312
O O6 0.765260 0.530519 0.750000
O O7 0.016960 0.538649 0.702879
#
# Coordination Sequence:
#
# PCOD9578000 Si02
#       4
#     4  12   6  12
#     4   9  21  42  66  97 119 151 201 261 315 378
#     4  10  21  37  63  83 126 157 200 247 311 362
#     4  10  18  34  56  80 118 148 204 246 278 350
#     4  11  20  38  57  90 116 167 198 250 300 355
#
# _framework density 19.188949999999998
#
# number of rings (size 3 to 8) (size 9 to 14) (size 15 to 20)
#    0.353    1.412    3.529    2.118    0.000    1.412 
#    0.000    7.059    0.000    0.000    0.000    0.000 
#    0.000    0.000    0.000    0.000    0.000    0.000 
#
# Total GULP energy -189304.555329 kJ/mol
# GULP energy per Si atom -5567.781039 kJ/mol
# Density = 1.914527 g / cm^3
# Si number density = 19.188950 Si / 1000 Ang^3
#
#
#
# Elastic Constant Matrix: (Units=GPa)
#
#
# Indices 1 2 3 4 5 6 
#
# 1 78.6999 1.6477 35.1011 0.0000 4.9653 0.0000
# 2 1.6477 78.6999 35.1011 0.0000 -4.9653 0.0000
# 3 35.1011 35.1011 137.7885 0.0000 0.0000 0.0000
# 4 0.0000 0.0000 0.0000 16.9845 0.0000 -4.9653
# 5 4.9653 -4.9653 0.0000 0.0000 16.9845 0.0000
# 6 0.0000 0.0000 0.0000 -4.9653 0.0000 38.5261
#
#
#
# Elastic Compliance Matrix: (Units=1/GPa)
#
#
# Indices 1 2 3 4 5 6 
#
# 1 0.014748 0.001261 -0.004078 0.000000 -0.003943 0.000000
# 2 0.001261 0.014748 -0.004078 0.000000 0.003943 0.000000
# 3 -0.004078 -0.004078 0.009335 0.000000 0.000000 0.000000
# 4 0.000000 0.000000 0.000000 0.061182 0.000000 0.007885
# 5 -0.003943 0.003943 0.000000 0.000000 0.061182 0.000000
# 6 0.000000 0.000000 0.000000 0.007885 0.000000 0.026973
#
#
# Mechanical properties :
#
#
# Convention : Reuss Voigt Hill
#
# Bulk Modulus (GPa) = 39.93500 48.76533 44.35017
# Shear Modulus (GPa) = 23.77493 29.38826 26.58159
#
# Velocity S-wave (km/s) = 3.52375 3.91771 3.72594
# Velocity P-wave (km/s) = 6.11657 6.77739 6.45544
#
# Compressibility (1/GPa) = 0.02504069
#
# Stress axis : x y z
#
# Youngs Moduli (GPa) = 67.80672 67.80672 107.11964
#
# Poissons Ratio (x) = -0.08553 0.43687
# Poissons Ratio (y) = -0.08553 0.43687
# Poissons Ratio (z) = 0.27654 0.27654
#
# Static dielectric constant tensor:
#      x y z
#    x 1.717370 0.000000 0.000000 
#    y 0.000000 1.717370 0.000000 
#    z 0.000000 0.000000 1.666870 
# 
# From -- ./inp_files/4011.got.cif
#   From: 2010.05.17/outbox.cif.g08.bks.cpg/sg163_3_cif.got.tgz:4011.got - 2010.05.20 10:56:03.
