data_PCOD9578438
_publ_section_title
;
Structure prediction by ZEFSAII (Michael W. Deem and Ramdas Pophale) SiO2 
 PCOD9578438
Probable space group: P -3 M 1
;
_chemical_formula_sum "Si O2"
_cell_formula_units_Z 84
_cell_length_a 18.802661
_cell_length_b 18.802661
_cell_length_c 13.977269
_cell_angle_alpha 90.000000
_cell_angle_beta 90.000000
_cell_angle_gamma 120.000000
_cell_volume 4279.485777
_symmetry_space_group_name_H-M "P -3 M 1"
_symmetry_group_IT_number 164
_symmetry_cell_setting 'hexagonal'
loop_
_space_group_symop_operation_xyz
x,y,z
-y,x-y,z
-x+y,-x,z
x-y,-y,-z
-x,-x+y,-z
y,x,-z
-x,-y,-z
y,-x+y,-z
x-y,x,-z
-x+y,y,z
x,x-y,z
-y,-x,z
loop_
_atom_site_type_symbol
_atom_site_label
_atom_site_fract_x
_atom_site_fract_y
_atom_site_fract_z
Si Si1 0.173409 0.667214 0.451201
Si Si2 0.033104 0.601223 0.816087
Si Si3 0.769027 0.999256 0.613757
Si Si4 0.275841 0.881792 0.271091
Si Si5 0.000041 0.155720 0.203663
Si Si6 0.241848 0.314686 0.922756
Si Si7 0.713470 0.584583 0.355130
O O1 0.150886 0.575443 0.461003
O O2 0.269738 0.730263 0.465160
O O3 0.150992 0.683609 0.347028
O O4 0.129356 0.686629 0.536433
O O5 0.027832 0.513916 0.838641
O O6 0.077384 0.677804 0.890183
O O7 0.083270 0.637983 0.717057
O O8 0.944929 0.595986 0.797358
O O9 0.758115 0.072643 0.659152
O O10 0.837126 0.999456 0.681736
O O11 0.781126 0.000000 0.500000
O O12 0.682352 0.920503 0.638953
O O13 0.196103 0.803898 0.225268
O O14 0.091262 0.182523 0.170329
O O15 0.964039 0.211220 0.162715
O O16 0.936350 0.063651 0.172374
O O17 0.162052 0.324104 0.946660
O O18 0.272590 0.272590 0.000000
O O19 0.778114 0.556228 0.324794
#
# Coordination Sequence:
#
# PCOD9578438 Si02
#       7
#    12  12  12  12  12  12  12
#     4  10  19  30  46  70 107 153 203 257 312 361
#     4  11  23  38  61  91 121 153 194 246 302 359
#     4  11  20  32  53  83 114 158 209 252 294 346
#     4  10  20  33  52  78 114 157 204 256 303 353
#     4  11  23  39  60  87 121 157 198 247 301 360
#     4  11  24  43  70  98 124 156 196 242 299 361
#     4  10  19  33  52  78 115 156 201 251 304 359
#
# _framework density 19.628526999999998
#
# number of rings (size 3 to 8) (size 9 to 14) (size 15 to 20)
#    0.000    1.429    4.286    2.857    0.000    2.571 
#    0.000    2.143    0.000    6.571    0.000    1.000 
#    0.000    0.000    0.000    0.000    0.000    0.000 
#
# Total GULP energy -468286.568973 kJ/mol
# GULP energy per Si atom -5574.840107 kJ/mol
# Density = 1.958385 g / cm^3
# Si number density = 19.628527 Si / 1000 Ang^3
#
#
#
# Elastic Constant Matrix: (Units=GPa)
#
#
# Indices 1 2 3 4 5 6 
#
# 1 54.6889 88.5188 15.0712 0.8340 0.0000 0.0000
# 2 88.5188 54.6889 15.0712 -0.8340 0.0000 0.0000
# 3 15.0712 15.0712 53.2028 0.0000 0.0000 0.0000
# 4 0.8340 -0.8340 0.0000 15.8730 0.0000 0.0000
# 5 0.0000 0.0000 0.0000 0.0000 15.8730 0.8340
# 6 0.0000 0.0000 0.0000 0.0000 0.8340 -16.9149
#
#
#
# Elastic Compliance Matrix: (Units=1/GPa)
#
#
# Indices 1 2 3 4 5 6 
#
# 1 -0.011029 0.018454 -0.002104 0.001549 0.000000 0.000000
# 2 0.018454 -0.011029 -0.002104 -0.001549 0.000000 0.000000
# 3 -0.002104 -0.002104 0.019988 0.000000 0.000000 0.000000
# 4 0.001549 -0.001549 0.000000 0.062837 0.000000 0.000000
# 5 0.000000 0.000000 0.000000 0.000000 0.062837 0.003098
# 6 0.000000 0.000000 0.000000 0.000000 0.003098 -0.058967
#
#
# Mechanical properties :
#
#
# Convention : Reuss Voigt Hill
#
# Bulk Modulus (GPa) = 37.84306 44.43367 41.13837
# Shear Modulus (GPa) = 111.23176 5.89419 58.56298
#
# Velocity S-wave (km/s) = 7.53601 1.73476 5.46813
# Velocity P-wave (km/s) = 9.74902 5.16710 7.80200
#
# Compressibility (1/GPa) = 0.02642492
#
# Stress axis : x y z
#
# Youngs Moduli (GPa) = -90.67121 -90.67121 50.03063
#
# Poissons Ratio (x) = 1.67329 0.10524
# Poissons Ratio (y) = 1.67329 0.10524
# Poissons Ratio (z) = -0.19073 -0.19073
#
# Static dielectric constant tensor:
#      x y z
#    x 1.719590 0.000000 0.000000 
#    y 0.000000 1.719590 0.000000 
#    z 0.000000 0.000000 1.714780 
# 
# From -- ./inp_files/3632.got.cif
#   From: 2010.05.17/outbox.cif.g08.bks.cpg/sg164_2_cif.got.tgz:3632.got - 2010.05.20 10:58:56.
