data_PCOD9578062
_publ_section_title
;
Structure prediction by ZEFSAII (Michael W. Deem and Ramdas Pophale) SiO2 
 PCOD9578062
Probable space group: P -3 1 C
;
_chemical_formula_sum "Si O2"
_cell_formula_units_Z 60
_cell_length_a 12.906378
_cell_length_b 12.906378
_cell_length_c 25.767470
_cell_angle_alpha 90.000000
_cell_angle_beta 90.000000
_cell_angle_gamma 120.000000
_cell_volume 3717.159287
_symmetry_space_group_name_H-M "P -3 1 C"
_symmetry_group_IT_number 163
_symmetry_cell_setting 'hexagonal'
loop_
_space_group_symop_operation_xyz
x,y,z
-y,x-y,z
-x+y,-x,z
-y,-x,1/2-z
-x+y,y,1/2-z
x,x-y,1/2-z
-x,-y,-z
y,-x+y,-z
x-y,x,-z
y,x,1/2+z
x-y,-y,1/2+z
-x,-x+y,1/2+z
loop_
_atom_site_type_symbol
_atom_site_label
_atom_site_fract_x
_atom_site_fract_y
_atom_site_fract_z
Si Si1 0.244183 0.244421 0.310461
Si Si2 0.421519 0.333234 0.402620
Si Si3 0.421519 0.088285 0.402620
Si Si4 0.245625 0.000000 0.500000
Si Si5 0.755817 0.000237 0.689539
O O1 0.350203 0.323085 0.349849
O O2 0.216024 0.108012 0.317403
O O3 0.276633 0.275840 0.250000
O O4 0.125789 0.251579 0.321545
O O5 0.452066 0.226033 0.401360
O O6 0.540060 0.459940 0.408290
O O7 0.330653 0.304016 0.450360
O O8 0.350203 0.027118 0.349849
O O9 0.330653 0.026636 0.450360
O O10 0.116417 0.883583 0.491151
#
# Coordination Sequence:
#
# PCOD9578062 Si02
#       5
#    12  12  12  12  12
#     4   9  17  30  50  75 100 126 158 200 249 294
#     4  10  20  33  49  70  98 132 166 197 231 277
#     4  10  20  33  49  70  98 132 166 197 231 277
#     4  10  20  34  54  78 100 122 152 196 248 294
#     4   9  17  30  50  75 100 126 158 200 249 294
#
# _framework density 16.141358
#
# number of rings (size 3 to 8) (size 9 to 14) (size 15 to 20)
#    0.000    2.400    0.000    2.800    0.000    2.400 
#    0.000    4.000    0.000   11.200    0.000    0.000 
#    0.000    0.000    0.000    0.000    0.000    0.000 
#
# Total GULP energy -334705.387908 kJ/mol
# GULP energy per Si atom -5578.423132 kJ/mol
# Density = 1.610462 g / cm^3
# Si number density = 16.141358 Si / 1000 Ang^3
#
#
#
# Elastic Constant Matrix: (Units=GPa)
#
#
# Indices 1 2 3 4 5 6 
#
# 1 122.9580 86.3242 73.0500 0.0000 0.0000 0.0000
# 2 86.3242 122.9580 73.0500 0.0000 0.0000 0.0000
# 3 73.0500 73.0500 86.9078 0.0000 0.0000 0.0000
# 4 0.0000 0.0000 0.0000 17.9647 0.0000 0.0000
# 5 0.0000 0.0000 0.0000 0.0000 17.9647 0.0000
# 6 0.0000 0.0000 0.0000 0.0000 0.0000 18.3169
#
#
#
# Elastic Compliance Matrix: (Units=1/GPa)
#
#
# Indices 1 2 3 4 5 6 
#
# 1 0.019430 -0.007867 -0.009720 0.000000 0.000000 0.000000
# 2 -0.007867 0.019430 -0.009720 0.000000 0.000000 0.000000
# 3 -0.009720 -0.009720 0.027846 0.000000 0.000000 0.000000
# 4 0.000000 0.000000 0.000000 0.055665 0.000000 0.000000
# 5 0.000000 0.000000 0.000000 0.000000 0.055665 0.000000
# 6 0.000000 0.000000 0.000000 0.000000 0.000000 0.054594
#
#
# Mechanical properties :
#
#
# Convention : Reuss Voigt Hill
#
# Bulk Modulus (GPa) = 82.68243 88.63025 85.65634
# Shear Modulus (GPa) = 17.16594 17.54258 17.35426
#
# Velocity S-wave (km/s) = 3.26463 3.30026 3.28249
# Velocity P-wave (km/s) = 8.09602 8.33968 8.21875
#
# Compressibility (1/GPa) = 0.01209447
#
# Stress axis : x y z
#
# Youngs Moduli (GPa) = 51.46582 51.46582 35.91166
#
# Poissons Ratio (x) = 0.40487 0.34905
# Poissons Ratio (y) = 0.40487 0.34905
# Poissons Ratio (z) = 0.50023 0.50023
#
# Static dielectric constant tensor:
#      x y z
#    x 1.508790 0.000000 0.000000 
#    y 0.000000 1.508790 0.000000 
#    z 0.000000 0.000000 1.546380 
# 
# From -- ./inp_files/4087.got.cif
#   From: 2010.05.17/outbox.cif.g08.bks.cpg/sg163_3_cif.got.tgz:4087.got - 2010.05.20 10:56:03.
