data_PCOD9578287
_publ_section_title
;
Structure prediction by ZEFSAII (Michael W. Deem and Ramdas Pophale) SiO2 
 PCOD9578287
Probable space group: P -3 1 C
;
_chemical_formula_sum "Si O2"
_cell_formula_units_Z 28
_cell_length_a 12.814828
_cell_length_b 12.814828
_cell_length_c 8.689384
_cell_angle_alpha 90.000000
_cell_angle_beta 90.000000
_cell_angle_gamma 120.000000
_cell_volume 1235.791446
_symmetry_space_group_name_H-M "P -3 1 C"
_symmetry_group_IT_number 163
_symmetry_cell_setting 'hexagonal'
loop_
_space_group_symop_operation_xyz
x,y,z
-y,x-y,z
-x+y,-x,z
-y,-x,1/2-z
-x+y,y,1/2-z
x,x-y,1/2-z
-x,-y,-z
y,-x+y,-z
x-y,x,-z
y,x,1/2+z
x-y,-y,1/2+z
-x,-x+y,1/2+z
loop_
_atom_site_type_symbol
_atom_site_label
_atom_site_fract_x
_atom_site_fract_y
_atom_site_fract_z
Si Si1 0.386346 0.899894 0.905614
Si Si2 0.782169 0.825269 0.901374
Si Si3 0.666668 0.333335 0.931691
O O1 0.438082 0.876163 0.750000
O O2 0.289683 0.941291 0.872752
O O3 0.322948 0.777932 0.003601
O O4 0.500000 0.000000 0.000000
O O5 0.817577 0.908789 0.750000
O O6 0.872443 0.781074 0.959135
O O7 0.666668 0.333334 0.750000
#
# Coordination Sequence:
#
# PCOD9578287 Si02
#       3
#    12  12   4
#     4  12  25  45  71 101 139 185 240 305 374 450
#     4  12  26  46  72 105 145 192 243 302 371 447
#     4  12  25  41  64  96 133 179 232 291 361 437
#
# _framework density 22.657544000000001
#
# number of rings (size 3 to 8) (size 9 to 14) (size 15 to 20)
#    0.000    0.000    0.000   12.000    0.000    3.429 
#    0.000    0.000    0.000    0.000    0.000    0.000 
#    0.000    0.000    0.000    0.000    0.000    0.000 
#
# Total GULP energy -156991.913946 kJ/mol
# GULP energy per Si atom -5606.854069 kJ/mol
# Density = 2.260597 g / cm^3
# Si number density = 22.657544 Si / 1000 Ang^3
#
#
#
# Elastic Constant Matrix: (Units=GPa)
#
#
# Indices 1 2 3 4 5 6 
#
# 1 101.0490 9.3550 19.6275 -0.0001 -8.0617 0.0002
# 2 9.3550 101.0502 19.6277 0.0002 8.0618 0.0005
# 3 19.6275 19.6277 145.4976 -0.0005 -0.0002 0.0001
# 4 -0.0001 0.0002 -0.0005 34.0717 0.0003 8.0618
# 5 -8.0617 8.0618 -0.0002 0.0003 34.0713 0.0000
# 6 0.0002 0.0005 0.0001 8.0618 0.0000 45.8475
#
#
#
# Elastic Compliance Matrix: (Units=1/GPa)
#
#
# Indices 1 2 3 4 5 6 
#
# 1 0.010447 -0.000933 -0.001283 0.000000 0.002692 0.000000
# 2 -0.000933 0.010447 -0.001283 0.000000 -0.002692 0.000000
# 3 -0.001283 -0.001283 0.007219 0.000000 0.000000 0.000000
# 4 0.000000 0.000000 0.000000 0.030624 0.000000 -0.005385
# 5 0.002692 -0.002692 0.000000 0.000000 0.030624 0.000000
# 6 0.000000 0.000000 0.000000 -0.005385 0.000000 0.022758
#
#
# Mechanical properties :
#
#
# Convention : Reuss Voigt Hill
#
# Bulk Modulus (GPa) = 47.36334 49.42414 48.39374
# Shear Modulus (GPa) = 39.63351 42.73054 41.18202
#
# Velocity S-wave (km/s) = 4.18693 4.34744 4.26794
# Velocity P-wave (km/s) = 6.65757 6.86012 6.75960
#
# Compressibility (1/GPa) = 0.02111338
#
# Stress axis : x y z
#
# Youngs Moduli (GPa) = 95.72465 95.72572 138.51889
#
# Poissons Ratio (x) = 0.08928 0.17778
# Poissons Ratio (y) = 0.08928 0.17778
# Poissons Ratio (z) = 0.12286 0.12286
#
# Static dielectric constant tensor:
#      x y z
#    x 1.845010 0.000040 0.000010 
#    y 0.000040 1.845080 0.000010 
#    z 0.000010 0.000010 1.872960 
# 
# From -- ./inp_files/651.got.cif
#   From: 2010.05.17/outbox.cif.g08.bks.cpg/sg163_1_cif.got.tgz:651.got - 2010.05.20 10:56:03.
