data_PCOD9578825
_publ_section_title
;
Structure prediction by ZEFSAII (Michael W. Deem and Ramdas Pophale) SiO2 
 PCOD9578825
Probable space group: P -3 C 1
;
_chemical_formula_sum "Si O2"
_cell_formula_units_Z 84
_cell_length_a 17.943131
_cell_length_b 17.943131
_cell_length_c 15.054570
_cell_angle_alpha 90.000000
_cell_angle_beta 90.000000
_cell_angle_gamma 120.000000
_cell_volume 4197.545793
_symmetry_space_group_name_H-M "P -3 C 1"
_symmetry_group_IT_number 165
_symmetry_cell_setting 'hexagonal'
loop_
_space_group_symop_operation_xyz
x,y,z
-y,x-y,z
-x+y,-x,z
x-y,-y,1/2-z
-x,-x+y,1/2-z
y,x,1/2-z
-x,-y,-z
y,-x+y,-z
x-y,x,-z
-x+y,y,1/2+z
x,x-y,1/2+z
-y,-x,1/2+z
loop_
_atom_site_type_symbol
_atom_site_label
_atom_site_fract_x
_atom_site_fract_y
_atom_site_fract_z
Si Si1 0.737340 0.648255 0.929040
Si Si2 0.467934 0.101335 0.267502
Si Si3 0.178784 0.178784 0.000000
Si Si4 0.667716 0.508014 0.068251
Si Si5 0.737339 0.089085 0.929040
Si Si6 0.667716 0.508013 0.568251
Si Si7 0.366599 0.467934 0.232498
O O1 0.766617 0.749709 0.923119
O O2 0.827847 0.655694 0.950088
O O3 0.699578 0.591293 0.841645
O O4 0.678897 0.588131 0.010117
O O5 0.471621 0.143945 0.172987
O O6 0.408707 0.108284 0.341645
O O7 0.566073 0.132146 0.297031
O O8 0.423009 0.000000 0.250000
O O9 0.084646 0.169293 0.988352
O O10 0.250291 0.233383 0.923119
O O11 0.745011 0.490021 0.045682
O O12 0.575648 0.424352 0.051544
O O13 0.678897 0.090766 0.010117
O O14 0.672324 0.528379 0.672987
O O15 0.423008 0.423008 0.250000
#
# Coordination Sequence:
#
# PCOD9578825 Si02
#       7
#    12  12  12  12  12  12  12
#     4  10  20  35  56  81 109 143 184 228 275 329
#     4  10  20  33  51  77 110 148 189 232 275 320
#     4  10  21  38  61  86 110 138 176 228 291 354
#     4  10  20  34  54  82 118 158 196 232 270 316
#     4  10  20  35  56  81 109 143 184 228 275 329
#     4  10  20  34  54  82 118 158 196 232 270 316
#     4  10  20  33  51  77 110 148 189 232 275 320
#
# _framework density 20.011693999999999
#
# number of rings (size 3 to 8) (size 9 to 14) (size 15 to 20)
#    0.000    2.000    0.000    3.857    0.000    0.000 
#    0.000    7.143    0.000   10.857    0.000    0.000 
#    0.000   35.429    0.000    0.857    0.000    0.000 
#
# Total GULP energy -467604.356317 kJ/mol
# GULP energy per Si atom -5566.718528 kJ/mol
# Density = 1.996615 g / cm^3
# Si number density = 20.011694 Si / 1000 Ang^3
#
#
#
# Elastic Constant Matrix: (Units=GPa)
#
#
# Indices 1 2 3 4 5 6 
#
# 1 131.4449 62.9634 40.7243 0.7721 0.0000 0.0000
# 2 62.9634 131.4449 40.7243 -0.7721 0.0000 0.0000
# 3 40.7243 40.7243 64.3393 0.0000 0.0000 0.0000
# 4 0.7721 -0.7721 0.0000 20.6560 0.0000 0.0000
# 5 0.0000 0.0000 0.0000 0.0000 20.6560 0.7721
# 6 0.0000 0.0000 0.0000 0.0000 0.7721 34.2408
#
#
#
# Elastic Compliance Matrix: (Units=1/GPa)
#
#
# Indices 1 2 3 4 5 6 
#
# 1 0.010807 -0.003807 -0.004431 -0.000546 0.000000 0.000000
# 2 -0.003807 0.010807 -0.004431 0.000546 0.000000 0.000000
# 3 -0.004431 -0.004431 0.021152 0.000000 0.000000 0.000000
# 4 -0.000546 0.000546 0.000000 0.048453 0.000000 0.000000
# 5 0.000000 0.000000 0.000000 0.000000 0.048453 -0.001093
# 6 0.000000 0.000000 0.000000 0.000000 -0.001093 0.029230
#
#
# Mechanical properties :
#
#
# Convention : Reuss Voigt Hill
#
# Bulk Modulus (GPa) = 57.37673 68.45036 62.91354
# Shear Modulus (GPa) = 24.99379 27.29835 26.14607
#
# Velocity S-wave (km/s) = 3.53790 3.69741 3.61853
# Velocity P-wave (km/s) = 6.73964 7.24618 6.99750
#
# Compressibility (1/GPa) = 0.01742867
#
# Stress axis : x y z
#
# Youngs Moduli (GPa) = 92.52869 92.52869 47.27760
#
# Poissons Ratio (x) = 0.35229 0.20948
# Poissons Ratio (y) = 0.35229 0.20948
# Poissons Ratio (z) = 0.40998 0.40998
#
# Static dielectric constant tensor:
#      x y z
#    x 1.779150 0.000000 0.000000 
#    y 0.000000 1.779150 0.000000 
#    z 0.000000 0.000000 1.711700 
# 
# From -- ./inp_files/1878.got.cif
#   From: 2010.05.17/outbox.cif.g08.bks.cpg/sg165_1_cif.got.tgz:1878.got - 2010.05.20 11:02:39.
