data_PCOD9578093
_publ_section_title
;
Structure prediction by ZEFSAII (Michael W. Deem and Ramdas Pophale) SiO2 
 PCOD9578093
Probable space group: P -3 1 C
;
_chemical_formula_sum "Si O2"
_cell_formula_units_Z 54
_cell_length_a 11.198303
_cell_length_b 11.198303
_cell_length_c 24.084773
_cell_angle_alpha 90.000000
_cell_angle_beta 90.000000
_cell_angle_gamma 120.000000
_cell_volume 2615.637877
_symmetry_space_group_name_H-M "P -3 1 C"
_symmetry_group_IT_number 163
_symmetry_cell_setting 'hexagonal'
loop_
_space_group_symop_operation_xyz
x,y,z
-y,x-y,z
-x+y,-x,z
-y,-x,1/2-z
-x+y,y,1/2-z
x,x-y,1/2-z
-x,-y,-z
y,-x+y,-z
x-y,x,-z
y,x,1/2+z
x-y,-y,1/2+z
-x,-x+y,1/2+z
loop_
_atom_site_type_symbol
_atom_site_label
_atom_site_fract_x
_atom_site_fract_y
_atom_site_fract_z
Si Si1 0.078848 0.360699 0.675791
Si Si2 0.660365 0.059560 0.559623
Si Si3 0.675988 0.621003 0.558756
Si Si4 0.331502 0.165751 0.750000
Si Si5 0.380105 0.963359 0.819608
O O1 0.058043 0.490293 0.691155
O O2 0.230172 0.394855 0.693760
O O3 0.049874 0.349034 0.609173
O O4 0.963075 0.221910 0.706943
O O5 0.537902 0.093636 0.551925
O O6 0.805378 0.188898 0.573616
O O7 0.679845 0.998308 0.502430
O O8 0.607996 0.968698 0.614324
O O9 0.404895 0.300613 0.709981
#
# Coordination Sequence:
#
# PCOD9578093 Si02
#       5
#    12  12  12   6  12
#     4  11  24  45  69  99 131 175 222 273 328 390
#     4  10  20  37  62  93 130 168 217 269 327 389
#     4  10  20  37  62  93 130 168 217 269 327 389
#     4  12  24  44  62  96 134 172 218 266 328 384
#     4  11  24  45  69  99 131 175 222 273 328 390
#
# _framework density 20.645057999999999
#
# number of rings (size 3 to 8) (size 9 to 14) (size 15 to 20)
#    0.000    1.333    2.222    3.556    0.000    0.000 
#   10.667    6.667    0.000    1.778    0.000    0.000 
#    0.000    0.000    0.000    0.000    0.000    0.000 
#
# Total GULP energy -300809.055497 kJ/mol
# GULP energy per Si atom -5570.538065 kJ/mol
# Density = 2.059807 g / cm^3
# Si number density = 20.645058 Si / 1000 Ang^3
#
#
#
# Elastic Constant Matrix: (Units=GPa)
#
#
# Indices 1 2 3 4 5 6 
#
# 1 79.1775 72.3987 14.9032 0.0000 -26.4350 0.0000
# 2 72.3987 79.1775 14.9032 0.0000 26.4350 0.0000
# 3 14.9032 14.9032 127.2857 0.0000 0.0000 0.0000
# 4 0.0000 0.0000 0.0000 -35.2230 0.0000 26.4350
# 5 -26.4350 26.4350 0.0000 0.0000 -35.2230 0.0000
# 6 0.0000 0.0000 0.0000 26.4350 0.0000 3.3894
#
#
#
# Elastic Compliance Matrix: (Units=1/GPa)
#
#
# Indices 1 2 3 4 5 6 
#
# 1 0.014139 -0.007386 -0.000791 0.000000 -0.016154 0.000000
# 2 -0.007386 0.014139 -0.000791 0.000000 0.016154 0.000000
# 3 -0.000791 -0.000791 0.008041 0.000000 0.000000 0.000000
# 4 0.000000 0.000000 0.000000 -0.004143 0.000000 0.032309
# 5 -0.016154 0.016154 0.000000 0.000000 -0.004143 0.000000
# 6 0.000000 0.000000 0.000000 0.032309 0.000000 0.043050
#
#
# Mechanical properties :
#
#
# Convention : Reuss Voigt Hill
#
# Bulk Modulus (GPa) = 54.39359 54.45010 54.42185
# Shear Modulus (GPa) = 52.55056 -1.18228 25.68414
#
# Velocity S-wave (km/s) = 5.05070 -0.75757 3.53098
# Velocity P-wave (km/s) = 7.77284 5.06621 6.56062
#
# Compressibility (1/GPa) = 0.01838452
#
# Stress axis : x y z
#
# Youngs Moduli (GPa) = 70.72731 70.72731 124.35508
#
# Poissons Ratio (x) = 0.52239 0.09832
# Poissons Ratio (y) = 0.52239 0.09832
# Poissons Ratio (z) = 0.05592 0.05592
#
# Static dielectric constant tensor:
#      x y z
#    x 1.725810 0.000000 0.000000 
#    y 0.000000 1.725810 0.000000 
#    z 0.000000 0.000000 1.889410 
# 
# From -- ./inp_files/3847.got.cif
#   From: 2010.05.17/outbox.cif.g08.bks.cpg/sg163_2_cif.got.tgz:3847.got - 2010.05.20 10:56:03.
