data_PCOD9578012
_publ_section_title
;
Structure prediction by ZEFSAII (Michael W. Deem and Ramdas Pophale) SiO2 
 PCOD9578012
Probable space group: P -3 1 C
;
_chemical_formula_sum "Si O2"
_cell_formula_units_Z 96
_cell_length_a 17.515351
_cell_length_b 17.515351
_cell_length_c 23.262973
_cell_angle_alpha 90.000000
_cell_angle_beta 90.000000
_cell_angle_gamma 120.000000
_cell_volume 6180.641277
_symmetry_space_group_name_H-M "P -3 1 C"
_symmetry_group_IT_number 163
_symmetry_cell_setting 'hexagonal'
loop_
_space_group_symop_operation_xyz
x,y,z
-y,x-y,z
-x+y,-x,z
-y,-x,1/2-z
-x+y,y,1/2-z
x,x-y,1/2-z
-x,-y,-z
y,-x+y,-z
x-y,x,-z
y,x,1/2+z
x-y,-y,1/2+z
-x,-x+y,1/2+z
loop_
_atom_site_type_symbol
_atom_site_label
_atom_site_fract_x
_atom_site_fract_y
_atom_site_fract_z
Si Si1 0.820769 0.827897 0.349059
Si Si2 0.326285 0.845061 0.131362
Si Si3 0.930663 0.692335 0.256373
Si Si4 0.383546 0.946201 0.250853
Si Si5 0.491281 0.339801 0.628823
Si Si6 0.066589 0.324582 0.449090
Si Si7 0.760993 0.080291 0.956808
Si Si8 0.006498 0.178297 0.637911
O O1 0.792288 0.767407 0.292611
O O2 0.745869 0.780988 0.397163
O O3 0.912167 0.837890 0.371297
O O4 0.832108 0.923035 0.336948
O O5 0.335378 0.887739 0.194508
O O6 0.249955 0.743212 0.131043
O O7 0.419630 0.851527 0.119177
O O8 0.296486 0.893743 0.084984
O O9 0.826237 0.652474 0.250000
O O10 0.961324 0.742298 0.316963
O O11 0.968450 0.627066 0.249772
O O12 0.484005 0.968010 0.250000
O O13 0.343147 0.892081 0.309366
O O14 0.419193 0.319621 0.579793
O O15 0.153070 0.325592 0.475608
O O16 0.985767 0.294476 0.492452
O O17 0.797059 0.027916 0.918792
#
# Coordination Sequence:
#
# PCOD9578012 Si02
#       8
#    12  12  12  12  12  12  12  12
#     4  10  19  30  46  68  98 131 164 199 238 285
#     4  10  20  33  52  75 101 128 155 195 245 300
#     4  10  19  31  49  74 101 128 158 196 239 287
#     4  10  19  33  53  78 103 126 156 192 241 297
#     4  10  20  33  52  75 101 128 155 195 245 300
#     4  10  20  33  49  68  94 129 168 207 241 277
#     4  10  20  33  49  68  94 129 168 207 241 277
#     4  10  19  30  46  68  98 131 164 199 238 285
#
# _framework density 15.532368999999999
#
# number of rings (size 3 to 8) (size 9 to 14) (size 15 to 20)
#    0.000    2.000    2.500    2.000    0.000    1.500 
#    0.000    2.500    0.000    4.250    0.000    0.000 
#    0.000    0.000    0.000    0.000    0.000    0.000 
#
# Total GULP energy -535395.611945 kJ/mol
# GULP energy per Si atom -5577.037624 kJ/mol
# Density = 1.549702 g / cm^3
# Si number density = 15.532369 Si / 1000 Ang^3
#
#
#
# Elastic Constant Matrix: (Units=GPa)
#
#
# Indices 1 2 3 4 5 6 
#
# 1 57.3932 18.3826 12.4691 0.0000 1.1511 0.0000
# 2 18.3826 57.3932 12.4691 0.0000 -1.1511 0.0000
# 3 12.4691 12.4691 32.5438 0.0000 0.0000 0.0000
# 4 0.0000 0.0000 0.0000 23.0526 0.0000 -1.1511
# 5 1.1511 -1.1511 0.0000 0.0000 23.0526 0.0000
# 6 0.0000 0.0000 0.0000 -1.1511 0.0000 19.5053
#
#
#
# Elastic Compliance Matrix: (Units=1/GPa)
#
#
# Indices 1 2 3 4 5 6 
#
# 1 0.020405 -0.005304 -0.005786 0.000000 -0.001284 0.000000
# 2 -0.005304 0.020405 -0.005786 0.000000 0.001284 0.000000
# 3 -0.005786 -0.005786 0.035162 0.000000 0.000000 0.000000
# 4 0.000000 0.000000 0.000000 0.043507 0.000000 0.002568
# 5 -0.001284 0.001284 0.000000 0.000000 0.043507 0.000000
# 6 0.000000 0.000000 0.000000 0.002568 0.000000 0.051420
#
#
# Mechanical properties :
#
#
# Convention : Reuss Voigt Hill
#
# Bulk Modulus (GPa) = 23.68554 25.99689 24.84121
# Shear Modulus (GPa) = 19.06707 20.05608 19.56158
#
# Velocity S-wave (km/s) = 3.50747 3.59729 3.55266
# Velocity P-wave (km/s) = 5.62898 5.83331 5.73206
#
# Compressibility (1/GPa) = 0.04221985
#
# Stress axis : x y z
#
# Youngs Moduli (GPa) = 49.00665 49.00665 28.44013
#
# Poissons Ratio (x) = 0.25995 0.16455
# Poissons Ratio (y) = 0.25995 0.16455
# Poissons Ratio (z) = 0.28355 0.28355
#
# Static dielectric constant tensor:
#      x y z
#    x 1.505180 0.000000 0.000000 
#    y 0.000000 1.505180 0.000000 
#    z 0.000000 0.000000 1.506590 
# 
# From -- ./inp_files/3701.got.cif
#   From: 2010.05.17/outbox.cif.g08.bks.cpg/sg163_2_cif.got.tgz:3701.got - 2010.05.20 10:56:03.
