data_PCOD9578566
_publ_section_title
;
Structure prediction by ZEFSAII (Michael W. Deem and Ramdas Pophale) SiO2 
 PCOD9578566
Probable space group: P -3 M 1
;
_chemical_formula_sum "Si O2"
_cell_formula_units_Z 66
_cell_length_a 12.908236
_cell_length_b 12.908236
_cell_length_c 29.236443
_cell_angle_alpha 90.000000
_cell_angle_beta 90.000000
_cell_angle_gamma 120.000000
_cell_volume 4218.800215
_symmetry_space_group_name_H-M "P -3 M 1"
_symmetry_group_IT_number 164
_symmetry_cell_setting 'hexagonal'
loop_
_space_group_symop_operation_xyz
x,y,z
-y,x-y,z
-x+y,-x,z
x-y,-y,-z
-x,-x+y,-z
y,x,-z
-x,-y,-z
y,-x+y,-z
x-y,x,-z
-x+y,y,z
x,x-y,z
-y,-x,z
loop_
_atom_site_type_symbol
_atom_site_label
_atom_site_fract_x
_atom_site_fract_y
_atom_site_fract_z
Si Si1 0.248500 0.000071 0.899489
Si Si2 0.579049 0.912539 0.644107
Si Si3 0.246459 0.000189 0.728499
Si Si4 0.000000 0.246408 0.000000
Si Si5 0.420594 0.332719 0.459152
Si Si6 0.580043 0.913191 0.185410
O O1 0.223268 0.111634 0.897531
O O2 0.341988 0.022992 0.859628
O O3 0.300843 0.002374 0.950312
O O4 0.124617 0.875383 0.893552
O O5 0.459099 0.918198 0.652664
O O6 0.549637 0.774819 0.645226
O O7 0.622667 0.958026 0.592453
O O8 0.678005 0.981822 0.682484
O O9 0.227710 0.113855 0.724659
O O10 0.336095 0.025673 0.770638
O O11 0.120476 0.879525 0.736325
O O12 0.116399 0.232797 0.998489
O O13 0.346885 0.346885 0.500000
O O14 0.423355 0.211678 0.464490
O O15 0.554336 0.445665 0.461939
O O16 0.459323 0.918646 0.187390
O O17 0.552273 0.776137 0.184338
#
# Coordination Sequence:
#
# PCOD9578566 Si02
#       6
#    12  12  12   6  12  12
#     4   9  16  27  46  71  97 122 149 185 228 272
#     4   9  17  30  48  69  92 120 154 189 224 264
#     4  10  20  33  50  71  94 118 144 179 224 273
#     4   8  13  22  39  66  96 122 148 180 222 268
#     4   9  17  29  46  67  91 120 154 192 230 267
#     4  10  20  33  48  65  87 117 152 188 223 262
#
# _framework density 15.644259
#
# number of rings (size 3 to 8) (size 9 to 14) (size 15 to 20)
#    0.000    2.727    0.000    2.091    0.000    3.636 
#    0.000    2.273    0.000    4.545    0.000    0.000 
#    0.000    0.000    0.000    0.000    0.000    0.000 
#
# Total GULP energy -367569.457737 kJ/mol
# GULP energy per Si atom -5569.234208 kJ/mol
# Density = 1.560865 g / cm^3
# Si number density = 15.644259 Si / 1000 Ang^3
#
#
#
# Elastic Constant Matrix: (Units=GPa)
#
#
# Indices 1 2 3 4 5 6 
#
# 1 82.5956 50.0966 75.8316 -4.2982 0.0000 0.0000
# 2 50.0966 82.5956 75.8316 4.2982 0.0000 0.0000
# 3 75.8316 75.8316 165.8119 0.0000 0.0000 0.0000
# 4 -4.2982 4.2982 0.0000 19.9434 0.0000 0.0000
# 5 0.0000 0.0000 0.0000 0.0000 19.9434 -4.2982
# 6 0.0000 0.0000 0.0000 0.0000 -4.2982 16.2495
#
#
#
# Elastic Compliance Matrix: (Units=1/GPa)
#
#
# Indices 1 2 3 4 5 6 
#
# 1 0.024210 -0.008420 -0.007221 0.007032 0.000000 0.000000
# 2 -0.008420 0.024210 -0.007221 -0.007032 0.000000 0.000000
# 3 -0.007221 -0.007221 0.012636 0.000000 0.000000 0.000000
# 4 0.007032 -0.007032 0.000000 0.053173 0.000000 0.000000
# 5 0.000000 0.000000 0.000000 0.000000 0.053173 0.014065
# 6 0.000000 0.000000 0.000000 0.000000 0.014065 0.065261
#
#
# Mechanical properties :
#
#
# Convention : Reuss Voigt Hill
#
# Bulk Modulus (GPa) = 65.22828 81.61361 73.42094
# Shear Modulus (GPa) = 17.63675 19.84349 18.74012
#
# Velocity S-wave (km/s) = 3.36126 3.56535 3.46481
# Velocity P-wave (km/s) = 7.53985 8.32050 7.93977
#
# Compressibility (1/GPa) = 0.01533077
#
# Stress axis : x y z
#
# Youngs Moduli (GPa) = 41.30498 41.30498 79.13867
#
# Poissons Ratio (x) = 0.34779 0.57149
# Poissons Ratio (y) = 0.34779 0.57149
# Poissons Ratio (z) = 0.29828 0.29828
#
# Static dielectric constant tensor:
#      x y z
#    x 1.489620 0.000000 0.000000 
#    y 0.000000 1.489620 0.000000 
#    z 0.000000 0.000000 1.555120 
# 
# From -- ./inp_files/5437.got.cif
#   From: 2010.05.17/outbox.cif.g08.bks.cpg/sg164_3_cif.got.tgz:5437.got - 2010.05.20 10:58:56.
