data_PCOD9578274
_publ_section_title
;
Structure prediction by ZEFSAII (Michael W. Deem and Ramdas Pophale) SiO2 
 PCOD9578274
Probable space group: P -3 1 C
;
_chemical_formula_sum "Si O2"
_cell_formula_units_Z 54
_cell_length_a 10.958803
_cell_length_b 10.958803
_cell_length_c 24.438537
_cell_angle_alpha 90.000000
_cell_angle_beta 90.000000
_cell_angle_gamma 120.000000
_cell_volume 2541.745569
_symmetry_space_group_name_H-M "P -3 1 C"
_symmetry_group_IT_number 163
_symmetry_cell_setting 'hexagonal'
loop_
_space_group_symop_operation_xyz
x,y,z
-y,x-y,z
-x+y,-x,z
-y,-x,1/2-z
-x+y,y,1/2-z
x,x-y,1/2-z
-x,-y,-z
y,-x+y,-z
x-y,x,-z
y,x,1/2+z
x-y,-y,1/2+z
-x,-x+y,1/2+z
loop_
_atom_site_type_symbol
_atom_site_label
_atom_site_fract_x
_atom_site_fract_y
_atom_site_fract_z
Si Si1 0.723584 0.089158 0.681286
Si Si2 0.412205 0.015653 0.676422
Si Si3 0.034525 0.309955 0.559377
Si Si4 0.293089 0.034056 0.941327
Si Si5 0.834957 0.165044 0.250000
O O1 0.566677 0.053818 0.694591
O O2 0.852831 0.243887 0.692576
O O3 0.708616 0.080083 0.615648
O O4 0.750320 0.971115 0.709944
O O5 0.375865 0.991599 0.611238
O O6 0.294074 0.879723 0.708548
O O7 0.044591 0.371486 0.498389
O O8 0.173677 0.299989 0.568047
O O9 0.907301 0.148078 0.553282
#
# Coordination Sequence:
#
# PCOD9578274 Si02
#       5
#    12  12  12  12   6
#     4  11  24  44  66  95 128 171 213 260 319 382
#     4  11  24  44  66  95 128 171 213 260 319 382
#     4   9  17  33  59  92 128 165 210 263 319 376
#     4   9  17  33  59  92 128 165 210 263 319 376
#     4  12  24  44  62  92 122 164 214 258 316 364
#
# _framework density 21.245242000000001
#
# number of rings (size 3 to 8) (size 9 to 14) (size 15 to 20)
#    0.000    1.778    2.222    2.222    0.000    2.667 
#   10.667    2.222    0.000    0.000    0.000    0.000 
#    0.000    0.000    0.000    0.000    0.000    0.000 
#
# Total GULP energy -300853.773512 kJ/mol
# GULP energy per Si atom -5571.366176 kJ/mol
# Density = 2.119689 g / cm^3
# Si number density = 21.245242 Si / 1000 Ang^3
#
#
#
# Elastic Constant Matrix: (Units=GPa)
#
#
# Indices 1 2 3 4 5 6 
#
# 1 62.9048 38.8829 16.4052 0.0001 0.9993 0.0000
# 2 38.8829 62.9048 16.4052 -0.0001 -0.9993 0.0000
# 3 16.4052 16.4052 141.7345 0.0000 0.0000 0.0000
# 4 0.0001 -0.0001 0.0000 19.1257 0.0000 -0.9993
# 5 0.9993 -0.9993 0.0000 0.0000 19.1257 0.0001
# 6 0.0000 0.0000 0.0000 -0.9993 0.0001 12.0110
#
#
#
# Elastic Compliance Matrix: (Units=1/GPa)
#
#
# Indices 1 2 3 4 5 6 
#
# 1 0.026008 -0.015803 -0.001181 0.000000 -0.002185 0.000000
# 2 -0.015803 0.026008 -0.001181 0.000000 0.002185 0.000000
# 3 -0.001181 -0.001181 0.007329 0.000000 0.000000 0.000000
# 4 0.000000 0.000000 0.000000 0.052514 0.000000 0.004369
# 5 -0.002185 0.002185 0.000000 0.000000 0.052514 0.000000
# 6 0.000000 0.000000 0.000000 0.004369 0.000000 0.083621
#
#
# Mechanical properties :
#
#
# Convention : Reuss Voigt Hill
#
# Bulk Modulus (GPa) = 43.45120 45.65895 44.55507
# Shear Modulus (GPa) = 17.12360 23.10920 20.11640
#
# Velocity S-wave (km/s) = 2.84209 3.30166 3.08046
# Velocity P-wave (km/s) = 5.59165 6.00605 5.80255
#
# Compressibility (1/GPa) = 0.02301432
#
# Stress axis : x y z
#
# Youngs Moduli (GPa) = 38.45006 38.45006 136.44640
#
# Poissons Ratio (x) = 0.60761 0.16117
# Poissons Ratio (y) = 0.60761 0.16117
# Poissons Ratio (z) = 0.04542 0.04542
#
# Static dielectric constant tensor:
#      x y z
#    x 1.755690 0.000000 0.000000 
#    y 0.000000 1.755690 0.000000 
#    z 0.000000 0.000000 1.896220 
# 
# From -- ./inp_files/3836.got.cif
#   From: 2010.05.17/outbox.cif.g08.bks.cpg/sg163_2_cif.got.tgz:3836.got - 2010.05.20 10:56:03.
