data_PCOD9578011
_publ_section_title
;
Structure prediction by ZEFSAII (Michael W. Deem and Ramdas Pophale) SiO2 
 PCOD9578011
Probable space group: P -3 1 C
;
_chemical_formula_sum "Si O2"
_cell_formula_units_Z 80
_cell_length_a 18.564059
_cell_length_b 18.564059
_cell_length_c 20.450420
_cell_angle_alpha 90.000000
_cell_angle_beta 90.000000
_cell_angle_gamma 120.000000
_cell_volume 6103.497113
_symmetry_space_group_name_H-M "P -3 1 C"
_symmetry_group_IT_number 163
_symmetry_cell_setting 'hexagonal'
loop_
_space_group_symop_operation_xyz
x,y,z
-y,x-y,z
-x+y,-x,z
-y,-x,1/2-z
-x+y,y,1/2-z
x,x-y,1/2-z
-x,-y,-z
y,-x+y,-z
x-y,x,-z
y,x,1/2+z
x-y,-y,1/2+z
-x,-x+y,1/2+z
loop_
_atom_site_type_symbol
_atom_site_label
_atom_site_fract_x
_atom_site_fract_y
_atom_site_fract_z
Si Si1 0.065778 0.616923 0.173761
Si Si2 0.525321 0.762661 0.368145
Si Si3 0.666668 0.333335 0.475586
Si Si4 0.616923 0.065778 0.826238
Si Si5 0.936892 0.553587 0.439538
Si Si6 0.237261 0.474520 0.973863
Si Si7 0.666668 0.333334 0.865845
Si Si8 0.446415 0.063109 0.439538
O O1 0.143840 0.706528 0.157151
O O2 0.090423 0.545211 0.160180
O O3 0.044786 0.611954 0.250000
O O4 0.988517 0.593132 0.126345
O O5 0.562690 0.856161 0.342848
O O6 0.528813 0.764407 0.446998
O O7 0.428965 0.714484 0.345349
O O8 0.571548 0.285776 0.454500
O O9 0.666668 0.333334 0.554928
O O10 0.593132 0.988517 0.873654
O O11 0.856141 0.562418 0.448337
O O12 0.912419 0.456210 0.441351
O O13 0.000001 0.595863 0.500000
O O14 0.143861 0.437585 0.948336
#
# Coordination Sequence:
#
# PCOD9578011 Si02
#       8
#    12  12   4  12  12  12   4  12
#     4  10  20  31  42  61  91 122 151 185 226 271
#     4  11  17  28  43  64  93 120 148 186 229 278
#     4   9  18  24  39  70  86 112 150 196 227 256
#     4  10  20  31  42  61  91 122 151 185 226 271
#     4  10  19  30  45  64  87 117 152 188 224 263
#     4  11  18  29  47  67  88 112 154 197 228 257
#     4   9  18  21  37  64  93 121 148 175 227 280
#     4  10  19  30  45  64  87 117 152 188 224 263
#
# _framework density 13.107239999999999
#
# number of rings (size 3 to 8) (size 9 to 14) (size 15 to 20)
#    0.000    1.800    6.000    0.450    0.000    0.000 
#    0.000    0.750    0.000    0.000    0.000    0.000 
#    0.000    0.000    0.000    8.100    0.000    5.100 
#
# Total GULP energy -446026.199182 kJ/mol
# GULP energy per Si atom -5575.327490 kJ/mol
# Density = 1.307741 g / cm^3
# Si number density = 13.107240 Si / 1000 Ang^3
#
#
#
# Elastic Constant Matrix: (Units=GPa)
#
#
# Indices 1 2 3 4 5 6 
#
# 1 79.3506 36.0271 39.5035 0.0000 -0.0001 0.0000
# 2 36.0271 79.3505 39.5036 -0.0001 0.0000 0.0000
# 3 39.5035 39.5036 78.8067 -0.0001 -0.0001 0.0000
# 4 0.0000 -0.0001 -0.0001 15.1754 0.0000 0.0000
# 5 -0.0001 0.0000 -0.0001 0.0000 15.1754 -0.0001
# 6 0.0000 0.0000 0.0000 0.0000 -0.0001 21.6617
#
#
#
# Elastic Compliance Matrix: (Units=1/GPa)
#
#
# Indices 1 2 3 4 5 6 
#
# 1 0.018140 -0.004943 -0.006615 0.000000 0.000000 0.000000
# 2 -0.004943 0.018140 -0.006615 0.000000 0.000000 0.000000
# 3 -0.006615 -0.006615 0.019321 0.000000 0.000000 0.000000
# 4 0.000000 0.000000 0.000000 0.065896 0.000000 0.000000
# 5 0.000000 0.000000 0.000000 0.000000 0.065896 0.000000
# 6 0.000000 0.000000 0.000000 0.000000 0.000000 0.046164
#
#
# Mechanical properties :
#
#
# Convention : Reuss Voigt Hill
#
# Bulk Modulus (GPa) = 51.93631 51.95293 51.94462
# Shear Modulus (GPa) = 18.09484 18.56742 18.33113
#
# Velocity S-wave (km/s) = 3.71957 3.76783 3.74378
# Velocity P-wave (km/s) = 7.62608 7.65843 7.64227
#
# Compressibility (1/GPa) = 0.01925435
#
# Stress axis : x y z
#
# Youngs Moduli (GPa) = 55.12773 55.12768 51.75589
#
# Poissons Ratio (x) = 0.27247 0.34238
# Poissons Ratio (y) = 0.27247 0.34238
# Poissons Ratio (z) = 0.36469 0.36469
#
# Static dielectric constant tensor:
#      x y z
#    x 1.417600 0.000000 0.000000 
#    y 0.000000 1.417600 0.000000 
#    z 0.000000 0.000000 1.431490 
# 
# From -- ./inp_files/3281.got.cif
#   From: 2010.05.17/outbox.cif.g08.bks.cpg/sg163_2_cif.got.tgz:3281.got - 2010.05.20 10:56:03.
