data_PCOD9578375
_publ_section_title
;
Structure prediction by ZEFSAII (Michael W. Deem and Ramdas Pophale) SiO2 
 PCOD9578375
Probable space group: P -3 M 1
;
_chemical_formula_sum "Si O2"
_cell_formula_units_Z 84
_cell_length_a 22.361551
_cell_length_b 22.361551
_cell_length_c 12.504645
_cell_angle_alpha 90.000000
_cell_angle_beta 90.000000
_cell_angle_gamma 120.000000
_cell_volume 5415.092063
_symmetry_space_group_name_H-M "P -3 M 1"
_symmetry_group_IT_number 164
_symmetry_cell_setting 'hexagonal'
loop_
_space_group_symop_operation_xyz
x,y,z
-y,x-y,z
-x+y,-x,z
x-y,-y,-z
-x,-x+y,-z
y,x,-z
-x,-y,-z
y,-x+y,-z
x-y,x,-z
-x+y,y,z
x,x-y,z
-y,-x,z
loop_
_atom_site_type_symbol
_atom_site_label
_atom_site_fract_x
_atom_site_fract_y
_atom_site_fract_z
Si Si1 0.421442 0.279749 0.767877
Si Si2 0.807013 0.472617 0.132525
Si Si3 0.474521 0.666465 0.430161
Si Si4 0.919326 0.701130 0.384288
Si Si5 0.073288 0.279875 0.361300
Si Si6 0.846771 0.548804 0.352360
Si Si7 0.467613 0.075880 0.952386
O O1 0.429049 0.214525 0.807789
O O2 0.475833 0.314914 0.671466
O O3 0.346067 0.246931 0.714381
O O4 0.435842 0.336480 0.857192
O O5 0.741035 0.482070 0.113818
O O6 0.784363 0.392182 0.131364
O O7 0.838398 0.504164 0.248432
O O8 0.866333 0.509962 0.044503
O O9 0.459543 0.729772 0.443335
O O10 0.404319 0.595682 0.415086
O O11 0.513119 0.664403 0.537825
O O12 0.855122 0.710244 0.350977
O O13 0.917693 0.696965 0.513953
O O14 0.907303 0.627725 0.343672
O O15 0.992342 0.763474 0.347908
O O16 0.125337 0.250674 0.344076
O O17 0.776840 0.553680 0.359866
O O18 0.537817 0.075634 0.918773
O O19 0.416355 0.000000 0.000000
#
# Coordination Sequence:
#
# PCOD9578375 Si02
#       7
#    12  12  12  12  12  12  12
#     4  10  19  33  52  71  93 123 159 200 243 288
#     4  10  20  34  51  69  91 122 162 204 244 289
#     4  10  18  29  46  70  99 127 158 197 243 290
#     4   9  16  29  48  72 101 131 159 187 225 276
#     4   9  17  29  49  74  98 126 159 194 231 273
#     4   9  17  29  46  70  98 127 156 189 232 280
#     4  10  22  37  50  66  90 123 162 203 250 296
#
# _framework density 15.512200999999999
#
# number of rings (size 3 to 8) (size 9 to 14) (size 15 to 20)
#    0.000    2.429    1.429    1.571    2.000    0.000 
#    0.000    1.429    0.000    5.714    0.000    2.000 
#    0.000    0.000    0.000    0.000    0.000    5.714 
#
# Total GULP energy -468122.075901 kJ/mol
# GULP energy per Si atom -5572.881856 kJ/mol
# Density = 1.547689 g / cm^3
# Si number density = 15.512201 Si / 1000 Ang^3
#
#
#
# Elastic Constant Matrix: (Units=GPa)
#
#
# Indices 1 2 3 4 5 6 
#
# 1 92.8713 50.8217 40.8453 -2.9766 0.0000 0.0000
# 2 50.8217 92.8713 40.8453 2.9766 0.0000 0.0000
# 3 40.8453 40.8453 61.0979 0.0000 0.0000 0.0000
# 4 -2.9766 2.9766 0.0000 17.3852 0.0000 0.0000
# 5 0.0000 0.0000 0.0000 0.0000 17.3852 -2.9766
# 6 0.0000 0.0000 0.0000 0.0000 -2.9766 21.0248
#
#
#
# Elastic Compliance Matrix: (Units=1/GPa)
#
#
# Indices 1 2 3 4 5 6 
#
# 1 0.017799 -0.006573 -0.007505 0.004173 0.000000 0.000000
# 2 -0.006573 0.017799 -0.007505 -0.004173 0.000000 0.000000
# 3 -0.007505 -0.007505 0.026401 0.000000 0.000000 0.000000
# 4 0.004173 -0.004173 0.000000 0.058949 0.000000 0.000000
# 5 0.000000 0.000000 0.000000 0.000000 0.058949 0.008346
# 6 0.000000 0.000000 0.000000 0.000000 0.008346 0.048744
#
#
# Mechanical properties :
#
#
# Convention : Reuss Voigt Hill
#
# Bulk Modulus (GPa) = 53.09521 56.87389 54.98455
# Shear Modulus (GPa) = 17.98011 18.78090 18.38050
#
# Velocity S-wave (km/s) = 3.40824 3.48331 3.44598
# Velocity P-wave (km/s) = 7.05624 7.27472 7.16631
#
# Compressibility (1/GPa) = 0.01883409
#
# Stress axis : x y z
#
# Youngs Moduli (GPa) = 56.18298 56.18298 37.87707
#
# Poissons Ratio (x) = 0.36931 0.28425
# Poissons Ratio (y) = 0.36931 0.28425
# Poissons Ratio (z) = 0.42163 0.42163
#
# Static dielectric constant tensor:
#      x y z
#    x 1.513050 0.000000 0.000000 
#    y 0.000000 1.513050 0.000000 
#    z 0.000000 0.000000 1.505240 
# 
# From -- ./inp_files/2894.got.cif
#   From: 2010.05.17/outbox.cif.g08.bks.cpg/sg164_2_cif.got.tgz:2894.got - 2010.05.20 10:58:56.
