data_PCOD9578589
_publ_section_title
;
Structure prediction by ZEFSAII (Michael W. Deem and Ramdas Pophale) SiO2 
 PCOD9578589
Probable space group: P -3 M 1
;
_chemical_formula_sum "Si O2"
_cell_formula_units_Z 66
_cell_length_a 12.668722
_cell_length_b 12.668722
_cell_length_c 29.208461
_cell_angle_alpha 90.000000
_cell_angle_beta 90.000000
_cell_angle_gamma 120.000000
_cell_volume 4059.802611
_symmetry_space_group_name_H-M "P -3 M 1"
_symmetry_group_IT_number 164
_symmetry_cell_setting 'hexagonal'
loop_
_space_group_symop_operation_xyz
x,y,z
-y,x-y,z
-x+y,-x,z
x-y,-y,-z
-x,-x+y,-z
y,x,-z
-x,-y,-z
y,-x+y,-z
x-y,x,-z
-x+y,y,z
x,x-y,z
-y,-x,z
loop_
_atom_site_type_symbol
_atom_site_label
_atom_site_fract_x
_atom_site_fract_y
_atom_site_fract_z
Si Si1 0.749886 0.000465 0.776789
Si Si2 0.415690 0.082363 0.866202
Si Si3 0.666214 0.583925 0.044313
Si Si4 0.251429 0.000000 0.500000
Si Si5 0.000024 0.747108 0.399702
Si Si6 0.415739 0.082097 0.688226
O O1 0.890225 0.109775 0.775798
O O2 0.689294 0.023230 0.821296
O O3 0.687530 0.016116 0.731352
O O4 0.742372 0.871186 0.778299
O O5 0.548340 0.096680 0.860080
O O6 0.427270 0.213635 0.873234
O O7 0.354528 0.997138 0.910174
O O8 0.795274 0.590548 0.044460
O O9 0.556190 0.443811 0.042632
O O10 0.649174 0.649174 0.000000
O O11 0.307520 0.002688 0.549666
O O12 0.118812 0.881189 0.501555
O O13 0.873633 0.747265 0.394360
O O14 0.021045 0.676998 0.358546
O O15 0.113959 0.886042 0.398064
O O16 0.539877 0.079754 0.691645
O O17 0.441530 0.220765 0.688552
#
# Coordination Sequence:
#
# PCOD9578589 Si02
#       6
#    12  12  12   6  12  12
#     4  10  20  34  53  76 101 127 156 194 241 291
#     4  10  20  34  54  78 104 134 167 203 240 282
#     4  10  20  34  53  76 103 135 170 209 251 295
#     4   8  13  22  39  66  96 122 148 182 230 284
#     4   9  16  27  46  71  97 122 150 189 237 287
#     4  10  20  33  49  68  92 124 161 200 238 278
#
# _framework density 16.256948000000001
#
# number of rings (size 3 to 8) (size 9 to 14) (size 15 to 20)
#    0.000    2.364    0.000    3.182    0.000    1.455 
#    0.000    5.909    0.000   12.000    0.000    0.000 
#    0.000    0.000    0.000    0.000    0.000    0.000 
#
# Total GULP energy -368002.306231 kJ/mol
# GULP energy per Si atom -5575.792519 kJ/mol
# Density = 1.621995 g / cm^3
# Si number density = 16.256948 Si / 1000 Ang^3
#
#
#
# Elastic Constant Matrix: (Units=GPa)
#
#
# Indices 1 2 3 4 5 6 
#
# 1 112.7339 78.8965 82.8297 -0.4101 0.0000 0.0000
# 2 78.8965 112.7339 82.8297 0.4101 0.0000 0.0000
# 3 82.8297 82.8297 172.1060 0.0000 0.0000 0.0000
# 4 -0.4101 0.4101 0.0000 19.9527 0.0000 0.0000
# 5 0.0000 0.0000 0.0000 0.0000 19.9527 -0.4101
# 6 0.0000 0.0000 0.0000 0.0000 -0.4101 16.9187
#
#
#
# Elastic Compliance Matrix: (Units=1/GPa)
#
#
# Indices 1 2 3 4 5 6 
#
# 1 0.019252 -0.010316 -0.004301 0.000608 0.000000 0.000000
# 2 -0.010316 0.019252 -0.004301 -0.000608 0.000000 0.000000
# 3 -0.004301 -0.004301 0.009950 0.000000 0.000000 0.000000
# 4 0.000608 -0.000608 0.000000 0.050143 0.000000 0.000000
# 5 0.000000 0.000000 0.000000 0.000000 0.050143 0.001216
# 6 0.000000 0.000000 0.000000 0.000000 0.001216 0.059136
#
#
# Mechanical properties :
#
#
# Convention : Reuss Voigt Hill
#
# Bulk Modulus (GPa) = 94.16626 98.52060 96.34343
# Shear Modulus (GPa) = 20.06008 21.56602 20.81305
#
# Velocity S-wave (km/s) = 3.51656 3.64617 3.58195
# Velocity P-wave (km/s) = 8.63352 8.85775 8.74635
#
# Compressibility (1/GPa) = 0.01061952
#
# Stress axis : x y z
#
# Youngs Moduli (GPa) = 51.94248 51.94248 100.50197
#
# Poissons Ratio (x) = 0.53583 0.43224
# Poissons Ratio (y) = 0.53583 0.43224
# Poissons Ratio (z) = 0.22339 0.22339
#
# Static dielectric constant tensor:
#      x y z
#    x 1.509650 0.000000 0.000000 
#    y 0.000000 1.509650 0.000000 
#    z 0.000000 0.000000 1.565570 
# 
# From -- ./inp_files/5497.got.cif
#   From: 2010.05.17/outbox.cif.g08.bks.cpg/sg164_3_cif.got.tgz:5497.got - 2010.05.20 10:58:56.
