data_PCOD9578095
_publ_section_title
;
Structure prediction by ZEFSAII (Michael W. Deem and Ramdas Pophale) SiO2 
 PCOD9578095
Probable space group: P -3 1 C
;
_chemical_formula_sum "Si O2"
_cell_formula_units_Z 64
_cell_length_a 14.415898
_cell_length_b 14.415898
_cell_length_c 18.361390
_cell_angle_alpha 90.000000
_cell_angle_beta 90.000000
_cell_angle_gamma 120.000000
_cell_volume 3304.605250
_symmetry_space_group_name_H-M "P -3 1 C"
_symmetry_group_IT_number 163
_symmetry_cell_setting 'hexagonal'
loop_
_space_group_symop_operation_xyz
x,y,z
-y,x-y,z
-x+y,-x,z
-y,-x,1/2-z
-x+y,y,1/2-z
x,x-y,1/2-z
-x,-y,-z
y,-x+y,-z
x-y,x,-z
y,x,1/2+z
x-y,-y,1/2+z
-x,-x+y,1/2+z
loop_
_atom_site_type_symbol
_atom_site_label
_atom_site_fract_x
_atom_site_fract_y
_atom_site_fract_z
Si Si1 0.993269 0.599425 0.663631
Si Si2 0.419344 0.209672 0.596083
Si Si3 0.666667 0.333334 0.843135
Si Si4 0.993269 0.599424 0.836370
Si Si5 0.179033 0.820968 0.665695
Si Si6 0.124052 0.248102 0.977611
O O1 0.907618 0.625699 0.629827
O O2 0.973363 0.586595 0.750000
O O3 0.977064 0.488532 0.633124
O O4 0.113946 0.694285 0.652869
O O5 0.545263 0.272631 0.623007
O O6 0.367794 0.183898 0.514774
O O7 0.374302 0.092381 0.629826
O O8 0.666668 0.333334 0.750000
O O9 0.113947 0.694284 0.847131
O O10 0.161806 0.838195 0.750000
O O11 0.131162 0.868840 0.608894
O O12 0.184694 0.184694 0.000000
#
# Coordination Sequence:
#
# PCOD9578095 Si02
#       6
#    12  12   4  12  12  12
#     4  10  20  37  63  95 129 170 217 271 328 393
#     4  12  22  37  66  96 136 169 213 260 343 398
#     4  12  24  42  66 111 148 173 211 273 345 414
#     4  10  20  37  63  95 129 170 217 271 328 393
#     4  10  22  43  65  91 127 176 229 272 327 405
#     4  12  25  46  66  94 131 178 224 283 344 391
#
# _framework density 19.366913
#
# number of rings (size 3 to 8) (size 9 to 14) (size 15 to 20)
#    0.000    1.125    5.625    1.875    0.000    0.000 
#    4.500    3.750    0.000    0.000    0.000    0.000 
#    0.000    0.000    0.000    0.000    0.000    0.000 
#
# Total GULP energy -356375.407496 kJ/mol
# GULP energy per Si atom -5568.365742 kJ/mol
# Density = 1.932283 g / cm^3
# Si number density = 19.366913 Si / 1000 Ang^3
#
#
#
# Elastic Constant Matrix: (Units=GPa)
#
#
# Indices 1 2 3 4 5 6 
#
# 1 78.9475 46.8343 32.2574 0.0000 -0.0003 -0.0001
# 2 46.8343 78.9475 32.2574 0.0002 0.0003 0.0001
# 3 32.2574 32.2574 50.6852 0.0000 0.0000 0.0001
# 4 0.0000 0.0002 0.0000 17.6304 0.0000 0.0004
# 5 -0.0003 0.0003 0.0000 0.0000 17.6304 0.0001
# 6 -0.0001 0.0001 0.0001 0.0004 0.0001 16.0565
#
#
#
# Elastic Compliance Matrix: (Units=1/GPa)
#
#
# Indices 1 2 3 4 5 6 
#
# 1 0.021472 -0.009668 -0.007512 0.000000 0.000000 0.000000
# 2 -0.009668 0.021471 -0.007512 0.000000 -0.000001 0.000000
# 3 -0.007512 -0.007512 0.029291 0.000000 0.000000 0.000000
# 4 0.000000 0.000000 0.000000 0.056720 0.000000 -0.000001
# 5 0.000000 -0.000001 0.000000 0.000000 0.056720 0.000000
# 6 0.000000 0.000000 0.000000 -0.000001 0.000000 0.062280
#
#
# Mechanical properties :
#
#
# Convention : Reuss Voigt Hill
#
# Bulk Modulus (GPa) = 43.76356 47.91981 45.84169
# Shear Modulus (GPa) = 16.39585 16.74555 16.57070
#
# Velocity S-wave (km/s) = 2.91278 2.94368 2.92827
# Velocity P-wave (km/s) = 5.82739 6.02914 5.92912
#
# Compressibility (1/GPa) = 0.02285006
#
# Stress axis : x y z
#
# Youngs Moduli (GPa) = 46.57331 46.57340 34.14003
#
# Poissons Ratio (x) = 0.45029 0.25646
# Poissons Ratio (y) = 0.45029 0.25645
# Poissons Ratio (z) = 0.34985 0.34985
#
# Static dielectric constant tensor:
#      x y z
#    x 1.692210 0.000000 0.000000 
#    y 0.000000 1.692210 0.000000 
#    z 0.000000 0.000000 1.689190 
# 
# From -- ./inp_files/3085.got.cif
#   From: 2010.05.17/outbox.cif.g08.bks.cpg/sg163_2_cif.got.tgz:3085.got - 2010.05.20 10:56:03.
