data_PCOD9578628
_publ_section_title
;
Structure prediction by ZEFSAII (Michael W. Deem and Ramdas Pophale) SiO2 
 PCOD9578628
Probable space group: P -3 M 1
;
_chemical_formula_sum "Si O2"
_cell_formula_units_Z 60
_cell_length_a 12.875229
_cell_length_b 12.875229
_cell_length_c 26.382229
_cell_angle_alpha 90.000000
_cell_angle_beta 90.000000
_cell_angle_gamma 120.000000
_cell_volume 3787.494770
_symmetry_space_group_name_H-M "P -3 M 1"
_symmetry_group_IT_number 164
_symmetry_cell_setting 'hexagonal'
loop_
_space_group_symop_operation_xyz
x,y,z
-y,x-y,z
-x+y,-x,z
x-y,-y,-z
-x,-x+y,-z
y,x,-z
-x,-y,-z
y,-x+y,-z
x-y,x,-z
-x+y,y,z
x,x-y,z
-y,-x,z
loop_
_atom_site_type_symbol
_atom_site_label
_atom_site_fract_x
_atom_site_fract_y
_atom_site_fract_z
Si Si1 0.000811 0.247808 0.556416
Si Si2 0.666496 0.580339 0.144102
Si Si3 0.913302 0.579378 0.647411
Si Si4 0.580475 0.914551 0.048199
Si Si5 0.580405 0.913402 0.237284
O O1 0.884882 0.115119 0.558704
O O2 0.989730 0.320696 0.602938
O O3 0.000000 0.296688 0.500000
O O4 0.120028 0.240056 0.561004
O O5 0.793353 0.586705 0.139296
O O6 0.557631 0.442370 0.142913
O O7 0.640368 0.646673 0.098233
O O8 0.653491 0.638193 0.196154
O O9 0.779552 0.559103 0.643336
O O10 0.910164 0.455082 0.641215
O O11 0.954003 0.622994 0.705005
O O12 0.441748 0.883495 0.047708
O O13 0.587817 0.793909 0.046991
O O14 0.643478 0.000000 0.000000
O O15 0.442758 0.885516 0.234358
O O16 0.584522 0.792261 0.227247
#
# Coordination Sequence:
#
# PCOD9578628 Si02
#       5
#    12  12  12  12  12
#     4   9  17  29  45  64  86 115 152 192 230 268
#     4  10  20  33  50  71  96 126 158 193 232 274
#     4   9  17  29  46  68  92 118 148 184 229 278
#     4  10  20  34  54  78 102 128 159 197 237 276
#     4   9  17  30  49  71  93 118 150 190 233 276
#
# _framework density 15.841606000000001
#
# number of rings (size 3 to 8) (size 9 to 14) (size 15 to 20)
#    0.000    2.600    0.000    2.200    0.000    3.600 
#    0.000    4.000    0.000    8.000    0.000    0.000 
#    0.000    0.000    0.000    0.000    0.000    0.000 
#
# Total GULP energy -334404.419669 kJ/mol
# GULP energy per Si atom -5573.406994 kJ/mol
# Density = 1.580555 g / cm^3
# Si number density = 15.841606 Si / 1000 Ang^3
#
#
#
# Elastic Constant Matrix: (Units=GPa)
#
#
# Indices 1 2 3 4 5 6 
#
# 1 87.3656 55.4091 69.8595 -2.0712 0.0000 0.0000
# 2 55.4091 87.3656 69.8595 2.0712 0.0000 0.0000
# 3 69.8595 69.8595 145.2583 0.0000 0.0000 0.0000
# 4 -2.0712 2.0712 0.0000 20.1863 0.0000 0.0000
# 5 0.0000 0.0000 0.0000 0.0000 20.1863 -2.0712
# 6 0.0000 0.0000 0.0000 0.0000 -2.0712 15.9782
#
#
#
# Elastic Compliance Matrix: (Units=1/GPa)
#
#
# Indices 1 2 3 4 5 6 
#
# 1 0.022473 -0.009242 -0.006363 0.003254 0.000000 0.000000
# 2 -0.009242 0.022473 -0.006363 -0.003254 0.000000 0.000000
# 3 -0.006363 -0.006363 0.013005 0.000000 0.000000 0.000000
# 4 0.003254 -0.003254 0.000000 0.050206 0.000000 0.000000
# 5 0.000000 0.000000 0.000000 0.000000 0.050206 0.006508
# 6 0.000000 0.000000 0.000000 0.000000 0.006508 0.063429
#
#
# Mechanical properties :
#
#
# Convention : Reuss Voigt Hill
#
# Bulk Modulus (GPa) = 71.35699 78.91619 75.13659
# Shear Modulus (GPa) = 18.49113 19.59424 19.04269
#
# Velocity S-wave (km/s) = 3.42021 3.52075 3.47085
# Velocity P-wave (km/s) = 7.79352 8.15178 7.97466
#
# Compressibility (1/GPa) = 0.01401404
#
# Stress axis : x y z
#
# Youngs Moduli (GPa) = 44.49830 44.49830 76.89392
#
# Poissons Ratio (x) = 0.41124 0.48930
# Poissons Ratio (y) = 0.41124 0.48930
# Poissons Ratio (z) = 0.28316 0.28316
#
# Static dielectric constant tensor:
#      x y z
#    x 1.496480 0.000000 0.000000 
#    y 0.000000 1.496480 0.000000 
#    z 0.000000 0.000000 1.555460 
# 
# From -- ./inp_files/5150.got.cif
#   From: 2010.05.17/outbox.cif.g08.bks.cpg/sg164_3_cif.got.tgz:5150.got - 2010.05.20 10:58:56.
