data_PCOD9578355
_publ_section_title
;
Structure prediction by ZEFSAII (Michael W. Deem and Ramdas Pophale) SiO2 
 PCOD9578355
Probable space group: P -3 M 1
;
_chemical_formula_sum "Si O2"
_cell_formula_units_Z 84
_cell_length_a 16.582469
_cell_length_b 16.582469
_cell_length_c 22.963719
_cell_angle_alpha 90.000000
_cell_angle_beta 90.000000
_cell_angle_gamma 120.000000
_cell_volume 5468.538119
_symmetry_space_group_name_H-M "P -3 M 1"
_symmetry_group_IT_number 164
_symmetry_cell_setting 'hexagonal'
loop_
_space_group_symop_operation_xyz
x,y,z
-y,x-y,z
-x+y,-x,z
x-y,-y,-z
-x,-x+y,-z
y,x,-z
-x,-y,-z
y,-x+y,-z
x-y,x,-z
-x+y,y,z
x,x-y,z
-y,-x,z
loop_
_atom_site_type_symbol
_atom_site_label
_atom_site_fract_x
_atom_site_fract_y
_atom_site_fract_z
Si Si1 0.851528 0.331782 0.342478
Si Si2 0.334564 0.855042 0.856455
Si Si3 0.980807 0.643541 0.244973
Si Si4 0.191810 0.000046 0.167927
Si Si5 0.680197 0.746187 0.945439
Si Si6 0.140555 0.667071 0.330185
Si Si7 0.406210 0.005184 0.565209
O O1 0.864613 0.432307 0.326053
O O2 0.744547 0.255454 0.347056
O O3 0.902042 0.302408 0.294558
O O4 0.906996 0.346051 0.402255
O O5 0.414411 0.828822 0.862290
O O6 0.235461 0.764540 0.839632
O O7 0.364566 0.935286 0.808024
O O8 0.315172 0.894692 0.915543
O O9 0.999277 0.740715 0.218564
O O10 0.072478 0.653839 0.275992
O O11 0.179953 0.089977 0.174803
O O12 0.246057 0.014126 0.106776
O O13 0.094229 0.905772 0.167885
O O14 0.689483 0.844742 0.962541
O O15 0.699525 0.699525 0.000000
O O16 0.153320 0.576660 0.332191
O O17 0.238243 0.761758 0.325817
O O18 0.084772 0.665542 0.389061
O O19 0.510156 0.020311 0.560185
O O20 0.369660 0.000000 0.500000
#
# Coordination Sequence:
#
# PCOD9578355 Si02
#       7
#    12  12  12  12  12  12  12
#     4  10  18  28  44  65  89 115 146 184 224 268
#     4  10  19  31  48  69  93 120 153 192 231 273
#     4  10  19  32  46  65  92 123 151 182 228 278
#     4  10  19  31  48  69  93 119 150 188 228 272
#     4   9  18  31  47  67  91 119 150 184 225 274
#     4  10  19  31  48  68  91 120 156 195 231 271
#     4   8  16  30  44  60  86 117 145 178 222 266
#
# _framework density 15.360595
#
# number of rings (size 3 to 8) (size 9 to 14) (size 15 to 20)
#    0.000    2.429    0.000    5.714    0.000    0.857 
#    0.000    1.429    0.000    4.000    0.000    0.000 
#    0.000    9.143    0.000    0.000    0.000   48.714 
#
# Total GULP energy -467935.288863 kJ/mol
# GULP energy per Si atom -5570.658201 kJ/mol
# Density = 1.532563 g / cm^3
# Si number density = 15.360595 Si / 1000 Ang^3
#
#
#
# Elastic Constant Matrix: (Units=GPa)
#
#
# Indices 1 2 3 4 5 6 
#
# 1 83.1680 30.0988 37.7959 0.1826 0.0000 0.0000
# 2 30.0988 83.1680 37.7959 -0.1826 0.0000 0.0000
# 3 37.7959 37.7959 88.7468 0.0000 0.0000 0.0000
# 4 0.1826 -0.1826 0.0000 11.9331 0.0000 0.0000
# 5 0.0000 0.0000 0.0000 0.0000 11.9331 0.1826
# 6 0.0000 0.0000 0.0000 0.0000 0.1826 26.5346
#
#
#
# Elastic Compliance Matrix: (Units=1/GPa)
#
#
# Indices 1 2 3 4 5 6 
#
# 1 0.015590 -0.003255 -0.005253 -0.000288 0.000000 0.000000
# 2 -0.003255 0.015590 -0.005253 0.000288 0.000000 0.000000
# 3 -0.005253 -0.005253 0.015742 0.000000 0.000000 0.000000
# 4 -0.000288 0.000288 0.000000 0.083810 0.000000 0.000000
# 5 0.000000 0.000000 0.000000 0.000000 0.083810 -0.000577
# 6 0.000000 0.000000 0.000000 0.000000 -0.000577 0.037691
#
#
# Mechanical properties :
#
#
# Convention : Reuss Voigt Hill
#
# Bulk Modulus (GPa) = 51.54873 51.82934 51.68903
# Shear Modulus (GPa) = 17.46899 20.03963 18.75431
#
# Velocity S-wave (km/s) = 3.37599 3.61586 3.49798
# Velocity P-wave (km/s) = 6.98773 7.15874 7.07375
#
# Compressibility (1/GPa) = 0.01939912
#
# Stress axis : x y z
#
# Youngs Moduli (GPa) = 64.14407 64.14407 63.52265
#
# Poissons Ratio (x) = 0.20881 0.33369
# Poissons Ratio (y) = 0.20881 0.33369
# Poissons Ratio (z) = 0.33695 0.33695
#
# Static dielectric constant tensor:
#      x y z
#    x 1.501240 0.000000 0.000000 
#    y 0.000000 1.501240 0.000000 
#    z 0.000000 0.000000 1.515390 
# 
# From -- ./inp_files/4620.got.cif
#   From: 2010.05.17/outbox.cif.g08.bks.cpg/sg164_3_cif.got.tgz:4620.got - 2010.05.20 10:58:56.
