data_PCOD9578428
_publ_section_title
;
Structure prediction by ZEFSAII (Michael W. Deem and Ramdas Pophale) SiO2 
 PCOD9578428
Probable space group: P -3 M 1
;
_chemical_formula_sum "Si O2"
_cell_formula_units_Z 84
_cell_length_a 20.543990
_cell_length_b 20.543990
_cell_length_c 13.281348
_cell_angle_alpha 90.000000
_cell_angle_beta 90.000000
_cell_angle_gamma 120.000000
_cell_volume 4854.476220
_symmetry_space_group_name_H-M "P -3 M 1"
_symmetry_group_IT_number 164
_symmetry_cell_setting 'hexagonal'
loop_
_space_group_symop_operation_xyz
x,y,z
-y,x-y,z
-x+y,-x,z
x-y,-y,-z
-x,-x+y,-z
y,x,-z
-x,-y,-z
y,-x+y,-z
x-y,x,-z
-x+y,y,z
x,x-y,z
-y,-x,z
loop_
_atom_site_type_symbol
_atom_site_label
_atom_site_fract_x
_atom_site_fract_y
_atom_site_fract_z
Si Si1 0.291912 0.986689 0.379866
Si Si2 0.487985 0.822307 0.109298
Si Si3 0.150792 0.000426 0.377493
Si Si4 0.853833 0.295693 0.687068
Si Si5 0.538438 0.609381 0.695179
Si Si6 0.485861 0.819964 0.883106
Si Si7 0.335924 0.814477 0.509444
O O1 0.256637 0.900143 0.349289
O O2 0.304631 0.000000 0.500000
O O3 0.232216 0.011880 0.348374
O O4 0.373138 0.020940 0.326603
O O5 0.407289 0.814578 0.126380
O O6 0.480029 0.740015 0.108945
O O7 0.540993 0.870702 0.201284
O O8 0.513433 0.851326 0.995768
O O9 0.141945 0.070973 0.345072
O O10 0.150382 0.000000 0.500000
O O11 0.079374 0.920627 0.345713
O O12 0.766562 0.233439 0.691401
O O13 0.859717 0.348446 0.594444
O O14 0.481534 0.518467 0.697025
O O15 0.524531 0.642040 0.797786
O O16 0.509293 0.639127 0.602980
O O17 0.397370 0.794740 0.880669
O O18 0.495472 0.747736 0.865425
O O19 0.389394 0.778788 0.507304
O O20 0.249744 0.750257 0.519875
#
# Coordination Sequence:
#
# PCOD9578428 Si02
#       7
#    12  12  12  12  12  12  12
#     4  11  21  35  51  72  98 139 178 211 250 314
#     4   9  17  30  50  73  97 128 169 218 267 309
#     4   9  18  32  53  79 106 133 165 210 268 334
#     4  10  20  33  49  70  97 127 163 207 252 298
#     4  10  21  33  46  68  99 137 180 220 256 298
#     4   9  17  31  50  72  97 128 169 217 267 311
#     4  10  19  30  45  66  94 127 165 210 256 294
#
# _framework density 17.303616999999999
#
# number of rings (size 3 to 8) (size 9 to 14) (size 15 to 20)
#    0.000    2.286    1.429    1.857    0.000    4.857 
#    0.000    3.571    0.000    2.571    0.000    0.000 
#    0.000    0.000    0.000    0.857    0.000   20.000 
#
# Total GULP energy -467622.024245 kJ/mol
# GULP energy per Si atom -5566.928860 kJ/mol
# Density = 1.726423 g / cm^3
# Si number density = 17.303617 Si / 1000 Ang^3
#
#
#
# Elastic Constant Matrix: (Units=GPa)
#
#
# Indices 1 2 3 4 5 6 
#
# 1 67.3900 29.7181 28.1726 -5.3764 0.0000 0.0000
# 2 29.7181 67.3900 28.1726 5.3764 0.0000 0.0000
# 3 28.1726 28.1726 108.0127 0.0000 0.0000 0.0000
# 4 -5.3764 5.3764 0.0000 4.2238 0.0000 0.0000
# 5 0.0000 0.0000 0.0000 0.0000 4.2238 -5.3764
# 6 0.0000 0.0000 0.0000 0.0000 -5.3764 18.8359
#
#
#
# Elastic Compliance Matrix: (Units=1/GPa)
#
#
# Indices 1 2 3 4 5 6 
#
# 1 0.026914 -0.014780 -0.003165 0.053071 0.000000 0.000000
# 2 -0.014780 0.026914 -0.003165 -0.053071 0.000000 0.000000
# 3 -0.003165 -0.003165 0.010909 0.000000 0.000000 0.000000
# 4 0.053071 -0.053071 0.000000 0.371862 0.000000 0.000000
# 5 0.000000 0.000000 0.000000 0.000000 0.371862 0.106142
# 6 0.000000 0.000000 0.000000 0.000000 0.106142 0.083387
#
#
# Mechanical properties :
#
#
# Convention : Reuss Voigt Hill
#
# Bulk Modulus (GPa) = 44.40919 46.10213 45.25566
# Shear Modulus (GPa) = 5.31027 15.90532 10.60780
#
# Velocity S-wave (km/s) = 1.75372 3.03510 2.47865
# Velocity P-wave (km/s) = 5.46087 6.24367 5.86534
#
# Compressibility (1/GPa) = 0.02251786
#
# Stress axis : x y z
#
# Youngs Moduli (GPa) = 37.15575 37.15575 91.66612
#
# Poissons Ratio (x) = 0.54915 0.29012
# Poissons Ratio (y) = 0.54915 0.29012
# Poissons Ratio (z) = 0.11759 0.11759
#
# Static dielectric constant tensor:
#      x y z
#    x 1.613670 0.000000 0.000000 
#    y 0.000000 1.613670 0.000000 
#    z 0.000000 0.000000 1.596070 
# 
# From -- ./inp_files/2909.got.cif
#   From: 2010.05.17/outbox.cif.g08.bks.cpg/sg164_2_cif.got.tgz:2909.got - 2010.05.20 10:58:56.
