data_PCOD9578117
_publ_section_title
;
Structure prediction by ZEFSAII (Michael W. Deem and Ramdas Pophale) SiO2 
 PCOD9578117
Probable space group: P -3 1 C
;
_chemical_formula_sum "Si O2"
_cell_formula_units_Z 42
_cell_length_a 11.005385
_cell_length_b 11.005385
_cell_length_c 18.821764
_cell_angle_alpha 90.000000
_cell_angle_beta 90.000000
_cell_angle_gamma 120.000000
_cell_volume 1974.246767
_symmetry_space_group_name_H-M "P -3 1 C"
_symmetry_group_IT_number 163
_symmetry_cell_setting 'hexagonal'
loop_
_space_group_symop_operation_xyz
x,y,z
-y,x-y,z
-x+y,-x,z
-y,-x,1/2-z
-x+y,y,1/2-z
x,x-y,1/2-z
-x,-y,-z
y,-x+y,-z
x-y,x,-z
y,x,1/2+z
x-y,-y,1/2+z
-x,-x+y,1/2+z
loop_
_atom_site_type_symbol
_atom_site_label
_atom_site_fract_x
_atom_site_fract_y
_atom_site_fract_z
Si Si1 0.831971 0.168030 0.750000
Si Si2 0.026318 0.296974 0.498572
Si Si3 0.390779 0.409435 0.653033
Si Si4 0.367522 0.282731 0.341136
O O1 0.881122 0.297028 0.804232
O O2 0.967438 0.225998 0.697936
O O3 0.152861 0.267972 0.485097
O O4 0.066246 0.370906 0.574144
O O5 0.007712 0.376972 0.431174
O O6 0.504366 0.564538 0.676806
O O7 0.237227 0.386807 0.671825
#
# Coordination Sequence:
#
# PCOD9578117 Si02
#       4
#     6  12  12  12
#     4  12  24  44  62 102 136 172 220 276 336 402
#     4  10  20  40  66 100 136 177 225 276 338 404
#     4  11  24  45  70 100 135 178 226 280 338 406
#     4  11  24  45  70 100 135 178 226 280 338 406
#
# _framework density 21.273935999999999
#
# number of rings (size 3 to 8) (size 9 to 14) (size 15 to 20)
#    0.000    1.143    2.857    3.429    0.000    0.000 
#   13.714    2.857    0.000    0.000    0.000    0.000 
#    0.000    0.000    0.000    0.000    0.000    0.000 
#
# Total GULP energy -234160.339491 kJ/mol
# GULP energy per Si atom -5575.246178 kJ/mol
# Density = 2.122552 g / cm^3
# Si number density = 21.273936 Si / 1000 Ang^3
#
#
#
# Elastic Constant Matrix: (Units=GPa)
#
#
# Indices 1 2 3 4 5 6 
#
# 1 -15.3441 169.3790 23.6248 0.0006 119.1726 0.0000
# 2 169.3790 -15.3441 23.6248 -0.0006 -119.1726 0.0000
# 3 23.6248 23.6248 114.6661 0.0000 0.0000 0.0000
# 4 0.0006 -0.0006 0.0000 -94.1022 0.0000 -119.1726
# 5 119.1726 -119.1726 0.0000 0.0000 -94.1022 0.0006
# 6 0.0000 0.0000 0.0000 -119.1726 0.0006 -92.3615
#
#
#
# Elastic Compliance Matrix: (Units=1/GPa)
#
#
# Indices 1 2 3 4 5 6 
#
# 1 0.007734 -0.000804 -0.001428 0.000000 0.010813 0.000000
# 2 -0.000804 0.007734 -0.001428 0.000000 -0.010813 0.000000
# 3 -0.001428 -0.001428 0.009309 0.000000 0.000000 0.000000
# 4 0.000000 0.000000 0.000000 0.016760 0.000000 -0.021626
# 5 0.010813 -0.010813 0.000000 0.000000 0.016760 0.000000
# 6 0.000000 0.000000 0.000000 -0.021626 0.000000 0.017076
#
#
# Mechanical properties :
#
#
# Convention : Reuss Voigt Hill
#
# Bulk Modulus (GPa) = 57.27988 57.47057 57.37522
# Shear Modulus (GPa) = 56.48863 -64.95658 -4.23397
#
# Velocity S-wave (km/s) = 5.15855 -5.53170 -1.41228
# Velocity P-wave (km/s) = 7.90343 3.70492 4.93649
#
# Compressibility (1/GPa) = 0.01745814
#
# Stress axis : x y z
#
# Youngs Moduli (GPa) = 129.29783 129.29783 107.41926
#
# Poissons Ratio (x) = 0.10396 0.15337
# Poissons Ratio (y) = 0.10396 0.15337
# Poissons Ratio (z) = 0.18461 0.18461
#
# Static dielectric constant tensor:
#      x y z
#    x 1.779620 0.000000 0.000000 
#    y 0.000000 1.779620 0.000000 
#    z 0.000000 0.000000 2.888960 
# 
# From -- ./inp_files/2901.got.cif
#   From: 2010.05.17/outbox.cif.g08.bks.cpg/sg163_2_cif.got.tgz:2901.got - 2010.05.20 10:56:03.
