data_PCOD9578567
_publ_section_title
;
Structure prediction by ZEFSAII (Michael W. Deem and Ramdas Pophale) SiO2 
 PCOD9578567
Probable space group: P -3 M 1
;
_chemical_formula_sum "Si O2"
_cell_formula_units_Z 54
_cell_length_a 12.878938
_cell_length_b 12.878938
_cell_length_c 23.875180
_cell_angle_alpha 90.000000
_cell_angle_beta 90.000000
_cell_angle_gamma 120.000000
_cell_volume 3429.551992
_symmetry_space_group_name_H-M "P -3 M 1"
_symmetry_group_IT_number 164
_symmetry_cell_setting 'hexagonal'
loop_
_space_group_symop_operation_xyz
x,y,z
-y,x-y,z
-x+y,-x,z
x-y,-y,-z
-x,-x+y,-z
y,x,-z
-x,-y,-z
y,-x+y,-z
x-y,x,-z
-x+y,y,z
x,x-y,z
-y,-x,z
loop_
_atom_site_type_symbol
_atom_site_label
_atom_site_fract_x
_atom_site_fract_y
_atom_site_fract_z
Si Si1 0.245095 0.999815 0.936016
Si Si2 0.247204 0.247204 0.500000
Si Si3 0.999849 0.751362 0.377230
Si Si4 0.333587 0.420096 0.166759
Si Si5 0.914275 0.580584 0.272403
O O1 0.214240 0.107120 0.933080
O O2 0.345700 0.028907 0.889934
O O3 0.126611 0.873390 0.925018
O O4 0.285479 0.000000 0.000000
O O5 0.233689 0.116844 0.502095
O O6 0.302366 0.299700 0.439231
O O7 0.888704 0.777407 0.375838
O O8 0.976655 0.659550 0.327488
O O9 0.125195 0.874806 0.370275
O O10 0.212411 0.424822 0.175598
O O11 0.447524 0.552477 0.162467
O O12 0.357150 0.355017 0.218657
O O13 0.786587 0.573174 0.265693
O O14 0.898391 0.449196 0.277899
#
# Coordination Sequence:
#
# PCOD9578567 Si02
#       5
#    12   6  12  12  12
#     4   9  17  30  49  72  96 121 149 182 220 261
#     4   8  13  22  39  64  92 118 142 172 214 264
#     4   9  16  27  45  69  94 117 143 178 222 268
#     4  10  20  33  49  68  91 119 150 185 224 266
#     4  10  20  33  48  65  87 117 152 188 224 263
#
# _framework density 15.745498
#
# number of rings (size 3 to 8) (size 9 to 14) (size 15 to 20)
#    0.000    2.667    0.000    2.333    0.000    3.111 
#    0.000    0.556    0.000    8.000    0.000    0.000 
#    0.000    0.000    0.000    0.000    0.000    0.000 
#
# Total GULP energy -300768.640001 kJ/mol
# GULP energy per Si atom -5569.789630 kJ/mol
# Density = 1.570966 g / cm^3
# Si number density = 15.745498 Si / 1000 Ang^3
#
#
#
# Elastic Constant Matrix: (Units=GPa)
#
#
# Indices 1 2 3 4 5 6 
#
# 1 84.0731 52.8186 79.7662 -0.0633 0.0000 0.0000
# 2 52.8186 84.0731 79.7662 0.0633 0.0000 0.0000
# 3 79.7662 79.7662 161.5608 0.0000 0.0000 0.0000
# 4 -0.0633 0.0633 0.0000 23.0437 0.0000 0.0000
# 5 0.0000 0.0000 0.0000 0.0000 23.0437 -0.0633
# 6 0.0000 0.0000 0.0000 0.0000 -0.0633 15.6272
#
#
#
# Elastic Compliance Matrix: (Units=1/GPa)
#
#
# Indices 1 2 3 4 5 6 
#
# 1 0.024600 -0.007396 -0.008494 0.000088 0.000000 0.000000
# 2 -0.007396 0.024600 -0.008494 -0.000088 0.000000 0.000000
# 3 -0.008494 -0.008494 0.014577 0.000000 0.000000 0.000000
# 4 0.000088 -0.000088 0.000000 0.043396 0.000000 0.000000
# 5 0.000000 0.000000 0.000000 0.000000 0.043396 0.000176
# 6 0.000000 0.000000 0.000000 0.000000 0.000176 0.063992
#
#
# Mechanical properties :
#
#
# Convention : Reuss Voigt Hill
#
# Bulk Modulus (GPa) = 66.62743 83.82323 75.22533
# Shear Modulus (GPa) = 18.63370 20.16665 19.40018
#
# Velocity S-wave (km/s) = 3.44383 3.58269 3.51395
# Velocity P-wave (km/s) = 7.63023 8.39441 8.02143
#
# Compressibility (1/GPa) = 0.01500883
#
# Stress axis : x y z
#
# Youngs Moduli (GPa) = 40.65080 40.65080 68.60184
#
# Poissons Ratio (x) = 0.30065 0.58270
# Poissons Ratio (y) = 0.30065 0.58270
# Poissons Ratio (z) = 0.34528 0.34528
#
# Static dielectric constant tensor:
#      x y z
#    x 1.493760 0.000000 0.000000 
#    y 0.000000 1.493760 0.000000 
#    z 0.000000 0.000000 1.548350 
# 
# From -- ./inp_files/4857.got.cif
#   From: 2010.05.17/outbox.cif.g08.bks.cpg/sg164_3_cif.got.tgz:4857.got - 2010.05.20 10:58:56.
