data_PCOD9578574
_publ_section_title
;
Structure prediction by ZEFSAII (Michael W. Deem and Ramdas Pophale) SiO2 
 PCOD9578574
Probable space group: P -3 M 1
;
_chemical_formula_sum "Si O2"
_cell_formula_units_Z 66
_cell_length_a 12.696333
_cell_length_b 12.696333
_cell_length_c 29.139687
_cell_angle_alpha 90.000000
_cell_angle_beta 90.000000
_cell_angle_gamma 120.000000
_cell_volume 4067.917377
_symmetry_space_group_name_H-M "P -3 M 1"
_symmetry_group_IT_number 164
_symmetry_cell_setting 'hexagonal'
loop_
_space_group_symop_operation_xyz
x,y,z
-y,x-y,z
-x+y,-x,z
x-y,-y,-z
-x,-x+y,-z
y,x,-z
-x,-y,-z
y,-x+y,-z
x-y,x,-z
-x+y,y,z
x,x-y,z
-y,-x,z
loop_
_atom_site_type_symbol
_atom_site_label
_atom_site_fract_x
_atom_site_fract_y
_atom_site_fract_z
Si Si1 0.416575 0.082802 0.455729
Si Si2 0.749099 0.749099 0.000000
Si Si3 0.916858 0.333450 0.188058
Si Si4 0.083000 0.666827 0.366497
Si Si5 0.749905 0.749665 0.722934
Si Si6 0.252504 0.252437 0.899455
O O1 0.556407 0.112814 0.457281
O O2 0.410057 0.205029 0.455866
O O3 0.351479 0.000000 0.500000
O O4 0.357856 0.004010 0.410030
O O5 0.695716 0.693158 0.049776
O O6 0.881449 0.762897 0.998547
O O7 0.920931 0.460466 0.191436
O O8 0.778138 0.221863 0.186877
O O9 0.980454 0.323372 0.141801
O O10 0.979154 0.310061 0.231937
O O11 0.097609 0.548805 0.360895
O O12 0.213361 0.786640 0.374184
O O13 0.025105 0.689319 0.321106
O O14 0.882795 0.765589 0.729130
O O15 0.759144 0.879572 0.716013
O O16 0.114253 0.228505 0.897619
O O17 0.251402 0.125701 0.894290
#
# Coordination Sequence:
#
# PCOD9578574 Si02
#       6
#    12   6  12  12  12  12
#     4  10  20  34  53  76 102 132 167 208 252 296
#     4   8  13  22  39  66  96 122 148 182 230 284
#     4  10  20  33  48  66  90 122 160 199 237 278
#     4  10  20  34  53  76 103 135 169 203 238 281
#     4  10  20  34  53  76 101 127 156 194 241 291
#     4   9  16  27  46  71  97 122 150 189 237 287
#
# _framework density 16.224518
#
# number of rings (size 3 to 8) (size 9 to 14) (size 15 to 20)
#    0.000    2.364    0.000    3.182    0.000    1.455 
#    0.000    4.091    0.000   14.182    0.000    0.000 
#    0.000    0.000    0.000    0.000    0.000    0.000 
#
# Total GULP energy -367987.369169 kJ/mol
# GULP energy per Si atom -5575.566200 kJ/mol
# Density = 1.618759 g / cm^3
# Si number density = 16.224518 Si / 1000 Ang^3
#
#
#
# Elastic Constant Matrix: (Units=GPa)
#
#
# Indices 1 2 3 4 5 6 
#
# 1 111.7879 76.1234 87.2534 2.5996 0.0000 0.0000
# 2 76.1234 111.7879 87.2534 -2.5996 0.0000 0.0000
# 3 87.2534 87.2534 163.2361 0.0000 0.0000 0.0000
# 4 2.5996 -2.5996 0.0000 20.1367 0.0000 0.0000
# 5 0.0000 0.0000 0.0000 0.0000 20.1367 2.5996
# 6 0.0000 0.0000 0.0000 0.0000 2.5996 17.8322
#
#
#
# Elastic Compliance Matrix: (Units=1/GPa)
#
#
# Indices 1 2 3 4 5 6 
#
# 1 0.019572 -0.009005 -0.005648 -0.003689 0.000000 0.000000
# 2 -0.009005 0.019572 -0.005648 0.003689 0.000000 0.000000
# 3 -0.005648 -0.005648 0.012164 0.000000 0.000000 0.000000
# 4 -0.003689 0.003689 0.000000 0.050613 0.000000 0.000000
# 5 0.000000 0.000000 0.000000 0.000000 0.050613 -0.007378
# 6 0.000000 0.000000 0.000000 0.000000 -0.007378 0.057154
#
#
# Mechanical properties :
#
#
# Convention : Reuss Voigt Hill
#
# Bulk Modulus (GPa) = 93.41237 98.67468 96.04353
# Shear Modulus (GPa) = 19.69588 20.69990 20.19789
#
# Velocity S-wave (km/s) = 3.48797 3.57577 3.53214
# Velocity P-wave (km/s) = 8.59774 8.83167 8.71549
#
# Compressibility (1/GPa) = 0.01070522
#
# Stress axis : x y z
#
# Youngs Moduli (GPa) = 51.09337 51.09337 82.20681
#
# Poissons Ratio (x) = 0.46009 0.46433
# Poissons Ratio (y) = 0.46009 0.46433
# Poissons Ratio (z) = 0.28859 0.28859
#
# Static dielectric constant tensor:
#      x y z
#    x 1.509310 0.000000 0.000000 
#    y 0.000000 1.509310 0.000000 
#    z 0.000000 0.000000 1.559300 
# 
# From -- ./inp_files/5519.got.cif
#   From: 2010.05.17/outbox.cif.g08.bks.cpg/sg164_3_cif.got.tgz:5519.got - 2010.05.20 10:58:56.
