data_PCOD9578408
_publ_section_title
;
Structure prediction by ZEFSAII (Michael W. Deem and Ramdas Pophale) SiO2 
 PCOD9578408
Probable space group: P -3 M 1
;
_chemical_formula_sum "Si O2"
_cell_formula_units_Z 90
_cell_length_a 27.360219
_cell_length_b 27.360219
_cell_length_c 9.029653
_cell_angle_alpha 90.000000
_cell_angle_beta 90.000000
_cell_angle_gamma 120.000000
_cell_volume 5853.839778
_symmetry_space_group_name_H-M "P -3 M 1"
_symmetry_group_IT_number 164
_symmetry_cell_setting 'hexagonal'
loop_
_space_group_symop_operation_xyz
x,y,z
-y,x-y,z
-x+y,-x,z
x-y,-y,-z
-x,-x+y,-z
y,x,-z
-x,-y,-z
y,-x+y,-z
x-y,x,-z
-x+y,y,z
x,x-y,z
-y,-x,z
loop_
_atom_site_type_symbol
_atom_site_label
_atom_site_fract_x
_atom_site_fract_y
_atom_site_fract_z
Si Si1 0.932013 0.522757 0.010498
Si Si2 0.440134 0.275779 0.509921
Si Si3 0.010395 0.271206 0.830127
Si Si4 0.589454 0.589454 0.500000
Si Si5 0.322141 0.400688 0.744349
Si Si6 0.497597 0.106403 0.677118
Si Si7 0.104386 0.786309 0.342110
Si Si8 0.221115 0.054377 0.411017
O O1 0.917854 0.458927 0.048280
O O2 0.915282 0.553904 0.133384
O O3 0.906117 0.521245 0.848851
O O4 0.000000 0.559248 0.000000
O O5 0.459965 0.229983 0.505415
O O6 0.423814 0.287585 0.347411
O O7 0.481688 0.333640 0.593368
O O8 0.381726 0.248658 0.601734
O O9 0.052741 0.338268 0.812011
O O10 0.034986 0.238035 0.738153
O O11 0.949039 0.251792 0.759593
O O12 0.000000 0.254619 0.000000
O O13 0.638300 0.604905 0.380165
O O14 0.582917 0.536055 0.589662
O O15 0.563263 0.126526 0.671479
O O16 0.154489 0.845512 0.276484
O O17 0.080076 0.803530 0.483597
O O18 0.205906 0.102953 0.388079
O O19 0.174626 0.000000 0.500000
#
# Coordination Sequence:
#
# PCOD9578408 Si02
#       8
#    12  12  12   6  12  12  12  12
#     4  10  20  33  47  72 109 139 163 199 248 306
#     4  10  21  36  52  70  97 132 172 214 253 293
#     4  11  21  28  46  72 101 134 172 206 246 293
#     4  10  19  28  48  72 100 132 168 200 247 296
#     4  11  20  30  47  69 101 136 173 203 247 298
#     4  10  20  33  52  75 101 131 166 207 254 305
#     4   9  18  34  48  65  93 133 171 207 248 290
#     4   9  18  34  54  72  97 132 171 210 248 293
#
# _framework density 15.374523999999999
#
# number of rings (size 3 to 8) (size 9 to 14) (size 15 to 20)
#    0.000    2.000    2.667    2.200    2.800    2.667 
#    0.000    0.667    0.000    0.400    0.000    0.000 
#    0.000    1.600    0.000    0.000    0.000    0.000 
#
# Total GULP energy -501883.465810 kJ/mol
# GULP energy per Si atom -5576.482953 kJ/mol
# Density = 1.533953 g / cm^3
# Si number density = 15.374524 Si / 1000 Ang^3
#
#
#
# Elastic Constant Matrix: (Units=GPa)
#
#
# Indices 1 2 3 4 5 6 
#
# 1 76.9058 49.3682 47.7344 1.3178 0.0000 0.0000
# 2 49.3682 76.9058 47.7344 -1.3178 0.0000 0.0000
# 3 47.7344 47.7344 105.0213 0.0000 0.0000 0.0000
# 4 1.3178 -1.3178 0.0000 12.2717 0.0000 0.0000
# 5 0.0000 0.0000 0.0000 0.0000 12.2717 1.3178
# 6 0.0000 0.0000 0.0000 0.0000 1.3178 13.7688
#
#
#
# Elastic Compliance Matrix: (Units=1/GPa)
#
#
# Indices 1 2 3 4 5 6 
#
# 1 0.024378 -0.012313 -0.005484 -0.003940 0.000000 0.000000
# 2 -0.012313 0.024378 -0.005484 0.003940 0.000000 0.000000
# 3 -0.005484 -0.005484 0.014507 0.000000 0.000000 0.000000
# 4 -0.003940 0.003940 0.000000 0.082334 0.000000 0.000000
# 5 0.000000 0.000000 0.000000 0.000000 0.082334 -0.007880
# 6 0.000000 0.000000 0.000000 0.000000 -0.007880 0.073382
#
#
# Mechanical properties :
#
#
# Convention : Reuss Voigt Hill
#
# Bulk Modulus (GPa) = 59.87325 60.94520 60.40923
# Shear Modulus (GPa) = 14.14654 15.26219 14.70436
#
# Velocity S-wave (km/s) = 3.03665 3.15412 3.09594
# Velocity P-wave (km/s) = 7.16399 7.27950 7.22197
#
# Compressibility (1/GPa) = 0.01670195
#
# Stress axis : x y z
#
# Youngs Moduli (GPa) = 41.02019 41.02019 68.93204
#
# Poissons Ratio (x) = 0.50507 0.37802
# Poissons Ratio (y) = 0.50507 0.37802
# Poissons Ratio (z) = 0.22495 0.22495
#
# Static dielectric constant tensor:
#      x y z
#    x 1.508160 0.000000 0.000000 
#    y 0.000000 1.508160 0.000000 
#    z 0.000000 0.000000 1.516040 
# 
# From -- ./inp_files/2163.got.cif
#   From: 2010.05.17/outbox.cif.g08.bks.cpg/sg164_2_cif.got.tgz:2163.got - 2010.05.20 10:58:56.
