data_PCOD9578663
_publ_section_title
;
Structure prediction by ZEFSAII (Michael W. Deem and Ramdas Pophale) SiO2 
 PCOD9578663
Probable space group: P -3 M 1
;
_chemical_formula_sum "Si O2"
_cell_formula_units_Z 66
_cell_length_a 12.639285
_cell_length_b 12.639285
_cell_length_c 28.791286
_cell_angle_alpha 90.000000
_cell_angle_beta 90.000000
_cell_angle_gamma 120.000000
_cell_volume 3983.242149
_symmetry_space_group_name_H-M "P -3 M 1"
_symmetry_group_IT_number 164
_symmetry_cell_setting 'hexagonal'
loop_
_space_group_symop_operation_xyz
x,y,z
-y,x-y,z
-x+y,-x,z
x-y,-y,-z
-x,-x+y,-z
y,x,-z
-x,-y,-z
y,-x+y,-z
x-y,x,-z
-x+y,y,z
x,x-y,z
-y,-x,z
loop_
_atom_site_type_symbol
_atom_site_label
_atom_site_fract_x
_atom_site_fract_y
_atom_site_fract_z
Si Si1 0.000099 0.748352 0.363286
Si Si2 0.667199 0.082382 0.091177
Si Si3 0.251842 0.000248 0.181771
Si Si4 0.000000 0.748274 0.000000
Si Si5 0.667089 0.082266 0.272398
Si Si6 0.081710 0.414957 0.454475
O O1 0.120753 0.879248 0.356124
O O2 0.020600 0.689490 0.409445
O O3 0.881658 0.763316 0.368415
O O4 0.976913 0.662246 0.318963
O O5 0.537495 0.074989 0.091097
O O6 0.776931 0.223070 0.092427
O O7 0.685295 0.018463 0.136374
O O8 0.687842 0.023010 0.045136
O O9 0.222866 0.111433 0.181573
O O10 0.331248 0.017805 0.227679
O O11 0.128190 0.871811 0.181459
O O12 0.880631 0.761262 0.993473
O O13 0.537777 0.075554 0.271459
O O14 0.777253 0.222748 0.271271
O O15 0.214397 0.428793 0.460481
O O16 0.092469 0.546235 0.448052
O O17 0.000000 0.354155 0.500000
#
# Coordination Sequence:
#
# PCOD9578663 Si02
#       6
#    12  12  12   6  12  12
#     4  10  20  34  53  76 102 132 166 206 251 299
#     4  10  20  34  53  76 103 135 170 208 250 298
#     4  10  20  34  54  78 104 134 168 209 254 300
#     4  10  20  34  54  78 104 134 168 210 256 302
#     4  10  20  34  53  76 102 132 166 205 248 295
#     4  10  20  34  52  74 101 133 169 208 251 299
#
# _framework density 16.569417000000001
#
# number of rings (size 3 to 8) (size 9 to 14) (size 15 to 20)
#    0.000    2.000    0.000    4.000    0.000    0.000 
#    0.000    5.455    0.000   21.091    0.000    0.000 
#    0.000    0.000    0.000    0.000    0.000    0.000 
#
# Total GULP energy -368536.673558 kJ/mol
# GULP energy per Si atom -5583.888993 kJ/mol
# Density = 1.653170 g / cm^3
# Si number density = 16.569417 Si / 1000 Ang^3
#
#
#
# Elastic Constant Matrix: (Units=GPa)
#
#
# Indices 1 2 3 4 5 6 
#
# 1 148.8865 110.4805 103.7779 1.5366 0.0000 0.0000
# 2 110.4805 148.8865 103.7779 -1.5366 0.0000 0.0000
# 3 103.7779 103.7779 165.7238 0.0000 0.0000 0.0000
# 4 1.5366 -1.5366 0.0000 19.3976 0.0000 0.0000
# 5 0.0000 0.0000 0.0000 0.0000 19.3976 1.5366
# 6 0.0000 0.0000 0.0000 0.0000 1.5366 19.2030
#
#
#
# Elastic Compliance Matrix: (Units=1/GPa)
#
#
# Indices 1 2 3 4 5 6 
#
# 1 0.016966 -0.009238 -0.004840 -0.002076 0.000000 0.000000
# 2 -0.009238 0.016966 -0.004840 0.002076 0.000000 0.000000
# 3 -0.004840 -0.004840 0.012095 0.000000 0.000000 0.000000
# 4 -0.002076 0.002076 0.000000 0.051882 0.000000 0.000000
# 5 0.000000 0.000000 0.000000 0.000000 0.051882 -0.004151
# 6 0.000000 0.000000 0.000000 0.000000 -0.004151 0.052407
#
#
# Mechanical properties :
#
#
# Convention : Reuss Voigt Hill
#
# Bulk Modulus (GPa) = 122.04447 122.17438 122.10942
# Shear Modulus (GPa) = 20.59623 21.29701 20.94662
#
# Velocity S-wave (km/s) = 3.52948 3.58903 3.55938
# Velocity P-wave (km/s) = 9.50926 9.54305 9.52617
#
# Compressibility (1/GPa) = 0.00819373
#
# Stress axis : x y z
#
# Youngs Moduli (GPa) = 58.94131 58.94131 82.67656
#
# Poissons Ratio (x) = 0.54448 0.40012
# Poissons Ratio (y) = 0.54448 0.40012
# Poissons Ratio (z) = 0.28525 0.28525
#
# Static dielectric constant tensor:
#      x y z
#    x 1.523220 0.000000 0.000000 
#    y 0.000000 1.523220 0.000000 
#    z 0.000000 0.000000 1.541160 
# 
# From -- ./inp_files/5418.got.cif
#   From: 2010.05.17/outbox.cif.g08.bks.cpg/sg164_3_cif.got.tgz:5418.got - 2010.05.20 10:58:56.
