data_PCOD9578838
_publ_section_title
;
Structure prediction by ZEFSAII (Michael W. Deem and Ramdas Pophale) SiO2 
 PCOD9578838
Probable space group: P -3 C 1
;
_chemical_formula_sum "Si O2"
_cell_formula_units_Z 60
_cell_length_a 16.555133
_cell_length_b 16.555133
_cell_length_c 14.323862
_cell_angle_alpha 90.000000
_cell_angle_beta 90.000000
_cell_angle_gamma 120.000000
_cell_volume 3399.821439
_symmetry_space_group_name_H-M "P -3 C 1"
_symmetry_group_IT_number 165
_symmetry_cell_setting 'hexagonal'
loop_
_space_group_symop_operation_xyz
x,y,z
-y,x-y,z
-x+y,-x,z
x-y,-y,1/2-z
-x,-x+y,1/2-z
y,x,1/2-z
-x,-y,-z
y,-x+y,-z
x-y,x,-z
-x+y,y,1/2+z
x,x-y,1/2+z
-y,-x,1/2+z
loop_
_atom_site_type_symbol
_atom_site_label
_atom_site_fract_x
_atom_site_fract_y
_atom_site_fract_z
Si Si1 0.298353 0.399648 0.283213
Si Si2 0.489720 0.597404 0.274256
Si Si3 0.543801 0.794172 0.631443
Si Si4 0.583268 0.924449 0.485001
Si Si5 0.367553 0.866882 0.488002
O O1 0.323419 0.323419 0.250000
O O2 0.393528 0.500032 0.277781
O O3 0.228733 0.403007 0.210392
O O4 0.278950 0.390534 0.392839
O O5 0.567677 0.567677 0.250000
O O6 0.479525 0.658773 0.193745
O O7 0.507523 0.646786 0.375604
O O8 0.611092 0.887384 0.574425
O O9 0.498701 0.710432 0.554891
O O10 0.470711 0.879208 0.496531
O O11 0.622182 0.034575 0.479966
#
# Coordination Sequence:
#
# PCOD9578838 Si02
#       5
#    12  12  12  12  12
#     4  10  20  36  55  76 106 147 184 225 286 330
#     4  10  20  36  55  76 106 147 184 225 286 330
#     4  12  20  32  56  80  96 138 196 226 256 328
#     4  10  20  36  55  76 106 147 184 225 286 330
#     4  10  20  36  55  76 106 147 184 225 286 330
#
# _framework density 17.647986
#
# number of rings (size 3 to 8) (size 9 to 14) (size 15 to 20)
#    0.000    1.600    4.000    2.400    0.000    0.000 
#    9.600    0.000    0.000    0.000    0.000    0.000 
#    0.000    0.000    0.000   12.000    0.000    0.000 
#
# Total GULP energy -334482.657073 kJ/mol
# GULP energy per Si atom -5574.710951 kJ/mol
# Density = 1.760782 g / cm^3
# Si number density = 17.647986 Si / 1000 Ang^3
#
#
#
# Elastic Constant Matrix: (Units=GPa)
#
#
# Indices 1 2 3 4 5 6 
#
# 1 28.3757 13.9261 21.8862 -6.7610 0.0000 0.0000
# 2 13.9261 28.3757 21.8862 6.7610 0.0000 0.0000
# 3 21.8862 21.8862 143.1922 0.0000 0.0000 0.0000
# 4 -6.7610 6.7610 0.0000 22.2510 0.0000 0.0000
# 5 0.0000 0.0000 0.0000 0.0000 22.2510 -6.7610
# 6 0.0000 0.0000 0.0000 0.0000 -6.7610 7.2248
#
#
#
# Elastic Compliance Matrix: (Units=1/GPa)
#
#
# Indices 1 2 3 4 5 6 
#
# 1 0.062392 -0.034311 -0.004292 0.029384 0.000000 0.000000
# 2 -0.034311 0.062392 -0.004292 -0.029384 0.000000 0.000000
# 3 -0.004292 -0.004292 0.008296 0.000000 0.000000 0.000000
# 4 0.029384 -0.029384 0.000000 0.062798 0.000000 0.000000
# 5 0.000000 0.000000 0.000000 0.000000 0.062798 0.058767
# 6 0.000000 0.000000 0.000000 0.000000 0.058767 0.193407
#
#
# Mechanical properties :
#
#
# Convention : Reuss Voigt Hill
#
# Bulk Modulus (GPa) = 21.14641 35.03784 28.09212
# Shear Modulus (GPa) = 9.03119 19.82838 14.42978
#
# Velocity S-wave (km/s) = 2.26462 3.35557 2.86255
# Velocity P-wave (km/s) = 4.34124 5.90847 5.18442
#
# Compressibility (1/GPa) = 0.04728935
#
# Stress axis : x y z
#
# Youngs Moduli (GPa) = 16.02766 16.02766 120.54511
#
# Poissons Ratio (x) = 0.54993 0.51738
# Poissons Ratio (y) = 0.54993 0.51738
# Poissons Ratio (z) = 0.06879 0.06879
#
# Static dielectric constant tensor:
#      x y z
#    x 1.614960 0.000000 0.000000 
#    y 0.000000 1.614960 0.000000 
#    z 0.000000 0.000000 1.684070 
# 
# From -- ./inp_files/1693.got.cif
#   From: 2010.05.17/outbox.cif.g08.bks.cpg/sg165_1_cif.got.tgz:1693.got - 2010.05.20 11:02:39.
