data_PCOD9578632
_publ_section_title
;
Structure prediction by ZEFSAII (Michael W. Deem and Ramdas Pophale) SiO2 
 PCOD9578632
Probable space group: P -3 M 1
;
_chemical_formula_sum "Si O2"
_cell_formula_units_Z 66
_cell_length_a 12.721098
_cell_length_b 12.721098
_cell_length_c 28.729789
_cell_angle_alpha 90.000000
_cell_angle_beta 90.000000
_cell_angle_gamma 120.000000
_cell_volume 4026.356865
_symmetry_space_group_name_H-M "P -3 M 1"
_symmetry_group_IT_number 164
_symmetry_cell_setting 'hexagonal'
loop_
_space_group_symop_operation_xyz
x,y,z
-y,x-y,z
-x+y,-x,z
x-y,-y,-z
-x,-x+y,-z
y,x,-z
-x,-y,-z
y,-x+y,-z
x-y,x,-z
-x+y,y,z
x,x-y,z
-y,-x,z
loop_
_atom_site_type_symbol
_atom_site_label
_atom_site_fract_x
_atom_site_fract_y
_atom_site_fract_z
Si Si1 0.083453 0.666155 0.180745
Si Si2 0.249713 0.000000 0.000000
Si Si3 0.583278 0.916428 0.909503
Si Si4 0.916707 0.583187 0.270191
Si Si5 0.248547 0.999834 0.552868
Si Si6 0.916201 0.333605 0.640494
O O1 0.114164 0.557082 0.182204
O O2 0.205037 0.794964 0.180156
O O3 0.002701 0.644452 0.134871
O O4 0.002345 0.649123 0.226062
O O5 0.334543 0.025528 0.044912
O O6 0.118640 0.881361 0.007438
O O7 0.451397 0.902794 0.915922
O O8 0.571442 0.785721 0.901665
O O9 0.794253 0.588505 0.268434
O O10 0.888230 0.444115 0.268852
O O11 0.991744 0.642019 0.317237
O O12 0.218093 0.109047 0.554722
O O13 0.347787 0.028046 0.592183
O O14 0.291461 0.000000 0.500000
O O15 0.127816 0.872185 0.561461
O O16 0.894470 0.447235 0.638722
O O17 0.790270 0.209731 0.648391
#
# Coordination Sequence:
#
# PCOD9578632 Si02
#       6
#    12   6  12  12  12  12
#     4  10  20  34  53  76 102 132 165 201 241 288
#     4  10  20  34  52  74 102 136 172 208 248 296
#     4  10  20  34  53  76 102 132 167 208 252 296
#     4  10  20  34  53  75  99 127 160 200 244 290
#     4   9  17  30  49  72  97 126 161 201 244 289
#     4  10  20  33  50  71  97 129 163 200 241 288
#
# _framework density 16.39199
#
# number of rings (size 3 to 8) (size 9 to 14) (size 15 to 20)
#    0.000    2.182    0.000    3.455    0.000    1.091 
#    0.000    3.636    0.000   14.909    0.000    0.000 
#    0.000    0.000    0.000    0.000    0.000    0.000 
#
# Total GULP energy -368337.437702 kJ/mol
# GULP energy per Si atom -5580.870268 kJ/mol
# Density = 1.635468 g / cm^3
# Si number density = 16.391990 Si / 1000 Ang^3
#
#
#
# Elastic Constant Matrix: (Units=GPa)
#
#
# Indices 1 2 3 4 5 6 
#
# 1 130.9250 92.0600 89.4506 -3.7977 0.0000 0.0000
# 2 92.0600 130.9250 89.4506 3.7977 0.0000 0.0000
# 3 89.4506 89.4506 140.0771 0.0000 0.0000 0.0000
# 4 -3.7977 3.7977 0.0000 23.8467 0.0000 0.0000
# 5 0.0000 0.0000 0.0000 0.0000 23.8467 -3.7977
# 6 0.0000 0.0000 0.0000 0.0000 -3.7977 19.4325
#
#
#
# Elastic Compliance Matrix: (Units=1/GPa)
#
#
# Indices 1 2 3 4 5 6 
#
# 1 0.017876 -0.008680 -0.005872 0.004229 0.000000 0.000000
# 2 -0.008680 0.017876 -0.005872 -0.004229 0.000000 0.000000
# 3 -0.005872 -0.005872 0.014639 0.000000 0.000000 0.000000
# 4 0.004229 -0.004229 0.000000 0.043282 0.000000 0.000000
# 5 0.000000 0.000000 0.000000 0.000000 0.043282 0.008459
# 6 0.000000 0.000000 0.000000 0.000000 0.008459 0.053113
#
#
# Mechanical properties :
#
#
# Convention : Reuss Voigt Hill
#
# Bulk Modulus (GPa) = 104.80671 104.87216 104.83944
# Shear Modulus (GPa) = 21.35850 22.15624 21.75737
#
# Velocity S-wave (km/s) = 3.61360 3.68047 3.64719
# Velocity P-wave (km/s) = 9.02704 9.06519 9.04613
#
# Compressibility (1/GPa) = 0.00954137
#
# Stress axis : x y z
#
# Youngs Moduli (GPa) = 55.93986 55.93986 68.31073
#
# Poissons Ratio (x) = 0.48557 0.40115
# Poissons Ratio (y) = 0.48557 0.40115
# Poissons Ratio (z) = 0.32850 0.32850
#
# Static dielectric constant tensor:
#      x y z
#    x 1.518270 0.000000 0.000000 
#    y 0.000000 1.518270 0.000000 
#    z 0.000000 0.000000 1.540230 
# 
# From -- ./inp_files/5456.got.cif
#   From: 2010.05.17/outbox.cif.g08.bks.cpg/sg164_3_cif.got.tgz:5456.got - 2010.05.20 10:58:56.
