data_PCOD9578770
_publ_section_title
;
Structure prediction by ZEFSAII (Michael W. Deem and Ramdas Pophale) SiO2 
 PCOD9578770
Probable space group: P -3 C 1
;
_chemical_formula_sum "Si O2"
_cell_formula_units_Z 84
_cell_length_a 35.039613
_cell_length_b 35.039613
_cell_length_c 5.284100
_cell_angle_alpha 90.000000
_cell_angle_beta 90.000000
_cell_angle_gamma 120.000000
_cell_volume 5618.498398
_symmetry_space_group_name_H-M "P -3 C 1"
_symmetry_group_IT_number 165
_symmetry_cell_setting 'hexagonal'
loop_
_space_group_symop_operation_xyz
x,y,z
-y,x-y,z
-x+y,-x,z
x-y,-y,1/2-z
-x,-x+y,1/2-z
y,x,1/2-z
-x,-y,-z
y,-x+y,-z
x-y,x,-z
-x+y,y,1/2+z
x,x-y,1/2+z
-y,-x,1/2+z
loop_
_atom_site_type_symbol
_atom_site_label
_atom_site_fract_x
_atom_site_fract_y
_atom_site_fract_z
Si Si1 0.501641 0.402089 0.299410
Si Si2 0.798932 0.568852 0.418113
Si Si3 0.718778 0.250863 0.012776
Si Si4 0.105183 0.412790 0.717914
Si Si5 0.574865 0.048647 0.805823
Si Si6 0.378620 0.802966 0.800162
Si Si7 0.668250 0.050606 0.782659
O O1 0.459435 0.353015 0.280072
O O2 0.500598 0.418214 0.581519
O O3 0.544557 0.399875 0.227950
O O4 0.492719 0.428722 0.084023
O O5 0.806239 0.588818 0.698228
O O6 0.757922 0.518701 0.467859
O O7 0.844052 0.574137 0.311372
O O8 0.712089 0.263351 0.730693
O O9 0.672496 0.214875 0.130191
O O10 0.078180 0.387151 0.468928
O O11 0.078567 0.385608 0.966613
O O12 0.620421 0.047234 0.800627
O O13 0.536173 0.000000 0.750000
O O14 0.390078 0.789472 0.531828
O O15 0.656871 0.000000 0.750000
#
# Coordination Sequence:
#
# PCOD9578770 Si02
#       7
#    12  12  12  12  12  12  12
#     4  10  19  32  50  69  93 117 145 181 208 242
#     4  10  19  30  47  72  98 118 144 179 220 262
#     4  10  21  38  60  78  96 115 136 167 213 261
#     4  10  18  29  48  72  93 121 152 178 215 257
#     4   9  17  29  48  70  91 120 151 178 209 240
#     4  12  25  40  58  79  98 117 143 174 213 255
#     4   9  17  28  43  68 100 126 151 179 206 244
#
# _framework density 14.950613000000001
#
# number of rings (size 3 to 8) (size 9 to 14) (size 15 to 20)
#    0.000    2.000    0.000    5.143    0.000   10.286 
#    0.000    0.000    0.000   14.286    0.000    0.000 
#    0.000    0.000    0.000    0.000    0.000    0.000 
#
# Total GULP energy -468176.946319 kJ/mol
# GULP energy per Si atom -5573.535075 kJ/mol
# Density = 1.491659 g / cm^3
# Si number density = 14.950613 Si / 1000 Ang^3
#
#
#
# Elastic Constant Matrix: (Units=GPa)
#
#
# Indices 1 2 3 4 5 6 
#
# 1 55.0177 20.2895 19.2616 -1.2236 0.0000 0.0000
# 2 20.2895 55.0177 19.2616 1.2236 0.0000 0.0000
# 3 19.2616 19.2616 122.0464 0.0000 0.0000 0.0000
# 4 -1.2236 1.2236 0.0000 19.0192 0.0000 0.0000
# 5 0.0000 0.0000 0.0000 0.0000 19.0192 -1.2236
# 6 0.0000 0.0000 0.0000 0.0000 -1.2236 17.3641
#
#
#
# Elastic Compliance Matrix: (Units=1/GPa)
#
#
# Indices 1 2 3 4 5 6 
#
# 1 0.021686 -0.007241 -0.002280 0.001861 0.000000 0.000000
# 2 -0.007241 0.021686 -0.002280 -0.001861 0.000000 0.000000
# 3 -0.002280 -0.002280 0.008913 0.000000 0.000000 0.000000
# 4 0.001861 -0.001861 0.000000 0.052818 0.000000 0.000000
# 5 0.000000 0.000000 0.000000 0.000000 0.052818 0.003722
# 6 0.000000 0.000000 0.000000 0.000000 0.003722 0.057852
#
#
# Mechanical properties :
#
#
# Convention : Reuss Voigt Hill
#
# Bulk Modulus (GPa) = 34.86207 38.85633 36.85920
# Shear Modulus (GPa) = 20.08565 22.63179 21.35872
#
# Velocity S-wave (km/s) = 3.66931 3.89494 3.78381
# Velocity P-wave (km/s) = 6.42811 6.80247 6.61794
#
# Compressibility (1/GPa) = 0.02868447
#
# Stress axis : x y z
#
# Youngs Moduli (GPa) = 46.11344 46.11344 112.19318
#
# Poissons Ratio (x) = 0.33388 0.25577
# Poissons Ratio (y) = 0.33388 0.25577
# Poissons Ratio (z) = 0.10513 0.10513
#
# Static dielectric constant tensor:
#      x y z
#    x 1.545950 0.000000 0.000000 
#    y 0.000000 1.545950 0.000000 
#    z 0.000000 0.000000 1.593340 
# 
# From -- ./inp_files/245.got.cif
#   From: 2010.05.17/outbox.cif.g08.bks.cpg/sg165_1_cif.got.tgz:245.got - 2010.05.20 11:02:39.
