data_PCOD9578720
_publ_section_title
;
Structure prediction by ZEFSAII (Michael W. Deem and Ramdas Pophale) SiO2 
 PCOD9578720
Probable space group: P -3 M 1
;
_chemical_formula_sum "Si O2"
_cell_formula_units_Z 60
_cell_length_a 17.983501
_cell_length_b 17.983501
_cell_length_c 12.115933
_cell_angle_alpha 90.000000
_cell_angle_beta 90.000000
_cell_angle_gamma 120.000000
_cell_volume 3393.407236
_symmetry_space_group_name_H-M "P -3 M 1"
_symmetry_group_IT_number 164
_symmetry_cell_setting 'hexagonal'
loop_
_space_group_symop_operation_xyz
x,y,z
-y,x-y,z
-x+y,-x,z
x-y,-y,-z
-x,-x+y,-z
y,x,-z
-x,-y,-z
y,-x+y,-z
x-y,x,-z
-x+y,y,z
x,x-y,z
-y,-x,z
loop_
_atom_site_type_symbol
_atom_site_label
_atom_site_fract_x
_atom_site_fract_y
_atom_site_fract_z
Si Si1 0.631238 0.815619 0.071484
Si Si2 0.549799 0.617228 0.096840
Si Si3 0.899474 0.798947 0.771428
Si Si4 0.070132 0.619625 0.711477
Si Si5 0.385284 0.192642 0.193856
Si Si6 0.131936 0.868065 0.480235
Si Si7 0.903682 0.807364 0.280306
Si Si8 0.000000 0.330741 0.500000
O O1 0.578796 0.715974 0.103489
O O2 0.721887 0.860944 0.138676
O O3 0.634041 0.817021 0.937467
O O4 0.449051 0.550950 0.076280
O O5 0.578118 0.587409 0.204626
O O6 0.601403 0.601403 0.000000
O O7 0.884901 0.769801 0.644041
O O8 0.852233 0.854691 0.774111
O O9 0.101268 0.550634 0.695387
O O10 0.142767 0.708863 0.765101
O O11 0.029825 0.634046 0.601508
O O12 0.292877 0.146439 0.252184
O O13 0.097926 0.902074 0.583919
O O14 0.234861 0.918951 0.485965
#
# Coordination Sequence:
#
# PCOD9578720 Si02
#       8
#     6  12   6  12   6   6   6   6
#     4  12  24  37  67  91 118 172 207 261 312 385
#     4  10  21  39  61  89 121 155 201 255 307 363
#     4  12  25  38  58  94 126 173 226 256 318 363
#     4  11  23  40  63  90 125 157 203 259 310 378
#     4  12  22  41  63  87 122 165 207 255 317 371
#     4  12  20  36  63  88 124 162 209 261 303 371
#     4  12  23  40  58  86 130 170 210 271 307 367
#     4  12  21  38  62  95 120 160 206 253 310 370
#
# _framework density 17.681342999999998
#
# number of rings (size 3 to 8) (size 9 to 14) (size 15 to 20)
#    0.000    0.600    6.000    2.900    0.000    0.000 
#    1.200    1.000    0.000    1.200    0.000    0.000 
#    0.000    0.000    0.000    0.000    0.000    0.000 
#
# Total GULP energy -334722.153899 kJ/mol
# GULP energy per Si atom -5578.702565 kJ/mol
# Density = 1.764110 g / cm^3
# Si number density = 17.681343 Si / 1000 Ang^3
#
#
#
# Elastic Constant Matrix: (Units=GPa)
#
#
# Indices 1 2 3 4 5 6 
#
# 1 144.3413 96.0303 50.8888 -8.8525 0.0000 0.0000
# 2 96.0303 144.3413 50.8888 8.8525 0.0000 0.0000
# 3 50.8888 50.8888 71.2483 0.0000 0.0000 0.0000
# 4 -8.8525 8.8525 0.0000 28.0084 0.0000 0.0000
# 5 0.0000 0.0000 0.0000 0.0000 28.0084 -8.8525
# 6 0.0000 0.0000 0.0000 0.0000 -8.8525 24.1555
#
#
#
# Elastic Compliance Matrix: (Units=1/GPa)
#
#
# Indices 1 2 3 4 5 6 
#
# 1 0.014687 -0.008724 -0.004260 0.007399 0.000000 0.000000
# 2 -0.008724 0.014687 -0.004260 -0.007399 0.000000 0.000000
# 3 -0.004260 -0.004260 0.020120 0.000000 0.000000 0.000000
# 4 0.007399 -0.007399 0.000000 0.040381 0.000000 0.000000
# 5 0.000000 0.000000 0.000000 0.000000 0.040381 0.014799
# 6 0.000000 0.000000 0.000000 0.000000 0.014799 0.046822
#
#
# Mechanical properties :
#
#
# Convention : Reuss Voigt Hill
#
# Bulk Modulus (GPa) = 66.62497 83.94963 75.28730
# Shear Modulus (GPa) = 23.08749 26.84267 24.96508
#
# Velocity S-wave (km/s) = 3.61744 3.90055 3.76166
# Velocity P-wave (km/s) = 7.43038 8.23821 7.84470
#
# Compressibility (1/GPa) = 0.01500939
#
# Stress axis : x y z
#
# Youngs Moduli (GPa) = 68.08569 68.08569 49.70102
#
# Poissons Ratio (x) = 0.59395 0.21171
# Poissons Ratio (y) = 0.59395 0.21171
# Poissons Ratio (z) = 0.29002 0.29002
#
# Static dielectric constant tensor:
#      x y z
#    x 1.586510 0.000000 0.000000 
#    y 0.000000 1.586510 0.000000 
#    z 0.000000 0.000000 1.641810 
# 
# From -- ./inp_files/2796.got.cif
#   From: 2010.05.17/outbox.cif.g08.bks.cpg/sg164_2_cif.got.tgz:2796.got - 2010.05.20 10:58:56.
