data_PCOD9578845
_publ_section_title
;
Structure prediction by ZEFSAII (Michael W. Deem and Ramdas Pophale) SiO2 
 PCOD9578845
Probable space group: P -3 C 1
;
_chemical_formula_sum "Si O2"
_cell_formula_units_Z 72
_cell_length_a 14.644146
_cell_length_b 14.644146
_cell_length_c 17.558614
_cell_angle_alpha 90.000000
_cell_angle_beta 90.000000
_cell_angle_gamma 120.000000
_cell_volume 3260.986219
_symmetry_space_group_name_H-M "P -3 C 1"
_symmetry_group_IT_number 165
_symmetry_cell_setting 'hexagonal'
loop_
_space_group_symop_operation_xyz
x,y,z
-y,x-y,z
-x+y,-x,z
x-y,-y,1/2-z
-x,-x+y,1/2-z
y,x,1/2-z
-x,-y,-z
y,-x+y,-z
x-y,x,-z
-x+y,y,1/2+z
x,x-y,1/2+z
-y,-x,1/2+z
loop_
_atom_site_type_symbol
_atom_site_label
_atom_site_fract_x
_atom_site_fract_y
_atom_site_fract_z
Si Si1 0.768586 0.885232 0.777770
Si Si2 0.547404 0.833250 0.704355
Si Si3 0.758715 0.635555 0.596992
Si Si4 0.908980 0.547184 0.954554
Si Si5 0.621025 0.153805 0.212240
Si Si6 0.367701 0.515301 0.934671
O O1 0.802398 0.802398 0.750000
O O2 0.661569 0.873970 0.741538
O O3 0.739245 0.855573 0.866779
O O4 0.857572 0.000000 0.750000
O O5 0.557924 0.844803 0.614206
O O6 0.483447 0.888585 0.736432
O O7 0.479902 0.713602 0.733033
O O8 0.693862 0.631836 0.522823
O O9 0.674936 0.580050 0.667190
O O10 0.805125 0.561519 0.568252
O O11 0.021566 0.573072 0.921609
O O12 0.846702 0.430330 0.991858
O O13 0.589585 0.195648 0.137959
#
# Coordination Sequence:
#
# PCOD9578845 Si02
#       6
#    12  12  12  12  12  12
#     4  11  24  46  74 101 130 177 238 300 355 409
#     4  11  23  39  64 102 134 176 228 279 333 411
#     4  10  22  42  63  92 137 176 219 285 348 410
#     4  10  24  37  62  96 134 179 226 271 340 415
#     4  10  20  37  62  90 131 173 222 266 327 407
#     4  10  20  42  59  87 134 187 219 270 345 409
#
# _framework density 22.07921
#
# number of rings (size 3 to 8) (size 9 to 14) (size 15 to 20)
#    0.000    1.667    3.333    1.500    2.333    1.333 
#   22.000    0.000    0.000    0.000    0.000    3.500 
#    0.000    0.000    0.000    0.000    0.000    0.000 
#
# Total GULP energy -401223.016812 kJ/mol
# GULP energy per Si atom -5572.541900 kJ/mol
# Density = 2.202896 g / cm^3
# Si number density = 22.079210 Si / 1000 Ang^3
#
#
#
# Elastic Constant Matrix: (Units=GPa)
#
#
# Indices 1 2 3 4 5 6 
#
# 1 80.5900 29.3624 32.3525 6.2244 0.0000 0.0000
# 2 29.3624 80.5900 32.3525 -6.2244 0.0000 0.0000
# 3 32.3525 32.3525 131.3973 0.0000 0.0000 0.0000
# 4 6.2244 -6.2244 0.0000 15.1938 0.0000 0.0000
# 5 0.0000 0.0000 0.0000 0.0000 15.1938 6.2244
# 6 0.0000 0.0000 0.0000 0.0000 6.2244 25.6138
#
#
#
# Elastic Compliance Matrix: (Units=1/GPa)
#
#
# Indices 1 2 3 4 5 6 
#
# 1 0.016157 -0.005522 -0.002619 -0.008881 0.000000 0.000000
# 2 -0.005522 0.016157 -0.002619 0.008881 0.000000 0.000000
# 3 -0.002619 -0.002619 0.008900 0.000000 0.000000 0.000000
# 4 -0.008881 0.008881 0.000000 0.073093 0.000000 0.000000
# 5 0.000000 0.000000 0.000000 0.000000 0.073093 -0.017762
# 6 0.000000 0.000000 0.000000 0.000000 -0.017762 0.043358
#
#
# Mechanical properties :
#
#
# Convention : Reuss Voigt Hill
#
# Bulk Modulus (GPa) = 50.76942 53.41246 52.09094
# Shear Modulus (GPa) = 19.31676 24.43427 21.87552
#
# Velocity S-wave (km/s) = 2.96105 3.33027 3.15107
# Velocity P-wave (km/s) = 5.89361 6.24751 6.07314
#
# Compressibility (1/GPa) = 0.01969690
#
# Stress axis : x y z
#
# Youngs Moduli (GPa) = 61.89094 61.89094 112.35840
#
# Poissons Ratio (x) = 0.34173 0.29424
# Poissons Ratio (y) = 0.34173 0.29424
# Poissons Ratio (z) = 0.16208 0.16208
#
# Static dielectric constant tensor:
#      x y z
#    x 1.872570 0.000000 0.000000 
#    y 0.000000 1.872570 0.000000 
#    z 0.000000 0.000000 1.789140 
# 
# From -- ./inp_files/2253.got.cif
#   From: 2010.05.17/outbox.cif.g08.bks.cpg/sg165_2_cif.got.tgz:2253.got - 2010.05.20 11:02:39.
