data_PCOD9578852
_publ_section_title
;
Structure prediction by ZEFSAII (Michael W. Deem and Ramdas Pophale) SiO2 
 PCOD9578852
Probable space group: P -3 C 1
;
_chemical_formula_sum "Si O2"
_cell_formula_units_Z 44
_cell_length_a 12.437461
_cell_length_b 12.437461
_cell_length_c 15.200911
_cell_angle_alpha 90.000000
_cell_angle_beta 90.000000
_cell_angle_gamma 120.000000
_cell_volume 2036.402923
_symmetry_space_group_name_H-M "P -3 C 1"
_symmetry_group_IT_number 165
_symmetry_cell_setting 'hexagonal'
loop_
_space_group_symop_operation_xyz
x,y,z
-y,x-y,z
-x+y,-x,z
x-y,-y,1/2-z
-x,-x+y,1/2-z
y,x,1/2-z
-x,-y,-z
y,-x+y,-z
x-y,x,-z
-x+y,y,1/2+z
x,x-y,1/2+z
-y,-x,1/2+z
loop_
_atom_site_type_symbol
_atom_site_label
_atom_site_fract_x
_atom_site_fract_y
_atom_site_fract_z
Si Si1 0.720483 0.882926 0.481146
Si Si2 0.666668 0.333335 0.964055
Si Si3 0.593997 0.080253 0.926254
Si Si4 0.105592 0.709743 0.810268
Si Si5 0.666667 0.333334 0.183068
O O1 0.787400 0.816561 0.528836
O O2 0.610190 0.878271 0.539351
O O3 0.663636 0.808590 0.390167
O O4 0.581849 0.199926 0.922496
O O5 0.666668 0.333334 0.072301
O O6 0.560365 0.988686 0.846245
O O7 0.500000 0.000000 0.000000
O O8 0.231426 0.705883 0.786536
O O9 0.000000 0.716705 0.750000
#
# Coordination Sequence:
#
# PCOD9578852 Si02
#       5
#    12   4  12  12   4
#     4  10  20  38  63  91 124 170 222 264 314 394
#     4  12  18  34  65  88 117 160 218 256 312 382
#     4  11  20  36  62  94 119 166 214 259 318 390
#     4  11  24  40  62  94 133 164 211 273 338 387
#     4  12  21  43  65  88 129 169 203 280 336 391
#
# _framework density 21.606725000000001
#
# number of rings (size 3 to 8) (size 9 to 14) (size 15 to 20)
#    0.000    1.091    5.455    1.909    0.000    2.182 
#    0.000    8.182    0.000    0.000    0.000    0.000 
#    0.000    0.000    0.000    0.000    0.000    0.000 
#
# Total GULP energy -244975.199545 kJ/mol
# GULP energy per Si atom -5567.618171 kJ/mol
# Density = 2.155755 g / cm^3
# Si number density = 21.606725 Si / 1000 Ang^3
#
#
#
# Elastic Constant Matrix: (Units=GPa)
#
#
# Indices 1 2 3 4 5 6 
#
# 1 130.6577 45.4719 15.9499 -2.5931 0.0000 0.0000
# 2 45.4719 130.6563 15.9498 2.5933 0.0000 0.0000
# 3 15.9499 15.9498 60.3853 -0.0001 0.0000 0.0000
# 4 -2.5931 2.5933 -0.0001 25.1232 0.0000 0.0000
# 5 0.0000 0.0000 0.0000 0.0000 25.1233 -2.5929
# 6 0.0000 0.0000 0.0000 0.0000 -2.5929 42.5932
#
#
#
# Elastic Compliance Matrix: (Units=1/GPa)
#
#
# Indices 1 2 3 4 5 6 
#
# 1 0.008888 -0.002925 -0.001575 0.001219 0.000000 0.000000
# 2 -0.002925 0.008888 -0.001575 -0.001219 0.000000 0.000000
# 3 -0.001575 -0.001575 0.017392 0.000000 0.000000 0.000000
# 4 0.001219 -0.001219 0.000000 0.040056 0.000000 0.000000
# 5 0.000000 0.000000 0.000000 0.000000 0.040055 0.002438
# 6 0.000000 0.000000 0.000000 0.000000 0.002438 0.023626
#
#
# Mechanical properties :
#
#
# Convention : Reuss Voigt Hill
#
# Bulk Modulus (GPa) = 43.44401 52.93806 48.19104
# Shear Modulus (GPa) = 31.50020 34.85647 33.17833
#
# Velocity S-wave (km/s) = 3.82237 4.02085 3.92287
# Velocity P-wave (km/s) = 6.29532 6.79045 6.54757
#
# Compressibility (1/GPa) = 0.02301813
#
# Stress axis : x y z
#
# Youngs Moduli (GPa) = 112.51002 112.50877 57.49657
#
# Poissons Ratio (x) = 0.32911 0.09056
# Poissons Ratio (y) = 0.32912 0.09056
# Poissons Ratio (z) = 0.17720 0.17720
#
# Static dielectric constant tensor:
#      x y z
#    x 1.763630 0.000000 0.000000 
#    y 0.000000 1.763640 0.000000 
#    z 0.000000 0.000000 1.812920 
# 
# From -- ./inp_files/2112.got.cif
#   From: 2010.05.17/outbox.cif.g08.bks.cpg/sg165_2_cif.got.tgz:2112.got - 2010.05.20 11:02:39.
