data_PCOD9578146
_publ_section_title
;
Structure prediction by ZEFSAII (Michael W. Deem and Ramdas Pophale) SiO2 
 PCOD9578146
Probable space group: P -3 1 C
;
_chemical_formula_sum "Si O2"
_cell_formula_units_Z 54
_cell_length_a 22.331128
_cell_length_b 22.331128
_cell_length_c 4.921654
_cell_angle_alpha 90.000000
_cell_angle_beta 90.000000
_cell_angle_gamma 120.000000
_cell_volume 2125.509412
_symmetry_space_group_name_H-M "P -3 1 C"
_symmetry_group_IT_number 163
_symmetry_cell_setting 'hexagonal'
loop_
_space_group_symop_operation_xyz
x,y,z
-y,x-y,z
-x+y,-x,z
-y,-x,1/2-z
-x+y,y,1/2-z
x,x-y,1/2-z
-x,-y,-z
y,-x+y,-z
x-y,x,-z
y,x,1/2+z
x-y,-y,1/2+z
-x,-x+y,1/2+z
loop_
_atom_site_type_symbol
_atom_site_label
_atom_site_fract_x
_atom_site_fract_y
_atom_site_fract_z
Si Si1 0.426540 0.713270 0.250000
Si Si2 0.947801 0.283828 0.797411
Si Si3 0.844083 0.040390 0.604231
Si Si4 0.554997 0.829424 0.571813
Si Si5 0.408866 0.951590 0.672822
O O1 0.369905 0.739809 0.250000
O O2 0.482428 0.764183 0.473099
O O3 0.929393 0.204883 0.814126
O O4 0.878164 0.278839 0.678972
O O5 0.010493 0.324720 0.580085
O O6 0.916665 0.083336 0.750000
O O7 0.839879 0.029780 0.283793
O O8 0.591008 0.795504 0.750000
O O9 0.546759 0.884017 0.757890
O O10 0.464774 0.929547 0.750000
O O11 0.416927 0.980247 0.367132
#
# Coordination Sequence:
#
# PCOD9578146 Si02
#       5
#     6  12  12  12  12
#     4  10  30  52  70 102 148 196 258 300 368 442
#     4  10  24  44  71 108 150 181 238 308 377 441
#     4  10  21  38  64  96 140 190 234 291 352 424
#     4  12  28  42  77 104 144 192 243 307 376 449
#     4  10  24  45  74 104 141 186 245 303 369 440
#
# _framework density 25.405674999999999
#
# number of rings (size 3 to 8) (size 9 to 14) (size 15 to 20)
#    0.222    1.333    0.000    2.000   10.889    4.444 
#    0.000    0.000    0.000    4.444    0.000    0.000 
#    0.000    0.000    0.000    0.000    0.000    0.000 
#
# Total GULP energy -301323.590524 kJ/mol
# GULP energy per Si atom -5580.066491 kJ/mol
# Density = 2.534785 g / cm^3
# Si number density = 25.405675 Si / 1000 Ang^3
#
#
#
# Elastic Constant Matrix: (Units=GPa)
#
#
# Indices 1 2 3 4 5 6 
#
# 1 77.9071 84.9862 41.4384 0.0007 2.1390 0.0000
# 2 84.9862 77.9071 41.4384 -0.0007 -2.1390 0.0000
# 3 41.4384 41.4384 163.2312 0.0000 0.0000 0.0000
# 4 0.0007 -0.0007 0.0000 33.2558 0.0000 -2.1390
# 5 2.1390 -2.1390 0.0000 0.0000 33.2558 0.0007
# 6 0.0000 0.0000 0.0000 -2.1390 0.0007 -3.5395
#
#
#
# Elastic Compliance Matrix: (Units=1/GPa)
#
#
# Indices 1 2 3 4 5 6 
#
# 1 -0.064463 0.071513 -0.001790 0.000003 0.008746 0.000000
# 2 0.071513 -0.064463 -0.001790 -0.000003 -0.008746 0.000000
# 3 -0.001790 -0.001790 0.007035 0.000000 0.000000 0.000000
# 4 0.000003 -0.000003 0.000000 0.028945 0.000000 -0.017492
# 5 0.008746 -0.008746 0.000000 0.000000 0.028945 0.000006
# 6 0.000000 0.000000 0.000000 -0.017492 0.000006 -0.271952
#
#
# Mechanical properties :
#
#
# Convention : Reuss Voigt Hill
#
# Bulk Modulus (GPa) = 71.55390 72.75240 72.15315
# Shear Modulus (GPa) = -10.70291 22.67324 5.98517
#
# Velocity S-wave (km/s) = -2.05474 2.99063 1.53654
# Velocity P-wave (km/s) = 4.75357 6.37366 5.62228
#
# Compressibility (1/GPa) = 0.01397548
#
# Stress axis : x y z
#
# Youngs Moduli (GPa) = -15.51271 -15.51271 142.14812
#
# Poissons Ratio (x) = 1.10936 0.25439
# Poissons Ratio (y) = 1.10936 0.25439
# Poissons Ratio (z) = -0.02776 -0.02776
#
# Static dielectric constant tensor:
#      x y z
#    x 2.109290 0.000000 0.000000 
#    y 0.000000 2.109290 0.000000 
#    z 0.000000 0.000000 1.996580 
# 
# From -- ./inp_files/293.got.cif
#   From: 2010.05.17/outbox.cif.g08.bks.cpg/sg163_1_cif.got.tgz:293.got - 2010.05.20 10:56:03.
