data_PCOD9578700
_publ_section_title
;
Structure prediction by ZEFSAII (Michael W. Deem and Ramdas Pophale) SiO2 
 PCOD9578700
Probable space group: P -3 M 1
;
_chemical_formula_sum "Si O2"
_cell_formula_units_Z 84
_cell_length_a 21.532795
_cell_length_b 21.532795
_cell_length_c 11.009745
_cell_angle_alpha 90.000000
_cell_angle_beta 90.000000
_cell_angle_gamma 120.000000
_cell_volume 4420.879765
_symmetry_space_group_name_H-M "P -3 M 1"
_symmetry_group_IT_number 164
_symmetry_cell_setting 'hexagonal'
loop_
_space_group_symop_operation_xyz
x,y,z
-y,x-y,z
-x+y,-x,z
x-y,-y,-z
-x,-x+y,-z
y,x,-z
-x,-y,-z
y,-x+y,-z
x-y,x,-z
-x+y,y,z
x,x-y,z
-y,-x,z
loop_
_atom_site_type_symbol
_atom_site_label
_atom_site_fract_x
_atom_site_fract_y
_atom_site_fract_z
Si Si1 0.371758 0.315005 0.755411
Si Si2 0.762162 0.806353 0.123748
Si Si3 0.462067 0.067602 0.360151
Si Si4 0.524093 0.189930 0.162892
Si Si5 0.373897 0.259230 0.501008
Si Si6 0.221577 0.038249 0.375226
Si Si7 0.614748 0.081116 0.954320
O O1 0.311621 0.268503 0.855129
O O2 0.381425 0.390533 0.708869
O O3 0.354571 0.262336 0.641094
O O4 0.444718 0.342402 0.829029
O O5 0.752799 0.876400 0.115587
O O6 0.800137 0.807639 0.252402
O O7 0.799184 0.799184 0.000000
O O8 0.522341 0.044681 0.379301
O O9 0.499392 0.138357 0.278302
O O10 0.433150 0.091755 0.474654
O O11 0.606678 0.213355 0.138145
O O12 0.513979 0.256990 0.180245
O O13 0.476779 0.138543 0.054799
O O14 0.394645 0.197323 0.484885
O O15 0.305814 0.237311 0.411704
O O16 0.215928 0.107964 0.356329
O O17 0.182380 0.000000 0.500000
O O18 0.540883 0.081765 0.941914
O O19 0.589497 0.000000 0.000000
#
# Coordination Sequence:
#
# PCOD9578700 Si02
#       7
#    12  12  12  12  12  12  12
#     4  12  22  38  59  93 126 164 208 260 323 382
#     4  12  26  44  65  96 134 175 216 265 321 384
#     4  11  22  38  61  90 127 163 205 264 326 380
#     4  10  21  37  59  86 119 164 213 263 318 383
#     4  11  23  39  61  91 127 164 213 264 314 385
#     4  11  21  41  68  95 129 169 213 269 324 380
#     4  10  20  37  58  83 120 160 203 257 317 378
#
# _framework density 19.000743
#
# number of rings (size 3 to 8) (size 9 to 14) (size 15 to 20)
#    0.000    1.000    4.286    3.143    0.000    2.857 
#    0.000    0.000    0.000    6.000    0.000    1.000 
#    0.000    0.000    0.000    0.000    0.000    0.000 
#
# Total GULP energy -468245.571823 kJ/mol
# GULP energy per Si atom -5574.352046 kJ/mol
# Density = 1.895750 g / cm^3
# Si number density = 19.000743 Si / 1000 Ang^3
#
#
#
# Elastic Constant Matrix: (Units=GPa)
#
#
# Indices 1 2 3 4 5 6 
#
# 1 84.4382 47.4597 31.3656 -1.0410 0.0000 0.0000
# 2 47.4597 84.4382 31.3656 1.0410 0.0000 0.0000
# 3 31.3656 31.3656 110.5390 0.0000 0.0000 0.0000
# 4 -1.0410 1.0410 0.0000 28.3667 0.0000 0.0000
# 5 0.0000 0.0000 0.0000 0.0000 28.3667 -1.0410
# 6 0.0000 0.0000 0.0000 0.0000 -1.0410 18.4893
#
#
#
# Elastic Compliance Matrix: (Units=1/GPa)
#
#
# Indices 1 2 3 4 5 6 
#
# 1 0.017932 -0.009167 -0.002487 0.000994 0.000000 0.000000
# 2 -0.009167 0.017932 -0.002487 -0.000994 0.000000 0.000000
# 3 -0.002487 -0.002487 0.010458 0.000000 0.000000 0.000000
# 4 0.000994 -0.000994 0.000000 0.035326 0.000000 0.000000
# 5 0.000000 0.000000 0.000000 0.000000 0.035326 0.001989
# 6 0.000000 0.000000 0.000000 0.000000 0.001989 0.054197
#
#
# Mechanical properties :
#
#
# Convention : Reuss Voigt Hill
#
# Bulk Modulus (GPa) = 55.43522 55.53303 55.48412
# Shear Modulus (GPa) = 24.33510 26.32617 25.33064
#
# Velocity S-wave (km/s) = 3.58263 3.72631 3.65518
# Velocity P-wave (km/s) = 6.80825 6.91405 6.86136
#
# Compressibility (1/GPa) = 0.01803907
#
# Stress axis : x y z
#
# Youngs Moduli (GPa) = 55.76762 55.76762 95.62130
#
# Poissons Ratio (x) = 0.51123 0.23780
# Poissons Ratio (y) = 0.51123 0.23780
# Poissons Ratio (z) = 0.13869 0.13869
#
# Static dielectric constant tensor:
#      x y z
#    x 1.679630 0.000000 0.000000 
#    y 0.000000 1.679630 0.000000 
#    z 0.000000 0.000000 1.233110 
# 
# From -- ./inp_files/2877.got.cif
#   From: 2010.05.17/outbox.cif.g08.bks.cpg/sg164_2_cif.got.tgz:2877.got - 2010.05.20 10:58:56.
