data_PCOD9578995
_publ_section_title
;
Structure prediction by ZEFSAII (Michael W. Deem and Ramdas Pophale) SiO2 
 PCOD9578995
Probable space group: P -3 C 1
;
_chemical_formula_sum "Si O2"
_cell_formula_units_Z 48
_cell_length_a 16.763909
_cell_length_b 16.763909
_cell_length_c 9.004043
_cell_angle_alpha 90.000000
_cell_angle_beta 90.000000
_cell_angle_gamma 120.000000
_cell_volume 2191.385489
_symmetry_space_group_name_H-M "P -3 C 1"
_symmetry_group_IT_number 165
_symmetry_cell_setting 'hexagonal'
loop_
_space_group_symop_operation_xyz
x,y,z
-y,x-y,z
-x+y,-x,z
x-y,-y,1/2-z
-x,-x+y,1/2-z
y,x,1/2-z
-x,-y,-z
y,-x+y,-z
x-y,x,-z
-x+y,y,1/2+z
x,x-y,1/2+z
-y,-x,1/2+z
loop_
_atom_site_type_symbol
_atom_site_label
_atom_site_fract_x
_atom_site_fract_y
_atom_site_fract_z
Si Si1 0.814730 0.814730 0.750000
Si Si2 0.508683 0.835120 0.856832
Si Si3 0.302690 0.295895 0.509480
Si Si4 0.823826 0.823826 0.250000
Si Si5 0.843710 0.502000 0.000279
O O1 0.734976 0.773594 0.627230
O O2 0.831738 0.913282 0.804447
O O3 0.491092 0.738172 0.920445
O O4 0.437575 0.859390 0.936039
O O5 0.497144 0.832850 0.678810
O O6 0.610807 0.911627 0.906804
O O7 0.217271 0.251818 0.621605
O O8 0.327317 0.397793 0.463604
#
# Coordination Sequence:
#
# PCOD9578995 Si02
#       5
#     6  12  12   6  12
#     4  12  27  42  77 100 148 186 236 296 365 418
#     4  12  26  47  73 107 147 189 239 292 354 420
#     4  12  27  44  74 104 143 186 244 289 352 425
#     4  12  23  50  65 110 136 192 232 298 351 432
#     4  12  26  47  73 107 147 189 239 292 354 420
#
# _framework density 21.903949000000001
#
# number of rings (size 3 to 8) (size 9 to 14) (size 15 to 20)
#    0.000    0.000    2.500    7.500    7.000    0.000 
#    0.000    2.500    0.000    0.000    0.000    0.000 
#    0.000    0.000    0.000    0.000    0.000    0.000 
#
# Total GULP energy -268748.670524 kJ/mol
# GULP energy per Si atom -5598.930636 kJ/mol
# Density = 2.185409 g / cm^3
# Si number density = 21.903949 Si / 1000 Ang^3
#
#
#
# Elastic Constant Matrix: (Units=GPa)
#
#
# Indices 1 2 3 4 5 6 
#
# 1 89.1077 66.5222 34.6211 -0.5411 0.0000 0.0000
# 2 66.5222 89.1077 34.6211 0.5411 0.0000 0.0000
# 3 34.6211 34.6211 88.3908 0.0000 0.0000 0.0000
# 4 -0.5411 0.5411 0.0000 24.3358 0.0000 0.0000
# 5 0.0000 0.0000 0.0000 0.0000 24.3358 -0.5411
# 6 0.0000 0.0000 0.0000 0.0000 -0.5411 11.2928
#
#
#
# Elastic Compliance Matrix: (Units=1/GPa)
#
#
# Indices 1 2 3 4 5 6 
#
# 1 0.026052 -0.018271 -0.003048 0.000986 0.000000 0.000000
# 2 -0.018271 0.026052 -0.003048 -0.000986 0.000000 0.000000
# 3 -0.003048 -0.003048 0.013701 0.000000 0.000000 0.000000
# 4 0.000986 -0.000986 0.000000 0.041136 0.000000 0.000000
# 5 0.000000 0.000000 0.000000 0.000000 0.041136 0.001971
# 6 0.000000 0.000000 0.000000 0.000000 0.001971 0.088647
#
#
# Mechanical properties :
#
#
# Convention : Reuss Voigt Hill
#
# Bulk Modulus (GPa) = 58.57361 59.79278 59.18320
# Shear Modulus (GPa) = 17.17339 20.71566 18.94453
#
# Velocity S-wave (km/s) = 2.80309 3.07864 2.94409
# Velocity P-wave (km/s) = 6.10538 6.32411 6.21571
#
# Compressibility (1/GPa) = 0.01707253
#
# Stress axis : x y z
#
# Youngs Moduli (GPa) = 38.38410 38.38410 72.98735
#
# Poissons Ratio (x) = 0.70131 0.22246
# Poissons Ratio (y) = 0.70131 0.22246
# Poissons Ratio (z) = 0.11699 0.11699
#
# Static dielectric constant tensor:
#      x y z
#    x 1.766620 0.000000 0.000000 
#    y 0.000000 1.766620 0.000000 
#    z 0.000000 0.000000 1.818790 
# 
# From -- ./inp_files/548.got.cif
#   From: 2010.05.17/outbox.cif.g08.bks.cpg/sg165_1_cif.got.tgz:548.got - 2010.05.20 11:02:39.
