data_PCOD9578265
_publ_section_title
;
Structure prediction by ZEFSAII (Michael W. Deem and Ramdas Pophale) SiO2 
 PCOD9578265
Probable space group: P -3 1 C
;
_chemical_formula_sum "Si O2"
_cell_formula_units_Z 48
_cell_length_a 17.210137
_cell_length_b 17.210137
_cell_length_c 8.845802
_cell_angle_alpha 90.000000
_cell_angle_beta 90.000000
_cell_angle_gamma 120.000000
_cell_volume 2269.010475
_symmetry_space_group_name_H-M "P -3 1 C"
_symmetry_group_IT_number 163
_symmetry_cell_setting 'hexagonal'
loop_
_space_group_symop_operation_xyz
x,y,z
-y,x-y,z
-x+y,-x,z
-y,-x,1/2-z
-x+y,y,1/2-z
x,x-y,1/2-z
-x,-y,-z
y,-x+y,-z
x-y,x,-z
y,x,1/2+z
x-y,-y,1/2+z
-x,-x+y,1/2+z
loop_
_atom_site_type_symbol
_atom_site_label
_atom_site_fract_x
_atom_site_fract_y
_atom_site_fract_z
Si Si1 0.074504 0.765346 0.196210
Si Si2 0.536734 0.439421 0.425702
Si Si3 0.334958 0.510478 0.325932
Si Si4 0.744271 0.634050 0.142817
O O1 0.131620 0.868381 0.250000
O O2 0.121457 0.714471 0.280290
O O3 0.973301 0.698518 0.248242
O O4 0.088933 0.775386 0.016186
O O5 0.543896 0.456105 0.250000
O O6 0.500000 0.500000 0.500000
O O7 0.633392 0.468339 0.500693
O O8 0.459178 0.335994 0.427183
O O9 0.432124 0.567877 0.250000
O O10 0.272002 0.544003 0.250000
O O11 0.806757 0.613513 0.250000
#
# Coordination Sequence:
#
# PCOD9578265 Si02
#       4
#    12  12  12  12
#     4  11  24  42  69  98 138 180 229 292 366 425
#     4  12  24  39  63  96 137 183 238 299 366 431
#     4  11  23  41  63  93 132 184 234 288 356 427
#     4  12  25  42  69 103 139 182 243 299 360 441
#
# _framework density 21.154595
#
# number of rings (size 3 to 8) (size 9 to 14) (size 15 to 20)
#    0.000    0.500    5.000    4.000    7.000    0.000 
#    0.000    0.000    0.000    1.000    0.000    3.500 
#    0.000    0.000    0.000    0.000    0.000    0.000 
#
# Total GULP energy -267468.703925 kJ/mol
# GULP energy per Si atom -5572.264665 kJ/mol
# Density = 2.110645 g / cm^3
# Si number density = 21.154595 Si / 1000 Ang^3
#
#
#
# Elastic Constant Matrix: (Units=GPa)
#
#
# Indices 1 2 3 4 5 6 
#
# 1 -536.1169 670.3291 37.4906 -0.0250 -522.9163 -0.0001
# 2 670.3291 -536.1169 37.4906 0.0250 522.9163 0.0001
# 3 37.4906 37.4906 178.3464 0.0000 0.0000 0.0000
# 4 -0.0250 0.0250 0.0000 -417.7682 0.0001 522.9162
# 5 -522.9163 522.9163 0.0000 0.0001 -417.7683 -0.0252
# 6 -0.0001 0.0001 0.0000 522.9162 -0.0252 -603.2229
#
#
#
# Elastic Compliance Matrix: (Units=1/GPa)
#
#
# Indices 1 2 3 4 5 6 
#
# 1 0.009094 -0.000652 -0.001775 -0.000001 -0.012198 0.000000
# 2 -0.000652 0.009094 -0.001775 0.000001 0.012198 0.000000
# 3 -0.001775 -0.001775 0.006353 0.000000 0.000000 0.000000
# 4 -0.000001 0.000001 0.000000 0.028143 0.000000 0.024397
# 5 -0.012198 0.012198 0.000000 0.000000 0.028143 -0.000001
# 6 0.000000 0.000000 0.000000 0.024397 -0.000001 0.019491
#
#
# Mechanical properties :
#
#
# Convention : Reuss Voigt Hill
#
# Bulk Modulus (GPa) = 61.96110 66.30370 64.13240
# Shear Modulus (GPa) = 43.82114 -397.03172 -176.60529
#
# Velocity S-wave (km/s) = 4.55628 -13.71454 -9.14683
# Velocity P-wave (km/s) = 7.55201 14.81129 9.00948
#
# Compressibility (1/GPa) = 0.01613916
#
# Stress axis : x y z
#
# Youngs Moduli (GPa) = 109.96363 109.96363 157.40131
#
# Poissons Ratio (x) = 0.07165 0.27934
# Poissons Ratio (y) = 0.07165 0.27934
# Poissons Ratio (z) = 0.19515 0.19515
#
# Static dielectric constant tensor:
#      x y z
#    x 1.867150 0.000000 0.000000 
#    y 0.000000 1.867150 0.000000 
#    z 0.000000 0.000000 1.906800 
# 
# From -- ./inp_files/903.got.cif
#   From: 2010.05.17/outbox.cif.g08.bks.cpg/sg163_1_cif.got.tgz:903.got - 2010.05.20 10:56:03.
