data_PCOD9578636
_publ_section_title
;
Structure prediction by ZEFSAII (Michael W. Deem and Ramdas Pophale) SiO2 
 PCOD9578636
Probable space group: P -3 M 1
;
_chemical_formula_sum "Si O2"
_cell_formula_units_Z 54
_cell_length_a 12.719708
_cell_length_b 12.719708
_cell_length_c 23.506849
_cell_angle_alpha 90.000000
_cell_angle_beta 90.000000
_cell_angle_gamma 120.000000
_cell_volume 3293.664299
_symmetry_space_group_name_H-M "P -3 M 1"
_symmetry_group_IT_number 164
_symmetry_cell_setting 'hexagonal'
loop_
_space_group_symop_operation_xyz
x,y,z
-y,x-y,z
-x+y,-x,z
x-y,-y,-z
-x,-x+y,-z
y,x,-z
-x,-y,-z
y,-x+y,-z
x-y,x,-z
-x+y,y,z
x,x-y,z
-y,-x,z
loop_
_atom_site_type_symbol
_atom_site_label
_atom_site_fract_x
_atom_site_fract_y
_atom_site_fract_z
Si Si1 0.751349 0.751654 0.434683
Si Si2 0.250032 0.000000 0.000000
Si Si3 0.667318 0.084134 0.110570
Si Si4 0.084300 0.666448 0.671017
Si Si5 0.750428 0.000307 0.219961
O O1 0.712967 0.712967 0.500000
O O2 0.745009 0.872505 0.423382
O O3 0.676786 0.649323 0.388411
O O4 0.890634 0.781269 0.430173
O O5 0.309623 0.975075 0.945102
O O6 0.118509 0.881492 0.008765
O O7 0.537919 0.075837 0.109429
O O8 0.775739 0.224262 0.112233
O O9 0.684680 0.020898 0.166216
O O10 0.078174 0.539087 0.677661
O O11 0.223404 0.776597 0.672335
O O12 0.017188 0.692494 0.722439
O O13 0.889937 0.110064 0.218404
O O14 0.744380 0.872190 0.217740
#
# Coordination Sequence:
#
# PCOD9578636 Si02
#       5
#    12   6  12  12  12
#     4   9  17  30  50  75 100 126 158 200 249 296
#     4  10  20  34  54  78 104 134 168 210 256 298
#     4  10  20  34  53  76 103 135 169 204 242 289
#     4  10  20  33  50  71  97 130 166 203 241 286
#     4  10  20  34  54  78 102 128 160 203 252 298
#
# _framework density 16.395114
#
# number of rings (size 3 to 8) (size 9 to 14) (size 15 to 20)
#    0.000    2.222    0.000    3.333    0.000    1.333 
#    0.000    6.667    0.000   13.778    0.000    0.000 
#    0.000    0.000    0.000    0.000    0.000    0.000 
#
# Total GULP energy -301371.594323 kJ/mol
# GULP energy per Si atom -5580.955450 kJ/mol
# Density = 1.635780 g / cm^3
# Si number density = 16.395114 Si / 1000 Ang^3
#
#
#
# Elastic Constant Matrix: (Units=GPa)
#
#
# Indices 1 2 3 4 5 6 
#
# 1 127.4018 91.5887 76.0369 -0.9960 0.0000 0.0000
# 2 91.5887 127.4018 76.0369 0.9960 0.0000 0.0000
# 3 76.0369 76.0369 123.1587 0.0000 0.0000 0.0000
# 4 -0.9960 0.9960 0.0000 14.7677 0.0000 0.0000
# 5 0.0000 0.0000 0.0000 0.0000 14.7677 -0.9960
# 6 0.0000 0.0000 0.0000 0.0000 -0.9960 17.9065
#
#
#
# Elastic Compliance Matrix: (Units=1/GPa)
#
#
# Indices 1 2 3 4 5 6 
#
# 1 0.018011 -0.010017 -0.004935 0.001890 0.000000 0.000000
# 2 -0.010017 0.018011 -0.004935 -0.001890 0.000000 0.000000
# 3 -0.004935 -0.004935 0.014213 0.000000 0.000000 0.000000
# 4 0.001890 -0.001890 0.000000 0.067970 0.000000 0.000000
# 5 0.000000 0.000000 0.000000 0.000000 0.067970 0.003781
# 6 0.000000 0.000000 0.000000 0.000000 0.003781 0.056056
#
#
# Mechanical properties :
#
#
# Convention : Reuss Voigt Hill
#
# Bulk Modulus (GPa) = 95.60275 96.14305 95.87290
# Shear Modulus (GPa) = 17.51361 18.44172 17.97766
#
# Velocity S-wave (km/s) = 3.27191 3.35749 3.31498
# Velocity P-wave (km/s) = 8.52714 8.59063 8.55894
#
# Compressibility (1/GPa) = 0.01045995
#
# Stress axis : x y z
#
# Youngs Moduli (GPa) = 55.52257 55.52257 70.35626
#
# Poissons Ratio (x) = 0.55618 0.34722
# Poissons Ratio (y) = 0.55618 0.34722
# Poissons Ratio (z) = 0.27401 0.27401
#
# Static dielectric constant tensor:
#      x y z
#    x 1.516520 0.000000 0.000000 
#    y 0.000000 1.516520 0.000000 
#    z 0.000000 0.000000 1.552950 
# 
# From -- ./inp_files/4843.got.cif
#   From: 2010.05.17/outbox.cif.g08.bks.cpg/sg164_3_cif.got.tgz:4843.got - 2010.05.20 10:58:56.
