data_PCOD9578784
_publ_section_title
;
Structure prediction by ZEFSAII (Michael W. Deem and Ramdas Pophale) SiO2 
 PCOD9578784
Probable space group: P -3 C 1
;
_chemical_formula_sum "Si O2"
_cell_formula_units_Z 56
_cell_length_a 14.545165
_cell_length_b 14.545165
_cell_length_c 15.632135
_cell_angle_alpha 90.000000
_cell_angle_beta 90.000000
_cell_angle_gamma 120.000000
_cell_volume 2864.087179
_symmetry_space_group_name_H-M "P -3 C 1"
_symmetry_group_IT_number 165
_symmetry_cell_setting 'hexagonal'
loop_
_space_group_symop_operation_xyz
x,y,z
-y,x-y,z
-x+y,-x,z
x-y,-y,1/2-z
-x,-x+y,1/2-z
y,x,1/2-z
-x,-y,-z
y,-x+y,-z
x-y,x,-z
-x+y,y,1/2+z
x,x-y,1/2+z
-y,-x,1/2+z
loop_
_atom_site_type_symbol
_atom_site_label
_atom_site_fract_x
_atom_site_fract_y
_atom_site_fract_z
Si Si1 0.666668 0.333334 0.181222
Si Si2 0.333334 0.666668 0.024202
Si Si3 0.452454 0.987308 0.866296
Si Si4 0.417708 0.189235 0.431201
Si Si5 0.051887 0.394673 0.456166
Si Si6 0.843044 0.533688 0.261870
O O1 0.733609 0.448931 0.222019
O O2 0.666668 0.333334 0.078980
O O3 0.297141 0.750375 0.055244
O O4 0.513628 0.923618 0.886484
O O5 0.338542 0.919243 0.820544
O O6 0.517073 0.091929 0.808600
O O7 0.436772 0.028817 0.955719
O O8 0.378023 0.230672 0.512245
O O9 0.402305 0.229597 0.338281
O O10 0.359676 0.062372 0.431125
#
# Coordination Sequence:
#
# PCOD9578784 Si02
#       6
#     4   4  12  12  12  12
#     4  12  19  26  43  69 100 134 175 207 247 323
#     4  12  22  32  52  78 109 149 181 213 274 335
#     4   9  18  32  48  69  98 134 172 220 268 318
#     4  11  21  34  52  75 106 144 182 222 270 325
#     4  10  19  34  52  71 102 140 182 221 265 323
#     4  10  19  29  45  69  99 133 170 215 264 310
#
# _framework density 19.552477
#
# number of rings (size 3 to 8) (size 9 to 14) (size 15 to 20)
#    0.000    1.714    0.000    9.000    0.000    0.000 
#    0.000    0.000    0.000    0.429    0.000    0.000 
#    0.000    0.000    0.000   35.357    0.000    0.000 
#
# Total GULP energy -311831.085749 kJ/mol
# GULP energy per Si atom -5568.412246 kJ/mol
# Density = 1.950797 g / cm^3
# Si number density = 19.552477 Si / 1000 Ang^3
#
#
#
# Elastic Constant Matrix: (Units=GPa)
#
#
# Indices 1 2 3 4 5 6 
#
# 1 59.1415 21.3088 12.2832 4.6699 0.0000 0.0000
# 2 21.3088 59.1415 12.2837 -4.6701 0.0000 0.0000
# 3 12.2832 12.2837 80.8900 0.0002 0.0000 0.0000
# 4 4.6699 -4.6701 0.0002 23.0271 0.0000 0.0000
# 5 0.0000 0.0000 0.0000 0.0000 23.0276 4.6709
# 6 0.0000 0.0000 0.0000 0.0000 4.6709 18.9166
#
#
#
# Elastic Compliance Matrix: (Units=1/GPa)
#
#
# Indices 1 2 3 4 5 6 
#
# 1 0.020430 -0.007395 -0.001979 -0.005643 0.000000 0.000000
# 2 -0.007395 0.020430 -0.001979 0.005643 0.000000 0.000000
# 3 -0.001979 -0.001979 0.012964 0.000000 0.000000 0.000000
# 4 -0.005643 0.005643 0.000000 0.045716 0.000000 0.000000
# 5 0.000000 0.000000 0.000000 0.000000 0.045716 -0.011288
# 6 0.000000 0.000000 0.000000 0.000000 -0.011288 0.055651
#
#
# Mechanical properties :
#
#
# Convention : Reuss Voigt Hill
#
# Bulk Modulus (GPa) = 32.13864 32.32494 32.23179
# Shear Modulus (GPa) = 21.36879 23.21409 22.29144
#
# Velocity S-wave (km/s) = 3.30948 3.44942 3.38017
# Velocity P-wave (km/s) = 5.57462 5.69499 5.63513
#
# Compressibility (1/GPa) = 0.03111519
#
# Stress axis : x y z
#
# Youngs Moduli (GPa) = 48.94801 48.94783 77.13906
#
# Poissons Ratio (x) = 0.36199 0.15268
# Poissons Ratio (y) = 0.36199 0.15269
# Poissons Ratio (z) = 0.09688 0.09689
#
# Static dielectric constant tensor:
#      x y z
#    x 1.771380 0.000000 0.000000 
#    y 0.000000 1.771390 0.000000 
#    z 0.000000 0.000000 1.793240 
# 
# From -- ./inp_files/2195.got.cif
#   From: 2010.05.17/outbox.cif.g08.bks.cpg/sg165_2_cif.got.tgz:2195.got - 2010.05.20 11:02:39.
