data_PCOD9578483
_publ_section_title
;
Structure prediction by ZEFSAII (Michael W. Deem and Ramdas Pophale) SiO2 
 PCOD9578483
Probable space group: P -3 M 1
;
_chemical_formula_sum "Si O2"
_cell_formula_units_Z 96
_cell_length_a 17.943513
_cell_length_b 17.943513
_cell_length_c 21.766759
_cell_angle_alpha 90.000000
_cell_angle_beta 90.000000
_cell_angle_gamma 120.000000
_cell_volume 6069.310384
_symmetry_space_group_name_H-M "P -3 M 1"
_symmetry_group_IT_number 164
_symmetry_cell_setting 'hexagonal'
loop_
_space_group_symop_operation_xyz
x,y,z
-y,x-y,z
-x+y,-x,z
x-y,-y,-z
-x,-x+y,-z
y,x,-z
-x,-y,-z
y,-x+y,-z
x-y,x,-z
-x+y,y,z
x,x-y,z
-y,-x,z
loop_
_atom_site_type_symbol
_atom_site_label
_atom_site_fract_x
_atom_site_fract_y
_atom_site_fract_z
Si Si1 0.668434 0.497107 0.225174
Si Si2 0.029604 0.427602 0.251368
Si Si3 0.823724 0.822528 0.801709
Si Si4 0.526559 0.887729 0.911612
Si Si5 0.829071 0.331803 0.950447
Si Si6 0.763133 0.059460 0.683351
Si Si7 0.955745 0.302204 0.873771
Si Si8 0.824209 0.823879 0.428615
O O1 0.763110 0.526220 0.247843
O O2 0.601204 0.398797 0.241389
O O3 0.627775 0.553434 0.248170
O O4 0.669716 0.503347 0.150896
O O5 0.054115 0.527058 0.256573
O O6 0.058623 0.383748 0.303051
O O7 0.058669 0.404250 0.187292
O O8 0.923830 0.847660 0.800525
O O9 0.781033 0.773231 0.737557
O O10 0.774919 0.745725 0.851901
O O11 0.813858 0.906929 0.810160
O O12 0.464975 0.929950 0.909844
O O13 0.625377 0.957742 0.905687
O O14 0.507427 0.840104 0.975992
O O15 0.859189 0.429595 0.931564
O O16 0.729964 0.270037 0.934888
O O17 0.881456 0.290986 0.919490
O O18 0.843753 0.156247 0.686615
O O19 0.767833 0.019066 0.618903
O O20 0.800505 0.800505 0.500000
O O21 0.909663 0.819325 0.415234
O O22 0.844240 0.922120 0.421243
#
# Coordination Sequence:
#
# PCOD9578483 Si02
#       8
#    12  12  12  12  12  12  12  12
#     4   9  16  26  41  62  87 113 140 170 209 259
#     4   9  18  31  46  63  86 117 149 183 223 260
#     4  10  20  33  49  69  93 119 147 180 217 257
#     4   9  18  30  44  63  85 109 137 175 223 270
#     4  11  21  32  46  64  87 112 140 177 224 277
#     4   9  18  30  46  69  94 121 152 186 222 259
#     4  10  19  32  48  65  85 111 147 183 218 262
#     4   9  16  26  42  67 100 134 162 186 217 262
#
# _framework density 15.817283
#
# number of rings (size 3 to 8) (size 9 to 14) (size 15 to 20)
#    0.000    2.500    0.000    3.875    0.000    7.500 
#    0.000    2.500    0.000    0.625    0.000    0.000 
#    0.000    5.000    0.000    0.250    0.000    0.000 
#
# Total GULP energy -534548.661467 kJ/mol
# GULP energy per Si atom -5568.215224 kJ/mol
# Density = 1.578128 g / cm^3
# Si number density = 15.817283 Si / 1000 Ang^3
#
#
#
# Elastic Constant Matrix: (Units=GPa)
#
#
# Indices 1 2 3 4 5 6 
#
# 1 10.8774 88.8977 25.6049 5.7906 0.0000 0.0000
# 2 88.8977 10.8774 25.6049 -5.7906 0.0000 0.0000
# 3 25.6049 25.6049 43.1258 0.0000 0.0000 0.0000
# 4 5.7906 -5.7906 0.0000 16.9135 0.0000 0.0000
# 5 0.0000 0.0000 0.0000 0.0000 16.9135 5.7906
# 6 0.0000 0.0000 0.0000 0.0000 5.7906 -39.0101
#
#
#
# Elastic Compliance Matrix: (Units=1/GPa)
#
#
# Indices 1 2 3 4 5 6 
#
# 1 0.001109 0.013306 -0.008559 0.004176 0.000000 0.000000
# 2 0.013306 0.001109 -0.008559 -0.004176 0.000000 0.000000
# 3 -0.008559 -0.008559 0.033351 0.000000 0.000000 0.000000
# 4 0.004176 -0.004176 0.000000 0.056265 0.000000 0.000000
# 5 0.000000 0.000000 0.000000 0.000000 0.056265 0.008352
# 6 0.000000 0.000000 0.000000 0.000000 0.008352 -0.024395
#
#
# Mechanical properties :
#
#
# Convention : Reuss Voigt Hill
#
# Bulk Modulus (GPa) = 35.78238 38.34399 37.06318
# Shear Modulus (GPa) = 35.55119 -6.05174 14.74972
#
# Velocity S-wave (km/s) = 4.74605 -1.95815 3.05701
# Velocity P-wave (km/s) = 7.25980 4.37973 5.99528
#
# Compressibility (1/GPa) = 0.02794672
#
# Stress axis : x y z
#
# Youngs Moduli (GPa) = 901.69555 901.69559 29.98397
#
# Poissons Ratio (x) = -11.99826 0.25663
# Poissons Ratio (y) = -11.99826 0.25663
# Poissons Ratio (z) = 7.71742 7.71742
#
# Static dielectric constant tensor:
#      x y z
#    x 1.575160 0.000000 0.000000 
#    y 0.000000 1.575160 0.000000 
#    z 0.000000 0.000000 1.525020 
# 
# From -- ./inp_files/5075.got.cif
#   From: 2010.05.17/outbox.cif.g08.bks.cpg/sg164_3_cif.got.tgz:5075.got - 2010.05.20 10:58:56.
