data_PCOD9578583
_publ_section_title
;
Structure prediction by ZEFSAII (Michael W. Deem and Ramdas Pophale) SiO2 
 PCOD9578583
Probable space group: P -3 M 1
;
_chemical_formula_sum "Si O2"
_cell_formula_units_Z 60
_cell_length_a 12.840910
_cell_length_b 12.840910
_cell_length_c 26.101265
_cell_angle_alpha 90.000000
_cell_angle_beta 90.000000
_cell_angle_gamma 120.000000
_cell_volume 3727.209392
_symmetry_space_group_name_H-M "P -3 M 1"
_symmetry_group_IT_number 164
_symmetry_cell_setting 'hexagonal'
loop_
_space_group_symop_operation_xyz
x,y,z
-y,x-y,z
-x+y,-x,z
x-y,-y,-z
-x,-x+y,-z
y,x,-z
-x,-y,-z
y,-x+y,-z
x-y,x,-z
-x+y,y,z
x,x-y,z
-y,-x,z
loop_
_atom_site_type_symbol
_atom_site_label
_atom_site_fract_x
_atom_site_fract_y
_atom_site_fract_z
Si Si1 0.333461 0.914001 0.354372
Si Si2 0.914306 0.580808 0.048204
Si Si3 0.246033 0.246261 0.142691
Si Si4 0.245785 0.245682 0.259600
Si Si5 0.666161 0.085228 0.451422
O O1 0.446532 0.893064 0.351249
O O2 0.211208 0.788793 0.364164
O O3 0.315879 0.968537 0.301718
O O4 0.360532 0.007542 0.400326
O O5 0.787128 0.574255 0.041468
O O6 0.897862 0.448931 0.051380
O O7 0.973297 0.654621 0.100083
O O8 0.000000 0.647055 0.000000
O O9 0.216342 0.108171 0.139810
O O10 0.287081 0.286523 0.201181
O O11 0.126531 0.253061 0.133125
O O12 0.254929 0.127465 0.269957
O O13 0.106708 0.213416 0.261740
O O14 0.557553 0.115106 0.453023
O O15 0.793914 0.206087 0.452560
O O16 0.646008 0.000000 0.500000
#
# Coordination Sequence:
#
# PCOD9578583 Si02
#       5
#    12  12  12  12  12
#     4  10  20  33  50  71  97 129 163 199 236 277
#     4  10  20  33  49  68  92 122 155 192 233 280
#     4   9  17  30  49  72  96 122 154 193 236 280
#     4   9  17  30  49  72  97 125 157 194 236 281
#     4  10  20  34  53  75  99 127 159 196 236 280
#
# _framework density 16.097835
#
# number of rings (size 3 to 8) (size 9 to 14) (size 15 to 20)
#    0.000    2.400    0.000    2.800    0.000    2.400 
#    0.000    2.000    0.000    8.800    0.000    0.000 
#    0.000    0.000    0.000    0.000    0.000    0.000 
#
# Total GULP energy -334644.594477 kJ/mol
# GULP energy per Si atom -5577.409908 kJ/mol
# Density = 1.606120 g / cm^3
# Si number density = 16.097835 Si / 1000 Ang^3
#
#
#
# Elastic Constant Matrix: (Units=GPa)
#
#
# Indices 1 2 3 4 5 6 
#
# 1 110.6615 75.2742 82.9871 2.6933 0.0000 0.0000
# 2 75.2742 110.6615 82.9871 -2.6933 0.0000 0.0000
# 3 82.9871 82.9871 137.2816 0.0000 0.0000 0.0000
# 4 2.6933 -2.6933 0.0000 24.6956 0.0000 0.0000
# 5 0.0000 0.0000 0.0000 0.0000 24.6956 2.6933
# 6 0.0000 0.0000 0.0000 0.0000 2.6933 17.6936
#
#
#
# Elastic Compliance Matrix: (Units=1/GPa)
#
#
# Indices 1 2 3 4 5 6 
#
# 1 0.020209 -0.008527 -0.007062 -0.003134 0.000000 0.000000
# 2 -0.008527 0.020209 -0.007062 0.003134 0.000000 0.000000
# 3 -0.007062 -0.007062 0.015822 0.000000 0.000000 0.000000
# 4 -0.003134 0.003134 0.000000 0.041177 0.000000 0.000000
# 5 0.000000 0.000000 0.000000 0.000000 0.041177 -0.006268
# 6 0.000000 0.000000 0.000000 0.000000 -0.006268 0.057472
#
#
# Mechanical properties :
#
#
# Convention : Reuss Voigt Hill
#
# Bulk Modulus (GPa) = 91.41800 93.45569 92.43685
# Shear Modulus (GPa) = 20.40727 21.24073 20.82400
#
# Velocity S-wave (km/s) = 3.56434 3.63640 3.60055
# Velocity P-wave (km/s) = 8.59370 8.70701 8.65054
#
# Compressibility (1/GPa) = 0.01093876
#
# Stress axis : x y z
#
# Youngs Moduli (GPa) = 49.48356 49.48356 63.20382
#
# Poissons Ratio (x) = 0.42195 0.44632
# Poissons Ratio (y) = 0.42195 0.44632
# Poissons Ratio (z) = 0.34943 0.34943
#
# Static dielectric constant tensor:
#      x y z
#    x 1.508550 0.000000 0.000000 
#    y 0.000000 1.508550 0.000000 
#    z 0.000000 0.000000 1.536420 
# 
# From -- ./inp_files/5180.got.cif
#   From: 2010.05.17/outbox.cif.g08.bks.cpg/sg164_3_cif.got.tgz:5180.got - 2010.05.20 10:58:56.
