data_PCOD9578182
_publ_section_title
;
Structure prediction by ZEFSAII (Michael W. Deem and Ramdas Pophale) SiO2 
 PCOD9578182
Probable space group: P -3 1 C
;
_chemical_formula_sum "Si O2"
_cell_formula_units_Z 36
_cell_length_a 11.377160
_cell_length_b 11.377160
_cell_length_c 13.472360
_cell_angle_alpha 90.000000
_cell_angle_beta 90.000000
_cell_angle_gamma 120.000000
_cell_volume 1510.226346
_symmetry_space_group_name_H-M "P -3 1 C"
_symmetry_group_IT_number 163
_symmetry_cell_setting 'hexagonal'
loop_
_space_group_symop_operation_xyz
x,y,z
-y,x-y,z
-x+y,-x,z
-y,-x,1/2-z
-x+y,y,1/2-z
x,x-y,1/2-z
-x,-y,-z
y,-x+y,-z
x-y,x,-z
y,x,1/2+z
x-y,-y,1/2+z
-x,-x+y,1/2+z
loop_
_atom_site_type_symbol
_atom_site_label
_atom_site_fract_x
_atom_site_fract_y
_atom_site_fract_z
Si Si1 0.361990 0.158058 0.060306
Si Si2 0.285434 0.061968 0.844921
Si Si3 0.475364 0.559216 0.859515
O O1 0.256520 0.163649 0.137471
O O2 0.488924 0.310589 0.073335
O O3 0.422916 0.063328 0.091197
O O4 0.301090 0.132333 0.951053
O O5 0.273619 0.136810 0.750000
O O6 0.418920 0.044156 0.840215
O O7 0.427933 0.572067 0.750000
#
# Coordination Sequence:
#
# PCOD9578182 Si02
#       3
#    12  12  12
#     4  10  23  42  70 104 158 196 259 310 392 461
#     4  10  25  41  70 111 158 195 261 320 393 470
#     4  10  22  39  73 109 147 199 256 302 396 457
#
# _framework density 23.837486999999999
#
# number of rings (size 3 to 8) (size 9 to 14) (size 15 to 20)
#    2.000    0.000    0.000    2.667    4.667    0.000 
#    0.000    0.000    0.000    1.333    8.667    0.000 
#    0.000    0.000    0.000    0.000    0.000    0.333 
#
# Total GULP energy -200813.186875 kJ/mol
# GULP energy per Si atom -5578.144080 kJ/mol
# Density = 2.378323 g / cm^3
# Si number density = 23.837487 Si / 1000 Ang^3
#
#
#
# Elastic Constant Matrix: (Units=GPa)
#
#
# Indices 1 2 3 4 5 6 
#
# 1 102.2868 43.0691 65.1839 0.0000 -9.2452 0.0000
# 2 43.0691 102.2868 65.1839 0.0000 9.2452 0.0000
# 3 65.1839 65.1839 191.8292 0.0000 0.0000 0.0000
# 4 0.0000 0.0000 0.0000 41.2042 0.0000 9.2452
# 5 -9.2452 9.2452 0.0000 0.0000 41.2042 0.0000
# 6 0.0000 0.0000 0.0000 9.2452 0.0000 29.6088
#
#
#
# Elastic Compliance Matrix: (Units=1/GPa)
#
#
# Indices 1 2 3 4 5 6 
#
# 1 0.014027 -0.004132 -0.003362 0.000000 0.004074 0.000000
# 2 -0.004132 0.014027 -0.003362 0.000000 -0.004074 0.000000
# 3 -0.003362 -0.003362 0.007498 0.000000 0.000000 0.000000
# 4 0.000000 0.000000 0.000000 0.026098 0.000000 -0.008149
# 5 0.004074 -0.004074 0.000000 0.000000 0.026098 0.000000
# 6 0.000000 0.000000 0.000000 -0.008149 0.000000 0.036318
#
#
# Mechanical properties :
#
#
# Convention : Reuss Voigt Hill
#
# Bulk Modulus (GPa) = 72.25928 82.58631 77.42279
# Shear Modulus (GPa) = 33.24626 37.26785 35.25705
#
# Velocity S-wave (km/s) = 3.73863 3.95829 3.85003
# Velocity P-wave (km/s) = 7.00111 7.45731 7.23281
#
# Compressibility (1/GPa) = 0.01383905
#
# Stress axis : x y z
#
# Youngs Moduli (GPa) = 71.28981 71.28981 133.36656
#
# Poissons Ratio (x) = 0.29456 0.44844
# Poissons Ratio (y) = 0.29456 0.44844
# Poissons Ratio (z) = 0.23971 0.23971
#
# Static dielectric constant tensor:
#      x y z
#    x 1.997720 0.000000 0.000000 
#    y 0.000000 1.997720 0.000000 
#    z 0.000000 0.000000 1.904790 
# 
# From -- ./inp_files/2061.got.cif
#   From: 2010.05.17/outbox.cif.g08.bks.cpg/sg163_2_cif.got.tgz:2061.got - 2010.05.20 10:56:03.
