data_PCOD9578469
_publ_section_title
;
Structure prediction by ZEFSAII (Michael W. Deem and Ramdas Pophale) SiO2 
 PCOD9578469
Probable space group: P -3 M 1
;
_chemical_formula_sum "Si O2"
_cell_formula_units_Z 84
_cell_length_a 19.135866
_cell_length_b 19.135866
_cell_length_c 13.527123
_cell_angle_alpha 90.000000
_cell_angle_beta 90.000000
_cell_angle_gamma 120.000000
_cell_volume 4289.753261
_symmetry_space_group_name_H-M "P -3 M 1"
_symmetry_group_IT_number 164
_symmetry_cell_setting 'hexagonal'
loop_
_space_group_symop_operation_xyz
x,y,z
-y,x-y,z
-x+y,-x,z
x-y,-y,-z
-x,-x+y,-z
y,x,-z
-x,-y,-z
y,-x+y,-z
x-y,x,-z
-x+y,y,z
x,x-y,z
-y,-x,z
loop_
_atom_site_type_symbol
_atom_site_label
_atom_site_fract_x
_atom_site_fract_y
_atom_site_fract_z
Si Si1 0.167932 0.189288 0.896698
Si Si2 0.032662 0.682331 0.104745
Si Si3 0.311986 0.973394 0.676647
Si Si4 0.333896 0.827352 0.603714
Si Si5 0.666045 0.487780 0.832121
Si Si6 0.697374 0.145518 0.614074
Si Si7 0.841712 0.999924 0.328022
O O1 0.119689 0.239378 0.894152
O O2 0.264291 0.236890 0.902065
O O3 0.148285 0.147383 0.791063
O O4 0.142957 0.142957 0.000000
O O5 0.984449 0.646412 0.207293
O O6 0.120606 0.695601 0.122224
O O7 0.000000 0.638331 0.000000
O O8 0.310478 0.893201 0.640509
O O9 0.230259 0.978493 0.661627
O O10 0.380662 0.052324 0.620831
O O11 0.420990 0.841980 0.637062
O O12 0.261838 0.738163 0.630532
O O13 0.334578 0.835048 0.484722
O O14 0.729791 0.459581 0.855219
O O15 0.577186 0.422815 0.865167
O O16 0.666775 0.500132 0.713971
O O17 0.794558 0.205443 0.614493
O O18 0.925476 0.074525 0.367479
O O19 0.824566 0.912283 0.365054
#
# Coordination Sequence:
#
# PCOD9578469 Si02
#       7
#    12  12  12  12  12  12  12
#     4   9  17  29  48  74 103 135 173 220 273 327
#     4   9  20  35  54  77 106 144 189 234 278 323
#     4  10  20  35  57  82 111 144 186 233 275 324
#     4  11  23  39  59  84 115 148 181 220 274 339
#     4  10  20  35  56  83 114 146 182 226 278 333
#     4   9  19  35  58  88 116 142 173 217 277 338
#     4  10  19  31  48  72 105 144 184 224 267 317
#
# _framework density 19.581544999999998
#
# number of rings (size 3 to 8) (size 9 to 14) (size 15 to 20)
#    0.000    2.286    0.000    2.571    0.000   10.000 
#    0.000    1.429    0.000    2.286    0.000    2.000 
#    0.000    6.857    0.000    0.000    0.000    0.000 
#
# Total GULP energy -467644.257365 kJ/mol
# GULP energy per Si atom -5567.193540 kJ/mol
# Density = 1.953698 g / cm^3
# Si number density = 19.581545 Si / 1000 Ang^3
#
#
#
# Elastic Constant Matrix: (Units=GPa)
#
#
# Indices 1 2 3 4 5 6 
#
# 1 110.4035 72.7223 11.3271 2.3963 0.0000 0.0000
# 2 72.7223 110.4035 11.3271 -2.3963 0.0000 0.0000
# 3 11.3271 11.3271 35.8419 0.0000 0.0000 0.0000
# 4 2.3963 -2.3963 0.0000 11.6043 0.0000 0.0000
# 5 0.0000 0.0000 0.0000 0.0000 11.6043 2.3963
# 6 0.0000 0.0000 0.0000 0.0000 2.3963 18.8406
#
#
#
# Elastic Compliance Matrix: (Units=1/GPa)
#
#
# Indices 1 2 3 4 5 6 
#
# 1 0.016469 -0.010786 -0.001796 -0.005628 0.000000 0.000000
# 2 -0.010786 0.016469 -0.001796 0.005628 0.000000 0.000000
# 3 -0.001796 -0.001796 0.029035 0.000000 0.000000 0.000000
# 4 -0.005628 0.005628 0.000000 0.088499 0.000000 0.000000
# 5 0.000000 0.000000 0.000000 0.000000 0.088499 -0.011256
# 6 0.000000 0.000000 0.000000 0.000000 -0.011256 0.054509
#
#
# Mechanical properties :
#
#
# Convention : Reuss Voigt Hill
#
# Bulk Modulus (GPa) = 30.10470 49.71132 39.90801
# Shear Modulus (GPa) = 15.00117 19.16134 17.08125
#
# Velocity S-wave (km/s) = 2.77083 3.13156 2.95670
# Velocity P-wave (km/s) = 5.06400 6.20624 5.66399
#
# Compressibility (1/GPa) = 0.03321741
#
# Stress axis : x y z
#
# Youngs Moduli (GPa) = 60.72169 60.72169 34.44064
#
# Poissons Ratio (x) = 0.65492 0.06185
# Poissons Ratio (y) = 0.65492 0.06185
# Poissons Ratio (z) = 0.10905 0.10905
#
# Static dielectric constant tensor:
#      x y z
#    x 1.691250 0.000000 0.000000 
#    y 0.000000 1.691250 0.000000 
#    z 0.000000 0.000000 1.718380 
# 
# From -- ./inp_files/3613.got.cif
#   From: 2010.05.17/outbox.cif.g08.bks.cpg/sg164_2_cif.got.tgz:3613.got - 2010.05.20 10:58:56.
