data_PCOD9578099
_publ_section_title
;
Structure prediction by ZEFSAII (Michael W. Deem and Ramdas Pophale) SiO2 
 PCOD9578099
Probable space group: P -3 1 C
;
_chemical_formula_sum "Si O2"
_cell_formula_units_Z 84
_cell_length_a 28.537464
_cell_length_b 28.537464
_cell_length_c 5.591454
_cell_angle_alpha 90.000000
_cell_angle_beta 90.000000
_cell_angle_gamma 120.000000
_cell_volume 3943.539011
_symmetry_space_group_name_H-M "P -3 1 C"
_symmetry_group_IT_number 163
_symmetry_cell_setting 'hexagonal'
loop_
_space_group_symop_operation_xyz
x,y,z
-y,x-y,z
-x+y,-x,z
-y,-x,1/2-z
-x+y,y,1/2-z
x,x-y,1/2-z
-x,-y,-z
y,-x+y,-z
x-y,x,-z
y,x,1/2+z
x-y,-y,1/2+z
-x,-x+y,1/2+z
loop_
_atom_site_type_symbol
_atom_site_label
_atom_site_fract_x
_atom_site_fract_y
_atom_site_fract_z
Si Si1 0.779080 0.133731 0.595142
Si Si2 0.253408 0.989507 0.357830
Si Si3 0.593017 0.561146 0.093895
Si Si4 0.521928 0.260964 0.250000
Si Si5 0.363101 0.568506 0.077400
Si Si6 0.624594 0.918985 0.706864
Si Si7 0.118117 0.559059 0.750000
Si Si8 0.164280 0.460970 0.126909
O O1 0.833578 0.166423 0.750000
O O2 0.763694 0.127057 0.312095
O O3 0.744009 0.158892 0.695267
O O4 0.758003 0.071250 0.653950
O O5 0.317908 0.032195 0.374669
O O6 0.231114 0.996335 0.611353
O O7 0.566175 0.574868 0.324322
O O8 0.657327 0.601661 0.101758
O O9 0.581127 0.501893 0.166774
O O10 0.558114 0.317524 0.385326
O O11 0.485242 0.214194 0.440600
O O12 0.380684 0.619317 0.250000
O O13 0.337406 0.511136 0.213664
O O14 0.420414 0.581438 0.965174
O O15 0.574906 0.890804 0.522497
#
# Coordination Sequence:
#
# PCOD9578099 Si02
#       8
#    12  12  12   6  12  12   6  12
#     4  11  22  37  60  94 131 172 215 273 324 388
#     4  10  20  38  57  84 127 171 219 265 327 383
#     4  12  27  43  68  98 137 179 226 270 315 389
#     4  12  26  48  70 109 122 154 204 262 334 404
#     4  12  27  47  75  95 127 161 197 258 329 412
#     4  11  23  39  62  93 129 171 218 263 327 390
#     4  12  28  48  66  97 130 172 210 258 322 396
#     4  12  23  42  71  96 126 158 206 260 322 398
#
# _framework density 21.300666
#
# number of rings (size 3 to 8) (size 9 to 14) (size 15 to 20)
#    0.000    0.571    1.429    8.571    6.000    0.000 
#    0.000    0.000    0.000   24.000    0.000    0.000 
#    0.000    0.000    0.000    0.000    0.000    0.000 
#
# Total GULP energy -468650.425622 kJ/mol
# GULP energy per Si atom -5579.171734 kJ/mol
# Density = 2.125218 g / cm^3
# Si number density = 21.300666 Si / 1000 Ang^3
#
#
#
# Elastic Constant Matrix: (Units=GPa)
#
#
# Indices 1 2 3 4 5 6 
#
# 1 55.3785 32.9367 35.2133 -0.0006 -14.5416 0.0000
# 2 32.9367 55.3785 35.2133 0.0006 14.5416 0.0000
# 3 35.2133 35.2133 108.7389 0.0000 0.0000 0.0000
# 4 -0.0006 0.0006 0.0000 25.4151 0.0000 14.5416
# 5 -14.5416 14.5416 0.0000 0.0000 25.4151 -0.0006
# 6 0.0000 0.0000 0.0000 14.5416 -0.0006 11.2209
#
#
#
# Elastic Compliance Matrix: (Units=1/GPa)
#
#
# Indices 1 2 3 4 5 6 
#
# 1 0.093817 -0.078552 -0.004943 0.000004 0.098623 0.000000
# 2 -0.078552 0.093817 -0.004943 -0.000004 -0.098623 0.000000
# 3 -0.004943 -0.004943 0.012398 0.000000 0.000000 0.000000
# 4 0.000004 -0.000004 0.000000 0.152204 0.000000 -0.197246
# 5 0.098623 -0.098623 0.000000 0.000000 0.152204 0.000008
# 6 0.000000 0.000000 0.000000 -0.197246 0.000008 0.344739
#
#
# Mechanical properties :
#
#
# Convention : Reuss Voigt Hill
#
# Bulk Modulus (GPa) = 43.18754 47.35805 45.27280
# Shear Modulus (GPa) = 4.83665 20.15239 12.49452
#
# Velocity S-wave (km/s) = 1.50850 3.07920 2.42457
# Velocity P-wave (km/s) = 4.83253 5.90960 5.39799
#
# Compressibility (1/GPa) = 0.02315483
#
# Stress axis : x y z
#
# Youngs Moduli (GPa) = 10.65902 10.65902 80.65821
#
# Poissons Ratio (x) = 0.83729 0.39872
# Poissons Ratio (y) = 0.83729 0.39872
# Poissons Ratio (z) = 0.05269 0.05269
#
# Static dielectric constant tensor:
#      x y z
#    x 1.777490 0.000000 0.000000 
#    y 0.000000 1.777490 0.000000 
#    z 0.000000 0.000000 1.914310 
# 
# From -- ./inp_files/463.got.cif
#   From: 2010.05.17/outbox.cif.g08.bks.cpg/sg163_1_cif.got.tgz:463.got - 2010.05.20 10:56:03.
