data_PCOD9578118
_publ_section_title
;
Structure prediction by ZEFSAII (Michael W. Deem and Ramdas Pophale) SiO2 
 PCOD9578118
Probable space group: P -3 1 C
;
_chemical_formula_sum "Si O2"
_cell_formula_units_Z 58
_cell_length_a 14.662414
_cell_length_b 14.662414
_cell_length_c 12.817666
_cell_angle_alpha 90.000000
_cell_angle_beta 90.000000
_cell_angle_gamma 120.000000
_cell_volume 2386.440100
_symmetry_space_group_name_H-M "P -3 1 C"
_symmetry_group_IT_number 163
_symmetry_cell_setting 'hexagonal'
loop_
_space_group_symop_operation_xyz
x,y,z
-y,x-y,z
-x+y,-x,z
-y,-x,1/2-z
-x+y,y,1/2-z
x,x-y,1/2-z
-x,-y,-z
y,-x+y,-z
x-y,x,-z
y,x,1/2+z
x-y,-y,1/2+z
-x,-x+y,1/2+z
loop_
_atom_site_type_symbol
_atom_site_label
_atom_site_fract_x
_atom_site_fract_y
_atom_site_fract_z
Si Si1 0.908541 0.817081 0.250000
Si Si2 0.117430 0.523171 0.477374
Si Si3 0.177262 0.748963 0.539264
Si Si4 0.000000 0.000000 0.381129
Si Si5 0.598560 0.585844 0.292905
Si Si6 0.073740 0.301385 0.159580
O O1 0.805605 0.768508 0.180574
O O2 0.902041 0.895896 0.334911
O O3 0.182950 0.648616 0.491495
O O4 0.163449 0.463648 0.547119
O O5 0.000000 0.500000 0.500000
O O6 0.091447 0.468893 0.364296
O O7 0.099652 0.699567 0.640167
O O8 0.122504 0.789859 0.455365
O O9 0.000000 0.000000 0.500000
O O10 0.532168 0.467833 0.250000
O O11 0.616622 0.654466 0.191153
O O12 0.153380 0.306760 0.250000
#
# Coordination Sequence:
#
# PCOD9578118 Si02
#       6
#     6  12  12   4  12  12
#     4  10  24  44  62 104 144 178 246 304 362 456
#     4  10  22  42  69 102 146 187 248 311 369 457
#     4  11  24  43  74 102 146 199 248 305 395 449
#     4  10  20  40  67  86 145 190 224 292 361 440
#     4  11  24  44  69 106 150 189 245 315 378 461
#     4  12  23  43  71 104 143 190 246 308 382 456
#
# _framework density 24.303982999999999
#
# number of rings (size 3 to 8) (size 9 to 14) (size 15 to 20)
#    0.000    1.241    6.207    0.414    0.000    4.966 
#    0.000    0.000    0.000    0.000    0.000    0.000 
#    0.000    0.000    0.000    0.000    0.000    0.000 
#
# Total GULP energy -323207.072905 kJ/mol
# GULP energy per Si atom -5572.535740 kJ/mol
# Density = 2.424867 g / cm^3
# Si number density = 24.303983 Si / 1000 Ang^3
#
#
#
# Elastic Constant Matrix: (Units=GPa)
#
#
# Indices 1 2 3 4 5 6 
#
# 1 85.3632 14.5471 16.2460 -0.0001 0.9910 0.0000
# 2 14.5471 85.3632 16.2460 0.0001 -0.9910 0.0000
# 3 16.2460 16.2460 86.5883 0.0000 0.0000 0.0000
# 4 -0.0001 0.0001 0.0000 33.4297 0.0000 -0.9910
# 5 0.9910 -0.9910 0.0000 0.0000 33.4297 -0.0001
# 6 0.0000 0.0000 0.0000 -0.9910 -0.0001 35.4081
#
#
#
# Elastic Compliance Matrix: (Units=1/GPa)
#
#
# Indices 1 2 3 4 5 6 
#
# 1 0.012396 -0.001737 -0.002000 0.000000 -0.000419 0.000000
# 2 -0.001737 0.012396 -0.002000 0.000000 0.000419 0.000000
# 3 -0.002000 -0.002000 0.012299 0.000000 0.000000 0.000000
# 4 0.000000 0.000000 0.000000 0.029938 0.000000 0.000838
# 5 -0.000419 0.000419 0.000000 0.000000 0.029938 0.000000
# 6 0.000000 0.000000 0.000000 0.000838 0.000000 0.028266
#
#
# Mechanical properties :
#
#
# Convention : Reuss Voigt Hill
#
# Bulk Modulus (GPa) = 39.03451 39.04364 39.03907
# Shear Modulus (GPa) = 34.42425 34.47189 34.44807
#
# Velocity S-wave (km/s) = 3.76760 3.77020 3.76890
# Velocity P-wave (km/s) = 5.91796 5.92049 5.91922
#
# Compressibility (1/GPa) = 0.02561836
#
# Stress axis : x y z
#
# Youngs Moduli (GPa) = 80.67060 80.67060 81.30496
#
# Poissons Ratio (x) = 0.14010 0.16261
# Poissons Ratio (y) = 0.14010 0.16261
# Poissons Ratio (z) = 0.16134 0.16134
#
# Static dielectric constant tensor:
#      x y z
#    x 2.147250 0.000000 0.000000 
#    y 0.000000 2.147250 0.000000 
#    z 0.000000 0.000000 2.087660 
# 
# From -- ./inp_files/2402.got.cif
#   From: 2010.05.17/outbox.cif.g08.bks.cpg/sg163_2_cif.got.tgz:2402.got - 2010.05.20 10:56:03.
