data_PCOD9578400
_publ_section_title
;
Structure prediction by ZEFSAII (Michael W. Deem and Ramdas Pophale) SiO2 
 PCOD9578400
Probable space group: P -3 M 1
;
_chemical_formula_sum "Si O2"
_cell_formula_units_Z 90
_cell_length_a 26.975004
_cell_length_b 26.975004
_cell_length_c 9.183533
_cell_angle_alpha 90.000000
_cell_angle_beta 90.000000
_cell_angle_gamma 120.000000
_cell_volume 5787.132929
_symmetry_space_group_name_H-M "P -3 M 1"
_symmetry_group_IT_number 164
_symmetry_cell_setting 'hexagonal'
loop_
_space_group_symop_operation_xyz
x,y,z
-y,x-y,z
-x+y,-x,z
x-y,-y,-z
-x,-x+y,-z
y,x,-z
-x,-y,-z
y,-x+y,-z
x-y,x,-z
-x+y,y,z
x,x-y,z
-y,-x,z
loop_
_atom_site_type_symbol
_atom_site_label
_atom_site_fract_x
_atom_site_fract_y
_atom_site_fract_z
Si Si1 0.778845 0.107186 0.831395
Si Si2 0.558423 0.224100 0.761818
Si Si3 0.977747 0.354681 0.279591
Si Si4 0.884938 0.384336 0.206854
Si Si5 0.307403 0.806956 0.538125
Si Si6 0.295598 0.382662 0.437360
Si Si7 0.546192 0.717310 0.024926
Si Si8 0.298552 0.000000 0.000000
O O1 0.845021 0.154980 0.837920
O O2 0.756540 0.094979 0.664187
O O3 0.743401 0.134294 0.908048
O O4 0.758281 0.049783 0.923904
O O5 0.603079 0.206159 0.815212
O O6 0.582115 0.291058 0.787618
O O7 0.545809 0.212266 0.591741
O O8 0.498753 0.191706 0.844149
O O9 0.945002 0.390066 0.257742
O O10 0.943316 0.307016 0.404855
O O11 0.042060 0.392542 0.341403
O O12 0.978869 0.323916 0.130922
O O13 0.888987 0.444494 0.168952
O O14 0.839537 0.353354 0.336781
O O15 0.862495 0.335680 0.082500
O O16 0.249139 0.750862 0.588208
O O17 0.291844 0.852871 0.469593
O O18 0.542741 0.771371 0.958785
#
# Coordination Sequence:
#
# PCOD9578400 Si02
#       8
#    12  12  12  12  12  12  12   6
#     4  10  18  31  53  76  98 131 163 198 242 285
#     4  10  19  31  45  62  82 108 143 192 249 305
#     4   9  19  32  49  69  94 129 153 193 251 287
#     4  11  21  34  47  66  92 120 153 193 245 307
#     4  10  19  32  50  68  85 110 147 196 243 292
#     4   9  17  32  50  68  94 120 155 195 240 292
#     4  10  19  32  48  67  88 114 156 197 238 293
#     4  10  18  34  53  72 112 128 161 208 238 280
#
# _framework density 15.551743
#
# number of rings (size 3 to 8) (size 9 to 14) (size 15 to 20)
#    0.000    2.133    2.667    1.733    0.000    0.000 
#    0.000    7.000    0.000    3.733    0.000    0.000 
#    0.000    0.000    0.000    0.200    0.000    0.000 
#
# Total GULP energy -501294.079179 kJ/mol
# GULP energy per Si atom -5569.934213 kJ/mol
# Density = 1.551635 g / cm^3
# Si number density = 15.551743 Si / 1000 Ang^3
#
#
#
# Elastic Constant Matrix: (Units=GPa)
#
#
# Indices 1 2 3 4 5 6 
#
# 1 54.5938 27.9042 12.0927 0.5989 0.0000 0.0000
# 2 27.9042 54.5938 12.0927 -0.5989 0.0000 0.0000
# 3 12.0927 12.0927 68.3184 0.0000 0.0000 0.0000
# 4 0.5989 -0.5989 0.0000 14.5727 0.0000 0.0000
# 5 0.0000 0.0000 0.0000 0.0000 14.5727 0.5989
# 6 0.0000 0.0000 0.0000 0.0000 0.5989 13.3448
#
#
#
# Elastic Compliance Matrix: (Units=1/GPa)
#
#
# Indices 1 2 3 4 5 6 
#
# 1 0.025161 -0.012376 -0.002263 -0.001543 0.000000 0.000000
# 2 -0.012376 0.025161 -0.002263 0.001543 0.000000 0.000000
# 3 -0.002263 -0.002263 0.015438 0.000000 0.000000 0.000000
# 4 -0.001543 0.001543 0.000000 0.068748 0.000000 0.000000
# 5 0.000000 0.000000 0.000000 0.000000 0.068748 -0.003086
# 6 0.000000 0.000000 0.000000 0.000000 -0.003086 0.075074
#
#
# Mechanical properties :
#
#
# Convention : Reuss Voigt Hill
#
# Bulk Modulus (GPa) = 31.29270 31.29837 31.29553
# Shear Modulus (GPa) = 15.49005 16.85910 16.17458
#
# Velocity S-wave (km/s) = 3.15942 3.29609 3.22848
# Velocity P-wave (km/s) = 5.78573 5.88681 5.83649
#
# Compressibility (1/GPa) = 0.03195633
#
# Stress axis : x y z
#
# Youngs Moduli (GPa) = 39.74400 39.74400 64.77320
#
# Poissons Ratio (x) = 0.49188 0.14658
# Poissons Ratio (y) = 0.49188 0.14658
# Poissons Ratio (z) = 0.08994 0.08994
#
# Static dielectric constant tensor:
#      x y z
#    x 1.521430 0.000000 0.000000 
#    y 0.000000 1.521430 0.000000 
#    z 0.000000 0.000000 1.550880 
# 
# From -- ./inp_files/2151.got.cif
#   From: 2010.05.17/outbox.cif.g08.bks.cpg/sg164_2_cif.got.tgz:2151.got - 2010.05.20 10:58:56.
