data_PCOD9578744
_publ_section_title
;
Structure prediction by ZEFSAII (Michael W. Deem and Ramdas Pophale) SiO2 
 PCOD9578744
Probable space group: P -3 M 1
;
_chemical_formula_sum "Si O2"
_cell_formula_units_Z 72
_cell_length_a 24.552381
_cell_length_b 24.552381
_cell_length_c 7.105799
_cell_angle_alpha 90.000000
_cell_angle_beta 90.000000
_cell_angle_gamma 120.000000
_cell_volume 3709.631578
_symmetry_space_group_name_H-M "P -3 M 1"
_symmetry_group_IT_number 164
_symmetry_cell_setting 'hexagonal'
loop_
_space_group_symop_operation_xyz
x,y,z
-y,x-y,z
-x+y,-x,z
x-y,-y,-z
-x,-x+y,-z
y,x,-z
-x,-y,-z
y,-x+y,-z
x-y,x,-z
-x+y,y,z
x,x-y,z
-y,-x,z
loop_
_atom_site_type_symbol
_atom_site_label
_atom_site_fract_x
_atom_site_fract_y
_atom_site_fract_z
Si Si1 0.362965 0.518778 0.753469
Si Si2 0.445543 0.438833 0.226402
Si Si3 0.255610 0.866046 0.758917
Si Si4 0.541357 0.206282 0.667583
Si Si5 0.263749 0.402259 0.300283
Si Si6 0.992928 0.317354 0.708357
O O1 0.414078 0.585923 0.843898
O O2 0.403053 0.483482 0.723021
O O3 0.299396 0.460642 0.837499
O O4 0.342692 0.536099 0.557377
O O5 0.488755 0.511246 0.286805
O O6 0.377235 0.395308 0.307721
O O7 0.438984 0.438984 0.000000
O O8 0.183469 0.816532 0.802114
O O9 0.263053 0.866258 0.529754
O O10 0.284363 0.939736 0.806833
O O11 0.600535 0.201070 0.734345
O O12 0.550085 0.275043 0.701681
O O13 0.473218 0.154817 0.744954
O O14 0.199186 0.398372 0.245507
O O15 0.268091 0.343823 0.217680
O O16 0.000000 0.296823 0.500000
#
# Coordination Sequence:
#
# PCOD9578744 Si02
#       6
#    12  12  12  12  12  12
#     4   8  13  21  33  47  64  89 117 141 171 213
#     4   9  17  27  37  51  73  97 118 146 185 221
#     4   8  13  22  35  52  73  93 113 144 183 214
#     4   9  15  22  33  51  75 100 126 160 200 234
#     4   8  14  23  34  50  74  97 117 146 183 221
#     4   9  16  25  40  58  72  93 123 150 180 221
#
# _framework density 19.408936000000001
#
# number of rings (size 3 to 8) (size 9 to 14) (size 15 to 20)
#    0.000    3.500    0.000    2.667    0.000    1.000 
#    0.000    1.667    0.000    5.333    0.000    0.000 
#    0.000    0.000    0.000    2.500    0.000   19.833 
#
# Total GULP energy -400843.011691 kJ/mol
# GULP energy per Si atom -5567.264051 kJ/mol
# Density = 1.936476 g / cm^3
# Si number density = 19.408936 Si / 1000 Ang^3
#
#
#
# Elastic Constant Matrix: (Units=GPa)
#
#
# Indices 1 2 3 4 5 6 
#
# 1 97.8470 62.2261 4.4739 -2.0243 0.0000 0.0000
# 2 62.2261 97.8470 4.4739 2.0243 0.0000 0.0000
# 3 4.4739 4.4739 74.5286 0.0000 0.0000 0.0000
# 4 -2.0243 2.0243 0.0000 -14.2121 0.0000 0.0000
# 5 0.0000 0.0000 0.0000 0.0000 -14.2121 -2.0243
# 6 0.0000 0.0000 0.0000 0.0000 -2.0243 17.8105
#
#
#
# Elastic Compliance Matrix: (Units=1/GPa)
#
#
# Indices 1 2 3 4 5 6 
#
# 1 0.016947 -0.010679 -0.000376 -0.003935 0.000000 0.000000
# 2 -0.010679 0.016947 -0.000376 0.003935 0.000000 0.000000
# 3 -0.000376 -0.000376 0.013463 0.000000 0.000000 0.000000
# 4 -0.003935 0.003935 0.000000 -0.069242 0.000000 0.000000
# 5 0.000000 0.000000 0.000000 0.000000 -0.069242 -0.007870
# 6 0.000000 0.000000 0.000000 0.000000 -0.007870 0.055252
#
#
# Mechanical properties :
#
#
# Convention : Reuss Voigt Hill
#
# Bulk Modulus (GPa) = 40.82616 45.84116 43.33366
# Shear Modulus (GPa) = -1031.78005 11.14717 -510.31644
#
# Velocity S-wave (km/s) = -23.08148 2.39912 -16.23266
# Velocity P-wave (km/s) = 26.25374 5.59859 18.13718
#
# Compressibility (1/GPa) = 0.02449410
#
# Stress axis : x y z
#
# Youngs Moduli (GPa) = 59.00695 59.00695 74.27856
#
# Poissons Ratio (x) = 0.63013 0.02795
# Poissons Ratio (y) = 0.63013 0.02795
# Poissons Ratio (z) = 0.02220 0.02220
#
# Static dielectric constant tensor:
#      x y z
#    x 1.702300 0.000000 0.000000 
#    y 0.000000 1.702300 0.000000 
#    z 0.000000 0.000000 1.728820 
# 
# From -- ./inp_files/1965.got.cif
#   From: 2010.05.17/outbox.cif.g08.bks.cpg/sg164_1_cif.got.tgz:1965.got - 2010.05.20 10:58:56.
