data_PCOD9578132
_publ_section_title
;
Structure prediction by ZEFSAII (Michael W. Deem and Ramdas Pophale) SiO2 
 PCOD9578132
Probable space group: P -3 1 C
;
_chemical_formula_sum "Si O2"
_cell_formula_units_Z 48
_cell_length_a 16.390149
_cell_length_b 16.390149
_cell_length_c 10.384734
_cell_angle_alpha 90.000000
_cell_angle_beta 90.000000
_cell_angle_gamma 120.000000
_cell_volume 2415.971528
_symmetry_space_group_name_H-M "P -3 1 C"
_symmetry_group_IT_number 163
_symmetry_cell_setting 'hexagonal'
loop_
_space_group_symop_operation_xyz
x,y,z
-y,x-y,z
-x+y,-x,z
-y,-x,1/2-z
-x+y,y,1/2-z
x,x-y,1/2-z
-x,-y,-z
y,-x+y,-z
x-y,x,-z
y,x,1/2+z
x-y,-y,1/2+z
-x,-x+y,1/2+z
loop_
_atom_site_type_symbol
_atom_site_label
_atom_site_fract_x
_atom_site_fract_y
_atom_site_fract_z
Si Si1 0.735874 0.599984 0.642909
Si Si2 0.534575 0.967783 0.875204
Si Si3 0.125931 0.218052 0.495761
Si Si4 0.812418 0.224230 0.107815
O O1 0.784971 0.569941 0.750000
O O2 0.632515 0.577364 0.675697
O O3 0.806064 0.712108 0.616653
O O4 0.735547 0.553939 0.505092
O O5 0.467552 0.935103 0.750000
O O6 0.560079 0.890203 0.922842
O O7 0.500000 0.000000 0.000000
O O8 0.162398 0.147265 0.535659
O O9 0.142766 0.298338 0.600056
O O10 0.777096 0.222905 0.250000
#
# Coordination Sequence:
#
# PCOD9578132 Si02
#       4
#    12  12  12  12
#     4  10  21  39  63  90 134 168 205 273 321 374
#     4  12  24  40  68 101 119 173 233 264 326 408
#     4  10  21  36  64  94 140 178 218 250 315 380
#     4  10  21  39  63  90 134 168 205 273 321 374
#
# _framework density 19.867785000000001
#
# number of rings (size 3 to 8) (size 9 to 14) (size 15 to 20)
#    1.500    0.000    2.500    3.250    3.500    0.000 
#    0.000    0.000    0.000   23.000    0.000    0.000 
#    0.000    0.000    0.000    0.000    0.000    0.000 
#
# Total GULP energy -267330.273666 kJ/mol
# GULP energy per Si atom -5569.380701 kJ/mol
# Density = 1.982257 g / cm^3
# Si number density = 19.867785 Si / 1000 Ang^3
#
#
#
# Elastic Constant Matrix: (Units=GPa)
#
#
# Indices 1 2 3 4 5 6 
#
# 1 50.2811 7.0025 -2.0627 0.0001 -0.5515 0.0000
# 2 7.0025 50.2811 -2.0627 -0.0001 0.5515 0.0000
# 3 -2.0627 -2.0627 49.4464 0.0000 0.0000 0.0000
# 4 0.0001 -0.0001 0.0000 20.3601 0.0000 0.5515
# 5 -0.5515 0.5515 0.0000 0.0000 20.3601 0.0001
# 6 0.0000 0.0000 0.0000 0.5515 0.0001 21.6393
#
#
#
# Elastic Compliance Matrix: (Units=1/GPa)
#
#
# Indices 1 2 3 4 5 6 
#
# 1 0.020316 -0.002806 0.000730 0.000000 0.000626 0.000000
# 2 -0.002806 0.020316 0.000730 0.000000 -0.000626 0.000000
# 3 0.000730 0.000730 0.020285 0.000000 0.000000 0.000000
# 4 0.000000 0.000000 0.000000 0.049150 0.000000 -0.001253
# 5 0.000626 -0.000626 0.000000 0.000000 0.049150 0.000000
# 6 0.000000 0.000000 0.000000 -0.001253 0.000000 0.046244
#
#
# Mechanical properties :
#
#
# Convention : Reuss Voigt Hill
#
# Bulk Modulus (GPa) = 17.17453 17.30699 17.24076
# Shear Modulus (GPa) = 21.97230 22.28067 22.12648
#
# Velocity S-wave (km/s) = 3.32915 3.35243 3.34081
# Velocity P-wave (km/s) = 4.84158 4.86981 4.85572
#
# Compressibility (1/GPa) = 0.05822577
#
# Stress axis : x y z
#
# Youngs Moduli (GPa) = 49.22271 49.22271 49.29784
#
# Poissons Ratio (x) = 0.13813 -0.03601
# Poissons Ratio (y) = 0.13813 -0.03601
# Poissons Ratio (z) = -0.03595 -0.03595
#
# Static dielectric constant tensor:
#      x y z
#    x 1.701500 0.000000 0.000000 
#    y 0.000000 1.701500 0.000000 
#    z 0.000000 0.000000 1.717050 
# 
# From -- ./inp_files/1558.got.cif
#   From: 2010.05.17/outbox.cif.g08.bks.cpg/sg163_1_cif.got.tgz:1558.got - 2010.05.20 10:56:03.
