data_PCOD9578880
_publ_section_title
;
Structure prediction by ZEFSAII (Michael W. Deem and Ramdas Pophale) SiO2 
 PCOD9578880
Probable space group: P -3 C 1
;
_chemical_formula_sum "Si O2"
_cell_formula_units_Z 72
_cell_length_a 16.160542
_cell_length_b 16.160542
_cell_length_c 16.579004
_cell_angle_alpha 90.000000
_cell_angle_beta 90.000000
_cell_angle_gamma 120.000000
_cell_volume 3749.737901
_symmetry_space_group_name_H-M "P -3 C 1"
_symmetry_group_IT_number 165
_symmetry_cell_setting 'hexagonal'
loop_
_space_group_symop_operation_xyz
x,y,z
-y,x-y,z
-x+y,-x,z
x-y,-y,1/2-z
-x,-x+y,1/2-z
y,x,1/2-z
-x,-y,-z
y,-x+y,-z
x-y,x,-z
-x+y,y,1/2+z
x,x-y,1/2+z
-y,-x,1/2+z
loop_
_atom_site_type_symbol
_atom_site_label
_atom_site_fract_x
_atom_site_fract_y
_atom_site_fract_z
Si Si1 0.030158 0.182094 0.041754
Si Si2 0.356207 0.509685 0.633070
Si Si3 0.388884 0.105343 0.219599
Si Si4 0.906479 0.165103 0.805107
Si Si5 0.847239 0.544150 0.398456
Si Si6 0.340479 0.370515 0.946918
O O1 0.087850 0.196002 0.125550
O O2 0.017883 0.274842 0.035717
O O3 0.093663 0.170054 0.972109
O O4 0.308737 0.476679 0.721940
O O5 0.264065 0.493194 0.581910
O O6 0.451803 0.609747 0.641959
O O7 0.385239 0.438390 0.589971
O O8 0.300979 0.118628 0.244365
O O9 0.399035 0.107293 0.124720
O O10 0.359500 0.000000 0.250000
O O11 0.891966 0.247355 0.849337
O O12 0.000000 0.205450 0.750000
O O13 0.915088 0.570342 0.475720
#
# Coordination Sequence:
#
# PCOD9578880 Si02
#       6
#    12  12  12  12  12  12
#     4  12  24  42  63  91 131 172 216 271 325 377
#     4  10  21  39  61  91 122 162 206 260 328 374
#     4   9  19  38  59  83 118 163 201 256 317 370
#     4  11  24  37  61  91 121 166 215 259 321 389
#     4  11  22  41  64  94 125 165 212 269 324 391
#     4  11  20  40  66  87 123 168 213 258 321 393
#
# _framework density 19.201343000000001
#
# number of rings (size 3 to 8) (size 9 to 14) (size 15 to 20)
#    0.000    1.333    6.667    1.000    2.333    3.333 
#    0.000    3.333    0.000    0.000    0.000    0.000 
#    0.000    0.000    0.000    0.000    0.000    0.000 
#
# Total GULP energy -400975.309919 kJ/mol
# GULP energy per Si atom -5569.101527 kJ/mol
# Density = 1.915764 g / cm^3
# Si number density = 19.201343 Si / 1000 Ang^3
#
#
#
# Elastic Constant Matrix: (Units=GPa)
#
#
# Indices 1 2 3 4 5 6 
#
# 1 54.9356 30.5010 35.9623 -7.1538 0.0000 0.0000
# 2 30.5010 54.9356 35.9623 7.1538 0.0000 0.0000
# 3 35.9623 35.9623 56.8492 0.0000 0.0000 0.0000
# 4 -7.1538 7.1538 0.0000 15.6765 0.0000 0.0000
# 5 0.0000 0.0000 0.0000 0.0000 15.6765 -7.1538
# 6 0.0000 0.0000 0.0000 0.0000 -7.1538 12.2173
#
#
#
# Elastic Compliance Matrix: (Units=1/GPa)
#
#
# Indices 1 2 3 4 5 6 
#
# 1 0.040444 -0.015405 -0.015839 0.025486 0.000000 0.000000
# 2 -0.015405 0.040444 -0.015839 -0.025486 0.000000 0.000000
# 3 -0.015839 -0.015839 0.037630 0.000000 0.000000 0.000000
# 4 0.025486 -0.025486 0.000000 0.087050 0.000000 0.000000
# 5 0.000000 0.000000 0.000000 0.000000 0.087050 0.050972
# 6 0.000000 0.000000 0.000000 0.000000 0.050972 0.111698
#
#
# Mechanical properties :
#
#
# Convention : Reuss Voigt Hill
#
# Bulk Modulus (GPa) = 41.06714 41.28575 41.17645
# Shear Modulus (GPa) = 9.86970 13.00038 11.43504
#
# Velocity S-wave (km/s) = 2.26964 2.60485 2.44300
# Velocity P-wave (km/s) = 5.32000 5.53129 5.42667
#
# Compressibility (1/GPa) = 0.02435037
#
# Stress axis : x y z
#
# Youngs Moduli (GPa) = 24.72558 24.72558 26.57448
#
# Poissons Ratio (x) = 0.38090 0.42092
# Poissons Ratio (y) = 0.38090 0.42092
# Poissons Ratio (z) = 0.39164 0.39164
#
# Static dielectric constant tensor:
#      x y z
#    x 1.686950 0.000000 0.000000 
#    y 0.000000 1.686950 0.000000 
#    z 0.000000 0.000000 1.715840 
# 
# From -- ./inp_files/2290.got.cif
#   From: 2010.05.17/outbox.cif.g08.bks.cpg/sg165_2_cif.got.tgz:2290.got - 2010.05.20 11:02:39.
