data_PCOD9578383
_publ_section_title
;
Structure prediction by ZEFSAII (Michael W. Deem and Ramdas Pophale) SiO2 
 PCOD9578383
Probable space group: P -3 M 1
;
_chemical_formula_sum "Si O2"
_cell_formula_units_Z 96
_cell_length_a 17.640511
_cell_length_b 17.640511
_cell_length_c 23.767199
_cell_angle_alpha 90.000000
_cell_angle_beta 90.000000
_cell_angle_gamma 120.000000
_cell_volume 6405.174366
_symmetry_space_group_name_H-M "P -3 M 1"
_symmetry_group_IT_number 164
_symmetry_cell_setting 'hexagonal'
loop_
_space_group_symop_operation_xyz
x,y,z
-y,x-y,z
-x+y,-x,z
x-y,-y,-z
-x,-x+y,-z
y,x,-z
-x,-y,-z
y,-x+y,-z
x-y,x,-z
-x+y,y,z
x,x-y,z
-y,-x,z
loop_
_atom_site_type_symbol
_atom_site_label
_atom_site_fract_x
_atom_site_fract_y
_atom_site_fract_z
Si Si1 0.271422 0.363129 0.661038
Si Si2 0.291616 0.055300 0.170453
Si Si3 0.400964 0.978652 0.564214
Si Si4 0.181083 0.999673 0.282816
Si Si5 0.668330 0.167294 0.620044
Si Si6 0.668129 0.502480 0.755351
Si Si7 0.819014 0.999459 0.064354
Si Si8 0.607670 0.568351 0.230465
O O1 0.187483 0.374965 0.669920
O O2 0.314968 0.397306 0.600273
O O3 0.235518 0.259566 0.672476
O O4 0.344392 0.414860 0.709025
O O5 0.297156 0.148578 0.170191
O O6 0.226367 0.003468 0.222569
O O7 0.387003 0.070846 0.184635
O O8 0.249216 0.009461 0.111769
O O9 0.474255 0.948510 0.564946
O O10 0.443377 0.071051 0.596335
O O11 0.390730 0.000000 0.500000
O O12 0.161920 0.080960 0.283465
O O13 0.092986 0.907015 0.291147
O O14 0.599774 0.199547 0.606120
O O15 0.763906 0.236095 0.598565
O O16 0.671679 0.163551 0.687473
O O17 0.764160 0.528321 0.776174
O O18 0.597808 0.402193 0.769711
O O19 0.626903 0.560870 0.773322
O O20 0.822424 0.911212 0.073350
O O21 0.916854 0.083146 0.069960
O O22 0.790684 0.000000 0.000000
O O23 0.531857 0.468144 0.224164
#
# Coordination Sequence:
#
# PCOD9578383 Si02
#       8
#    12  12  12  12  12  12  12  12
#     4  10  20  33  47  65  89 115 143 180 223 261
#     4   9  18  30  43  64  92 121 151 189 232 262
#     4  10  20  34  50  65  83 108 138 173 216 266
#     4   9  17  28  44  66  93 123 151 179 210 250
#     4   9  16  27  43  65  87 106 128 157 199 250
#     4   9  16  25  40  63  89 113 135 163 203 254
#     4   9  16  26  42  66  98 134 166 190 214 252
#     4  10  18  30  48  65  86 117 150 185 227 272
#
# _framework density 14.987882000000001
#
# number of rings (size 3 to 8) (size 9 to 14) (size 15 to 20)
#    0.000    2.625    1.250    2.375    0.000    5.000 
#    0.000    1.250    0.000    4.875    0.000    0.000 
#    0.000    2.500    0.000    0.250    0.000    0.000 
#
# Total GULP energy -534522.413902 kJ/mol
# GULP energy per Si atom -5567.941811 kJ/mol
# Density = 1.495377 g / cm^3
# Si number density = 14.987882 Si / 1000 Ang^3
#
#
#
# Elastic Constant Matrix: (Units=GPa)
#
#
# Indices 1 2 3 4 5 6 
#
# 1 55.9051 23.2605 24.6416 -2.2778 0.0000 0.0000
# 2 23.2605 55.9051 24.6416 2.2778 0.0000 0.0000
# 3 24.6416 24.6416 64.8157 0.0000 0.0000 0.0000
# 4 -2.2778 2.2778 0.0000 17.1719 0.0000 0.0000
# 5 0.0000 0.0000 0.0000 0.0000 17.1719 -2.2778
# 6 0.0000 0.0000 0.0000 0.0000 -2.2778 16.3223
#
#
#
# Elastic Compliance Matrix: (Units=1/GPa)
#
#
# Indices 1 2 3 4 5 6 
#
# 1 0.023880 -0.007331 -0.006291 0.004140 0.000000 0.000000
# 2 -0.007331 0.023880 -0.006291 -0.004140 0.000000 0.000000
# 3 -0.006291 -0.006291 0.020212 0.000000 0.000000 0.000000
# 4 0.004140 -0.004140 0.000000 0.059333 0.000000 0.000000
# 5 0.000000 0.000000 0.000000 0.000000 0.059333 0.008280
# 6 0.000000 0.000000 0.000000 0.000000 0.008280 0.062422
#
#
# Mechanical properties :
#
#
# Convention : Reuss Voigt Hill
#
# Bulk Modulus (GPa) = 35.53238 35.74591 35.63915
# Shear Modulus (GPa) = 16.76345 17.07200 16.91773
#
# Velocity S-wave (km/s) = 3.34798 3.37865 3.36335
# Velocity P-wave (km/s) = 6.22127 6.25476 6.23803
#
# Compressibility (1/GPa) = 0.02814334
#
# Stress axis : x y z
#
# Youngs Moduli (GPa) = 41.87685 41.87685 49.47546
#
# Poissons Ratio (x) = 0.30701 0.31127
# Poissons Ratio (y) = 0.30701 0.31127
# Poissons Ratio (z) = 0.26346 0.26346
#
# Static dielectric constant tensor:
#      x y z
#    x 1.511670 0.000000 0.000000 
#    y 0.000000 1.511670 0.000000 
#    z 0.000000 0.000000 1.499270 
# 
# From -- ./inp_files/4730.got.cif
#   From: 2010.05.17/outbox.cif.g08.bks.cpg/sg164_3_cif.got.tgz:4730.got - 2010.05.20 10:58:56.
