data_PCOD9578917
_publ_section_title
;
Structure prediction by ZEFSAII (Michael W. Deem and Ramdas Pophale) SiO2 
 PCOD9578917
Probable space group: P -3 C 1
;
_chemical_formula_sum "Si O2"
_cell_formula_units_Z 46
_cell_length_a 12.822471
_cell_length_b 12.822471
_cell_length_c 15.547155
_cell_angle_alpha 90.000000
_cell_angle_beta 90.000000
_cell_angle_gamma 120.000000
_cell_volume 2213.731838
_symmetry_space_group_name_H-M "P -3 C 1"
_symmetry_group_IT_number 165
_symmetry_cell_setting 'hexagonal'
loop_
_space_group_symop_operation_xyz
x,y,z
-y,x-y,z
-x+y,-x,z
x-y,-y,1/2-z
-x,-x+y,1/2-z
y,x,1/2-z
-x,-y,-z
y,-x+y,-z
x-y,x,-z
-x+y,y,1/2+z
x,x-y,1/2+z
-y,-x,1/2+z
loop_
_atom_site_type_symbol
_atom_site_label
_atom_site_fract_x
_atom_site_fract_y
_atom_site_fract_z
Si Si1 0.192223 0.396411 0.947677
Si Si2 0.000000 0.000000 0.852320
Si Si3 0.546971 0.082735 0.584777
Si Si4 0.000000 0.623374 0.250000
Si Si5 0.264765 0.070086 0.882811
O O1 0.316943 0.430801 0.902081
O O2 0.187325 0.518877 0.942649
O O3 0.068934 0.292201 0.906609
O O4 0.195408 0.350906 0.043051
O O5 0.930848 0.860235 0.880136
O O6 0.000000 0.000000 0.750000
O O7 0.500000 0.000000 0.500000
O O8 0.470158 0.034460 0.671826
O O9 0.092608 0.752393 0.205273
#
# Coordination Sequence:
#
# PCOD9578917 Si02
#       5
#    12   4  12   6  12
#     4  11  22  44  70  91 137 178 228 286 336 419
#     4  12  24  37  65 106 138 184 224 283 361 413
#     4  11  23  45  67  98 133 180 229 280 343 402
#     4  10  22  44  64  94 142 170 230 280 332 412
#     4  11  23  43  67 102 139 182 229 287 347 421
#
# _framework density 20.779389999999999
#
# number of rings (size 3 to 8) (size 9 to 14) (size 15 to 20)
#    0.000    1.043    6.522    2.087    0.000    1.043 
#   11.739    0.000    0.000    0.000    0.000    0.000 
#    0.000    0.000    0.000    0.000    0.000    0.000 
#
# Total GULP energy -256219.179398 kJ/mol
# GULP energy per Si atom -5569.982161 kJ/mol
# Density = 2.073210 g / cm^3
# Si number density = 20.779390 Si / 1000 Ang^3
#
#
#
# Elastic Constant Matrix: (Units=GPa)
#
#
# Indices 1 2 3 4 5 6 
#
# 1 73.2114 -6.0810 33.9282 -4.1199 0.0000 0.0000
# 2 -6.0810 73.2114 33.9282 4.1199 0.0000 0.0000
# 3 33.9282 33.9282 141.2941 0.0000 0.0000 0.0000
# 4 -4.1199 4.1199 0.0000 20.9021 0.0000 0.0000
# 5 0.0000 0.0000 0.0000 0.0000 20.9021 -4.1199
# 6 0.0000 0.0000 0.0000 0.0000 -4.1199 39.6462
#
#
#
# Elastic Compliance Matrix: (Units=1/GPa)
#
#
# Indices 1 2 3 4 5 6 
#
# 1 0.016273 0.003398 -0.004723 0.002538 0.000000 0.000000
# 2 0.003398 0.016273 -0.004723 -0.002538 0.000000 0.000000
# 3 -0.004723 -0.004723 0.009346 0.000000 0.000000 0.000000
# 4 0.002538 -0.002538 0.000000 0.048842 0.000000 0.000000
# 5 0.000000 0.000000 0.000000 0.000000 0.048842 0.005076
# 6 0.000000 0.000000 0.000000 0.000000 0.005076 0.025751
#
#
# Mechanical properties :
#
#
# Convention : Reuss Voigt Hill
#
# Bulk Modulus (GPa) = 33.56398 45.69639 39.63018
# Shear Modulus (GPa) = 26.68702 31.35286 29.01994
#
# Velocity S-wave (km/s) = 3.58760 3.88860 3.74113
# Velocity P-wave (km/s) = 5.77484 6.49619 6.14611
#
# Compressibility (1/GPa) = 0.02979385
#
# Stress axis : x y z
#
# Youngs Moduli (GPa) = 61.45110 61.45110 106.99906
#
# Poissons Ratio (x) = -0.20880 0.50541
# Poissons Ratio (y) = -0.20880 0.50541
# Poissons Ratio (z) = 0.29026 0.29026
#
# Static dielectric constant tensor:
#      x y z
#    x 1.849910 0.000000 0.000000 
#    y 0.000000 1.849910 0.000000 
#    z 0.000000 0.000000 1.793140 
# 
# From -- ./inp_files/1569.got.cif
#   From: 2010.05.17/outbox.cif.g08.bks.cpg/sg165_1_cif.got.tgz:1569.got - 2010.05.20 11:02:39.
