data_PCOD9578638
_publ_section_title
;
Structure prediction by ZEFSAII (Michael W. Deem and Ramdas Pophale) SiO2 
 PCOD9578638
Probable space group: P -3 M 1
;
_chemical_formula_sum "Si O2"
_cell_formula_units_Z 60
_cell_length_a 13.188023
_cell_length_b 13.188023
_cell_length_c 26.007648
_cell_angle_alpha 90.000000
_cell_angle_beta 90.000000
_cell_angle_gamma 120.000000
_cell_volume 3917.338511
_symmetry_space_group_name_H-M "P -3 M 1"
_symmetry_group_IT_number 164
_symmetry_cell_setting 'hexagonal'
loop_
_space_group_symop_operation_xyz
x,y,z
-y,x-y,z
-x+y,-x,z
x-y,-y,-z
-x,-x+y,-z
y,x,-z
-x,-y,-z
y,-x+y,-z
x-y,x,-z
-x+y,y,z
x,x-y,z
-y,-x,z
loop_
_atom_site_type_symbol
_atom_site_label
_atom_site_fract_x
_atom_site_fract_y
_atom_site_fract_z
Si Si1 0.906675 0.573403 0.865010
Si Si2 0.666123 0.575235 0.046582
Si Si3 0.667461 0.094398 0.745404
Si Si4 0.666907 0.092628 0.339866
Si Si5 0.333239 0.907763 0.543666
O O1 0.790763 0.581526 0.876776
O O2 0.877833 0.438917 0.871491
O O3 0.938523 0.605582 0.805166
O O4 0.015487 0.650210 0.902082
O O5 0.791063 0.582126 0.042892
O O6 0.560040 0.439961 0.045873
O O7 0.639475 0.639475 0.000000
O O8 0.557336 0.114672 0.739057
O O9 0.786321 0.213680 0.735896
O O10 0.649778 0.996785 0.704538
O O11 0.556678 0.113355 0.334970
O O12 0.785948 0.214053 0.334570
O O13 0.662171 0.047496 0.398053
O O14 0.442559 0.885118 0.538962
O O15 0.212808 0.787193 0.537662
O O16 0.350462 0.000000 0.500000
#
# Coordination Sequence:
#
# PCOD9578638 Si02
#       5
#    12  12  12  12  12
#     4   9  17  30  49  71  94 121 152 186 224 267
#     4  10  20  33  50  72  97 123 151 186 227 269
#     4   9  17  29  46  69  95 121 149 183 224 267
#     4   9  17  29  45  65  89 118 150 183 221 266
#     4   9  17  29  45  65  89 116 146 181 222 269
#
# _framework density 15.316520000000001
#
# number of rings (size 3 to 8) (size 9 to 14) (size 15 to 20)
#    0.000    2.800    0.000    1.600    0.000    4.800 
#    0.000    2.000    0.000    9.000    0.000    0.000 
#    0.000    0.000    0.000    0.000    0.000    0.000 
#
# Total GULP energy -334246.130216 kJ/mol
# GULP energy per Si atom -5570.768837 kJ/mol
# Density = 1.528166 g / cm^3
# Si number density = 15.316520 Si / 1000 Ang^3
#
#
#
# Elastic Constant Matrix: (Units=GPa)
#
#
# Indices 1 2 3 4 5 6 
#
# 1 85.2985 47.7218 71.2499 -0.2355 0.0000 0.0000
# 2 47.7218 85.2985 71.2499 0.2355 0.0000 0.0000
# 3 71.2499 71.2499 114.4678 0.0000 0.0000 0.0000
# 4 -0.2355 0.2355 0.0000 25.9510 0.0000 0.0000
# 5 0.0000 0.0000 0.0000 0.0000 25.9510 -0.2355
# 6 0.0000 0.0000 0.0000 0.0000 -0.2355 18.7884
#
#
#
# Elastic Compliance Matrix: (Units=1/GPa)
#
#
# Indices 1 2 3 4 5 6 
#
# 1 0.024589 -0.002027 -0.014044 0.000241 0.000000 0.000000
# 2 -0.002027 0.024589 -0.014044 -0.000241 0.000000 0.000000
# 3 -0.014044 -0.014044 0.026219 0.000000 0.000000 0.000000
# 4 0.000241 -0.000241 0.000000 0.038539 0.000000 0.000000
# 5 0.000000 0.000000 0.000000 0.000000 0.038539 0.000483
# 6 0.000000 0.000000 0.000000 0.000000 0.000483 0.053230
#
#
# Mechanical properties :
#
#
# Convention : Reuss Voigt Hill
#
# Bulk Modulus (GPa) = 65.92632 73.94532 69.93582
# Shear Modulus (GPa) = 18.45103 20.46097 19.45600
#
# Velocity S-wave (km/s) = 3.47457 3.65893 3.56794
# Velocity P-wave (km/s) = 7.69629 8.13838 7.92042
#
# Compressibility (1/GPa) = 0.01516845
#
# Stress axis : x y z
#
# Youngs Moduli (GPa) = 40.66917 40.66917 38.14051
#
# Poissons Ratio (x) = 0.08242 0.53563
# Poissons Ratio (y) = 0.08242 0.53563
# Poissons Ratio (z) = 0.57114 0.57114
#
# Static dielectric constant tensor:
#      x y z
#    x 1.478550 0.000000 0.000000 
#    y 0.000000 1.478550 0.000000 
#    z 0.000000 0.000000 1.535320 
# 
# From -- ./inp_files/5166.got.cif
#   From: 2010.05.17/outbox.cif.g08.bks.cpg/sg164_3_cif.got.tgz:5166.got - 2010.05.20 10:58:56.
