data_PCOD9578356
_publ_section_title
;
Structure prediction by ZEFSAII (Michael W. Deem and Ramdas Pophale) SiO2 
 PCOD9578356
Probable space group: P -3 M 1
;
_chemical_formula_sum "Si O2"
_cell_formula_units_Z 96
_cell_length_a 17.240450
_cell_length_b 17.240450
_cell_length_c 25.120083
_cell_angle_alpha 90.000000
_cell_angle_beta 90.000000
_cell_angle_gamma 120.000000
_cell_volume 6466.196474
_symmetry_space_group_name_H-M "P -3 M 1"
_symmetry_group_IT_number 164
_symmetry_cell_setting 'hexagonal'
loop_
_space_group_symop_operation_xyz
x,y,z
-y,x-y,z
-x+y,-x,z
x-y,-y,-z
-x,-x+y,-z
y,x,-z
-x,-y,-z
y,-x+y,-z
x-y,x,-z
-x+y,y,z
x,x-y,z
-y,-x,z
loop_
_atom_site_type_symbol
_atom_site_label
_atom_site_fract_x
_atom_site_fract_y
_atom_site_fract_z
Si Si1 0.608793 0.576312 0.916398
Si Si2 0.059932 0.297764 0.661179
Si Si3 0.372356 0.277242 0.809482
Si Si4 0.389084 0.431125 0.298050
Si Si5 0.708992 0.946453 0.445465
Si Si6 0.001153 0.177722 0.764376
Si Si7 0.667023 0.519325 0.022356
Si Si8 0.153587 0.487652 0.404791
O O1 0.516860 0.483141 0.908105
O O2 0.666658 0.602872 0.863352
O O3 0.578176 0.646715 0.935546
O O4 0.659010 0.558060 0.965070
O O5 0.163931 0.327861 0.658247
O O6 0.015370 0.219076 0.705135
O O7 0.037675 0.372755 0.682253
O O8 0.012128 0.261197 0.604809
O O9 0.395880 0.197940 0.811857
O O10 0.418207 0.339668 0.758074
O O11 0.265883 0.229886 0.799158
O O12 0.491788 0.508213 0.294355
O O13 0.343868 0.460823 0.344318
O O14 0.727241 0.863621 0.442065
O O15 0.601521 0.902888 0.439636
O O16 0.744513 0.000000 0.500000
O O17 0.095361 0.190721 0.782910
O O18 0.925545 0.074456 0.763392
O O19 0.760974 0.521947 0.028836
O O20 0.582463 0.417538 0.025555
O O21 0.256262 0.512524 0.406825
O O22 0.141791 0.570896 0.420758
#
# Coordination Sequence:
#
# PCOD9578356 Si02
#       8
#    12  12  12  12  12  12  12  12
#     4   9  18  30  44  64  89 116 144 176 217 259
#     4   9  17  30  47  65  85 112 146 179 212 254
#     4  10  18  28  44  65  89 116 143 171 208 256
#     4   9  17  29  46  67  90 116 144 175 212 253
#     4  10  19  30  45  64  86 113 143 176 217 261
#     4   9  17  28  43  63  86 112 142 176 212 250
#     4   9  17  30  47  65  85 112 147 184 219 254
#     4   9  17  29  45  65  88 114 144 177 213 253
#
# _framework density 14.846441
#
# number of rings (size 3 to 8) (size 9 to 14) (size 15 to 20)
#    0.000    2.750    0.000    3.000    0.000    3.750 
#    0.000    0.000    0.000    6.750    0.000    0.000 
#    0.000    0.000    0.000   15.500    0.000    0.000 
#
# Total GULP energy -534774.399736 kJ/mol
# GULP energy per Si atom -5570.566664 kJ/mol
# Density = 1.481265 g / cm^3
# Si number density = 14.846441 Si / 1000 Ang^3
#
#
#
# Elastic Constant Matrix: (Units=GPa)
#
#
# Indices 1 2 3 4 5 6 
#
# 1 94.7453 54.9441 48.6771 -4.6582 0.0000 0.0000
# 2 54.9441 94.7453 48.6771 4.6582 0.0000 0.0000
# 3 48.6771 48.6771 96.3063 0.0000 0.0000 0.0000
# 4 -4.6582 4.6582 0.0000 15.5676 0.0000 0.0000
# 5 0.0000 0.0000 0.0000 0.0000 15.5676 -4.6582
# 6 0.0000 0.0000 0.0000 0.0000 -4.6582 19.9006
#
#
#
# Elastic Compliance Matrix: (Units=1/GPa)
#
#
# Indices 1 2 3 4 5 6 
#
# 1 0.018485 -0.008533 -0.005030 0.008084 0.000000 0.000000
# 2 -0.008533 0.018485 -0.005030 -0.008084 0.000000 0.000000
# 3 -0.005030 -0.005030 0.015468 0.000000 0.000000 0.000000
# 4 0.008084 -0.008084 0.000000 0.069074 0.000000 0.000000
# 5 0.000000 0.000000 0.000000 0.000000 0.069074 0.016168
# 6 0.000000 0.000000 0.000000 0.000000 0.016168 0.054034
#
#
# Mechanical properties :
#
#
# Convention : Reuss Voigt Hill
#
# Bulk Modulus (GPa) = 65.56592 65.59926 65.58259
# Shear Modulus (GPa) = 17.42833 19.10708 18.26770
#
# Velocity S-wave (km/s) = 3.42995 3.59134 3.51157
# Velocity P-wave (km/s) = 7.74239 7.84080 7.79175
#
# Compressibility (1/GPa) = 0.01525183
#
# Stress axis : x y z
#
# Youngs Moduli (GPa) = 54.09917 54.09917 64.64795
#
# Poissons Ratio (x) = 0.46161 0.32519
# Poissons Ratio (y) = 0.46161 0.32519
# Poissons Ratio (z) = 0.27213 0.27213
#
# Static dielectric constant tensor:
#      x y z
#    x 1.480990 0.000000 0.000000 
#    y 0.000000 1.480990 0.000000 
#    z 0.000000 0.000000 1.471920 
# 
# From -- ./inp_files/5100.got.cif
#   From: 2010.05.17/outbox.cif.g08.bks.cpg/sg164_3_cif.got.tgz:5100.got - 2010.05.20 10:58:56.
