data_PCOD9578690
_publ_section_title
;
Structure prediction by ZEFSAII (Michael W. Deem and Ramdas Pophale) SiO2 
 PCOD9578690
Probable space group: P -3 M 1
;
_chemical_formula_sum "Si O2"
_cell_formula_units_Z 66
_cell_length_a 22.410444
_cell_length_b 22.410444
_cell_length_c 7.970435
_cell_angle_alpha 90.000000
_cell_angle_beta 90.000000
_cell_angle_gamma 120.000000
_cell_volume 3466.678588
_symmetry_space_group_name_H-M "P -3 M 1"
_symmetry_group_IT_number 164
_symmetry_cell_setting 'hexagonal'
loop_
_space_group_symop_operation_xyz
x,y,z
-y,x-y,z
-x+y,-x,z
x-y,-y,-z
-x,-x+y,-z
y,x,-z
-x,-y,-z
y,-x+y,-z
x-y,x,-z
-x+y,y,z
x,x-y,z
-y,-x,z
loop_
_atom_site_type_symbol
_atom_site_label
_atom_site_fract_x
_atom_site_fract_y
_atom_site_fract_z
Si Si1 0.953253 0.724344 0.238657
Si Si2 0.904707 0.684068 0.609512
Si Si3 0.528287 0.471714 0.243232
Si Si4 0.452705 0.905409 0.366698
Si Si5 0.856541 0.856541 0.000000
Si Si6 0.665920 0.078537 0.065362
Si Si7 0.701906 0.165361 0.730488
O O1 0.923267 0.717037 0.425579
O O2 0.914171 0.648426 0.156857
O O3 0.029545 0.738706 0.276672
O O4 0.967290 0.792622 0.136236
O O5 0.851787 0.703573 0.692314
O O6 0.867436 0.602202 0.606031
O O7 0.486283 0.513718 0.244686
O O8 0.536552 0.463449 0.440078
O O9 0.478802 0.395391 0.164623
O O10 0.486422 0.859568 0.331717
O O11 0.932760 0.865519 0.953390
O O12 0.693760 0.131876 0.912967
O O13 0.626260 0.000000 0.000000
O O14 0.753995 0.246006 0.737035
#
# Coordination Sequence:
#
# PCOD9578690 Si02
#       7
#    12  12   6   6   6  12  12
#     4  11  21  36  58  85 117 150 191 240 308 363
#     4  10  20  35  55  83 115 150 188 237 290 357
#     4  11  22  35  66  95 128 155 198 258 306 368
#     4  11  21  40  59  90 119 162 209 246 302 348
#     4  12  25  42  60  81 110 154 206 260 312 373
#     4  12  20  36  58  94 125 157 189 247 304 363
#     4  11  23  38  59  86 123 161 203 241 292 356
#
# _framework density 19.038395000000001
#
# number of rings (size 3 to 8) (size 9 to 14) (size 15 to 20)
#    0.000    0.909    4.545    3.091    0.000    5.818 
#    0.545    0.909    0.000    0.000    0.000    6.364 
#    0.000    0.000    0.000    0.000    0.000    0.000 
#
# Total GULP energy -367696.744827 kJ/mol
# GULP energy per Si atom -5571.162800 kJ/mol
# Density = 1.899506 g / cm^3
# Si number density = 19.038395 Si / 1000 Ang^3
#
#
#
# Elastic Constant Matrix: (Units=GPa)
#
#
# Indices 1 2 3 4 5 6 
#
# 1 73.8293 86.6103 29.4576 -30.4471 0.0000 0.0000
# 2 86.6103 73.8293 29.4576 30.4471 0.0000 0.0000
# 3 29.4576 29.4576 65.0904 0.0000 0.0000 0.0000
# 4 -30.4471 30.4471 0.0000 -37.0099 0.0000 0.0000
# 5 0.0000 0.0000 0.0000 0.0000 -37.0099 -30.4471
# 6 0.0000 0.0000 0.0000 0.0000 -30.4471 -6.3905
#
#
#
# Elastic Compliance Matrix: (Units=1/GPa)
#
#
# Indices 1 2 3 4 5 6 
#
# 1 0.017137 -0.009662 -0.003383 -0.022047 0.000000 0.000000
# 2 -0.009662 0.017137 -0.003383 0.022047 0.000000 0.000000
# 3 -0.003383 -0.003383 0.018425 0.000000 0.000000 0.000000
# 4 -0.022047 0.022047 0.000000 0.009255 0.000000 0.000000
# 5 0.000000 0.000000 0.000000 0.000000 0.009255 -0.044093
# 6 0.000000 0.000000 0.000000 0.000000 -0.044093 0.053598
#
#
# Mechanical properties :
#
#
# Convention : Reuss Voigt Hill
#
# Bulk Modulus (GPa) = 50.39399 55.97778 53.18589
# Shear Modulus (GPa) = 30.43651 -11.60047 9.41802
#
# Velocity S-wave (km/s) = 4.00270 -2.47112 2.22657
# Velocity P-wave (km/s) = 6.92021 4.61785 5.88276
#
# Compressibility (1/GPa) = 0.01984364
#
# Stress axis : x y z
#
# Youngs Moduli (GPa) = 58.35335 58.35335 54.27318
#
# Poissons Ratio (x) = 0.56380 0.18361
# Poissons Ratio (y) = 0.56380 0.18361
# Poissons Ratio (z) = 0.19741 0.19741
#
# Static dielectric constant tensor:
#      x y z
#    x 1.694100 0.000000 0.000000 
#    y 0.000000 1.694100 0.000000 
#    z 0.000000 0.000000 1.684760 
# 
# From -- ./inp_files/1770.got.cif
#   From: 2010.05.17/outbox.cif.g08.bks.cpg/sg164_1_cif.got.tgz:1770.got - 2010.05.20 10:58:56.
