data_PCOD9578310
_publ_section_title
;
Structure prediction by ZEFSAII (Michael W. Deem and Ramdas Pophale) SiO2 
 PCOD9578310
Probable space group: P -3 M 1
;
_chemical_formula_sum "Si O2"
_cell_formula_units_Z 66
_cell_length_a 29.217197
_cell_length_b 29.217197
_cell_length_c 5.396646
_cell_angle_alpha 90.000000
_cell_angle_beta 90.000000
_cell_angle_gamma 120.000000
_cell_volume 3989.621175
_symmetry_space_group_name_H-M "P -3 M 1"
_symmetry_group_IT_number 164
_symmetry_cell_setting 'hexagonal'
loop_
_space_group_symop_operation_xyz
x,y,z
-y,x-y,z
-x+y,-x,z
x-y,-y,-z
-x,-x+y,-z
y,x,-z
-x,-y,-z
y,-x+y,-z
x-y,x,-z
-x+y,y,z
x,x-y,z
-y,-x,z
loop_
_atom_site_type_symbol
_atom_site_label
_atom_site_fract_x
_atom_site_fract_y
_atom_site_fract_z
Si Si1 0.767356 0.704673 0.966721
Si Si2 0.474643 0.056680 0.777888
Si Si3 0.100707 0.000000 0.000000
Si Si4 0.063250 0.725355 0.536163
Si Si5 0.050178 0.200726 0.347548
Si Si6 0.063428 0.622379 0.720106
O O1 0.746731 0.662485 0.740340
O O2 0.820214 0.753667 0.857146
O O3 0.725972 0.725972 0.000000
O O4 0.768907 0.685268 0.244014
O O5 0.524401 0.048802 0.823667
O O6 0.480519 0.083158 0.511779
O O7 0.421405 0.999240 0.749477
O O8 0.465585 0.084952 0.011437
O O9 0.145010 0.023513 0.791440
O O10 0.092928 0.046464 0.104847
O O11 0.071221 0.678504 0.641726
O O12 0.000000 0.698534 0.500000
O O13 0.103974 0.207947 0.472862
O O14 0.000000 0.195477 0.500000
#
# Coordination Sequence:
#
# PCOD9578310 Si02
#       6
#    12  12   6  12  12  12
#     4  10  20  32  47  67  87 105 125 158 192 226
#     4  10  17  23  31  47  74 103 141 174 207 237
#     4  10  21  36  54  72  90 108 128 148 171 212
#     4  10  18  28  43  60  82 105 134 164 194 236
#     4  11  22  38  54  73  92 111 130 153 189 241
#     4  10  16  24  34  49  69 102 137 166 206 228
#
# _framework density 16.542925
#
# number of rings (size 3 to 8) (size 9 to 14) (size 15 to 20)
#    0.000    1.818    2.727    6.091    5.091    0.000 
#    0.000    0.000    0.000    2.909    0.000    0.000 
#    0.000    0.000    0.000    0.000    0.000    0.000 
#
# Total GULP energy -367430.922950 kJ/mol
# GULP energy per Si atom -5567.135196 kJ/mol
# Density = 1.650527 g / cm^3
# Si number density = 16.542925 Si / 1000 Ang^3
#
#
#
# Elastic Constant Matrix: (Units=GPa)
#
#
# Indices 1 2 3 4 5 6 
#
# 1 -5.6723 82.1641 19.8293 21.4916 0.0000 0.0000
# 2 82.1641 -5.6723 19.8293 -21.4916 0.0000 0.0000
# 3 19.8293 19.8293 124.4069 0.0000 0.0000 0.0000
# 4 21.4916 -21.4916 0.0000 5.4323 0.0000 0.0000
# 5 0.0000 0.0000 0.0000 0.0000 5.4323 21.4916
# 6 0.0000 0.0000 0.0000 0.0000 21.4916 -43.9182
#
#
#
# Elastic Compliance Matrix: (Units=1/GPa)
#
#
# Indices 1 2 3 4 5 6 
#
# 1 0.005187 0.009064 -0.002271 0.015341 0.000000 0.000000
# 2 0.009064 0.005187 -0.002271 -0.015341 0.000000 0.000000
# 3 -0.002271 -0.002271 0.008762 0.000000 0.000000 0.000000
# 4 0.015341 -0.015341 0.000000 0.062698 0.000000 0.000000
# 5 0.000000 0.000000 0.000000 0.000000 0.062698 0.030682
# 6 0.000000 0.000000 0.000000 0.000000 0.030682 -0.007755
#
#
# Mechanical properties :
#
#
# Convention : Reuss Voigt Hill
#
# Bulk Modulus (GPa) = 35.48827 39.63419 37.56123
# Shear Modulus (GPa) = 36.46250 -7.19475 14.63388
#
# Velocity S-wave (km/s) = 4.69989 -2.08772 2.97745
# Velocity P-wave (km/s) = 7.13798 4.26602 5.88004
#
# Compressibility (1/GPa) = 0.02817832
#
# Stress axis : x y z
#
# Youngs Moduli (GPa) = 192.80166 192.80166 114.12594
#
# Poissons Ratio (x) = -1.74762 0.25923
# Poissons Ratio (y) = -1.74762 0.25923
# Poissons Ratio (z) = 0.43795 0.43795
#
# Static dielectric constant tensor:
#      x y z
#    x 1.586050 0.000000 0.000000 
#    y 0.000000 1.586050 0.000000 
#    z 0.000000 0.000000 1.676770 
# 
# From -- ./inp_files/771.got.cif
#   From: 2010.05.17/outbox.cif.g08.bks.cpg/sg164_1_cif.got.tgz:771.got - 2010.05.20 10:58:56.
