data_PCOD9578028
_publ_section_title
;
Structure prediction by ZEFSAII (Michael W. Deem and Ramdas Pophale) SiO2 
 PCOD9578028
Probable space group: P -3 1 C
;
_chemical_formula_sum "Si O2"
_cell_formula_units_Z 66
_cell_length_a 16.321520
_cell_length_b 16.321520
_cell_length_c 14.187876
_cell_angle_alpha 90.000000
_cell_angle_beta 90.000000
_cell_angle_gamma 120.000000
_cell_volume 3273.174951
_symmetry_space_group_name_H-M "P -3 1 C"
_symmetry_group_IT_number 163
_symmetry_cell_setting 'hexagonal'
loop_
_space_group_symop_operation_xyz
x,y,z
-y,x-y,z
-x+y,-x,z
-y,-x,1/2-z
-x+y,y,1/2-z
x,x-y,1/2-z
-x,-y,-z
y,-x+y,-z
x-y,x,-z
y,x,1/2+z
x-y,-y,1/2+z
-x,-x+y,1/2+z
loop_
_atom_site_type_symbol
_atom_site_label
_atom_site_fract_x
_atom_site_fract_y
_atom_site_fract_z
Si Si1 0.010991 0.338156 0.645297
Si Si2 0.252818 0.505635 0.250000
Si Si3 0.362537 0.055760 0.850187
Si Si4 0.828162 0.787831 0.000689
Si Si5 0.508312 0.633277 0.510877
Si Si6 0.505455 0.814862 0.434975
O O1 0.009056 0.333717 0.758082
O O2 0.906525 0.304999 0.601137
O O3 0.044754 0.272753 0.592774
O O4 0.078811 0.443971 0.608781
O O5 0.279194 0.435539 0.195786
O O6 0.323925 0.552669 0.336579
O O7 0.278206 0.054196 0.909918
O O8 0.428295 0.047467 0.930241
O O9 0.815666 0.879031 0.996885
O O10 0.519816 0.736384 0.488961
O O11 0.400695 0.555801 0.497490
#
# Coordination Sequence:
#
# PCOD9578028 Si02
#       6
#    12   6  12  12  12  12
#     4  10  20  37  57  78 113 158 197 230 279 347
#     4   8  16  30  50  74 110 152 186 230 282 334
#     4   9  19  35  54  77 109 149 191 231 277 340
#     4  11  22  37  57  82 112 146 190 243 295 345
#     4  10  20  34  57  86 120 154 190 242 291 339
#     4  10  19  33  52  82 117 150 193 240 289 337
#
# _framework density 20.163907999999999
#
# number of rings (size 3 to 8) (size 9 to 14) (size 15 to 20)
#    0.000    2.182    0.000    5.455    0.000    7.273 
#    0.000    1.818    0.000    2.182    0.000    0.000 
#    0.000   23.273    0.000    0.000    0.000    0.000 
#
# Total GULP energy -368153.040361 kJ/mol
# GULP energy per Si atom -5578.076369 kJ/mol
# Density = 2.011801 g / cm^3
# Si number density = 20.163908 Si / 1000 Ang^3
#
#
#
# Elastic Constant Matrix: (Units=GPa)
#
#
# Indices 1 2 3 4 5 6 
#
# 1 81.0351 23.3218 30.4700 0.0000 -0.2333 0.0000
# 2 23.3218 81.0351 30.4700 0.0000 0.2333 0.0000
# 3 30.4700 30.4700 107.4477 0.0000 0.0000 0.0000
# 4 0.0000 0.0000 0.0000 14.5141 0.0000 0.2333
# 5 -0.2333 0.2333 0.0000 0.0000 14.5141 0.0000
# 6 0.0000 0.0000 0.0000 0.2333 0.0000 28.8567
#
#
#
# Elastic Compliance Matrix: (Units=1/GPa)
#
#
# Indices 1 2 3 4 5 6 
#
# 1 0.014407 -0.002922 -0.003257 0.000000 0.000279 0.000000
# 2 -0.002922 0.014407 -0.003257 0.000000 -0.000279 0.000000
# 3 -0.003257 -0.003257 0.011154 0.000000 0.000000 0.000000
# 4 0.000000 0.000000 0.000000 0.068907 0.000000 -0.000557
# 5 0.000279 -0.000279 0.000000 0.000000 0.068907 0.000000
# 6 0.000000 0.000000 0.000000 -0.000557 0.000000 0.034659
#
#
# Mechanical properties :
#
#
# Convention : Reuss Voigt Hill
#
# Bulk Modulus (GPa) = 47.40314 48.67128 48.03721
# Shear Modulus (GPa) = 20.97807 23.92741 22.45274
#
# Velocity S-wave (km/s) = 3.22899 3.44851 3.34055
# Velocity P-wave (km/s) = 6.12060 6.32823 6.22528
#
# Compressibility (1/GPa) = 0.02109565
#
# Stress axis : x y z
#
# Youngs Moduli (GPa) = 69.41182 69.41182 89.65454
#
# Poissons Ratio (x) = 0.20286 0.29198
# Poissons Ratio (y) = 0.20286 0.29198
# Poissons Ratio (z) = 0.22605 0.22605
#
# Static dielectric constant tensor:
#      x y z
#    x 1.762260 0.000000 0.000000 
#    y 0.000000 1.762260 0.000000 
#    z 0.000000 0.000000 1.749420 
# 
# From -- ./inp_files/2571.got.cif
#   From: 2010.05.17/outbox.cif.g08.bks.cpg/sg163_2_cif.got.tgz:2571.got - 2010.05.20 10:56:03.
