data_PCOD9578038
_publ_section_title
;
Structure prediction by ZEFSAII (Michael W. Deem and Ramdas Pophale) SiO2 
 PCOD9578038
Probable space group: P -3 1 C
;
_chemical_formula_sum "Si O2"
_cell_formula_units_Z 36
_cell_length_a 16.145964
_cell_length_b 16.145964
_cell_length_c 8.281968
_cell_angle_alpha 90.000000
_cell_angle_beta 90.000000
_cell_angle_gamma 120.000000
_cell_volume 1869.787015
_symmetry_space_group_name_H-M "P -3 1 C"
_symmetry_group_IT_number 163
_symmetry_cell_setting 'hexagonal'
loop_
_space_group_symop_operation_xyz
x,y,z
-y,x-y,z
-x+y,-x,z
-y,-x,1/2-z
-x+y,y,1/2-z
x,x-y,1/2-z
-x,-y,-z
y,-x+y,-z
x-y,x,-z
y,x,1/2+z
x-y,-y,1/2+z
-x,-x+y,1/2+z
loop_
_atom_site_type_symbol
_atom_site_label
_atom_site_fract_x
_atom_site_fract_y
_atom_site_fract_z
Si Si1 0.139605 0.970163 0.399162
Si Si2 0.412454 0.948979 0.622184
Si Si3 0.282499 0.387309 0.170727
O O1 0.066811 0.933190 0.250000
O O2 0.223744 0.950220 0.355844
O O3 0.076990 0.900045 0.544208
O O4 0.550622 0.101244 0.250000
O O5 0.404681 0.033838 0.713981
O O6 0.500000 0.000000 0.500000
O O7 0.322726 0.887710 0.504646
O O8 0.207132 0.414264 0.250000
#
# Coordination Sequence:
#
# PCOD9578038 Si02
#       3
#    12  12  12
#     4  11  22  35  51  78 118 163 198 229 264 309
#     4   9  19  37  58  82 110 146 185 232 297 352
#     4  10  19  34  58  86 113 147 194 241 279 335
#
# _framework density 19.253529
#
# number of rings (size 3 to 8) (size 9 to 14) (size 15 to 20)
#    0.000    2.000    0.000    5.333    0.000    0.000 
#    0.000   13.333    0.000   18.000    0.000   14.000 
#    0.000    0.000    0.000    0.000    0.000    0.000 
#
# Total GULP energy -200611.605793 kJ/mol
# GULP energy per Si atom -5572.544605 kJ/mol
# Density = 1.920971 g / cm^3
# Si number density = 19.253529 Si / 1000 Ang^3
#
#
#
# Elastic Constant Matrix: (Units=GPa)
#
#
# Indices 1 2 3 4 5 6 
#
# 1 93.7442 43.1575 47.6499 0.0000 -3.2061 0.0000
# 2 43.1575 93.7442 47.6499 0.0000 3.2061 0.0000
# 3 47.6499 47.6499 122.3629 0.0000 0.0000 0.0000
# 4 0.0000 0.0000 0.0000 48.7005 0.0000 3.2061
# 5 -3.2061 3.2061 0.0000 0.0000 48.7005 0.0000
# 6 0.0000 0.0000 0.0000 3.2061 0.0000 25.2934
#
#
#
# Elastic Compliance Matrix: (Units=1/GPa)
#
#
# Indices 1 2 3 4 5 6 
#
# 1 0.014978 -0.004957 -0.003902 0.000000 0.001312 0.000000
# 2 -0.004957 0.014978 -0.003902 0.000000 -0.001312 0.000000
# 3 -0.003902 -0.003902 0.011212 0.000000 0.000000 0.000000
# 4 0.000000 0.000000 0.000000 0.020706 0.000000 -0.002625
# 5 0.001312 -0.001312 0.000000 0.000000 0.020706 0.000000
# 6 0.000000 0.000000 0.000000 -0.002625 0.000000 0.039869
#
#
# Mechanical properties :
#
#
# Convention : Reuss Voigt Hill
#
# Bulk Modulus (GPa) = 63.92084 65.19622 64.55853
# Shear Modulus (GPa) = 32.64001 35.96512 34.30256
#
# Velocity S-wave (km/s) = 4.12184 4.32670 4.22551
# Velocity P-wave (km/s) = 7.47826 7.67437 7.57695
#
# Compressibility (1/GPa) = 0.01564435
#
# Stress axis : x y z
#
# Youngs Moduli (GPa) = 66.76598 66.76598 89.19289
#
# Poissons Ratio (x) = 0.33094 0.34806
# Poissons Ratio (y) = 0.33094 0.34806
# Poissons Ratio (z) = 0.26054 0.26054
#
# Static dielectric constant tensor:
#      x y z
#    x 1.659290 0.000000 0.000000 
#    y 0.000000 1.659290 0.000000 
#    z 0.000000 0.000000 1.792870 
# 
# From -- ./inp_files/737.got.cif
#   From: 2010.05.17/outbox.cif.g08.bks.cpg/sg163_1_cif.got.tgz:737.got - 2010.05.20 10:56:03.
