data_PCOD9578176
_publ_section_title
;
Structure prediction by ZEFSAII (Michael W. Deem and Ramdas Pophale) SiO2 
 PCOD9578176
Probable space group: P -3 1 C
;
_chemical_formula_sum "Si O2"
_cell_formula_units_Z 66
_cell_length_a 20.269592
_cell_length_b 20.269592
_cell_length_c 8.748860
_cell_angle_alpha 90.000000
_cell_angle_beta 90.000000
_cell_angle_gamma 120.000000
_cell_volume 3112.949767
_symmetry_space_group_name_H-M "P -3 1 C"
_symmetry_group_IT_number 163
_symmetry_cell_setting 'hexagonal'
loop_
_space_group_symop_operation_xyz
x,y,z
-y,x-y,z
-x+y,-x,z
-y,-x,1/2-z
-x+y,y,1/2-z
x,x-y,1/2-z
-x,-y,-z
y,-x+y,-z
x-y,x,-z
y,x,1/2+z
x-y,-y,1/2+z
-x,-x+y,1/2+z
loop_
_atom_site_type_symbol
_atom_site_label
_atom_site_fract_x
_atom_site_fract_y
_atom_site_fract_z
Si Si1 0.553559 0.776780 0.750000
Si Si2 0.528412 0.728858 0.088000
Si Si3 0.235140 0.927633 0.050253
Si Si4 0.063421 0.161380 0.926253
Si Si5 0.951056 0.522200 0.887306
Si Si6 0.650327 0.692107 0.747159
O O1 0.511558 0.761731 0.583185
O O2 0.606580 0.738831 0.725964
O O3 0.502020 0.751010 0.250000
O O4 0.510200 0.641693 0.066995
O O5 0.620589 0.771625 0.101004
O O6 0.159156 0.912040 0.969560
O O7 0.303935 0.966253 0.927776
O O8 0.264775 0.991869 0.179337
O O9 0.076644 0.153288 0.750000
O O10 0.110203 0.134587 0.030317
O O11 0.929691 0.464846 0.750000
O O12 0.004121 0.606685 0.816251
O O13 0.000000 0.500000 0.000000
#
# Coordination Sequence:
#
# PCOD9578176 Si02
#       6
#     6  12  12  12  12  12
#     4  10  22  38  64  94 144 168 222 272 346 402
#     4  10  24  40  67 100 134 182 222 286 349 416
#     4  10  23  38  63  91 125 164 223 270 351 402
#     4  12  27  43  60  81 116 170 226 285 340 397
#     4  11  23  42  67 105 141 180 233 281 353 428
#     4  10  22  38  63  98 130 171 209 280 337 416
#
# _framework density 21.201757000000001
#
# number of rings (size 3 to 8) (size 9 to 14) (size 15 to 20)
#    0.000    1.455    0.000    5.091   17.818    1.455 
#    0.000    0.000    0.000    0.364    0.000    0.000 
#    0.909    0.000    0.000    0.000    0.000    0.000 
#
# Total GULP energy -367884.644582 kJ/mol
# GULP energy per Si atom -5574.009766 kJ/mol
# Density = 2.115350 g / cm^3
# Si number density = 21.201757 Si / 1000 Ang^3
#
#
#
# Elastic Constant Matrix: (Units=GPa)
#
#
# Indices 1 2 3 4 5 6 
#
# 1 37.0593 44.4012 29.4999 -0.0002 37.5271 0.0000
# 2 44.4012 37.0593 29.4999 0.0002 -37.5271 0.0000
# 3 29.4999 29.4999 144.9226 0.0000 0.0000 0.0000
# 4 -0.0002 0.0002 0.0000 -8.2365 0.0000 -37.5271
# 5 37.5271 -37.5271 0.0000 0.0000 -8.2365 -0.0002
# 6 0.0000 0.0000 0.0000 -37.5271 -0.0002 -3.6710
#
#
#
# Elastic Compliance Matrix: (Units=1/GPa)
#
#
# Indices 1 2 3 4 5 6 
#
# 1 0.008694 0.005705 -0.002931 0.000000 0.013616 0.000000
# 2 0.005705 0.008694 -0.002931 0.000000 -0.013616 0.000000
# 3 -0.002931 -0.002931 0.008093 0.000000 0.000000 0.000000
# 4 0.000000 0.000000 0.000000 0.002664 0.000000 -0.027232
# 5 0.013616 -0.013616 0.000000 0.000000 0.002664 0.000000
# 6 0.000000 0.000000 0.000000 -0.027232 0.000000 0.005977
#
#
# Mechanical properties :
#
#
# Convention : Reuss Voigt Hill
#
# Bulk Modulus (GPa) = 39.73445 47.31591 43.52518
# Shear Modulus (GPa) = 109.91934 3.68054 56.79994
#
# Velocity S-wave (km/s) = 7.20812 1.31899 5.18154
# Velocity P-wave (km/s) = 9.38391 4.96841 7.50809
#
# Compressibility (1/GPa) = 0.02516708
#
# Stress axis : x y z
#
# Youngs Moduli (GPa) = 115.02737 115.02737 123.55650
#
# Poissons Ratio (x) = -0.65624 0.36214
# Poissons Ratio (y) = -0.65624 0.36214
# Poissons Ratio (z) = 0.33714 0.33714
#
# Static dielectric constant tensor:
#      x y z
#    x 1.760450 0.000000 0.000000 
#    y 0.000000 1.760450 0.000000 
#    z 0.000000 0.000000 1.829330 
# 
# From -- ./inp_files/1170.got.cif
#   From: 2010.05.17/outbox.cif.g08.bks.cpg/sg163_1_cif.got.tgz:1170.got - 2010.05.20 10:56:03.
