data_PCOD9578198
_publ_section_title
;
Structure prediction by ZEFSAII (Michael W. Deem and Ramdas Pophale) SiO2 
 PCOD9578198
Probable space group: P -3 1 C
;
_chemical_formula_sum "Si O2"
_cell_formula_units_Z 42
_cell_length_a 11.717833
_cell_length_b 11.717833
_cell_length_c 16.285928
_cell_angle_alpha 90.000000
_cell_angle_beta 90.000000
_cell_angle_gamma 120.000000
_cell_volume 1936.590293
_symmetry_space_group_name_H-M "P -3 1 C"
_symmetry_group_IT_number 163
_symmetry_cell_setting 'hexagonal'
loop_
_space_group_symop_operation_xyz
x,y,z
-y,x-y,z
-x+y,-x,z
-y,-x,1/2-z
-x+y,y,1/2-z
x,x-y,1/2-z
-x,-y,-z
y,-x+y,-z
x-y,x,-z
y,x,1/2+z
x-y,-y,1/2+z
-x,-x+y,1/2+z
loop_
_atom_site_type_symbol
_atom_site_label
_atom_site_fract_x
_atom_site_fract_y
_atom_site_fract_z
Si Si1 0.822553 0.464449 0.570928
Si Si2 0.754710 0.026096 0.477164
Si Si3 0.000581 0.255448 0.715757
Si Si4 0.066920 0.533460 0.250000
O O1 0.686774 0.464603 0.549641
O O2 0.932659 0.589499 0.522119
O O3 0.851145 0.461352 0.668126
O O4 0.734556 0.992355 0.381733
O O5 0.901346 0.151649 0.480404
O O6 0.119007 0.238013 0.750000
O O7 0.018291 0.396188 0.738582
O O8 0.863318 0.136683 0.750000
#
# Coordination Sequence:
#
# PCOD9578198 Si02
#       4
#    12  12  12   6
#     4  10  23  41  68 103 135 180 230 291 352 425
#     4  12  25  44  69 100 139 181 237 295 363 430
#     4  12  27  47  73 104 144 191 245 300 369 436
#     4  12  22  44  72 104 144 188 242 290 354 436
#
# _framework density 21.687601000000001
#
# number of rings (size 3 to 8) (size 9 to 14) (size 15 to 20)
#    0.571    0.000    0.000   10.000    0.000    6.857 
#    1.714    0.000    0.000    0.000    0.000    0.000 
#    0.000    0.000    0.000    0.000    0.000    0.000 
#
# Total GULP energy -234399.933889 kJ/mol
# GULP energy per Si atom -5580.950807 kJ/mol
# Density = 2.163824 g / cm^3
# Si number density = 21.687601 Si / 1000 Ang^3
#
#
#
# Elastic Constant Matrix: (Units=GPa)
#
#
# Indices 1 2 3 4 5 6 
#
# 1 113.5151 25.6375 34.2621 -0.0003 7.9300 0.0000
# 2 25.6375 113.5151 34.2621 0.0003 -7.9300 0.0000
# 3 34.2621 34.2621 120.7694 0.0000 0.0000 0.0000
# 4 -0.0003 0.0003 0.0000 17.9693 0.0000 -7.9300
# 5 7.9300 -7.9300 0.0000 0.0000 17.9693 -0.0003
# 6 0.0000 0.0000 0.0000 -7.9300 -0.0003 43.9388
#
#
#
# Elastic Compliance Matrix: (Units=1/GPa)
#
#
# Indices 1 2 3 4 5 6 
#
# 1 0.010359 -0.002005 -0.002370 0.000000 -0.005456 0.000000
# 2 -0.002005 0.010359 -0.002370 0.000000 0.005456 0.000000
# 3 -0.002370 -0.002370 0.009625 0.000000 0.000000 0.000000
# 4 0.000000 0.000000 0.000000 0.060466 0.000000 0.010913
# 5 -0.005456 0.005456 0.000000 0.000000 0.060466 0.000000
# 6 0.000000 0.000000 0.000000 0.010913 0.000000 0.024729
#
#
# Mechanical properties :
#
#
# Convention : Reuss Voigt Hill
#
# Bulk Modulus (GPa) = 59.33925 59.56922 59.45423
# Shear Modulus (GPa) = 25.62641 32.88468 29.25554
#
# Velocity S-wave (km/s) = 3.44119 3.89818 3.67679
# Velocity P-wave (km/s) = 6.57338 6.91286 6.74526
#
# Compressibility (1/GPa) = 0.01685225
#
# Stress axis : x y z
#
# Youngs Moduli (GPa) = 96.53624 96.53624 103.89745
#
# Poissons Ratio (x) = 0.19360 0.24622
# Poissons Ratio (y) = 0.19360 0.24622
# Poissons Ratio (z) = 0.22877 0.22877
#
# Static dielectric constant tensor:
#      x y z
#    x 1.806800 0.000000 0.000000 
#    y 0.000000 1.806800 0.000000 
#    z 0.000000 0.000000 1.933310 
# 
# From -- ./inp_files/2923.got.cif
#   From: 2010.05.17/outbox.cif.g08.bks.cpg/sg163_2_cif.got.tgz:2923.got - 2010.05.20 10:56:03.
