data_PCOD9578946
_publ_section_title
;
Structure prediction by ZEFSAII (Michael W. Deem and Ramdas Pophale) SiO2 
 PCOD9578946
Probable space group: P -3 C 1
;
_chemical_formula_sum "Si O2"
_cell_formula_units_Z 42
_cell_length_a 11.092455
_cell_length_b 11.092455
_cell_length_c 17.752378
_cell_angle_alpha 90.000000
_cell_angle_beta 90.000000
_cell_angle_gamma 120.000000
_cell_volume 1891.657556
_symmetry_space_group_name_H-M "P -3 C 1"
_symmetry_group_IT_number 165
_symmetry_cell_setting 'hexagonal'
loop_
_space_group_symop_operation_xyz
x,y,z
-y,x-y,z
-x+y,-x,z
x-y,-y,1/2-z
-x,-x+y,1/2-z
y,x,1/2-z
-x,-y,-z
y,-x+y,-z
x-y,x,-z
-x+y,y,1/2+z
x,x-y,1/2+z
-y,-x,1/2+z
loop_
_atom_site_type_symbol
_atom_site_label
_atom_site_fract_x
_atom_site_fract_y
_atom_site_fract_z
Si Si1 0.727182 0.095360 0.880092
Si Si2 0.581441 0.977529 0.162300
Si Si3 0.811582 0.306803 0.534475
Si Si4 0.000000 0.157427 0.250000
O O1 0.576991 0.064221 0.853793
O O2 0.848061 0.250414 0.861403
O O3 0.766896 0.002470 0.826869
O O4 0.717925 0.100233 0.970835
O O5 0.604491 0.000000 0.250000
O O6 0.680075 0.115325 0.113865
O O7 0.804497 0.450668 0.527011
O O8 0.129354 0.129354 0.250000
#
# Coordination Sequence:
#
# PCOD9578946 Si02
#       4
#    12  12  12   6
#     4  12  23  47  71 105 144 183 241 293 362 418
#     4  12  26  42  76 108 138 190 235 308 356 428
#     4  10  24  46  72 108 145 176 236 303 369 422
#     4  10  26  50  68 104 152 200 240 284 338 448
#
# _framework density 22.202750999999999
#
# number of rings (size 3 to 8) (size 9 to 14) (size 15 to 20)
#    0.857    0.000    4.286    2.286    4.000    2.286 
#    0.000    0.000    0.000    1.714    0.000    0.000 
#    0.000    0.000    0.000    0.000    0.000    0.000 
#
# Total GULP energy -234488.290039 kJ/mol
# GULP energy per Si atom -5583.054525 kJ/mol
# Density = 2.215222 g / cm^3
# Si number density = 22.202751 Si / 1000 Ang^3
#
#
#
# Elastic Constant Matrix: (Units=GPa)
#
#
# Indices 1 2 3 4 5 6 
#
# 1 222.1619 -108.6207 42.1361 -83.5673 0.0000 0.0000
# 2 -108.6207 222.1619 42.1361 83.5673 0.0000 0.0000
# 3 42.1361 42.1361 214.6925 0.0000 0.0000 0.0000
# 4 -83.5673 83.5673 0.0000 109.3060 0.0000 0.0000
# 5 0.0000 0.0000 0.0000 0.0000 109.3060 -83.5673
# 6 0.0000 0.0000 0.0000 0.0000 -83.5673 165.3913
#
#
#
# Elastic Compliance Matrix: (Units=1/GPa)
#
#
# Indices 1 2 3 4 5 6 
#
# 1 0.007618 0.002692 -0.002023 0.003766 0.000000 0.000000
# 2 0.002692 0.007618 -0.002023 -0.003766 0.000000 0.000000
# 3 -0.002023 -0.002023 0.005452 0.000000 0.000000 0.000000
# 4 0.003766 -0.003766 0.000000 0.014907 0.000000 0.000000
# 5 0.000000 0.000000 0.000000 0.000000 0.014907 0.007532
# 6 0.000000 0.000000 0.000000 0.000000 0.007532 0.009852
#
#
# Mechanical properties :
#
#
# Convention : Reuss Voigt Hill
#
# Bulk Modulus (GPa) = 55.62649 67.81327 61.71988
# Shear Modulus (GPa) = 72.40519 122.35833 97.38176
#
# Velocity S-wave (km/s) = 5.71679 7.43163 6.62989
# Velocity P-wave (km/s) = 8.28757 10.21019 9.29870
#
# Compressibility (1/GPa) = 0.01797704
#
# Stress axis : x y z
#
# Youngs Moduli (GPa) = 131.27576 131.27576 183.41832
#
# Poissons Ratio (x) = -0.35333 0.37111
# Poissons Ratio (y) = -0.35333 0.37111
# Poissons Ratio (z) = 0.26561 0.26561
#
# Static dielectric constant tensor:
#      x y z
#    x 1.841610 0.000000 0.000000 
#    y 0.000000 1.841610 0.000000 
#    z 0.000000 0.000000 1.827340 
# 
# From -- ./inp_files/2092.got.cif
#   From: 2010.05.17/outbox.cif.g08.bks.cpg/sg165_2_cif.got.tgz:2092.got - 2010.05.20 11:02:39.
