data_PCOD9578307
_publ_section_title
;
Structure prediction by ZEFSAII (Michael W. Deem and Ramdas Pophale) SiO2 
 PCOD9578307
Probable space group: P -3 1 C
;
_chemical_formula_sum "Si O2"
_cell_formula_units_Z 60
_cell_length_a 15.000000
_cell_length_b 15.000000
_cell_length_c 15.000000
_cell_angle_alpha 90.000000
_cell_angle_beta 90.000000
_cell_angle_gamma 120.000000
_cell_volume 2922.835738
_symmetry_space_group_name_H-M "P -3 1 C"
_symmetry_group_IT_number 163
_symmetry_cell_setting 'hexagonal'
loop_
_space_group_symop_operation_xyz
x,y,z
-y,x-y,z
-x+y,-x,z
-y,-x,1/2-z
-x+y,y,1/2-z
x,x-y,1/2-z
-x,-y,-z
y,-x+y,-z
x-y,x,-z
y,x,1/2+z
x-y,-y,1/2+z
-x,-x+y,1/2+z
loop_
_atom_site_type_symbol
_atom_site_label
_atom_site_fract_x
_atom_site_fract_y
_atom_site_fract_z
Si Si1 0.214720 0.123117 0.972947
Si Si2 0.000347 0.793207 0.282658
Si Si3 0.449440 0.195471 0.025577
Si Si4 0.578965 0.108980 0.956029
Si Si5 0.611722 0.570123 0.189055
O O1 0.212600 0.189458 0.888890
O O2 0.152186 0.152554 0.044211
O O3 0.330626 0.154168 0.999261
O O4 0.108978 0.891023 0.250000
O O5 0.900256 0.800512 0.250000
O O6 0.978406 0.676383 0.262066
O O7 0.453723 0.136198 0.117394
O O8 0.513046 0.167223 0.954151
O O9 0.498652 0.319556 0.016437
O O10 0.602003 0.064994 0.865512
O O11 0.500000 0.000000 0.000000
O O12 0.530916 0.469085 0.250000
#
# Coordination Sequence:
#
# PCOD9578307 Si02
#       5
#    12  12  12  12  12
#     4  12  23  44  74 105 145 200 262 303 375 488
#     4  12  27  46  71 112 159 201 246 325 415 476
#     4  11  22  45  72 103 136 199 257 314 380 475
#     4  10  22  43  71 100 140 189 263 311 380 479
#     4  11  26  46  71 111 155 200 256 336 406 468
#
# _framework density 20.528009999999998
#
# number of rings (size 3 to 8) (size 9 to 14) (size 15 to 20)
#    0.000    0.800    4.000    3.200    2.800    3.200 
#    0.000    0.000    0.000    0.800    0.000    0.000 
#    0.000    0.000    0.000    0.000    0.000    0.000 
#
# Total GULP energy -334429.991531 kJ/mol
# GULP energy per Si atom -5573.833192 kJ/mol
# Density = 2.048129 g / cm^3
# Si number density = 20.528010 Si / 1000 Ang^3
#
#
#
# Elastic Constant Matrix: (Units=GPa)
#
#
# Indices 1 2 3 4 5 6 
#
# 1 191.8332 72.1965 32.6241 -0.0001 5.0899 0.0000
# 2 72.1965 191.8332 32.6241 0.0001 -5.0899 0.0000
# 3 32.6241 32.6241 63.3710 0.0000 0.0000 0.0000
# 4 -0.0001 0.0001 0.0000 43.2084 0.0000 -5.0899
# 5 5.0899 -5.0899 0.0000 0.0000 43.2084 -0.0001
# 6 0.0000 0.0000 0.0000 -5.0899 -0.0001 59.8184
#
#
#
# Elastic Compliance Matrix: (Units=1/GPa)
#
#
# Indices 1 2 3 4 5 6 
#
# 1 0.006391 -0.002052 -0.002234 0.000000 -0.000995 0.000000
# 2 -0.002052 0.006391 -0.002234 0.000000 0.000995 0.000000
# 3 -0.002234 -0.002234 0.018080 0.000000 0.000000 0.000000
# 4 0.000000 0.000000 0.000000 0.023378 0.000000 0.001989
# 5 -0.000995 0.000995 0.000000 0.000000 0.023378 0.000000
# 6 0.000000 0.000000 0.000000 0.001989 0.000000 0.016887
#
#
# Mechanical properties :
#
#
# Convention : Reuss Voigt Hill
#
# Bulk Modulus (GPa) = 56.10660 80.21409 68.16034
# Shear Modulus (GPa) = 44.05808 49.88655 46.97231
#
# Velocity S-wave (km/s) = 4.63778 4.93502 4.78871
# Velocity P-wave (km/s) = 7.48797 8.46362 7.99070
#
# Compressibility (1/GPa) = 0.01782322
#
# Stress axis : x y z
#
# Youngs Moduli (GPa) = 156.46015 156.46015 55.30880
#
# Poissons Ratio (x) = 0.32104 0.12356
# Poissons Ratio (y) = 0.32104 0.12356
# Poissons Ratio (z) = 0.34954 0.34954
#
# Static dielectric constant tensor:
#      x y z
#    x 1.755080 0.000000 0.000000 
#    y 0.000000 1.755080 0.000000 
#    z 0.000000 0.000000 1.900310 
# 
# From -- ./inp_files/2380.got.cif
#   From: 2010.05.17/outbox.ucp.g08.bks.cvg/sg163_2_cif.got.tgz:2380.got - 2010.06.11 15:15:55.
