data_PCOD9578464
_publ_section_title
;
Structure prediction by ZEFSAII (Michael W. Deem and Ramdas Pophale) SiO2 
 PCOD9578464
Probable space group: P -3 M 1
;
_chemical_formula_sum "Si O2"
_cell_formula_units_Z 96
_cell_length_a 17.032290
_cell_length_b 17.032290
_cell_length_c 21.830530
_cell_angle_alpha 90.000000
_cell_angle_beta 90.000000
_cell_angle_gamma 120.000000
_cell_volume 5484.549965
_symmetry_space_group_name_H-M "P -3 M 1"
_symmetry_group_IT_number 164
_symmetry_cell_setting 'hexagonal'
loop_
_space_group_symop_operation_xyz
x,y,z
-y,x-y,z
-x+y,-x,z
x-y,-y,-z
-x,-x+y,-z
y,x,-z
-x,-y,-z
y,-x+y,-z
x-y,x,-z
-x+y,y,z
x,x-y,z
-y,-x,z
loop_
_atom_site_type_symbol
_atom_site_label
_atom_site_fract_x
_atom_site_fract_y
_atom_site_fract_z
Si Si1 0.667289 0.148762 0.628134
Si Si2 0.999923 0.814766 0.685500
Si Si3 0.638210 0.133955 0.105572
Si Si4 0.724182 0.100542 0.987645
Si Si5 0.674854 0.632379 0.743602
Si Si6 0.516445 0.669367 0.755234
Si Si7 0.479041 0.144938 0.861593
Si Si8 0.703221 0.757566 0.437325
O O1 0.570350 0.140700 0.621644
O O2 0.748393 0.251608 0.619708
O O3 0.678488 0.114963 0.695022
O O4 0.686154 0.085543 0.582561
O O5 0.096683 0.903318 0.697202
O O6 0.919099 0.838198 0.684620
O O7 0.972305 0.732602 0.733369
O O8 0.998481 0.769822 0.619551
O O9 0.585215 0.170429 0.251888
O O10 0.689835 0.127532 0.048612
O O11 0.679939 0.143226 0.171423
O O12 0.563937 0.891582 0.071371
O O13 0.603031 0.206062 0.097912
O O14 0.828688 0.171313 0.978147
O O15 0.702155 0.000000 0.000000
O O16 0.587431 0.642574 0.729168
O O17 0.668387 0.590171 0.810187
O O18 0.525519 0.762760 0.732030
O O19 0.470585 0.529416 0.892261
O O20 0.576711 0.153421 0.854770
O O21 0.487181 0.243591 0.854670
O O22 0.731398 0.731398 0.500000
O O23 0.707109 0.853555 0.443970
#
# Coordination Sequence:
#
# PCOD9578464 Si02
#       8
#    12  12  12  12  12  12  12  12
#     4  10  20  34  52  73  99 132 171 212 249 288
#     4  10  20  35  55  78 105 135 168 206 248 294
#     4   9  17  29  46  69  96 125 156 191 235 290
#     4  10  21  35  51  71  95 124 158 199 249 302
#     4  11  21  34  50  72 100 133 171 212 253 294
#     4  10  19  31  48  70  97 129 166 208 254 305
#     4  11  22  35  52  74 102 133 165 203 248 300
#     4   9  18  32  52  79 108 135 163 197 240 291
#
# _framework density 17.503715
#
# number of rings (size 3 to 8) (size 9 to 14) (size 15 to 20)
#    0.000    2.000    0.000    5.500    0.000    3.250 
#    0.000    3.125    0.000    2.125    0.000    0.000 
#    0.000    8.000    0.000    0.000    0.000    0.500 
#
# Total GULP energy -534693.837550 kJ/mol
# GULP energy per Si atom -5569.727474 kJ/mol
# Density = 1.746388 g / cm^3
# Si number density = 17.503715 Si / 1000 Ang^3
#
#
#
# Elastic Constant Matrix: (Units=GPa)
#
#
# Indices 1 2 3 4 5 6 
#
# 1 90.0890 54.0860 13.2285 9.6902 0.0000 0.0000
# 2 54.0860 90.0890 13.2285 -9.6902 0.0000 0.0000
# 3 13.2285 13.2285 30.0429 0.0000 0.0000 0.0000
# 4 9.6902 -9.6902 0.0000 5.4402 0.0000 0.0000
# 5 0.0000 0.0000 0.0000 0.0000 5.4402 9.6902
# 6 0.0000 0.0000 0.0000 0.0000 9.6902 18.0015
#
#
#
# Elastic Compliance Matrix: (Units=1/GPa)
#
#
# Indices 1 2 3 4 5 6 
#
# 1 0.341045 -0.333499 -0.003323 -1.201504 -0.000001 0.000001
# 2 -0.333499 0.341045 -0.003323 1.201504 0.000001 -0.000001
# 3 -0.003323 -0.003323 0.036212 0.000000 0.000000 0.000000
# 4 -1.201504 1.201504 0.000000 4.464075 0.000005 -0.000003
# 5 -0.000001 0.000001 0.000000 0.000005 4.464069 -2.403005
# 6 0.000001 -0.000001 0.000000 -0.000003 -2.403005 1.349087
#
#
# Mechanical properties :
#
#
# Convention : Reuss Voigt Hill
#
# Bulk Modulus (GPa) = 26.30682 41.25634 33.78158
# Shear Modulus (GPa) = 0.42777 14.42160 7.42469
#
# Velocity S-wave (km/s) = 0.49489 2.87351 2.06179
# Velocity P-wave (km/s) = 3.92281 5.88478 5.00095
#
# Compressibility (1/GPa) = 0.03801295
#
# Stress axis : x y z
#
# Youngs Moduli (GPa) = 2.93216 2.93216 27.61542
#
# Poissons Ratio (x) = 0.97787 0.09175
# Poissons Ratio (y) = 0.97787 0.09175
# Poissons Ratio (z) = 0.00974 0.00974
#
# Static dielectric constant tensor:
#      x y z
#    x 1.604590 0.000000 0.000000 
#    y 0.000000 1.604590 0.000000 
#    z 0.000000 0.000000 1.582650 
# 
# From -- ./inp_files/5379.got.cif
#   From: 2010.05.17/outbox.cif.g08.bks.cpg/sg164_3_cif.got.tgz:5379.got - 2010.05.20 10:58:56.
