data_PCOD9578027
_publ_section_title
;
Structure prediction by ZEFSAII (Michael W. Deem and Ramdas Pophale) SiO2 
 PCOD9578027
Probable space group: P -3 1 C
;
_chemical_formula_sum "Si O2"
_cell_formula_units_Z 84
_cell_length_a 14.434209
_cell_length_b 14.434209
_cell_length_c 24.476171
_cell_angle_alpha 90.000000
_cell_angle_beta 90.000000
_cell_angle_gamma 120.000000
_cell_volume 4416.315474
_symmetry_space_group_name_H-M "P -3 1 C"
_symmetry_group_IT_number 163
_symmetry_cell_setting 'hexagonal'
loop_
_space_group_symop_operation_xyz
x,y,z
-y,x-y,z
-x+y,-x,z
-y,-x,1/2-z
-x+y,y,1/2-z
x,x-y,1/2-z
-x,-y,-z
y,-x+y,-z
x-y,x,-z
y,x,1/2+z
x-y,-y,1/2+z
-x,-x+y,1/2+z
loop_
_atom_site_type_symbol
_atom_site_label
_atom_site_fract_x
_atom_site_fract_y
_atom_site_fract_z
Si Si1 0.550040 0.113258 0.074310
Si Si2 0.666605 0.114485 0.263561
Si Si3 0.635772 0.670103 0.846939
Si Si4 0.508951 0.384270 0.957785
Si Si5 0.629039 0.754490 0.619697
Si Si6 0.760692 0.809731 0.513141
Si Si7 0.577749 0.730213 0.425325
O O1 0.600209 0.081427 0.124394
O O2 0.490081 0.176800 0.092172
O O3 0.452102 0.001211 0.052699
O O4 0.627923 0.152565 0.022222
O O5 0.769454 0.230547 0.250000
O O6 0.561149 0.122297 0.250000
O O7 0.662574 0.033496 0.217766
O O8 0.687051 0.082393 0.323824
O O9 0.662970 0.788195 0.863788
O O10 0.711259 0.629951 0.872166
O O11 0.627027 0.461754 0.934873
O O12 0.443591 0.271301 0.928914
O O13 0.717747 0.772128 0.574675
O O14 0.858725 0.791964 0.496833
O O15 0.659563 0.741875 0.473306
#
# Coordination Sequence:
#
# PCOD9578027 Si02
#       7
#    12  12  12  12  12  12  12
#     4  10  19  33  51  79 119 151 203 235 315 381
#     4  10  20  35  58  89 123 163 216 268 327 384
#     4  10  21  36  55  88 120 163 205 268 319 385
#     4  10  21  32  52  83 119 163 193 245 310 396
#     4  11  20  37  58  87 125 166 204 269 330 387
#     4  12  24  41  64  94 132 172 218 278 339 402
#     4  11  21  37  58  87 131 161 213 258 327 390
#
# _framework density 19.020379999999999
#
# number of rings (size 3 to 8) (size 9 to 14) (size 15 to 20)
#    0.000    1.429    4.286    2.286    2.000    0.000 
#    0.857    0.000    0.000    3.429    0.000    0.000 
#    0.000    0.000    0.000    0.000    0.000    0.000 
#
# Total GULP energy -468364.002561 kJ/mol
# GULP energy per Si atom -5575.761935 kJ/mol
# Density = 1.897709 g / cm^3
# Si number density = 19.020380 Si / 1000 Ang^3
#
#
#
# Elastic Constant Matrix: (Units=GPa)
#
#
# Indices 1 2 3 4 5 6 
#
# 1 80.2109 18.9904 48.2980 0.0001 -1.7249 0.0000
# 2 18.9904 80.2109 48.2980 -0.0001 1.7249 0.0000
# 3 48.2980 48.2980 152.7348 0.0000 0.0000 0.0000
# 4 0.0001 -0.0001 0.0000 23.6532 0.0000 1.7249
# 5 -1.7249 1.7249 0.0000 0.0000 23.6532 0.0001
# 6 0.0000 0.0000 0.0000 1.7249 0.0001 30.6103
#
#
#
# Elastic Compliance Matrix: (Units=1/GPa)
#
#
# Indices 1 2 3 4 5 6 
#
# 1 0.015484 -0.000918 -0.004606 0.000000 0.001196 0.000000
# 2 -0.000918 0.015484 -0.004606 0.000000 -0.001196 0.000000
# 3 -0.004606 -0.004606 0.009460 0.000000 0.000000 0.000000
# 4 0.000000 0.000000 0.000000 0.042452 0.000000 -0.002392
# 5 0.001196 -0.001196 0.000000 0.000000 0.042452 0.000000
# 6 0.000000 0.000000 0.000000 -0.002392 0.000000 0.032804
#
#
# Mechanical properties :
#
#
# Convention : Reuss Voigt Hill
#
# Bulk Modulus (GPa) = 49.58457 60.48102 55.03279
# Shear Modulus (GPa) = 27.00985 28.75469 27.88227
#
# Velocity S-wave (km/s) = 3.77244 3.89238 3.83288
# Velocity P-wave (km/s) = 6.71572 7.21581 6.97025
#
# Compressibility (1/GPa) = 0.02016756
#
# Stress axis : x y z
#
# Youngs Moduli (GPa) = 64.58435 64.58435 105.70535
#
# Poissons Ratio (x) = 0.05930 0.48687
# Poissons Ratio (y) = 0.05930 0.48687
# Poissons Ratio (z) = 0.29747 0.29747
#
# Static dielectric constant tensor:
#      x y z
#    x 1.690490 0.000000 0.000000 
#    y 0.000000 1.690490 0.000000 
#    z 0.000000 0.000000 1.700710 
# 
# From -- ./inp_files/3933.got.cif
#   From: 2010.05.17/outbox.cif.g08.bks.cpg/sg163_2_cif.got.tgz:3933.got - 2010.05.20 10:56:03.
