data_PCOD9578164
_publ_section_title
;
Structure prediction by ZEFSAII (Michael W. Deem and Ramdas Pophale) SiO2 
 PCOD9578164
Probable space group: P -3 1 C
;
_chemical_formula_sum "Si O2"
_cell_formula_units_Z 84
_cell_length_a 17.486317
_cell_length_b 17.486317
_cell_length_c 16.847754
_cell_angle_alpha 90.000000
_cell_angle_beta 90.000000
_cell_angle_gamma 120.000000
_cell_volume 4461.381260
_symmetry_space_group_name_H-M "P -3 1 C"
_symmetry_group_IT_number 163
_symmetry_cell_setting 'hexagonal'
loop_
_space_group_symop_operation_xyz
x,y,z
-y,x-y,z
-x+y,-x,z
-y,-x,1/2-z
-x+y,y,1/2-z
x,x-y,1/2-z
-x,-y,-z
y,-x+y,-z
x-y,x,-z
y,x,1/2+z
x-y,-y,1/2+z
-x,-x+y,1/2+z
loop_
_atom_site_type_symbol
_atom_site_label
_atom_site_fract_x
_atom_site_fract_y
_atom_site_fract_z
Si Si1 0.457860 0.228930 0.750000
Si Si2 0.442988 0.859043 0.931143
Si Si3 0.504687 0.742863 0.841460
Si Si4 0.087618 0.755326 0.121807
Si Si5 0.905468 0.112987 0.008394
Si Si6 0.941627 0.426616 0.912133
Si Si7 0.571365 0.428636 0.750000
Si Si8 0.710332 0.809960 0.828164
O O1 0.395800 0.167637 0.820898
O O2 0.523882 0.328079 0.778427
O O3 0.499854 0.821152 0.888336
O O4 0.346548 0.798781 0.892745
O O5 0.477699 0.963118 0.917953
O O6 0.450120 0.864626 0.026909
O O7 0.471392 0.735696 0.750000
O O8 0.604380 0.762136 0.833357
O O9 0.052690 0.661916 0.076660
O O10 0.004012 0.742995 0.172298
O O11 0.112737 0.831948 0.058043
O O12 0.867348 0.119303 0.092826
O O13 0.010125 0.153604 0.013275
O O14 0.913636 0.427329 0.822861
O O15 0.738816 0.869408 0.750000
#
# Coordination Sequence:
#
# PCOD9578164 Si02
#       8
#     6  12  12  12  12  12   6  12
#     4  10  23  40  66  92 126 162 218 266 325 386
#     4  11  23  40  61  92 127 169 219 262 325 389
#     4  11  23  38  63  91 128 168 211 268 321 383
#     4  10  21  42  62  93 123 164 216 261 317 397
#     4  10  22  40  63  90 125 163 208 262 328 388
#     4  10  23  41  62  89 128 170 214 269 326 387
#     4  10  23  40  62  92 122 168 210 278 327 392
#     4  10  22  38  60  90 128 162 211 263 318 380
#
# _framework density 18.828251000000002
#
# number of rings (size 3 to 8) (size 9 to 14) (size 15 to 20)
#    0.000    1.714    1.429    1.857    4.000    4.571 
#    2.571    0.000    0.000    0.000    0.000    0.000 
#    0.000    0.000    0.000    0.000    0.000    0.000 
#
# Total GULP energy -468477.957877 kJ/mol
# GULP energy per Si atom -5577.118546 kJ/mol
# Density = 1.878540 g / cm^3
# Si number density = 18.828251 Si / 1000 Ang^3
#
#
#
# Elastic Constant Matrix: (Units=GPa)
#
#
# Indices 1 2 3 4 5 6 
#
# 1 84.7276 27.7676 33.6989 0.0006 5.3264 0.0000
# 2 27.7676 84.7276 33.6989 -0.0006 -5.3264 0.0000
# 3 33.6989 33.6989 83.5000 0.0000 0.0000 0.0000
# 4 0.0006 -0.0006 0.0000 11.1338 0.0000 -5.3264
# 5 5.3264 -5.3264 0.0000 0.0000 11.1338 0.0006
# 6 0.0000 0.0000 0.0000 -5.3264 0.0006 28.4800
#
#
#
# Elastic Compliance Matrix: (Units=1/GPa)
#
#
# Indices 1 2 3 4 5 6 
#
# 1 0.015503 -0.003779 -0.004732 -0.000001 -0.009224 0.000000
# 2 -0.003779 0.015503 -0.004732 0.000001 0.009224 0.000000
# 3 -0.004732 -0.004732 0.015795 0.000000 0.000000 0.000000
# 4 -0.000001 0.000001 0.000000 0.098642 0.000000 0.018448
# 5 -0.009224 0.009224 0.000000 0.000000 0.098642 -0.000002
# 6 0.000000 0.000000 0.000000 0.018448 -0.000002 0.038563
#
#
# Mechanical properties :
#
#
# Convention : Reuss Voigt Hill
#
# Bulk Modulus (GPa) = 49.22004 49.25402 49.23703
# Shear Modulus (GPa) = 15.82760 20.66882 18.24821
#
# Velocity S-wave (km/s) = 2.90251 3.31683 3.11656
# Velocity P-wave (km/s) = 6.11809 6.39413 6.25764
#
# Compressibility (1/GPa) = 0.02031693
#
# Stress axis : x y z
#
# Youngs Moduli (GPa) = 64.50505 64.50505 63.31042
#
# Poissons Ratio (x) = 0.24374 0.29956
# Poissons Ratio (y) = 0.24374 0.29956
# Poissons Ratio (z) = 0.30521 0.30521
#
# Static dielectric constant tensor:
#      x y z
#    x 1.663980 0.000000 0.000000 
#    y 0.000000 1.663980 0.000000 
#    z 0.000000 0.000000 1.657670 
# 
# From -- ./inp_files/2699.got.cif
#   From: 2010.05.17/outbox.cif.g08.bks.cpg/sg163_2_cif.got.tgz:2699.got - 2010.05.20 10:56:03.
