data_PCOD9578326
_publ_section_title
;
Structure prediction by ZEFSAII (Michael W. Deem and Ramdas Pophale) SiO2 
 PCOD9578326
Probable space group: P -3 M 1
;
_chemical_formula_sum "Si O2"
_cell_formula_units_Z 84
_cell_length_a 22.072481
_cell_length_b 22.072481
_cell_length_c 10.897582
_cell_angle_alpha 90.000000
_cell_angle_beta 90.000000
_cell_angle_gamma 120.000000
_cell_volume 4597.937680
_symmetry_space_group_name_H-M "P -3 M 1"
_symmetry_group_IT_number 164
_symmetry_cell_setting 'hexagonal'
loop_
_space_group_symop_operation_xyz
x,y,z
-y,x-y,z
-x+y,-x,z
x-y,-y,-z
-x,-x+y,-z
y,x,-z
-x,-y,-z
y,-x+y,-z
x-y,x,-z
-x+y,y,z
x,x-y,z
-y,-x,z
loop_
_atom_site_type_symbol
_atom_site_label
_atom_site_fract_x
_atom_site_fract_y
_atom_site_fract_z
Si Si1 0.743348 0.113479 0.553206
Si Si2 0.070280 0.784714 0.941659
Si Si3 0.335018 0.434284 0.004134
Si Si4 0.990510 0.426409 0.800118
Si Si5 0.530756 0.331881 0.184390
Si Si6 0.977702 0.680033 0.313740
Si Si7 0.188850 0.521721 0.532000
O O1 0.815385 0.184616 0.564103
O O2 0.738406 0.074301 0.425855
O O3 0.683879 0.136607 0.545471
O O4 0.736262 0.057523 0.654135
O O5 0.139021 0.860980 0.942597
O O6 0.083514 0.728282 0.015105
O O7 0.051857 0.750459 0.805691
O O8 0.000000 0.777804 0.000000
O O9 0.394311 0.440696 0.908460
O O10 0.307691 0.477591 0.928354
O O11 0.373578 0.457145 0.134465
O O12 0.993555 0.496778 0.759511
O O13 0.012900 0.387537 0.703495
O O14 0.563565 0.281783 0.188976
O O15 0.589217 0.410784 0.161929
O O16 0.501843 0.327486 0.322192
O O17 0.268207 0.536414 0.510282
O O18 0.183848 0.591924 0.512839
#
# Coordination Sequence:
#
# PCOD9578326 Si02
#       7
#    12  12  12  12  12  12  12
#     4  10  21  36  55  75 104 144 185 233 280 331
#     4  11  21  37  60  88 116 142 176 216 266 331
#     4  10  17  31  47  74 104 141 183 223 269 327
#     4  10  18  30  48  72 108 146 183 227 275 329
#     4  10  18  27  42  67 101 144 194 245 291 328
#     4  10  21  37  52  79 111 142 186 226 280 329
#     4   9  17  29  46  70 100 139 188 241 291 330
#
# _framework density 18.26906
#
# number of rings (size 3 to 8) (size 9 to 14) (size 15 to 20)
#    0.000    2.000    2.857    4.571    0.000    5.143 
#    0.000    1.429    0.000    0.143    0.000    0.000 
#    0.000    2.286    0.000    7.286    0.000    0.000 
#
# Total GULP energy -467926.863101 kJ/mol
# GULP energy per Si atom -5570.557894 kJ/mol
# Density = 1.822748 g / cm^3
# Si number density = 18.269060 Si / 1000 Ang^3
#
#
#
# Elastic Constant Matrix: (Units=GPa)
#
#
# Indices 1 2 3 4 5 6 
#
# 1 88.0306 40.5658 10.2932 0.0192 0.0000 0.0000
# 2 40.5658 88.0306 10.2932 -0.0192 0.0000 0.0000
# 3 10.2932 10.2932 9.7560 0.0000 0.0000 0.0000
# 4 0.0192 -0.0192 0.0000 16.4339 0.0000 0.0000
# 5 0.0000 0.0000 0.0000 0.0000 16.4339 0.0192
# 6 0.0000 0.0000 0.0000 0.0000 0.0192 23.7324
#
#
#
# Elastic Compliance Matrix: (Units=1/GPa)
#
#
# Indices 1 2 3 4 5 6 
#
# 1 0.015212 -0.005856 -0.009872 -0.000025 0.000000 0.000000
# 2 -0.005856 0.015212 -0.009872 0.000025 0.000000 0.000000
# 3 -0.009872 -0.009872 0.123331 0.000000 0.000000 0.000000
# 4 -0.000025 0.000025 0.000000 0.060850 0.000000 0.000000
# 5 0.000000 0.000000 0.000000 0.000000 0.060850 -0.000049
# 6 0.000000 0.000000 0.000000 0.000000 -0.000049 0.042137
#
#
# Mechanical properties :
#
#
# Convention : Reuss Voigt Hill
#
# Bulk Modulus (GPa) = 9.75065 34.23573 21.99319
# Shear Modulus (GPa) = 12.40765 19.63101 16.01933
#
# Velocity S-wave (km/s) = 2.60890 3.28159 2.96439
# Velocity P-wave (km/s) = 3.79789 5.75664 4.87662
#
# Compressibility (1/GPa) = 0.10255730
#
# Stress axis : x y z
#
# Youngs Moduli (GPa) = 65.73568 65.73568 8.10825
#
# Poissons Ratio (x) = 0.38494 0.08004
# Poissons Ratio (y) = 0.38494 0.08004
# Poissons Ratio (z) = 0.64893 0.64893
#
# Static dielectric constant tensor:
#      x y z
#    x 1.670990 0.000000 0.000000 
#    y 0.000000 1.670990 0.000000 
#    z 0.000000 0.000000 1.672770 
# 
# From -- ./inp_files/2885.got.cif
#   From: 2010.05.17/outbox.cif.g08.bks.cpg/sg164_2_cif.got.tgz:2885.got - 2010.05.20 10:58:56.
