data_PCOD9578006
_publ_section_title
;
Structure prediction by ZEFSAII (Michael W. Deem and Ramdas Pophale) SiO2 
 PCOD9578006
Probable space group: P -3 1 C
;
_chemical_formula_sum "Si O2"
_cell_formula_units_Z 64
_cell_length_a 15.026081
_cell_length_b 15.026081
_cell_length_c 16.760250
_cell_angle_alpha 90.000000
_cell_angle_beta 90.000000
_cell_angle_gamma 120.000000
_cell_volume 3277.197202
_symmetry_space_group_name_H-M "P -3 1 C"
_symmetry_group_IT_number 163
_symmetry_cell_setting 'hexagonal'
loop_
_space_group_symop_operation_xyz
x,y,z
-y,x-y,z
-x+y,-x,z
-y,-x,1/2-z
-x+y,y,1/2-z
x,x-y,1/2-z
-x,-y,-z
y,-x+y,-z
x-y,x,-z
y,x,1/2+z
x-y,-y,1/2+z
-x,-x+y,1/2+z
loop_
_atom_site_type_symbol
_atom_site_label
_atom_site_fract_x
_atom_site_fract_y
_atom_site_fract_z
Si Si1 0.498859 0.667812 0.553796
Si Si2 0.935514 0.200435 0.104088
Si Si3 0.666668 0.333334 0.342670
Si Si4 0.255748 0.997047 0.932509
Si Si5 0.792246 0.143482 0.837128
Si Si6 0.527536 0.871821 0.478752
O O1 0.613288 0.720517 0.588834
O O2 0.417530 0.639710 0.624633
O O3 0.492395 0.755395 0.504015
O O4 0.455474 0.568256 0.497648
O O5 0.029888 0.249668 0.164926
O O6 0.839340 0.088079 0.118565
O O7 0.980631 0.198677 0.016656
O O8 0.666668 0.333334 0.250000
O O9 0.321467 0.105021 0.888290
O O10 0.318734 0.942174 0.963185
O O11 0.807896 0.192105 0.750000
O O12 0.692749 0.123255 0.889217
#
# Coordination Sequence:
#
# PCOD9578006 Si02
#       6
#    12  12   4  12  12  12
#     4   9  17  36  62  88 107 157 194 228 289 353
#     4  10  19  37  62  83 109 154 196 239 283 350
#     4   9  18  33  54  90 127 134 181 255 300 342
#     4  10  18  36  60  82 108 148 197 233 285 343
#     4  11  23  39  54  85 124 148 188 251 293 333
#     4   9  19  36  65  85 113 149 197 236 278 357
#
# _framework density 19.528883
#
# number of rings (size 3 to 8) (size 9 to 14) (size 15 to 20)
#    0.000    2.250    5.625    0.375    0.000    3.750 
#   11.250    1.875    0.000    0.000    0.000    0.000 
#    0.000    0.000    0.000    0.000    0.000    0.000 
#
# Total GULP energy -356479.716232 kJ/mol
# GULP energy per Si atom -5569.995566 kJ/mol
# Density = 1.948443 g / cm^3
# Si number density = 19.528883 Si / 1000 Ang^3
#
#
#
# Elastic Constant Matrix: (Units=GPa)
#
#
# Indices 1 2 3 4 5 6 
#
# 1 77.0066 31.8543 12.7242 -0.0001 -3.5525 0.0000
# 2 31.8543 77.0069 12.7244 0.0002 3.5526 0.0001
# 3 12.7242 12.7244 72.3491 0.0000 0.0001 0.0001
# 4 -0.0001 0.0002 0.0000 11.0024 0.0002 3.5526
# 5 -3.5525 3.5526 0.0001 0.0002 11.0024 0.0000
# 6 0.0000 0.0001 0.0001 3.5526 0.0000 22.5761
#
#
#
# Elastic Compliance Matrix: (Units=1/GPa)
#
#
# Indices 1 2 3 4 5 6 
#
# 1 0.016456 -0.006876 -0.001685 0.000000 0.007534 0.000000
# 2 -0.006876 0.016456 -0.001685 0.000000 -0.007534 0.000000
# 3 -0.001685 -0.001685 0.014415 0.000000 0.000000 0.000000
# 4 0.000000 0.000000 0.000000 0.095754 -0.000002 -0.015068
# 5 0.007534 -0.007534 0.000000 -0.000002 0.095755 0.000000
# 6 0.000000 0.000000 0.000000 -0.015068 0.000000 0.046666
#
#
# Mechanical properties :
#
#
# Convention : Reuss Voigt Hill
#
# Bulk Modulus (GPa) = 37.26491 37.88538 37.57514
# Shear Modulus (GPa) = 15.87610 20.18682 18.03146
#
# Velocity S-wave (km/s) = 2.85433 3.21859 3.04192
# Velocity P-wave (km/s) = 5.47598 5.76665 5.62319
#
# Compressibility (1/GPa) = 0.02683490
#
# Stress axis : x y z
#
# Youngs Moduli (GPa) = 60.76692 60.76703 69.37452
#
# Poissons Ratio (x) = 0.41786 0.11688
# Poissons Ratio (y) = 0.41786 0.11689
# Poissons Ratio (z) = 0.10238 0.10239
#
# Static dielectric constant tensor:
#      x y z
#    x 1.745100 0.000000 0.000000 
#    y 0.000000 1.745100 0.000000 
#    z 0.000000 0.000000 1.669820 
# 
# From -- ./inp_files/3096.got.cif
#   From: 2010.05.17/outbox.cif.g08.bks.cpg/sg163_2_cif.got.tgz:3096.got - 2010.05.20 10:56:03.
