data_PCOD9578696
_publ_section_title
;
Structure prediction by ZEFSAII (Michael W. Deem and Ramdas Pophale) SiO2 
 PCOD9578696
Probable space group: P -3 M 1
;
_chemical_formula_sum "Si O2"
_cell_formula_units_Z 34
_cell_length_a 11.032216
_cell_length_b 11.032216
_cell_length_c 16.153348
_cell_angle_alpha 90.000000
_cell_angle_beta 90.000000
_cell_angle_gamma 120.000000
_cell_volume 1702.623776
_symmetry_space_group_name_H-M "P -3 M 1"
_symmetry_group_IT_number 164
_symmetry_cell_setting 'hexagonal'
loop_
_space_group_symop_operation_xyz
x,y,z
-y,x-y,z
-x+y,-x,z
x-y,-y,-z
-x,-x+y,-z
y,x,-z
-x,-y,-z
y,-x+y,-z
x-y,x,-z
-x+y,y,z
x,x-y,z
-y,-x,z
loop_
_atom_site_type_symbol
_atom_site_label
_atom_site_fract_x
_atom_site_fract_y
_atom_site_fract_z
Si Si1 0.602378 0.939170 0.320832
Si Si2 0.834191 0.668382 0.026269
Si Si3 0.666668 0.333335 0.222111
Si Si4 0.333333 0.666666 0.978175
Si Si5 0.170828 0.829173 0.775629
Si Si6 0.288122 0.288122 0.500000
O O1 0.479950 0.959899 0.284586
O O2 0.554284 0.777142 0.323887
O O3 0.636535 0.995651 0.414563
O O4 0.740233 0.020658 0.265872
O O5 0.750709 0.501417 0.998467
O O6 0.834121 0.668241 0.126144
O O7 0.750603 0.750603 0.000000
O O8 0.666667 0.333334 0.122026
O O9 0.506117 0.253059 0.249476
O O10 0.273958 0.136979 0.499616
#
# Coordination Sequence:
#
# PCOD9578696 Si02
#       6
#    12   6   2   2   6   6
#     4  11  23  40  62  92 127 167 213 266 320 378
#     4  11  25  45  69 102 137 174 223 285 339 411
#     4   9  18  39  69  90 117 160 224 259 294 378
#     4   9  21  45  75  99 129 175 224 268 342 417
#     4  11  22  41  67  89 125 170 213 259 319 389
#     4  10  20  36  58  90 126 167 211 266 318 376
#
# _framework density 19.969180000000001
#
# number of rings (size 3 to 8) (size 9 to 14) (size 15 to 20)
#    0.000    1.412    3.529    1.765    2.471    0.000 
#    1.059    0.000    0.000    0.000    0.000    0.000 
#    0.000    0.000    0.000    0.000    0.000    0.000 
#
# Total GULP energy -189650.516579 kJ/mol
# GULP energy per Si atom -5577.956370 kJ/mol
# Density = 1.992373 g / cm^3
# Si number density = 19.969180 Si / 1000 Ang^3
#
#
#
# Elastic Constant Matrix: (Units=GPa)
#
#
# Indices 1 2 3 4 5 6 
#
# 1 84.7845 73.0214 22.6507 -5.1974 0.0000 0.0000
# 2 73.0214 84.7850 22.6506 5.1975 0.0000 0.0000
# 3 22.6507 22.6506 75.9223 0.0000 0.0000 0.0000
# 4 -5.1974 5.1975 0.0000 23.7350 0.0000 0.0000
# 5 0.0000 0.0000 0.0000 0.0000 23.7350 -5.1974
# 6 0.0000 0.0000 0.0000 0.0000 -5.1974 5.8815
#
#
#
# Elastic Compliance Matrix: (Units=1/GPa)
#
#
# Indices 1 2 3 4 5 6 
#
# 1 0.056168 -0.049238 -0.002068 0.023082 0.000000 0.000000
# 2 -0.049238 0.056168 -0.002068 -0.023082 0.000000 0.000000
# 3 -0.002068 -0.002068 0.014405 0.000000 0.000000 0.000000
# 4 0.023082 -0.023082 0.000000 0.052241 0.000000 0.000000
# 5 0.000000 0.000000 0.000000 0.000000 0.052241 0.046165
# 6 0.000000 0.000000 0.000000 0.000000 0.046165 0.210819
#
#
# Mechanical properties :
#
#
# Convention : Reuss Voigt Hill
#
# Bulk Modulus (GPa) = 50.01141 53.57081 51.79111
# Shear Modulus (GPa) = 9.00166 19.14824 14.07495
#
# Velocity S-wave (km/s) = 2.12546 3.09995 2.65775
# Velocity P-wave (km/s) = 5.57872 6.30063 5.95063
#
# Compressibility (1/GPa) = 0.01999544
#
# Stress axis : x y z
#
# Youngs Moduli (GPa) = 17.80362 17.80373 69.42002
#
# Poissons Ratio (x) = 0.87662 0.14354
# Poissons Ratio (y) = 0.87661 0.14353
# Poissons Ratio (z) = 0.03681 0.03681
#
# Static dielectric constant tensor:
#      x y z
#    x 1.697190 0.000000 0.000000 
#    y 0.000000 1.697190 0.000000 
#    z 0.000000 0.000000 1.678370 
# 
# From -- ./inp_files/3215.got.cif
#   From: 2010.05.17/outbox.cif.g08.bks.cpg/sg164_2_cif.got.tgz:3215.got - 2010.05.20 10:58:56.
