data_PCOD9578547
_publ_section_title
;
Structure prediction by ZEFSAII (Michael W. Deem and Ramdas Pophale) SiO2 
 PCOD9578547
Probable space group: P -3 M 1
;
_chemical_formula_sum "Si O2"
_cell_formula_units_Z 60
_cell_length_a 13.073181
_cell_length_b 13.073181
_cell_length_c 25.770543
_cell_angle_alpha 90.000000
_cell_angle_beta 90.000000
_cell_angle_gamma 120.000000
_cell_volume 3814.316700
_symmetry_space_group_name_H-M "P -3 M 1"
_symmetry_group_IT_number 164
_symmetry_cell_setting 'hexagonal'
loop_
_space_group_symop_operation_xyz
x,y,z
-y,x-y,z
-x+y,-x,z
x-y,-y,-z
-x,-x+y,-z
y,x,-z
-x,-y,-z
y,-x+y,-z
x-y,x,-z
-x+y,y,z
x,x-y,z
-y,-x,z
loop_
_atom_site_type_symbol
_atom_site_label
_atom_site_fract_x
_atom_site_fract_y
_atom_site_fract_z
Si Si1 0.241829 0.000331 0.059565
Si Si2 0.576398 0.666437 0.452566
Si Si3 0.906777 0.573926 0.241473
Si Si4 0.907696 0.574672 0.362595
Si Si5 0.333233 0.423460 0.151242
O O1 0.249019 0.124510 0.069851
O O2 0.314970 0.972779 0.101293
O O3 0.106275 0.893726 0.063124
O O4 0.279735 0.000000 0.000000
O O5 0.640187 0.640187 0.500000
O O6 0.583183 0.791592 0.456774
O O7 0.440389 0.559612 0.452895
O O8 0.636146 0.652468 0.400321
O O9 0.791429 0.582857 0.229681
O O10 0.877741 0.438871 0.235721
O O11 0.937903 0.605551 0.301996
O O12 0.011824 0.650334 0.202053
O O13 0.791498 0.582995 0.374821
O O14 0.879040 0.439520 0.369512
O O15 0.218172 0.436345 0.155956
O O16 0.450011 0.549989 0.145805
#
# Coordination Sequence:
#
# PCOD9578547 Si02
#       5
#    12  12  12  12  12
#     4   9  17  30  49  71  92 115 147 190 237 280
#     4  10  20  33  50  72  97 125 157 194 234 274
#     4   9  17  30  49  72  95 119 150 190 233 273
#     4   9  17  30  50  74  97 121 150 187 231 276
#     4  10  20  32  46  65  92 126 159 189 224 271
#
# _framework density 15.73021
#
# number of rings (size 3 to 8) (size 9 to 14) (size 15 to 20)
#    0.000    2.600    0.000    2.200    0.000    3.600 
#    0.000    2.000    0.000    6.800    0.000    0.000 
#    0.000    0.000    0.000    0.000    0.000    0.000 
#
# Total GULP energy -334501.268420 kJ/mol
# GULP energy per Si atom -5575.021140 kJ/mol
# Density = 1.569441 g / cm^3
# Si number density = 15.730210 Si / 1000 Ang^3
#
#
#
# Elastic Constant Matrix: (Units=GPa)
#
#
# Indices 1 2 3 4 5 6 
#
# 1 110.1085 73.6013 78.8794 1.8703 0.0000 0.0000
# 2 73.6013 110.1085 78.8794 -1.8703 0.0000 0.0000
# 3 78.8794 78.8794 102.2149 0.0000 0.0000 0.0000
# 4 1.8703 -1.8703 0.0000 23.8601 0.0000 0.0000
# 5 0.0000 0.0000 0.0000 0.0000 23.8601 1.8703
# 6 0.0000 0.0000 0.0000 0.0000 1.8703 18.2536
#
#
#
# Elastic Compliance Matrix: (Units=1/GPa)
#
#
# Indices 1 2 3 4 5 6 
#
# 1 0.021876 -0.005738 -0.012453 -0.002165 0.000000 0.000000
# 2 -0.005738 0.021876 -0.012453 0.002165 0.000000 0.000000
# 3 -0.012453 -0.012453 0.029004 0.000000 0.000000 0.000000
# 4 -0.002165 0.002165 0.000000 0.042250 0.000000 0.000000
# 5 0.000000 0.000000 0.000000 0.000000 0.042250 -0.004329
# 6 0.000000 0.000000 0.000000 0.000000 -0.004329 0.055227
#
#
# Mechanical properties :
#
#
# Convention : Reuss Voigt Hill
#
# Bulk Modulus (GPa) = 87.21819 87.23912 87.22865
# Shear Modulus (GPa) = 18.01188 19.26620 18.63904
#
# Velocity S-wave (km/s) = 3.38753 3.50350 3.44600
# Velocity P-wave (km/s) = 8.41826 8.48210 8.45024
#
# Compressibility (1/GPa) = 0.01146550
#
# Stress axis : x y z
#
# Youngs Moduli (GPa) = 45.71302 45.71302 34.47811
#
# Poissons Ratio (x) = 0.26230 0.42937
# Poissons Ratio (y) = 0.26230 0.42937
# Poissons Ratio (z) = 0.56928 0.56928
#
# Static dielectric constant tensor:
#      x y z
#    x 1.495020 0.000000 0.000000 
#    y 0.000000 1.495020 0.000000 
#    z 0.000000 0.000000 1.531890 
# 
# From -- ./inp_files/5153.got.cif
#   From: 2010.05.17/outbox.cif.g08.bks.cpg/sg164_3_cif.got.tgz:5153.got - 2010.05.20 10:58:56.
