data_PCOD9578713
_publ_section_title
;
Structure prediction by ZEFSAII (Michael W. Deem and Ramdas Pophale) SiO2 
 PCOD9578713
Probable space group: P -3 M 1
;
_chemical_formula_sum "Si O2"
_cell_formula_units_Z 60
_cell_length_a 27.549580
_cell_length_b 27.549580
_cell_length_c 5.028660
_cell_angle_alpha 90.000000
_cell_angle_beta 90.000000
_cell_angle_gamma 120.000000
_cell_volume 3305.315112
_symmetry_space_group_name_H-M "P -3 M 1"
_symmetry_group_IT_number 164
_symmetry_cell_setting 'hexagonal'
loop_
_space_group_symop_operation_xyz
x,y,z
-y,x-y,z
-x+y,-x,z
x-y,-y,-z
-x,-x+y,-z
y,x,-z
-x,-y,-z
y,-x+y,-z
x-y,x,-z
-x+y,y,z
x,x-y,z
-y,-x,z
loop_
_atom_site_type_symbol
_atom_site_label
_atom_site_fract_x
_atom_site_fract_y
_atom_site_fract_z
Si Si1 0.226283 0.666660 0.455630
Si Si2 0.366169 0.061107 0.394919
Si Si3 0.326549 0.829082 0.951591
Si Si4 0.131187 0.373443 0.099831
Si Si5 0.417543 0.472093 0.812246
O O1 0.209080 0.604540 0.532535
O O2 0.290703 0.709297 0.508859
O O3 0.190305 0.682519 0.647538
O O4 0.213950 0.669677 0.148653
O O5 0.368993 0.105132 0.610887
O O6 0.424534 0.058850 0.362868
O O7 0.321607 0.000000 0.500000
O O8 0.352246 0.080822 0.116625
O O9 0.383641 0.888247 0.979209
O O10 0.274792 0.835409 0.038161
O O11 0.175945 0.351889 0.081448
O O12 0.473225 0.526775 0.693252
O O13 0.440384 0.440384 0.000000
#
# Coordination Sequence:
#
# PCOD9578713 Si02
#       5
#    12  12  12  12  12
#     4  12  24  39  55  72  93 119 154 195 244 298
#     4  11  22  38  57  81 111 139 170 217 271 315
#     4  11  23  38  56  74  98 125 157 201 250 301
#     4  11  22  38  59  81 105 138 177 213 256 313
#     4  10  21  37  55  77 104 134 169 208 260 330
#
# _framework density 18.152581999999999
#
# number of rings (size 3 to 8) (size 9 to 14) (size 15 to 20)
#    0.000    1.000    0.000    9.800    0.000    0.400 
#    0.000    9.000    0.000    0.000    0.000    0.000 
#    0.000    0.000    0.000    0.000    0.000    0.000 
#
# Total GULP energy -334993.269829 kJ/mol
# GULP energy per Si atom -5583.221164 kJ/mol
# Density = 1.811127 g / cm^3
# Si number density = 18.152582 Si / 1000 Ang^3
#
#
#
# Elastic Constant Matrix: (Units=GPa)
#
#
# Indices 1 2 3 4 5 6 
#
# 1 53.2956 30.8606 12.4924 3.8484 0.0000 0.0000
# 2 30.8606 53.2956 12.4924 -3.8484 0.0000 0.0000
# 3 12.4924 12.4924 66.9285 0.0000 0.0000 0.0000
# 4 3.8484 -3.8484 0.0000 11.0120 0.0000 0.0000
# 5 0.0000 0.0000 0.0000 0.0000 11.0120 3.8484
# 6 0.0000 0.0000 0.0000 0.0000 3.8484 11.2175
#
#
#
# Elastic Compliance Matrix: (Units=1/GPa)
#
#
# Indices 1 2 3 4 5 6 
#
# 1 0.031613 -0.019033 -0.002348 -0.017699 0.000000 0.000000
# 2 -0.019033 0.031613 -0.002348 0.017699 0.000000 0.000000
# 3 -0.002348 -0.002348 0.015818 0.000000 0.000000 0.000000
# 4 -0.017699 0.017699 0.000000 0.103181 0.000000 0.000000
# 5 0.000000 0.000000 0.000000 0.000000 0.103181 -0.035399
# 6 0.000000 0.000000 0.000000 0.000000 -0.035399 0.101291
#
#
# Mechanical properties :
#
#
# Convention : Reuss Voigt Hill
#
# Bulk Modulus (GPa) = 31.66042 31.69007 31.67524
# Shear Modulus (GPa) = 11.24397 14.49323 12.86860
#
# Velocity S-wave (km/s) = 2.49150 2.82868 2.66543
# Velocity P-wave (km/s) = 5.07503 5.30699 5.19230
#
# Compressibility (1/GPa) = 0.03158518
#
# Stress axis : x y z
#
# Youngs Moduli (GPa) = 31.63292 31.63292 63.21969
#
# Poissons Ratio (x) = 0.60206 0.14844
# Poissons Ratio (y) = 0.60206 0.14844
# Poissons Ratio (z) = 0.07428 0.07428
#
# Static dielectric constant tensor:
#      x y z
#    x 1.636110 0.000000 0.000000 
#    y 0.000000 1.636110 0.000000 
#    z 0.000000 0.000000 1.660390 
# 
# From -- ./inp_files/687.got.cif
#   From: 2010.05.17/outbox.cif.g08.bks.cpg/sg164_1_cif.got.tgz:687.got - 2010.05.20 10:58:56.
