data_PCOD9578410
_publ_section_title
;
Structure prediction by ZEFSAII (Michael W. Deem and Ramdas Pophale) SiO2 
 PCOD9578410
Probable space group: P -3 M 1
;
_chemical_formula_sum "Si O2"
_cell_formula_units_Z 66
_cell_length_a 17.664201
_cell_length_b 17.664201
_cell_length_c 16.181533
_cell_angle_alpha 90.000000
_cell_angle_beta 90.000000
_cell_angle_gamma 120.000000
_cell_volume 4372.585303
_symmetry_space_group_name_H-M "P -3 M 1"
_symmetry_group_IT_number 164
_symmetry_cell_setting 'hexagonal'
loop_
_space_group_symop_operation_xyz
x,y,z
-y,x-y,z
-x+y,-x,z
x-y,-y,-z
-x,-x+y,-z
y,x,-z
-x,-y,-z
y,-x+y,-z
x-y,x,-z
-x+y,y,z
x,x-y,z
-y,-x,z
loop_
_atom_site_type_symbol
_atom_site_label
_atom_site_fract_x
_atom_site_fract_y
_atom_site_fract_z
Si Si1 0.175744 0.175897 0.403633
Si Si2 0.931117 0.688257 0.740870
Si Si3 0.920739 0.670153 0.124429
Si Si4 0.666809 0.514159 0.001539
Si Si5 0.168814 0.168814 0.000000
Si Si6 0.332573 0.492661 0.188381
O O1 0.198595 0.198595 0.500000
O O2 0.189771 0.094886 0.381530
O O3 0.226339 0.258812 0.343831
O O4 0.073183 0.146366 0.396073
O O5 0.854511 0.709022 0.770728
O O6 0.882171 0.583381 0.744158
O O7 0.012561 0.714328 0.800605
O O8 0.824502 0.649003 0.151926
O O9 0.906619 0.589296 0.066863
O O10 0.959637 0.755642 0.067267
O O11 0.748636 0.497272 0.011987
O O12 0.574673 0.425328 0.012302
O O13 0.672228 0.543495 0.905429
O O14 0.155551 0.077776 0.966312
O O15 0.263429 0.526858 0.187222
O O16 0.429042 0.570959 0.202412
#
# Coordination Sequence:
#
# PCOD9578410 Si02
#       6
#    12  12  12  12   6  12
#     4   9  17  30  49  71  92 113 138 170 209 254
#     4  10  19  30  44  63  87 113 141 174 214 259
#     4  10  19  29  41  58  83 113 142 175 213 251
#     4   9  17  29  45  64  86 114 148 185 223 258
#     4  10  19  30  41  52  72 106 146 178 201 232
#     4   9  17  29  45  64  86 113 146 184 222 257
#
# _framework density 15.094044999999999
#
# number of rings (size 3 to 8) (size 9 to 14) (size 15 to 20)
#    0.000    2.545    0.000    2.818    0.000    5.818 
#    0.000    2.273    0.000    6.364    0.000    0.000 
#    0.000    0.000    0.000    0.727    0.000    0.000 
#
# Total GULP energy -367455.334080 kJ/mol
# GULP energy per Si atom -5567.505062 kJ/mol
# Density = 1.505969 g / cm^3
# Si number density = 15.094045 Si / 1000 Ang^3
#
#
#
# Elastic Constant Matrix: (Units=GPa)
#
#
# Indices 1 2 3 4 5 6 
#
# 1 82.3567 36.9488 45.0970 2.2282 0.0000 0.0000
# 2 36.9488 82.3567 45.0970 -2.2282 0.0000 0.0000
# 3 45.0970 45.0970 59.7952 0.0000 0.0000 0.0000
# 4 2.2282 -2.2282 0.0000 19.1451 0.0000 0.0000
# 5 0.0000 0.0000 0.0000 0.0000 19.1451 2.2282
# 6 0.0000 0.0000 0.0000 0.0000 2.2282 22.7040
#
#
#
# Elastic Compliance Matrix: (Units=1/GPa)
#
#
# Indices 1 2 3 4 5 6 
#
# 1 0.020889 -0.001388 -0.014707 -0.002593 0.000000 0.000000
# 2 -0.001388 0.020889 -0.014707 0.002593 0.000000 0.000000
# 3 -0.014707 -0.014707 0.038907 0.000000 0.000000 0.000000
# 4 -0.002593 0.002593 0.000000 0.052836 0.000000 0.000000
# 5 0.000000 0.000000 0.000000 0.000000 0.052836 -0.005186
# 6 0.000000 0.000000 0.000000 0.000000 -0.005186 0.044554
#
#
# Mechanical properties :
#
#
# Convention : Reuss Voigt Hill
#
# Bulk Modulus (GPa) = 52.41032 53.19935 52.80483
# Shear Modulus (GPa) = 16.72939 18.68987 17.70963
#
# Velocity S-wave (km/s) = 3.33279 3.52266 3.42904
# Velocity P-wave (km/s) = 7.04329 7.20190 7.12303
#
# Compressibility (1/GPa) = 0.01908021
#
# Stress axis : x y z
#
# Youngs Moduli (GPa) = 47.87307 47.87307 25.70215
#
# Poissons Ratio (x) = 0.06647 0.37800
# Poissons Ratio (y) = 0.06647 0.37800
# Poissons Ratio (z) = 0.70406 0.70406
#
# Static dielectric constant tensor:
#      x y z
#    x 1.521040 0.000000 0.000000 
#    y 0.000000 1.521040 0.000000 
#    z 0.000000 0.000000 1.487410 
# 
# From -- ./inp_files/3421.got.cif
#   From: 2010.05.17/outbox.cif.g08.bks.cpg/sg164_2_cif.got.tgz:3421.got - 2010.05.20 10:58:56.
