data_PCOD9578432
_publ_section_title
;
Structure prediction by ZEFSAII (Michael W. Deem and Ramdas Pophale) SiO2 
 PCOD9578432
Probable space group: P -3 M 1
;
_chemical_formula_sum "Si O2"
_cell_formula_units_Z 72
_cell_length_a 24.095971
_cell_length_b 24.095971
_cell_length_c 8.778834
_cell_angle_alpha 90.000000
_cell_angle_beta 90.000000
_cell_angle_gamma 120.000000
_cell_volume 4414.243969
_symmetry_space_group_name_H-M "P -3 M 1"
_symmetry_group_IT_number 164
_symmetry_cell_setting 'hexagonal'
loop_
_space_group_symop_operation_xyz
x,y,z
-y,x-y,z
-x+y,-x,z
x-y,-y,-z
-x,-x+y,-z
y,x,-z
-x,-y,-z
y,-x+y,-z
x-y,x,-z
-x+y,y,z
x,x-y,z
-y,-x,z
loop_
_atom_site_type_symbol
_atom_site_label
_atom_site_fract_x
_atom_site_fract_y
_atom_site_fract_z
Si Si1 0.251146 0.989264 0.180720
Si Si2 0.999949 0.872301 0.814431
Si Si3 0.935697 0.303986 0.400565
Si Si4 0.742037 0.131545 0.702286
Si Si5 0.086259 0.606389 0.156762
Si Si6 0.596597 0.067878 0.196140
O O1 0.188049 0.991968 0.228110
O O2 0.245756 0.921334 0.215825
O O3 0.311791 0.041616 0.276920
O O4 0.260452 0.000000 0.000000
O O5 0.938972 0.877944 0.763452
O O6 0.066962 0.933039 0.763979
O O7 0.000000 0.873586 0.000000
O O8 0.884208 0.259336 0.523609
O O9 0.912085 0.346351 0.312524
O O10 0.000000 0.349106 0.500000
O O11 0.798126 0.201875 0.739422
O O12 0.672488 0.119135 0.752703
O O13 0.106031 0.553016 0.195044
O O14 0.009672 0.571534 0.185550
O O15 0.093706 0.618206 0.974860
O O16 0.541866 0.083731 0.244084
#
# Coordination Sequence:
#
# PCOD9578432 Si02
#       6
#    12  12  12  12  12  12
#     4  10  19  33  52  71  98 131 174 216 265 318
#     4   9  17  29  46  67  88 114 156 212 266 310
#     4  10  19  30  45  70 104 136 163 197 242 306
#     4  11  22  34  48  73 109 144 174 209 257 312
#     4   9  17  31  54  79 103 130 165 207 251 299
#     4   9  16  29  52  80 104 127 157 203 256 301
#
# _framework density 16.310832999999999
#
# number of rings (size 3 to 8) (size 9 to 14) (size 15 to 20)
#    0.000    2.333    3.333    2.667    0.000    3.000 
#    0.000    2.500    0.000    0.333    0.000    0.000 
#    0.000   14.667    0.000    0.000    0.000    0.000 
#
# Total GULP energy -401360.451900 kJ/mol
# GULP energy per Si atom -5574.450721 kJ/mol
# Density = 1.627371 g / cm^3
# Si number density = 16.310833 Si / 1000 Ang^3
#
#
#
# Elastic Constant Matrix: (Units=GPa)
#
#
# Indices 1 2 3 4 5 6 
#
# 1 84.4179 61.6073 35.7723 -5.9160 0.0000 0.0000
# 2 61.6073 84.4179 35.7723 5.9160 0.0000 0.0000
# 3 35.7723 35.7723 56.3401 0.0000 0.0000 0.0000
# 4 -5.9160 5.9160 0.0000 9.3361 0.0000 0.0000
# 5 0.0000 0.0000 0.0000 0.0000 9.3361 -5.9160
# 6 0.0000 0.0000 0.0000 0.0000 -5.9160 11.4053
#
#
#
# Elastic Compliance Matrix: (Units=1/GPa)
#
#
# Indices 1 2 3 4 5 6 
#
# 1 0.037622 -0.027682 -0.006312 0.041381 0.000000 0.000000
# 2 -0.027682 0.037622 -0.006312 -0.041381 0.000000 0.000000
# 3 -0.006312 -0.006312 0.025764 0.000000 0.000000 0.000000
# 4 0.041381 -0.041381 0.000000 0.159554 0.000000 0.000000
# 5 0.000000 0.000000 0.000000 0.000000 0.159554 0.082762
# 6 0.000000 0.000000 0.000000 0.000000 0.082762 0.130608
#
#
# Mechanical properties :
#
#
# Convention : Reuss Voigt Hill
#
# Bulk Modulus (GPa) = 49.02219 54.60887 51.81553
# Shear Modulus (GPa) = 7.83534 12.15045 9.99289
#
# Velocity S-wave (km/s) = 2.19413 2.73230 2.47787
# Velocity P-wave (km/s) = 6.04476 6.59597 6.32637
#
# Compressibility (1/GPa) = 0.02039892
#
# Stress axis : x y z
#
# Youngs Moduli (GPa) = 26.58005 26.58005 38.81353
#
# Poissons Ratio (x) = 0.73578 0.24497
# Poissons Ratio (y) = 0.73578 0.24497
# Poissons Ratio (z) = 0.16776 0.16776
#
# Static dielectric constant tensor:
#      x y z
#    x 1.539480 0.000000 0.000000 
#    y 0.000000 1.539480 0.000000 
#    z 0.000000 0.000000 1.562220 
# 
# From -- ./inp_files/1956.got.cif
#   From: 2010.05.17/outbox.cif.g08.bks.cpg/sg164_1_cif.got.tgz:1956.got - 2010.05.20 10:58:56.
