data_PCOD9578301
_publ_section_title
;
Structure prediction by ZEFSAII (Michael W. Deem and Ramdas Pophale) SiO2 
 PCOD9578301
Probable space group: P -3 1 C
;
_chemical_formula_sum "Si O2"
_cell_formula_units_Z 96
_cell_length_a 15.000000
_cell_length_b 15.000000
_cell_length_c 27.000000
_cell_angle_alpha 90.000000
_cell_angle_beta 90.000000
_cell_angle_gamma 120.000000
_cell_volume 5261.104328
_symmetry_space_group_name_H-M "P -3 1 C"
_symmetry_group_IT_number 163
_symmetry_cell_setting 'hexagonal'
loop_
_space_group_symop_operation_xyz
x,y,z
-y,x-y,z
-x+y,-x,z
-y,-x,1/2-z
-x+y,y,1/2-z
x,x-y,1/2-z
-x,-y,-z
y,-x+y,-z
x-y,x,-z
y,x,1/2+z
x-y,-y,1/2+z
-x,-x+y,1/2+z
loop_
_atom_site_type_symbol
_atom_site_label
_atom_site_fract_x
_atom_site_fract_y
_atom_site_fract_z
Si Si1 0.689065 0.529754 0.937020
Si Si2 0.727654 0.045964 0.648339
Si Si3 0.121874 0.667385 0.241966
Si Si4 0.640471 0.515521 0.589411
Si Si5 0.930750 0.600314 0.462948
Si Si6 0.017203 0.819818 0.516141
Si Si7 0.700759 0.857197 0.888867
Si Si8 0.691288 0.757625 0.168540
O O1 0.713457 0.631180 0.906149
O O2 0.604800 0.435656 0.904747
O O3 0.793567 0.528065 0.943404
O O4 0.647107 0.524482 0.991816
O O5 0.668884 0.078695 0.687655
O O6 0.847022 0.121745 0.664368
O O7 0.688026 0.924638 0.645367
O O8 0.240746 0.759255 0.250000
O O9 0.112139 0.556070 0.250000
O O10 0.060305 0.706106 0.278219
O O11 0.581134 0.567831 0.564642
O O12 0.697022 0.586005 0.636403
O O13 0.856345 0.609893 0.422419
O O14 0.991511 0.712464 0.490368
O O15 0.079510 0.852386 0.567562
O O16 0.909952 0.817365 0.521093
O O17 0.740069 0.961076 0.856471
#
# Coordination Sequence:
#
# PCOD9578301 Si02
#       8
#    12  12  12  12  12  12  12  12
#     4  11  20  33  53  77 110 142 187 227 287 338
#     4  10  21  35  55  82 112 149 185 231 284 335
#     4  10  20  38  63  89 115 143 182 237 293 355
#     4  10  20  33  51  77 106 144 178 230 281 343
#     4  10  20  34  49  71 109 148 188 234 273 332
#     4  10  19  29  46  73 104 145 197 241 271 311
#     4  10  20  33  52  75 112 152 187 227 281 325
#     4   9  21  37  53  80 117 142 183 232 283 340
#
# _framework density 18.247119999999999
#
# number of rings (size 3 to 8) (size 9 to 14) (size 15 to 20)
#    0.000    2.000    1.250    3.125    5.250    0.500 
#    0.750    2.500    0.000    0.000    0.000    0.000 
#   12.500    0.000    0.000    0.000    0.000    0.000 
#
# Total GULP energy -534541.740655 kJ/mol
# GULP energy per Si atom -5568.143132 kJ/mol
# Density = 1.820559 g / cm^3
# Si number density = 18.247120 Si / 1000 Ang^3
#
#
#
# Elastic Constant Matrix: (Units=GPa)
#
#
# Indices 1 2 3 4 5 6 
#
# 1 55.9419 18.5787 10.9413 0.0000 2.9930 0.0000
# 2 18.5787 55.9419 10.9413 0.0000 -2.9930 0.0000
# 3 10.9413 10.9413 68.8952 0.0000 0.0000 0.0000
# 4 0.0000 0.0000 0.0000 16.1228 0.0000 -2.9930
# 5 2.9930 -2.9930 0.0000 0.0000 16.1228 0.0000
# 6 0.0000 0.0000 0.0000 -2.9930 0.0000 18.6816
#
#
#
# Elastic Compliance Matrix: (Units=1/GPa)
#
#
# Indices 1 2 3 4 5 6 
#
# 1 0.020830 -0.006755 -0.002235 0.000000 -0.005121 0.000000
# 2 -0.006755 0.020830 -0.002235 0.000000 0.005121 0.000000
# 3 -0.002235 -0.002235 0.015225 0.000000 0.000000 0.000000
# 4 0.000000 0.000000 0.000000 0.063925 0.000000 0.010241
# 5 -0.005121 0.005121 0.000000 0.000000 0.063925 0.000000
# 6 0.000000 0.000000 0.000000 0.010241 0.000000 0.055169
#
#
# Mechanical properties :
#
#
# Convention : Reuss Voigt Hill
#
# Bulk Modulus (GPa) = 29.04068 29.07794 29.05931
# Shear Modulus (GPa) = 18.25929 19.53996 18.89963
#
# Velocity S-wave (km/s) = 3.16676 3.27594 3.22181
# Velocity P-wave (km/s) = 5.41488 5.50266 5.45895
#
# Compressibility (1/GPa) = 0.03443445
#
# Stress axis : x y z
#
# Youngs Moduli (GPa) = 48.00742 48.00742 65.68235
#
# Poissons Ratio (x) = 0.32427 0.14682
# Poissons Ratio (y) = 0.32427 0.14682
# Poissons Ratio (z) = 0.10731 0.10731
#
# Static dielectric constant tensor:
#      x y z
#    x 1.647000 0.000000 0.000000 
#    y 0.000000 1.647000 0.000000 
#    z 0.000000 0.000000 1.675980 
# 
# From -- ./inp_files/4210.got.cif
#   From: 2010.05.17/outbox.ucp.g08.bks.cvg/sg163_3_cif.got.tgz:4210.got - 2010.06.11 15:15:55.
