data_PCOD9578779
_publ_section_title
;
Structure prediction by ZEFSAII (Michael W. Deem and Ramdas Pophale) SiO2 
 PCOD9578779
Probable space group: P -3 C 1
;
_chemical_formula_sum "Si O2"
_cell_formula_units_Z 72
_cell_length_a 22.437345
_cell_length_b 22.437345
_cell_length_c 9.215399
_cell_angle_alpha 90.000000
_cell_angle_beta 90.000000
_cell_angle_gamma 120.000000
_cell_volume 4017.794379
_symmetry_space_group_name_H-M "P -3 C 1"
_symmetry_group_IT_number 165
_symmetry_cell_setting 'hexagonal'
loop_
_space_group_symop_operation_xyz
x,y,z
-y,x-y,z
-x+y,-x,z
x-y,-y,1/2-z
-x,-x+y,1/2-z
y,x,1/2-z
-x,-y,-z
y,-x+y,-z
x-y,x,-z
-x+y,y,1/2+z
x,x-y,1/2+z
-y,-x,1/2+z
loop_
_atom_site_type_symbol
_atom_site_label
_atom_site_fract_x
_atom_site_fract_y
_atom_site_fract_z
Si Si1 0.253363 0.987926 0.422988
Si Si2 0.939822 0.414875 0.139451
Si Si3 0.141067 0.738627 0.860421
Si Si4 0.040313 0.598050 0.380853
Si Si5 0.113238 0.133171 0.921175
Si Si6 0.618230 0.873976 0.516820
O O1 0.267952 0.925689 0.444397
O O2 0.174743 0.964805 0.450668
O O3 0.263185 0.000000 0.250000
O O4 0.304974 0.059497 0.501596
O O5 0.873354 0.339546 0.137536
O O6 0.927633 0.478522 0.170534
O O7 0.000000 0.422746 0.250000
O O8 0.978537 0.428544 0.987858
O O9 0.140370 0.752862 0.688956
O O10 0.205579 0.804106 0.932181
O O11 0.095674 0.666254 0.461314
O O12 0.000000 0.609472 0.250000
O O13 0.115487 0.115487 0.750000
O O14 0.125643 0.083287 0.025938
#
# Coordination Sequence:
#
# PCOD9578779 Si02
#       6
#    12  12  12  12  12  12
#     4   9  19  37  55  75 107 143 178 220 280 330
#     4  10  18  38  61  82 115 155 186 244 293 337
#     4  11  21  36  56  82 120 153 184 231 287 338
#     4  10  21  34  60  89 112 146 201 238 286 346
#     4  11  22  37  54  72  93 128 174 222 269 324
#     4  11  22  36  55  86 119 152 186 234 284 344
#
# _framework density 17.920280999999999
#
# number of rings (size 3 to 8) (size 9 to 14) (size 15 to 20)
#    0.000    1.667    3.333    2.167    2.333    0.000 
#    0.000    3.333    0.000    0.667    0.000    0.000 
#    0.000    0.000    0.000    0.000    0.000    0.000 
#
# Total GULP energy -401105.366678 kJ/mol
# GULP energy per Si atom -5570.907871 kJ/mol
# Density = 1.787949 g / cm^3
# Si number density = 17.920281 Si / 1000 Ang^3
#
#
#
# Elastic Constant Matrix: (Units=GPa)
#
#
# Indices 1 2 3 4 5 6 
#
# 1 69.4031 35.1601 16.5515 -4.5694 0.0000 0.0000
# 2 35.1601 69.4031 16.5515 4.5694 0.0000 0.0000
# 3 16.5515 16.5515 74.3264 0.0000 0.0000 0.0000
# 4 -4.5694 4.5694 0.0000 23.8891 0.0000 0.0000
# 5 0.0000 0.0000 0.0000 0.0000 23.8891 -4.5694
# 6 0.0000 0.0000 0.0000 0.0000 -4.5694 17.1215
#
#
#
# Elastic Compliance Matrix: (Units=1/GPa)
#
#
# Indices 1 2 3 4 5 6 
#
# 1 0.020532 -0.010243 -0.002291 0.005886 0.000000 0.000000
# 2 -0.010243 0.020532 -0.002291 -0.005886 0.000000 0.000000
# 3 -0.002291 -0.002291 0.014475 0.000000 0.000000 0.000000
# 4 0.005886 -0.005886 0.000000 0.044112 0.000000 0.000000
# 5 0.000000 0.000000 0.000000 0.000000 0.044112 0.011773
# 6 0.000000 0.000000 0.000000 0.000000 0.011773 0.061548
#
#
# Mechanical properties :
#
#
# Convention : Reuss Voigt Hill
#
# Bulk Modulus (GPa) = 38.62840 38.85096 38.73968
# Shear Modulus (GPa) = 20.52638 22.63788 21.58213
#
# Velocity S-wave (km/s) = 3.38809 3.55809 3.47413
# Velocity P-wave (km/s) = 6.07520 6.21345 6.14471
#
# Compressibility (1/GPa) = 0.02588769
#
# Stress axis : x y z
#
# Youngs Moduli (GPa) = 48.70562 48.70562 69.08645
#
# Poissons Ratio (x) = 0.49887 0.15829
# Poissons Ratio (y) = 0.49887 0.15829
# Poissons Ratio (z) = 0.11159 0.11159
#
# Static dielectric constant tensor:
#      x y z
#    x 1.636940 0.000000 0.000000 
#    y 0.000000 1.636940 0.000000 
#    z 0.000000 0.000000 1.683770 
# 
# From -- ./inp_files/782.got.cif
#   From: 2010.05.17/outbox.cif.g08.bks.cpg/sg165_1_cif.got.tgz:782.got - 2010.05.20 11:02:39.
