data_PCOD9578133
_publ_section_title
;
Structure prediction by ZEFSAII (Michael W. Deem and Ramdas Pophale) SiO2 
 PCOD9578133
Probable space group: P -3 1 C
;
_chemical_formula_sum "Si O2"
_cell_formula_units_Z 48
_cell_length_a 17.247793
_cell_length_b 17.247793
_cell_length_c 9.224368
_cell_angle_alpha 90.000000
_cell_angle_beta 90.000000
_cell_angle_gamma 120.000000
_cell_volume 2376.480827
_symmetry_space_group_name_H-M "P -3 1 C"
_symmetry_group_IT_number 163
_symmetry_cell_setting 'hexagonal'
loop_
_space_group_symop_operation_xyz
x,y,z
-y,x-y,z
-x+y,-x,z
-y,-x,1/2-z
-x+y,y,1/2-z
x,x-y,1/2-z
-x,-y,-z
y,-x+y,-z
x-y,x,-z
y,x,1/2+z
x-y,-y,1/2+z
-x,-x+y,1/2+z
loop_
_atom_site_type_symbol
_atom_site_label
_atom_site_fract_x
_atom_site_fract_y
_atom_site_fract_z
Si Si1 0.077824 0.779787 0.147583
Si Si2 0.579682 0.501437 0.096648
Si Si3 0.337113 0.512375 0.169314
Si Si4 0.759190 0.668881 0.176824
O O1 0.137145 0.862856 0.250000
O O2 0.115727 0.710939 0.173954
O O3 0.977261 0.734572 0.203559
O O4 0.089006 0.801630 0.977577
O O5 0.545849 0.454152 0.250000
O O6 0.656674 0.601140 0.135624
O O7 0.500000 0.500000 0.000000
O O8 0.632427 0.464446 0.997914
O O9 0.431339 0.568662 0.250000
O O10 0.267846 0.535691 0.250000
O O11 0.812081 0.624161 0.250000
#
# Coordination Sequence:
#
# PCOD9578133 Si02
#       4
#    12  12  12  12
#     4  10  21  37  58  84 117 156 198 247 310 378
#     4  11  22  37  61  89 121 164 214 267 324 393
#     4  10  21  37  57  82 118 161 205 259 322 384
#     4  11  22  37  59  89 120 155 204 263 316 375
#
# _framework density 20.197932999999999
#
# number of rings (size 3 to 8) (size 9 to 14) (size 15 to 20)
#    0.000    1.500    0.000    7.000    0.000    6.000 
#    0.000    0.000    0.000    2.500    0.000    3.500 
#    0.000    0.000    0.000    0.000    0.000    0.000 
#
# Total GULP energy -267500.492640 kJ/mol
# GULP energy per Si atom -5572.926930 kJ/mol
# Density = 2.015196 g / cm^3
# Si number density = 20.197933 Si / 1000 Ang^3
#
#
#
# Elastic Constant Matrix: (Units=GPa)
#
#
# Indices 1 2 3 4 5 6 
#
# 1 54.3610 29.5974 38.8255 -0.0004 5.1281 0.0000
# 2 29.5974 54.3610 38.8255 0.0004 -5.1281 0.0000
# 3 38.8255 38.8255 178.1607 0.0000 0.0000 0.0000
# 4 -0.0004 0.0004 0.0000 27.1015 0.0000 -5.1281
# 5 5.1281 -5.1281 0.0000 0.0000 27.1015 -0.0004
# 6 0.0000 0.0000 0.0000 -5.1281 -0.0004 12.3818
#
#
#
# Elastic Compliance Matrix: (Units=1/GPa)
#
#
# Indices 1 2 3 4 5 6 
#
# 1 0.029366 -0.014449 -0.003251 0.000001 -0.008291 0.000000
# 2 -0.014449 0.029366 -0.003251 -0.000001 0.008291 0.000000
# 3 -0.003251 -0.003251 0.007030 0.000000 0.000000 0.000000
# 4 0.000001 -0.000001 0.000000 0.040036 0.000000 0.016581
# 5 -0.008291 0.008291 0.000000 0.000000 0.040036 0.000001
# 6 0.000000 0.000000 0.000000 0.016581 0.000001 0.087631
#
#
# Mechanical properties :
#
#
# Convention : Reuss Voigt Hill
#
# Bulk Modulus (GPa) = 41.90940 55.70883 48.80911
# Shear Modulus (GPa) = 17.64788 25.29259 21.47023
#
# Velocity S-wave (km/s) = 2.95913 3.54253 3.26389
# Velocity P-wave (km/s) = 5.69821 6.66139 6.19854
#
# Compressibility (1/GPa) = 0.02386099
#
# Stress axis : x y z
#
# Youngs Moduli (GPa) = 34.05258 34.05258 142.25203
#
# Poissons Ratio (x) = 0.49203 0.46244
# Poissons Ratio (y) = 0.49203 0.46244
# Poissons Ratio (z) = 0.11070 0.11070
#
# Static dielectric constant tensor:
#      x y z
#    x 1.775960 0.000000 0.000000 
#    y 0.000000 1.775960 0.000000 
#    z 0.000000 0.000000 1.770200 
# 
# From -- ./inp_files/856.got.cif
#   From: 2010.05.17/outbox.cif.g08.bks.cpg/sg163_1_cif.got.tgz:856.got - 2010.05.20 10:56:03.
