data_PCOD9578496
_publ_section_title
;
Structure prediction by ZEFSAII (Michael W. Deem and Ramdas Pophale) SiO2 
 PCOD9578496
Probable space group: P -3 M 1
;
_chemical_formula_sum "Si O2"
_cell_formula_units_Z 60
_cell_length_a 21.874761
_cell_length_b 21.874761
_cell_length_c 8.718947
_cell_angle_alpha 90.000000
_cell_angle_beta 90.000000
_cell_angle_gamma 120.000000
_cell_volume 3613.110991
_symmetry_space_group_name_H-M "P -3 M 1"
_symmetry_group_IT_number 164
_symmetry_cell_setting 'hexagonal'
loop_
_space_group_symop_operation_xyz
x,y,z
-y,x-y,z
-x+y,-x,z
x-y,-y,-z
-x,-x+y,-z
y,x,-z
-x,-y,-z
y,-x+y,-z
x-y,x,-z
-x+y,y,z
x,x-y,z
-y,-x,z
loop_
_atom_site_type_symbol
_atom_site_label
_atom_site_fract_x
_atom_site_fract_y
_atom_site_fract_z
Si Si1 0.340152 0.925198 0.410278
Si Si2 0.892720 0.446360 0.124602
Si Si3 0.528834 0.057667 0.784383
Si Si4 0.699822 0.919571 0.838403
Si Si5 0.782331 0.705119 0.792579
Si Si6 0.544540 0.700188 0.715243
O O1 0.402702 0.927944 0.310198
O O2 0.274725 0.912654 0.303649
O O3 0.317254 0.864786 0.537797
O O4 0.371387 0.000000 0.500000
O O5 0.856462 0.368016 0.192795
O O6 0.974265 0.487133 0.178569
O O7 0.897867 0.448933 0.941091
O O8 0.714709 0.857355 0.792962
O O9 0.623096 0.899053 0.776217
O O10 0.758916 0.995009 0.774895
O O11 0.693230 0.918242 0.023280
O O12 0.861285 0.722570 0.751182
O O13 0.533111 0.766556 0.735116
#
# Coordination Sequence:
#
# PCOD9578496 Si02
#       6
#    12   6   6  12  12  12
#     4  12  20  33  52  82 111 139 169 221 269 326
#     4  11  21  38  57  84 103 142 183 226 269 318
#     4  11  22  35  60  81 110 135 180 229 274 317
#     4   9  18  33  52  75 105 142 180 221 262 317
#     4  10  19  32  51  77 109 141 176 218 272 318
#     4  11  22  36  55  79 109 141 179 219 268 321
#
# _framework density 16.606189000000001
#
# number of rings (size 3 to 8) (size 9 to 14) (size 15 to 20)
#    0.000    1.400    4.000    2.700    0.000    3.200 
#    0.600    1.000    0.000    0.400    0.000    2.800 
#    0.000    0.800    0.000    0.000    0.000    0.000 
#
# Total GULP energy -334792.884072 kJ/mol
# GULP energy per Si atom -5579.881401 kJ/mol
# Density = 1.656839 g / cm^3
# Si number density = 16.606189 Si / 1000 Ang^3
#
#
#
# Elastic Constant Matrix: (Units=GPa)
#
#
# Indices 1 2 3 4 5 6 
#
# 1 116.5890 74.3857 43.3594 2.5079 0.0000 0.0000
# 2 74.3857 116.5890 43.3594 -2.5079 0.0000 0.0000
# 3 43.3594 43.3594 46.1857 0.0000 0.0000 0.0000
# 4 2.5079 -2.5079 0.0000 14.8001 0.0000 0.0000
# 5 0.0000 0.0000 0.0000 0.0000 14.8001 2.5079
# 6 0.0000 0.0000 0.0000 0.0000 2.5079 21.1017
#
#
#
# Elastic Compliance Matrix: (Units=1/GPa)
#
#
# Indices 1 2 3 4 5 6 
#
# 1 0.016654 -0.007527 -0.008569 -0.004098 0.000000 0.000000
# 2 -0.007527 0.016654 -0.008569 0.004098 0.000000 0.000000
# 3 -0.008569 -0.008569 0.037740 0.000000 0.000000 0.000000
# 4 -0.004098 0.004098 0.000000 0.068956 0.000000 0.000000
# 5 0.000000 0.000000 0.000000 0.000000 0.068956 -0.008195
# 6 0.000000 0.000000 0.000000 0.000000 -0.008195 0.048364
#
#
# Mechanical properties :
#
#
# Convention : Reuss Voigt Hill
#
# Bulk Modulus (GPa) = 46.04038 66.84139 56.44089
# Shear Modulus (GPa) = 15.92896 18.02433 16.97664
#
# Velocity S-wave (km/s) = 3.10048 3.29811 3.20082
# Velocity P-wave (km/s) = 6.37200 7.40552 6.90811
#
# Compressibility (1/GPa) = 0.02172006
#
# Stress axis : x y z
#
# Youngs Moduli (GPa) = 60.04387 60.04387 26.49692
#
# Poissons Ratio (x) = 0.45197 0.22704
# Poissons Ratio (y) = 0.45197 0.22704
# Poissons Ratio (z) = 0.51449 0.51449
#
# Static dielectric constant tensor:
#      x y z
#    x 1.544520 0.000000 0.000000 
#    y 0.000000 1.544520 0.000000 
#    z 0.000000 0.000000 1.573730 
# 
# From -- ./inp_files/1620.got.cif
#   From: 2010.05.17/outbox.cif.g08.bks.cpg/sg164_1_cif.got.tgz:1620.got - 2010.05.20 10:58:56.
