data_PCOD9578989
_publ_section_title
;
Structure prediction by ZEFSAII (Michael W. Deem and Ramdas Pophale) SiO2 
 PCOD9578989
Probable space group: P -3 C 1
;
_chemical_formula_sum "Si O2"
_cell_formula_units_Z 56
_cell_length_a 11.570366
_cell_length_b 11.570366
_cell_length_c 23.865953
_cell_angle_alpha 90.000000
_cell_angle_beta 90.000000
_cell_angle_gamma 120.000000
_cell_volume 2766.964624
_symmetry_space_group_name_H-M "P -3 C 1"
_symmetry_group_IT_number 165
_symmetry_cell_setting 'hexagonal'
loop_
_space_group_symop_operation_xyz
x,y,z
-y,x-y,z
-x+y,-x,z
x-y,-y,1/2-z
-x,-x+y,1/2-z
y,x,1/2-z
-x,-y,-z
y,-x+y,-z
x-y,x,-z
-x+y,y,1/2+z
x,x-y,1/2+z
-y,-x,1/2+z
loop_
_atom_site_type_symbol
_atom_site_label
_atom_site_fract_x
_atom_site_fract_y
_atom_site_fract_z
Si Si1 0.932116 0.340589 0.997706
Si Si2 0.275750 0.261714 0.618670
Si Si3 0.973010 0.483046 0.684482
Si Si4 0.666668 0.333335 0.514758
Si Si5 0.333334 0.666668 0.349814
Si Si6 0.738402 0.724437 0.878237
O O1 0.981361 0.299821 0.942819
O O2 0.967374 0.288649 0.053753
O O3 0.774247 0.291986 0.995418
O O4 0.000000 0.500000 0.000000
O O5 0.380068 0.392547 0.652607
O O6 0.129198 0.238824 0.627814
O O7 0.281872 0.130607 0.635917
O O8 0.816023 0.391505 0.671553
O O9 0.000000 0.505341 0.750000
O O10 0.040731 0.403157 0.658421
O O11 0.666668 0.333334 0.582494
#
# Coordination Sequence:
#
# PCOD9578989 Si02
#       6
#    12  12  12   4   4  12
#     4  12  22  40  66 106 140 179 224 274 344 417
#     4  12  25  46  69 102 139 182 225 279 349 413
#     4  12  27  46  72 100 134 180 236 287 342 408
#     4  12  21  39  73 101 145 183 225 280 344 436
#     4  12  21  51  76  95 136 192 228 277 353 421
#     4  12  26  45  71 103 140 181 227 283 344 416
#
# _framework density 20.238785
#
# number of rings (size 3 to 8) (size 9 to 14) (size 15 to 20)
#    0.000    0.000    6.429    4.286    3.000    0.000 
#    1.286    2.143    0.000    2.571    0.000    0.000 
#    0.000    0.000    0.000    0.000    0.000    0.000 
#
# Total GULP energy -313575.207395 kJ/mol
# GULP energy per Si atom -5599.557275 kJ/mol
# Density = 2.019272 g / cm^3
# Si number density = 20.238785 Si / 1000 Ang^3
#
#
#
# Elastic Constant Matrix: (Units=GPa)
#
#
# Indices 1 2 3 4 5 6 
#
# 1 92.3961 -7.6469 0.5368 6.9935 0.0000 0.0000
# 2 -7.6469 92.3992 0.5387 -6.9953 0.0000 0.0000
# 3 0.5368 0.5387 85.5169 -0.0017 0.0000 0.0000
# 4 6.9935 -6.9953 -0.0017 -12.2424 0.0000 0.0000
# 5 0.0000 0.0000 0.0000 0.0000 -12.2541 6.9778
# 6 0.0000 0.0000 0.0000 0.0000 6.9778 50.0070
#
#
#
# Elastic Compliance Matrix: (Units=1/GPa)
#
#
# Indices 1 2 3 4 5 6 
#
# 1 0.010528 0.001272 -0.000074 0.005288 0.000000 0.000000
# 2 0.001272 0.010528 -0.000074 -0.005289 0.000000 0.000000
# 3 -0.000074 -0.000074 0.011695 -0.000001 0.000000 0.000000
# 4 0.005288 -0.005289 -0.000001 -0.075641 0.000000 0.000000
# 5 0.000000 0.000000 0.000000 0.000000 -0.075598 0.010549
# 6 0.000000 0.000000 0.000000 0.000000 0.010549 0.018525
#
#
# Mechanical properties :
#
#
# Convention : Reuss Voigt Hill
#
# Bulk Modulus (GPa) = 28.57291 28.57440 28.57366
# Shear Modulus (GPa) = -55.22169 23.56100 -15.83035
#
# Velocity S-wave (km/s) = -5.22918 3.41567 -2.79978
# Velocity P-wave (km/s) = 4.72340 5.45023 1.92282
#
# Compressibility (1/GPa) = 0.03499818
#
# Stress axis : x y z
#
# Youngs Moduli (GPa) = 94.98071 94.98563 85.51011
#
# Poissons Ratio (x) = -0.12083 0.00633
# Poissons Ratio (y) = -0.12082 0.00636
# Poissons Ratio (z) = 0.00703 0.00707
#
# Static dielectric constant tensor:
#      x y z
#    x 1.721130 0.000000 0.000000 
#    y 0.000000 1.721120 0.000000 
#    z 0.000000 0.000000 1.674720 
# 
# From -- ./inp_files/2891.got.cif
#   From: 2010.05.17/outbox.cif.g08.bks.cpg/sg165_2_cif.got.tgz:2891.got - 2010.05.20 11:02:39.
