data_PCOD9578552
_publ_section_title
;
Structure prediction by ZEFSAII (Michael W. Deem and Ramdas Pophale) SiO2 
 PCOD9578552
Probable space group: P -3 M 1
;
_chemical_formula_sum "Si O2"
_cell_formula_units_Z 54
_cell_length_a 12.911601
_cell_length_b 12.911601
_cell_length_c 23.351028
_cell_angle_alpha 90.000000
_cell_angle_beta 90.000000
_cell_angle_gamma 120.000000
_cell_volume 3371.295570
_symmetry_space_group_name_H-M "P -3 M 1"
_symmetry_group_IT_number 164
_symmetry_cell_setting 'hexagonal'
loop_
_space_group_symop_operation_xyz
x,y,z
-y,x-y,z
-x+y,-x,z
x-y,-y,-z
-x,-x+y,-z
y,x,-z
-x,-y,-z
y,-x+y,-z
x-y,x,-z
-x+y,y,z
x,x-y,z
-y,-x,z
loop_
_atom_site_type_symbol
_atom_site_label
_atom_site_fract_x
_atom_site_fract_y
_atom_site_fract_z
Si Si1 0.087860 0.421245 0.264860
Si Si2 0.754483 0.999776 0.161914
Si Si3 0.246265 0.246265 0.500000
Si Si4 0.333644 0.421116 0.054184
Si Si5 0.911799 0.333563 0.603149
O O1 0.224329 0.448657 0.258403
O O2 0.082706 0.541353 0.254108
O O3 0.051969 0.383826 0.330883
O O4 0.010848 0.318204 0.219724
O O5 0.873448 0.126553 0.156109
O O6 0.785003 0.892502 0.163565
O O7 0.664510 0.970734 0.108838
O O8 0.234829 0.117415 0.496965
O O9 0.311502 0.322826 0.443628
O O10 0.215772 0.431543 0.043719
O O11 0.448719 0.551282 0.064670
O O12 0.363873 0.363873 0.000000
O O13 0.915625 0.457813 0.593196
O O14 0.776205 0.223796 0.597464
#
# Coordination Sequence:
#
# PCOD9578552 Si02
#       5
#    12  12   6  12  12
#     4   9  17  30  50  74  97 121 152 194 242 288
#     4  10  20  33  49  70  97 129 164 200 237 278
#     4  10  20  32  46  66  94 128 162 194 230 276
#     4  10  20  34  53  76 101 129 161 198 239 283
#     4   9  17  30  49  72  95 120 153 195 241 285
#
# _framework density 16.017581
#
# number of rings (size 3 to 8) (size 9 to 14) (size 15 to 20)
#    0.000    2.444    0.000    2.667    0.000    2.667 
#    0.000    2.222    0.000   11.556    0.000    0.000 
#    0.000    0.000    0.000    0.000    0.000    0.000 
#
# Total GULP energy -301151.342083 kJ/mol
# GULP energy per Si atom -5576.876705 kJ/mol
# Density = 1.598112 g / cm^3
# Si number density = 16.017581 Si / 1000 Ang^3
#
#
#
# Elastic Constant Matrix: (Units=GPa)
#
#
# Indices 1 2 3 4 5 6 
#
# 1 110.4204 71.3169 78.0124 -2.7062 0.0000 0.0000
# 2 71.3169 110.4204 78.0124 2.7062 0.0000 0.0000
# 3 78.0124 78.0124 112.2266 0.0000 0.0000 0.0000
# 4 -2.7062 2.7062 0.0000 23.8076 0.0000 0.0000
# 5 0.0000 0.0000 0.0000 0.0000 23.8076 -2.7062
# 6 0.0000 0.0000 0.0000 0.0000 -2.7062 19.5518
#
#
#
# Elastic Compliance Matrix: (Units=1/GPa)
#
#
# Indices 1 2 3 4 5 6 
#
# 1 0.019814 -0.006168 -0.009486 0.002953 0.000000 0.000000
# 2 -0.006168 0.019814 -0.009486 -0.002953 0.000000 0.000000
# 3 -0.009486 -0.009486 0.022099 0.000000 0.000000 0.000000
# 4 0.002953 -0.002953 0.000000 0.042675 0.000000 0.000000
# 5 0.000000 0.000000 0.000000 0.000000 0.042675 0.005907
# 6 0.000000 0.000000 0.000000 0.000000 0.005907 0.051964
#
#
# Mechanical properties :
#
#
# Convention : Reuss Voigt Hill
#
# Bulk Modulus (GPa) = 87.35723 87.52784 87.44254
# Shear Modulus (GPa) = 19.75225 20.48181 20.11703
#
# Velocity S-wave (km/s) = 3.51545 3.57978 3.54776
# Velocity P-wave (km/s) = 8.43413 8.47643 8.45531
#
# Compressibility (1/GPa) = 0.01144725
#
# Stress axis : x y z
#
# Youngs Moduli (GPa) = 50.46900 50.46900 45.25157
#
# Poissons Ratio (x) = 0.31128 0.42926
# Poissons Ratio (y) = 0.31128 0.42926
# Poissons Ratio (z) = 0.47875 0.47875
#
# Static dielectric constant tensor:
#      x y z
#    x 1.504570 0.000000 0.000000 
#    y 0.000000 1.504570 0.000000 
#    z 0.000000 0.000000 1.537630 
# 
# From -- ./inp_files/4839.got.cif
#   From: 2010.05.17/outbox.cif.g08.bks.cpg/sg164_3_cif.got.tgz:4839.got - 2010.05.20 10:58:56.
