data_PCOD9578304
_publ_section_title
;
Structure prediction by ZEFSAII (Michael W. Deem and Ramdas Pophale) SiO2 
 PCOD9578304
Probable space group: P -3 1 C
;
_chemical_formula_sum "Si O2"
_cell_formula_units_Z 76
_cell_length_a 18.000000
_cell_length_b 18.000000
_cell_length_c 15.000000
_cell_angle_alpha 90.000000
_cell_angle_beta 90.000000
_cell_angle_gamma 120.000000
_cell_volume 4208.883462
_symmetry_space_group_name_H-M "P -3 1 C"
_symmetry_group_IT_number 163
_symmetry_cell_setting 'hexagonal'
loop_
_space_group_symop_operation_xyz
x,y,z
-y,x-y,z
-x+y,-x,z
-y,-x,1/2-z
-x+y,y,1/2-z
x,x-y,1/2-z
-x,-y,-z
y,-x+y,-z
x-y,x,-z
y,x,1/2+z
x-y,-y,1/2+z
-x,-x+y,1/2+z
loop_
_atom_site_type_symbol
_atom_site_label
_atom_site_fract_x
_atom_site_fract_y
_atom_site_fract_z
Si Si1 0.036213 0.177445 0.375836
Si Si2 0.752646 0.674050 0.761170
Si Si3 0.856786 0.136438 0.039164
Si Si4 0.668374 0.034857 0.395186
Si Si5 0.157430 0.663962 0.745453
Si Si6 0.000000 0.000000 0.855130
Si Si7 0.378799 0.037179 0.414002
O O1 0.038731 0.224199 0.283403
O O2 0.106353 0.250353 0.440023
O O3 0.939911 0.137467 0.412445
O O4 0.052290 0.098600 0.381002
O O5 0.819711 0.639422 0.750000
O O6 0.697784 0.656225 0.671224
O O7 0.687382 0.647865 0.846559
O O8 0.912320 0.230444 0.080377
O O9 0.755640 0.099048 0.050643
O O10 0.650925 0.096602 0.331003
O O11 0.617269 0.004446 0.490267
O O12 0.239298 0.760703 0.750000
O O13 0.186640 0.593320 0.750000
O O14 0.099658 0.645701 0.655101
O O15 0.000000 0.000000 0.750000
#
# Coordination Sequence:
#
# PCOD9578304 Si02
#       7
#    12  12  12  12  12   4  12
#     4  11  23  32  44  67 105 157 215 259 301 328
#     4  10  21  32  50  75 106 150 205 252 284 336
#     4  11  19  33  53  71 103 146 200 244 287 343
#     4  11  22  37  60  82 117 156 196 248 294 359
#     4  11  24  43  67  95 123 154 193 246 314 379
#     4  12  27  31  35  64 111 169 218 277 313 326
#     4  10  22  37  59  85 114 155 197 239 297 355
#
# _framework density 18.057044999999999
#
# number of rings (size 3 to 8) (size 9 to 14) (size 15 to 20)
#    0.000    1.263    4.737    2.526    4.421    1.263 
#    0.000    0.000    0.000    0.000    0.000    0.000 
#    0.000    0.000    0.000   17.211    0.000    0.000 
#
# Total GULP energy -423310.558042 kJ/mol
# GULP energy per Si atom -5569.875764 kJ/mol
# Density = 1.801595 g / cm^3
# Si number density = 18.057045 Si / 1000 Ang^3
#
#
#
# Elastic Constant Matrix: (Units=GPa)
#
#
# Indices 1 2 3 4 5 6 
#
# 1 55.6945 7.8432 24.5537 0.0000 -0.4858 0.0000
# 2 7.8432 55.6945 24.5537 0.0000 0.4858 0.0000
# 3 24.5537 24.5537 119.7818 0.0000 0.0000 0.0000
# 4 0.0000 0.0000 0.0000 19.8502 0.0000 0.4858
# 5 -0.4858 0.4858 0.0000 0.0000 19.8502 0.0000
# 6 0.0000 0.0000 0.0000 0.4858 0.0000 23.9257
#
#
#
# Elastic Compliance Matrix: (Units=1/GPa)
#
#
# Indices 1 2 3 4 5 6 
#
# 1 0.019805 -0.001103 -0.003834 0.000000 0.000512 0.000000
# 2 -0.001103 0.019805 -0.003834 0.000000 -0.000512 0.000000
# 3 -0.003834 -0.003834 0.009920 0.000000 0.000000 0.000000
# 4 0.000000 0.000000 0.000000 0.050402 0.000000 -0.001023
# 5 0.000512 -0.000512 0.000000 0.000000 0.050402 0.000000
# 6 0.000000 0.000000 0.000000 -0.001023 0.000000 0.041817
#
#
# Mechanical properties :
#
#
# Convention : Reuss Voigt Hill
#
# Bulk Modulus (GPa) = 31.26067 38.34132 34.80100
# Shear Modulus (GPa) = 22.69054 24.33989 23.51522
#
# Velocity S-wave (km/s) = 3.54871 3.67542 3.61262
# Velocity P-wave (km/s) = 5.84302 6.26826 6.05937
#
# Compressibility (1/GPa) = 0.03198908
#
# Stress axis : x y z
#
# Youngs Moduli (GPa) = 50.49220 50.49220 100.80455
#
# Poissons Ratio (x) = 0.05571 0.38644
# Poissons Ratio (y) = 0.05571 0.38644
# Poissons Ratio (z) = 0.19357 0.19357
#
# Static dielectric constant tensor:
#      x y z
#    x 1.621120 0.000000 0.000000 
#    y 0.000000 1.621120 0.000000 
#    z 0.000000 0.000000 1.666590 
# 
# From -- ./inp_files/2619.got.cif
#   From: 2010.05.17/outbox.ucp.g08.bks.cvg/sg163_2_cif.got.tgz:2619.got - 2010.06.11 15:15:55.
