data_PCOD9578966
_publ_section_title
;
Structure prediction by ZEFSAII (Michael W. Deem and Ramdas Pophale) SiO2 
 PCOD9578966
Probable space group: P -3 C 1
;
_chemical_formula_sum "Si O2"
_cell_formula_units_Z 52
_cell_length_a 14.286689
_cell_length_b 14.286689
_cell_length_c 13.895978
_cell_angle_alpha 90.000000
_cell_angle_beta 90.000000
_cell_angle_gamma 120.000000
_cell_volume 2456.308614
_symmetry_space_group_name_H-M "P -3 C 1"
_symmetry_group_IT_number 165
_symmetry_cell_setting 'hexagonal'
loop_
_space_group_symop_operation_xyz
x,y,z
-y,x-y,z
-x+y,-x,z
x-y,-y,1/2-z
-x,-x+y,1/2-z
y,x,1/2-z
-x,-y,-z
y,-x+y,-z
x-y,x,-z
-x+y,y,1/2+z
x,x-y,1/2+z
-y,-x,1/2+z
loop_
_atom_site_type_symbol
_atom_site_label
_atom_site_fract_x
_atom_site_fract_y
_atom_site_fract_z
Si Si1 0.278381 0.403842 0.766944
Si Si2 0.338258 0.789536 0.443576
Si Si3 0.000000 0.000000 0.134302
Si Si4 0.752232 0.834205 0.903397
Si Si5 0.367373 0.226592 0.416785
O O1 0.360009 0.360009 0.750000
O O2 0.333831 0.507322 0.836083
O O3 0.177712 0.313269 0.828382
O O4 0.227722 0.415730 0.668087
O O5 0.233034 0.669382 0.456911
O O6 0.323728 0.862991 0.521414
O O7 0.951889 0.877245 0.100794
O O8 0.000000 0.000000 0.250000
O O9 0.743199 0.720304 0.879474
O O10 0.700128 0.829051 0.007560
#
# Coordination Sequence:
#
# PCOD9578966 Si02
#       5
#    12  12   4  12  12
#     4  11  22  39  63  94 130 165 209 269 322 388
#     4   9  23  46  66  87 118 162 218 273 321 385
#     4  12  21  34  59  88 136 191 208 247 320 397
#     4  11  22  35  56  94 133 170 218 249 309 402
#     4  11  21  37  61  87 125 171 203 263 322 373
#
# _framework density 21.169979000000001
#
# number of rings (size 3 to 8) (size 9 to 14) (size 15 to 20)
#    0.462    0.923    0.000    8.308    0.000    2.769 
#    0.000   15.000    0.000    0.000    0.000    0.000 
#    0.000    0.000    0.000    0.000    0.000    0.000 
#
# Total GULP energy -290773.372768 kJ/mol
# GULP energy per Si atom -5591.795630 kJ/mol
# Density = 2.112180 g / cm^3
# Si number density = 21.169979 Si / 1000 Ang^3
#
#
#
# Elastic Constant Matrix: (Units=GPa)
#
#
# Indices 1 2 3 4 5 6 
#
# 1 50.8890 -8.7487 -4.1108 -1.0659 0.0000 0.0000
# 2 -8.7487 50.8890 -4.1108 1.0659 0.0000 0.0000
# 3 -4.1108 -4.1108 92.4670 0.0000 0.0000 0.0000
# 4 -1.0659 1.0659 0.0000 15.8727 0.0000 0.0000
# 5 0.0000 0.0000 0.0000 0.0000 15.8727 -1.0659
# 6 0.0000 0.0000 0.0000 0.0000 -1.0659 29.8189
#
#
#
# Elastic Compliance Matrix: (Units=1/GPa)
#
#
# Indices 1 2 3 4 5 6 
#
# 1 0.020373 0.003565 0.001064 0.001129 0.000000 0.000000
# 2 0.003565 0.020373 0.001064 -0.001129 0.000000 0.000000
# 3 0.001064 0.001064 0.010909 0.000000 0.000000 0.000000
# 4 0.001129 -0.001129 0.000000 0.063153 0.000000 0.000000
# 5 0.000000 0.000000 0.000000 0.000000 0.063153 0.002257
# 6 0.000000 0.000000 0.000000 0.000000 0.002257 0.033617
#
#
# Mechanical properties :
#
#
# Convention : Reuss Voigt Hill
#
# Bulk Modulus (GPa) = 15.86247 17.81161 16.83704
# Shear Modulus (GPa) = 22.60345 26.39387 24.49866
#
# Velocity S-wave (km/s) = 3.27113 3.53478 3.40551
# Velocity P-wave (km/s) = 4.66650 5.00913 4.84085
#
# Compressibility (1/GPa) = 0.06304187
#
# Stress axis : x y z
#
# Youngs Moduli (GPa) = 49.08440 49.08440 91.66502
#
# Poissons Ratio (x) = -0.17498 -0.09755
# Poissons Ratio (y) = -0.17498 -0.09755
# Poissons Ratio (z) = -0.05224 -0.05224
#
# Static dielectric constant tensor:
#      x y z
#    x 1.746850 0.000000 0.000000 
#    y 0.000000 1.746850 0.000000 
#    z 0.000000 0.000000 1.769210 
# 
# From -- ./inp_files/1599.got.cif
#   From: 2010.05.17/outbox.cif.g08.bks.cpg/sg165_1_cif.got.tgz:1599.got - 2010.05.20 11:02:39.
