data_PCOD9578268
_publ_section_title
;
Structure prediction by ZEFSAII (Michael W. Deem and Ramdas Pophale) SiO2 
 PCOD9578268
Probable space group: P -3 1 C
;
_chemical_formula_sum "Si O2"
_cell_formula_units_Z 46
_cell_length_a 14.053283
_cell_length_b 14.053283
_cell_length_c 13.194208
_cell_angle_alpha 90.000000
_cell_angle_beta 90.000000
_cell_angle_gamma 120.000000
_cell_volume 2256.677724
_symmetry_space_group_name_H-M "P -3 1 C"
_symmetry_group_IT_number 163
_symmetry_cell_setting 'hexagonal'
loop_
_space_group_symop_operation_xyz
x,y,z
-y,x-y,z
-x+y,-x,z
-y,-x,1/2-z
-x+y,y,1/2-z
x,x-y,1/2-z
-x,-y,-z
y,-x+y,-z
x-y,x,-z
y,x,1/2+z
x-y,-y,1/2+z
-x,-x+y,1/2+z
loop_
_atom_site_type_symbol
_atom_site_label
_atom_site_fract_x
_atom_site_fract_y
_atom_site_fract_z
Si Si1 0.666668 0.333334 0.631384
Si Si2 0.851422 0.097102 0.040881
Si Si3 0.661993 0.524393 0.514943
Si Si4 0.657862 0.828931 0.750000
Si Si5 0.516463 0.588477 0.650468
O O1 0.666668 0.333334 0.750000
O O2 0.672498 0.441539 0.588200
O O3 0.829203 0.091773 0.161558
O O4 0.780101 0.151188 0.003995
O O5 0.977927 0.172552 0.009569
O O6 0.593300 0.571746 0.571849
O O7 0.596884 0.456846 0.413825
O O8 0.579535 0.711652 0.695568
O O9 0.487323 0.512678 0.750000
#
# Coordination Sequence:
#
# PCOD9578268 Si02
#       5
#     4  12  12   6  12
#     4  12  27  42  67 104 145 186 228 288 382 440
#     4  12  27  49  73 103 142 188 252 309 365 424
#     4  11  25  44  70 107 147 185 239 303 355 449
#     4  12  24  46  72 110 138 200 234 302 364 440
#     4  11  23  43  72 105 146 187 240 287 366 431
#
# _framework density 20.383948
#
# number of rings (size 3 to 8) (size 9 to 14) (size 15 to 20)
#    0.000    0.522    5.217    2.609    3.652    3.130 
#    0.783    0.000    0.000    0.000    0.000    0.000 
#    0.000    0.000    0.000    0.000    0.000    0.000 
#
# Total GULP energy -256995.894845 kJ/mol
# GULP energy per Si atom -5586.867279 kJ/mol
# Density = 2.033755 g / cm^3
# Si number density = 20.383948 Si / 1000 Ang^3
#
#
#
# Elastic Constant Matrix: (Units=GPa)
#
#
# Indices 1 2 3 4 5 6 
#
# 1 99.3904 34.3669 32.6407 -0.0016 5.0508 -0.0005
# 2 34.3669 99.3898 32.6406 -0.0017 -5.0515 -0.0004
# 3 32.6407 32.6406 125.2379 -0.0017 -0.0003 -0.0003
# 4 -0.0016 -0.0017 -0.0017 27.3838 -0.0005 -5.0514
# 5 5.0508 -5.0515 -0.0003 -0.0005 27.3844 0.0000
# 6 -0.0005 -0.0004 -0.0003 -5.0514 0.0000 32.5115
#
#
#
# Elastic Compliance Matrix: (Units=1/GPa)
#
#
# Indices 1 2 3 4 5 6 
#
# 1 0.012199 -0.003634 -0.002233 0.000000 -0.002920 0.000000
# 2 -0.003634 0.012199 -0.002233 0.000000 0.002921 0.000000
# 3 -0.002233 -0.002233 0.009149 0.000000 0.000000 0.000000
# 4 0.000000 0.000000 0.000000 0.037595 0.000001 0.005841
# 5 -0.002920 0.002921 0.000000 0.000001 0.037595 0.000000
# 6 0.000000 0.000000 0.000000 0.005841 0.000000 0.031666
#
#
# Mechanical properties :
#
#
# Convention : Reuss Voigt Hill
#
# Bulk Modulus (GPa) = 57.63634 58.14606 57.89120
# Shear Modulus (GPa) = 30.79129 32.41393 31.60261
#
# Velocity S-wave (km/s) = 3.89082 3.99202 3.94174
# Velocity P-wave (km/s) = 6.96573 7.05944 7.01274
#
# Compressibility (1/GPa) = 0.01735016
#
# Stress axis : x y z
#
# Youngs Moduli (GPa) = 81.97197 81.97122 109.30733
#
# Poissons Ratio (x) = 0.29784 0.24403
# Poissons Ratio (y) = 0.29785 0.24403
# Poissons Ratio (z) = 0.18300 0.18300
#
# Static dielectric constant tensor:
#      x y z
#    x 1.381670 -0.007800 -0.000020 
#    y -0.007800 1.373970 -0.000020 
#    z -0.000020 -0.000020 1.726560 
# 
# From -- ./inp_files/1579.got.cif
#   From: 2010.05.17/outbox.cif.g08.bks.cpg/sg163_1_cif.got.tgz:1579.got - 2010.05.20 10:56:03.
