data_PCOD9578694
_publ_section_title
;
Structure prediction by ZEFSAII (Michael W. Deem and Ramdas Pophale) SiO2 
 PCOD9578694
Probable space group: P -3 M 1
;
_chemical_formula_sum "Si O2"
_cell_formula_units_Z 48
_cell_length_a 18.472525
_cell_length_b 18.472525
_cell_length_c 8.978272
_cell_angle_alpha 90.000000
_cell_angle_beta 90.000000
_cell_angle_gamma 120.000000
_cell_volume 2653.236212
_symmetry_space_group_name_H-M "P -3 M 1"
_symmetry_group_IT_number 164
_symmetry_cell_setting 'hexagonal'
loop_
_space_group_symop_operation_xyz
x,y,z
-y,x-y,z
-x+y,-x,z
x-y,-y,-z
-x,-x+y,-z
y,x,-z
-x,-y,-z
y,-x+y,-z
x-y,x,-z
-x+y,y,z
x,x-y,z
-y,-x,z
loop_
_atom_site_type_symbol
_atom_site_label
_atom_site_fract_x
_atom_site_fract_y
_atom_site_fract_z
Si Si1 0.169450 0.169319 0.676888
Si Si2 0.497497 0.330952 0.695126
Si Si3 0.083100 0.459812 0.604169
Si Si4 0.681429 0.011734 0.824363
O O1 0.187172 0.187172 0.500000
O O2 0.088610 0.177219 0.713738
O O3 0.250614 0.234071 0.767131
O O4 0.150653 0.075327 0.701627
O O5 0.514717 0.257358 0.739614
O O6 0.577597 0.422404 0.720592
O O7 0.478603 0.324968 0.517322
O O8 0.415898 0.321017 0.777549
O O9 0.093637 0.546819 0.662089
O O10 0.000000 0.417946 0.500000
O O11 0.064510 0.394883 0.735131
O O12 0.672586 0.000000 0.000000
#
# Coordination Sequence:
#
# PCOD9578694 Si02
#       4
#    12  12  12  12
#     4  10  21  38  59  81 106 139 181 228 276 325
#     4  10  20  36  58  82 109 143 186 233 279 326
#     4   8  16  32  53  76 102 134 173 220 269 311
#     4  11  22  34  54  83 114 146 183 222 268 327
#
# _framework density 18.091114000000001
#
# number of rings (size 3 to 8) (size 9 to 14) (size 15 to 20)
#    0.000    2.250    0.000    5.750    0.000    8.000 
#    0.000    0.000    0.000    1.500    0.000    3.500 
#    0.000    0.000    0.000    0.000    0.000    0.000 
#
# Total GULP energy -267749.801007 kJ/mol
# GULP energy per Si atom -5578.120854 kJ/mol
# Density = 1.804994 g / cm^3
# Si number density = 18.091114 Si / 1000 Ang^3
#
#
#
# Elastic Constant Matrix: (Units=GPa)
#
#
# Indices 1 2 3 4 5 6 
#
# 1 96.6168 76.2152 57.2787 9.9442 0.0000 0.0000
# 2 76.2152 96.6168 57.2787 -9.9442 0.0000 0.0000
# 3 57.2787 57.2787 90.9481 0.0000 0.0000 0.0000
# 4 9.9442 -9.9442 0.0000 1.8514 0.0000 0.0000
# 5 0.0000 0.0000 0.0000 0.0000 1.8514 9.9442
# 6 0.0000 0.0000 0.0000 0.0000 9.9442 10.2008
#
#
#
# Elastic Compliance Matrix: (Units=1/GPa)
#
#
# Indices 1 2 3 4 5 6 
#
# 1 -0.000820 0.010752 -0.006255 0.062151 0.000000 0.000000
# 2 0.010752 -0.000820 -0.006255 -0.062151 0.000000 0.000000
# 3 -0.006255 -0.006255 0.018874 0.000000 0.000000 0.000000
# 4 0.062151 -0.062151 0.000000 -0.127510 0.000000 0.000000
# 5 0.000000 0.000000 0.000000 0.000000 -0.127510 0.124302
# 6 0.000000 0.000000 0.000000 0.000000 0.124302 -0.023143
#
#
# Mechanical properties :
#
#
# Convention : Reuss Voigt Hill
#
# Bulk Modulus (GPa) = 72.89859 73.96964 73.43411
# Shear Modulus (GPa) = -19.77539 9.00803 -5.38368
#
# Velocity S-wave (km/s) = -3.30979 2.23385 -1.72694
# Velocity P-wave (km/s) = 5.07705 6.90141 6.05830
#
# Compressibility (1/GPa) = 0.01371769
#
# Stress axis : x y z
#
# Youngs Moduli (GPa) = -1219.87931 -1219.87933 52.98238
#
# Poissons Ratio (x) = 13.11588 0.33141
# Poissons Ratio (y) = 13.11588 0.33141
# Poissons Ratio (z) = -7.63052 -7.63052
#
# Static dielectric constant tensor:
#      x y z
#    x 1.624880 0.000000 0.000000 
#    y 0.000000 1.624880 0.000000 
#    z 0.000000 0.000000 1.602480 
# 
# From -- ./inp_files/1264.got.cif
#   From: 2010.05.17/outbox.cif.g08.bks.cpg/sg164_1_cif.got.tgz:1264.got - 2010.05.20 10:58:56.
