data_PCOD9578403
_publ_section_title
;
Structure prediction by ZEFSAII (Michael W. Deem and Ramdas Pophale) SiO2 
 PCOD9578403
Probable space group: P -3 M 1
;
_chemical_formula_sum "Si O2"
_cell_formula_units_Z 72
_cell_length_a 22.130814
_cell_length_b 22.130814
_cell_length_c 10.100504
_cell_angle_alpha 90.000000
_cell_angle_beta 90.000000
_cell_angle_gamma 120.000000
_cell_volume 4284.187334
_symmetry_space_group_name_H-M "P -3 M 1"
_symmetry_group_IT_number 164
_symmetry_cell_setting 'hexagonal'
loop_
_space_group_symop_operation_xyz
x,y,z
-y,x-y,z
-x+y,-x,z
x-y,-y,-z
-x,-x+y,-z
y,x,-z
-x,-y,-z
y,-x+y,-z
x-y,x,-z
-x+y,y,z
x,x-y,z
-y,-x,z
loop_
_atom_site_type_symbol
_atom_site_label
_atom_site_fract_x
_atom_site_fract_y
_atom_site_fract_z
Si Si1 0.901725 0.520707 0.761282
Si Si2 0.414971 0.331227 0.494187
Si Si3 0.281443 0.856401 0.009103
Si Si4 0.606729 0.068308 0.217612
Si Si5 0.734626 0.937799 0.097848
Si Si6 0.066151 0.792808 0.407966
O O1 0.891453 0.445727 0.792229
O O2 0.887364 0.527577 0.608202
O O3 0.854764 0.539106 0.852346
O O4 0.984344 0.576010 0.787393
O O5 0.379559 0.379559 0.500000
O O6 0.445097 0.344749 0.347214
O O7 0.352178 0.255823 0.537028
O O8 0.219514 0.780487 0.967562
O O9 0.246746 0.904092 0.036243
O O10 0.344597 0.894151 0.906863
O O11 0.538493 0.076986 0.224001
O O12 0.754260 0.877130 0.098631
O O13 0.731185 0.955692 0.252899
O O14 0.783268 0.000000 0.000000
O O15 0.127524 0.872477 0.415826
O O16 0.000000 0.774383 0.500000
#
# Coordination Sequence:
#
# PCOD9578403 Si02
#       6
#    12  12  12  12  12  12
#     4  10  18  32  55  78 103 134 168 211 262 312
#     4   9  18  31  50  78 108 134 163 207 261 318
#     4  11  22  33  48  74 107 142 179 216 260 315
#     4  10  20  34  53  78 105 133 172 217 266 317
#     4  10  21  36  54  79 111 144 181 222 266 320
#     4  10  21  36  55  82 114 146 180 221 267 319
#
# _framework density 16.805989
#
# number of rings (size 3 to 8) (size 9 to 14) (size 15 to 20)
#    0.000    2.000    1.667    2.500    4.667    4.667 
#    0.000    0.000    0.000    3.000    0.000    0.000 
#    0.000    0.000    0.000    0.000    0.000    0.000 
#
# Total GULP energy -401450.986156 kJ/mol
# GULP energy per Si atom -5575.708141 kJ/mol
# Density = 1.676774 g / cm^3
# Si number density = 16.805989 Si / 1000 Ang^3
#
#
#
# Elastic Constant Matrix: (Units=GPa)
#
#
# Indices 1 2 3 4 5 6 
#
# 1 39.6655 29.5426 26.8435 2.7026 0.0000 0.0000
# 2 29.5426 39.6655 26.8435 -2.7026 0.0000 0.0000
# 3 26.8435 26.8435 91.1859 0.0000 0.0000 0.0000
# 4 2.7026 -2.7026 0.0000 15.7206 0.0000 0.0000
# 5 0.0000 0.0000 0.0000 0.0000 15.7206 2.7026
# 6 0.0000 0.0000 0.0000 0.0000 2.7026 5.0614
#
#
#
# Elastic Compliance Matrix: (Units=1/GPa)
#
#
# Indices 1 2 3 4 5 6 
#
# 1 0.063748 -0.045023 -0.005512 -0.018699 0.000000 0.000000
# 2 -0.045023 0.063748 -0.005512 0.018699 0.000000 0.000000
# 3 -0.005512 -0.005512 0.014212 0.000000 0.000000 0.000000
# 4 -0.018699 0.018699 0.000000 0.070040 0.000000 0.000000
# 5 0.000000 0.000000 0.000000 0.000000 0.070040 -0.037398
# 6 0.000000 0.000000 0.000000 0.000000 -0.037398 0.217542
#
#
# Mechanical properties :
#
#
# Convention : Reuss Voigt Hill
#
# Bulk Modulus (GPa) = 33.76877 37.44180 35.60528
# Shear Modulus (GPa) = 8.04768 13.11966 10.58367
#
# Velocity S-wave (km/s) = 2.19066 2.79705 2.51222
# Velocity P-wave (km/s) = 5.15127 5.72351 5.44491
#
# Compressibility (1/GPa) = 0.02961316
#
# Stress axis : x y z
#
# Youngs Moduli (GPa) = 15.68672 15.68672 70.36246
#
# Poissons Ratio (x) = 0.70626 0.38787
# Poissons Ratio (y) = 0.70626 0.38787
# Poissons Ratio (z) = 0.08647 0.08647
#
# Static dielectric constant tensor:
#      x y z
#    x 1.561370 0.000000 0.000000 
#    y 0.000000 1.561370 0.000000 
#    z 0.000000 0.000000 1.601350 
# 
# From -- ./inp_files/1893.got.cif
#   From: 2010.05.17/outbox.cif.g08.bks.cpg/sg164_1_cif.got.tgz:1893.got - 2010.05.20 10:58:56.
