data_PCOD9578185
_publ_section_title
;
Structure prediction by ZEFSAII (Michael W. Deem and Ramdas Pophale) SiO2 
 PCOD9578185
Probable space group: P -3 1 C
;
_chemical_formula_sum "Si O2"
_cell_formula_units_Z 72
_cell_length_a 14.437426
_cell_length_b 14.437426
_cell_length_c 19.544320
_cell_angle_alpha 90.000000
_cell_angle_beta 90.000000
_cell_angle_gamma 120.000000
_cell_volume 3528.017567
_symmetry_space_group_name_H-M "P -3 1 C"
_symmetry_group_IT_number 163
_symmetry_cell_setting 'hexagonal'
loop_
_space_group_symop_operation_xyz
x,y,z
-y,x-y,z
-x+y,-x,z
-y,-x,1/2-z
-x+y,y,1/2-z
x,x-y,1/2-z
-x,-y,-z
y,-x+y,-z
x-y,x,-z
y,x,1/2+z
x-y,-y,1/2+z
-x,-x+y,1/2+z
loop_
_atom_site_type_symbol
_atom_site_label
_atom_site_fract_x
_atom_site_fract_y
_atom_site_fract_z
Si Si1 0.739953 0.166804 0.034362
Si Si2 0.343671 0.105849 0.612794
Si Si3 0.499167 0.450199 0.829393
Si Si4 0.214703 0.212774 0.268795
Si Si5 0.314376 0.336963 0.140127
Si Si6 0.098865 0.509429 0.546927
O O1 0.635802 0.180139 0.040542
O O2 0.843232 0.284947 0.029988
O O3 0.723619 0.085294 0.095935
O O4 0.731914 0.101348 0.965635
O O5 0.449392 0.125071 0.655158
O O6 0.248362 0.006445 0.652722
O O7 0.314629 0.199024 0.617704
O O8 0.517832 0.482169 0.750000
O O9 0.612409 0.534655 0.862929
O O10 0.423323 0.479074 0.875071
O O11 0.107188 0.214375 0.250000
O O12 0.304504 0.298093 0.218285
O O13 0.199537 0.099769 0.250000
O O14 0.000000 0.500000 0.500000
#
# Coordination Sequence:
#
# PCOD9578185 Si02
#       6
#    12  12  12  12  12  12
#     4  11  23  40  67  91 139 171 227 286 345 417
#     4  11  23  39  63  93 130 169 228 278 344 413
#     4  11  22  40  63  89 134 170 218 284 336 412
#     4  10  22  40  63  91 124 166 218 272 341 413
#     4  10  24  40  60  95 124 171 222 272 338 419
#     4  11  23  42  63 101 129 180 232 282 352 432
#
# _framework density 20.408062000000001
#
# number of rings (size 3 to 8) (size 9 to 14) (size 15 to 20)
#    0.000    1.333    3.333    2.500    2.333    0.000 
#    1.000    2.500    0.000    0.000    0.000    5.833 
#    0.000    0.000    0.000    0.000    0.000    0.000 
#
# Total GULP energy -401014.250695 kJ/mol
# GULP energy per Si atom -5569.642371 kJ/mol
# Density = 2.036161 g / cm^3
# Si number density = 20.408062 Si / 1000 Ang^3
#
#
#
# Elastic Constant Matrix: (Units=GPa)
#
#
# Indices 1 2 3 4 5 6 
#
# 1 100.2514 35.0488 41.5459 0.0000 -2.0763 0.0000
# 2 35.0488 100.2514 41.5459 0.0000 2.0763 0.0000
# 3 41.5459 41.5459 102.1714 0.0000 0.0000 0.0000
# 4 0.0000 0.0000 0.0000 19.8459 0.0000 2.0763
# 5 -2.0763 2.0763 0.0000 0.0000 19.8459 0.0000
# 6 0.0000 0.0000 0.0000 2.0763 0.0000 32.6013
#
#
#
# Elastic Compliance Matrix: (Units=1/GPa)
#
#
# Indices 1 2 3 4 5 6 
#
# 1 0.012645 -0.002794 -0.004006 0.000000 0.001615 0.000000
# 2 -0.002794 0.012645 -0.004006 0.000000 -0.001615 0.000000
# 3 -0.004006 -0.004006 0.013045 0.000000 0.000000 0.000000
# 4 0.000000 0.000000 0.000000 0.050726 0.000000 -0.003231
# 5 0.001615 -0.001615 0.000000 0.000000 0.050726 0.000000
# 6 0.000000 0.000000 0.000000 -0.003231 0.000000 0.030879
#
#
# Mechanical properties :
#
#
# Convention : Reuss Voigt Hill
#
# Bulk Modulus (GPa) = 59.79316 59.88393 59.83854
# Shear Modulus (GPa) = 25.27116 26.76085 26.01600
#
# Velocity S-wave (km/s) = 3.52276 3.62510 3.57429
# Velocity P-wave (km/s) = 6.77560 6.85046 6.81313
#
# Compressibility (1/GPa) = 0.01672432
#
# Stress axis : x y z
#
# Youngs Moduli (GPa) = 79.08050 79.08050 76.65677
#
# Poissons Ratio (x) = 0.22098 0.30706
# Poissons Ratio (y) = 0.22098 0.30706
# Poissons Ratio (z) = 0.31677 0.31677
#
# Static dielectric constant tensor:
#      x y z
#    x 1.753810 0.000000 0.000000 
#    y 0.000000 1.753810 0.000000 
#    z 0.000000 0.000000 1.769000 
# 
# From -- ./inp_files/3135.got.cif
#   From: 2010.05.17/outbox.cif.g08.bks.cpg/sg163_2_cif.got.tgz:3135.got - 2010.05.20 10:56:03.
