data_PCOD9578569
_publ_section_title
;
Structure prediction by ZEFSAII (Michael W. Deem and Ramdas Pophale) SiO2 
 PCOD9578569
Probable space group: P -3 M 1
;
_chemical_formula_sum "Si O2"
_cell_formula_units_Z 60
_cell_length_a 12.718997
_cell_length_b 12.718997
_cell_length_c 26.783696
_cell_angle_alpha 90.000000
_cell_angle_beta 90.000000
_cell_angle_gamma 120.000000
_cell_volume 3752.380483
_symmetry_space_group_name_H-M "P -3 M 1"
_symmetry_group_IT_number 164
_symmetry_cell_setting 'hexagonal'
loop_
_space_group_symop_operation_xyz
x,y,z
-y,x-y,z
-x+y,-x,z
x-y,-y,-z
-x,-x+y,-z
y,x,-z
-x,-y,-z
y,-x+y,-z
x-y,x,-z
-x+y,y,z
x,x-y,z
-y,-x,z
loop_
_atom_site_type_symbol
_atom_site_label
_atom_site_fract_x
_atom_site_fract_y
_atom_site_fract_z
Si Si1 0.252005 0.252079 0.163257
Si Si2 0.251676 0.251523 0.053596
Si Si3 0.333294 0.416684 0.451588
Si Si4 0.333442 0.916493 0.741858
Si Si5 0.750058 0.999849 0.354722
O O1 0.125283 0.250566 0.168849
O O2 0.305938 0.303873 0.108008
O O3 0.342602 0.323167 0.208028
O O4 0.228437 0.114219 0.165376
O O5 0.119655 0.239309 0.054312
O O6 0.237190 0.118595 0.052648
O O7 0.310661 0.310661 0.000000
O O8 0.356139 0.356139 0.500000
O O9 0.214603 0.429206 0.458787
O O10 0.452291 0.547710 0.444522
O O11 0.310075 0.333419 0.403099
O O12 0.460211 0.920422 0.738424
O O13 0.221947 0.778054 0.743271
O O14 0.310296 0.978394 0.693965
O O15 0.763948 0.881974 0.347735
O O16 0.880744 0.119257 0.361711
#
# Coordination Sequence:
#
# PCOD9578569 Si02
#       5
#    12  12  12  12  12
#     4   9  16  26  43  67  93 119 146 181 227 277
#     4   8  12  18  31  55  87 118 144 172 213 268
#     4  10  20  34  52  74 101 133 168 203 237 273
#     4  10  20  33  48  65  87 117 153 191 228 267
#     4  10  20  34  53  76 100 124 150 185 232 284
#
# _framework density 15.989848
#
# number of rings (size 3 to 8) (size 9 to 14) (size 15 to 20)
#    0.000    2.600    0.000    2.800    0.000    2.400 
#    0.000    2.000    0.000   14.600    0.000    0.000 
#    0.000    0.000    0.000    0.000    0.000    0.000 
#
# Total GULP energy -334152.638535 kJ/mol
# GULP energy per Si atom -5569.210642 kJ/mol
# Density = 1.595345 g / cm^3
# Si number density = 15.989848 Si / 1000 Ang^3
#
#
#
# Elastic Constant Matrix: (Units=GPa)
#
#
# Indices 1 2 3 4 5 6 
#
# 1 86.1993 58.5934 82.4365 1.9727 0.0000 0.0000
# 2 58.5934 86.1993 82.4365 -1.9727 0.0000 0.0000
# 3 82.4365 82.4365 175.0371 0.0000 0.0000 0.0000
# 4 1.9727 -1.9727 0.0000 15.5478 0.0000 0.0000
# 5 0.0000 0.0000 0.0000 0.0000 15.5478 1.9727
# 6 0.0000 0.0000 0.0000 0.0000 1.9727 13.8030
#
#
#
# Elastic Compliance Matrix: (Units=1/GPa)
#
#
# Indices 1 2 3 4 5 6 
#
# 1 0.025893 -0.011000 -0.007014 -0.004681 0.000000 0.000000
# 2 -0.011000 0.025893 -0.007014 0.004681 0.000000 0.000000
# 3 -0.007014 -0.007014 0.012320 0.000000 0.000000 0.000000
# 4 -0.004681 0.004681 0.000000 0.065506 0.000000 0.000000
# 5 0.000000 0.000000 0.000000 0.000000 0.065506 -0.009362
# 6 0.000000 0.000000 0.000000 0.000000 -0.009362 0.073786
#
#
# Mechanical properties :
#
#
# Convention : Reuss Voigt Hill
#
# Bulk Modulus (GPa) = 71.17535 88.26315 79.71925
# Shear Modulus (GPa) = 15.44906 17.24434 16.34670
#
# Velocity S-wave (km/s) = 3.11171 3.28755 3.20084
# Velocity P-wave (km/s) = 7.58418 8.35045 7.97652
#
# Compressibility (1/GPa) = 0.01404981
#
# Stress axis : x y z
#
# Youngs Moduli (GPa) = 38.61999 38.61999 81.16812
#
# Poissons Ratio (x) = 0.42481 0.56934
# Poissons Ratio (y) = 0.42481 0.56934
# Poissons Ratio (z) = 0.27089 0.27089
#
# Static dielectric constant tensor:
#      x y z
#    x 1.499130 0.000000 0.000000 
#    y 0.000000 1.499130 0.000000 
#    z 0.000000 0.000000 1.572780 
# 
# From -- ./inp_files/5182.got.cif
#   From: 2010.05.17/outbox.cif.g08.bks.cpg/sg164_3_cif.got.tgz:5182.got - 2010.05.20 10:58:56.
