data_PCOD9578923
_publ_section_title
;
Structure prediction by ZEFSAII (Michael W. Deem and Ramdas Pophale) SiO2 
 PCOD9578923
Probable space group: P -3 C 1
;
_chemical_formula_sum "Si O2"
_cell_formula_units_Z 42
_cell_length_a 11.060963
_cell_length_b 11.060963
_cell_length_c 19.531668
_cell_angle_alpha 90.000000
_cell_angle_beta 90.000000
_cell_angle_gamma 120.000000
_cell_volume 2069.454319
_symmetry_space_group_name_H-M "P -3 C 1"
_symmetry_group_IT_number 165
_symmetry_cell_setting 'hexagonal'
loop_
_space_group_symop_operation_xyz
x,y,z
-y,x-y,z
-x+y,-x,z
x-y,-y,1/2-z
-x,-x+y,1/2-z
y,x,1/2-z
-x,-y,-z
y,-x+y,-z
x-y,x,-z
-x+y,y,1/2+z
x,x-y,1/2+z
-y,-x,1/2+z
loop_
_atom_site_type_symbol
_atom_site_label
_atom_site_fract_x
_atom_site_fract_y
_atom_site_fract_z
Si Si1 0.660373 0.171826 0.127808
Si Si2 0.940758 0.684948 0.000000
Si Si3 0.500000 0.000000 0.750000
Si Si4 0.488547 0.660372 0.127808
O O1 0.793055 0.327506 0.123088
O O2 0.673767 0.085971 0.066205
O O3 0.629639 0.095487 0.200392
O O4 0.820642 0.727633 0.000000
O O5 0.914029 0.587795 0.933796
O O6 0.629638 0.095486 0.799609
O O7 0.465549 0.793054 0.123088
#
# Coordination Sequence:
#
# PCOD9578923 Si02
#       4
#    12  12   6  12
#     4  10  23  40  64  99 131 171 216 265 332 395
#     4  12  25  44  66  93 128 176 226 284 338 403
#     4  12  20  38  64  96 150 162 206 264 336 408
#     4  10  23  40  64  99 131 171 216 265 332 395
#
# _framework density 20.295206
#
# number of rings (size 3 to 8) (size 9 to 14) (size 15 to 20)
#    1.143    0.000    0.000    7.143    0.000    3.429 
#    0.000    0.000    0.000    0.000    0.000    4.000 
#    0.000    0.000    0.000    0.000    0.000    0.000 
#
# Total GULP energy -234312.805485 kJ/mol
# GULP energy per Si atom -5578.876321 kJ/mol
# Density = 2.024901 g / cm^3
# Si number density = 20.295206 Si / 1000 Ang^3
#
#
#
# Elastic Constant Matrix: (Units=GPa)
#
#
# Indices 1 2 3 4 5 6 
#
# 1 122.3919 74.5022 86.6395 0.0000 0.0000 0.0000
# 2 74.5022 122.3919 86.6395 0.0000 0.0000 0.0000
# 3 86.6395 86.6395 196.3675 0.0000 0.0000 0.0000
# 4 0.0000 0.0000 0.0000 27.3687 0.0000 0.0000
# 5 0.0000 0.0000 0.0000 0.0000 27.3687 0.0000
# 6 0.0000 0.0000 0.0000 0.0000 0.0000 23.9449
#
#
#
# Elastic Compliance Matrix: (Units=1/GPa)
#
#
# Indices 1 2 3 4 5 6 
#
# 1 0.014592 -0.006289 -0.003663 0.000000 0.000000 0.000000
# 2 -0.006289 0.014592 -0.003663 0.000000 0.000000 0.000000
# 3 -0.003663 -0.003663 0.008325 0.000000 0.000000 0.000000
# 4 0.000000 0.000000 0.000000 0.036538 0.000000 0.000000
# 5 0.000000 0.000000 0.000000 0.000000 0.036538 0.000000
# 6 0.000000 0.000000 0.000000 0.000000 0.000000 0.041763
#
#
# Mechanical properties :
#
#
# Convention : Reuss Voigt Hill
#
# Bulk Modulus (GPa) = 97.29993 104.07931 100.68962
# Shear Modulus (GPa) = 27.32158 28.62778 27.97468
#
# Velocity S-wave (km/s) = 3.67305 3.75983 3.71669
# Velocity P-wave (km/s) = 8.12618 8.38108 8.25461
#
# Compressibility (1/GPa) = 0.01027750
#
# Stress axis : x y z
#
# Youngs Moduli (GPa) = 68.53049 68.53049 120.11942
#
# Poissons Ratio (x) = 0.43101 0.44003
# Poissons Ratio (y) = 0.43101 0.44003
# Poissons Ratio (z) = 0.25105 0.25105
#
# Static dielectric constant tensor:
#      x y z
#    x 1.764920 0.000000 0.000000 
#    y 0.000000 1.764920 0.000000 
#    z 0.000000 0.000000 1.704850 
# 
# From -- ./inp_files/2083.got.cif
#   From: 2010.05.17/outbox.cif.g08.bks.cpg/sg165_2_cif.got.tgz:2083.got - 2010.05.20 11:02:39.
