data_PCOD9578054
_publ_section_title
;
Structure prediction by ZEFSAII (Michael W. Deem and Ramdas Pophale) SiO2 
 PCOD9578054
Probable space group: P -3 1 C
;
_chemical_formula_sum "Si O2"
_cell_formula_units_Z 54
_cell_length_a 11.562952
_cell_length_b 11.562952
_cell_length_c 22.130568
_cell_angle_alpha 90.000000
_cell_angle_beta 90.000000
_cell_angle_gamma 120.000000
_cell_volume 2562.480906
_symmetry_space_group_name_H-M "P -3 1 C"
_symmetry_group_IT_number 163
_symmetry_cell_setting 'hexagonal'
loop_
_space_group_symop_operation_xyz
x,y,z
-y,x-y,z
-x+y,-x,z
-y,-x,1/2-z
-x+y,y,1/2-z
x,x-y,1/2-z
-x,-y,-z
y,-x+y,-z
x-y,x,-z
y,x,1/2+z
x-y,-y,1/2+z
-x,-x+y,1/2+z
loop_
_atom_site_type_symbol
_atom_site_label
_atom_site_fract_x
_atom_site_fract_y
_atom_site_fract_z
Si Si1 0.333335 0.666668 0.325267
Si Si2 0.708345 0.812468 0.908148
Si Si3 0.333335 0.666667 0.035947
Si Si4 0.074446 0.537223 0.250000
Si Si5 0.000000 0.000000 0.572110
Si Si6 0.741895 0.738350 0.273306
Si Si7 0.923214 0.584841 0.494629
O O1 0.333334 0.666667 0.394195
O O2 0.182858 0.570179 0.302752
O O3 0.697459 0.739034 0.844323
O O4 0.705587 0.714463 0.962396
O O5 0.622371 0.881625 0.930183
O O6 0.852996 0.941374 0.904461
O O7 0.481696 0.775024 0.017352
O O8 0.989908 0.380386 0.242214
O O9 0.000000 0.000000 0.500000
O O10 0.723865 0.861933 0.250000
O O11 0.883897 0.767795 0.250000
O O12 0.000000 0.500000 0.500000
#
# Coordination Sequence:
#
# PCOD9578054 Si02
#       7
#     4  12   4   6   4  12  12
#     4  10  19  42  78  93 138 172 247 316 353 433
#     4  12  25  45  70 101 140 180 234 299 359 439
#     4  12  25  40  66 105 136 187 231 292 368 439
#     4  10  22  46  68 106 132 190 252 302 372 432
#     4  12  21  42  70  95 133 171 225 283 362 421
#     4  12  26  46  72 104 140 189 246 306 367 437
#     4  12  25  44  67 104 145 186 232 289 375 442
#
# _framework density 21.073329000000001
#
# number of rings (size 3 to 8) (size 9 to 14) (size 15 to 20)
#    0.000    0.444    6.667    2.889    0.000    3.556 
#    0.667    0.000    0.000    0.000    0.000    0.000 
#    0.000    0.000    0.000    0.000    0.000    0.000 
#
# Total GULP energy -300713.943720 kJ/mol
# GULP energy per Si atom -5568.776736 kJ/mol
# Density = 2.102536 g / cm^3
# Si number density = 21.073329 Si / 1000 Ang^3
#
#
#
# Elastic Constant Matrix: (Units=GPa)
#
#
# Indices 1 2 3 4 5 6 
#
# 1 105.2126 -1.9302 24.0262 0.0004 -1.7861 -0.0012
# 2 -1.9302 105.2126 24.0258 -0.0007 1.7859 0.0013
# 3 24.0262 24.0258 77.4176 -0.0007 -0.0004 -0.0003
# 4 0.0004 -0.0007 -0.0007 6.5952 0.0000 1.7854
# 5 -1.7861 1.7859 -0.0004 0.0000 6.5952 -0.0005
# 6 -0.0012 0.0013 -0.0003 1.7854 -0.0005 53.5729
#
#
#
# Elastic Compliance Matrix: (Units=1/GPa)
#
#
# Indices 1 2 3 4 5 6 
#
# 1 0.010367 0.000949 -0.003512 -0.000001 0.002551 0.000000
# 2 0.000949 0.010367 -0.003512 0.000001 -0.002551 0.000000
# 3 -0.003512 -0.003512 0.015097 0.000002 0.000001 0.000000
# 4 -0.000001 0.000001 0.000002 0.153006 -0.000001 -0.005099
# 5 0.002551 -0.002551 0.000001 -0.000001 0.153007 0.000002
# 6 0.000000 0.000000 0.000000 -0.005099 0.000002 0.018836
#
#
# Mechanical properties :
#
#
# Convention : Reuss Voigt Hill
#
# Bulk Modulus (GPa) = 42.22718 42.23182 42.22950
# Shear Modulus (GPa) = 13.13290 29.46739 21.30015
#
# Velocity S-wave (km/s) = 2.49911 3.74348 3.18270
# Velocity P-wave (km/s) = 5.33002 6.22646 5.79559
#
# Compressibility (1/GPa) = 0.02368143
#
# Stress axis : x y z
#
# Youngs Moduli (GPa) = 96.45767 96.45791 66.23955
#
# Poissons Ratio (x) = -0.09153 0.23263
# Poissons Ratio (y) = -0.09152 0.23262
# Poissons Ratio (z) = 0.33875 0.33875
#
# Static dielectric constant tensor:
#      x y z
#    x 1.754480 0.000000 0.000000 
#    y 0.000000 1.754480 0.000000 
#    z 0.000000 0.000000 1.950660 
# 
# From -- ./inp_files/3870.got.cif
#   From: 2010.05.17/outbox.cif.g08.bks.cpg/sg163_2_cif.got.tgz:3870.got - 2010.05.20 10:56:03.
