data_PCOD9578802
_publ_section_title
;
Structure prediction by ZEFSAII (Michael W. Deem and Ramdas Pophale) SiO2 
 PCOD9578802
Probable space group: P -3 C 1
;
_chemical_formula_sum "Si O2"
_cell_formula_units_Z 48
_cell_length_a 15.979560
_cell_length_b 15.979560
_cell_length_c 10.563336
_cell_angle_alpha 90.000000
_cell_angle_beta 90.000000
_cell_angle_gamma 120.000000
_cell_volume 2335.938257
_symmetry_space_group_name_H-M "P -3 C 1"
_symmetry_group_IT_number 165
_symmetry_cell_setting 'hexagonal'
loop_
_space_group_symop_operation_xyz
x,y,z
-y,x-y,z
-x+y,-x,z
x-y,-y,1/2-z
-x,-x+y,1/2-z
y,x,1/2-z
-x,-y,-z
y,-x+y,-z
x-y,x,-z
-x+y,y,1/2+z
x,x-y,1/2+z
-y,-x,1/2+z
loop_
_atom_site_type_symbol
_atom_site_label
_atom_site_fract_x
_atom_site_fract_y
_atom_site_fract_z
Si Si1 0.496436 0.601074 0.361378
Si Si2 0.297645 0.297645 0.750000
Si Si3 0.503564 0.398926 0.361378
Si Si4 0.176212 0.215292 0.500000
Si Si5 0.297645 0.000000 0.750000
O O1 0.601809 0.680659 0.314335
O O2 0.500000 0.500000 0.372906
O O3 0.420791 0.579209 0.250000
O O4 0.473907 0.622957 0.500000
O O5 0.225024 0.269286 0.631855
O O6 0.398191 0.319341 0.314335
O O7 0.066095 0.187545 0.500000
O O8 0.225024 0.269286 0.368145
#
# Coordination Sequence:
#
# PCOD9578802 Si02
#       5
#    12   6  12  12   6
#     4   8  14  25  48  80 107 124 137 167 240 348
#     4  10  19  34  53  72  96 128 170 228 305 362
#     4   8  14  25  48  80 107 124 137 167 240 348
#     4  12  25  40  53  66  90 142 212 280 325 350
#     4  10  19  34  53  72  96 128 170 228 305 362
#
# _framework density 20.548489
#
# number of rings (size 3 to 8) (size 9 to 14) (size 15 to 20)
#    0.000    3.000    2.500    1.750    3.500    0.000 
#    0.000    2.500    0.000    0.000    0.000    0.000 
#    0.000    0.000    0.000 1920.000    0.000    0.000 
#
# Total GULP energy -267385.089261 kJ/mol
# GULP energy per Si atom -5570.522693 kJ/mol
# Density = 2.050172 g / cm^3
# Si number density = 20.548489 Si / 1000 Ang^3
#
#
#
# Elastic Constant Matrix: (Units=GPa)
#
#
# Indices 1 2 3 4 5 6 
#
# 1 19.9267 61.3041 42.5043 0.0000 0.0000 0.0000
# 2 61.3041 19.9267 42.5043 0.0000 0.0000 0.0000
# 3 42.5043 42.5043 249.6660 0.0000 0.0000 0.0000
# 4 0.0000 0.0000 0.0000 25.8764 0.0000 0.0000
# 5 0.0000 0.0000 0.0000 0.0000 25.8764 0.0000
# 6 0.0000 0.0000 0.0000 0.0000 0.0000 -20.6887
#
#
#
# Elastic Compliance Matrix: (Units=1/GPa)
#
#
# Indices 1 2 3 4 5 6 
#
# 1 -0.004594 0.019574 -0.002550 0.000000 0.000000 0.000000
# 2 0.019574 -0.004594 -0.002550 0.000000 0.000000 0.000000
# 3 -0.002550 -0.002550 0.004874 0.000000 0.000000 0.000000
# 4 0.000000 0.000000 0.000000 0.038645 0.000000 0.000000
# 5 0.000000 0.000000 0.000000 0.000000 0.038645 0.000000
# 6 0.000000 0.000000 0.000000 0.000000 0.000000 -0.048336
#
#
# Mechanical properties :
#
#
# Convention : Reuss Voigt Hill
#
# Bulk Modulus (GPa) = 40.59803 64.68278 52.64040
# Shear Modulus (GPa) = 1280.73739 15.75996 648.24867
#
# Velocity S-wave (km/s) = 24.99257 2.77242 17.78082
# Velocity P-wave (km/s) = 29.19997 6.46489 21.14750
#
# Compressibility (1/GPa) = 0.02463174
#
# Stress axis : x y z
#
# Youngs Moduli (GPa) = -217.66445 -217.66445 205.18496
#
# Poissons Ratio (x) = 4.26047 0.52325
# Poissons Ratio (y) = 4.26047 0.52325
# Poissons Ratio (z) = -0.55508 -0.55508
#
# Static dielectric constant tensor:
#      x y z
#    x 1.737450 0.000000 0.000000 
#    y 0.000000 1.737450 0.000000 
#    z 0.000000 0.000000 1.842920 
# 
# From -- ./inp_files/1067.got.cif
#   From: 2010.05.17/outbox.cif.g08.bks.cpg/sg165_1_cif.got.tgz:1067.got - 2010.05.20 11:02:39.
