data_PCOD9578384
_publ_section_title
;
Structure prediction by ZEFSAII (Michael W. Deem and Ramdas Pophale) SiO2 
 PCOD9578384
Probable space group: P -3 M 1
;
_chemical_formula_sum "Si O2"
_cell_formula_units_Z 96
_cell_length_a 26.718297
_cell_length_b 26.718297
_cell_length_c 10.034464
_cell_angle_alpha 90.000000
_cell_angle_beta 90.000000
_cell_angle_gamma 120.000000
_cell_volume 6203.579572
_symmetry_space_group_name_H-M "P -3 M 1"
_symmetry_group_IT_number 164
_symmetry_cell_setting 'hexagonal'
loop_
_space_group_symop_operation_xyz
x,y,z
-y,x-y,z
-x+y,-x,z
x-y,-y,-z
-x,-x+y,-z
y,x,-z
-x,-y,-z
y,-x+y,-z
x-y,x,-z
-x+y,y,z
x,x-y,z
-y,-x,z
loop_
_atom_site_type_symbol
_atom_site_label
_atom_site_fract_x
_atom_site_fract_y
_atom_site_fract_z
Si Si1 0.666493 0.214673 0.645558
Si Si2 0.067506 0.749817 0.739985
Si Si3 0.440834 0.160013 0.147258
Si Si4 0.333483 0.547836 0.664491
Si Si5 0.178835 0.243628 0.984301
Si Si6 0.281501 0.442175 0.163778
Si Si7 0.817141 0.749277 0.513659
Si Si8 0.252077 0.317161 0.230786
O O1 0.606619 0.213237 0.668847
O O2 0.720129 0.279872 0.660800
O O3 0.667624 0.198093 0.490687
O O4 0.677391 0.175566 0.749093
O O5 0.110369 0.727921 0.786050
O O6 0.078717 0.779225 0.595931
O O7 0.001069 0.699135 0.749930
O O8 0.072581 0.798904 0.841893
O O9 0.436473 0.218237 0.149666
O O10 0.496751 0.174255 0.234862
O O11 0.446037 0.147571 0.991930
O O12 0.279521 0.559042 0.680893
O O13 0.393447 0.606554 0.688287
O O14 0.113801 0.227601 0.006883
O O15 0.220379 0.291521 0.090687
O O16 0.191259 0.191259 0.000000
O O17 0.218234 0.436467 0.166867
O O18 0.275336 0.384724 0.229107
O O19 0.798446 0.798446 0.500000
O O20 0.884362 0.768724 0.496809
O O21 0.794678 0.718323 0.655644
#
# Coordination Sequence:
#
# PCOD9578384 Si02
#       8
#    12  12  12  12  12  12  12  12
#     4   9  18  32  50  72  97 127 161 197 238 284
#     4  10  20  32  48  71  98 129 160 195 240 289
#     4  10  19  30  47  71  98 126 158 199 243 286
#     4   9  18  32  50  72  97 127 161 197 238 284
#     4  10  18  30  48  69  95 127 161 195 235 283
#     4  10  19  30  47  71  98 126 158 199 243 286
#     4  10  20  32  48  71  99 129 161 199 243 289
#     4  10  20  32  48  71  98 129 160 195 240 289
#
# _framework density 15.474937000000001
#
# number of rings (size 3 to 8) (size 9 to 14) (size 15 to 20)
#    0.000    2.250    1.250    2.500    1.750    1.500 
#    0.000    0.000    0.000    2.500    0.000    3.500 
#    0.000    6.000    0.000    0.000    0.000    1.000 
#
# Total GULP energy -535236.726053 kJ/mol
# GULP energy per Si atom -5575.382563 kJ/mol
# Density = 1.543972 g / cm^3
# Si number density = 15.474937 Si / 1000 Ang^3
#
#
#
# Elastic Constant Matrix: (Units=GPa)
#
#
# Indices 1 2 3 4 5 6 
#
# 1 88.6868 43.4019 23.2949 -0.5417 0.0000 0.0000
# 2 43.4019 88.6868 23.2949 0.5417 0.0000 0.0000
# 3 23.2949 23.2949 43.6583 0.0000 0.0000 0.0000
# 4 -0.5417 0.5417 0.0000 14.9797 0.0000 0.0000
# 5 0.0000 0.0000 0.0000 0.0000 14.9797 -0.5417
# 6 0.0000 0.0000 0.0000 0.0000 -0.5417 22.6424
#
#
#
# Elastic Compliance Matrix: (Units=1/GPa)
#
#
# Indices 1 2 3 4 5 6 
#
# 1 0.015714 -0.006388 -0.004976 0.000799 0.000000 0.000000
# 2 -0.006388 0.015714 -0.004976 -0.000799 0.000000 0.000000
# 3 -0.004976 -0.004976 0.028215 0.000000 0.000000 0.000000
# 4 0.000799 -0.000799 0.000000 0.066815 0.000000 0.000000
# 5 0.000000 0.000000 0.000000 0.000000 0.066815 0.001598
# 6 0.000000 0.000000 0.000000 0.000000 0.001598 0.044203
#
#
# Mechanical properties :
#
#
# Convention : Reuss Voigt Hill
#
# Bulk Modulus (GPa) = 37.08806 44.55727 40.82266
# Shear Modulus (GPa) = 17.91199 19.25638 18.58419
#
# Velocity S-wave (km/s) = 3.40587 3.53137 3.46919
# Velocity P-wave (km/s) = 6.28372 6.74412 6.51799
#
# Compressibility (1/GPa) = 0.02696286
#
# Stress axis : x y z
#
# Youngs Moduli (GPa) = 63.63889 63.63889 35.44185
#
# Poissons Ratio (x) = 0.40652 0.17636
# Poissons Ratio (y) = 0.40652 0.17636
# Poissons Ratio (z) = 0.31667 0.31667
#
# Static dielectric constant tensor:
#      x y z
#    x 1.496760 0.000000 0.000000 
#    y 0.000000 1.496760 0.000000 
#    z 0.000000 0.000000 1.528350 
# 
# From -- ./inp_files/3161.got.cif
#   From: 2010.05.17/outbox.cif.g08.bks.cpg/sg164_2_cif.got.tgz:3161.got - 2010.05.20 10:58:56.
