data_PCOD9578226
_publ_section_title
;
Structure prediction by ZEFSAII (Michael W. Deem and Ramdas Pophale) SiO2 
 PCOD9578226
Probable space group: P -3 1 C
;
_chemical_formula_sum "Si O2"
_cell_formula_units_Z 84
_cell_length_a 20.845412
_cell_length_b 20.845412
_cell_length_c 12.076313
_cell_angle_alpha 90.000000
_cell_angle_beta 90.000000
_cell_angle_gamma 120.000000
_cell_volume 4544.498441
_symmetry_space_group_name_H-M "P -3 1 C"
_symmetry_group_IT_number 163
_symmetry_cell_setting 'hexagonal'
loop_
_space_group_symop_operation_xyz
x,y,z
-y,x-y,z
-x+y,-x,z
-y,-x,1/2-z
-x+y,y,1/2-z
x,x-y,1/2-z
-x,-y,-z
y,-x+y,-z
x-y,x,-z
y,x,1/2+z
x-y,-y,1/2+z
-x,-x+y,1/2+z
loop_
_atom_site_type_symbol
_atom_site_label
_atom_site_fract_x
_atom_site_fract_y
_atom_site_fract_z
Si Si1 0.909816 0.435656 0.081777
Si Si2 0.347803 0.943730 0.858555
Si Si3 0.721444 0.555891 0.172324
Si Si4 0.712002 0.618806 0.760559
Si Si5 0.505657 0.924477 0.357181
Si Si6 0.250318 0.953912 0.041889
Si Si7 0.798327 0.125195 0.521232
O O1 0.918548 0.509700 0.137356
O O2 0.850025 0.357384 0.128547
O O3 0.990120 0.440545 0.098867
O O4 0.892569 0.446759 0.956087
O O5 0.293634 0.899743 0.758376
O O6 0.385127 0.029638 0.831213
O O7 0.303584 0.932659 0.971364
O O8 0.763210 0.526419 0.250000
O O9 0.766824 0.607287 0.069348
O O10 0.666770 0.546493 0.682331
O O11 0.739265 0.685144 0.672101
O O12 0.772673 0.636099 0.855587
O O13 0.465373 0.930746 0.250000
O O14 0.168342 0.887187 0.014778
O O15 0.276111 0.037491 0.004764
#
# Coordination Sequence:
#
# PCOD9578226 Si02
#       7
#    12  12  12  12  12  12  12
#     4  11  21  31  52  84 115 158 200 240 298 365
#     4  11  20  35  56  82 117 156 194 245 304 374
#     4  12  22  37  54  81 121 163 206 251 297 368
#     4  11  20  35  56  86 124 151 191 254 313 364
#     4  11  18  29  51  80 119 150 188 242 300 360
#     4  11  22  40  59  87 120 163 200 255 318 386
#     4  11  24  38  60  87 123 163 204 252 324 386
#
# _framework density 18.483889000000001
#
# number of rings (size 3 to 8) (size 9 to 14) (size 15 to 20)
#    0.000    0.857    7.143    1.714    4.000    0.000 
#    0.000    0.000    0.000    2.571    0.000    0.000 
#    0.000    0.286    0.000    0.000    0.000    0.000 
#
# Total GULP energy -468242.951518 kJ/mol
# GULP energy per Si atom -5574.320851 kJ/mol
# Density = 1.844182 g / cm^3
# Si number density = 18.483889 Si / 1000 Ang^3
#
#
#
# Elastic Constant Matrix: (Units=GPa)
#
#
# Indices 1 2 3 4 5 6 
#
# 1 85.4899 40.8229 29.0607 0.0000 5.7422 0.0000
# 2 40.8229 85.4899 29.0607 0.0000 -5.7422 0.0000
# 3 29.0607 29.0607 129.4700 0.0000 0.0000 0.0000
# 4 0.0000 0.0000 0.0000 26.6226 0.0000 -5.7422
# 5 5.7422 -5.7422 0.0000 0.0000 26.6226 0.0000
# 6 0.0000 0.0000 0.0000 -5.7422 0.0000 22.3335
#
#
#
# Elastic Compliance Matrix: (Units=1/GPa)
#
#
# Indices 1 2 3 4 5 6 
#
# 1 0.016266 -0.007437 -0.001982 0.000000 -0.005112 0.000000
# 2 -0.007437 0.016266 -0.001982 0.000000 0.005112 0.000000
# 3 -0.001982 -0.001982 0.008613 0.000000 0.000000 0.000000
# 4 0.000000 0.000000 0.000000 0.039767 0.000000 0.010225
# 5 -0.005112 0.005112 0.000000 0.000000 0.039767 0.000000
# 6 0.000000 0.000000 0.000000 0.010225 0.000000 0.047405
#
#
# Mechanical properties :
#
#
# Convention : Reuss Voigt Hill
#
# Bulk Modulus (GPa) = 54.51347 55.37094 54.94221
# Shear Modulus (GPa) = 25.38082 28.54942 26.96512
#
# Velocity S-wave (km/s) = 3.70960 3.93435 3.82363
# Velocity P-wave (km/s) = 6.92132 7.11760 7.02014
#
# Compressibility (1/GPa) = 0.01834409
#
# Stress axis : x y z
#
# Youngs Moduli (GPa) = 61.47970 61.47970 116.09806
#
# Poissons Ratio (x) = 0.45721 0.23007
# Poissons Ratio (y) = 0.45721 0.23007
# Poissons Ratio (z) = 0.12183 0.12183
#
# Static dielectric constant tensor:
#      x y z
#    x 1.676450 0.000000 0.000000 
#    y 0.000000 1.676450 0.000000 
#    z 0.000000 0.000000 1.728200 
# 
# From -- ./inp_files/1851.got.cif
#   From: 2010.05.17/outbox.cif.g08.bks.cpg/sg163_1_cif.got.tgz:1851.got - 2010.05.20 10:56:03.
