data_PCOD9578344
_publ_section_title
;
Structure prediction by ZEFSAII (Michael W. Deem and Ramdas Pophale) SiO2 
 PCOD9578344
Probable space group: P -3 M 1
;
_chemical_formula_sum "Si O2"
_cell_formula_units_Z 96
_cell_length_a 17.264599
_cell_length_b 17.264599
_cell_length_c 26.004748
_cell_angle_alpha 90.000000
_cell_angle_beta 90.000000
_cell_angle_gamma 120.000000
_cell_volume 6712.685069
_symmetry_space_group_name_H-M "P -3 M 1"
_symmetry_group_IT_number 164
_symmetry_cell_setting 'hexagonal'
loop_
_space_group_symop_operation_xyz
x,y,z
-y,x-y,z
-x+y,-x,z
x-y,-y,-z
-x,-x+y,-z
y,x,-z
-x,-y,-z
y,-x+y,-z
x-y,x,-z
-x+y,y,z
x,x-y,z
-y,-x,z
loop_
_atom_site_type_symbol
_atom_site_label
_atom_site_fract_x
_atom_site_fract_y
_atom_site_fract_z
Si Si1 0.151437 0.484076 0.588244
Si Si2 0.977485 0.582381 0.820650
Si Si3 0.384903 0.430654 0.381004
Si Si4 0.332947 0.853052 0.274379
Si Si5 0.374539 0.276289 0.515181
Si Si6 0.099228 0.723264 0.984576
Si Si7 0.515253 0.846822 0.088538
Si Si8 0.332313 0.851458 0.877925
O O1 0.239016 0.478031 0.602356
O O2 0.169395 0.584698 0.592786
O O3 0.126689 0.450036 0.529124
O O4 0.060657 0.419409 0.619706
O O5 0.977807 0.488904 0.819192
O O6 0.922827 0.579283 0.770310
O O7 0.920864 0.578127 0.870620
O O8 0.079850 0.655734 0.832189
O O9 0.474738 0.525263 0.390047
O O10 0.341554 0.440292 0.328818
O O11 0.320566 0.410029 0.429528
O O12 0.419074 0.838148 0.270353
O O13 0.241005 0.758996 0.270131
O O14 0.296209 0.296209 0.500000
O O15 0.346926 0.173463 0.515597
O O16 0.171798 0.828203 0.982130
O O17 0.107580 0.680462 0.931278
O O18 0.128966 0.682387 0.031205
O O19 0.000000 0.699296 0.000000
O O20 0.420060 0.840119 0.090721
O O21 0.506606 0.753303 0.103105
O O22 0.422860 0.845720 0.881014
O O23 0.245782 0.754218 0.871482
#
# Coordination Sequence:
#
# PCOD9578344 Si02
#       8
#    12  12  12  12  12  12  12  12
#     4   9  16  26  41  62  88 118 150 181 212 249
#     4   9  18  30  44  60  83 114 144 180 219 252
#     4   9  17  28  42  61  87 116 145 179 217 259
#     4  10  19  31  46  64  86 113 145 179 217 260
#     4   9  16  26  41  61  85 114 146 180 219 261
#     4  10  19  30  46  67  92 119 146 180 219 263
#     4  10  18  27  41  62  89 118 146 174 208 252
#     4  10  19  31  47  66  90 120 153 184 216 255
#
# _framework density 14.301280999999999
#
# number of rings (size 3 to 8) (size 9 to 14) (size 15 to 20)
#    0.000    2.500    1.250    2.000    0.000    2.000 
#    0.000    3.125    0.000    4.250    0.000    1.750 
#    0.000    0.000    0.000    5.625    0.000    0.500 
#
# Total GULP energy -534553.292758 kJ/mol
# GULP energy per Si atom -5568.263466 kJ/mol
# Density = 1.426873 g / cm^3
# Si number density = 14.301281 Si / 1000 Ang^3
#
#
#
# Elastic Constant Matrix: (Units=GPa)
#
#
# Indices 1 2 3 4 5 6 
#
# 1 87.7931 48.1629 39.2574 1.5093 0.0000 0.0000
# 2 48.1629 87.7931 39.2574 -1.5093 0.0000 0.0000
# 3 39.2574 39.2574 77.2627 0.0000 0.0000 0.0000
# 4 1.5093 -1.5093 0.0000 16.4858 0.0000 0.0000
# 5 0.0000 0.0000 0.0000 0.0000 16.4858 1.5093
# 6 0.0000 0.0000 0.0000 0.0000 1.5093 19.8151
#
#
#
# Elastic Compliance Matrix: (Units=1/GPa)
#
#
# Indices 1 2 3 4 5 6 
#
# 1 0.017910 -0.007500 -0.005289 -0.002326 0.000000 0.000000
# 2 -0.007500 0.017910 -0.005289 0.002326 0.000000 0.000000
# 3 -0.005289 -0.005289 0.018318 0.000000 0.000000 0.000000
# 4 -0.002326 0.002326 0.000000 0.061084 0.000000 0.000000
# 5 0.000000 0.000000 0.000000 0.000000 0.061084 -0.004653
# 6 0.000000 0.000000 0.000000 0.000000 -0.004653 0.050821
#
#
# Mechanical properties :
#
#
# Convention : Reuss Voigt Hill
#
# Bulk Modulus (GPa) = 55.61588 56.24491 55.93039
# Shear Modulus (GPa) = 18.56810 18.96875 18.76842
#
# Velocity S-wave (km/s) = 3.60717 3.64588 3.62658
# Velocity P-wave (km/s) = 7.50481 7.55892 7.53191
#
# Compressibility (1/GPa) = 0.01798048
#
# Stress axis : x y z
#
# Youngs Moduli (GPa) = 55.83417 55.83417 54.59148
#
# Poissons Ratio (x) = 0.41877 0.28875
# Poissons Ratio (y) = 0.41877 0.28875
# Poissons Ratio (z) = 0.29532 0.29532
#
# Static dielectric constant tensor:
#      x y z
#    x 1.464230 0.000000 0.000000 
#    y 0.000000 1.464230 0.000000 
#    z 0.000000 0.000000 1.471940 
# 
# From -- ./inp_files/4719.got.cif
#   From: 2010.05.17/outbox.cif.g08.bks.cpg/sg164_3_cif.got.tgz:4719.got - 2010.05.20 10:58:56.
