data_PCOD9578059
_publ_section_title
;
Structure prediction by ZEFSAII (Michael W. Deem and Ramdas Pophale) SiO2 
 PCOD9578059
Probable space group: P -3 1 C
;
_chemical_formula_sum "Si O2"
_cell_formula_units_Z 50
_cell_length_a 12.668438
_cell_length_b 12.668438
_cell_length_c 22.325044
_cell_angle_alpha 90.000000
_cell_angle_beta 90.000000
_cell_angle_gamma 120.000000
_cell_volume 3102.909405
_symmetry_space_group_name_H-M "P -3 1 C"
_symmetry_group_IT_number 163
_symmetry_cell_setting 'hexagonal'
loop_
_space_group_symop_operation_xyz
x,y,z
-y,x-y,z
-x+y,-x,z
-y,-x,1/2-z
-x+y,y,1/2-z
x,x-y,1/2-z
-x,-y,-z
y,-x+y,-z
x-y,x,-z
y,x,1/2+z
x-y,-y,1/2+z
-x,-x+y,1/2+z
loop_
_atom_site_type_symbol
_atom_site_label
_atom_site_fract_x
_atom_site_fract_y
_atom_site_fract_z
Si Si1 0.666667 0.333334 0.925481
Si Si2 0.171608 0.267966 0.481901
Si Si3 0.931061 0.532233 0.052682
Si Si4 0.251287 0.748714 0.250000
Si Si5 0.849271 0.592201 0.623565
Si Si6 0.333335 0.666668 0.567386
O O1 0.531335 0.263680 0.901402
O O2 0.666668 0.333334 0.995717
O O3 0.216700 0.171534 0.483498
O O4 0.272044 0.385958 0.517561
O O5 0.151038 0.301565 0.415239
O O6 0.811046 0.417794 0.081363
O O7 0.029872 0.618525 0.102348
O O8 0.000000 0.500000 0.000000
O O9 0.203526 0.601763 0.250000
O O10 0.233215 0.815489 0.306934
#
# Coordination Sequence:
#
# PCOD9578059 Si02
#       6
#     4  12  12   6  12   4
#     4  12  15  28  49  72 111 130 163 220 254 331
#     4  10  20  33  52  79 109 140 172 218 274 324
#     4  11  20  29  49  77 111 141 168 216 278 327
#     4  10  20  32  52  78 100 138 178 220 262 298
#     4  11  19  32  50  78 108 135 180 220 269 319
#     4  12  18  30  46  79 112 145 162 211 284 331
#
# _framework density 16.113909
#
# number of rings (size 3 to 8) (size 9 to 14) (size 15 to 20)
#    0.240    0.960    7.200    1.680    0.000    0.000 
#    0.000    0.000    0.000    5.760    0.000    0.000 
#    0.000    0.000    0.000    0.000    0.000    0.000 
#
# Total GULP energy -278342.220825 kJ/mol
# GULP energy per Si atom -5566.844417 kJ/mol
# Density = 1.607723 g / cm^3
# Si number density = 16.113909 Si / 1000 Ang^3
#
#
#
# Elastic Constant Matrix: (Units=GPa)
#
#
# Indices 1 2 3 4 5 6 
#
# 1 91.7479 37.3235 39.3059 0.0001 -3.0090 -0.0005
# 2 37.3235 91.7486 39.3056 -0.0014 3.0082 0.0010
# 3 39.3059 39.3056 126.4781 0.0002 0.0001 -0.0003
# 4 0.0001 -0.0014 0.0002 13.8927 0.0006 3.0077
# 5 -3.0090 3.0082 0.0001 0.0006 13.8920 -0.0007
# 6 -0.0005 0.0010 -0.0003 3.0077 -0.0007 27.2133
#
#
#
# Elastic Compliance Matrix: (Units=1/GPa)
#
#
# Indices 1 2 3 4 5 6 
#
# 1 0.014191 -0.004634 -0.002970 -0.000001 0.004077 0.000001
# 2 -0.004634 0.014190 -0.002970 0.000002 -0.004077 -0.000001
# 3 -0.002970 -0.002970 0.009752 0.000000 0.000000 0.000000
# 4 -0.000001 0.000002 0.000000 0.073745 -0.000004 -0.008151
# 5 0.004077 -0.004077 0.000000 -0.000004 0.073750 0.000003
# 6 0.000001 -0.000001 0.000000 -0.008151 0.000003 0.037648
#
#
# Mechanical properties :
#
#
# Convention : Reuss Voigt Hill
#
# Bulk Modulus (GPa) = 58.87267 60.20496 59.53882
# Shear Modulus (GPa) = 19.99320 23.93558 21.96439
#
# Velocity S-wave (km/s) = 3.52624 3.85827 3.69598
# Velocity P-wave (km/s) = 7.29341 7.56912 7.43254
#
# Compressibility (1/GPa) = 0.01698581
#
# Stress axis : x y z
#
# Youngs Moduli (GPa) = 70.46875 70.46985 102.53883
#
# Poissons Ratio (x) = 0.32657 0.30453
# Poissons Ratio (y) = 0.32656 0.30452
# Poissons Ratio (z) = 0.20929 0.20928
#
# Static dielectric constant tensor:
#      x y z
#    x 1.578020 0.000000 0.000000 
#    y 0.000000 1.578020 0.000000 
#    z 0.000000 0.000000 1.533380 
# 
# From -- ./inp_files/3524.got.cif
#   From: 2010.05.17/outbox.cif.g08.bks.cpg/sg163_2_cif.got.tgz:3524.got - 2010.05.20 10:56:03.
