data_PCOD9578171
_publ_section_title
;
Structure prediction by ZEFSAII (Michael W. Deem and Ramdas Pophale) SiO2 
 PCOD9578171
Probable space group: P -3 1 C
;
_chemical_formula_sum "Si O2"
_cell_formula_units_Z 84
_cell_length_a 17.980390
_cell_length_b 17.980390
_cell_length_c 14.378180
_cell_angle_alpha 90.000000
_cell_angle_beta 90.000000
_cell_angle_gamma 120.000000
_cell_volume 4025.619868
_symmetry_space_group_name_H-M "P -3 1 C"
_symmetry_group_IT_number 163
_symmetry_cell_setting 'hexagonal'
loop_
_space_group_symop_operation_xyz
x,y,z
-y,x-y,z
-x+y,-x,z
-y,-x,1/2-z
-x+y,y,1/2-z
x,x-y,1/2-z
-x,-y,-z
y,-x+y,-z
x-y,x,-z
y,x,1/2+z
x-y,-y,1/2+z
-x,-x+y,1/2+z
loop_
_atom_site_type_symbol
_atom_site_label
_atom_site_fract_x
_atom_site_fract_y
_atom_site_fract_z
Si Si1 0.625688 0.909521 0.158670
Si Si2 0.149933 0.418865 0.088003
Si Si3 0.193572 0.472353 0.881957
Si Si4 0.236574 0.920239 0.744025
Si Si5 0.169600 0.597689 0.148762
Si Si6 0.312722 0.955670 0.550137
Si Si7 0.171265 0.625483 0.939805
O O1 0.604612 0.810997 0.154352
O O2 0.529688 0.898421 0.168295
O O3 0.699456 0.981009 0.224553
O O4 0.660149 0.941543 0.054827
O O5 0.144068 0.500813 0.122950
O O6 0.053266 0.347515 0.074182
O O7 0.188268 0.433357 0.984607
O O8 0.134314 0.401039 0.808232
O O9 0.160354 0.538782 0.899120
O O10 0.296442 0.528000 0.871356
O O11 0.132275 0.867726 0.750000
O O12 0.251289 0.909029 0.636261
O O13 0.214087 0.607044 0.250000
O O14 0.208720 0.641545 0.047204
O O15 0.379495 0.920363 0.552771
#
# Coordination Sequence:
#
# PCOD9578171 Si02
#       7
#    12  12  12  12  12  12  12
#     4  11  24  44  64  93 134 174 225 290 354 408
#     4  11  22  42  62  87 131 174 223 283 348 411
#     4  11  21  41  63  87 134 176 228 286 336 413
#     4  12  24  42  68  98 131 174 233 288 345 428
#     4  10  22  37  59  89 123 173 232 279 337 408
#     4  11  23  40  64  92 125 172 224 275 350 401
#     4  10  22  39  60  87 126 181 223 279 350 385
#
# _framework density 20.866350000000001
#
# number of rings (size 3 to 8) (size 9 to 14) (size 15 to 20)
#    0.000    1.143    5.714    1.143    2.000    4.571 
#    0.857    0.000    0.000    0.000    0.000    0.000 
#    5.714    1.143    0.000    0.000    0.000    0.000 
#
# Total GULP energy -467822.977003 kJ/mol
# GULP energy per Si atom -5569.321155 kJ/mol
# Density = 2.081886 g / cm^3
# Si number density = 20.866350 Si / 1000 Ang^3
#
#
#
# Elastic Constant Matrix: (Units=GPa)
#
#
# Indices 1 2 3 4 5 6 
#
# 1 69.3423 41.2722 18.5837 0.0001 -6.2250 0.0000
# 2 41.2722 69.3423 18.5837 -0.0001 6.2250 0.0000
# 3 18.5837 18.5837 98.7306 0.0000 0.0000 0.0000
# 4 0.0001 -0.0001 0.0000 21.8971 0.0000 6.2250
# 5 -6.2250 6.2250 0.0000 0.0000 21.8971 0.0001
# 6 0.0000 0.0000 0.0000 6.2250 0.0001 14.0351
#
#
#
# Elastic Compliance Matrix: (Units=1/GPa)
#
#
# Indices 1 2 3 4 5 6 
#
# 1 0.025208 -0.015557 -0.001817 0.000000 0.011589 0.000000
# 2 -0.015557 0.025208 -0.001817 0.000000 -0.011589 0.000000
# 3 -0.001817 -0.001817 0.010812 0.000000 0.000000 0.000000
# 4 0.000000 0.000000 0.000000 0.052257 0.000000 -0.023178
# 5 0.011589 -0.011589 0.000000 0.000000 0.052257 0.000000
# 6 0.000000 0.000000 0.000000 -0.023178 0.000000 0.081530
#
#
# Mechanical properties :
#
#
# Convention : Reuss Voigt Hill
#
# Bulk Modulus (GPa) = 43.76782 43.81050 43.78916
# Shear Modulus (GPa) = 17.04924 22.16425 19.60674
#
# Velocity S-wave (km/s) = 2.86154 3.26268 3.06867
# Velocity P-wave (km/s) = 5.65144 5.93589 5.79541
#
# Compressibility (1/GPa) = 0.02284784
#
# Stress axis : x y z
#
# Youngs Moduli (GPa) = 39.67017 39.67017 92.48625
#
# Poissons Ratio (x) = 0.61715 0.16800
# Poissons Ratio (y) = 0.61715 0.16800
# Poissons Ratio (z) = 0.07206 0.07206
#
# Static dielectric constant tensor:
#      x y z
#    x 1.810310 0.000000 0.000000 
#    y 0.000000 1.810310 0.000000 
#    z 0.000000 0.000000 1.827940 
# 
# From -- ./inp_files/2681.got.cif
#   From: 2010.05.17/outbox.cif.g08.bks.cpg/sg163_2_cif.got.tgz:2681.got - 2010.05.20 10:56:03.
