data_PCOD9578530
_publ_section_title
;
Structure prediction by ZEFSAII (Michael W. Deem and Ramdas Pophale) SiO2 
 PCOD9578530
Probable space group: P -3 M 1
;
_chemical_formula_sum "Si O2"
_cell_formula_units_Z 60
_cell_length_a 13.044573
_cell_length_b 13.044573
_cell_length_c 26.403152
_cell_angle_alpha 90.000000
_cell_angle_beta 90.000000
_cell_angle_gamma 120.000000
_cell_volume 3890.864822
_symmetry_space_group_name_H-M "P -3 M 1"
_symmetry_group_IT_number 164
_symmetry_cell_setting 'hexagonal'
loop_
_space_group_symop_operation_xyz
x,y,z
-y,x-y,z
-x+y,-x,z
x-y,-y,-z
-x,-x+y,-z
y,x,-z
-x,-y,-z
y,-x+y,-z
x-y,x,-z
-x+y,y,z
x,x-y,z
-y,-x,z
loop_
_atom_site_type_symbol
_atom_site_label
_atom_site_fract_x
_atom_site_fract_y
_atom_site_fract_z
Si Si1 0.243912 0.243912 0.500000
Si Si2 0.754373 0.999875 0.611181
Si Si3 0.577594 0.666543 0.703348
Si Si4 0.908808 0.575198 0.910089
Si Si5 0.908490 0.575400 0.793717
Si Si6 0.000000 0.756295 0.000000
O O1 0.115270 0.230539 0.498162
O O2 0.295641 0.298110 0.554978
O O3 0.876206 0.123795 0.617690
O O4 0.779977 0.889989 0.612632
O O5 0.661796 0.976250 0.655445
O O6 0.565491 0.782746 0.707713
O O7 0.450232 0.549769 0.696991
O O8 0.637021 0.647779 0.753348
O O9 0.772846 0.545691 0.913707
O O10 0.916593 0.458297 0.920137
O O11 0.946226 0.613337 0.851899
O O12 0.982026 0.676143 0.950810
O O13 0.792022 0.584044 0.783193
O O14 0.877992 0.438996 0.790441
O O15 0.883817 0.767634 0.005184
#
# Coordination Sequence:
#
# PCOD9578530 Si02
#       6
#     6  12  12  12  12   6
#     4   8  13  22  39  64  90 112 134 166 214 266
#     4   9  16  27  45  68  91 112 137 174 220 266
#     4  10  20  32  45  61  85 119 154 183 210 247
#     4   9  17  30  49  71  92 113 140 178 223 266
#     4   9  17  30  49  71  91 111 138 177 225 269
#     4  10  20  32  46  64  90 124 156 182 208 246
#
# _framework density 15.420737000000001
#
# number of rings (size 3 to 8) (size 9 to 14) (size 15 to 20)
#    0.000    2.800    0.000    1.900    0.000    4.000 
#    0.000    0.500    0.000    1.200    0.000    0.000 
#    0.000    0.000    0.000    0.000    0.000    0.000 
#
# Total GULP energy -334096.279433 kJ/mol
# GULP energy per Si atom -5568.271324 kJ/mol
# Density = 1.538564 g / cm^3
# Si number density = 15.420737 Si / 1000 Ang^3
#
#
#
# Elastic Constant Matrix: (Units=GPa)
#
#
# Indices 1 2 3 4 5 6 
#
# 1 83.6265 51.7180 80.0292 1.4783 0.0000 0.0000
# 2 51.7180 83.6265 80.0292 -1.4783 0.0000 0.0000
# 3 80.0292 80.0292 152.5118 0.0000 0.0000 0.0000
# 4 1.4783 -1.4783 0.0000 22.8726 0.0000 0.0000
# 5 0.0000 0.0000 0.0000 0.0000 22.8726 1.4783
# 6 0.0000 0.0000 0.0000 0.0000 1.4783 15.9542
#
#
#
# Elastic Compliance Matrix: (Units=1/GPa)
#
#
# Indices 1 2 3 4 5 6 
#
# 1 0.025500 -0.006028 -0.010218 -0.002038 0.000000 0.000000
# 2 -0.006028 0.025500 -0.010218 0.002038 0.000000 0.000000
# 3 -0.010218 -0.010218 0.017280 0.000000 0.000000 0.000000
# 4 -0.002038 0.002038 0.000000 0.043984 0.000000 0.000000
# 5 0.000000 0.000000 0.000000 0.000000 0.043984 -0.004075
# 6 0.000000 0.000000 0.000000 0.000000 -0.004075 0.063057
#
#
# Mechanical properties :
#
#
# Convention : Reuss Voigt Hill
#
# Bulk Modulus (GPa) = 65.13263 82.59082 73.86173
# Shear Modulus (GPa) = 18.02769 19.53910 18.78340
#
# Velocity S-wave (km/s) = 3.42285 3.56345 3.49386
# Velocity P-wave (km/s) = 7.61249 8.40271 8.01734
#
# Compressibility (1/GPa) = 0.01535329
#
# Stress axis : x y z
#
# Youngs Moduli (GPa) = 39.21520 39.21520 57.86928
#
# Poissons Ratio (x) = 0.23639 0.59130
# Poissons Ratio (y) = 0.23639 0.59130
# Poissons Ratio (z) = 0.40070 0.40070
#
# Static dielectric constant tensor:
#      x y z
#    x 1.482010 0.000000 0.000000 
#    y 0.000000 1.482010 0.000000 
#    z 0.000000 0.000000 1.536330 
# 
# From -- ./inp_files/5215.got.cif
#   From: 2010.05.17/outbox.cif.g08.bks.cpg/sg164_3_cif.got.tgz:5215.got - 2010.05.20 10:58:56.
