data_PCOD9578721
_publ_section_title
;
Structure prediction by ZEFSAII (Michael W. Deem and Ramdas Pophale) SiO2 
 PCOD9578721
Probable space group: P -3 M 1
;
_chemical_formula_sum "Si O2"
_cell_formula_units_Z 84
_cell_length_a 17.023241
_cell_length_b 17.023241
_cell_length_c 15.508038
_cell_angle_alpha 90.000000
_cell_angle_beta 90.000000
_cell_angle_gamma 120.000000
_cell_volume 3891.992398
_symmetry_space_group_name_H-M "P -3 M 1"
_symmetry_group_IT_number 164
_symmetry_cell_setting 'hexagonal'
loop_
_space_group_symop_operation_xyz
x,y,z
-y,x-y,z
-x+y,-x,z
x-y,-y,-z
-x,-x+y,-z
y,x,-z
-x,-y,-z
y,-x+y,-z
x-y,x,-z
-x+y,y,z
x,x-y,z
-y,-x,z
loop_
_atom_site_type_symbol
_atom_site_label
_atom_site_fract_x
_atom_site_fract_y
_atom_site_fract_z
Si Si1 0.514492 0.666633 0.784472
Si Si2 0.079396 0.349298 0.136531
Si Si3 0.813156 0.812809 0.753325
Si Si4 0.340067 0.261872 0.367131
Si Si5 0.665816 0.144718 0.513306
Si Si6 0.518760 0.665713 0.288700
Si Si7 0.479999 0.146234 0.017102
O O1 0.481242 0.740621 0.783798
O O2 0.431822 0.568179 0.762746
O O3 0.592980 0.700762 0.714840
O O4 0.544487 0.665107 0.882676
O O5 0.174122 0.348244 0.138890
O O6 0.006682 0.247107 0.162832
O O7 0.084926 0.413199 0.215420
O O8 0.084942 0.400423 0.048765
O O9 0.912479 0.824958 0.751458
O O10 0.756124 0.755997 0.668929
O O11 0.815898 0.907949 0.755017
O O12 0.322413 0.161207 0.386629
O O13 0.400605 0.319166 0.447162
O O14 0.572782 0.145564 0.495982
O O15 0.752742 0.247259 0.504578
O O16 0.663404 0.116227 0.612889
O O17 0.509313 0.754657 0.280972
O O18 0.422595 0.577406 0.275085
O O19 0.571550 0.143100 0.998854
O O20 0.498616 0.249308 0.007015
#
# Coordination Sequence:
#
# PCOD9578721 Si02
#       7
#    12  12  12  12  12  12  12
#     4   9  16  27  46  75 113 156 195 221 239 271
#     4   9  18  32  51  76 105 137 173 217 271 320
#     4  10  21  40  65  86 100 120 160 218 285 352
#     4   9  18  32  51  76 105 137 173 217 271 320
#     4   9  16  27  46  75 113 156 195 221 239 271
#     4   9  16  27  46  75 113 156 195 221 239 271
#     4   9  16  27  46  75 113 156 195 221 239 271
#
# _framework density 21.582777
#
# number of rings (size 3 to 8) (size 9 to 14) (size 15 to 20)
#    0.000    2.857    0.000    1.571    0.000    2.286 
#    0.000    7.143    0.000    8.571    0.000    0.000 
#    0.000   18.286    0.000    6.857    0.000    8.000 
#
# Total GULP energy -469248.811656 kJ/mol
# GULP energy per Si atom -5586.295377 kJ/mol
# Density = 2.153365 g / cm^3
# Si number density = 21.582777 Si / 1000 Ang^3
#
#
#
# Elastic Constant Matrix: (Units=GPa)
#
#
# Indices 1 2 3 4 5 6 
#
# 1 88.3350 34.8667 43.7589 4.8085 0.0000 0.0000
# 2 34.8667 88.3350 43.7589 -4.8085 0.0000 0.0000
# 3 43.7589 43.7589 85.3771 0.0000 0.0000 0.0000
# 4 4.8085 -4.8085 0.0000 25.0727 0.0000 0.0000
# 5 0.0000 0.0000 0.0000 0.0000 25.0727 4.8085
# 6 0.0000 0.0000 0.0000 0.0000 4.8085 26.7341
#
#
#
# Elastic Compliance Matrix: (Units=1/GPa)
#
#
# Indices 1 2 3 4 5 6 
#
# 1 0.016067 -0.003303 -0.006542 -0.003715 0.000000 0.000000
# 2 -0.003303 0.016067 -0.006542 0.003715 0.000000 0.000000
# 3 -0.006542 -0.006542 0.018419 0.000000 0.000000 0.000000
# 4 -0.003715 0.003715 0.000000 0.041309 0.000000 0.000000
# 5 0.000000 0.000000 0.000000 0.000000 0.041309 -0.007430
# 6 0.000000 0.000000 0.000000 0.000000 -0.007430 0.038742
#
#
# Mechanical properties :
#
#
# Convention : Reuss Voigt Hill
#
# Bulk Modulus (GPa) = 56.24709 56.31290 56.27999
# Shear Modulus (GPa) = 23.74005 24.68673 24.21339
#
# Velocity S-wave (km/s) = 3.32015 3.38570 3.35309
# Velocity P-wave (km/s) = 6.38871 6.43679 6.41279
#
# Compressibility (1/GPa) = 0.01777870
#
# Stress axis : x y z
#
# Youngs Moduli (GPa) = 62.23775 62.23775 54.29240
#
# Poissons Ratio (x) = 0.20560 0.35518
# Poissons Ratio (y) = 0.20560 0.35518
# Poissons Ratio (z) = 0.40716 0.40716
#
# Static dielectric constant tensor:
#      x y z
#    x 1.782420 0.000000 0.000000 
#    y 0.000000 1.782420 0.000000 
#    z 0.000000 0.000000 1.788460 
# 
# From -- ./inp_files/3628.got.cif
#   From: 2010.05.17/outbox.cif.g08.bks.cpg/sg164_2_cif.got.tgz:3628.got - 2010.05.20 10:58:56.
