data_PCOD9578172
_publ_section_title
;
Structure prediction by ZEFSAII (Michael W. Deem and Ramdas Pophale) SiO2 
 PCOD9578172
Probable space group: P -3 1 C
;
_chemical_formula_sum "Si O2"
_cell_formula_units_Z 46
_cell_length_a 13.427073
_cell_length_b 13.427073
_cell_length_c 15.215403
_cell_angle_alpha 90.000000
_cell_angle_beta 90.000000
_cell_angle_gamma 120.000000
_cell_volume 2375.619008
_symmetry_space_group_name_H-M "P -3 1 C"
_symmetry_group_IT_number 163
_symmetry_cell_setting 'hexagonal'
loop_
_space_group_symop_operation_xyz
x,y,z
-y,x-y,z
-x+y,-x,z
-y,-x,1/2-z
-x+y,y,1/2-z
x,x-y,1/2-z
-x,-y,-z
y,-x+y,-z
x-y,x,-z
y,x,1/2+z
x-y,-y,1/2+z
-x,-x+y,1/2+z
loop_
_atom_site_type_symbol
_atom_site_label
_atom_site_fract_x
_atom_site_fract_y
_atom_site_fract_z
Si Si1 0.968124 0.553887 0.416175
Si Si2 0.590355 0.180710 0.250000
Si Si3 0.072922 0.262291 0.489524
Si Si4 0.422768 0.224995 0.852328
Si Si5 0.666668 0.333335 0.642672
O O1 0.895268 0.462040 0.339015
O O2 0.913038 0.630756 0.451468
O O3 0.000000 0.500000 0.500000
O O4 0.085486 0.654861 0.374230
O O5 0.728688 0.271312 0.250000
O O6 0.160532 0.218393 0.515362
O O7 0.117524 0.316185 0.394496
O O8 0.419365 0.209683 0.750000
O O9 0.541664 0.239156 0.887791
O O10 0.666668 0.333334 0.750000
#
# Coordination Sequence:
#
# PCOD9578172 Si02
#       5
#    12   6  12  12   4
#     4  11  25  42  68  98 134 179 226 281 351 422
#     4  10  28  44  66  98 140 182 224 284 356 426
#     4  10  23  42  66  94 130 177 225 284 342 410
#     4  10  22  37  64  94 126 171 224 277 337 407
#     4   9  18  33  54  90 123 157 206 277 327 393
#
# _framework density 19.363374
#
# number of rings (size 3 to 8) (size 9 to 14) (size 15 to 20)
#    0.261    1.565    0.000    1.826   16.435    0.000 
#    4.696    3.913    0.000    0.000    0.000    0.000 
#    0.000    0.000    0.000    0.000    0.000    0.000 
#
# Total GULP energy -256260.740363 kJ/mol
# GULP energy per Si atom -5570.885660 kJ/mol
# Density = 1.931930 g / cm^3
# Si number density = 19.363374 Si / 1000 Ang^3
#
#
#
# Elastic Constant Matrix: (Units=GPa)
#
#
# Indices 1 2 3 4 5 6 
#
# 1 107.9023 53.8729 71.6925 0.0001 -5.3841 0.0004
# 2 53.8729 107.9030 71.6924 0.0000 5.3840 0.0004
# 3 71.6925 71.6924 129.8987 -0.0001 -0.0002 0.0001
# 4 0.0001 0.0000 -0.0001 29.5274 0.0001 5.3840
# 5 -5.3841 5.3840 -0.0002 0.0001 29.5273 0.0000
# 6 0.0004 0.0004 0.0001 5.3840 0.0000 27.0148
#
#
#
# Elastic Compliance Matrix: (Units=1/GPa)
#
#
# Indices 1 2 3 4 5 6 
#
# 1 0.015654 -0.003553 -0.006679 0.000000 0.003502 0.000000
# 2 -0.003553 0.015653 -0.006678 0.000000 -0.003502 0.000000
# 3 -0.006679 -0.006678 0.015070 0.000000 0.000000 0.000000
# 4 0.000000 0.000000 0.000000 0.035144 0.000000 -0.007004
# 5 0.003502 -0.003502 0.000000 0.000000 0.035144 0.000000
# 6 0.000000 0.000000 0.000000 -0.007004 0.000000 0.038413
#
#
# Mechanical properties :
#
#
# Convention : Reuss Voigt Hill
#
# Bulk Modulus (GPa) = 79.63330 82.24661 80.93996
# Shear Modulus (GPa) = 25.89557 27.11032 26.50294
#
# Velocity S-wave (km/s) = 3.66094 3.74583 3.70363
# Velocity P-wave (km/s) = 7.68668 7.82789 7.75761
#
# Compressibility (1/GPa) = 0.01255756
#
# Stress axis : x y z
#
# Youngs Moduli (GPa) = 63.88320 63.88394 66.35632
#
# Poissons Ratio (x) = 0.22697 0.44316
# Poissons Ratio (y) = 0.22696 0.44316
# Poissons Ratio (z) = 0.42665 0.42664
#
# Static dielectric constant tensor:
#      x y z
#    x 1.699680 0.000000 0.000000 
#    y 0.000000 1.699680 0.000000 
#    z 0.000000 0.000000 1.648980 
# 
# From -- ./inp_files/1600.got.cif
#   From: 2010.05.17/outbox.cif.g08.bks.cpg/sg163_1_cif.got.tgz:1600.got - 2010.05.20 10:56:03.
