data_PCOD9578030
_publ_section_title
;
Structure prediction by ZEFSAII (Michael W. Deem and Ramdas Pophale) SiO2 
 PCOD9578030
Probable space group: P -3 1 C
;
_chemical_formula_sum "Si O2"
_cell_formula_units_Z 36
_cell_length_a 18.291969
_cell_length_b 18.291969
_cell_length_c 5.805053
_cell_angle_alpha 90.000000
_cell_angle_beta 90.000000
_cell_angle_gamma 120.000000
_cell_volume 1682.122943
_symmetry_space_group_name_H-M "P -3 1 C"
_symmetry_group_IT_number 163
_symmetry_cell_setting 'hexagonal'
loop_
_space_group_symop_operation_xyz
x,y,z
-y,x-y,z
-x+y,-x,z
-y,-x,1/2-z
-x+y,y,1/2-z
x,x-y,1/2-z
-x,-y,-z
y,-x+y,-z
x-y,x,-z
y,x,1/2+z
x-y,-y,1/2+z
-x,-x+y,1/2+z
loop_
_atom_site_type_symbol
_atom_site_label
_atom_site_fract_x
_atom_site_fract_y
_atom_site_fract_z
Si Si1 0.047005 0.523503 0.750000
Si Si2 0.187690 0.375380 0.250000
Si Si3 0.412881 0.126540 0.140425
Si Si4 0.985360 0.215339 0.604499
O O1 0.099307 0.624758 0.752416
O O2 0.000000 0.500000 0.500000
O O3 0.154058 0.430184 0.373385
O O4 0.199260 0.308649 0.406382
O O5 0.421088 0.210544 0.250000
O O6 0.316080 0.049505 0.128114
O O7 0.004851 0.187420 0.357725
#
# Coordination Sequence:
#
# PCOD9578030 Si02
#       4
#     6   6  12  12
#     4  12  28  46  70  99 142 186 238 294 361 434
#     4  10  20  36  64  91 136 168 216 286 341 420
#     4  11  23  41  65  94 131 177 228 290 348 419
#     4  10  19  33  55  89 121 160 203 261 329 390
#
# _framework density 21.401524999999999
#
# number of rings (size 3 to 8) (size 9 to 14) (size 15 to 20)
#    0.000    1.333    3.333    4.000    4.667    0.000 
#    1.000    0.000    0.000    2.000    0.000    0.000 
#    1.667    6.000    0.000    0.000    0.000    0.000 
#
# Total GULP energy -200439.686068 kJ/mol
# GULP energy per Si atom -5567.769057 kJ/mol
# Density = 2.135281 g / cm^3
# Si number density = 21.401525 Si / 1000 Ang^3
#
#
#
# Elastic Constant Matrix: (Units=GPa)
#
#
# Indices 1 2 3 4 5 6 
#
# 1 97.5002 46.5831 31.8390 -0.0001 5.8977 0.0000
# 2 46.5831 97.5002 31.8390 0.0001 -5.8977 0.0000
# 3 31.8390 31.8390 176.5150 0.0000 0.0000 0.0000
# 4 -0.0001 0.0001 0.0000 27.0474 0.0000 -5.8977
# 5 5.8977 -5.8977 0.0000 0.0000 27.0474 -0.0001
# 6 0.0000 0.0000 0.0000 -5.8977 -0.0001 25.4585
#
#
#
# Elastic Compliance Matrix: (Units=1/GPa)
#
#
# Indices 1 2 3 4 5 6 
#
# 1 0.014113 -0.006571 -0.001360 0.000000 -0.004510 0.000000
# 2 -0.006571 0.014113 -0.001360 0.000000 0.004510 0.000000
# 3 -0.001360 -0.001360 0.006156 0.000000 0.000000 0.000000
# 4 0.000000 0.000000 0.000000 0.038939 0.000000 0.009021
# 5 -0.004510 0.004510 0.000000 0.000000 0.038939 0.000000
# 6 0.000000 0.000000 0.000000 0.009021 0.000000 0.041369
#
#
# Mechanical properties :
#
#
# Convention : Reuss Voigt Hill
#
# Bulk Modulus (GPa) = 63.29939 65.78194 64.54066
# Shear Modulus (GPa) = 28.17219 33.32762 30.74990
#
# Velocity S-wave (km/s) = 3.63211 3.95049 3.79464
# Velocity P-wave (km/s) = 6.87247 7.18417 7.03005
#
# Compressibility (1/GPa) = 0.01579794
#
# Stress axis : x y z
#
# Youngs Moduli (GPa) = 70.85598 70.85598 162.44363
#
# Poissons Ratio (x) = 0.46563 0.22098
# Poissons Ratio (y) = 0.46563 0.22098
# Poissons Ratio (z) = 0.09639 0.09639
#
# Static dielectric constant tensor:
#      x y z
#    x 1.779800 0.000000 0.000000 
#    y 0.000000 1.779800 0.000000 
#    z 0.000000 0.000000 2.006040 
# 
# From -- ./inp_files/174.got.cif
#   From: 2010.05.17/outbox.cif.g08.bks.cpg/sg163_1_cif.got.tgz:174.got - 2010.05.20 10:56:03.
