data_PCOD9578958
_publ_section_title
;
Structure prediction by ZEFSAII (Michael W. Deem and Ramdas Pophale) SiO2 
 PCOD9578958
Probable space group: P -3 C 1
;
_chemical_formula_sum "Si O2"
_cell_formula_units_Z 52
_cell_length_a 12.828021
_cell_length_b 12.828021
_cell_length_c 15.226624
_cell_angle_alpha 90.000000
_cell_angle_beta 90.000000
_cell_angle_gamma 120.000000
_cell_volume 2169.969250
_symmetry_space_group_name_H-M "P -3 C 1"
_symmetry_group_IT_number 165
_symmetry_cell_setting 'hexagonal'
loop_
_space_group_symop_operation_xyz
x,y,z
-y,x-y,z
-x+y,-x,z
x-y,-y,1/2-z
-x,-x+y,1/2-z
y,x,1/2-z
-x,-y,-z
y,-x+y,-z
x-y,x,-z
-x+y,y,1/2+z
x,x-y,1/2+z
-y,-x,1/2+z
loop_
_atom_site_type_symbol
_atom_site_label
_atom_site_fract_x
_atom_site_fract_y
_atom_site_fract_z
Si Si1 0.255317 0.421344 0.066243
Si Si2 0.988228 0.217915 0.349839
Si Si3 0.260818 0.376136 0.410462
Si Si4 0.000000 0.000000 0.106314
Si Si5 0.200647 0.534763 0.748444
O O1 0.314626 0.335971 0.053522
O O2 0.331368 0.508128 0.145420
O O3 0.120190 0.343148 0.104612
O O4 0.222110 0.466239 0.977006
O O5 0.120041 0.280744 0.393307
O O6 0.000000 0.257713 0.250000
O O7 0.944558 0.077082 0.355972
O O8 0.321398 0.437185 0.318144
O O9 0.000000 0.000000 0.000000
O O10 0.333867 0.553399 0.766038
#
# Coordination Sequence:
#
# PCOD9578958 Si02
#       5
#    12  12  12   4  12
#     4  12  24  43  71 110 144 178 225 282 357 438
#     4  12  22  36  62  96 151 188 213 266 351 438
#     4  12  24  43  71 110 144 178 225 282 357 438
#     4  12  22  32  52  96 151 197 208 262 356 436
#     4  10  27  53  69  87 136 186 246 304 338 376
#
# _framework density 23.963471999999999
#
# number of rings (size 3 to 8) (size 9 to 14) (size 15 to 20)
#    0.462    0.000    6.923    2.769    0.000    1.846 
#    8.308    2.308    0.000    0.000    0.000    0.000 
#    0.000    0.000    0.000    0.000    0.000    0.000 
#
# Total GULP energy -290196.057007 kJ/mol
# GULP energy per Si atom -5580.693404 kJ/mol
# Density = 2.390893 g / cm^3
# Si number density = 23.963472 Si / 1000 Ang^3
#
#
#
# Elastic Constant Matrix: (Units=GPa)
#
#
# Indices 1 2 3 4 5 6 
#
# 1 38.5065 -2.8712 11.4387 -6.9444 0.0000 0.0000
# 2 -2.8712 38.5065 11.4387 6.9444 0.0000 0.0000
# 3 11.4387 11.4387 107.8953 0.0000 0.0000 0.0000
# 4 -6.9444 6.9444 0.0000 28.4317 0.0000 0.0000
# 5 0.0000 0.0000 0.0000 0.0000 28.4317 -6.9444
# 6 0.0000 0.0000 0.0000 0.0000 -6.9444 20.6888
#
#
#
# Elastic Compliance Matrix: (Units=1/GPa)
#
#
# Indices 1 2 3 4 5 6 
#
# 1 0.028219 0.001893 -0.003192 0.006430 0.000000 0.000000
# 2 0.001893 0.028219 -0.003192 -0.006430 0.000000 0.000000
# 3 -0.003192 -0.003192 0.009945 0.000000 0.000000 0.000000
# 4 0.006430 -0.006430 0.000000 0.038313 0.000000 0.000000
# 5 0.000000 0.000000 0.000000 0.000000 0.038313 0.012860
# 6 0.000000 0.000000 0.000000 0.000000 0.012860 0.052652
#
#
# Mechanical properties :
#
#
# Convention : Reuss Voigt Hill
#
# Bulk Modulus (GPa) = 17.42196 24.99117 21.20656
# Shear Modulus (GPa) = 22.34367 26.50393 24.42380
#
# Velocity S-wave (km/s) = 3.05684 3.32929 3.19597
# Velocity P-wave (km/s) = 4.44354 5.02298 4.74212
#
# Compressibility (1/GPa) = 0.05739883
#
# Stress axis : x y z
#
# Youngs Moduli (GPa) = 35.43750 35.43750 100.55183
#
# Poissons Ratio (x) = -0.06708 0.32099
# Poissons Ratio (y) = -0.06708 0.32099
# Poissons Ratio (z) = 0.11313 0.11313
#
# Static dielectric constant tensor:
#      x y z
#    x 1.923150 0.000000 0.000000 
#    y 0.000000 1.923150 0.000000 
#    z 0.000000 0.000000 2.036800 
# 
# From -- ./inp_files/1588.got.cif
#   From: 2010.05.17/outbox.cif.g08.bks.cpg/sg165_1_cif.got.tgz:1588.got - 2010.05.20 11:02:39.
