data_PCOD9578369
_publ_section_title
;
Structure prediction by ZEFSAII (Michael W. Deem and Ramdas Pophale) SiO2 
 PCOD9578369
Probable space group: P -3 M 1
;
_chemical_formula_sum "Si O2"
_cell_formula_units_Z 72
_cell_length_a 18.544862
_cell_length_b 18.544862
_cell_length_c 17.088724
_cell_angle_alpha 90.000000
_cell_angle_beta 90.000000
_cell_angle_gamma 120.000000
_cell_volume 5089.644853
_symmetry_space_group_name_H-M "P -3 M 1"
_symmetry_group_IT_number 164
_symmetry_cell_setting 'hexagonal'
loop_
_space_group_symop_operation_xyz
x,y,z
-y,x-y,z
-x+y,-x,z
x-y,-y,-z
-x,-x+y,-z
y,x,-z
-x,-y,-z
y,-x+y,-z
x-y,x,-z
-x+y,y,z
x,x-y,z
-y,-x,z
loop_
_atom_site_type_symbol
_atom_site_label
_atom_site_fract_x
_atom_site_fract_y
_atom_site_fract_z
Si Si1 0.668417 0.503337 0.183624
Si Si2 0.640647 0.739036 0.500000
Si Si3 0.368320 0.900870 0.643178
Si Si4 0.668417 0.503337 0.816376
Si Si5 0.412395 0.000000 0.090115
Si Si6 0.631680 0.532552 0.643179
O O1 0.752809 0.505617 0.161168
O O2 0.588531 0.411470 0.171126
O O3 0.668964 0.522914 0.275781
O O4 0.651327 0.567665 0.135349
O O5 0.708775 0.708775 0.500000
O O6 0.674147 0.837074 0.500000
O O7 0.582064 0.697304 0.575644
O O8 0.582065 0.697303 0.424355
O O9 0.440788 0.881576 0.616948
O O10 0.416126 0.999999 0.660055
O O11 0.752809 0.505617 0.838832
O O12 0.588531 0.411470 0.828873
O O13 0.651327 0.567665 0.864652
O O14 0.668965 0.522916 0.724219
O O15 0.500000 0.000000 0.091342
O O16 0.389062 0.000000 0.000000
O O17 0.559212 0.440789 0.616951
#
# Coordination Sequence:
#
# PCOD9578369 Si02
#       6
#    12  12  12  12  12  12
#     4  10  18  29  45  65  88 114 147 183 218 255
#     4  10  19  29  43  64  89 117 150 184 217 253
#     4   9  16  28  45  64  86 115 146 175 210 256
#     4  10  18  29  45  65  88 114 147 183 218 255
#     4   9  18  32  46  59  81 113 144 177 220 265
#     4   9  16  28  45  64  86 115 146 175 210 256
#
# _framework density 14.146369999999999
#
# number of rings (size 3 to 8) (size 9 to 14) (size 15 to 20)
#    0.000    2.500    1.667    1.833    0.000    2.667 
#    0.000    0.000    0.000    6.833    0.000    0.000 
#    0.000    0.000    0.000    0.500    0.000    2.167 
#
# Total GULP energy -401221.567459 kJ/mol
# GULP energy per Si atom -5572.521770 kJ/mol
# Density = 1.411417 g / cm^3
# Si number density = 14.146370 Si / 1000 Ang^3
#
#
#
# Elastic Constant Matrix: (Units=GPa)
#
#
# Indices 1 2 3 4 5 6 
#
# 1 91.0853 46.1962 44.6938 0.0001 0.0000 0.0000
# 2 46.1962 91.0853 44.6938 -0.0001 0.0000 0.0000
# 3 44.6938 44.6938 70.5659 0.0000 0.0000 0.0000
# 4 0.0001 -0.0001 0.0000 5.1872 0.0000 0.0000
# 5 0.0000 0.0000 0.0000 0.0000 5.1872 0.0001
# 6 0.0000 0.0000 0.0000 0.0000 0.0001 22.4446
#
#
#
# Elastic Compliance Matrix: (Units=1/GPa)
#
#
# Indices 1 2 3 4 5 6 
#
# 1 0.017337 -0.004940 -0.007852 -0.000001 0.000000 0.000000
# 2 -0.004940 0.017337 -0.007852 0.000001 0.000000 0.000000
# 3 -0.007852 -0.007852 0.024117 0.000000 0.000000 0.000000
# 4 -0.000001 0.000001 0.000000 0.192784 0.000000 0.000000
# 5 0.000000 0.000000 0.000000 0.000000 0.192784 -0.000001
# 6 0.000000 0.000000 0.000000 0.000000 -0.000001 0.044554
#
#
# Mechanical properties :
#
#
# Convention : Reuss Voigt Hill
#
# Bulk Modulus (GPa) = 57.12994 58.21154 57.67074
# Shear Modulus (GPa) = 9.32775 14.37395 11.85085
#
# Velocity S-wave (km/s) = 2.57061 3.19107 2.89750
# Velocity P-wave (km/s) = 7.02021 7.40378 7.21455
#
# Compressibility (1/GPa) = 0.01750396
#
# Stress axis : x y z
#
# Youngs Moduli (GPa) = 57.68040 57.68040 41.46452
#
# Poissons Ratio (x) = 0.28495 0.32556
# Poissons Ratio (y) = 0.28495 0.32556
# Poissons Ratio (z) = 0.45288 0.45288
#
# Static dielectric constant tensor:
#      x y z
#    x 1.453130 0.000000 0.000000 
#    y 0.000000 1.453130 0.000000 
#    z 0.000000 0.000000 1.471490 
# 
# From -- ./inp_files/4064.got.cif
#   From: 2010.05.17/outbox.cif.g08.bks.cpg/sg164_3_cif.got.tgz:4064.got - 2010.05.20 10:58:56.
