data_PCOD9578418
_publ_section_title
;
Structure prediction by ZEFSAII (Michael W. Deem and Ramdas Pophale) SiO2 
 PCOD9578418
Probable space group: P -3 M 1
;
_chemical_formula_sum "Si O2"
_cell_formula_units_Z 84
_cell_length_a 17.988376
_cell_length_b 17.988376
_cell_length_c 20.766855
_cell_angle_alpha 90.000000
_cell_angle_beta 90.000000
_cell_angle_gamma 120.000000
_cell_volume 5819.494684
_symmetry_space_group_name_H-M "P -3 M 1"
_symmetry_group_IT_number 164
_symmetry_cell_setting 'hexagonal'
loop_
_space_group_symop_operation_xyz
x,y,z
-y,x-y,z
-x+y,-x,z
x-y,-y,-z
-x,-x+y,-z
y,x,-z
-x,-y,-z
y,-x+y,-z
x-y,x,-z
-x+y,y,z
x,x-y,z
-y,-x,z
loop_
_atom_site_type_symbol
_atom_site_label
_atom_site_fract_x
_atom_site_fract_y
_atom_site_fract_z
Si Si1 0.981581 0.408996 0.075942
Si Si2 0.161282 0.494958 0.292868
Si Si3 0.833058 0.500737 0.862451
Si Si4 0.821929 0.000215 0.193526
Si Si5 0.758815 0.061207 0.688548
Si Si6 0.769388 0.055994 0.065102
Si Si7 0.000473 0.176434 0.574596
O O1 0.949789 0.474895 0.097127
O O2 0.926939 0.307582 0.085390
O O3 0.073108 0.439986 0.109449
O O4 0.000000 0.423084 0.000000
O O5 0.253198 0.506395 0.313976
O O6 0.152010 0.576005 0.312999
O O7 0.162586 0.493898 0.214865
O O8 0.085143 0.401055 0.312601
O O9 0.761703 0.523407 0.884807
O O10 0.806281 0.403141 0.880073
O O11 0.833370 0.916685 0.195692
O O12 0.752766 0.987540 0.248411
O O13 0.787078 0.008485 0.123972
O O14 0.912853 0.087147 0.204676
O O15 0.846150 0.153851 0.690834
O O16 0.765119 0.013936 0.625212
O O17 0.855923 0.144078 0.053091
O O18 0.741960 0.000000 0.000000
O O19 0.088536 0.177072 0.587384
O O20 0.000000 0.200799 0.500000
O O21 0.920266 0.079735 0.582292
#
# Coordination Sequence:
#
# PCOD9578418 Si02
#       7
#    12  12  12  12  12  12  12
#     4   9  18  30  42  57  77 101 128 160 201 247
#     4   9  16  26  41  61  84 108 133 163 201 246
#     4   9  16  26  42  63  84 104 127 159 200 246
#     4  10  19  30  43  60  84 113 144 176 209 245
#     4   9  17  27  40  60  84 110 139 170 206 247
#     4  10  20  32  46  62  80 106 140 175 208 243
#     4   9  16  26  41  61  85 113 144 176 209 246
#
# _framework density 14.434241999999999
#
# number of rings (size 3 to 8) (size 9 to 14) (size 15 to 20)
#    0.000    2.714    0.000    2.286    0.000    5.714 
#    0.000    1.429    0.000    3.000    0.000    0.000 
#    0.000    0.000    0.000    3.429    0.000    0.000 
#
# Total GULP energy -467718.602306 kJ/mol
# GULP energy per Si atom -5568.078599 kJ/mol
# Density = 1.440139 g / cm^3
# Si number density = 14.434242 Si / 1000 Ang^3
#
#
#
# Elastic Constant Matrix: (Units=GPa)
#
#
# Indices 1 2 3 4 5 6 
#
# 1 82.6167 49.8220 40.4122 -0.4367 0.0000 0.0000
# 2 49.8220 82.6167 40.4122 0.4367 0.0000 0.0000
# 3 40.4122 40.4122 54.4942 0.0000 0.0000 0.0000
# 4 -0.4367 0.4367 0.0000 12.7239 0.0000 0.0000
# 5 0.0000 0.0000 0.0000 0.0000 12.7239 -0.4367
# 6 0.0000 0.0000 0.0000 0.0000 -0.4367 16.3973
#
#
#
# Elastic Compliance Matrix: (Units=1/GPa)
#
#
# Indices 1 2 3 4 5 6 
#
# 1 0.022157 -0.008364 -0.010229 0.001048 0.000000 0.000000
# 2 -0.008364 0.022157 -0.010229 -0.001048 0.000000 0.000000
# 3 -0.010229 -0.010229 0.033521 0.000000 0.000000 0.000000
# 4 0.001048 -0.001048 0.000000 0.078664 0.000000 0.000000
# 5 0.000000 0.000000 0.000000 0.000000 0.078664 0.002095
# 6 0.000000 0.000000 0.000000 0.000000 0.002095 0.061041
#
#
# Mechanical properties :
#
#
# Convention : Reuss Voigt Hill
#
# Bulk Modulus (GPa) = 49.52285 53.44670 51.48477
# Shear Modulus (GPa) = 13.86663 14.30779 14.08721
#
# Velocity S-wave (km/s) = 3.10284 3.15181 3.12742
# Velocity P-wave (km/s) = 6.87172 7.09601 6.98477
#
# Compressibility (1/GPa) = 0.02019270
#
# Stress axis : x y z
#
# Youngs Moduli (GPa) = 45.13281 45.13281 29.83163
#
# Poissons Ratio (x) = 0.37748 0.30514
# Poissons Ratio (y) = 0.37748 0.30514
# Poissons Ratio (z) = 0.46165 0.46165
#
# Static dielectric constant tensor:
#      x y z
#    x 1.486130 0.000000 0.000000 
#    y 0.000000 1.486130 0.000000 
#    z 0.000000 0.000000 1.473930 
# 
# From -- ./inp_files/4684.got.cif
#   From: 2010.05.17/outbox.cif.g08.bks.cpg/sg164_3_cif.got.tgz:4684.got - 2010.05.20 10:58:56.
