data_PCOD9578308
_publ_section_title
;
Structure prediction by ZEFSAII (Michael W. Deem and Ramdas Pophale) SiO2 
 PCOD9578308
Probable space group: P -3 1 C
;
_chemical_formula_sum "Si O2"
_cell_formula_units_Z 74
_cell_length_a 15.000000
_cell_length_b 15.000000
_cell_length_c 21.000000
_cell_angle_alpha 90.000000
_cell_angle_beta 90.000000
_cell_angle_gamma 120.000000
_cell_volume 4091.970033
_symmetry_space_group_name_H-M "P -3 1 C"
_symmetry_group_IT_number 163
_symmetry_cell_setting 'hexagonal'
loop_
_space_group_symop_operation_xyz
x,y,z
-y,x-y,z
-x+y,-x,z
-y,-x,1/2-z
-x+y,y,1/2-z
x,x-y,1/2-z
-x,-y,-z
y,-x+y,-z
x-y,x,-z
y,x,1/2+z
x-y,-y,1/2+z
-x,-x+y,1/2+z
loop_
_atom_site_type_symbol
_atom_site_label
_atom_site_fract_x
_atom_site_fract_y
_atom_site_fract_z
Si Si1 0.495232 0.990464 0.750000
Si Si2 0.666668 0.333335 0.914521
Si Si3 0.373579 0.322881 0.147748
Si Si4 0.796717 0.997386 0.751640
Si Si5 0.439095 0.262496 0.429806
Si Si6 0.330423 0.966652 0.147049
Si Si7 0.742037 0.565068 0.915553
Si Si8 0.333334 0.666667 0.567745
O O1 0.400872 0.937050 0.802303
O O2 0.593402 0.043530 0.800272
O O3 0.683043 0.444245 0.896056
O O4 0.666668 0.333334 0.991155
O O5 0.280141 0.246476 0.192759
O O6 0.401424 0.251160 0.103409
O O7 0.325519 0.384445 0.109594
O O8 0.840281 0.920141 0.750000
O O9 0.731645 0.989960 0.813434
O O10 0.886418 0.113583 0.750000
O O11 0.391094 0.331494 0.403709
O O12 0.426184 0.250070 0.506933
O O13 0.560268 0.325300 0.412885
O O14 0.248332 0.857140 0.114762
#
# Coordination Sequence:
#
# PCOD9578308 Si02
#       8
#     6   4  12  12  12  12  12   4
#     4  10  24  36  60  88 118 164 206 262 312 362
#     4   9  21  36  57  85 116 160 204 249 310 368
#     4  11  22  39  61  91 125 161 211 259 317 382
#     4  11  21  39  61  84 118 158 205 257 307 369
#     4  11  22  40  63  91 127 166 209 261 321 388
#     4  11  22  39  61  91 125 161 211 259 317 382
#     4  11  22  40  63  91 127 166 209 261 321 388
#     4   9  21  36  57  85 116 160 204 249 310 368
#
# _framework density 18.084199000000002
#
# number of rings (size 3 to 8) (size 9 to 14) (size 15 to 20)
#    0.000    1.297    3.243    3.081    0.000    0.000 
#    0.000    9.730    0.000    0.000    0.000    4.541 
#    0.000    0.000    0.000    0.000    0.000    0.000 
#
# Total GULP energy -412111.042190 kJ/mol
# GULP energy per Si atom -5569.068138 kJ/mol
# Density = 1.804304 g / cm^3
# Si number density = 18.084199 Si / 1000 Ang^3
#
#
#
# Elastic Constant Matrix: (Units=GPa)
#
#
# Indices 1 2 3 4 5 6 
#
# 1 77.6441 4.7492 19.3737 -0.0001 -1.1521 -0.0008
# 2 4.7492 77.6419 19.3731 -0.0001 1.1520 -0.0011
# 3 19.3737 19.3731 95.9216 -0.0001 0.0000 -0.0005
# 4 -0.0001 -0.0001 -0.0001 24.2384 -0.0001 1.1521
# 5 -1.1521 1.1520 0.0000 -0.0001 24.2385 0.0001
# 6 -0.0008 -0.0011 -0.0005 1.1521 0.0001 36.4467
#
#
#
# Elastic Compliance Matrix: (Units=1/GPa)
#
#
# Indices 1 2 3 4 5 6 
#
# 1 0.013575 -0.000164 -0.002709 0.000000 0.000653 0.000000
# 2 -0.000164 0.013575 -0.002709 0.000000 -0.000653 0.000000
# 3 -0.002709 -0.002709 0.011519 0.000000 0.000000 0.000000
# 4 0.000000 0.000000 0.000000 0.041319 0.000000 -0.001306
# 5 0.000653 -0.000653 0.000000 0.000000 0.041319 0.000000
# 6 0.000000 0.000000 0.000000 -0.001306 0.000000 0.027479
#
#
# Mechanical properties :
#
#
# Convention : Reuss Voigt Hill
#
# Bulk Modulus (GPa) = 36.35495 37.57775 36.96635
# Shear Modulus (GPa) = 29.56528 30.83216 30.19872
#
# Velocity S-wave (km/s) = 4.04774 4.13355 4.09087
# Velocity P-wave (km/s) = 6.48015 6.60349 6.54211
#
# Compressibility (1/GPa) = 0.02750657
#
# Stress axis : x y z
#
# Youngs Moduli (GPa) = 73.66553 73.66362 86.81080
#
# Poissons Ratio (x) = 0.01209 0.23514
# Poissons Ratio (y) = 0.01210 0.23514
# Poissons Ratio (z) = 0.19953 0.19953
#
# Static dielectric constant tensor:
#      x y z
#    x 1.629540 0.000000 0.000000 
#    y 0.000000 1.629540 0.000000 
#    z 0.000000 0.000000 1.624520 
# 
# From -- ./inp_files/3656.got.cif
#   From: 2010.05.17/outbox.ucp.g08.bks.cvg/sg163_2_cif.got.tgz:3656.got - 2010.06.11 15:15:55.
