data_PCOD9578044
_publ_section_title
;
Structure prediction by ZEFSAII (Michael W. Deem and Ramdas Pophale) SiO2 
 PCOD9578044
Probable space group: P -3 1 C
;
_chemical_formula_sum "Si O2"
_cell_formula_units_Z 72
_cell_length_a 20.720159
_cell_length_b 20.720159
_cell_length_c 10.632534
_cell_angle_alpha 90.000000
_cell_angle_beta 90.000000
_cell_angle_gamma 120.000000
_cell_volume 3953.243625
_symmetry_space_group_name_H-M "P -3 1 C"
_symmetry_group_IT_number 163
_symmetry_cell_setting 'hexagonal'
loop_
_space_group_symop_operation_xyz
x,y,z
-y,x-y,z
-x+y,-x,z
-y,-x,1/2-z
-x+y,y,1/2-z
x,x-y,1/2-z
-x,-y,-z
y,-x+y,-z
x-y,x,-z
y,x,1/2+z
x-y,-y,1/2+z
-x,-x+y,1/2+z
loop_
_atom_site_type_symbol
_atom_site_label
_atom_site_fract_x
_atom_site_fract_y
_atom_site_fract_z
Si Si1 0.199589 0.242311 0.749999
Si Si2 0.154517 0.154516 0.999999
Si Si3 0.283933 0.870080 0.749999
Si Si4 0.465984 0.087005 0.497570
Si Si5 0.912995 0.534017 0.497573
Si Si6 0.510998 0.332941 0.750001
O O1 0.121312 0.242624 0.750000
O O2 0.197831 0.198930 0.624456
O O3 0.263475 0.327740 0.750000
O O4 0.197831 0.198930 0.875542
O O5 0.146792 0.073396 0.000414
O O6 0.207376 0.792625 0.750000
O O7 0.329294 0.876848 0.624609
O O8 0.329296 0.876848 0.875386
O O9 0.544865 0.089729 0.486262
O O10 0.470330 0.130244 0.625624
O O11 0.403641 0.000000 0.499999
O O12 0.869758 0.529671 0.625628
O O13 0.594730 0.405271 0.750000
O O14 0.513555 0.256778 0.750000
#
# Coordination Sequence:
#
# PCOD9578044 Si02
#       6
#    12  12  12  12  12  12
#     4   9  21  35  51  78 112 145 182 228 280 339
#     4  10  19  36  58  82 109 144 190 240 292 342
#     4  11  22  37  56  81 114 152 187 230 286 339
#     4  10  21  38  61  86 113 150 194 236 278 332
#     4  10  21  38  61  86 113 150 194 236 278 332
#     4  10  20  36  59  89 121 151 188 238 294 346
#
# _framework density 18.212892
#
# number of rings (size 3 to 8) (size 9 to 14) (size 15 to 20)
#    0.000    2.000    0.000    3.333    2.333    2.667 
#    0.000    1.667    0.000    4.667    0.000    0.000 
#    0.000    0.000    0.000    0.000    0.000    0.000 
#
# Total GULP energy -402068.204032 kJ/mol
# GULP energy per Si atom -5584.280612 kJ/mol
# Density = 1.817144 g / cm^3
# Si number density = 18.212892 Si / 1000 Ang^3
#
#
#
# Elastic Constant Matrix: (Units=GPa)
#
#
# Indices 1 2 3 4 5 6 
#
# 1 74.6917 36.3773 70.7792 0.0000 0.0014 0.0000
# 2 36.3773 74.6917 70.7792 0.0000 -0.0014 0.0000
# 3 70.7792 70.7792 214.3851 0.0000 0.0000 0.0000
# 4 0.0000 0.0000 0.0000 5.0836 0.0000 -0.0014
# 5 0.0014 -0.0014 0.0000 0.0000 5.0836 0.0000
# 6 0.0000 0.0000 0.0000 -0.0014 0.0000 19.1572
#
#
#
# Elastic Compliance Matrix: (Units=1/GPa)
#
#
# Indices 1 2 3 4 5 6 
#
# 1 0.020822 -0.005278 -0.005132 0.000000 -0.000007 0.000000
# 2 -0.005278 0.020822 -0.005132 0.000000 0.000007 0.000000
# 3 -0.005132 -0.005132 0.008053 0.000000 0.000000 0.000000
# 4 0.000000 0.000000 0.000000 0.196710 0.000000 0.000014
# 5 -0.000007 0.000007 0.000000 0.000000 0.196710 0.000000
# 6 0.000000 0.000000 0.000000 0.000014 0.000000 0.052200
#
#
# Mechanical properties :
#
#
# Convention : Reuss Voigt Hill
#
# Bulk Modulus (GPa) = 53.72400 79.95997 66.84199
# Shear Modulus (GPa) = 9.38782 18.25375 13.82078
#
# Velocity S-wave (km/s) = 2.27281 3.16926 2.75770
# Velocity P-wave (km/s) = 6.03733 7.57565 6.84981
#
# Compressibility (1/GPa) = 0.01861365
#
# Stress axis : x y z
#
# Youngs Moduli (GPa) = 48.02635 48.02635 124.17654
#
# Poissons Ratio (x) = 0.25348 0.63725
# Poissons Ratio (y) = 0.25348 0.63725
# Poissons Ratio (z) = 0.24646 0.24646
#
# Static dielectric constant tensor:
#      x y z
#    x 1.606240 0.000000 0.000000 
#    y 0.000000 1.606240 0.000000 
#    z 0.000000 0.000000 1.594770 
# 
# From -- ./inp_files/1212.got.cif
#   From: 2010.05.17/outbox.cif.g08.bks.cpg/sg163_1_cif.got.tgz:1212.got - 2010.05.20 10:56:03.
