data_PCOD9578228
_publ_section_title
;
Structure prediction by ZEFSAII (Michael W. Deem and Ramdas Pophale) SiO2 
 PCOD9578228
Probable space group: P -3 1 C
;
_chemical_formula_sum "Si O2"
_cell_formula_units_Z 44
_cell_length_a 12.422947
_cell_length_b 12.422947
_cell_length_c 18.302842
_cell_angle_alpha 90.000000
_cell_angle_beta 90.000000
_cell_angle_gamma 120.000000
_cell_volume 2446.236417
_symmetry_space_group_name_H-M "P -3 1 C"
_symmetry_group_IT_number 163
_symmetry_cell_setting 'hexagonal'
loop_
_space_group_symop_operation_xyz
x,y,z
-y,x-y,z
-x+y,-x,z
-y,-x,1/2-z
-x+y,y,1/2-z
x,x-y,1/2-z
-x,-y,-z
y,-x+y,-z
x-y,x,-z
y,x,1/2+z
x-y,-y,1/2+z
-x,-x+y,1/2+z
loop_
_atom_site_type_symbol
_atom_site_label
_atom_site_fract_x
_atom_site_fract_y
_atom_site_fract_z
Si Si1 0.666668 0.333334 0.665679
Si Si2 0.000000 0.000000 0.160210
Si Si3 0.488474 0.085677 0.586849
Si Si4 0.826233 0.418240 0.075479
Si Si5 0.815031 0.029299 0.947424
O O1 0.666668 0.333334 0.750000
O O2 0.558240 0.201568 0.638541
O O3 0.000000 0.000000 0.250000
O O4 0.110269 0.984390 0.121603
O O5 0.560861 0.136032 0.509778
O O6 0.346459 0.049353 0.575074
O O7 0.484222 0.959621 0.613146
O O8 0.729590 0.467192 0.089945
O O9 0.911549 0.142096 0.998854
#
# Coordination Sequence:
#
# PCOD9578228 Si02
#       5
#     4   4  12  12  12
#     4  12  27  42  54  87 129 165 196 224 298 387
#     4   9  19  38  52  75 121 161 211 243 295 371
#     4  11  19  35  58  84 119 156 190 240 305 349
#     4   9  18  33  57  93 113 136 194 257 304 337
#     4   9  19  32  55  87 113 150 203 263 303 343
#
# _framework density 17.986815
#
# number of rings (size 3 to 8) (size 9 to 14) (size 15 to 20)
#    0.545    1.636    2.727    2.727    3.818    1.091 
#    0.000    0.000    0.000    0.000    0.000    0.000 
#    0.000    0.000    0.000    0.000    0.000    0.000 
#
# Total GULP energy -244997.299296 kJ/mol
# GULP energy per Si atom -5568.120439 kJ/mol
# Density = 1.794588 g / cm^3
# Si number density = 17.986815 Si / 1000 Ang^3
#
#
#
# Elastic Constant Matrix: (Units=GPa)
#
#
# Indices 1 2 3 4 5 6 
#
# 1 81.8725 26.9482 9.6935 0.0004 -0.1300 -0.0002
# 2 26.9482 81.8722 9.6936 0.0005 0.1304 -0.0005
# 3 9.6935 9.6936 68.9445 0.0000 -0.0001 -0.0001
# 4 0.0004 0.0005 0.0000 -6.3917 0.0005 0.1299
# 5 -0.1300 0.1304 -0.0001 0.0005 -6.3918 0.0000
# 6 -0.0002 -0.0005 -0.0001 0.1299 0.0000 27.4617
#
#
#
# Elastic Compliance Matrix: (Units=1/GPa)
#
#
# Indices 1 2 3 4 5 6 
#
# 1 0.013815 -0.004390 -0.001325 0.000001 -0.000371 0.000000
# 2 -0.004390 0.013815 -0.001325 0.000001 0.000371 0.000000
# 3 -0.001325 -0.001325 0.014877 0.000000 0.000000 0.000000
# 4 0.000001 0.000001 0.000000 -0.156439 -0.000011 0.000740
# 5 -0.000371 0.000371 0.000000 -0.000011 -0.156435 0.000000
# 6 0.000000 0.000000 0.000000 0.000740 0.000000 0.036411
#
#
# Mechanical properties :
#
#
# Convention : Reuss Voigt Hill
#
# Bulk Modulus (GPa) = 35.17754 36.15112 35.66433
# Shear Modulus (GPa) = -23.76440 15.35923 -4.20258
#
# Velocity S-wave (km/s) = -3.63879 2.92535 -1.53021
# Velocity P-wave (km/s) = 1.39480 5.61717 4.09256
#
# Compressibility (1/GPa) = 0.02842723
#
# Stress axis : x y z
#
# Youngs Moduli (GPa) = 72.38338 72.38308 67.21756
#
# Poissons Ratio (x) = 0.31775 0.08908
# Poissons Ratio (y) = 0.31775 0.08908
# Poissons Ratio (z) = 0.09592 0.09593
#
# Static dielectric constant tensor:
#      x y z
#    x 1.620000 0.000000 0.000000 
#    y 0.000000 1.620000 0.000000 
#    z 0.000000 0.000000 1.585430 
# 
# From -- ./inp_files/2972.got.cif
#   From: 2010.05.17/outbox.cif.g08.bks.cpg/sg163_2_cif.got.tgz:2972.got - 2010.05.20 10:56:03.
