data_PCOD9578986
_publ_section_title
;
Structure prediction by ZEFSAII (Michael W. Deem and Ramdas Pophale) SiO2 
 PCOD9578986
Probable space group: P -3 C 1
;
_chemical_formula_sum "Si O2"
_cell_formula_units_Z 56
_cell_length_a 14.262049
_cell_length_b 14.262049
_cell_length_c 14.678265
_cell_angle_alpha 90.000000
_cell_angle_beta 90.000000
_cell_angle_gamma 120.000000
_cell_volume 2585.646826
_symmetry_space_group_name_H-M "P -3 C 1"
_symmetry_group_IT_number 165
_symmetry_cell_setting 'hexagonal'
loop_
_space_group_symop_operation_xyz
x,y,z
-y,x-y,z
-x+y,-x,z
x-y,-y,1/2-z
-x,-x+y,1/2-z
y,x,1/2-z
-x,-y,-z
y,-x+y,-z
x-y,x,-z
-x+y,y,1/2+z
x,x-y,1/2+z
-y,-x,1/2+z
loop_
_atom_site_type_symbol
_atom_site_label
_atom_site_fract_x
_atom_site_fract_y
_atom_site_fract_z
Si Si1 0.218428 0.803768 0.475158
Si Si2 0.333333 0.666666 0.712668
Si Si3 0.747545 0.184466 0.832054
Si Si4 0.533294 0.977135 0.900326
Si Si5 0.333334 0.666667 0.434200
Si Si6 0.904410 0.301219 0.681249
O O1 0.197040 0.797963 0.265582
O O2 0.258863 0.714588 0.468697
O O3 0.108357 0.750773 0.417572
O O4 0.318564 0.903799 0.427167
O O5 0.449026 0.704703 0.671807
O O6 0.333334 0.666667 0.822835
O O7 0.628373 0.082539 0.849280
O O8 0.817598 0.196126 0.920745
O O9 0.421178 0.918883 0.841213
O O10 0.500000 0.000000 0.000000
O O11 0.000000 0.328142 0.750000
#
# Coordination Sequence:
#
# PCOD9578986 Si02
#       6
#    12   4  12  12   4  12
#     4  12  23  40  61  88 132 178 231 286 351 424
#     4  12  19  35  52  88 125 172 229 281 337 424
#     4  12  25  39  66  92 131 188 237 288 370 432
#     4  12  24  44  65  97 140 190 244 301 360 445
#     4  12  19  38  52  82 125 178 223 272 337 412
#     4  12  26  42  62  92 135 181 237 300 355 433
#
# _framework density 21.658023
#
# number of rings (size 3 to 8) (size 9 to 14) (size 15 to 20)
#    0.000    0.000    6.429    5.143    3.000    0.000 
#    0.000    0.000    0.000    0.000    0.000    0.000 
#    8.571    1.714    0.000    0.000    0.000    0.000 
#
# Total GULP energy -312177.473124 kJ/mol
# GULP energy per Si atom -5574.597734 kJ/mol
# Density = 2.160873 g / cm^3
# Si number density = 21.658023 Si / 1000 Ang^3
#
#
#
# Elastic Constant Matrix: (Units=GPa)
#
#
# Indices 1 2 3 4 5 6 
#
# 1 66.0241 7.1919 32.1079 9.5461 0.0000 0.0000
# 2 7.1919 66.0246 32.1077 -9.5459 0.0000 0.0000
# 3 32.1079 32.1077 159.6960 0.0000 0.0000 0.0000
# 4 9.5461 -9.5459 0.0000 36.4660 0.0000 0.0000
# 5 0.0000 0.0000 0.0000 0.0000 36.4661 9.5462
# 6 0.0000 0.0000 0.0000 0.0000 9.5462 29.4163
#
#
#
# Elastic Compliance Matrix: (Units=1/GPa)
#
#
# Indices 1 2 3 4 5 6 
#
# 1 0.017579 -0.000997 -0.003334 -0.004863 0.000000 0.000000
# 2 -0.000997 0.017579 -0.003334 0.004863 0.000000 0.000000
# 3 -0.003334 -0.003334 0.007603 0.000000 0.000000 0.000000
# 4 -0.004863 0.004863 0.000000 0.029969 0.000000 0.000000
# 5 0.000000 0.000000 0.000000 0.000000 0.029969 -0.009725
# 6 0.000000 0.000000 0.000000 0.000000 -0.009725 0.037151
#
#
# Mechanical properties :
#
#
# Convention : Reuss Voigt Hill
#
# Bulk Modulus (GPa) = 36.45479 48.28440 42.36960
# Shear Modulus (GPa) = 30.42821 35.15882 32.79351
#
# Velocity S-wave (km/s) = 3.75232 4.03347 3.89543
# Velocity P-wave (km/s) = 5.97007 6.63583 6.31173
#
# Compressibility (1/GPa) = 0.02743124
#
# Stress axis : x y z
#
# Youngs Moduli (GPa) = 56.88623 56.88686 131.53526
#
# Poissons Ratio (x) = 0.05669 0.43854
# Poissons Ratio (y) = 0.05669 0.43853
# Poissons Ratio (z) = 0.18966 0.18966
#
# Static dielectric constant tensor:
#      x y z
#    x 1.847590 0.000000 0.000000 
#    y 0.000000 1.847590 0.000000 
#    z 0.000000 0.000000 1.941470 
# 
# From -- ./inp_files/1721.got.cif
#   From: 2010.05.17/outbox.cif.g08.bks.cpg/sg165_1_cif.got.tgz:1721.got - 2010.05.20 11:02:39.
