data_PCOD9578388
_publ_section_title
;
Structure prediction by ZEFSAII (Michael W. Deem and Ramdas Pophale) SiO2 
 PCOD9578388
Probable space group: P -3 M 1
;
_chemical_formula_sum "Si O2"
_cell_formula_units_Z 96
_cell_length_a 21.969807
_cell_length_b 21.969807
_cell_length_c 11.852194
_cell_angle_alpha 90.000000
_cell_angle_beta 90.000000
_cell_angle_gamma 120.000000
_cell_volume 4954.295045
_symmetry_space_group_name_H-M "P -3 M 1"
_symmetry_group_IT_number 164
_symmetry_cell_setting 'hexagonal'
loop_
_space_group_symop_operation_xyz
x,y,z
-y,x-y,z
-x+y,-x,z
x-y,-y,-z
-x,-x+y,-z
y,x,-z
-x,-y,-z
y,-x+y,-z
x-y,x,-z
-x+y,y,z
x,x-y,z
-y,-x,z
loop_
_atom_site_type_symbol
_atom_site_label
_atom_site_fract_x
_atom_site_fract_y
_atom_site_fract_z
Si Si1 0.182673 0.953568 0.098476
Si Si2 0.308323 0.015442 0.241363
Si Si3 0.208455 0.927100 0.541950
Si Si4 0.666638 0.192840 0.306157
Si Si5 0.605901 0.733736 0.340111
Si Si6 0.192933 0.527079 0.965277
Si Si7 0.883246 0.625749 0.041722
Si Si8 0.530934 0.613201 0.502591
O O1 0.109391 0.890610 0.137747
O O2 0.231753 0.000006 0.198570
O O3 0.225984 0.919739 0.038572
O O4 0.176586 0.000000 0.000000
O O5 0.300179 0.939059 0.256937
O O6 0.319597 0.055222 0.358547
O O7 0.360335 0.063973 0.144467
O O8 0.131846 0.868154 0.578816
O O9 0.231376 0.897289 0.436497
O O10 0.216563 0.000000 0.500000
O O11 0.607277 0.214554 0.329748
O O12 0.744056 0.255944 0.336809
O O13 0.664955 0.182897 0.171041
O O14 0.643122 0.122852 0.378881
O O15 0.593728 0.796864 0.296997
O O16 0.542911 0.670033 0.406875
O O17 0.272890 0.545779 0.987989
O O18 0.180708 0.590354 0.000273
O O19 0.141418 0.449617 0.013752
O O20 0.810976 0.621951 0.083336
O O21 0.592228 0.592228 0.500000
O O22 0.459189 0.540812 0.481289
#
# Coordination Sequence:
#
# PCOD9578388 Si02
#       8
#    12  12  12  12  12  12  12  12
#     4   9  18  33  52  73  96 120 153 195 238 281
#     4  10  18  30  49  71  96 125 157 195 238 281
#     4   9  18  30  47  72  99 126 157 193 230 274
#     4   9  17  28  43  62  86 119 156 194 233 277
#     4  10  20  32  47  68  94 124 158 194 235 278
#     4   9  17  28  45  69  97 127 159 194 237 287
#     4   9  18  30  47  72  96 123 158 196 240 285
#     4  10  20  31  42  60  89 122 156 192 230 274
#
# _framework density 19.377126000000001
#
# number of rings (size 3 to 8) (size 9 to 14) (size 15 to 20)
#    0.000    2.625    0.000    2.500    3.500    2.000 
#    0.000    0.000    0.000    4.625    0.000    0.875 
#    0.000    0.000    0.000    0.000    0.000    0.000 
#
# Total GULP energy -535183.008792 kJ/mol
# GULP energy per Si atom -5574.823008 kJ/mol
# Density = 1.933302 g / cm^3
# Si number density = 19.377126 Si / 1000 Ang^3
#
#
#
# Elastic Constant Matrix: (Units=GPa)
#
#
# Indices 1 2 3 4 5 6 
#
# 1 82.7217 34.2612 -1.2541 0.7164 0.0000 0.0000
# 2 34.2612 82.7217 -1.2541 -0.7164 0.0000 0.0000
# 3 -1.2541 -1.2541 17.1242 0.0000 0.0000 0.0000
# 4 0.7164 -0.7164 0.0000 13.9947 0.0000 0.0000
# 5 0.0000 0.0000 0.0000 0.0000 13.9947 0.7164
# 6 0.0000 0.0000 0.0000 0.0000 0.7164 24.2303
#
#
#
# Elastic Compliance Matrix: (Units=1/GPa)
#
#
# Indices 1 2 3 4 5 6 
#
# 1 0.014614 -0.006052 0.000627 -0.001058 0.000000 0.000000
# 2 -0.006052 0.014614 0.000627 0.001058 0.000000 0.000000
# 3 0.000627 0.000627 0.058489 0.000000 0.000000 0.000000
# 4 -0.001058 0.001058 0.000000 0.071564 0.000000 0.000000
# 5 0.000000 0.000000 0.000000 0.000000 0.071564 -0.002116
# 6 0.000000 0.000000 0.000000 0.000000 -0.002116 0.041333
#
#
# Mechanical properties :
#
#
# Convention : Reuss Voigt Hill
#
# Bulk Modulus (GPa) = 12.80082 27.34153 20.07117
# Shear Modulus (GPa) = 16.24355 20.49827 18.37091
#
# Velocity S-wave (km/s) = 2.89846 3.25600 3.08242
# Velocity P-wave (km/s) = 4.22160 5.31754 4.80094
#
# Compressibility (1/GPa) = 0.07811999
#
# Stress axis : x y z
#
# Youngs Moduli (GPa) = 68.42681 68.42681 17.09736
#
# Poissons Ratio (x) = 0.41415 -0.01072
# Poissons Ratio (y) = 0.41415 -0.01072
# Poissons Ratio (z) = -0.04290 -0.04290
#
# Static dielectric constant tensor:
#      x y z
#    x 1.697720 0.000000 0.000000 
#    y 0.000000 1.697720 0.000000 
#    z 0.000000 0.000000 1.731670 
# 
# From -- ./inp_files/3157.got.cif
#   From: 2010.05.17/outbox.cif.g08.bks.cpg/sg164_2_cif.got.tgz:3157.got - 2010.05.20 10:58:56.
