data_PCOD9578267
_publ_section_title
;
Structure prediction by ZEFSAII (Michael W. Deem and Ramdas Pophale) SiO2 
 PCOD9578267
Probable space group: P -3 1 C
;
_chemical_formula_sum "Si O2"
_cell_formula_units_Z 66
_cell_length_a 19.772815
_cell_length_b 19.772815
_cell_length_c 9.265288
_cell_angle_alpha 90.000000
_cell_angle_beta 90.000000
_cell_angle_gamma 120.000000
_cell_volume 3137.086986
_symmetry_space_group_name_H-M "P -3 1 C"
_symmetry_group_IT_number 163
_symmetry_cell_setting 'hexagonal'
loop_
_space_group_symop_operation_xyz
x,y,z
-y,x-y,z
-x+y,-x,z
-y,-x,1/2-z
-x+y,y,1/2-z
x,x-y,1/2-z
-x,-y,-z
y,-x+y,-z
x-y,x,-z
y,x,1/2+z
x-y,-y,1/2+z
-x,-x+y,1/2+z
loop_
_atom_site_type_symbol
_atom_site_label
_atom_site_fract_x
_atom_site_fract_y
_atom_site_fract_z
Si Si1 0.082599 0.326754 0.743499
Si Si2 0.075914 0.772732 0.083324
Si Si3 0.939562 0.539128 0.167183
Si Si4 0.217128 0.434255 0.250000
Si Si5 0.157866 0.077764 0.585970
Si Si6 0.617673 0.515701 0.667120
O O1 0.156377 0.312753 0.750000
O O2 0.057528 0.317088 0.577175
O O3 0.104831 0.413031 0.796918
O O4 0.005462 0.264097 0.829812
O O5 0.143200 0.760876 0.148889
O O6 0.116722 0.866830 0.085274
O O7 0.915806 0.457903 0.250000
O O8 0.026633 0.598774 0.231355
O O9 0.932309 0.524348 0.994963
O O10 0.296657 0.474878 0.341035
O O11 0.128977 0.064489 0.750000
O O12 0.128795 0.126586 0.494882
O O13 0.564971 0.435030 0.750000
#
# Coordination Sequence:
#
# PCOD9578267 Si02
#       6
#    12  12  12   6  12  12
#     4  12  26  43  70 101 141 180 232 290 350 406
#     4  12  26  44  65  99 134 182 232 288 351 409
#     4  11  23  43  71 105 136 177 229 281 341 411
#     4  12  26  44  72 100 148 178 228 282 342 420
#     4  12  25  43  62  87 124 175 239 298 358 415
#     4  11  24  44  72 103 140 183 226 282 343 413
#
# _framework density 21.038625
#
# number of rings (size 3 to 8) (size 9 to 14) (size 15 to 20)
#    0.000    0.364    2.727    7.273    5.091    0.000 
#    0.545    0.000    0.000    0.364    0.000    0.000 
#    0.000    0.000    0.000    0.000    0.000    0.000 
#
# Total GULP energy -368569.394644 kJ/mol
# GULP energy per Si atom -5584.384767 kJ/mol
# Density = 2.099074 g / cm^3
# Si number density = 21.038625 Si / 1000 Ang^3
#
#
#
# Elastic Constant Matrix: (Units=GPa)
#
#
# Indices 1 2 3 4 5 6 
#
# 1 111.2347 -20.4621 37.6516 -0.0001 25.6450 0.0000
# 2 -20.4621 111.2347 37.6516 0.0001 -25.6450 0.0000
# 3 37.6516 37.6516 190.0785 0.0000 0.0000 0.0000
# 4 -0.0001 0.0001 0.0000 31.5729 0.0000 -25.6450
# 5 25.6450 -25.6450 0.0000 0.0000 31.5729 -0.0001
# 6 0.0000 0.0000 0.0000 -25.6450 -0.0001 65.8484
#
#
#
# Elastic Compliance Matrix: (Units=1/GPa)
#
#
# Indices 1 2 3 4 5 6 
#
# 1 0.012145 0.001038 -0.002611 0.000000 -0.009021 0.000000
# 2 0.001038 0.012145 -0.002611 0.000000 0.009021 0.000000
# 3 -0.002611 -0.002611 0.006296 0.000000 0.000000 0.000000
# 4 0.000000 0.000000 0.000000 0.046328 0.000000 0.018043
# 5 -0.009021 0.009021 0.000000 0.000000 0.046328 0.000000
# 6 0.000000 0.000000 0.000000 0.018043 0.000000 0.022213
#
#
# Mechanical properties :
#
#
# Convention : Reuss Voigt Hill
#
# Bulk Modulus (GPa) = 45.01276 58.02557 51.51916
# Shear Modulus (GPa) = 31.01202 49.64597 40.32899
#
# Velocity S-wave (km/s) = 3.84350 4.86300 4.38299
# Velocity P-wave (km/s) = 6.41392 7.69234 7.08204
#
# Compressibility (1/GPa) = 0.02221592
#
# Stress axis : x y z
#
# Youngs Moduli (GPa) = 82.34034 82.34034 158.84348
#
# Poissons Ratio (x) = -0.08548 0.41479
# Poissons Ratio (y) = -0.08548 0.41479
# Poissons Ratio (z) = 0.21502 0.21502
#
# Static dielectric constant tensor:
#      x y z
#    x 1.794780 0.000000 0.000000 
#    y 0.000000 1.794780 0.000000 
#    z 0.000000 0.000000 1.815200 
# 
# From -- ./inp_files/1165.got.cif
#   From: 2010.05.17/outbox.cif.g08.bks.cpg/sg163_1_cif.got.tgz:1165.got - 2010.05.20 10:56:03.
