data_PCOD9578368
_publ_section_title
;
Structure prediction by ZEFSAII (Michael W. Deem and Ramdas Pophale) SiO2 
 PCOD9578368
Probable space group: P -3 M 1
;
_chemical_formula_sum "Si O2"
_cell_formula_units_Z 84
_cell_length_a 18.796934
_cell_length_b 18.796934
_cell_length_c 19.587849
_cell_angle_alpha 90.000000
_cell_angle_beta 90.000000
_cell_angle_gamma 120.000000
_cell_volume 5993.650463
_symmetry_space_group_name_H-M "P -3 M 1"
_symmetry_group_IT_number 164
_symmetry_cell_setting 'hexagonal'
loop_
_space_group_symop_operation_xyz
x,y,z
-y,x-y,z
-x+y,-x,z
x-y,-y,-z
-x,-x+y,-z
y,x,-z
-x,-y,-z
y,-x+y,-z
x-y,x,-z
-x+y,y,z
x,x-y,z
-y,-x,z
loop_
_atom_site_type_symbol
_atom_site_label
_atom_site_fract_x
_atom_site_fract_y
_atom_site_fract_z
Si Si1 0.668277 0.502070 0.157506
Si Si2 0.532544 0.630289 0.692783
Si Si3 0.497932 0.166208 0.842495
Si Si4 0.905412 0.650651 0.578890
Si Si5 0.650651 0.905412 0.578890
Si Si6 0.369711 0.902253 0.307217
Si Si7 0.413667 0.413667 0.078810
O O1 0.752227 0.504453 0.138283
O O2 0.589134 0.410867 0.147073
O O3 0.669183 0.522795 0.237681
O O4 0.649820 0.565586 0.116494
O O5 0.442771 0.557230 0.671950
O O6 0.578127 0.693310 0.632016
O O7 0.585929 0.585927 0.708495
O O8 0.589135 0.178270 0.852931
O O9 0.495545 0.247773 0.861718
O O10 0.477210 0.146390 0.762319
O O11 0.434414 0.084233 0.883505
O O12 0.840694 0.681387 0.588356
O O13 0.898380 0.622554 0.500000
O O14 0.884815 0.578127 0.632017
O O15 1.000000 0.719149 0.589888
O O16 0.681385 0.840693 0.588356
O O17 0.442770 0.885540 0.328054
O O18 0.500001 0.500000 0.080898
O O19 0.391257 0.391257 0.000000
#
# Coordination Sequence:
#
# PCOD9578368 Si02
#       7
#    12  12  12  12  12  12  12
#     4  10  18  29  45  65  87 113 145 179 212 250
#     4   9  16  27  43  62  84 111 142 174 210 252
#     4  10  18  29  45  65  87 113 145 179 212 250
#     4   9  17  28  42  61  85 113 145 180 216 253
#     4   9  17  28  42  61  85 113 145 180 216 253
#     4   9  16  27  43  62  84 111 142 174 210 252
#     4   9  18  32  46  60  83 113 140 170 213 256
#
# _framework density 14.014830999999999
#
# number of rings (size 3 to 8) (size 9 to 14) (size 15 to 20)
#    0.000    2.714    1.429    1.143    0.000    1.143 
#    0.000    2.857    0.000    2.571    0.000    2.000 
#    0.000    0.000    0.000    0.429    0.000    1.857 
#
# Total GULP energy -467674.507055 kJ/mol
# GULP energy per Si atom -5567.553655 kJ/mol
# Density = 1.398293 g / cm^3
# Si number density = 14.014831 Si / 1000 Ang^3
#
#
#
# Elastic Constant Matrix: (Units=GPa)
#
#
# Indices 1 2 3 4 5 6 
#
# 1 88.8473 47.8505 52.1162 -0.0002 0.0000 0.0000
# 2 47.8505 88.8473 52.1162 0.0002 0.0000 0.0000
# 3 52.1162 52.1162 75.2321 0.0000 0.0000 0.0000
# 4 -0.0002 0.0002 0.0000 11.0363 0.0000 0.0000
# 5 0.0000 0.0000 0.0000 0.0000 11.0363 -0.0002
# 6 0.0000 0.0000 0.0000 0.0000 -0.0002 20.4984
#
#
#
# Elastic Compliance Matrix: (Units=1/GPa)
#
#
# Indices 1 2 3 4 5 6 
#
# 1 0.019949 -0.004443 -0.010741 0.000000 0.000000 0.000000
# 2 -0.004443 0.019949 -0.010741 0.000000 0.000000 0.000000
# 3 -0.010741 -0.010741 0.028174 0.000000 0.000000 0.000000
# 4 0.000000 0.000000 0.000000 0.090610 0.000000 0.000000
# 5 0.000000 0.000000 0.000000 0.000000 0.090610 0.000001
# 6 0.000000 0.000000 0.000000 0.000000 0.000001 0.048784
#
#
# Mechanical properties :
#
#
# Convention : Reuss Voigt Hill
#
# Bulk Modulus (GPa) = 61.65233 61.89916 61.77574
# Shear Modulus (GPa) = 14.07118 15.23710 14.65414
#
# Velocity S-wave (km/s) = 3.17207 3.30087 3.23711
# Velocity P-wave (km/s) = 7.58303 7.66749 7.62538
#
# Compressibility (1/GPa) = 0.01621999
#
# Stress axis : x y z
#
# Youngs Moduli (GPa) = 50.12787 50.12787 35.49343
#
# Poissons Ratio (x) = 0.22273 0.38125
# Poissons Ratio (y) = 0.22273 0.38125
# Poissons Ratio (z) = 0.53845 0.53845
#
# Static dielectric constant tensor:
#      x y z
#    x 1.451170 0.000000 0.000000 
#    y 0.000000 1.451170 0.000000 
#    z 0.000000 0.000000 1.466190 
# 
# From -- ./inp_files/4659.got.cif
#   From: 2010.05.17/outbox.cif.g08.bks.cpg/sg164_3_cif.got.tgz:4659.got - 2010.05.20 10:58:56.
