data_PCOD9578747
_publ_section_title
;
Structure prediction by ZEFSAII (Michael W. Deem and Ramdas Pophale) SiO2 
 PCOD9578747
Probable space group: P -3 M 1
;
_chemical_formula_sum "Si O2"
_cell_formula_units_Z 84
_cell_length_a 18.904796
_cell_length_b 18.904796
_cell_length_c 19.124396
_cell_angle_alpha 90.000000
_cell_angle_beta 90.000000
_cell_angle_gamma 120.000000
_cell_volume 5919.190948
_symmetry_space_group_name_H-M "P -3 M 1"
_symmetry_group_IT_number 164
_symmetry_cell_setting 'hexagonal'
loop_
_space_group_symop_operation_xyz
x,y,z
-y,x-y,z
-x+y,-x,z
x-y,-y,-z
-x,-x+y,-z
y,x,-z
-x,-y,-z
y,-x+y,-z
x-y,x,-z
-x+y,y,z
x,x-y,z
-y,-x,z
loop_
_atom_site_type_symbol
_atom_site_label
_atom_site_fract_x
_atom_site_fract_y
_atom_site_fract_z
Si Si1 0.666052 0.497325 0.824900
Si Si2 0.333949 0.831273 0.824900
Si Si3 0.499362 0.332903 0.341402
Si Si4 0.654699 0.746476 0.917589
Si Si5 0.908224 0.654699 0.917590
Si Si6 1.000000 0.585878 0.580710
Si Si7 0.332903 0.833542 0.341402
O O1 0.737943 0.475885 0.836359
O O2 0.579047 0.420954 0.843395
O O3 0.689404 0.576398 0.870770
O O4 0.666282 0.513799 0.742097
O O5 0.420954 0.841908 0.843397
O O6 0.262058 0.737942 0.836360
O O7 0.333719 0.847516 0.742097
O O8 0.310595 0.886993 0.870769
O O9 0.494643 0.247322 0.359300
O O10 0.590637 0.409364 0.355799
O O11 0.435058 0.350929 0.381077
O O12 0.678418 0.839209 0.902548
O O13 0.725167 0.725167 0.904086
O O14 0.633271 0.731543 1.000000
O O15 0.839209 0.678417 0.902549
O O16 0.999999 0.500000 0.582486
O O17 0.915872 0.564943 0.618922
O O18 0.000000 0.608356 0.500000
O O19 0.409364 0.818728 0.355798
O O20 0.247322 0.752679 0.359301
#
# Coordination Sequence:
#
# PCOD9578747 Si02
#       7
#    12  12  12  12  12  12  12
#     4   9  17  28  43  62  85 113 146 180 211 244
#     4   9  17  28  43  62  85 113 146 180 211 244
#     4   9  17  29  45  63  84 113 147 180 212 251
#     4   9  18  31  45  62  85 113 144 177 214 255
#     4   9  18  31  45  62  85 113 144 177 214 255
#     4   9  18  30  42  60  85 109 136 174 219 258
#     4   9  17  29  45  63  84 113 147 180 212 251
#
# _framework density 14.191129
#
# number of rings (size 3 to 8) (size 9 to 14) (size 15 to 20)
#    0.000    3.000    0.000    0.571    2.000    4.000 
#    0.000    1.429    0.000    3.714    0.000    2.000 
#    0.000    0.000    0.000    0.429    0.000    1.857 
#
# Total GULP energy -467758.070459 kJ/mol
# GULP energy per Si atom -5568.548458 kJ/mol
# Density = 1.415883 g / cm^3
# Si number density = 14.191129 Si / 1000 Ang^3
#
#
#
# Elastic Constant Matrix: (Units=GPa)
#
#
# Indices 1 2 3 4 5 6 
#
# 1 92.3604 69.6970 48.7993 -0.0003 0.0000 0.0000
# 2 69.6970 92.3604 48.7993 0.0003 0.0000 0.0000
# 3 48.7993 48.7993 38.7905 0.0000 0.0000 0.0000
# 4 -0.0003 0.0003 0.0000 18.1227 0.0000 0.0000
# 5 0.0000 0.0000 0.0000 0.0000 18.1227 -0.0003
# 6 0.0000 0.0000 0.0000 0.0000 -0.0003 11.3317
#
#
#
# Elastic Compliance Matrix: (Units=1/GPa)
#
#
# Indices 1 2 3 4 5 6 
#
# 1 0.034792 -0.009332 -0.032030 0.000001 0.000000 0.000000
# 2 -0.009332 0.034792 -0.032030 -0.000001 0.000000 0.000000
# 3 -0.032030 -0.032030 0.106369 0.000000 0.000000 0.000000
# 4 0.000001 -0.000001 0.000000 0.055179 0.000000 0.000000
# 5 0.000000 0.000000 0.000000 0.000000 0.055179 0.000001
# 6 0.000000 0.000000 0.000000 0.000000 0.000001 0.088248
#
#
# Mechanical properties :
#
#
# Convention : Reuss Voigt Hill
#
# Bulk Modulus (GPa) = 34.28224 62.01137 48.14681
# Shear Modulus (GPa) = 9.41502 13.26315 11.33909
#
# Velocity S-wave (km/s) = 2.57854 3.06045 2.82977
# Velocity P-wave (km/s) = 5.75109 7.50204 6.68415
#
# Compressibility (1/GPa) = 0.02916962
#
# Stress axis : x y z
#
# Youngs Moduli (GPa) = 28.74203 28.74203 9.40128
#
# Poissons Ratio (x) = 0.26821 0.30112
# Poissons Ratio (y) = 0.26821 0.30112
# Poissons Ratio (z) = 0.92061 0.92061
#
# Static dielectric constant tensor:
#      x y z
#    x 1.453760 0.000000 0.000000 
#    y 0.000000 1.453760 0.000000 
#    z 0.000000 0.000000 1.469060 
# 
# From -- ./inp_files/4657.got.cif
#   From: 2010.05.17/outbox.cif.g08.bks.cpg/sg164_3_cif.got.tgz:4657.got - 2010.05.20 10:58:56.
