data_PCOD9578365
_publ_section_title
;
Structure prediction by ZEFSAII (Michael W. Deem and Ramdas Pophale) SiO2 
 PCOD9578365
Probable space group: P -3 M 1
;
_chemical_formula_sum "Si O2"
_cell_formula_units_Z 90
_cell_length_a 18.545787
_cell_length_b 18.545787
_cell_length_c 18.652906
_cell_angle_alpha 90.000000
_cell_angle_beta 90.000000
_cell_angle_gamma 120.000000
_cell_volume 5556.069485
_symmetry_space_group_name_H-M "P -3 M 1"
_symmetry_group_IT_number 164
_symmetry_cell_setting 'hexagonal'
loop_
_space_group_symop_operation_xyz
x,y,z
-y,x-y,z
-x+y,-x,z
x-y,-y,-z
-x,-x+y,-z
y,x,-z
-x,-y,-z
y,-x+y,-z
x-y,x,-z
-x+y,y,z
x,x-y,z
-y,-x,z
loop_
_atom_site_type_symbol
_atom_site_label
_atom_site_fract_x
_atom_site_fract_y
_atom_site_fract_z
Si Si1 0.137221 0.703712 0.833118
Si Si2 0.999982 0.832116 0.418321
Si Si3 0.768646 0.700765 0.707988
Si Si4 0.094564 0.633855 0.990144
Si Si5 0.828190 0.000000 0.000000
Si Si6 0.330820 0.830011 0.138054
Si Si7 0.800831 0.035353 0.157328
Si Si8 0.589023 0.017269 0.752951
O O1 0.232198 0.767803 0.810738
O O2 0.090036 0.756437 0.835700
O O3 0.076667 0.626320 0.783152
O O4 0.132964 0.673179 0.914172
O O5 0.070444 0.929557 0.416929
O O6 0.026475 0.787567 0.359551
O O7 0.000000 0.803540 0.500000
O O8 0.910436 0.820871 0.402066
O O9 0.833548 0.667096 0.705292
O O10 0.789378 0.756893 0.780358
O O11 0.671607 0.630671 0.707898
O O12 0.090419 0.545210 0.993915
O O13 0.148400 0.683889 0.058028
O O14 0.000000 0.613886 0.000000
O O15 0.785930 0.998480 0.923962
O O16 0.835461 0.917731 0.000386
O O17 0.401826 0.803652 0.136423
O O18 0.244870 0.755131 0.167782
O O19 0.371757 0.916348 0.181611
O O20 0.899894 0.100107 0.168283
O O21 0.514012 0.028024 0.721583
#
# Coordination Sequence:
#
# PCOD9578365 Si02
#       8
#    12  12  12  12   6  12  12  12
#     4  10  19  30  45  63  81 107 147 194 244 299
#     4   9  17  30  51  81 116 148 171 193 226 272
#     4  10  19  31  50  74  99 128 167 206 241 287
#     4  10  18  29  44  61  82 109 145 189 243 305
#     4  10  19  30  40  52  77 118 164 202 234 268
#     4  10  19  30  45  64  87 116 153 198 247 300
#     4   9  19  30  41  61  89 121 159 204 246 281
#     4  10  20  34  50  66  91 123 155 195 246 297
#
# _framework density 16.198502999999999
#
# number of rings (size 3 to 8) (size 9 to 14) (size 15 to 20)
#    0.000    2.267    1.333    2.333    0.933    1.067 
#    0.000    2.667    0.000    7.867    0.000    0.000 
#    0.000    0.000    0.000    0.267    0.000    0.000 
#
# Total GULP energy -501466.513740 kJ/mol
# GULP energy per Si atom -5571.850153 kJ/mol
# Density = 1.616163 g / cm^3
# Si number density = 16.198503 Si / 1000 Ang^3
#
#
#
# Elastic Constant Matrix: (Units=GPa)
#
#
# Indices 1 2 3 4 5 6 
#
# 1 70.9715 34.6173 27.7954 -0.9758 0.0000 0.0000
# 2 34.6173 70.9715 27.7954 0.9758 0.0000 0.0000
# 3 27.7954 27.7954 61.5900 0.0000 0.0000 0.0000
# 4 -0.9758 0.9758 0.0000 14.6652 0.0000 0.0000
# 5 0.0000 0.0000 0.0000 0.0000 14.6652 -0.9758
# 6 0.0000 0.0000 0.0000 0.0000 -0.9758 18.1771
#
#
#
# Elastic Compliance Matrix: (Units=1/GPa)
#
#
# Indices 1 2 3 4 5 6 
#
# 1 0.020014 -0.007592 -0.005606 0.001837 0.000000 0.000000
# 2 -0.007592 0.020014 -0.005606 -0.001837 0.000000 0.000000
# 3 -0.005606 -0.005606 0.021296 0.000000 0.000000 0.000000
# 4 0.001837 -0.001837 0.000000 0.068433 0.000000 0.000000
# 5 0.000000 0.000000 0.000000 0.000000 0.068433 0.003674
# 6 0.000000 0.000000 0.000000 0.000000 0.003674 0.055211
#
#
# Mechanical properties :
#
#
# Convention : Reuss Voigt Hill
#
# Bulk Modulus (GPa) = 42.16486 42.66103 42.41295
# Shear Modulus (GPa) = 16.72714 17.05650 16.89182
#
# Velocity S-wave (km/s) = 3.21695 3.24847 3.23275
# Velocity P-wave (km/s) = 6.31545 6.36110 6.33832
#
# Compressibility (1/GPa) = 0.02371643
#
# Stress axis : x y z
#
# Youngs Moduli (GPa) = 49.96506 49.96506 46.95617
#
# Poissons Ratio (x) = 0.37932 0.26324
# Poissons Ratio (y) = 0.37932 0.26324
# Poissons Ratio (z) = 0.28011 0.28011
#
# Static dielectric constant tensor:
#      x y z
#    x 1.572490 0.000000 0.000000 
#    y 0.000000 1.572490 0.000000 
#    z 0.000000 0.000000 1.531770 
# 
# From -- ./inp_files/4231.got.cif
#   From: 2010.05.17/outbox.cif.g08.bks.cpg/sg164_3_cif.got.tgz:4231.got - 2010.05.20 10:58:56.
