data_PCOD9578309
_publ_section_title
;
Structure prediction by ZEFSAII (Michael W. Deem and Ramdas Pophale) SiO2 
 PCOD9578309
Probable space group: P -3 1 C
;
_chemical_formula_sum "Si O2"
_cell_formula_units_Z 58
_cell_length_a 15.000000
_cell_length_b 15.000000
_cell_length_c 15.000000
_cell_angle_alpha 90.000000
_cell_angle_beta 90.000000
_cell_angle_gamma 120.000000
_cell_volume 2922.835738
_symmetry_space_group_name_H-M "P -3 1 C"
_symmetry_group_IT_number 163
_symmetry_cell_setting 'hexagonal'
loop_
_space_group_symop_operation_xyz
x,y,z
-y,x-y,z
-x+y,-x,z
-y,-x,1/2-z
-x+y,y,1/2-z
x,x-y,1/2-z
-x,-y,-z
y,-x+y,-z
x-y,x,-z
y,x,1/2+z
x-y,-y,1/2+z
-x,-x+y,1/2+z
loop_
_atom_site_type_symbol
_atom_site_label
_atom_site_fract_x
_atom_site_fract_y
_atom_site_fract_z
Si Si1 0.452857 0.906283 0.430574
Si Si2 0.743096 0.624139 0.172664
Si Si3 0.000000 0.000000 0.106476
Si Si4 0.759496 0.916012 0.348445
Si Si5 0.484540 0.969080 0.750000
Si Si6 0.425758 0.211008 0.976342
O O1 0.332772 0.833209 0.449055
O O2 0.517479 0.848103 0.446969
O O3 0.500000 0.000000 0.500000
O O4 0.462123 0.956619 0.334087
O O5 0.825907 0.651814 0.250000
O O6 0.739350 0.727160 0.149787
O O7 0.633846 0.536917 0.215131
O O8 0.778887 0.590981 0.082650
O O9 0.881074 0.925323 0.136531
O O10 0.000000 0.000000 0.000000
O O11 0.731634 0.865817 0.250000
O O12 0.683653 0.836639 0.423592
#
# Coordination Sequence:
#
# PCOD9578309 Si02
#       6
#    12  12   4  12   6  12
#     4  12  25  47  73 107 149 190 252 313 374 453
#     4  12  26  45  74 106 149 199 248 313 386 455
#     4  12  25  41  73 108 151 191 251 305 370 450
#     4  12  25  46  70 109 147 198 246 306 372 455
#     4  12  24  48  72 108 146 196 252 314 378 458
#     4  12  26  47  73 105 145 194 246 307 382 442
#
# _framework density 19.843743
#
# number of rings (size 3 to 8) (size 9 to 14) (size 15 to 20)
#    0.000    0.000    4.138    6.000    0.000    3.310 
#    0.621    0.000    0.000    0.000    0.000    0.000 
#    0.000    0.000    0.000    0.000    0.000    0.000 
#
# Total GULP energy -324475.147396 kJ/mol
# GULP energy per Si atom -5594.399093 kJ/mol
# Density = 1.979858 g / cm^3
# Si number density = 19.843743 Si / 1000 Ang^3
#
#
#
# Elastic Constant Matrix: (Units=GPa)
#
#
# Indices 1 2 3 4 5 6 
#
# 1 129.3793 38.6038 37.0716 -0.0001 8.6600 0.0000
# 2 38.6038 129.3793 37.0716 0.0001 -8.6600 0.0000
# 3 37.0716 37.0716 178.5941 0.0000 0.0000 0.0000
# 4 -0.0001 0.0001 0.0000 42.8627 0.0000 -8.6600
# 5 8.6600 -8.6600 0.0000 0.0000 42.8627 -0.0001
# 6 0.0000 0.0000 0.0000 -8.6600 -0.0001 45.3877
#
#
#
# Elastic Compliance Matrix: (Units=1/GPa)
#
#
# Indices 1 2 3 4 5 6 
#
# 1 0.009006 -0.002452 -0.001360 0.000000 -0.002315 0.000000
# 2 -0.002452 0.009006 -0.001360 0.000000 0.002315 0.000000
# 3 -0.001360 -0.001360 0.006164 0.000000 0.000000 0.000000
# 4 0.000000 0.000000 0.000000 0.024266 0.000000 0.004630
# 5 -0.002315 0.002315 0.000000 0.000000 0.024266 0.000000
# 6 0.000000 0.000000 0.000000 0.004630 0.000000 0.022916
#
#
# Mechanical properties :
#
#
# Convention : Reuss Voigt Hill
#
# Bulk Modulus (GPa) = 72.30906 73.64967 72.97937
# Shear Modulus (GPa) = 45.21687 47.86299 46.53993
#
# Velocity S-wave (km/s) = 4.77870 4.91653 4.84810
# Velocity P-wave (km/s) = 8.18329 8.33217 8.25807
#
# Compressibility (1/GPa) = 0.01382952
#
# Stress axis : x y z
#
# Youngs Moduli (GPa) = 111.04156 111.04156 162.23170
#
# Poissons Ratio (x) = 0.27230 0.22069
# Poissons Ratio (y) = 0.27230 0.22069
# Poissons Ratio (z) = 0.15105 0.15105
#
# Static dielectric constant tensor:
#      x y z
#    x 1.712150 0.000000 0.000000 
#    y 0.000000 1.712150 0.000000 
#    z 0.000000 0.000000 1.703140 
# 
# From -- ./inp_files/2438.got.cif
#   From: 2010.05.17/outbox.ucp.g08.bks.cvg/sg163_2_cif.got.tgz:2438.got - 2010.06.11 15:15:55.
