data_PCOD9578189
_publ_section_title
;
Structure prediction by ZEFSAII (Michael W. Deem and Ramdas Pophale) SiO2 
 PCOD9578189
Probable space group: P -3 1 C
;
_chemical_formula_sum "Si O2"
_cell_formula_units_Z 60
_cell_length_a 14.277464
_cell_length_b 14.277464
_cell_length_c 15.667955
_cell_angle_alpha 90.000000
_cell_angle_beta 90.000000
_cell_angle_gamma 120.000000
_cell_volume 2765.954902
_symmetry_space_group_name_H-M "P -3 1 C"
_symmetry_group_IT_number 163
_symmetry_cell_setting 'hexagonal'
loop_
_space_group_symop_operation_xyz
x,y,z
-y,x-y,z
-x+y,-x,z
-y,-x,1/2-z
-x+y,y,1/2-z
x,x-y,1/2-z
-x,-y,-z
y,-x+y,-z
x-y,x,-z
y,x,1/2+z
x-y,-y,1/2+z
-x,-x+y,1/2+z
loop_
_atom_site_type_symbol
_atom_site_label
_atom_site_fract_x
_atom_site_fract_y
_atom_site_fract_z
Si Si1 0.219277 0.179340 0.472538
Si Si2 0.001234 0.212884 0.222526
Si Si3 0.727725 0.541955 0.966625
Si Si4 0.890917 0.404576 0.459580
Si Si5 0.043054 0.611131 0.188514
O O1 0.133471 0.188404 0.531920
O O2 0.215868 0.221041 0.379389
O O3 0.338348 0.245615 0.509748
O O4 0.882954 0.117047 0.250000
O O5 0.092117 0.184234 0.250000
O O6 0.030323 0.327932 0.262145
O O7 0.670858 0.522871 0.874439
O O8 0.642660 0.456649 0.034550
O O9 0.835981 0.536823 0.980793
O O10 0.000000 0.500000 0.500000
O O11 0.934007 0.389698 0.369197
O O12 0.052730 0.526365 0.250000
#
# Coordination Sequence:
#
# PCOD9578189 Si02
#       5
#    12  12  12  12  12
#     4  12  24  42  66  94 129 174 217 259 323 408
#     4  12  25  43  68 102 139 175 220 283 345 405
#     4  11  22  42  68  94 130 179 223 269 334 410
#     4  10  22  42  67  96 132 178 227 276 339 420
#     4  11  25  43  67 102 139 176 228 291 348 405
#
# _framework density 21.692326999999999
#
# number of rings (size 3 to 8) (size 9 to 14) (size 15 to 20)
#    0.000    0.800    0.000    9.200    0.000    4.800 
#    0.000    0.000    0.000    0.800    0.000    0.000 
#    0.000    0.000    0.000    0.000    0.000    0.000 
#
# Total GULP energy -335611.936059 kJ/mol
# GULP energy per Si atom -5593.532268 kJ/mol
# Density = 2.164295 g / cm^3
# Si number density = 21.692327 Si / 1000 Ang^3
#
#
#
# Elastic Constant Matrix: (Units=GPa)
#
#
# Indices 1 2 3 4 5 6 
#
# 1 102.3638 46.5622 49.5444 -0.0003 3.3926 0.0000
# 2 46.5622 102.3638 49.5444 0.0003 -3.3926 0.0000
# 3 49.5444 49.5444 109.2730 0.0000 0.0000 0.0000
# 4 -0.0003 0.0003 0.0000 36.6924 0.0000 -3.3926
# 5 3.3926 -3.3926 0.0000 0.0000 36.6924 -0.0003
# 6 0.0000 0.0000 0.0000 -3.3926 -0.0003 27.9008
#
#
#
# Elastic Compliance Matrix: (Units=1/GPa)
#
#
# Indices 1 2 3 4 5 6 
#
# 1 0.013870 -0.004254 -0.004360 0.000000 -0.001676 0.000000
# 2 -0.004254 0.013870 -0.004360 0.000000 0.001676 0.000000
# 3 -0.004360 -0.004360 0.013105 0.000000 0.000000 0.000000
# 4 0.000000 0.000000 0.000000 0.027564 0.000000 0.003352
# 5 -0.001676 0.001676 0.000000 0.000000 0.027564 0.000000
# 6 0.000000 0.000000 0.000000 0.003352 0.000000 0.036249
#
#
# Mechanical properties :
#
#
# Convention : Reuss Voigt Hill
#
# Bulk Modulus (GPa) = 67.12741 67.25583 67.19162
# Shear Modulus (GPa) = 30.64970 31.48040 31.06505
#
# Velocity S-wave (km/s) = 3.76297 3.81362 3.78838
# Velocity P-wave (km/s) = 7.06345 7.10376 7.08363
#
# Compressibility (1/GPa) = 0.01489705
#
# Stress axis : x y z
#
# Youngs Moduli (GPa) = 72.09833 72.09833 76.30835
#
# Poissons Ratio (x) = 0.30674 0.33268
# Poissons Ratio (y) = 0.30674 0.33268
# Poissons Ratio (z) = 0.31432 0.31432
#
# Static dielectric constant tensor:
#      x y z
#    x 1.836700 0.000000 0.000000 
#    y 0.000000 1.836700 0.000000 
#    z 0.000000 0.000000 1.803810 
# 
# From -- ./inp_files/2378.got.cif
#   From: 2010.05.17/outbox.cif.g08.bks.cpg/sg163_2_cif.got.tgz:2378.got - 2010.05.20 10:56:03.
