data_PCOD9578677
_publ_section_title
;
Structure prediction by ZEFSAII (Michael W. Deem and Ramdas Pophale) SiO2 
 PCOD9578677
Probable space group: P -3 M 1
;
_chemical_formula_sum "Si O2"
_cell_formula_units_Z 84
_cell_length_a 21.097066
_cell_length_b 21.097066
_cell_length_c 11.178068
_cell_angle_alpha 90.000000
_cell_angle_beta 90.000000
_cell_angle_gamma 120.000000
_cell_volume 4308.652828
_symmetry_space_group_name_H-M "P -3 M 1"
_symmetry_group_IT_number 164
_symmetry_cell_setting 'hexagonal'
loop_
_space_group_symop_operation_xyz
x,y,z
-y,x-y,z
-x+y,-x,z
x-y,-y,-z
-x,-x+y,-z
y,x,-z
-x,-y,-z
y,-x+y,-z
x-y,x,-z
-x+y,y,z
x,x-y,z
-y,-x,z
loop_
_atom_site_type_symbol
_atom_site_label
_atom_site_fract_x
_atom_site_fract_y
_atom_site_fract_z
Si Si1 0.814872 0.483280 0.432027
Si Si2 0.810897 0.330339 0.932295
Si Si3 0.514410 0.636847 0.821701
Si Si4 0.444923 0.408533 0.838430
Si Si5 0.000135 0.847885 0.863302
Si Si6 0.753822 0.800809 0.375811
Si Si7 0.935433 0.337525 0.595440
O O1 0.730890 0.461780 0.433399
O O2 0.822294 0.411147 0.441038
O O3 0.850548 0.523848 0.306275
O O4 0.859621 0.539806 0.536103
O O5 0.804358 0.402179 0.905249
O O6 0.741470 0.258531 0.884840
O O7 0.887921 0.342714 0.885145
O O8 0.818180 0.326600 0.075114
O O9 0.444766 0.555235 0.808077
O O10 0.579350 0.622888 0.865414
O O11 0.518902 0.481099 0.878544
O O12 0.441315 0.397635 0.697239
O O13 0.929764 0.859528 0.859791
O O14 0.991333 0.797985 0.747035
O O15 0.075168 0.924833 0.850883
O O16 0.000000 0.819533 0.000000
O O17 0.784372 0.784372 0.500000
O O18 0.756035 0.878018 0.389772
O O19 0.670358 0.735160 0.360698
O O20 0.000000 0.373740 0.500000
#
# Coordination Sequence:
#
# PCOD9578677 Si02
#       7
#    12  12  12  12  12  12  12
#     4  11  22  36  58  87 119 148 185 239 299 355
#     4  10  20  34  54  82 117 153 186 228 287 349
#     4   9  18  34  57  82 109 144 188 235 282 341
#     4  10  20  36  59  83 107 143 192 238 281 333
#     4   9  17  32  57  88 121 155 193 238 292 353
#     4  10  21  36  56  81 114 155 198 242 293 348
#     4  11  22  38  59  80 108 149 193 239 283 344
#
# _framework density 19.495653999999998
#
# number of rings (size 3 to 8) (size 9 to 14) (size 15 to 20)
#    0.000    2.000    1.429    2.571    0.000    4.000 
#    0.000    2.857    0.000    5.714    0.000    0.000 
#    0.000    0.000    0.000    0.000    0.000    0.000 
#
# Total GULP energy -468183.832753 kJ/mol
# GULP energy per Si atom -5573.617057 kJ/mol
# Density = 1.945128 g / cm^3
# Si number density = 19.495654 Si / 1000 Ang^3
#
#
#
# Elastic Constant Matrix: (Units=GPa)
#
#
# Indices 1 2 3 4 5 6 
#
# 1 82.1250 37.4583 35.1812 2.7604 0.0000 0.0000
# 2 37.4583 82.1250 35.1812 -2.7604 0.0000 0.0000
# 3 35.1812 35.1812 77.9279 0.0000 0.0000 0.0000
# 4 2.7604 -2.7604 0.0000 18.7257 0.0000 0.0000
# 5 0.0000 0.0000 0.0000 0.0000 18.7257 2.7604
# 6 0.0000 0.0000 0.0000 0.0000 2.7604 22.3333
#
#
#
# Elastic Compliance Matrix: (Units=1/GPa)
#
#
# Indices 1 2 3 4 5 6 
#
# 1 0.017095 -0.005708 -0.005141 -0.003361 0.000000 0.000000
# 2 -0.005708 0.017095 -0.005141 0.003361 0.000000 0.000000
# 3 -0.005141 -0.005141 0.017474 0.000000 0.000000 0.000000
# 4 -0.003361 0.003361 0.000000 0.054394 0.000000 0.000000
# 5 0.000000 0.000000 0.000000 0.000000 0.054394 -0.006723
# 6 0.000000 0.000000 0.000000 0.000000 -0.006723 0.045607
#
#
# Mechanical properties :
#
#
# Convention : Reuss Voigt Hill
#
# Bulk Modulus (GPa) = 50.79965 50.86880 50.83423
# Shear Modulus (GPa) = 20.44148 20.91409 20.67779
#
# Velocity S-wave (km/s) = 3.24159 3.27885 3.26027
# Velocity P-wave (km/s) = 6.33435 6.36266 6.34852
#
# Compressibility (1/GPa) = 0.01968517
#
# Stress axis : x y z
#
# Youngs Moduli (GPa) = 58.49534 58.49534 57.22742
#
# Poissons Ratio (x) = 0.33390 0.29420
# Poissons Ratio (y) = 0.33390 0.29420
# Poissons Ratio (z) = 0.30072 0.30072
#
# Static dielectric constant tensor:
#      x y z
#    x 1.682570 0.000000 0.000000 
#    y 0.000000 1.682570 0.000000 
#    z 0.000000 0.000000 1.727870 
# 
# From -- ./inp_files/2948.got.cif
#   From: 2010.05.17/outbox.cif.g08.bks.cpg/sg164_2_cif.got.tgz:2948.got - 2010.05.20 10:58:56.
