data_PCOD9578140
_publ_section_title
;
Structure prediction by ZEFSAII (Michael W. Deem and Ramdas Pophale) SiO2 
 PCOD9578140
Probable space group: P -3 1 C
;
_chemical_formula_sum "Si O2"
_cell_formula_units_Z 84
_cell_length_a 18.633030
_cell_length_b 18.633030
_cell_length_c 12.839115
_cell_angle_alpha 90.000000
_cell_angle_beta 90.000000
_cell_angle_gamma 120.000000
_cell_volume 3860.403378
_symmetry_space_group_name_H-M "P -3 1 C"
_symmetry_group_IT_number 163
_symmetry_cell_setting 'hexagonal'
loop_
_space_group_symop_operation_xyz
x,y,z
-y,x-y,z
-x+y,-x,z
-y,-x,1/2-z
-x+y,y,1/2-z
x,x-y,1/2-z
-x,-y,-z
y,-x+y,-z
x-y,x,-z
y,x,1/2+z
x-y,-y,1/2+z
-x,-x+y,1/2+z
loop_
_atom_site_type_symbol
_atom_site_label
_atom_site_fract_x
_atom_site_fract_y
_atom_site_fract_z
Si Si1 0.297811 0.090118 0.172359
Si Si2 0.454574 0.590848 0.364086
Si Si3 0.904235 0.682393 0.835747
Si Si4 0.442631 0.298872 0.478526
Si Si5 0.472359 0.316367 0.988844
Si Si6 0.187478 0.107749 0.013337
Si Si7 0.059984 0.536919 0.630111
O O1 0.339085 0.169543 0.250000
O O2 0.352224 0.096579 0.070636
O O3 0.224248 0.099749 0.122698
O O4 0.268390 0.997523 0.213557
O O5 0.419373 0.580628 0.250000
O O6 0.533949 0.676295 0.400153
O O7 0.375909 0.561681 0.438150
O O8 0.482780 0.521912 0.376625
O O9 0.836806 0.673611 0.750000
O O10 0.880536 0.596824 0.896901
O O11 0.909252 0.742414 0.930832
O O12 0.470891 0.232275 0.458057
O O13 0.491092 0.387864 0.424384
O O14 0.464543 0.375124 0.074800
O O15 0.125301 0.141281 0.032221
O O16 0.083126 0.541563 0.750000
#
# Coordination Sequence:
#
# PCOD9578140 Si02
#       7
#    12  12  12  12  12  12  12
#     4  11  23  39  61  92 130 171 220 273 329 387
#     4  10  23  44  69  92 124 172 215 257 327 406
#     4  11  23  39  61  92 130 171 220 273 329 387
#     4  11  23  41  64  96 130 161 211 268 324 385
#     4  11  23  41  64  96 130 161 211 268 324 385
#     4  10  21  38  58  84 120 166 218 274 334 394
#     4  10  23  44  69  92 124 172 215 257 327 406
#
# _framework density 21.759384000000001
#
# number of rings (size 3 to 8) (size 9 to 14) (size 15 to 20)
#    0.000    1.429    1.429    4.429    4.000    0.000 
#    6.857    0.000    0.000    4.571    0.000    0.000 
#    0.000    0.000    0.000    0.000    0.000    0.000 
#
# Total GULP energy -468571.444128 kJ/mol
# GULP energy per Si atom -5578.231478 kJ/mol
# Density = 2.170986 g / cm^3
# Si number density = 21.759384 Si / 1000 Ang^3
#
#
#
# Elastic Constant Matrix: (Units=GPa)
#
#
# Indices 1 2 3 4 5 6 
#
# 1 62.2637 9.4066 7.9025 0.0000 -6.4627 0.0000
# 2 9.4066 62.2637 7.9025 0.0000 6.4627 0.0000
# 3 7.9025 7.9025 73.7474 0.0000 0.0000 0.0000
# 4 0.0000 0.0000 0.0000 32.6469 0.0000 6.4627
# 5 -6.4627 6.4627 0.0000 0.0000 32.6469 0.0000
# 6 0.0000 0.0000 0.0000 6.4627 0.0000 26.4285
#
#
#
# Elastic Compliance Matrix: (Units=1/GPa)
#
#
# Indices 1 2 3 4 5 6 
#
# 1 0.017086 -0.002795 -0.001531 0.000000 0.003936 0.000000
# 2 -0.002795 0.017086 -0.001531 0.000000 -0.003936 0.000000
# 3 -0.001531 -0.001531 0.013888 0.000000 0.000000 0.000000
# 4 0.000000 0.000000 0.000000 0.032189 0.000000 -0.007871
# 5 0.003936 -0.003936 0.000000 0.000000 0.032189 0.000000
# 6 0.000000 0.000000 0.000000 -0.007871 0.000000 0.039763
#
#
# Mechanical properties :
#
#
# Convention : Reuss Voigt Hill
#
# Bulk Modulus (GPa) = 27.51510 27.63311 27.57411
# Shear Modulus (GPa) = 28.40407 29.88201 29.14304
#
# Velocity S-wave (km/s) = 3.61691 3.70982 3.66366
# Velocity P-wave (km/s) = 5.48775 5.57470 5.53139
#
# Compressibility (1/GPa) = 0.03634368
#
# Stress axis : x y z
#
# Youngs Moduli (GPa) = 58.52775 58.52775 72.00470
#
# Poissons Ratio (x) = 0.16361 0.11026
# Poissons Ratio (y) = 0.16361 0.11026
# Poissons Ratio (z) = 0.08962 0.08962
#
# Static dielectric constant tensor:
#      x y z
#    x 1.797880 0.000000 0.000000 
#    y 0.000000 1.797880 0.000000 
#    z 0.000000 0.000000 1.935750 
# 
# From -- ./inp_files/2674.got.cif
#   From: 2010.05.17/outbox.cif.g08.bks.cpg/sg163_2_cif.got.tgz:2674.got - 2010.05.20 10:56:03.
