data_PCOD9578879
_publ_section_title
;
Structure prediction by ZEFSAII (Michael W. Deem and Ramdas Pophale) SiO2 
 PCOD9578879
Probable space group: P -3 C 1
;
_chemical_formula_sum "Si O2"
_cell_formula_units_Z 64
_cell_length_a 14.095050
_cell_length_b 14.095050
_cell_length_c 15.872937
_cell_angle_alpha 90.000000
_cell_angle_beta 90.000000
_cell_angle_gamma 120.000000
_cell_volume 2730.996640
_symmetry_space_group_name_H-M "P -3 C 1"
_symmetry_group_IT_number 165
_symmetry_cell_setting 'hexagonal'
loop_
_space_group_symop_operation_xyz
x,y,z
-y,x-y,z
-x+y,-x,z
x-y,-y,1/2-z
-x,-x+y,1/2-z
y,x,1/2-z
-x,-y,-z
y,-x+y,-z
x-y,x,-z
-x+y,y,1/2+z
x,x-y,1/2+z
-y,-x,1/2+z
loop_
_atom_site_type_symbol
_atom_site_label
_atom_site_fract_x
_atom_site_fract_y
_atom_site_fract_z
Si Si1 0.868122 0.760758 0.157207
Si Si2 0.583307 0.766429 0.195033
Si Si3 0.000000 0.000000 0.605196
Si Si4 0.349740 0.345029 0.371809
Si Si5 0.462808 0.573080 0.302107
Si Si6 0.345978 0.985624 0.434215
O O1 0.809509 0.687302 0.240167
O O2 0.906924 0.886869 0.145602
O O3 0.783799 0.704155 0.080718
O O4 0.973534 0.747909 0.143079
O O5 0.576873 0.870323 0.159575
O O6 0.477399 0.675941 0.247879
O O7 0.606526 0.705962 0.117621
O O8 0.000000 0.000000 0.500000
O O9 0.363720 0.452742 0.324071
O O10 0.370742 0.373557 0.468934
O O11 0.541908 0.541908 0.250000
O O12 0.523337 0.615440 0.390834
#
# Coordination Sequence:
#
# PCOD9578879 Si02
#       6
#    12  12   4  12  12  12
#     4  11  22  36  60  91 131 174 209 253 317 388
#     4  10  22  39  59  90 129 164 208 265 316 379
#     4  12  24  39  58  95 137 173 211 261 313 380
#     4  12  21  37  65  95 120 168 218 260 322 383
#     4   9  20  38  61  89 122 161 209 264 319 377
#     4  10  21  39  60  90 129 164 207 269 320 379
#
# _framework density 23.434669
#
# number of rings (size 3 to 8) (size 9 to 14) (size 15 to 20)
#    0.000    1.500    0.000    7.312    0.000    1.500 
#    0.000    3.750    0.000   48.000    0.000   42.000 
#    0.000    0.000    0.000    0.000    0.000    0.000 
#
# Total GULP energy -357260.821545 kJ/mol
# GULP energy per Si atom -5582.200337 kJ/mol
# Density = 2.338133 g / cm^3
# Si number density = 23.434669 Si / 1000 Ang^3
#
#
#
# Elastic Constant Matrix: (Units=GPa)
#
#
# Indices 1 2 3 4 5 6 
#
# 1 92.1521 18.0194 30.6335 7.7799 0.0000 0.0000
# 2 18.0194 92.1521 30.6335 -7.7799 0.0000 0.0000
# 3 30.6335 30.6335 178.0045 0.0000 0.0000 0.0000
# 4 7.7799 -7.7799 0.0000 23.7480 0.0000 0.0000
# 5 0.0000 0.0000 0.0000 0.0000 23.7480 7.7799
# 6 0.0000 0.0000 0.0000 0.0000 7.7799 37.0663
#
#
#
# Elastic Compliance Matrix: (Units=1/GPa)
#
#
# Indices 1 2 3 4 5 6 
#
# 1 0.012261 -0.002224 -0.001727 -0.004745 0.000000 0.000000
# 2 -0.002224 0.012261 -0.001727 0.004745 0.000000 0.000000
# 3 -0.001727 -0.001727 0.006212 0.000000 0.000000 0.000000
# 4 -0.004745 0.004745 0.000000 0.045218 0.000000 0.000000
# 5 0.000000 0.000000 0.000000 0.000000 0.045218 -0.009491
# 6 0.000000 0.000000 0.000000 0.000000 -0.009491 0.028971
#
#
# Mechanical properties :
#
#
# Convention : Reuss Voigt Hill
#
# Bulk Modulus (GPa) = 51.60593 57.87572 54.74083
# Shear Modulus (GPa) = 29.76925 35.78063 32.77494
#
# Velocity S-wave (km/s) = 3.56800 3.91170 3.74380
# Velocity P-wave (km/s) = 6.24846 6.71953 6.48827
#
# Compressibility (1/GPa) = 0.01937762
#
# Stress axis : x y z
#
# Youngs Moduli (GPa) = 81.55701 81.55701 160.96902
#
# Poissons Ratio (x) = 0.18138 0.27805
# Poissons Ratio (y) = 0.18138 0.27805
# Poissons Ratio (z) = 0.14088 0.14088
#
# Static dielectric constant tensor:
#      x y z
#    x 1.922030 0.000000 0.000000 
#    y 0.000000 1.922030 0.000000 
#    z 0.000000 0.000000 1.883650 
# 
# From -- ./inp_files/2227.got.cif
#   From: 2010.05.17/outbox.cif.g08.bks.cpg/sg165_2_cif.got.tgz:2227.got - 2010.05.20 11:02:39.
