data_PCOD9578592
_publ_section_title
;
Structure prediction by ZEFSAII (Michael W. Deem and Ramdas Pophale) SiO2 
 PCOD9578592
Probable space group: P -3 M 1
;
_chemical_formula_sum "Si O2"
_cell_formula_units_Z 54
_cell_length_a 13.067906
_cell_length_b 13.067906
_cell_length_c 23.462845
_cell_angle_alpha 90.000000
_cell_angle_beta 90.000000
_cell_angle_gamma 120.000000
_cell_volume 3469.950720
_symmetry_space_group_name_H-M "P -3 M 1"
_symmetry_group_IT_number 164
_symmetry_cell_setting 'hexagonal'
loop_
_space_group_symop_operation_xyz
x,y,z
-y,x-y,z
-x+y,-x,z
x-y,-y,-z
-x,-x+y,-z
y,x,-z
-x,-y,-z
y,-x+y,-z
x-y,x,-z
-x+y,y,z
x,x-y,z
-y,-x,z
loop_
_atom_site_type_symbol
_atom_site_label
_atom_site_fract_x
_atom_site_fract_y
_atom_site_fract_z
Si Si1 0.576560 0.909454 0.894803
Si Si2 0.243429 0.000000 0.000000
Si Si3 0.091684 0.424792 0.207031
Si Si4 0.000651 0.757029 0.563962
Si Si5 0.424657 0.090943 0.663002
O O1 0.452759 0.905518 0.906296
O O2 0.556383 0.778192 0.887385
O O3 0.668819 0.969744 0.946473
O O4 0.633059 0.988991 0.838620
O O5 0.115532 0.884469 0.010715
O O6 0.208178 0.416356 0.194483
O O7 0.123327 0.561664 0.205240
O O8 0.052466 0.382487 0.271974
O O9 0.120470 0.879531 0.571074
O O10 0.000000 0.710607 0.500000
O O11 0.888943 0.777885 0.566400
O O12 0.983749 0.668359 0.614468
O O13 0.544484 0.088968 0.654902
O O14 0.448788 0.224394 0.658318
#
# Coordination Sequence:
#
# PCOD9578592 Si02
#       5
#    12   6  12  12  12
#     4  10  20  33  49  69  94 123 153 184 219 261
#     4  10  20  34  52  72  94 120 150 186 226 266
#     4   9  17  30  48  69  91 116 148 185 224 264
#     4   9  17  29  45  64  86 114 148 185 223 263
#     4   9  17  29  46  67  90 116 146 182 223 266
#
# _framework density 15.562181000000001
#
# number of rings (size 3 to 8) (size 9 to 14) (size 15 to 20)
#    0.000    2.667    0.000    2.000    0.000    4.000 
#    0.000    0.000    0.000    8.000    0.000    0.000 
#    0.000    0.000    0.000    0.000    0.000    0.000 
#
# Total GULP energy -300901.248448 kJ/mol
# GULP energy per Si atom -5572.245342 kJ/mol
# Density = 1.552676 g / cm^3
# Si number density = 15.562181 Si / 1000 Ang^3
#
#
#
# Elastic Constant Matrix: (Units=GPa)
#
#
# Indices 1 2 3 4 5 6 
#
# 1 92.6985 57.8710 77.3800 -2.0620 0.0000 0.0000
# 2 57.8710 92.6985 77.3800 2.0620 0.0000 0.0000
# 3 77.3800 77.3800 128.1823 0.0000 0.0000 0.0000
# 4 -2.0620 2.0620 0.0000 25.7859 0.0000 0.0000
# 5 0.0000 0.0000 0.0000 0.0000 25.7859 -2.0620
# 6 0.0000 0.0000 0.0000 0.0000 -2.0620 17.4137
#
#
#
# Elastic Compliance Matrix: (Units=1/GPa)
#
#
# Indices 1 2 3 4 5 6 
#
# 1 0.023243 -0.005744 -0.010564 0.002318 0.000000 0.000000
# 2 -0.005744 0.023243 -0.010564 -0.002318 0.000000 0.000000
# 3 -0.010564 -0.010564 0.020556 0.000000 0.000000 0.000000
# 4 0.002318 -0.002318 0.000000 0.039152 0.000000 0.000000
# 5 0.000000 0.000000 0.000000 0.000000 0.039152 0.004636
# 6 0.000000 0.000000 0.000000 0.000000 0.004636 0.057975
#
#
# Mechanical properties :
#
#
# Convention : Reuss Voigt Hill
#
# Bulk Modulus (GPa) = 75.19463 82.09347 78.64405
# Shear Modulus (GPa) = 19.12070 20.52698 19.82384
#
# Velocity S-wave (km/s) = 3.50903 3.63579 3.57297
# Velocity P-wave (km/s) = 8.05242 8.39593 8.22597
#
# Compressibility (1/GPa) = 0.01329882
#
# Stress axis : x y z
#
# Youngs Moduli (GPa) = 43.02307 43.02307 48.64875
#
# Poissons Ratio (x) = 0.24713 0.51392
# Poissons Ratio (y) = 0.24713 0.51392
# Poissons Ratio (z) = 0.45449 0.45449
#
# Static dielectric constant tensor:
#      x y z
#    x 1.490890 0.000000 0.000000 
#    y 0.000000 1.490890 0.000000 
#    z 0.000000 0.000000 1.523900 
# 
# From -- ./inp_files/4886.got.cif
#   From: 2010.05.17/outbox.cif.g08.bks.cpg/sg164_3_cif.got.tgz:4886.got - 2010.05.20 10:58:56.
