data_PCOD9578817
_publ_section_title
;
Structure prediction by ZEFSAII (Michael W. Deem and Ramdas Pophale) SiO2 
 PCOD9578817
Probable space group: P -3 C 1
;
_chemical_formula_sum "Si O2"
_cell_formula_units_Z 72
_cell_length_a 21.996069
_cell_length_b 21.996069
_cell_length_c 9.090671
_cell_angle_alpha 90.000000
_cell_angle_beta 90.000000
_cell_angle_gamma 120.000000
_cell_volume 3809.050398
_symmetry_space_group_name_H-M "P -3 C 1"
_symmetry_group_IT_number 165
_symmetry_cell_setting 'hexagonal'
loop_
_space_group_symop_operation_xyz
x,y,z
-y,x-y,z
-x+y,-x,z
x-y,-y,1/2-z
-x,-x+y,1/2-z
y,x,1/2-z
-x,-y,-z
y,-x+y,-z
x-y,x,-z
-x+y,y,1/2+z
x,x-y,1/2+z
-y,-x,1/2+z
loop_
_atom_site_type_symbol
_atom_site_label
_atom_site_fract_x
_atom_site_fract_y
_atom_site_fract_z
Si Si1 0.250098 0.986770 0.578256
Si Si2 0.937348 0.418319 0.134413
Si Si3 0.128005 0.738853 0.884507
Si Si4 0.043296 0.603953 0.387162
Si Si5 0.134532 0.029266 0.915125
Si Si6 0.632653 0.877071 0.538715
O O1 0.271318 0.938834 0.480868
O O2 0.166509 0.951714 0.574103
O O3 0.269511 0.000000 0.750000
O O4 0.289372 0.064532 0.509829
O O5 0.878046 0.337251 0.131500
O O6 0.915813 0.477834 0.154122
O O7 0.000000 0.435451 0.250000
O O8 0.978710 0.430562 0.984018
O O9 0.126420 0.759182 0.714991
O O10 0.194587 0.801587 0.965885
O O11 0.090398 0.676289 0.472799
O O12 0.000000 0.607831 0.250000
O O13 0.108306 0.000000 0.750000
O O14 0.123069 0.092015 0.964462
#
# Coordination Sequence:
#
# PCOD9578817 Si02
#       6
#    12  12  12  12  12  12
#     4  11  23  41  60  84 113 151 195 241 301 359
#     4  10  19  39  62  91 118 159 197 257 307 361
#     4  12  24  38  59  88 128 160 199 244 300 360
#     4  10  21  36  65  90 120 152 207 253 307 363
#     4  11  24  40  58  77 101 136 184 234 286 342
#     4  12  24  38  57  90 125 163 197 247 299 361
#
# _framework density 18.902346999999999
#
# number of rings (size 3 to 8) (size 9 to 14) (size 15 to 20)
#    0.000    1.000    3.333    3.667    2.333    5.333 
#    0.000    0.000    0.000    0.667    0.000    0.000 
#    0.000    0.000    0.000    0.000    0.000    0.000 
#
# Total GULP energy -401506.765482 kJ/mol
# GULP energy per Si atom -5576.482854 kJ/mol
# Density = 1.885932 g / cm^3
# Si number density = 18.902347 Si / 1000 Ang^3
#
#
#
# Elastic Constant Matrix: (Units=GPa)
#
#
# Indices 1 2 3 4 5 6 
#
# 1 70.7091 35.7660 26.4448 -11.9380 0.0000 0.0000
# 2 35.7660 70.7091 26.4448 11.9380 0.0000 0.0000
# 3 26.4448 26.4448 129.5143 0.0000 0.0000 0.0000
# 4 -11.9380 11.9380 0.0000 19.1429 0.0000 0.0000
# 5 0.0000 0.0000 0.0000 0.0000 19.1429 -11.9380
# 6 0.0000 0.0000 0.0000 0.0000 -11.9380 17.4716
#
#
#
# Elastic Compliance Matrix: (Units=1/GPa)
#
#
# Indices 1 2 3 4 5 6 
#
# 1 0.030159 -0.019707 -0.002134 0.031098 0.000000 0.000000
# 2 -0.019707 0.030159 -0.002134 -0.031098 0.000000 0.000000
# 3 -0.002134 -0.002134 0.008593 0.000000 0.000000 0.000000
# 4 0.031098 -0.031098 0.000000 0.091026 0.000000 0.000000
# 5 0.000000 0.000000 0.000000 0.000000 0.091026 0.062196
# 6 0.000000 0.000000 0.000000 0.000000 0.062196 0.099733
#
#
# Mechanical properties :
#
#
# Convention : Reuss Voigt Hill
#
# Bulk Modulus (GPa) = 47.70976 49.80486 48.75731
# Shear Modulus (GPa) = 12.32639 23.30327 17.81483
#
# Velocity S-wave (km/s) = 2.55641 3.51497 3.07329
# Velocity P-wave (km/s) = 5.83169 6.54821 6.20031
#
# Compressibility (1/GPa) = 0.02096007
#
# Stress axis : x y z
#
# Youngs Moduli (GPa) = 33.15726 33.15726 116.37836
#
# Poissons Ratio (x) = 0.65344 0.24837
# Poissons Ratio (y) = 0.65344 0.24837
# Poissons Ratio (z) = 0.07076 0.07076
#
# Static dielectric constant tensor:
#      x y z
#    x 1.706460 0.000000 0.000000 
#    y 0.000000 1.706460 0.000000 
#    z 0.000000 0.000000 1.974790 
# 
# From -- ./inp_files/780.got.cif
#   From: 2010.05.17/outbox.cif.g08.bks.cpg/sg165_1_cif.got.tgz:780.got - 2010.05.20 11:02:39.
