data_PCOD9578857
_publ_section_title
;
Structure prediction by ZEFSAII (Michael W. Deem and Ramdas Pophale) SiO2 
 PCOD9578857
Probable space group: P -3 C 1
;
_chemical_formula_sum "Si O2"
_cell_formula_units_Z 48
_cell_length_a 12.191371
_cell_length_b 12.191371
_cell_length_c 19.048553
_cell_angle_alpha 90.000000
_cell_angle_beta 90.000000
_cell_angle_gamma 120.000000
_cell_volume 2451.871568
_symmetry_space_group_name_H-M "P -3 C 1"
_symmetry_group_IT_number 165
_symmetry_cell_setting 'hexagonal'
loop_
_space_group_symop_operation_xyz
x,y,z
-y,x-y,z
-x+y,-x,z
x-y,-y,1/2-z
-x,-x+y,1/2-z
y,x,1/2-z
-x,-y,-z
y,-x+y,-z
x-y,x,-z
-x+y,y,1/2+z
x,x-y,1/2+z
-y,-x,1/2+z
loop_
_atom_site_type_symbol
_atom_site_label
_atom_site_fract_x
_atom_site_fract_y
_atom_site_fract_z
Si Si1 0.000000 0.220629 0.830582
Si Si2 0.717565 0.150122 0.830793
Si Si3 0.717565 0.150122 0.669206
Si Si4 0.000000 0.000000 0.416603
Si Si5 0.333334 0.666667 0.583335
Si Si6 0.333335 0.666668 0.416665
O O1 0.869629 0.221215 0.838533
O O2 0.000000 0.176896 0.750000
O O3 0.130371 0.351587 0.838533
O O4 0.000001 0.121777 0.885057
O O5 0.688537 0.167584 0.750000
O O6 0.661430 0.208877 0.884460
O O7 0.660668 1.000000 0.841175
O O8 0.661429 0.208876 0.615540
O O9 0.000000 0.000000 0.500000
O O10 0.333334 0.666667 0.500000
#
# Coordination Sequence:
#
# PCOD9578857 Si02
#       6
#    12  12  12   4   4   4
#     4  10  20  40  66  94 126 162 214 268 310 362
#     4  10  22  42  69  94 120 162 218 267 305 362
#     4  10  22  42  69  94 120 162 218 267 305 362
#     4  12  22  32  55  96 139 170 199 249 319 389
#     4  12  28  44  61  90 136 173 202 252 316 389
#     4  12  28  44  61  90 136 173 202 252 316 389
#
# _framework density 19.576881
#
# number of rings (size 3 to 8) (size 9 to 14) (size 15 to 20)
#    0.000    1.500    2.500    2.250    3.500    3.000 
#    0.000    0.000    0.000    0.000    0.000    0.000 
#    0.000    0.000    0.000    0.000    0.000    0.000 
#
# Total GULP energy -268281.562362 kJ/mol
# GULP energy per Si atom -5589.199216 kJ/mol
# Density = 1.953232 g / cm^3
# Si number density = 19.576881 Si / 1000 Ang^3
#
#
#
# Elastic Constant Matrix: (Units=GPa)
#
#
# Indices 1 2 3 4 5 6 
#
# 1 67.0978 31.3407 48.5268 0.0026 0.0000 0.0000
# 2 31.3407 67.0991 48.5277 0.0012 0.0000 0.0000
# 3 48.5268 48.5277 135.8470 -0.0012 0.0000 0.0000
# 4 0.0026 0.0012 -0.0012 -21.0946 0.0000 0.0000
# 5 0.0000 0.0000 0.0000 0.0000 -21.1103 -0.0003
# 6 0.0000 0.0000 0.0000 0.0000 -0.0003 17.8794
#
#
#
# Elastic Compliance Matrix: (Units=1/GPa)
#
#
# Indices 1 2 3 4 5 6 
#
# 1 0.021824 -0.006142 -0.005602 0.000003 0.000000 0.000000
# 2 -0.006142 0.021824 -0.005602 0.000001 0.000000 0.000000
# 3 -0.005602 -0.005602 0.011363 -0.000002 0.000000 0.000000
# 4 0.000003 0.000001 -0.000002 -0.047405 0.000000 0.000000
# 5 0.000000 0.000000 0.000000 0.000000 -0.047370 -0.000001
# 6 0.000000 0.000000 0.000000 0.000000 -0.000001 0.055930
#
#
# Mechanical properties :
#
#
# Convention : Reuss Voigt Hill
#
# Bulk Modulus (GPa) = 49.21415 58.53715 53.87565
# Shear Modulus (GPa) = 86.76063 4.57816 45.66940
#
# Velocity S-wave (km/s) = 6.66439 1.53089 4.83517
# Velocity P-wave (km/s) = 9.18762 5.75247 7.66496
#
# Compressibility (1/GPa) = 0.02031936
#
# Stress axis : x y z
#
# Youngs Moduli (GPa) = 45.82141 45.82191 88.00235
#
# Poissons Ratio (x) = 0.28145 0.49296
# Poissons Ratio (y) = 0.28145 0.49297
# Poissons Ratio (z) = 0.25668 0.25669
#
# Static dielectric constant tensor:
#      x y z
#    x 1.686950 0.000000 0.000000 
#    y 0.000000 1.686950 0.000000 
#    z 0.000000 0.000000 1.640070 
# 
# From -- ./inp_files/2565.got.cif
#   From: 2010.05.17/outbox.cif.g08.bks.cpg/sg165_2_cif.got.tgz:2565.got - 2010.05.20 11:02:39.
