data_PCOD9578114
_publ_section_title
;
Structure prediction by ZEFSAII (Michael W. Deem and Ramdas Pophale) SiO2 
 PCOD9578114
Probable space group: P -3 1 C
;
_chemical_formula_sum "Si O2"
_cell_formula_units_Z 70
_cell_length_a 14.158412
_cell_length_b 14.158412
_cell_length_c 16.878409
_cell_angle_alpha 90.000000
_cell_angle_beta 90.000000
_cell_angle_gamma 120.000000
_cell_volume 2930.159288
_symmetry_space_group_name_H-M "P -3 1 C"
_symmetry_group_IT_number 163
_symmetry_cell_setting 'hexagonal'
loop_
_space_group_symop_operation_xyz
x,y,z
-y,x-y,z
-x+y,-x,z
-y,-x,1/2-z
-x+y,y,1/2-z
x,x-y,1/2-z
-x,-y,-z
y,-x+y,-z
x-y,x,-z
y,x,1/2+z
x-y,-y,1/2+z
-x,-x+y,1/2+z
loop_
_atom_site_type_symbol
_atom_site_label
_atom_site_fract_x
_atom_site_fract_y
_atom_site_fract_z
Si Si1 0.286869 0.885817 0.308861
Si Si2 0.666668 0.333335 0.156599
Si Si3 0.478334 0.956668 0.750000
Si Si4 0.412845 0.042201 0.981608
Si Si5 0.190097 0.217560 0.794653
Si Si6 0.730335 0.556034 0.138012
Si Si7 0.049671 0.233405 0.030783
O O1 0.222156 0.777845 0.250000
O O2 0.416514 0.959122 0.297748
O O3 0.297034 0.887467 0.404877
O O4 0.244669 0.962136 0.270225
O O5 0.666668 0.333334 0.250000
O O6 0.753167 0.456568 0.131551
O O7 0.512510 0.884016 0.801272
O O8 0.432120 0.120172 0.054828
O O9 0.287550 0.944561 0.995918
O O10 0.500000 0.000000 0.000000
O O11 0.075468 0.150936 0.750000
O O12 0.188549 0.325149 0.828413
O O13 0.226023 0.179395 0.873417
O O14 0.138087 0.206698 0.997188
#
# Coordination Sequence:
#
# PCOD9578114 Si02
#       7
#    12   4   6  12  12  12  12
#     4  11  23  42  66  91 128 180 233 288 355 435
#     4  12  21  33  60  93 136 161 214 273 345 396
#     4  10  20  40  62  88 126 166 230 274 348 420
#     4  11  23  42  68  95 140 190 240 302 372 444
#     4  10  22  39  65  98 132 175 234 279 353 430
#     4  10  22  36  59  96 126 177 215 282 348 422
#     4  11  24  44  71 105 146 192 244 308 384 449
#
# _framework density 23.889485000000001
#
# number of rings (size 3 to 8) (size 9 to 14) (size 15 to 20)
#    0.000    1.371    2.571    2.743    2.400    2.743 
#    3.600    0.000    0.000    1.029    0.000    0.000 
#    0.000    0.000    0.000    0.000    0.000    0.000 
#
# Total GULP energy -390081.155708 kJ/mol
# GULP energy per Si atom -5572.587939 kJ/mol
# Density = 2.383511 g / cm^3
# Si number density = 23.889485 Si / 1000 Ang^3
#
#
#
# Elastic Constant Matrix: (Units=GPa)
#
#
# Indices 1 2 3 4 5 6 
#
# 1 21.3722 84.2398 10.7745 0.0023 59.2728 0.0028
# 2 84.2398 21.3722 10.7743 -0.0014 -59.2732 -0.0011
# 3 10.7745 10.7743 168.6356 0.0008 -0.0001 0.0010
# 4 0.0023 -0.0014 0.0008 -21.1481 -0.0011 -59.2749
# 5 59.2728 -59.2732 -0.0001 -0.0011 -21.1467 -0.0012
# 6 0.0028 -0.0011 0.0010 -59.2749 -0.0012 -31.4361
#
#
#
# Elastic Compliance Matrix: (Units=1/GPa)
#
#
# Indices 1 2 3 4 5 6 
#
# 1 0.006653 0.002941 -0.000613 0.000000 0.010404 0.000000
# 2 0.002941 0.006653 -0.000613 0.000000 -0.010404 0.000000
# 3 -0.000613 -0.000613 0.006008 0.000000 0.000000 0.000000
# 4 0.000000 0.000000 0.000000 0.011035 0.000000 -0.020808
# 5 0.010404 -0.010404 0.000000 0.000000 0.011035 0.000000
# 6 0.000000 0.000000 0.000000 -0.020808 0.000000 0.007424
#
#
# Mechanical properties :
#
#
# Convention : Reuss Voigt Hill
#
# Bulk Modulus (GPa) = 43.96797 46.99524 45.48161
# Shear Modulus (GPa) = 94.41271 -7.70676 43.35297
#
# Velocity S-wave (km/s) = 6.29336 -1.79806 4.26459
# Velocity P-wave (km/s) = 8.44116 3.92479 6.58245
#
# Compressibility (1/GPa) = 0.02274383
#
# Stress axis : x y z
#
# Youngs Moduli (GPa) = 150.31298 150.31461 166.43723
#
# Poissons Ratio (x) = -0.44207 0.10202
# Poissons Ratio (y) = -0.44206 0.10202
# Poissons Ratio (z) = 0.09213 0.09214
#
# Static dielectric constant tensor:
#      x y z
#    x 1.953130 -0.000010 0.000000 
#    y -0.000010 1.953120 0.000000 
#    z 0.000000 0.000000 1.801890 
# 
# From -- ./inp_files/3172.got.cif
#   From: 2010.05.17/outbox.cif.g08.bks.cpg/sg163_2_cif.got.tgz:3172.got - 2010.05.20 10:56:03.
