data_PCOD9578647
_publ_section_title
;
Structure prediction by ZEFSAII (Michael W. Deem and Ramdas Pophale) SiO2 
 PCOD9578647
Probable space group: P -3 M 1
;
_chemical_formula_sum "Si O2"
_cell_formula_units_Z 60
_cell_length_a 18.100372
_cell_length_b 18.100372
_cell_length_c 12.601674
_cell_angle_alpha 90.000000
_cell_angle_beta 90.000000
_cell_angle_gamma 120.000000
_cell_volume 3575.476050
_symmetry_space_group_name_H-M "P -3 M 1"
_symmetry_group_IT_number 164
_symmetry_cell_setting 'hexagonal'
loop_
_space_group_symop_operation_xyz
x,y,z
-y,x-y,z
-x+y,-x,z
x-y,-y,-z
-x,-x+y,-z
y,x,-z
-x,-y,-z
y,-x+y,-z
x-y,x,-z
-x+y,y,z
x,x-y,z
-y,-x,z
loop_
_atom_site_type_symbol
_atom_site_label
_atom_site_fract_x
_atom_site_fract_y
_atom_site_fract_z
Si Si1 0.092844 0.356000 0.209861
Si Si2 0.492398 0.159337 0.965824
Si Si3 0.269565 0.902504 0.837228
Si Si4 0.263309 0.907519 0.461128
Si Si5 0.332972 0.840193 0.637033
O O1 0.165395 0.330790 0.188245
O O2 0.122326 0.442526 0.144221
O O3 0.091567 0.369523 0.335672
O O4 0.998274 0.288238 0.172134
O O5 0.575243 0.150486 0.975981
O O6 0.516345 0.258173 0.973008
O O7 0.424750 0.111095 0.059621
O O8 0.170486 0.829515 0.839812
O O9 0.310911 0.883201 0.734735
O O10 0.166662 0.833339 0.483597
O O11 0.322176 0.881882 0.529571
O O12 0.284319 0.000000 0.500000
O O13 0.424829 0.849657 0.647775
O O14 0.258975 0.741025 0.636994
#
# Coordination Sequence:
#
# PCOD9578647 Si02
#       5
#    12  12  12  12  12
#     4  10  21  36  53  77 106 137 173 215 265 319
#     4  10  21  36  54  77 108 144 181 218 259 306
#     4  10  20  35  55  78 103 135 174 216 264 313
#     4  10  20  36  55  76 102 137 178 218 267 320
#     4  10  20  33  50  74 103 135 172 214 261 308
#
# _framework density 16.780982000000002
#
# number of rings (size 3 to 8) (size 9 to 14) (size 15 to 20)
#    0.000    2.000    2.000    1.600    0.000    3.600 
#    0.000    2.000    0.000    3.000    0.000    0.000 
#    0.000    4.800    0.000    0.000    0.000    0.000 
#
# Total GULP energy -334822.755253 kJ/mol
# GULP energy per Si atom -5580.379254 kJ/mol
# Density = 1.674279 g / cm^3
# Si number density = 16.780982 Si / 1000 Ang^3
#
#
#
# Elastic Constant Matrix: (Units=GPa)
#
#
# Indices 1 2 3 4 5 6 
#
# 1 79.7056 65.5755 40.5962 0.2364 0.0000 0.0000
# 2 65.5755 79.7056 40.5962 -0.2364 0.0000 0.0000
# 3 40.5962 40.5962 89.7148 0.0000 0.0000 0.0000
# 4 0.2364 -0.2364 0.0000 17.4604 0.0000 0.0000
# 5 0.0000 0.0000 0.0000 0.0000 17.4604 0.2364
# 6 0.0000 0.0000 0.0000 0.0000 0.2364 7.0650
#
#
#
# Elastic Compliance Matrix: (Units=1/GPa)
#
#
# Indices 1 2 3 4 5 6 
#
# 1 0.040008 -0.030795 -0.004169 -0.000958 0.000000 0.000000
# 2 -0.030795 0.040008 -0.004169 0.000958 0.000000 0.000000
# 3 -0.004169 -0.004169 0.014919 0.000000 0.000000 0.000000
# 4 -0.000958 0.000958 0.000000 0.057299 0.000000 0.000000
# 5 0.000000 0.000000 0.000000 0.000000 0.057299 -0.001917
# 6 0.000000 0.000000 0.000000 0.000000 -0.001917 0.141606
#
#
# Mechanical properties :
#
#
# Convention : Reuss Voigt Hill
#
# Bulk Modulus (GPa) = 59.98896 60.29576 60.14236
# Shear Modulus (GPa) = 11.49528 15.22102 13.35815
#
# Velocity S-wave (km/s) = 2.62012 3.01498 2.82446
# Velocity P-wave (km/s) = 6.70665 6.93752 6.82306
#
# Compressibility (1/GPa) = 0.01666973
#
# Stress axis : x y z
#
# Youngs Moduli (GPa) = 24.99493 24.99493 67.02701
#
# Poissons Ratio (x) = 0.76972 0.27943
# Poissons Ratio (y) = 0.76972 0.27943
# Poissons Ratio (z) = 0.10420 0.10420
#
# Static dielectric constant tensor:
#      x y z
#    x 1.551420 0.000000 0.000000 
#    y 0.000000 1.551420 0.000000 
#    z 0.000000 0.000000 1.581640 
# 
# From -- ./inp_files/2669.got.cif
#   From: 2010.05.17/outbox.cif.g08.bks.cpg/sg164_2_cif.got.tgz:2669.got - 2010.05.20 10:58:56.
