data_PCOD9578196
_publ_section_title
;
Structure prediction by ZEFSAII (Michael W. Deem and Ramdas Pophale) SiO2 
 PCOD9578196
Probable space group: P -3 1 C
;
_chemical_formula_sum "Si O2"
_cell_formula_units_Z 60
_cell_length_a 14.394814
_cell_length_b 14.394814
_cell_length_c 14.770209
_cell_angle_alpha 90.000000
_cell_angle_beta 90.000000
_cell_angle_gamma 120.000000
_cell_volume 2650.509637
_symmetry_space_group_name_H-M "P -3 1 C"
_symmetry_group_IT_number 163
_symmetry_cell_setting 'hexagonal'
loop_
_space_group_symop_operation_xyz
x,y,z
-y,x-y,z
-x+y,-x,z
-y,-x,1/2-z
-x+y,y,1/2-z
x,x-y,1/2-z
-x,-y,-z
y,-x+y,-z
x-y,x,-z
y,x,1/2+z
x-y,-y,1/2+z
-x,-x+y,1/2+z
loop_
_atom_site_type_symbol
_atom_site_label
_atom_site_fract_x
_atom_site_fract_y
_atom_site_fract_z
Si Si1 0.387448 0.530759 0.155817
Si Si2 0.774192 0.321220 0.033384
Si Si3 0.634879 0.634547 0.098057
Si Si4 0.751343 0.714447 0.780883
Si Si5 0.046827 0.814395 0.532234
O O1 0.406754 0.593247 0.250000
O O2 0.323018 0.545650 0.075207
O O3 0.508027 0.569337 0.119962
O O4 0.317773 0.404843 0.177341
O O5 0.771415 0.428634 0.063577
O O6 0.880400 0.326315 0.065184
O O7 0.702896 0.690344 0.187774
O O8 0.663606 0.725521 0.022380
O O9 0.867983 0.735965 0.750000
O O10 0.758225 0.793748 0.860091
O O11 0.931762 0.793971 0.496883
#
# Coordination Sequence:
#
# PCOD9578196 Si02
#       5
#    12  12  12  12  12
#     4  10  23  38  68 103 143 184 239 295 340 421
#     4  10  24  37  66 106 146 190 235 291 352 420
#     4  11  24  45  71 103 144 192 236 288 359 431
#     4  11  24  45  72 107 137 182 242 288 354 429
#     4  12  27  47  76 102 138 181 234 304 370 424
#
# _framework density 22.637156999999998
#
# number of rings (size 3 to 8) (size 9 to 14) (size 15 to 20)
#    0.400    0.800    4.000    0.800    8.400    0.800 
#    0.000    4.000    0.000    0.000    0.000    0.000 
#    0.000    0.000    0.000    0.000    0.000    0.000 
#
# Total GULP energy -335583.380143 kJ/mol
# GULP energy per Si atom -5593.056336 kJ/mol
# Density = 2.258563 g / cm^3
# Si number density = 22.637157 Si / 1000 Ang^3
#
#
#
# Elastic Constant Matrix: (Units=GPa)
#
#
# Indices 1 2 3 4 5 6 
#
# 1 64.8912 -0.6697 12.2426 0.0000 18.7928 0.0000
# 2 -0.6697 64.8912 12.2426 0.0000 -18.7928 0.0000
# 3 12.2426 12.2426 109.0037 0.0000 0.0000 0.0000
# 4 0.0000 0.0000 0.0000 27.8454 0.0000 -18.7928
# 5 18.7928 -18.7928 0.0000 0.0000 27.8454 0.0000
# 6 0.0000 0.0000 0.0000 -18.7928 0.0000 32.7804
#
#
#
# Elastic Compliance Matrix: (Units=1/GPa)
#
#
# Indices 1 2 3 4 5 6 
#
# 1 0.020573 -0.004306 -0.001827 0.000000 -0.016791 0.000000
# 2 -0.004306 0.020573 -0.001827 0.000000 0.016791 0.000000
# 3 -0.001827 -0.001827 0.009584 0.000000 0.000000 0.000000
# 4 0.000000 0.000000 0.000000 0.058577 0.000000 0.033582
# 5 -0.016791 0.016791 0.000000 0.000000 0.058577 0.000000
# 6 0.000000 0.000000 0.000000 0.033582 0.000000 0.049758
#
#
# Mechanical properties :
#
#
# Convention : Reuss Voigt Hill
#
# Bulk Modulus (GPa) = 28.72618 31.82415 30.27516
# Shear Modulus (GPa) = 20.39422 32.02559 26.20991
#
# Velocity S-wave (km/s) = 3.00479 3.76538 3.40638
# Velocity P-wave (km/s) = 4.97551 5.74395 5.37348
#
# Compressibility (1/GPa) = 0.03481146
#
# Stress axis : x y z
#
# Youngs Moduli (GPa) = 48.60636 48.60636 104.33605
#
# Poissons Ratio (x) = 0.20929 0.19063
# Poissons Ratio (y) = 0.20929 0.19063
# Poissons Ratio (z) = 0.08881 0.08881
#
# Static dielectric constant tensor:
#      x y z
#    x 1.854840 0.000000 0.000000 
#    y 0.000000 1.854840 0.000000 
#    z 0.000000 0.000000 1.850950 
# 
# From -- ./inp_files/2370.got.cif
#   From: 2010.05.17/outbox.cif.g08.bks.cpg/sg163_2_cif.got.tgz:2370.got - 2010.05.20 10:56:03.
