data_PCOD9578686
_publ_section_title
;
Structure prediction by ZEFSAII (Michael W. Deem and Ramdas Pophale) SiO2 
 PCOD9578686
Probable space group: P -3 M 1
;
_chemical_formula_sum "Si O2"
_cell_formula_units_Z 84
_cell_length_a 17.909586
_cell_length_b 17.909586
_cell_length_c 14.900045
_cell_angle_alpha 90.000000
_cell_angle_beta 90.000000
_cell_angle_gamma 120.000000
_cell_volume 4138.941664
_symmetry_space_group_name_H-M "P -3 M 1"
_symmetry_group_IT_number 164
_symmetry_cell_setting 'hexagonal'
loop_
_space_group_symop_operation_xyz
x,y,z
-y,x-y,z
-x+y,-x,z
x-y,-y,-z
-x,-x+y,-z
y,x,-z
-x,-y,-z
y,-x+y,-z
x-y,x,-z
-x+y,y,z
x,x-y,z
-y,-x,z
loop_
_atom_site_type_symbol
_atom_site_label
_atom_site_fract_x
_atom_site_fract_y
_atom_site_fract_z
Si Si1 0.902096 0.533534 0.430164
Si Si2 0.278027 0.051374 0.413819
Si Si3 0.605223 0.034641 0.800389
Si Si4 0.172695 0.000793 0.767425
Si Si5 0.495678 0.161505 0.635351
Si Si6 0.332224 0.835220 0.762000
Si Si7 0.244087 0.928523 0.077208
O O1 0.945510 0.472755 0.420285
O O2 0.953742 0.635272 0.415762
O O3 0.836289 0.502042 0.346911
O O4 0.134942 0.655140 0.469559
O O5 0.301847 0.150924 0.419588
O O6 0.225701 0.013115 0.323116
O O7 0.223083 0.000000 0.500000
O O8 0.519625 0.039249 0.821564
O O9 0.641703 0.085719 0.706937
O O10 0.677818 0.076716 0.875965
O O11 0.572878 0.932748 0.789711
O O12 0.089494 0.910507 0.791703
O O13 0.146569 0.073285 0.751486
O O14 0.242944 0.034712 0.845335
O O15 0.595977 0.191953 0.651210
O O16 0.475643 0.237822 0.650454
O O17 0.409306 0.818612 0.791755
O O18 0.239028 0.760972 0.792816
O O19 0.164234 0.835767 0.048806
O O20 0.281689 0.000000 0.000000
#
# Coordination Sequence:
#
# PCOD9578686 Si02
#       7
#    12  12  12  12  12  12  12
#     4  10  22  35  51  76 111 157 206 256 305 352
#     4  11  23  37  56  85 119 160 205 248 296 350
#     4  10  23  40  61  90 121 156 197 243 302 362
#     4  10  22  41  64  91 124 161 203 250 302 362
#     4  10  20  35  55  81 115 157 203 249 297 354
#     4  10  20  35  54  80 115 159 208 256 303 352
#     4  11  24  42  67  97 125 157 197 247 305 366
#
# _framework density 20.295041999999999
#
# number of rings (size 3 to 8) (size 9 to 14) (size 15 to 20)
#    0.000    1.714    0.000    3.857    4.000    2.857 
#    0.000    1.429    0.000    5.143    0.000    1.000 
#    0.000    0.000    0.000    0.000    0.000    0.000 
#
# Total GULP energy -469353.188269 kJ/mol
# GULP energy per Si atom -5587.537956 kJ/mol
# Density = 2.024885 g / cm^3
# Si number density = 20.295042 Si / 1000 Ang^3
#
#
#
# Elastic Constant Matrix: (Units=GPa)
#
#
# Indices 1 2 3 4 5 6 
#
# 1 80.5505 44.7246 26.5492 -0.8704 0.0000 0.0000
# 2 44.7246 80.5505 26.5492 0.8704 0.0000 0.0000
# 3 26.5492 26.5492 62.5160 0.0000 0.0000 0.0000
# 4 -0.8704 0.8704 0.0000 25.7755 0.0000 0.0000
# 5 0.0000 0.0000 0.0000 0.0000 25.7755 -0.8704
# 6 0.0000 0.0000 0.0000 0.0000 -0.8704 17.9130
#
#
#
# Elastic Compliance Matrix: (Units=1/GPa)
#
#
# Indices 1 2 3 4 5 6 
#
# 1 0.018847 -0.009112 -0.004134 0.000944 0.000000 0.000000
# 2 -0.009112 0.018847 -0.004134 -0.000944 0.000000 0.000000
# 3 -0.004134 -0.004134 0.019507 0.000000 0.000000 0.000000
# 4 0.000944 -0.000944 0.000000 0.038860 0.000000 0.000000
# 5 0.000000 0.000000 0.000000 0.000000 0.038860 0.001888
# 6 0.000000 0.000000 0.000000 0.000000 0.001888 0.055917
#
#
# Mechanical properties :
#
#
# Convention : Reuss Voigt Hill
#
# Bulk Modulus (GPa) = 44.56297 46.58480 45.57389
# Shear Modulus (GPa) = 21.45198 22.27907 21.86553
#
# Velocity S-wave (km/s) = 3.25469 3.31684 3.28591
# Velocity P-wave (km/s) = 6.01076 6.13777 6.07460
#
# Compressibility (1/GPa) = 0.02244016
#
# Stress axis : x y z
#
# Youngs Moduli (GPa) = 53.05980 53.05980 51.26301
#
# Poissons Ratio (x) = 0.48348 0.21193
# Poissons Ratio (y) = 0.48348 0.21193
# Poissons Ratio (z) = 0.21936 0.21936
#
# Static dielectric constant tensor:
#      x y z
#    x 1.734610 0.000000 0.000000 
#    y 0.000000 1.734610 0.000000 
#    z 0.000000 0.000000 1.698510 
# 
# From -- ./inp_files/3543.got.cif
#   From: 2010.05.17/outbox.cif.g08.bks.cpg/sg164_2_cif.got.tgz:3543.got - 2010.05.20 10:58:56.
