data_PCOD9578159
_publ_section_title
;
Structure prediction by ZEFSAII (Michael W. Deem and Ramdas Pophale) SiO2 
 PCOD9578159
Probable space group: P -3 1 C
;
_chemical_formula_sum "Si O2"
_cell_formula_units_Z 72
_cell_length_a 14.408056
_cell_length_b 14.408056
_cell_length_c 18.049327
_cell_angle_alpha 90.000000
_cell_angle_beta 90.000000
_cell_angle_gamma 120.000000
_cell_volume 3244.908241
_symmetry_space_group_name_H-M "P -3 1 C"
_symmetry_group_IT_number 163
_symmetry_cell_setting 'hexagonal'
loop_
_space_group_symop_operation_xyz
x,y,z
-y,x-y,z
-x+y,-x,z
-y,-x,1/2-z
-x+y,y,1/2-z
x,x-y,1/2-z
-x,-y,-z
y,-x+y,-z
x-y,x,-z
y,x,1/2+z
x-y,-y,1/2+z
-x,-x+y,1/2+z
loop_
_atom_site_type_symbol
_atom_site_label
_atom_site_fract_x
_atom_site_fract_y
_atom_site_fract_z
Si Si1 0.459532 0.549706 0.062857
Si Si2 0.853206 0.789121 0.541016
Si Si3 0.216690 0.763189 0.025984
Si Si4 0.464927 0.691067 0.634600
Si Si5 0.398443 0.412993 0.794898
Si Si6 0.802694 0.802798 0.212166
O O1 0.333800 0.468540 0.078484
O O2 0.462989 0.658986 0.038995
O O3 0.544065 0.583061 0.128275
O O4 0.500000 0.500000 0.000000
O O5 0.824423 0.848340 0.476852
O O6 0.793620 0.661651 0.531618
O O7 0.824137 0.814168 0.622718
O O8 0.190191 0.713994 0.943727
O O9 0.422048 0.774719 0.640398
O O10 0.540870 0.682218 0.693564
O O11 0.500525 0.499476 0.750000
O O12 0.318965 0.291623 0.771279
O O13 0.821871 0.910936 0.250000
O O14 0.888099 0.776198 0.250000
#
# Coordination Sequence:
#
# PCOD9578159 Si02
#       6
#    12  12  12  12  12  12
#     4  12  23  45  70 107 151 187 252 306 382 459
#     4  12  26  47  77 110 141 192 269 326 390 451
#     4  12  21  41  73 110 144 191 236 317 381 453
#     4  10  21  40  67 105 145 184 244 299 381 441
#     4  12  28  45  71 111 153 204 254 313 386 481
#     4  12  29  54  77 109 158 214 265 329 404 467
#
# _framework density 22.188609
#
# number of rings (size 3 to 8) (size 9 to 14) (size 15 to 20)
#    0.333    0.000    5.000    3.667    4.667    0.000 
#    3.000    0.000    0.000    0.333    0.000    0.000 
#    0.000    0.000    0.000    0.000    0.000    0.000 
#
# Total GULP energy -402052.516355 kJ/mol
# GULP energy per Si atom -5584.062727 kJ/mol
# Density = 2.213811 g / cm^3
# Si number density = 22.188609 Si / 1000 Ang^3
#
#
#
# Elastic Constant Matrix: (Units=GPa)
#
#
# Indices 1 2 3 4 5 6 
#
# 1 104.4309 20.2086 35.1212 -0.0001 2.3420 0.0000
# 2 20.2086 104.4309 35.1212 0.0001 -2.3420 0.0000
# 3 35.1212 35.1212 61.3650 0.0000 0.0000 0.0000
# 4 -0.0001 0.0001 0.0000 30.9865 0.0000 -2.3420
# 5 2.3420 -2.3420 0.0000 0.0000 30.9865 -0.0001
# 6 0.0000 0.0000 0.0000 -2.3420 -0.0001 42.1112
#
#
#
# Elastic Compliance Matrix: (Units=1/GPa)
#
#
# Indices 1 2 3 4 5 6 
#
# 1 0.011883 -0.000040 -0.006778 0.000000 -0.000901 0.000000
# 2 -0.000040 0.011883 -0.006778 0.000000 0.000901 0.000000
# 3 -0.006778 -0.006778 0.024055 0.000000 0.000000 0.000000
# 4 0.000000 0.000000 0.000000 0.032408 0.000000 0.001802
# 5 -0.000901 0.000901 0.000000 0.000000 0.032408 0.000000
# 6 0.000000 0.000000 0.000000 0.001802 0.000000 0.023847
#
#
# Mechanical properties :
#
#
# Convention : Reuss Voigt Hill
#
# Bulk Modulus (GPa) = 48.47752 50.12542 49.30147
# Shear Modulus (GPa) = 29.31624 32.80189 31.05906
#
# Velocity S-wave (km/s) = 3.63882 3.84907 3.74542
# Velocity P-wave (km/s) = 6.28888 6.51102 6.40091
#
# Compressibility (1/GPa) = 0.02062812
#
# Stress axis : x y z
#
# Youngs Moduli (GPa) = 84.15198 84.15198 41.57197
#
# Poissons Ratio (x) = 0.00338 0.28178
# Poissons Ratio (y) = 0.00338 0.28178
# Poissons Ratio (z) = 0.57040 0.57040
#
# Static dielectric constant tensor:
#      x y z
#    x 1.865920 0.000000 0.000000 
#    y 0.000000 1.865920 0.000000 
#    z 0.000000 0.000000 1.922130 
# 
# From -- ./inp_files/3140.got.cif
#   From: 2010.05.17/outbox.cif.g08.bks.cpg/sg163_2_cif.got.tgz:3140.got - 2010.05.20 10:56:03.
