data_PCOD9578776
_publ_section_title
;
Structure prediction by ZEFSAII (Michael W. Deem and Ramdas Pophale) SiO2 
 PCOD9578776
Probable space group: P -3 C 1
;
_chemical_formula_sum "Si O2"
_cell_formula_units_Z 62
_cell_length_a 16.301612
_cell_length_b 16.301612
_cell_length_c 16.990986
_cell_angle_alpha 90.000000
_cell_angle_beta 90.000000
_cell_angle_gamma 120.000000
_cell_volume 3910.302162
_symmetry_space_group_name_H-M "P -3 C 1"
_symmetry_group_IT_number 165
_symmetry_cell_setting 'hexagonal'
loop_
_space_group_symop_operation_xyz
x,y,z
-y,x-y,z
-x+y,-x,z
x-y,-y,1/2-z
-x,-x+y,1/2-z
y,x,1/2-z
-x,-y,-z
y,-x+y,-z
x-y,x,-z
-x+y,y,1/2+z
x,x-y,1/2+z
-y,-x,1/2+z
loop_
_atom_site_type_symbol
_atom_site_label
_atom_site_fract_x
_atom_site_fract_y
_atom_site_fract_z
Si Si1 0.016079 0.611607 0.580036
Si Si2 0.333334 0.666668 0.576685
Si Si3 0.333334 0.666668 0.887966
Si Si4 0.053404 0.433942 0.590160
Si Si5 0.444564 0.444564 0.250000
Si Si6 0.496759 0.648187 0.302176
Si Si7 0.745027 0.211091 0.856611
O O1 0.045880 0.529588 0.580600
O O2 0.106690 0.706884 0.609218
O O3 0.986251 0.618862 0.491748
O O4 0.927489 0.574316 0.639821
O O5 0.333334 0.666667 0.482436
O O6 0.428292 0.752621 0.611431
O O7 0.232965 0.647388 0.854203
O O8 0.154704 0.445718 0.610301
O O9 0.995252 0.390992 0.670311
O O10 0.458156 0.550046 0.252971
O O11 0.531740 0.731191 0.237595
#
# Coordination Sequence:
#
# PCOD9578776 Si02
#       7
#    12   4   4  12   6  12  12
#     4  10  21  36  49  70 108 128 179 230 276 297
#     4  12  22  29  46  78  88 128 181 235 242 298
#     4  12  25  29  49  75  97 131 205 211 260 328
#     4  10  20  33  51  69  96 140 168 219 270 310
#     4  10  18  34  48  66 100 128 168 224 284 288
#     4  11  20  34  48  70  96 136 173 234 260 315
#     4  12  19  35  51  70  98 137 182 216 268 316
#
# _framework density 15.855551999999999
#
# number of rings (size 3 to 8) (size 9 to 14) (size 15 to 20)
#    0.000    1.161    5.806    3.484    5.419    0.000 
#    3.484    0.000    0.000    0.000    0.000    0.000 
#    0.000    0.000    0.000    0.581    9.290    0.387 
#
# Total GULP energy -345606.368457 kJ/mol
# GULP energy per Si atom -5574.296265 kJ/mol
# Density = 1.581946 g / cm^3
# Si number density = 15.855552 Si / 1000 Ang^3
#
#
#
# Elastic Constant Matrix: (Units=GPa)
#
#
# Indices 1 2 3 4 5 6 
#
# 1 53.8898 22.2507 29.7146 -0.7377 0.0000 0.0000
# 2 22.2507 53.8899 29.7146 0.7371 0.0000 0.0000
# 3 29.7146 29.7146 138.0474 0.0003 0.0000 0.0000
# 4 -0.7377 0.7371 0.0003 17.1547 0.0000 0.0000
# 5 0.0000 0.0000 0.0000 0.0000 17.1546 -0.7379
# 6 0.0000 0.0000 0.0000 0.0000 -0.7379 15.8194
#
#
#
# Elastic Compliance Matrix: (Units=1/GPa)
#
#
# Indices 1 2 3 4 5 6 
#
# 1 0.023728 -0.007942 -0.003398 0.001362 0.000000 0.000000
# 2 -0.007942 0.023728 -0.003398 -0.001361 0.000000 0.000000
# 3 -0.003398 -0.003398 0.008707 0.000000 0.000000 0.000000
# 4 0.001362 -0.001361 0.000000 0.058410 0.000000 0.000000
# 5 0.000000 0.000000 0.000000 0.000000 0.058410 0.002725
# 6 0.000000 0.000000 0.000000 0.000000 0.002725 0.063341
#
#
# Mechanical properties :
#
#
# Convention : Reuss Voigt Hill
#
# Bulk Modulus (GPa) = 37.47197 45.46523 41.46860
# Shear Modulus (GPa) = 18.20204 20.96890 19.58547
#
# Velocity S-wave (km/s) = 3.39188 3.64056 3.51842
# Velocity P-wave (km/s) = 6.24695 6.81237 6.53578
#
# Compressibility (1/GPa) = 0.02668662
#
# Stress axis : x y z
#
# Youngs Moduli (GPa) = 42.14459 42.14473 114.85457
#
# Poissons Ratio (x) = 0.33472 0.39026
# Poissons Ratio (y) = 0.33472 0.39026
# Poissons Ratio (z) = 0.14320 0.14320
#
# Static dielectric constant tensor:
#      x y z
#    x 1.540370 0.000000 0.000000 
#    y 0.000000 1.540370 0.000000 
#    z 0.000000 0.000000 1.579520 
# 
# From -- ./inp_files/2237.got.cif
#   From: 2010.05.17/outbox.cif.g08.bks.cpg/sg165_2_cif.got.tgz:2237.got - 2010.05.20 11:02:39.
