data_PCOD9578404
_publ_section_title
;
Structure prediction by ZEFSAII (Michael W. Deem and Ramdas Pophale) SiO2 
 PCOD9578404
Probable space group: P -3 M 1
;
_chemical_formula_sum "Si O2"
_cell_formula_units_Z 72
_cell_length_a 22.677772
_cell_length_b 22.677772
_cell_length_c 9.510887
_cell_angle_alpha 90.000000
_cell_angle_beta 90.000000
_cell_angle_gamma 120.000000
_cell_volume 4235.965582
_symmetry_space_group_name_H-M "P -3 M 1"
_symmetry_group_IT_number 164
_symmetry_cell_setting 'hexagonal'
loop_
_space_group_symop_operation_xyz
x,y,z
-y,x-y,z
-x+y,-x,z
x-y,-y,-z
-x,-x+y,-z
y,x,-z
-x,-y,-z
y,-x+y,-z
x-y,x,-z
-x+y,y,z
x,x-y,z
-y,-x,z
loop_
_atom_site_type_symbol
_atom_site_label
_atom_site_fract_x
_atom_site_fract_y
_atom_site_fract_z
Si Si1 0.255880 0.879448 0.610784
Si Si2 0.326271 0.967163 0.862737
Si Si3 0.055357 0.417099 0.391323
Si Si4 0.333498 0.536287 0.684060
Si Si5 0.801909 0.469311 0.713246
Si Si6 0.637905 0.142729 0.017572
O O1 0.179406 0.820595 0.590573
O O2 0.266627 0.923378 0.751079
O O3 0.290822 0.923367 0.472389
O O4 0.301737 0.843453 0.637545
O O5 0.349162 0.917139 0.933646
O O6 0.385507 0.019883 0.757581
O O7 0.312424 0.000000 0.000000
O O8 0.125553 0.486190 0.363423
O O9 0.000000 0.417214 0.500000
O O10 0.279955 0.559910 0.645691
O O11 0.408887 0.591114 0.633878
O O12 0.337660 0.532291 0.852389
O O13 0.740690 0.481379 0.664669
O O14 0.780424 0.390212 0.705714
O O15 0.819690 0.493396 0.874966
O O16 0.557858 0.115716 0.997046
#
# Coordination Sequence:
#
# PCOD9578404 Si02
#       6
#    12  12  12  12  12  12
#     4   9  19  34  49  68  98 130 159 197 256 320
#     4  10  18  33  52  76  94 119 161 212 256 304
#     4  10  21  36  54  72  98 129 164 210 268 322
#     4   9  16  27  43  62  85 114 151 191 237 297
#     4  11  22  35  51  72 100 132 168 211 267 333
#     4   9  18  30  46  67  91 118 150 198 257 315
#
# _framework density 16.997305999999998
#
# number of rings (size 3 to 8) (size 9 to 14) (size 15 to 20)
#    0.000    2.333    1.667    1.333    0.000    2.667 
#    0.000    5.000    0.000    2.000    0.000    0.000 
#    0.000    0.000    0.000    0.000    0.000    0.000 
#
# Total GULP energy -401200.173709 kJ/mol
# GULP energy per Si atom -5572.224635 kJ/mol
# Density = 1.695862 g / cm^3
# Si number density = 16.997306 Si / 1000 Ang^3
#
#
#
# Elastic Constant Matrix: (Units=GPa)
#
#
# Indices 1 2 3 4 5 6 
#
# 1 54.2561 33.2738 17.2831 -3.0928 0.0000 0.0000
# 2 33.2738 54.2561 17.2831 3.0928 0.0000 0.0000
# 3 17.2831 17.2831 110.9257 0.0000 0.0000 0.0000
# 4 -3.0928 3.0928 0.0000 12.9344 0.0000 0.0000
# 5 0.0000 0.0000 0.0000 0.0000 12.9344 -3.0928
# 6 0.0000 0.0000 0.0000 0.0000 -3.0928 10.4911
#
#
#
# Elastic Compliance Matrix: (Units=1/GPa)
#
#
# Indices 1 2 3 4 5 6 
#
# 1 0.031724 -0.019550 -0.001897 0.012260 0.000000 0.000000
# 2 -0.019550 0.031724 -0.001897 -0.012260 0.000000 0.000000
# 3 -0.001897 -0.001897 0.009606 0.000000 0.000000 0.000000
# 4 0.012260 -0.012260 0.000000 0.083176 0.000000 0.000000
# 5 0.000000 0.000000 0.000000 0.000000 0.083176 0.024520
# 6 0.000000 0.000000 0.000000 0.000000 0.024520 0.102547
#
#
# Mechanical properties :
#
#
# Convention : Reuss Voigt Hill
#
# Bulk Modulus (GPa) = 37.92692 39.45753 38.69222
# Shear Modulus (GPa) = 12.58089 17.37853 14.97971
#
# Velocity S-wave (km/s) = 2.72356 3.20101 2.97189
# Velocity P-wave (km/s) = 5.67911 6.07671 5.88127
#
# Compressibility (1/GPa) = 0.02636650
#
# Stress axis : x y z
#
# Youngs Moduli (GPa) = 31.52229 31.52229 104.10053
#
# Poissons Ratio (x) = 0.61626 0.19745
# Poissons Ratio (y) = 0.61626 0.19745
# Poissons Ratio (z) = 0.05979 0.05979
#
# Static dielectric constant tensor:
#      x y z
#    x 1.585240 0.000000 0.000000 
#    y 0.000000 1.585240 0.000000 
#    z 0.000000 0.000000 1.646010 
# 
# From -- ./inp_files/1881.got.cif
#   From: 2010.05.17/outbox.cif.g08.bks.cpg/sg164_1_cif.got.tgz:1881.got - 2010.05.20 10:58:56.
