data_PCOD9578457
_publ_section_title
;
Structure prediction by ZEFSAII (Michael W. Deem and Ramdas Pophale) SiO2 
 PCOD9578457
Probable space group: P -3 M 1
;
_chemical_formula_sum "Si O2"
_cell_formula_units_Z 72
_cell_length_a 21.969528
_cell_length_b 21.969528
_cell_length_c 10.081328
_cell_angle_alpha 90.000000
_cell_angle_beta 90.000000
_cell_angle_gamma 120.000000
_cell_volume 4213.954380
_symmetry_space_group_name_H-M "P -3 M 1"
_symmetry_group_IT_number 164
_symmetry_cell_setting 'hexagonal'
loop_
_space_group_symop_operation_xyz
x,y,z
-y,x-y,z
-x+y,-x,z
x-y,-y,-z
-x,-x+y,-z
y,x,-z
-x,-y,-z
y,-x+y,-z
x-y,x,-z
-x+y,y,z
x,x-y,z
-y,-x,z
loop_
_atom_site_type_symbol
_atom_site_label
_atom_site_fract_x
_atom_site_fract_y
_atom_site_fract_z
Si Si1 0.117963 0.377208 0.676733
Si Si2 0.015692 0.326604 0.139775
Si Si3 0.333989 0.807648 0.776428
Si Si4 0.665764 0.474137 0.676020
Si Si5 0.742897 0.111738 0.616599
Si Si6 0.511466 0.625480 0.057397
O O1 0.179799 0.359597 0.708637
O O2 0.157576 0.461978 0.674113
O O3 0.085889 0.345646 0.533153
O O4 0.058482 0.353674 0.786656
O O5 0.065130 0.326530 0.257959
O O6 0.056698 0.408855 0.094323
O O7 0.000000 0.285502 0.000000
O O8 0.404980 0.809960 0.733996
O O9 0.271815 0.728186 0.798677
O O10 0.349575 0.851215 0.913570
O O11 0.732244 0.464487 0.645402
O O12 0.593112 0.406889 0.632350
O O13 0.680948 0.549824 0.625185
O O14 0.659985 0.483551 0.834254
O O15 0.814532 0.185469 0.627506
O O16 0.458098 0.541903 0.066929
#
# Coordination Sequence:
#
# PCOD9578457 Si02
#       6
#    12  12  12  12  12  12
#     4  10  21  36  51  71 100 133 165 204 255 312
#     4  11  20  33  54  78  94 126 165 209 253 302
#     4  10  19  31  48  69  97 131 172 219 270 321
#     4   9  16  27  44  65  90 121 160 206 257 308
#     4   9  20  36  52  71 101 133 164 204 254 310
#     4   9  18  30  44  66  95 123 159 209 261 311
#
# _framework density 17.086089000000001
#
# number of rings (size 3 to 8) (size 9 to 14) (size 15 to 20)
#    0.000    2.333    1.667    1.333    0.000    3.000 
#    0.000    1.667    0.000    7.000    0.000    0.000 
#    0.000    0.000    0.000    0.500    0.000    9.667 
#
# Total GULP energy -400876.526952 kJ/mol
# GULP energy per Si atom -5567.729541 kJ/mol
# Density = 1.704720 g / cm^3
# Si number density = 17.086089 Si / 1000 Ang^3
#
#
#
# Elastic Constant Matrix: (Units=GPa)
#
#
# Indices 1 2 3 4 5 6 
#
# 1 43.5895 22.9184 16.9160 0.7147 0.0000 0.0000
# 2 22.9184 43.5895 16.9160 -0.7147 0.0000 0.0000
# 3 16.9160 16.9160 85.9349 0.0000 0.0000 0.0000
# 4 0.7147 -0.7147 0.0000 18.4239 0.0000 0.0000
# 5 0.0000 0.0000 0.0000 0.0000 18.4239 0.7147
# 6 0.0000 0.0000 0.0000 0.0000 0.7147 10.3356
#
#
#
# Elastic Compliance Matrix: (Units=1/GPa)
#
#
# Indices 1 2 3 4 5 6 
#
# 1 0.032608 -0.015899 -0.003289 -0.001882 0.000000 0.000000
# 2 -0.015899 0.032608 -0.003289 0.001882 0.000000 0.000000
# 3 -0.003289 -0.003289 0.012932 0.000000 0.000000 0.000000
# 4 -0.001882 0.001882 0.000000 0.054423 0.000000 0.000000
# 5 0.000000 0.000000 0.000000 0.000000 0.054423 -0.003763
# 6 0.000000 0.000000 0.000000 0.000000 -0.003763 0.097013
#
#
# Mechanical properties :
#
#
# Convention : Reuss Voigt Hill
#
# Bulk Modulus (GPa) = 30.12675 31.84609 30.98642
# Shear Modulus (GPa) = 14.70476 17.19424 15.94950
#
# Velocity S-wave (km/s) = 2.93683 3.17571 3.05860
# Velocity P-wave (km/s) = 5.40098 5.66797 5.53609
#
# Compressibility (1/GPa) = 0.03319309
#
# Stress axis : x y z
#
# Youngs Moduli (GPa) = 30.66747 30.66747 77.32982
#
# Poissons Ratio (x) = 0.48758 0.25435
# Poissons Ratio (y) = 0.48758 0.25435
# Poissons Ratio (z) = 0.10087 0.10087
#
# Static dielectric constant tensor:
#      x y z
#    x 1.576600 0.000000 0.000000 
#    y 0.000000 1.576600 0.000000 
#    z 0.000000 0.000000 1.634870 
# 
# From -- ./inp_files/1954.got.cif
#   From: 2010.05.17/outbox.cif.g08.bks.cpg/sg164_1_cif.got.tgz:1954.got - 2010.05.20 10:58:56.
