data_PCOD9578955
_publ_section_title
;
Structure prediction by ZEFSAII (Michael W. Deem and Ramdas Pophale) SiO2 
 PCOD9578955
Probable space group: P -3 C 1
;
_chemical_formula_sum "Si O2"
_cell_formula_units_Z 54
_cell_length_a 11.363378
_cell_length_b 11.363378
_cell_length_c 21.468004
_cell_angle_alpha 90.000000
_cell_angle_beta 90.000000
_cell_angle_gamma 120.000000
_cell_volume 2400.696208
_symmetry_space_group_name_H-M "P -3 C 1"
_symmetry_group_IT_number 165
_symmetry_cell_setting 'hexagonal'
loop_
_space_group_symop_operation_xyz
x,y,z
-y,x-y,z
-x+y,-x,z
x-y,-y,1/2-z
-x,-x+y,1/2-z
y,x,1/2-z
-x,-y,-z
y,-x+y,-z
x-y,x,-z
-x+y,y,1/2+z
x,x-y,1/2+z
-y,-x,1/2+z
loop_
_atom_site_type_symbol
_atom_site_label
_atom_site_fract_x
_atom_site_fract_y
_atom_site_fract_z
Si Si1 0.116454 0.730020 0.649189
Si Si2 0.999884 0.732767 0.421323
Si Si3 0.844320 0.844320 0.250000
Si Si4 0.666667 0.333334 0.989023
Si Si5 0.408052 0.295335 0.550416
Si Si6 0.666668 0.333334 0.337791
Si Si7 0.000000 0.000000 0.425872
O O1 0.239077 0.868434 0.617938
O O2 0.029925 0.771914 0.693171
O O3 0.196569 0.665004 0.682368
O O4 0.010809 0.629653 0.597291
O O5 0.954941 0.697677 0.493346
O O6 0.156019 0.770335 0.417467
O O7 0.012256 0.875011 0.403760
O O8 0.873919 0.000000 0.250000
O O9 0.666668 0.333334 0.914302
O O10 0.811112 0.363980 0.016618
O O11 0.000000 0.000000 0.500000
#
# Coordination Sequence:
#
# PCOD9578955 Si02
#       7
#    12  12   6   4  12   4   4
#     4  12  25  45  69 103 137 186 230 285 350 413
#     4  12  19  33  64  95 134 173 222 281 339 406
#     4  10  26  52  76 102 130 170 246 316 350 392
#     4  12  27  42  58 107 154 195 222 271 347 442
#     4  12  23  38  63  98 141 182 229 277 340 414
#     4  12  27  45  70 101 151 189 225 268 353 445
#     4  12  15  27  51  97 116 157 222 270 334 383
#
# _framework density 22.493476000000001
#
# number of rings (size 3 to 8) (size 9 to 14) (size 15 to 20)
#    0.222    0.000    8.889    1.333    3.111    1.778 
#    2.000    0.000    0.000    0.000    0.000    0.000 
#    0.000    0.000    0.000    0.000    0.000    0.000 
#
# Total GULP energy -301559.115970 kJ/mol
# GULP energy per Si atom -5584.428074 kJ/mol
# Density = 2.244228 g / cm^3
# Si number density = 22.493476 Si / 1000 Ang^3
#
#
#
# Elastic Constant Matrix: (Units=GPa)
#
#
# Indices 1 2 3 4 5 6 
#
# 1 75.6577 25.8707 11.1006 -1.4388 0.0000 0.0000
# 2 25.8707 75.6568 11.1005 1.4391 0.0000 0.0000
# 3 11.1006 11.1005 55.6673 0.0002 0.0000 0.0000
# 4 -1.4388 1.4391 0.0002 20.4043 0.0000 0.0000
# 5 0.0000 0.0000 0.0000 0.0000 20.4046 -1.4390
# 6 0.0000 0.0000 0.0000 0.0000 -1.4390 24.8926
#
#
#
# Elastic Compliance Matrix: (Units=1/GPa)
#
#
# Indices 1 2 3 4 5 6 
#
# 1 0.015233 -0.004935 -0.002054 0.001422 0.000000 0.000000
# 2 -0.004935 0.015233 -0.002054 -0.001422 0.000000 0.000000
# 3 -0.002054 -0.002054 0.018783 0.000000 0.000000 0.000000
# 4 0.001422 -0.001422 0.000000 0.049210 0.000000 0.000000
# 5 0.000000 0.000000 0.000000 0.000000 0.049209 0.002845
# 6 0.000000 0.000000 0.000000 0.000000 0.002845 0.040337
#
#
# Mechanical properties :
#
#
# Convention : Reuss Voigt Hill
#
# Bulk Modulus (GPa) = 32.08673 33.68059 32.88366
# Shear Modulus (GPa) = 23.09706 23.73432 23.41569
#
# Velocity S-wave (km/s) = 3.20790 3.25185 3.22995
# Velocity P-wave (km/s) = 5.29308 5.39494 5.34425
#
# Compressibility (1/GPa) = 0.03116553
#
# Stress axis : x y z
#
# Youngs Moduli (GPa) = 65.64621 65.64541 53.23993
#
# Poissons Ratio (x) = 0.32394 0.10933
# Poissons Ratio (y) = 0.32394 0.10934
# Poissons Ratio (z) = 0.13481 0.13481
#
# Static dielectric constant tensor:
#      x y z
#    x 1.861840 0.000000 0.000000 
#    y 0.000000 1.861850 0.000000 
#    z 0.000000 0.000000 1.836110 
# 
# From -- ./inp_files/3100.got.cif
#   From: 2010.05.17/outbox.cif.g08.bks.cpg/sg165_2_cif.got.tgz:3100.got - 2010.05.20 11:02:39.
