data_PCOD9578393
_publ_section_title
;
Structure prediction by ZEFSAII (Michael W. Deem and Ramdas Pophale) SiO2 
 PCOD9578393
Probable space group: P -3 M 1
;
_chemical_formula_sum "Si O2"
_cell_formula_units_Z 72
_cell_length_a 22.712560
_cell_length_b 22.712560
_cell_length_c 10.312770
_cell_angle_alpha 90.000000
_cell_angle_beta 90.000000
_cell_angle_gamma 120.000000
_cell_volume 4607.211387
_symmetry_space_group_name_H-M "P -3 M 1"
_symmetry_group_IT_number 164
_symmetry_cell_setting 'hexagonal'
loop_
_space_group_symop_operation_xyz
x,y,z
-y,x-y,z
-x+y,-x,z
x-y,-y,-z
-x,-x+y,-z
y,x,-z
-x,-y,-z
y,-x+y,-z
x-y,x,-z
-x+y,y,z
x,x-y,z
-y,-x,z
loop_
_atom_site_type_symbol
_atom_site_label
_atom_site_fract_x
_atom_site_fract_y
_atom_site_fract_z
Si Si1 0.817216 0.043154 0.623455
Si Si2 0.944855 0.538717 0.615749
Si Si3 0.258067 0.879757 0.473025
Si Si4 0.038745 0.450496 0.866918
Si Si5 0.763431 0.950994 0.876578
Si Si6 0.262520 0.389667 0.782583
O O1 0.889757 0.110243 0.640559
O O2 0.764154 0.069094 0.588990
O O3 0.816277 0.000000 0.500000
O O4 0.795693 0.996312 0.749095
O O5 0.915901 0.457951 0.615675
O O6 0.892760 0.564795 0.588430
O O7 0.000000 0.569311 0.500000
O O8 0.985444 0.568294 0.749027
O O9 0.195625 0.804376 0.450690
O O10 0.266025 0.889722 0.628804
O O11 0.058839 0.529420 0.872104
O O12 0.101253 0.438695 0.836729
O O13 0.000000 0.416208 0.000000
O O14 0.780649 0.890325 0.886718
O O15 0.682199 0.914351 0.856231
O O16 0.788496 0.000000 0.000000
O O17 0.206796 0.413591 0.796709
#
# Coordination Sequence:
#
# PCOD9578393 Si02
#       6
#    12  12  12  12  12  12
#     4  11  20  33  53  73  95 124 159 203 250 298
#     4  10  18  30  51  74  99 133 170 203 241 297
#     4  10  19  31  50  77 105 130 162 209 255 294
#     4  10  20  33  50  75 106 136 166 207 251 289
#     4  11  22  36  52  72  98 128 163 204 251 303
#     4  10  19  32  51  76 103 133 166 203 250 300
#
# _framework density 15.627675
#
# number of rings (size 3 to 8) (size 9 to 14) (size 15 to 20)
#    0.000    1.667    3.333    3.000    0.000    0.000 
#    0.000    2.500    0.000    7.333    0.000    0.000 
#    0.000    0.000    0.000    0.000    0.000    0.000 
#
# Total GULP energy -401778.602456 kJ/mol
# GULP energy per Si atom -5580.258367 kJ/mol
# Density = 1.559211 g / cm^3
# Si number density = 15.627675 Si / 1000 Ang^3
#
#
#
# Elastic Constant Matrix: (Units=GPa)
#
#
# Indices 1 2 3 4 5 6 
#
# 1 101.4305 55.3034 40.9546 1.6629 0.0000 0.0000
# 2 55.3034 101.4305 40.9546 -1.6629 0.0000 0.0000
# 3 40.9546 40.9546 115.3015 0.0000 0.0000 0.0000
# 4 1.6629 -1.6629 0.0000 16.2919 0.0000 0.0000
# 5 0.0000 0.0000 0.0000 0.0000 16.2919 1.6629
# 6 0.0000 0.0000 0.0000 0.0000 1.6629 23.0636
#
#
#
# Elastic Compliance Matrix: (Units=1/GPa)
#
#
# Indices 1 2 3 4 5 6 
#
# 1 0.014837 -0.007003 -0.002783 -0.002229 0.000000 0.000000
# 2 -0.007003 0.014837 -0.002783 0.002229 0.000000 0.000000
# 3 -0.002783 -0.002783 0.010650 0.000000 0.000000 0.000000
# 4 -0.002229 0.002229 0.000000 0.061835 0.000000 0.000000
# 5 0.000000 0.000000 0.000000 0.000000 0.061835 -0.004458
# 6 0.000000 0.000000 0.000000 0.000000 -0.004458 0.043680
#
#
# Mechanical properties :
#
#
# Convention : Reuss Voigt Hill
#
# Bulk Modulus (GPa) = 65.84287 65.84310 65.84298
# Shear Modulus (GPa) = 21.01956 23.19281 22.10618
#
# Velocity S-wave (km/s) = 3.67143 3.85656 3.76514
# Velocity P-wave (km/s) = 7.75862 7.87747 7.81827
#
# Compressibility (1/GPa) = 0.01518767
#
# Stress axis : x y z
#
# Youngs Moduli (GPa) = 67.39795 67.39795 93.89853
#
# Poissons Ratio (x) = 0.47197 0.26130
# Poissons Ratio (y) = 0.47197 0.26130
# Poissons Ratio (z) = 0.18755 0.18755
#
# Static dielectric constant tensor:
#      x y z
#    x 1.512900 0.000000 0.000000 
#    y 0.000000 1.512900 0.000000 
#    z 0.000000 0.000000 1.520320 
# 
# From -- ./inp_files/1940.got.cif
#   From: 2010.05.17/outbox.cif.g08.bks.cpg/sg164_1_cif.got.tgz:1940.got - 2010.05.20 10:58:56.
