data_PCOD9578906
_publ_section_title
;
Structure prediction by ZEFSAII (Michael W. Deem and Ramdas Pophale) SiO2 
 PCOD9578906
Probable space group: P -3 C 1
;
_chemical_formula_sum "Si O2"
_cell_formula_units_Z 42
_cell_length_a 15.821971
_cell_length_b 15.821971
_cell_length_c 10.340598
_cell_angle_alpha 90.000000
_cell_angle_beta 90.000000
_cell_angle_gamma 120.000000
_cell_volume 2241.803046
_symmetry_space_group_name_H-M "P -3 C 1"
_symmetry_group_IT_number 165
_symmetry_cell_setting 'hexagonal'
loop_
_space_group_symop_operation_xyz
x,y,z
-y,x-y,z
-x+y,-x,z
x-y,-y,1/2-z
-x,-x+y,1/2-z
y,x,1/2-z
-x,-y,-z
y,-x+y,-z
x-y,x,-z
-x+y,y,1/2+z
x,x-y,1/2+z
-y,-x,1/2+z
loop_
_atom_site_type_symbol
_atom_site_label
_atom_site_fract_x
_atom_site_fract_y
_atom_site_fract_z
Si Si1 0.294069 0.294069 0.250000
Si Si2 0.222507 0.147200 0.483655
Si Si3 0.187843 0.416734 0.885575
Si Si4 0.248913 0.541268 0.145641
O O1 0.263432 0.205975 0.350621
O O2 0.385467 0.304468 0.171029
O O3 0.143153 0.174533 0.533691
O O4 0.314873 0.181989 0.577997
O O5 0.264959 0.476675 0.773980
O O6 0.210639 0.478739 0.016109
O O7 0.367691 0.597642 0.146580
#
# Coordination Sequence:
#
# PCOD9578906 Si02
#       4
#     6  12  12  12
#     4  10  22  40  62  96 140 170 204 274 318 378
#     4  10  22  39  65  92 131 175 215 258 311 390
#     4  11  20  41  63  97 130 168 208 266 328 371
#     4  10  22  40  71  93 122 170 218 268 321 394
#
# _framework density 18.734918
#
# number of rings (size 3 to 8) (size 9 to 14) (size 15 to 20)
#    0.571    1.143    2.857    2.000    0.000    4.571 
#    0.000    1.429    6.286    0.000    0.000    0.000 
#    0.000    0.000    0.000    0.000    0.000    0.000 
#
# Total GULP energy -234253.005054 kJ/mol
# GULP energy per Si atom -5577.452501 kJ/mol
# Density = 1.869228 g / cm^3
# Si number density = 18.734918 Si / 1000 Ang^3
#
#
#
# Elastic Constant Matrix: (Units=GPa)
#
#
# Indices 1 2 3 4 5 6 
#
# 1 92.4081 46.6822 44.5165 8.1336 0.0000 0.0000
# 2 46.6822 92.4081 44.5165 -8.1336 0.0000 0.0000
# 3 44.5165 44.5165 127.3090 0.0000 0.0000 0.0000
# 4 8.1336 -8.1336 0.0000 35.3368 0.0000 0.0000
# 5 0.0000 0.0000 0.0000 0.0000 35.3368 8.1336
# 6 0.0000 0.0000 0.0000 0.0000 8.1336 22.8630
#
#
#
# Elastic Compliance Matrix: (Units=1/GPa)
#
#
# Indices 1 2 3 4 5 6 
#
# 1 0.016541 -0.007279 -0.003239 -0.005483 0.000000 0.000000
# 2 -0.007279 0.016541 -0.003239 0.005483 0.000000 0.000000
# 3 -0.003239 -0.003239 0.010120 0.000000 0.000000 0.000000
# 4 -0.005483 0.005483 0.000000 0.030823 0.000000 0.000000
# 5 0.000000 0.000000 0.000000 0.000000 0.030823 -0.010965
# 6 0.000000 0.000000 0.000000 0.000000 -0.010965 0.047640
#
#
# Mechanical properties :
#
#
# Convention : Reuss Voigt Hill
#
# Bulk Modulus (GPa) = 63.73524 64.83952 64.28738
# Shear Modulus (GPa) = 26.99320 30.46800 28.73060
#
# Velocity S-wave (km/s) = 3.79990 4.03708 3.92028
# Velocity P-wave (km/s) = 7.30381 7.51097 7.40812
#
# Compressibility (1/GPa) = 0.01568991
#
# Stress axis : x y z
#
# Youngs Moduli (GPa) = 60.45434 60.45434 98.81355
#
# Poissons Ratio (x) = 0.44002 0.32005
# Poissons Ratio (y) = 0.44002 0.32005
# Poissons Ratio (z) = 0.19581 0.19581
#
# Static dielectric constant tensor:
#      x y z
#    x 1.653710 0.000000 0.000000 
#    y 0.000000 1.653710 0.000000 
#    z 0.000000 0.000000 1.642560 
# 
# From -- ./inp_files/971.got.cif
#   From: 2010.05.17/outbox.cif.g08.bks.cpg/sg165_1_cif.got.tgz:971.got - 2010.05.20 11:02:39.
