data_PCOD9578611
_publ_section_title
;
Structure prediction by ZEFSAII (Michael W. Deem and Ramdas Pophale) SiO2 
 PCOD9578611
Probable space group: P -3 M 1
;
_chemical_formula_sum "Si O2"
_cell_formula_units_Z 66
_cell_length_a 12.923656
_cell_length_b 12.923656
_cell_length_c 29.130206
_cell_angle_alpha 90.000000
_cell_angle_beta 90.000000
_cell_angle_gamma 120.000000
_cell_volume 4213.519096
_symmetry_space_group_name_H-M "P -3 M 1"
_symmetry_group_IT_number 164
_symmetry_cell_setting 'hexagonal'
loop_
_space_group_symop_operation_xyz
x,y,z
-y,x-y,z
-x+y,-x,z
x-y,-y,-z
-x,-x+y,-z
y,x,-z
-x,-y,-z
y,-x+y,-z
x-y,x,-z
-x+y,y,z
x,x-y,z
-y,-x,z
loop_
_atom_site_type_symbol
_atom_site_label
_atom_site_fract_x
_atom_site_fract_y
_atom_site_fract_z
Si Si1 0.752692 0.752014 0.100179
Si Si2 0.000348 0.754758 0.370197
Si Si3 0.752961 0.000000 0.000000
Si Si4 0.912549 0.579327 0.712893
Si Si5 0.912362 0.578651 0.817815
Si Si6 0.578738 0.912424 0.456571
O O1 0.769418 0.884709 0.102165
O O2 0.670446 0.680246 0.142769
O O3 0.879806 0.759611 0.103417
O O4 0.697550 0.699256 0.049687
O O5 0.107455 0.892546 0.368789
O O6 0.011906 0.692300 0.324142
O O7 0.029185 0.694349 0.412982
O O8 0.873402 0.746803 0.374433
O O9 0.883205 0.116796 0.000814
O O10 0.775900 0.551799 0.708384
O O11 0.917043 0.458522 0.705094
O O12 0.951188 0.620427 0.765395
O O13 0.779293 0.558586 0.822490
O O14 0.909314 0.454657 0.823484
O O15 0.448686 0.897372 0.447898
O O16 0.568143 0.784072 0.464995
O O17 0.635447 0.000000 0.500000
#
# Coordination Sequence:
#
# PCOD9578611 Si02
#       6
#    12  12   6  12  12  12
#     4   9  16  26  42  64  88 113 142 179 223 268
#     4  10  20  33  49  70  97 127 156 187 227 275
#     4   8  13  22  37  58  84 112 142 176 216 262
#     4   9  17  30  49  70  90 114 147 188 230 270
#     4   9  17  29  45  65  88 115 147 183 223 266
#     4  10  20  34  53  76 101 129 161 197 234 271
#
# _framework density 15.663867
#
# number of rings (size 3 to 8) (size 9 to 14) (size 15 to 20)
#    0.000    2.727    0.000    2.091    0.000    3.636 
#    0.000    2.273    0.000    9.455    0.000    0.000 
#    0.000    0.000    0.000    0.000    0.000    0.000 
#
# Total GULP energy -367559.607120 kJ/mol
# GULP energy per Si atom -5569.084956 kJ/mol
# Density = 1.562822 g / cm^3
# Si number density = 15.663867 Si / 1000 Ang^3
#
#
#
# Elastic Constant Matrix: (Units=GPa)
#
#
# Indices 1 2 3 4 5 6 
#
# 1 80.0257 49.6854 69.5067 1.6248 0.0000 0.0000
# 2 49.6854 80.0257 69.5067 -1.6248 0.0000 0.0000
# 3 69.5067 69.5067 135.9944 0.0000 0.0000 0.0000
# 4 1.6248 -1.6248 0.0000 22.2402 0.0000 0.0000
# 5 0.0000 0.0000 0.0000 0.0000 22.2402 1.6248
# 6 0.0000 0.0000 0.0000 0.0000 1.6248 15.1701
#
#
#
# Elastic Compliance Matrix: (Units=1/GPa)
#
#
# Indices 1 2 3 4 5 6 
#
# 1 0.025133 -0.008086 -0.008713 -0.002427 0.000000 0.000000
# 2 -0.008086 0.025133 -0.008713 0.002427 0.000000 0.000000
# 3 -0.008713 -0.008713 0.016259 0.000000 0.000000 0.000000
# 4 -0.002427 0.002427 0.000000 0.045318 0.000000 0.000000
# 5 0.000000 0.000000 0.000000 0.000000 0.045318 -0.004854
# 6 0.000000 0.000000 0.000000 0.000000 -0.004854 0.066439
#
#
# Mechanical properties :
#
#
# Convention : Reuss Voigt Hill
#
# Bulk Modulus (GPa) = 64.50568 74.82706 69.66637
# Shear Modulus (GPa) = 17.87041 19.08655 18.47848
#
# Velocity S-wave (km/s) = 3.38134 3.49450 3.43839
# Velocity P-wave (km/s) = 7.51766 8.00976 7.76761
#
# Compressibility (1/GPa) = 0.01550251
#
# Stress axis : x y z
#
# Youngs Moduli (GPa) = 39.78798 39.78798 61.50292
#
# Poissons Ratio (x) = 0.32173 0.53586
# Poissons Ratio (y) = 0.32173 0.53586
# Poissons Ratio (z) = 0.34666 0.34666
#
# Static dielectric constant tensor:
#      x y z
#    x 1.490170 0.000000 0.000000 
#    y 0.000000 1.490170 0.000000 
#    z 0.000000 0.000000 1.556200 
# 
# From -- ./inp_files/5503.got.cif
#   From: 2010.05.17/outbox.cif.g08.bks.cpg/sg164_3_cif.got.tgz:5503.got - 2010.05.20 10:58:56.
