data_PCOD9578002
_publ_section_title
;
Structure prediction by ZEFSAII (Michael W. Deem and Ramdas Pophale) SiO2 
 PCOD9578002
Probable space group: P -3 1 C
;
_chemical_formula_sum "Si O2"
_cell_formula_units_Z 54
_cell_length_a 14.627671
_cell_length_b 14.627671
_cell_length_c 14.644354
_cell_angle_alpha 90.000000
_cell_angle_beta 90.000000
_cell_angle_gamma 120.000000
_cell_volume 2713.633662
_symmetry_space_group_name_H-M "P -3 1 C"
_symmetry_group_IT_number 163
_symmetry_cell_setting 'hexagonal'
loop_
_space_group_symop_operation_xyz
x,y,z
-y,x-y,z
-x+y,-x,z
-y,-x,1/2-z
-x+y,y,1/2-z
x,x-y,1/2-z
-x,-y,-z
y,-x+y,-z
x-y,x,-z
y,x,1/2+z
x-y,-y,1/2+z
-x,-x+y,1/2+z
loop_
_atom_site_type_symbol
_atom_site_label
_atom_site_fract_x
_atom_site_fract_y
_atom_site_fract_z
Si Si1 0.392575 0.077395 0.609630
Si Si2 0.161591 0.580796 0.250000
Si Si3 0.140577 0.707191 0.112399
Si Si4 0.460692 0.361017 0.103063
Si Si5 0.149309 0.454873 0.602105
O O1 0.480760 0.097222 0.683801
O O2 0.361456 0.167268 0.623522
O O3 0.443539 0.091711 0.507977
O O4 0.302108 0.957253 0.619013
O O5 0.209093 0.673299 0.175304
O O6 0.016451 0.632129 0.133884
O O7 0.158509 0.690852 0.007599
O O8 0.453367 0.252412 0.135243
O O9 0.578126 0.452291 0.130422
#
# Coordination Sequence:
#
# PCOD9578002 Si02
#       5
#    12   6  12  12  12
#     4  10  20  33  50  76 107 137 169 216 271 315
#     4  12  18  34  50  76 114 130 162 228 274 322
#     4  10  20  33  50  76 107 137 169 216 271 315
#     4  10  18  35  54  74 103 142 182 211 248 315
#     4  10  18  35  54  74 103 142 182 211 248 315
#
# _framework density 19.899516999999999
#
# number of rings (size 3 to 8) (size 9 to 14) (size 15 to 20)
#    0.000    1.778    4.444    2.444    0.000    0.000 
#    5.333    1.111    0.000    0.889    0.000    6.222 
#    0.000    0.000    0.000    0.000    0.000    0.000 
#
# Total GULP energy -300827.883317 kJ/mol
# GULP energy per Si atom -5570.886728 kJ/mol
# Density = 1.985422 g / cm^3
# Si number density = 19.899517 Si / 1000 Ang^3
#
#
#
# Elastic Constant Matrix: (Units=GPa)
#
#
# Indices 1 2 3 4 5 6 
#
# 1 140.5943 86.1291 6.0724 0.0000 -0.3431 0.0000
# 2 86.1291 140.5943 6.0724 0.0000 0.3431 0.0000
# 3 6.0724 6.0724 56.9699 0.0000 0.0000 0.0000
# 4 0.0000 0.0000 0.0000 13.8610 0.0000 0.3431
# 5 -0.3431 0.3431 0.0000 0.0000 13.8610 0.0000
# 6 0.0000 0.0000 0.0000 0.3431 0.0000 27.2326
#
#
#
# Elastic Compliance Matrix: (Units=1/GPa)
#
#
# Indices 1 2 3 4 5 6 
#
# 1 0.011401 -0.006965 -0.000473 0.000000 0.000455 0.000000
# 2 -0.006965 0.011401 -0.000473 0.000000 -0.000455 0.000000
# 3 -0.000473 -0.000473 0.017654 0.000000 0.000000 0.000000
# 4 0.000000 0.000000 0.000000 0.072167 0.000000 -0.000909
# 5 0.000455 -0.000455 0.000000 0.000000 0.072167 0.000000
# 6 0.000000 0.000000 0.000000 -0.000909 0.000000 0.036732
#
#
# Mechanical properties :
#
#
# Convention : Reuss Voigt Hill
#
# Bulk Modulus (GPa) = 40.59337 59.41184 50.00260
# Shear Modulus (GPa) = 20.36196 26.98321 23.67258
#
# Velocity S-wave (km/s) = 3.20228 3.68635 3.45281
# Velocity P-wave (km/s) = 5.84091 6.93106 6.40921
#
# Compressibility (1/GPa) = 0.02463456
#
# Stress axis : x y z
#
# Youngs Moduli (GPa) = 87.71126 87.71126 56.64464
#
# Poissons Ratio (x) = 0.61091 0.02678
# Poissons Ratio (y) = 0.61091 0.02678
# Poissons Ratio (z) = 0.04147 0.04147
#
# Static dielectric constant tensor:
#      x y z
#    x 1.739540 0.000000 0.000000 
#    y 0.000000 1.739540 0.000000 
#    z 0.000000 0.000000 1.752340 
# 
# From -- ./inp_files/2318.got.cif
#   From: 2010.05.17/outbox.cif.g08.bks.cpg/sg163_2_cif.got.tgz:2318.got - 2010.05.20 10:56:03.
