data_PCOD9578774
_publ_section_title
;
Structure prediction by ZEFSAII (Michael W. Deem and Ramdas Pophale) SiO2 
 PCOD9578774
Probable space group: P -3 C 1
;
_chemical_formula_sum "Si O2"
_cell_formula_units_Z 56
_cell_length_a 14.648006
_cell_length_b 14.648006
_cell_length_c 14.213957
_cell_angle_alpha 90.000000
_cell_angle_beta 90.000000
_cell_angle_gamma 120.000000
_cell_volume 2641.208263
_symmetry_space_group_name_H-M "P -3 C 1"
_symmetry_group_IT_number 165
_symmetry_cell_setting 'hexagonal'
loop_
_space_group_symop_operation_xyz
x,y,z
-y,x-y,z
-x+y,-x,z
x-y,-y,1/2-z
-x,-x+y,1/2-z
y,x,1/2-z
-x,-y,-z
y,-x+y,-z
x-y,x,-z
-x+y,y,1/2+z
x,x-y,1/2+z
-y,-x,1/2+z
loop_
_atom_site_type_symbol
_atom_site_label
_atom_site_fract_x
_atom_site_fract_y
_atom_site_fract_z
Si Si1 0.000000 0.649687 0.133989
Si Si2 0.333335 0.666668 0.111719
Si Si3 0.333335 0.666668 0.388268
Si Si4 0.798789 0.572550 0.857222
Si Si5 0.562280 0.562283 0.365586
Si Si6 0.798783 0.572545 0.642784
O O1 0.890687 0.640946 0.102427
O O2 0.000000 0.650087 0.250000
O O3 0.109312 0.750261 0.102425
O O4 0.000001 0.543193 0.105118
O O5 0.295759 0.548744 0.144378
O O6 0.333334 0.666667 0.999994
O O7 0.295769 0.548746 0.355609
O O8 0.897076 0.566296 0.898264
O O9 0.829422 0.608956 0.750002
O O10 0.559554 0.559554 0.250000
O O11 0.566284 0.669220 0.398260
#
# Coordination Sequence:
#
# PCOD9578774 Si02
#       6
#    12   4   4  12  12  12
#     4   9  16  26  48  73  89 117 154 193 227 262
#     4  12  22  29  43  72 100 125 151 189 238 272
#     4  12  22  29  43  72 100 125 151 189 238 272
#     4  10  18  32  49  68  94 124 159 187 222 276
#     4   9  16  26  48  73  89 117 154 193 227 262
#     4  10  18  32  49  68  94 124 159 187 222 276
#
# _framework density 21.202418000000002
#
# number of rings (size 3 to 8) (size 9 to 14) (size 15 to 20)
#    0.000    2.143    4.286    1.286    0.000    0.000 
#    0.000    4.286    0.000    0.857    0.000    6.000 
#    0.000    0.000    0.000    3.857    0.000    4.286 
#
# Total GULP energy -312712.082039 kJ/mol
# GULP energy per Si atom -5584.144322 kJ/mol
# Density = 2.115416 g / cm^3
# Si number density = 21.202418 Si / 1000 Ang^3
#
#
#
# Elastic Constant Matrix: (Units=GPa)
#
#
# Indices 1 2 3 4 5 6 
#
# 1 104.1834 31.0598 -16.5607 -0.0044 0.0000 0.0000
# 2 31.0598 104.1840 -16.5608 0.0049 0.0000 0.0000
# 3 -16.5607 -16.5608 73.8874 0.0008 0.0000 0.0000
# 4 -0.0044 0.0049 0.0008 -58.0430 0.0000 0.0000
# 5 0.0000 0.0000 0.0000 0.0000 -58.0904 -0.0063
# 6 0.0000 0.0000 0.0000 0.0000 -0.0063 36.5617
#
#
#
# Elastic Compliance Matrix: (Units=1/GPa)
#
#
# Indices 1 2 3 4 5 6 
#
# 1 0.010749 -0.002926 0.001754 -0.000001 0.000000 0.000000
# 2 -0.002926 0.010749 0.001754 0.000001 0.000000 0.000000
# 3 0.001754 0.001754 0.014320 0.000000 0.000000 0.000000
# 4 -0.000001 0.000001 0.000000 -0.017229 0.000000 0.000000
# 5 0.000000 0.000000 0.000000 0.000000 -0.017215 -0.000003
# 6 0.000000 0.000000 0.000000 0.000000 -0.000003 0.027351
#
#
# Mechanical properties :
#
#
# Convention : Reuss Voigt Hill
#
# Bulk Modulus (GPa) = 27.04070 30.90349 28.97209
# Shear Modulus (GPa) = 125.33881 3.04008 64.18945
#
# Velocity S-wave (km/s) = 7.69699 1.19873 5.50820
# Velocity P-wave (km/s) = 9.57981 4.06485 7.35853
#
# Compressibility (1/GPa) = 0.03698129
#
# Stress axis : x y z
#
# Youngs Moduli (GPa) = 93.02768 93.02813 69.83161
#
# Poissons Ratio (x) = 0.27220 -0.12245
# Poissons Ratio (y) = 0.27219 -0.12245
# Poissons Ratio (z) = -0.16313 -0.16313
#
# Static dielectric constant tensor:
#      x y z
#    x 1.753010 0.000000 0.000000 
#    y 0.000000 1.753010 0.000000 
#    z 0.000000 0.000000 1.822070 
# 
# From -- ./inp_files/2186.got.cif
#   From: 2010.05.17/outbox.cif.g08.bks.cpg/sg165_2_cif.got.tgz:2186.got - 2010.05.20 11:02:39.
