data_PCOD9578888
_publ_section_title
;
Structure prediction by ZEFSAII (Michael W. Deem and Ramdas Pophale) SiO2 
 PCOD9578888
Probable space group: P -3 C 1
;
_chemical_formula_sum "Si O2"
_cell_formula_units_Z 44
_cell_length_a 11.269125
_cell_length_b 11.269125
_cell_length_c 18.390730
_cell_angle_alpha 90.000000
_cell_angle_beta 90.000000
_cell_angle_gamma 120.000000
_cell_volume 2022.599952
_symmetry_space_group_name_H-M "P -3 C 1"
_symmetry_group_IT_number 165
_symmetry_cell_setting 'hexagonal'
loop_
_space_group_symop_operation_xyz
x,y,z
-y,x-y,z
-x+y,-x,z
x-y,-y,1/2-z
-x,-x+y,1/2-z
y,x,1/2-z
-x,-y,-z
y,-x+y,-z
x-y,x,-z
-x+y,y,1/2+z
x,x-y,1/2+z
-y,-x,1/2+z
loop_
_atom_site_type_symbol
_atom_site_label
_atom_site_fract_x
_atom_site_fract_y
_atom_site_fract_z
Si Si1 0.333335 0.666668 0.233086
Si Si2 0.333334 0.666668 0.905721
Si Si3 0.073407 0.364785 0.070313
Si Si4 0.909022 0.371351 0.863889
Si Si5 0.360674 0.211002 0.088354
O O1 0.333334 0.666667 0.318859
O O2 0.182269 0.621775 0.201620
O O3 0.487042 0.756490 0.931253
O O4 0.058731 0.498746 0.084939
O O5 0.223927 0.413022 0.100255
O O6 0.948291 0.231535 0.108542
O O7 0.065493 0.317910 0.986845
O O8 0.051397 0.372673 0.852451
#
# Coordination Sequence:
#
# PCOD9578888 Si02
#       5
#     4   4  12  12  12
#     4   9  24  43  62  85 123 168 217 275 301 357
#     4  12  24  37  65  94 114 168 226 257 313 372
#     4  11  21  37  62  90 128 162 198 260 329 390
#     4  10  21  41  59  86 126 167 204 257 324 372
#     4  12  21  37  61  95 125 159 208 259 321 394
#
# _framework density 21.754180000000002
#
# number of rings (size 3 to 8) (size 9 to 14) (size 15 to 20)
#    0.000    1.091    5.455    3.000    0.000    1.091 
#    1.636    1.364    0.000    0.000    0.000    0.000 
#    0.000    0.000    0.000    0.000    0.000    0.000 
#
# Total GULP energy -245491.707345 kJ/mol
# GULP energy per Si atom -5579.356985 kJ/mol
# Density = 2.170467 g / cm^3
# Si number density = 21.754180 Si / 1000 Ang^3
#
#
#
# Elastic Constant Matrix: (Units=GPa)
#
#
# Indices 1 2 3 4 5 6 
#
# 1 105.0011 54.9129 8.7239 -7.6208 0.0000 0.0000
# 2 54.9129 105.0012 8.7227 7.6207 0.0000 0.0000
# 3 8.7239 8.7227 36.1077 0.0006 0.0000 0.0000
# 4 -7.6208 7.6207 0.0006 3.1671 0.0000 0.0000
# 5 0.0000 0.0000 0.0000 0.0000 3.1662 -7.6223
# 6 0.0000 0.0000 0.0000 0.0000 -7.6223 25.0431
#
#
#
# Elastic Compliance Matrix: (Units=1/GPa)
#
#
# Indices 1 2 3 4 5 6 
#
# 1 0.040487 -0.034064 -0.001556 0.179386 0.000000 0.000000
# 2 -0.034064 0.040486 -0.001547 -0.179382 0.000000 0.000000
# 3 -0.001556 -0.001547 0.028445 -0.000025 0.000000 0.000000
# 4 0.179386 -0.179382 -0.000025 1.179022 0.000000 0.000000
# 5 0.000000 0.000000 0.000000 0.000000 1.181764 0.359689
# 6 0.000000 0.000000 0.000000 0.000000 0.359689 0.149408
#
#
# Mechanical properties :
#
#
# Convention : Reuss Voigt Hill
#
# Bulk Modulus (GPa) = 28.50356 43.42543 35.96450
# Shear Modulus (GPa) = 1.84799 17.85864 9.85331
#
# Velocity S-wave (km/s) = 0.92268 2.86829 2.13054
# Velocity P-wave (km/s) = 3.77705 5.56549 4.75609
#
# Compressibility (1/GPa) = 0.03508334
#
# Stress axis : x y z
#
# Youngs Moduli (GPa) = 24.69924 24.70003 35.15599
#
# Poissons Ratio (x) = 0.84138 0.05470
# Poissons Ratio (y) = 0.84135 0.05440
# Poissons Ratio (z) = 0.03843 0.03822
#
# Static dielectric constant tensor:
#      x y z
#    x 1.831980 0.000000 0.000000 
#    y 0.000000 1.831990 0.000000 
#    z 0.000000 0.000000 1.778220 
# 
# From -- ./inp_files/2102.got.cif
#   From: 2010.05.17/outbox.cif.g08.bks.cpg/sg165_2_cif.got.tgz:2102.got - 2010.05.20 11:02:39.
