data_PCOD9578525
_publ_section_title
;
Structure prediction by ZEFSAII (Michael W. Deem and Ramdas Pophale) SiO2 
 PCOD9578525
Probable space group: P -3 M 1
;
_chemical_formula_sum "Si O2"
_cell_formula_units_Z 84
_cell_length_a 17.397890
_cell_length_b 17.397890
_cell_length_c 18.030766
_cell_angle_alpha 90.000000
_cell_angle_beta 90.000000
_cell_angle_gamma 120.000000
_cell_volume 4726.481585
_symmetry_space_group_name_H-M "P -3 M 1"
_symmetry_group_IT_number 164
_symmetry_cell_setting 'hexagonal'
loop_
_space_group_symop_operation_xyz
x,y,z
-y,x-y,z
-x+y,-x,z
x-y,-y,-z
-x,-x+y,-z
y,x,-z
-x,-y,-z
y,-x+y,-z
x-y,x,-z
-x+y,y,z
x,x-y,z
-y,-x,z
loop_
_atom_site_type_symbol
_atom_site_label
_atom_site_fract_x
_atom_site_fract_y
_atom_site_fract_z
Si Si1 0.104576 0.639043 0.011716
Si Si2 0.001054 0.817205 0.912626
Si Si3 0.363484 0.270790 0.841084
Si Si4 0.333150 0.850927 0.295809
Si Si5 0.161960 0.492625 0.855143
Si Si6 0.482335 0.331096 0.307619
Si Si7 0.589134 0.991841 0.415833
O O1 0.142468 0.571234 0.021054
O O2 0.137179 0.691436 0.934421
O O3 0.118439 0.695070 0.084976
O O4 0.000000 0.579849 0.000000
O O5 0.915378 0.830756 0.902852
O O6 0.986301 0.733649 0.863486
O O7 0.092298 0.907703 0.897379
O O8 0.000000 0.794281 0.000000
O O9 0.348249 0.174125 0.822463
O O10 0.420970 0.330844 0.772824
O O11 0.422274 0.844548 0.290910
O O12 0.246244 0.753756 0.292974
O O13 0.337447 0.902813 0.371192
O O14 0.267667 0.535334 0.847801
O O15 0.133788 0.566894 0.860755
O O16 0.126053 0.445412 0.776708
O O17 0.490616 0.245308 0.325473
O O18 0.579917 0.420084 0.306978
O O19 0.422472 0.346330 0.365946
O O20 0.496308 0.992616 0.418299
O O21 0.621483 0.000000 0.500000
#
# Coordination Sequence:
#
# PCOD9578525 Si02
#       7
#    12  12  12  12  12  12  12
#     4  10  20  30  43  63  91 130 173 209 246 294
#     4   9  17  31  51  74 100 134 176 221 266 315
#     4  10  20  33  49  71 100 134 170 214 263 303
#     4  10  21  37  58  79 103 137 179 222 260 304
#     4   9  17  29  45  66  91 123 162 206 251 296
#     4   9  17  30  50  76 105 135 168 206 253 309
#     4   9  19  35  54  76 103 133 164 206 262 316
#
# _framework density 17.772205
#
# number of rings (size 3 to 8) (size 9 to 14) (size 15 to 20)
#    0.000    2.571    0.000    1.857    2.000    2.286 
#    0.000    1.429    0.000    6.286    0.000    0.000 
#    0.000    0.000    0.000    3.857    0.000   22.286 
#
# Total GULP energy -468027.011247 kJ/mol
# GULP energy per Si atom -5571.750134 kJ/mol
# Density = 1.773175 g / cm^3
# Si number density = 17.772205 Si / 1000 Ang^3
#
#
#
# Elastic Constant Matrix: (Units=GPa)
#
#
# Indices 1 2 3 4 5 6 
#
# 1 71.8643 39.0720 43.7181 -8.9326 0.0000 0.0000
# 2 39.0720 71.8643 43.7181 8.9326 0.0000 0.0000
# 3 43.7181 43.7181 142.9801 0.0000 0.0000 0.0000
# 4 -8.9326 8.9326 0.0000 13.7565 0.0000 0.0000
# 5 0.0000 0.0000 0.0000 0.0000 13.7565 -8.9326
# 6 0.0000 0.0000 0.0000 0.0000 -8.9326 16.3961
#
#
#
# Elastic Compliance Matrix: (Units=1/GPa)
#
#
# Indices 1 2 3 4 5 6 
#
# 1 0.029532 -0.017656 -0.003631 0.030641 0.000000 0.000000
# 2 -0.017656 0.029532 -0.003631 -0.030641 0.000000 0.000000
# 3 -0.003631 -0.003631 0.009215 0.000000 0.000000 0.000000
# 4 0.030641 -0.030641 0.000000 0.112486 0.000000 0.000000
# 5 0.000000 0.000000 0.000000 0.000000 0.112486 0.061283
# 6 0.000000 0.000000 0.000000 0.000000 0.061283 0.094377
#
#
# Mechanical properties :
#
#
# Convention : Reuss Voigt Hill
#
# Bulk Modulus (GPa) = 54.22446 59.96947 57.09696
# Shear Modulus (GPa) = 11.27106 19.46183 15.36645
#
# Velocity S-wave (km/s) = 2.52106 3.31278 2.94366
# Velocity P-wave (km/s) = 6.24911 6.96055 6.61440
#
# Compressibility (1/GPa) = 0.01844186
#
# Stress axis : x y z
#
# Youngs Moduli (GPa) = 33.86116 33.86116 108.52290
#
# Poissons Ratio (x) = 0.59786 0.39408
# Poissons Ratio (y) = 0.59786 0.39408
# Poissons Ratio (z) = 0.12296 0.12296
#
# Static dielectric constant tensor:
#      x y z
#    x 1.618480 0.000000 0.000000 
#    y 0.000000 1.618480 0.000000 
#    z 0.000000 0.000000 1.626360 
# 
# From -- ./inp_files/3626.got.cif
#   From: 2010.05.17/outbox.cif.g08.bks.cpg/sg164_2_cif.got.tgz:3626.got - 2010.05.20 10:58:56.
