data_PCOD9578235
_publ_section_title
;
Structure prediction by ZEFSAII (Michael W. Deem and Ramdas Pophale) SiO2 
 PCOD9578235
Probable space group: P -3 1 C
;
_chemical_formula_sum "Si O2"
_cell_formula_units_Z 52
_cell_length_a 13.518212
_cell_length_b 13.518212
_cell_length_c 13.986091
_cell_angle_alpha 90.000000
_cell_angle_beta 90.000000
_cell_angle_gamma 120.000000
_cell_volume 2213.428448
_symmetry_space_group_name_H-M "P -3 1 C"
_symmetry_group_IT_number 163
_symmetry_cell_setting 'hexagonal'
loop_
_space_group_symop_operation_xyz
x,y,z
-y,x-y,z
-x+y,-x,z
-y,-x,1/2-z
-x+y,y,1/2-z
x,x-y,1/2-z
-x,-y,-z
y,-x+y,-z
x-y,x,-z
y,x,1/2+z
x-y,-y,1/2+z
-x,-x+y,1/2+z
loop_
_atom_site_type_symbol
_atom_site_label
_atom_site_fract_x
_atom_site_fract_y
_atom_site_fract_z
Si Si1 0.806850 0.445856 0.063092
Si Si2 0.648314 0.969103 0.430495
Si Si3 0.067457 0.807986 0.111740
Si Si4 0.311753 0.912737 0.760788
Si Si5 0.000000 0.000000 0.386153
O O1 0.688281 0.448363 0.047953
O O2 0.847928 0.491982 0.169884
O O3 0.902187 0.532125 0.990838
O O4 0.675405 0.877930 0.382482
O O5 0.754932 0.034429 0.504118
O O6 0.639670 0.041488 0.343912
O O7 0.014853 0.698350 0.178552
O O8 0.020272 0.894274 0.138335
O O9 0.178584 0.821417 0.750000
O O10 0.000000 0.000000 0.500000
#
# Coordination Sequence:
#
# PCOD9578235 Si02
#       5
#    12  12  12  12   4
#     4   9  23  48  73  95 134 184 239 297 361 427
#     4  11  20  39  67  99 138 186 236 293 357 428
#     4  11  21  35  58  94 143 185 237 285 357 444
#     4  11  23  38  64 104 140 176 234 301 350 424
#     4  12  18  33  60  88 138 210 223 273 366 457
#
# _framework density 23.492967
#
# number of rings (size 3 to 8) (size 9 to 14) (size 15 to 20)
#    0.462    0.923    2.308    4.846    0.000    0.923 
#    0.000   15.000    0.000    4.154    0.000    6.462 
#    0.000    0.000    0.000    0.000    0.000    0.000 
#
# Total GULP energy -290862.520374 kJ/mol
# GULP energy per Si atom -5593.510007 kJ/mol
# Density = 2.343950 g / cm^3
# Si number density = 23.492967 Si / 1000 Ang^3
#
#
#
# Elastic Constant Matrix: (Units=GPa)
#
#
# Indices 1 2 3 4 5 6 
#
# 1 72.0673 52.2686 25.6096 0.0011 31.5044 0.0000
# 2 52.2686 72.0673 25.6096 -0.0011 -31.5044 0.0000
# 3 25.6096 25.6096 121.9480 0.0000 0.0000 0.0000
# 4 0.0011 -0.0011 0.0000 0.7737 0.0000 -31.5044
# 5 31.5044 -31.5044 0.0000 0.0000 0.7737 0.0011
# 6 0.0000 0.0000 0.0000 -31.5044 0.0011 9.8994
#
#
#
# Elastic Compliance Matrix: (Units=1/GPa)
#
#
# Indices 1 2 3 4 5 6 
#
# 1 0.004206 0.004599 -0.001849 0.000001 0.015994 0.000000
# 2 0.004599 0.004206 -0.001849 -0.000001 -0.015994 0.000000
# 3 -0.001849 -0.001849 0.008977 0.000000 0.000000 0.000000
# 4 0.000001 -0.000001 0.000000 -0.010051 0.000000 -0.031988
# 5 0.015994 -0.015994 0.000000 0.000000 -0.010051 0.000001
# 6 0.000000 0.000000 0.000000 -0.031988 0.000001 -0.000786
#
#
# Mechanical properties :
#
#
# Convention : Reuss Voigt Hill
#
# Bulk Modulus (GPa) = 52.11115 52.56200 52.33658
# Shear Modulus (GPa) = 4565.79941 13.12901 2289.46421
#
# Velocity S-wave (km/s) = 44.13269 2.36656 31.25136
# Velocity P-wave (km/s) = 51.17768 5.46713 36.39399
#
# Compressibility (1/GPa) = 0.01918975
#
# Stress axis : x y z
#
# Youngs Moduli (GPa) = 237.76685 237.76685 111.39831
#
# Poissons Ratio (x) = -1.09339 0.20597
# Poissons Ratio (y) = -1.09339 0.20597
# Poissons Ratio (z) = 0.43962 0.43962
#
# Static dielectric constant tensor:
#      x y z
#    x 1.911900 0.000000 0.000000 
#    y 0.000000 1.911900 0.000000 
#    z 0.000000 0.000000 1.911220 
# 
# From -- ./inp_files/2328.got.cif
#   From: 2010.05.17/outbox.cif.g08.bks.cpg/sg163_2_cif.got.tgz:2328.got - 2010.05.20 10:56:03.
