data_PCOD9578866
_publ_section_title
;
Structure prediction by ZEFSAII (Michael W. Deem and Ramdas Pophale) SiO2 
 PCOD9578866
Probable space group: P -3 C 1
;
_chemical_formula_sum "Si O2"
_cell_formula_units_Z 66
_cell_length_a 11.597667
_cell_length_b 11.597667
_cell_length_c 27.663298
_cell_angle_alpha 90.000000
_cell_angle_beta 90.000000
_cell_angle_gamma 120.000000
_cell_volume 3222.373345
_symmetry_space_group_name_H-M "P -3 C 1"
_symmetry_group_IT_number 165
_symmetry_cell_setting 'hexagonal'
loop_
_space_group_symop_operation_xyz
x,y,z
-y,x-y,z
-x+y,-x,z
x-y,-y,1/2-z
-x,-x+y,1/2-z
y,x,1/2-z
-x,-y,-z
y,-x+y,-z
x-y,x,-z
-x+y,y,1/2+z
x,x-y,1/2+z
-y,-x,1/2+z
loop_
_atom_site_type_symbol
_atom_site_label
_atom_site_fract_x
_atom_site_fract_y
_atom_site_fract_z
Si Si1 0.633903 0.172271 0.320040
Si Si2 0.408908 0.047693 0.442762
Si Si3 0.737828 0.752632 0.638973
Si Si4 0.018635 0.732419 0.840580
Si Si5 0.552167 0.552167 0.250000
Si Si6 0.613242 0.697805 0.541529
O O1 0.772579 0.306326 0.331897
O O2 0.642608 0.054828 0.345447
O O3 0.591145 0.123537 0.265237
O O4 0.437656 0.197710 0.450659
O O5 0.548239 0.050726 0.446554
O O6 0.340396 0.992301 0.391433
O O7 0.311826 0.961864 0.486497
O O8 0.849125 0.724770 0.658945
O O9 0.732022 0.747160 0.580594
O O10 0.756156 0.891837 0.658994
O O11 0.024978 0.646995 0.795796
#
# Coordination Sequence:
#
# PCOD9578866 Si02
#       6
#    12  12  12  12   6  12
#     4  10  23  42  65  94 124 167 225 264 323 395
#     4  10  21  40  59  97 127 172 225 271 340 401
#     4  11  23  41  67  94 131 171 213 277 325 409
#     4  11  24  41  61  94 131 168 221 267 335 393
#     4  12  24  42  64  94 126 174 216 284 316 396
#     4  10  21  36  66  89 127 172 212 279 327 401
#
# _framework density 20.481798999999999
#
# number of rings (size 3 to 8) (size 9 to 14) (size 15 to 20)
#    0.364    1.091    1.818    2.909    5.091    0.727 
#    0.000    0.000    0.000    8.727    0.000    0.000 
#    0.000    0.000    0.000    0.000    0.000    0.000 
#
# Total GULP energy -367955.594590 kJ/mol
# GULP energy per Si atom -5575.084767 kJ/mol
# Density = 2.043518 g / cm^3
# Si number density = 20.481799 Si / 1000 Ang^3
#
#
#
# Elastic Constant Matrix: (Units=GPa)
#
#
# Indices 1 2 3 4 5 6 
#
# 1 69.0693 41.6707 42.5389 5.7137 0.0000 0.0000
# 2 41.6707 69.0693 42.5389 -5.7137 0.0000 0.0000
# 3 42.5389 42.5389 145.0967 0.0000 0.0000 0.0000
# 4 5.7137 -5.7137 0.0000 13.4186 0.0000 0.0000
# 5 0.0000 0.0000 0.0000 0.0000 13.4186 5.7137
# 6 0.0000 0.0000 0.0000 0.0000 5.7137 13.6993
#
#
#
# Elastic Compliance Matrix: (Units=1/GPa)
#
#
# Indices 1 2 3 4 5 6 
#
# 1 0.028018 -0.016362 -0.003417 -0.018897 0.000000 0.000000
# 2 -0.016362 0.028018 -0.003417 0.018897 0.000000 0.000000
# 3 -0.003417 -0.003417 0.008896 0.000000 0.000000 0.000000
# 4 -0.018897 0.018897 0.000000 0.090616 0.000000 0.000000
# 5 0.000000 0.000000 0.000000 0.000000 0.090616 -0.037794
# 6 0.000000 0.000000 0.000000 0.000000 -0.037794 0.088759
#
#
# Mechanical properties :
#
#
# Convention : Reuss Voigt Hill
#
# Bulk Modulus (GPa) = 53.94322 59.63694 56.79008
# Shear Modulus (GPa) = 12.90345 18.53978 15.72161
#
# Velocity S-wave (km/s) = 2.51269 3.01189 2.77355
# Velocity P-wave (km/s) = 5.90021 6.42461 6.16798
#
# Compressibility (1/GPa) = 0.01853801
#
# Stress axis : x y z
#
# Youngs Moduli (GPa) = 35.69197 35.69197 112.41554
#
# Poissons Ratio (x) = 0.58400 0.38413
# Poissons Ratio (y) = 0.58400 0.38413
# Poissons Ratio (z) = 0.12196 0.12196
#
# Static dielectric constant tensor:
#      x y z
#    x 1.751370 0.000000 0.000000 
#    y 0.000000 1.751370 0.000000 
#    z 0.000000 0.000000 1.762180 
# 
# From -- ./inp_files/3319.got.cif
#   From: 2010.05.17/outbox.cif.g08.bks.cpg/sg165_2_cif.got.tgz:3319.got - 2010.05.20 11:02:39.
