data_PCOD9578609
_publ_section_title
;
Structure prediction by ZEFSAII (Michael W. Deem and Ramdas Pophale) SiO2 
 PCOD9578609
Probable space group: P -3 M 1
;
_chemical_formula_sum "Si O2"
_cell_formula_units_Z 54
_cell_length_a 12.745853
_cell_length_b 12.745853
_cell_length_c 23.462434
_cell_angle_alpha 90.000000
_cell_angle_beta 90.000000
_cell_angle_gamma 120.000000
_cell_volume 3300.969461
_symmetry_space_group_name_H-M "P -3 M 1"
_symmetry_group_IT_number 164
_symmetry_cell_setting 'hexagonal'
loop_
_space_group_symop_operation_xyz
x,y,z
-y,x-y,z
-x+y,-x,z
x-y,-y,-z
-x,-x+y,-z
y,x,-z
-x,-y,-z
y,-x+y,-z
x-y,x,-z
-x+y,y,z
x,x-y,z
-y,-x,z
loop_
_atom_site_type_symbol
_atom_site_label
_atom_site_fract_x
_atom_site_fract_y
_atom_site_fract_z
Si Si1 0.582618 0.915261 0.889782
Si Si2 0.000366 0.751917 0.565422
Si Si3 0.249324 0.999829 0.219774
Si Si4 0.085208 0.418626 0.329270
Si Si5 0.000000 0.750110 0.000000
O O1 0.462275 0.924549 0.890945
O O2 0.550670 0.775335 0.889696
O O3 0.662171 0.976010 0.833473
O O4 0.666339 0.976678 0.944912
O O5 0.890099 0.780198 0.570124
O O6 0.974339 0.650533 0.611916
O O7 0.000000 0.713127 0.500000
O O8 0.126768 0.873233 0.576433
O O9 0.233544 0.116772 0.225734
O O10 0.305662 0.978604 0.276881
O O11 0.119984 0.880017 0.210027
O O12 0.224302 0.448604 0.329798
O O13 0.077714 0.538857 0.322767
O O14 0.881466 0.762931 0.991958
#
# Coordination Sequence:
#
# PCOD9578609 Si02
#       5
#    12  12  12  12   6
#     4  10  20  34  52  74 102 136 171 205 243 291
#     4   9  17  30  50  75 100 126 158 200 249 296
#     4  10  20  34  54  78 102 128 160 203 252 298
#     4  10  20  33  49  69  96 131 168 204 242 288
#     4  10  20  34  54  78 104 134 168 210 256 298
#
# _framework density 16.358830999999999
#
# number of rings (size 3 to 8) (size 9 to 14) (size 15 to 20)
#    0.000    2.222    0.000    3.333    0.000    1.333 
#    0.000    4.444    0.000   11.111    0.000    0.000 
#    0.000    0.000    0.000    0.000    0.000    0.000 
#
# Total GULP energy -301352.067097 kJ/mol
# GULP energy per Si atom -5580.593835 kJ/mol
# Density = 1.632160 g / cm^3
# Si number density = 16.358831 Si / 1000 Ang^3
#
#
#
# Elastic Constant Matrix: (Units=GPa)
#
#
# Indices 1 2 3 4 5 6 
#
# 1 125.6195 89.2768 80.2590 0.5617 0.0000 0.0000
# 2 89.2768 125.6195 80.2590 -0.5617 0.0000 0.0000
# 3 80.2590 80.2590 123.3636 0.0000 0.0000 0.0000
# 4 0.5617 -0.5617 0.0000 16.7407 0.0000 0.0000
# 5 0.0000 0.0000 0.0000 0.0000 16.7407 0.5617
# 6 0.0000 0.0000 0.0000 0.0000 0.5617 18.1713
#
#
#
# Elastic Compliance Matrix: (Units=1/GPa)
#
#
# Indices 1 2 3 4 5 6 
#
# 1 0.018299 -0.009246 -0.005890 -0.000924 0.000000 0.000000
# 2 -0.009246 0.018299 -0.005890 0.000924 0.000000 0.000000
# 3 -0.005890 -0.005890 0.015769 0.000000 0.000000 0.000000
# 4 -0.000924 0.000924 0.000000 0.059797 0.000000 0.000000
# 5 0.000000 0.000000 0.000000 0.000000 0.059797 -0.001848
# 6 0.000000 0.000000 0.000000 0.000000 -0.001848 0.055089
#
#
# Mechanical properties :
#
#
# Convention : Reuss Voigt Hill
#
# Bulk Modulus (GPa) = 96.93156 97.13246 97.03201
# Shear Modulus (GPa) = 18.34609 18.65106 18.49858
#
# Velocity S-wave (km/s) = 3.35248 3.38023 3.36639
# Velocity P-wave (km/s) = 8.62366 8.64521 8.63444
#
# Compressibility (1/GPa) = 0.01031656
#
# Stress axis : x y z
#
# Youngs Moduli (GPa) = 54.64922 54.64922 63.41373
#
# Poissons Ratio (x) = 0.50528 0.37348
# Poissons Ratio (y) = 0.50528 0.37348
# Poissons Ratio (z) = 0.32186 0.32186
#
# Static dielectric constant tensor:
#      x y z
#    x 1.516360 0.000000 0.000000 
#    y 0.000000 1.516360 0.000000 
#    z 0.000000 0.000000 1.543730 
# 
# From -- ./inp_files/4845.got.cif
#   From: 2010.05.17/outbox.cif.g08.bks.cpg/sg164_3_cif.got.tgz:4845.got - 2010.05.20 10:58:56.
