data_PCOD9578371
_publ_section_title
;
Structure prediction by ZEFSAII (Michael W. Deem and Ramdas Pophale) SiO2 
 PCOD9578371
Probable space group: P -3 M 1
;
_chemical_formula_sum "Si O2"
_cell_formula_units_Z 96
_cell_length_a 17.210805
_cell_length_b 17.210805
_cell_length_c 26.616312
_cell_angle_alpha 90.000000
_cell_angle_beta 90.000000
_cell_angle_gamma 120.000000
_cell_volume 6827.801372
_symmetry_space_group_name_H-M "P -3 M 1"
_symmetry_group_IT_number 164
_symmetry_cell_setting 'hexagonal'
loop_
_space_group_symop_operation_xyz
x,y,z
-y,x-y,z
-x+y,-x,z
x-y,-y,-z
-x,-x+y,-z
y,x,-z
-x,-y,-z
y,-x+y,-z
x-y,x,-z
-x+y,y,z
x,x-y,z
-y,-x,z
loop_
_atom_site_type_symbol
_atom_site_label
_atom_site_fract_x
_atom_site_fract_y
_atom_site_fract_z
Si Si1 0.665795 0.518419 0.982480
Si Si2 0.667223 0.149282 0.578040
Si Si3 0.667549 0.517367 0.281063
Si Si4 0.848487 0.514940 0.163600
Si Si5 0.418506 0.025640 0.371002
Si Si6 0.148689 0.666844 0.535950
Si Si7 0.179660 0.179676 0.060896
Si Si8 0.628689 0.652686 0.922720
O O1 0.761464 0.522927 0.976585
O O2 0.583417 0.416584 0.985588
O O3 0.643672 0.570737 0.939093
O O4 0.666265 0.571762 0.032842
O O5 0.581873 0.163745 0.582946
O O6 0.757791 0.242210 0.583395
O O7 0.662483 0.114212 0.520888
O O8 0.657082 0.075390 0.617859
O O9 0.758273 0.516545 0.292856
O O10 0.582503 0.417498 0.288094
O O11 0.669238 0.539719 0.222258
O O12 0.654095 0.581493 0.319320
O O13 0.762686 0.525371 0.150113
O O14 0.822880 0.411440 0.158326
O O15 0.931998 0.574216 0.127735
O O16 0.511859 0.023717 0.371469
O O17 0.424198 0.084975 0.418951
O O18 0.161853 0.580927 0.541112
O O19 0.243405 0.756596 0.540129
O O20 0.166866 0.083433 0.075209
O O21 0.273550 0.259496 0.080201
O O22 0.094329 0.188658 0.075955
O O23 0.185122 0.185122 0.000000
#
# Coordination Sequence:
#
# PCOD9578371 Si02
#       8
#    12  12  12  12  12  12  12  12
#     4  11  21  33  47  65  88 115 144 173 206 246
#     4   9  16  25  37  53  75 106 142 178 211 244
#     4   9  17  28  43  62  85 111 138 167 202 245
#     4  10  19  31  46  65  87 112 141 173 208 247
#     4   9  16  25  37  55  78 105 136 171 207 243
#     4   9  15  22  34  54  81 110 138 165 198 243
#     4  10  18  29  45  66  90 115 140 168 203 249
#     4  11  20  31  48  66  89 115 142 174 211 249
#
# _framework density 14.060162
#
# number of rings (size 3 to 8) (size 9 to 14) (size 15 to 20)
#    0.000    2.250    1.250    4.500    0.000    4.000 
#    0.000    2.500    0.000    1.500    0.000    0.000 
#    0.000    2.000    0.000    3.000    0.000   22.500 
#
# Total GULP energy -534957.954231 kJ/mol
# GULP energy per Si atom -5572.478690 kJ/mol
# Density = 1.402816 g / cm^3
# Si number density = 14.060162 Si / 1000 Ang^3
#
#
#
# Elastic Constant Matrix: (Units=GPa)
#
#
# Indices 1 2 3 4 5 6 
#
# 1 78.4729 33.7329 37.6284 2.6360 0.0000 0.0000
# 2 33.7329 78.4729 37.6284 -2.6360 0.0000 0.0000
# 3 37.6284 37.6284 58.1809 0.0000 0.0000 0.0000
# 4 2.6360 -2.6360 0.0000 17.7107 0.0000 0.0000
# 5 0.0000 0.0000 0.0000 0.0000 17.7107 2.6360
# 6 0.0000 0.0000 0.0000 0.0000 2.6360 22.3700
#
#
#
# Elastic Compliance Matrix: (Units=1/GPa)
#
#
# Indices 1 2 3 4 5 6 
#
# 1 0.019245 -0.003505 -0.010180 -0.003386 0.000000 0.000000
# 2 -0.003505 0.019245 -0.010180 0.003386 0.000000 0.000000
# 3 -0.010180 -0.010180 0.030355 0.000000 0.000000 0.000000
# 4 -0.003386 0.003386 0.000000 0.057471 0.000000 0.000000
# 5 0.000000 0.000000 0.000000 0.000000 0.057471 -0.006772
# 6 0.000000 0.000000 0.000000 0.000000 -0.006772 0.045501
#
#
# Mechanical properties :
#
#
# Convention : Reuss Voigt Hill
#
# Bulk Modulus (GPa) = 47.35750 48.12292 47.74021
# Shear Modulus (GPa) = 17.60214 18.63405 18.11810
#
# Velocity S-wave (km/s) = 3.54208 3.64443 3.59362
# Velocity P-wave (km/s) = 7.10518 7.21179 7.15868
#
# Compressibility (1/GPa) = 0.02111598
#
# Stress axis : x y z
#
# Youngs Moduli (GPa) = 51.96137 51.96137 32.94333
#
# Poissons Ratio (x) = 0.18214 0.33535
# Poissons Ratio (y) = 0.18214 0.33535
# Poissons Ratio (z) = 0.52895 0.52895
#
# Static dielectric constant tensor:
#      x y z
#    x 1.455800 0.000000 0.000000 
#    y 0.000000 1.455800 0.000000 
#    z 0.000000 0.000000 1.468750 
# 
# From -- ./inp_files/5096.got.cif
#   From: 2010.05.17/outbox.cif.g08.bks.cpg/sg164_3_cif.got.tgz:5096.got - 2010.05.20 10:58:56.
