data_PCOD9578728
_publ_section_title
;
Structure prediction by ZEFSAII (Michael W. Deem and Ramdas Pophale) SiO2 
 PCOD9578728
Probable space group: P -3 M 1
;
_chemical_formula_sum "Si O2"
_cell_formula_units_Z 66
_cell_length_a 19.627145
_cell_length_b 19.627145
_cell_length_c 9.985416
_cell_angle_alpha 90.000000
_cell_angle_beta 90.000000
_cell_angle_gamma 120.000000
_cell_volume 3331.279377
_symmetry_space_group_name_H-M "P -3 M 1"
_symmetry_group_IT_number 164
_symmetry_cell_setting 'hexagonal'
loop_
_space_group_symop_operation_xyz
x,y,z
-y,x-y,z
-x+y,-x,z
x-y,-y,-z
-x,-x+y,-z
y,x,-z
-x,-y,-z
y,-x+y,-z
x-y,x,-z
-x+y,y,z
x,x-y,z
-y,-x,z
loop_
_atom_site_type_symbol
_atom_site_label
_atom_site_fract_x
_atom_site_fract_y
_atom_site_fract_z
Si Si1 0.040543 0.241276 0.854308
Si Si2 0.228397 0.614199 0.520980
Si Si3 0.937773 0.214811 0.614933
Si Si4 0.550925 0.101850 0.252476
Si Si5 0.919161 0.459581 0.687449
Si Si6 0.709914 0.144324 0.792804
Si Si7 0.919425 0.592052 0.075263
O O1 0.115750 0.231499 0.851972
O O2 0.066637 0.333389 0.837408
O O3 0.982024 0.196391 0.733121
O O4 0.000000 0.217350 0.000000
O O5 0.291138 0.582276 0.508334
O O6 0.181031 0.590516 0.659838
O O7 0.151349 0.575675 0.424276
O O8 0.865370 0.134631 0.558104
O O9 0.899522 0.259213 0.694528
O O10 0.000000 0.264726 0.500000
O O11 0.620007 0.104318 0.162125
O O12 0.507669 0.015338 0.330267
O O13 0.896815 0.514960 0.769638
O O14 0.763253 0.236748 0.762050
O O15 0.720429 0.133874 0.949463
O O16 0.000000 0.614476 0.000000
#
# Coordination Sequence:
#
# PCOD9578728 Si02
#       7
#    12   6  12   6   6  12  12
#     4  11  21  37  63  93 128 171 214 265 333 389
#     4  10  27  49  60  84 135 181 225 268 333 418
#     4  11  23  41  63  92 130 167 216 270 326 394
#     4  12  23  40  73  96 127 169 224 280 339 392
#     4  12  22  42  68  93 124 173 225 282 325 384
#     4  11  23  40  64  95 131 172 216 268 333 400
#     4  11  20  38  63  99 133 159 207 279 333 388
#
# _framework density 19.812207999999998
#
# number of rings (size 3 to 8) (size 9 to 14) (size 15 to 20)
#    0.182    0.727    5.455    3.273    0.000    4.364 
#    0.545    0.000    0.000    7.273    0.000    0.000 
#    0.000    0.000    0.000    0.000    0.000    0.000 
#
# Total GULP energy -367876.367150 kJ/mol
# GULP energy per Si atom -5573.884351 kJ/mol
# Density = 1.976711 g / cm^3
# Si number density = 19.812208 Si / 1000 Ang^3
#
#
#
# Elastic Constant Matrix: (Units=GPa)
#
#
# Indices 1 2 3 4 5 6 
#
# 1 87.9651 44.4525 30.4374 4.4733 0.0000 0.0000
# 2 44.4525 87.9651 30.4374 -4.4733 0.0000 0.0000
# 3 30.4374 30.4374 65.8533 0.0000 0.0000 0.0000
# 4 4.4733 -4.4733 0.0000 -1.9851 0.0000 0.0000
# 5 0.0000 0.0000 0.0000 0.0000 -1.9851 4.4733
# 6 0.0000 0.0000 0.0000 0.0000 4.4733 21.7563
#
#
#
# Elastic Compliance Matrix: (Units=1/GPa)
#
#
# Indices 1 2 3 4 5 6 
#
# 1 0.012647 -0.003058 -0.004432 0.035390 0.000000 0.000000
# 2 -0.003058 0.012647 -0.004432 -0.035390 0.000000 0.000000
# 3 -0.004432 -0.004432 0.019282 0.000000 0.000000 0.000000
# 4 0.035390 -0.035390 0.000000 -0.344244 0.000000 0.000000
# 5 0.000000 0.000000 0.000000 0.000000 -0.344244 0.070780
# 6 0.000000 0.000000 0.000000 0.000000 0.070780 0.031410
#
#
# Mechanical properties :
#
#
# Convention : Reuss Voigt Hill
#
# Bulk Modulus (GPa) = 48.23380 50.27092 49.25236
# Shear Modulus (GPa) = -8.59483 12.65429 2.02973
#
# Velocity S-wave (km/s) = -2.08508 2.53002 1.01327
# Velocity P-wave (km/s) = 4.31296 5.82782 5.12665
#
# Compressibility (1/GPa) = 0.02073235
#
# Stress axis : x y z
#
# Youngs Moduli (GPa) = 79.06805 79.06805 51.86071
#
# Poissons Ratio (x) = 0.24178 0.22986
# Poissons Ratio (y) = 0.24178 0.22986
# Poissons Ratio (z) = 0.35045 0.35045
#
# Static dielectric constant tensor:
#      x y z
#    x 1.732500 0.000000 0.000000 
#    y 0.000000 1.732500 0.000000 
#    z 0.000000 0.000000 1.733440 
# 
# From -- ./inp_files/1771.got.cif
#   From: 2010.05.17/outbox.cif.g08.bks.cpg/sg164_1_cif.got.tgz:1771.got - 2010.05.20 10:58:56.
