data_PCOD9578135
_publ_section_title
;
Structure prediction by ZEFSAII (Michael W. Deem and Ramdas Pophale) SiO2 
 PCOD9578135
Probable space group: P -3 1 C
;
_chemical_formula_sum "Si O2"
_cell_formula_units_Z 64
_cell_length_a 13.334892
_cell_length_b 13.334892
_cell_length_c 18.989831
_cell_angle_alpha 90.000000
_cell_angle_beta 90.000000
_cell_angle_gamma 120.000000
_cell_volume 2924.359339
_symmetry_space_group_name_H-M "P -3 1 C"
_symmetry_group_IT_number 163
_symmetry_cell_setting 'hexagonal'
loop_
_space_group_symop_operation_xyz
x,y,z
-y,x-y,z
-x+y,-x,z
-y,-x,1/2-z
-x+y,y,1/2-z
x,x-y,1/2-z
-x,-y,-z
y,-x+y,-z
x-y,x,-z
y,x,1/2+z
x-y,-y,1/2+z
-x,-x+y,1/2+z
loop_
_atom_site_type_symbol
_atom_site_label
_atom_site_fract_x
_atom_site_fract_y
_atom_site_fract_z
Si Si1 0.475380 0.950760 0.250000
Si Si2 0.164273 0.328546 0.750000
Si Si3 0.895233 0.343432 0.134753
Si Si4 0.666668 0.333334 0.663869
Si Si5 0.337011 0.044658 0.834434
Si Si6 0.422227 0.275473 0.907191
Si Si7 0.387953 0.904569 0.954871
O O1 0.548584 0.898125 0.216035
O O2 0.481271 0.036308 0.190291
O O3 0.233458 0.407333 0.816802
O O4 0.230928 0.265325 0.718260
O O5 0.835605 0.393458 0.084293
O O6 0.007136 0.348518 0.099012
O O7 0.666668 0.333334 0.750000
O O8 0.671746 0.451531 0.632850
O O9 0.340942 0.150635 0.874683
O O10 0.352228 0.970124 0.897191
O O11 0.453056 0.286737 0.989680
O O12 0.500000 0.000000 0.000000
#
# Coordination Sequence:
#
# PCOD9578135 Si02
#       7
#     6   6  12   4  12  12  12
#     4   8  16  32  54  79 116 146 186 241 304 360
#     4  10  22  34  58  85 112 168 210 249 302 360
#     4   9  19  36  58  84 121 161 207 253 304 373
#     4  12  27  33  57  99 129 157 182 238 321 408
#     4  10  21  37  59  86 119 159 208 253 313 374
#     4  11  23  36  61  92 126 159 199 256 322 382
#     4   9  19  38  60  85 120 158 200 252 309 384
#
# _framework density 21.885135999999999
#
# number of rings (size 3 to 8) (size 9 to 14) (size 15 to 20)
#    0.000    2.250    0.000    3.375    7.875    4.500 
#    0.000    0.000    0.000   93.000    0.000    1.312 
#    0.000    0.000    0.000    0.000    0.000    0.000 
#
# Total GULP energy -356295.726864 kJ/mol
# GULP energy per Si atom -5567.120732 kJ/mol
# Density = 2.183532 g / cm^3
# Si number density = 21.885136 Si / 1000 Ang^3
#
#
#
# Elastic Constant Matrix: (Units=GPa)
#
#
# Indices 1 2 3 4 5 6 
#
# 1 71.2991 19.7173 27.1886 0.0001 -2.3853 0.0000
# 2 19.7173 71.2987 27.1886 -0.0002 2.3851 -0.0002
# 3 27.1886 27.1886 114.6041 0.0001 0.0000 0.0000
# 4 0.0001 -0.0002 0.0001 41.1989 0.0000 2.3852
# 5 -2.3853 2.3851 0.0000 0.0000 41.1989 0.0000
# 6 0.0000 -0.0002 0.0000 2.3852 0.0000 25.7908
#
#
#
# Elastic Compliance Matrix: (Units=1/GPa)
#
#
# Indices 1 2 3 4 5 6 
#
# 1 0.016146 -0.003345 -0.003037 0.000000 0.001128 0.000000
# 2 -0.003345 0.016146 -0.003037 0.000000 -0.001128 0.000000
# 3 -0.003037 -0.003037 0.010167 0.000000 0.000000 0.000000
# 4 0.000000 0.000000 0.000000 0.024403 0.000000 -0.002257
# 5 0.001128 -0.001128 0.000000 0.000000 0.024403 0.000000
# 6 0.000000 0.000000 0.000000 -0.002257 0.000000 0.038982
#
#
# Mechanical properties :
#
#
# Convention : Reuss Voigt Hill
#
# Bulk Modulus (GPa) = 42.33410 45.04344 43.68877
# Shear Modulus (GPa) = 31.85536 33.84488 32.85012
#
# Velocity S-wave (km/s) = 3.81933 3.93679 3.87851
# Velocity P-wave (km/s) = 6.23181 6.42580 6.32955
#
# Compressibility (1/GPa) = 0.02362162
#
# Stress axis : x y z
#
# Youngs Moduli (GPa) = 61.93382 61.93349 98.36044
#
# Poissons Ratio (x) = 0.20716 0.29872
# Poissons Ratio (y) = 0.20716 0.29872
# Poissons Ratio (z) = 0.18809 0.18809
#
# Static dielectric constant tensor:
#      x y z
#    x 1.867890 0.000000 0.000000 
#    y 0.000000 1.867890 0.000000 
#    z 0.000000 0.000000 1.869990 
# 
# From -- ./inp_files/3107.got.cif
#   From: 2010.05.17/outbox.cif.g08.bks.cpg/sg163_2_cif.got.tgz:3107.got - 2010.05.20 10:56:03.
