data_PCOD9578653
_publ_section_title
;
Structure prediction by ZEFSAII (Michael W. Deem and Ramdas Pophale) SiO2 
 PCOD9578653
Probable space group: P -3 M 1
;
_chemical_formula_sum "Si O2"
_cell_formula_units_Z 66
_cell_length_a 23.221854
_cell_length_b 23.221854
_cell_length_c 7.379351
_cell_angle_alpha 90.000000
_cell_angle_beta 90.000000
_cell_angle_gamma 120.000000
_cell_volume 3446.216681
_symmetry_space_group_name_H-M "P -3 M 1"
_symmetry_group_IT_number 164
_symmetry_cell_setting 'hexagonal'
loop_
_space_group_symop_operation_xyz
x,y,z
-y,x-y,z
-x+y,-x,z
x-y,-y,-z
-x,-x+y,-z
y,x,-z
-x,-y,-z
y,-x+y,-z
x-y,x,-z
-x+y,y,z
x,x-y,z
-y,-x,z
loop_
_atom_site_type_symbol
_atom_site_label
_atom_site_fract_x
_atom_site_fract_y
_atom_site_fract_z
Si Si1 0.370442 0.248948 0.733844
Si Si2 0.763469 0.754541 0.220109
Si Si3 0.000000 0.861742 0.500000
Si Si4 0.745181 0.615544 0.162896
Si Si5 0.519241 0.911159 0.329632
Si Si6 0.592553 0.059141 0.242879
O O1 0.362412 0.181206 0.654934
O O2 0.306261 0.256408 0.699301
O O3 0.441084 0.312878 0.687735
O O4 0.370416 0.243908 0.950281
O O5 0.822301 0.816010 0.326074
O O6 0.763400 0.685909 0.251046
O O7 0.765692 0.765692 0.000000
O O8 0.933619 0.867237 0.514034
O O9 0.795859 0.591717 0.226856
O O10 0.667446 0.564487 0.180967
O O11 0.441720 0.883439 0.281838
O O12 0.525486 0.929987 0.540942
O O13 0.562199 0.980077 0.218490
O O14 0.538407 0.076813 0.167596
#
# Coordination Sequence:
#
# PCOD9578653 Si02
#       6
#    12  12   6  12  12  12
#     4  10  20  33  52  80 111 144 184 228 276 334
#     4  10  22  41  60  86 121 150 185 239 296 349
#     4  12  27  44  64  86 111 152 200 242 290 348
#     4  10  20  33  52  80 111 144 184 228 276 334
#     4   9  18  32  50  75 107 139 173 217 268 323
#     4   9  18  32  50  75 107 139 173 217 268 323
#
# _framework density 19.151437999999999
#
# number of rings (size 3 to 8) (size 9 to 14) (size 15 to 20)
#    0.000    2.182    1.818    2.273    2.545    3.636 
#    0.000    1.818    0.000    1.818    0.000    0.000 
#    0.000    0.000    0.000    0.000    0.000    0.000 
#
# Total GULP energy -368124.953508 kJ/mol
# GULP energy per Si atom -5577.650811 kJ/mol
# Density = 1.910785 g / cm^3
# Si number density = 19.151438 Si / 1000 Ang^3
#
#
#
# Elastic Constant Matrix: (Units=GPa)
#
#
# Indices 1 2 3 4 5 6 
#
# 1 99.1350 59.2110 -3.2320 -1.7703 0.0000 0.0000
# 2 59.2110 99.1350 -3.2320 1.7703 0.0000 0.0000
# 3 -3.2320 -3.2320 42.5818 0.0000 0.0000 0.0000
# 4 -1.7703 1.7703 0.0000 19.2660 0.0000 0.0000
# 5 0.0000 0.0000 0.0000 0.0000 19.2660 -1.7703
# 6 0.0000 0.0000 0.0000 0.0000 -1.7703 19.9620
#
#
#
# Elastic Compliance Matrix: (Units=1/GPa)
#
#
# Indices 1 2 3 4 5 6 
#
# 1 0.015794 -0.009459 0.000481 0.002320 0.000000 0.000000
# 2 -0.009459 0.015794 0.000481 -0.002320 0.000000 0.000000
# 3 0.000481 0.000481 0.023557 0.000000 0.000000 0.000000
# 4 0.002320 -0.002320 0.000000 0.052331 0.000000 0.000000
# 5 0.000000 0.000000 0.000000 0.000000 0.052331 0.004641
# 6 0.000000 0.000000 0.000000 0.000000 0.004641 0.050507
#
#
# Mechanical properties :
#
#
# Convention : Reuss Voigt Hill
#
# Bulk Modulus (GPa) = 26.21211 38.48289 32.34750
# Shear Modulus (GPa) = 20.83098 24.23910 22.53504
#
# Velocity S-wave (km/s) = 3.30160 3.56146 3.43399
# Velocity P-wave (km/s) = 5.31513 6.08684 5.71403
#
# Compressibility (1/GPa) = 0.03815031
#
# Stress axis : x y z
#
# Youngs Moduli (GPa) = 63.31460 63.31460 42.44986
#
# Poissons Ratio (x) = 0.59891 -0.02041
# Poissons Ratio (y) = 0.59891 -0.02041
# Poissons Ratio (z) = -0.03044 -0.03044
#
# Static dielectric constant tensor:
#      x y z
#    x 1.683020 0.000000 0.000000 
#    y 0.000000 1.683020 0.000000 
#    z 0.000000 0.000000 1.732960 
# 
# From -- ./inp_files/1726.got.cif
#   From: 2010.05.17/outbox.cif.g08.bks.cpg/sg164_1_cif.got.tgz:1726.got - 2010.05.20 10:58:56.
