data_PCOD9578350
_publ_section_title
;
Structure prediction by ZEFSAII (Michael W. Deem and Ramdas Pophale) SiO2 
 PCOD9578350
Probable space group: P -3 M 1
;
_chemical_formula_sum "Si O2"
_cell_formula_units_Z 96
_cell_length_a 18.167915
_cell_length_b 18.167915
_cell_length_c 22.856876
_cell_angle_alpha 90.000000
_cell_angle_beta 90.000000
_cell_angle_gamma 120.000000
_cell_volume 6533.677328
_symmetry_space_group_name_H-M "P -3 M 1"
_symmetry_group_IT_number 164
_symmetry_cell_setting 'hexagonal'
loop_
_space_group_symop_operation_xyz
x,y,z
-y,x-y,z
-x+y,-x,z
x-y,-y,-z
-x,-x+y,-z
y,x,-z
-x,-y,-z
y,-x+y,-z
x-y,x,-z
-x+y,y,z
x,x-y,z
-y,-x,z
loop_
_atom_site_type_symbol
_atom_site_label
_atom_site_fract_x
_atom_site_fract_y
_atom_site_fract_z
Si Si1 0.836358 0.833611 0.124919
Si Si2 0.750771 0.671789 0.543318
Si Si3 0.205329 0.232034 0.249999
Si Si4 0.302356 0.426190 0.250001
Si Si5 0.833611 0.997253 0.624921
Si Si6 0.495234 0.159959 0.622287
Si Si7 0.078982 0.328211 0.043318
Si Si8 0.504767 0.840042 0.122288
O O1 0.866890 0.933445 0.127407
O O2 0.814611 0.797667 0.190519
O O3 0.749914 0.789873 0.088819
O O4 0.910067 0.820134 0.098796
O O5 0.695874 0.695874 0.500000
O O6 0.833883 0.667766 0.519202
O O7 0.789871 0.749913 0.588821
O O8 0.694229 0.584960 0.579251
O O9 0.117908 0.235815 0.249999
O O10 0.280480 0.328989 0.250000
O O11 0.202332 0.185389 0.309480
O O12 0.211828 0.423655 0.250001
O O13 0.344697 0.470056 0.311138
O O14 0.344697 0.470055 0.188864
O O15 0.820134 0.910067 0.598797
O O16 0.933445 0.066556 0.627407
O O17 0.578038 0.156075 0.604133
O O18 0.513764 0.256882 0.623083
O O19 0.166119 0.332237 0.019202
O O20 0.109268 0.415040 0.079252
O O21 0.000000 0.304127 0.000000
O O22 0.421963 0.843925 0.104135
O O23 0.486238 0.743119 0.123084
#
# Coordination Sequence:
#
# PCOD9578350 Si02
#       8
#    12  12  12  12  12  12  12  12
#     4  10  18  28  43  63  88 118 154 191 223 256
#     4  10  20  33  47  63  87 120 155 188 222 260
#     4   9  15  26  42  61  86 116 147 178 219 265
#     4   9  15  28  46  67  92 116 141 170 213 269
#     4  10  18  28  43  63  88 118 154 191 223 256
#     4  10  19  31  49  70  92 115 142 178 220 270
#     4  10  20  33  47  63  87 120 155 188 222 260
#     4  10  19  31  49  70  92 115 142 178 220 270
#
# _framework density 14.693103000000001
#
# number of rings (size 3 to 8) (size 9 to 14) (size 15 to 20)
#    0.000    2.250    2.500    2.000    0.000    0.500 
#    0.000    2.500    0.000    4.000    0.000    0.000 
#    0.000    0.000    0.000    0.000    0.000    4.250 
#
# Total GULP energy -534556.665810 kJ/mol
# GULP energy per Si atom -5568.298602 kJ/mol
# Density = 1.465966 g / cm^3
# Si number density = 14.693103 Si / 1000 Ang^3
#
#
#
# Elastic Constant Matrix: (Units=GPa)
#
#
# Indices 1 2 3 4 5 6 
#
# 1 95.6146 52.7566 34.1874 0.0000 0.0000 0.0000
# 2 52.7566 95.6146 34.1874 0.0000 0.0000 0.0000
# 3 34.1874 34.1874 60.0317 0.0000 0.0000 0.0000
# 4 0.0000 0.0000 0.0000 13.9922 0.0000 0.0000
# 5 0.0000 0.0000 0.0000 0.0000 13.9922 0.0000
# 6 0.0000 0.0000 0.0000 0.0000 0.0000 21.4290
#
#
#
# Elastic Compliance Matrix: (Units=1/GPa)
#
#
# Indices 1 2 3 4 5 6 
#
# 1 0.016235 -0.007097 -0.005204 0.000000 0.000000 0.000000
# 2 -0.007097 0.016235 -0.005204 0.000000 0.000000 0.000000
# 3 -0.005204 -0.005204 0.022585 0.000000 0.000000 0.000000
# 4 0.000000 0.000000 0.000000 0.071468 0.000000 0.000000
# 5 0.000000 0.000000 0.000000 0.000000 0.071468 0.000000
# 6 0.000000 0.000000 0.000000 0.000000 0.000000 0.046666
#
#
# Mechanical properties :
#
#
# Convention : Reuss Voigt Hill
#
# Bulk Modulus (GPa) = 49.88739 54.83598 52.36169
# Shear Modulus (GPa) = 17.46110 18.55799 18.00955
#
# Velocity S-wave (km/s) = 3.45104 3.55778 3.50482
# Velocity P-wave (km/s) = 7.06443 7.36743 7.21752
#
# Compressibility (1/GPa) = 0.02004515
#
# Stress axis : x y z
#
# Youngs Moduli (GPa) = 61.59355 61.59355 44.27689
#
# Poissons Ratio (x) = 0.43715 0.23042
# Poissons Ratio (y) = 0.43715 0.23042
# Poissons Ratio (z) = 0.32053 0.32053
#
# Static dielectric constant tensor:
#      x y z
#    x 1.478810 0.000000 0.000000 
#    y 0.000000 1.478810 0.000000 
#    z 0.000000 0.000000 1.500230 
# 
# From -- ./inp_files/5116.got.cif
#   From: 2010.05.17/outbox.cif.g08.bks.cpg/sg164_3_cif.got.tgz:5116.got - 2010.05.20 10:58:56.
