data_PCOD9578800
_publ_section_title
;
Structure prediction by ZEFSAII (Michael W. Deem and Ramdas Pophale) SiO2 
 PCOD9578800
Probable space group: P -3 C 1
;
_chemical_formula_sum "Si O2"
_cell_formula_units_Z 44
_cell_length_a 12.659033
_cell_length_b 12.659033
_cell_length_c 15.321464
_cell_angle_alpha 90.000000
_cell_angle_beta 90.000000
_cell_angle_gamma 120.000000
_cell_volume 2126.336336
_symmetry_space_group_name_H-M "P -3 C 1"
_symmetry_group_IT_number 165
_symmetry_cell_setting 'hexagonal'
loop_
_space_group_symop_operation_xyz
x,y,z
-y,x-y,z
-x+y,-x,z
x-y,-y,1/2-z
-x,-x+y,1/2-z
y,x,1/2-z
-x,-y,-z
y,-x+y,-z
x-y,x,-z
-x+y,y,1/2+z
x,x-y,1/2+z
-y,-x,1/2+z
loop_
_atom_site_type_symbol
_atom_site_label
_atom_site_fract_x
_atom_site_fract_y
_atom_site_fract_z
Si Si1 0.427541 0.091074 0.179120
Si Si2 0.666668 0.333335 0.453146
Si Si3 0.666668 0.333335 0.168699
Si Si4 0.787154 0.062529 0.504032
Si Si5 0.484692 0.423228 0.413347
O O1 0.532267 0.229243 0.199418
O O2 0.356295 0.093495 0.092328
O O3 0.330552 0.000000 0.250000
O O4 0.503231 0.021744 0.158261
O O5 0.666668 0.333334 0.560434
O O6 0.596340 0.398854 0.416748
O O7 0.703822 0.065183 0.425005
O O8 0.926958 0.161916 0.489942
O O9 0.500000 0.500000 0.500000
#
# Coordination Sequence:
#
# PCOD9578800 Si02
#       5
#    12   4   4  12  12
#     4  11  25  40  61  96 129 161 207 267 324 377
#     4  12  18  34  62  91 114 160 212 247 306 373
#     4  12  21  40  65  88 129 166 206 262 324 382
#     4  11  22  40  64  89 120 166 216 258 306 387
#     4  10  19  33  59  85 117 156 200 249 301 373
#
# _framework density 20.692868000000001
#
# number of rings (size 3 to 8) (size 9 to 14) (size 15 to 20)
#    0.000    1.091    5.455    5.182    0.000    4.364 
#    0.000    1.364    0.000    0.000    0.000    0.000 
#    0.000    0.000    0.000    0.000    0.000    0.000 
#
# Total GULP energy -245663.997886 kJ/mol
# GULP energy per Si atom -5583.272679 kJ/mol
# Density = 2.064577 g / cm^3
# Si number density = 20.692868 Si / 1000 Ang^3
#
#
#
# Elastic Constant Matrix: (Units=GPa)
#
#
# Indices 1 2 3 4 5 6 
#
# 1 110.7145 20.4128 3.2231 1.2729 0.0000 0.0000
# 2 20.4128 110.7135 3.2241 -1.2718 0.0000 0.0000
# 3 3.2231 3.2241 44.3374 -0.0002 0.0000 0.0000
# 4 1.2729 -1.2718 -0.0002 3.9066 0.0000 0.0000
# 5 0.0000 0.0000 0.0000 0.0000 3.9060 1.2728
# 6 0.0000 0.0000 0.0000 0.0000 1.2728 45.1511
#
#
#
# Elastic Compliance Matrix: (Units=1/GPa)
#
#
# Indices 1 2 3 4 5 6 
#
# 1 0.009415 -0.001762 -0.000556 -0.003641 0.000000 0.000000
# 2 -0.001762 0.009415 -0.000557 0.003639 0.000000 0.000000
# 3 -0.000556 -0.000557 0.022635 0.000001 0.000000 0.000000
# 4 -0.003641 0.003639 0.000001 0.258349 0.000000 0.000000
# 5 0.000000 0.000000 0.000000 0.000000 0.258391 -0.007284
# 6 0.000000 0.000000 0.000000 0.000000 -0.007284 0.022353
#
#
# Mechanical properties :
#
#
# Convention : Reuss Voigt Hill
#
# Bulk Modulus (GPa) = 27.99825 35.49838 31.74832
# Shear Modulus (GPa) = 8.35822 26.51977 17.43899
#
# Velocity S-wave (km/s) = 2.01195 3.58381 2.90617
# Velocity P-wave (km/s) = 4.35397 5.85808 5.16111
#
# Compressibility (1/GPa) = 0.03571652
#
# Stress axis : x y z
#
# Youngs Moduli (GPa) = 106.21260 106.21222 44.17891
#
# Poissons Ratio (x) = 0.18710 0.02458
# Poissons Ratio (y) = 0.18710 0.02459
# Poissons Ratio (z) = 0.05909 0.05912
#
# Static dielectric constant tensor:
#      x y z
#    x 1.738590 0.000000 0.000000 
#    y 0.000000 1.738600 0.000000 
#    z 0.000000 0.000000 1.844240 
# 
# From -- ./inp_files/2111.got.cif
#   From: 2010.05.17/outbox.cif.g08.bks.cpg/sg165_2_cif.got.tgz:2111.got - 2010.05.20 11:02:39.
