data_PCOD9578158
_publ_section_title
;
Structure prediction by ZEFSAII (Michael W. Deem and Ramdas Pophale) SiO2 
 PCOD9578158
Probable space group: P -3 1 C
;
_chemical_formula_sum "Si O2"
_cell_formula_units_Z 60
_cell_length_a 14.497690
_cell_length_b 14.497690
_cell_length_c 14.592833
_cell_angle_alpha 90.000000
_cell_angle_beta 90.000000
_cell_angle_gamma 120.000000
_cell_volume 2656.243364
_symmetry_space_group_name_H-M "P -3 1 C"
_symmetry_group_IT_number 163
_symmetry_cell_setting 'hexagonal'
loop_
_space_group_symop_operation_xyz
x,y,z
-y,x-y,z
-x+y,-x,z
-y,-x,1/2-z
-x+y,y,1/2-z
x,x-y,1/2-z
-x,-y,-z
y,-x+y,-z
x-y,x,-z
y,x,1/2+z
x-y,-y,1/2+z
-x,-x+y,1/2+z
loop_
_atom_site_type_symbol
_atom_site_label
_atom_site_fract_x
_atom_site_fract_y
_atom_site_fract_z
Si Si1 0.955779 0.174424 0.519643
Si Si2 0.452925 0.186305 0.513978
Si Si3 0.104132 0.514243 0.551760
Si Si4 0.622465 0.058420 0.803032
Si Si5 0.999930 0.212962 0.726662
O O1 0.898847 0.234531 0.479056
O O2 0.002312 0.224978 0.617019
O O3 0.052135 0.183050 0.462075
O O4 0.464350 0.301171 0.504997
O O5 0.540875 0.181664 0.450873
O O6 0.458505 0.146740 0.617277
O O7 0.000000 0.500000 0.500000
O O8 0.054774 0.455067 0.646641
O O9 0.544374 0.088748 0.750000
O O10 0.704206 0.038570 0.742080
O O11 0.906154 0.093847 0.750000
O O12 0.115522 0.231044 0.750000
#
# Coordination Sequence:
#
# PCOD9578158 Si02
#       5
#    12  12  12  12  12
#     4  11  22  38  62  91 119 157 207 253 301 370
#     4  10  21  40  64  89 121 167 214 262 322 388
#     4  10  21  40  64  90 124 166 219 270 324 399
#     4  10  24  41  63  96 132 171 219 277 336 394
#     4  11  24  41  62  92 132 171 204 256 331 397
#
# _framework density 22.588293
#
# number of rings (size 3 to 8) (size 9 to 14) (size 15 to 20)
#    0.000    1.600    0.000    5.600    0.000   11.200 
#    0.000    0.000    0.000    2.000    0.000    0.000 
#    0.000    0.000    0.000    0.000    0.000    0.000 
#
# Total GULP energy -335123.828238 kJ/mol
# GULP energy per Si atom -5585.397137 kJ/mol
# Density = 2.253688 g / cm^3
# Si number density = 22.588293 Si / 1000 Ang^3
#
#
#
# Elastic Constant Matrix: (Units=GPa)
#
#
# Indices 1 2 3 4 5 6 
#
# 1 110.1469 37.5678 20.6894 0.0001 -7.0778 0.0000
# 2 37.5678 110.1469 20.6894 -0.0001 7.0778 0.0000
# 3 20.6894 20.6894 36.0251 0.0000 0.0000 0.0000
# 4 0.0001 -0.0001 0.0000 21.1963 0.0000 7.0778
# 5 -7.0778 7.0778 0.0000 0.0000 21.1963 0.0001
# 6 0.0000 0.0000 0.0000 7.0778 0.0001 36.2895
#
#
#
# Elastic Compliance Matrix: (Units=1/GPa)
#
#
# Indices 1 2 3 4 5 6 
#
# 1 0.011403 -0.003335 -0.004633 0.000000 0.004921 0.000000
# 2 -0.003335 0.011403 -0.004633 0.000000 -0.004921 0.000000
# 3 -0.004633 -0.004633 0.033080 0.000000 0.000000 0.000000
# 4 0.000000 0.000000 0.000000 0.050465 0.000000 -0.009843
# 5 0.004921 -0.004921 0.000000 0.000000 0.050465 0.000000
# 6 0.000000 0.000000 0.000000 -0.009843 0.000000 0.029476
#
#
# Mechanical properties :
#
#
# Convention : Reuss Voigt Hill
#
# Bulk Modulus (GPa) = 32.59198 46.02360 39.30779
# Shear Modulus (GPa) = 22.55076 27.56124 25.05600
#
# Velocity S-wave (km/s) = 3.16308 3.49686 3.33415
# Velocity P-wave (km/s) = 5.27258 6.05997 5.67994
#
# Compressibility (1/GPa) = 0.03068239
#
# Stress axis : x y z
#
# Youngs Moduli (GPa) = 87.69762 87.69762 30.22946
#
# Poissons Ratio (x) = 0.29248 0.14006
# Poissons Ratio (y) = 0.29248 0.14006
# Poissons Ratio (z) = 0.40633 0.40633
#
# Static dielectric constant tensor:
#      x y z
#    x 1.889870 0.000000 0.000000 
#    y 0.000000 1.889870 0.000000 
#    z 0.000000 0.000000 1.878030 
# 
# From -- ./inp_files/2401.got.cif
#   From: 2010.05.17/outbox.cif.g08.bks.cpg/sg163_2_cif.got.tgz:2401.got - 2010.05.20 10:56:03.
