data_PCOD9578625
_publ_section_title
;
Structure prediction by ZEFSAII (Michael W. Deem and Ramdas Pophale) SiO2 
 PCOD9578625
Probable space group: P -3 M 1
;
_chemical_formula_sum "Si O2"
_cell_formula_units_Z 72
_cell_length_a 23.105239
_cell_length_b 23.105239
_cell_length_c 7.544399
_cell_angle_alpha 90.000000
_cell_angle_beta 90.000000
_cell_angle_gamma 120.000000
_cell_volume 3487.997869
_symmetry_space_group_name_H-M "P -3 M 1"
_symmetry_group_IT_number 164
_symmetry_cell_setting 'hexagonal'
loop_
_space_group_symop_operation_xyz
x,y,z
-y,x-y,z
-x+y,-x,z
x-y,-y,-z
-x,-x+y,-z
y,x,-z
-x,-y,-z
y,-x+y,-z
x-y,x,-z
-x+y,y,z
x,x-y,z
-y,-x,z
loop_
_atom_site_type_symbol
_atom_site_label
_atom_site_fract_x
_atom_site_fract_y
_atom_site_fract_z
Si Si1 0.198664 0.932911 0.400427
Si Si2 0.122067 0.122532 0.786061
Si Si3 0.531005 0.196923 0.856124
Si Si4 0.922513 0.708488 0.977807
Si Si5 0.333969 0.803972 0.560235
Si Si6 0.717029 0.573677 0.149211
O O1 0.139109 0.860891 0.480839
O O2 0.227044 0.913083 0.228689
O O3 0.255621 0.000000 0.500000
O O4 0.158884 0.965739 0.305831
O O5 0.075339 0.150678 0.723397
O O6 0.091004 0.045502 0.737485
O O7 0.123611 0.123611 0.000000
O O8 0.598296 0.196591 0.900912
O O9 0.542081 0.271041 0.884767
O O10 0.516929 0.181844 0.648249
O O11 0.471161 0.147839 0.981992
O O12 0.863939 0.727877 0.008494
O O13 0.910446 0.649949 0.112883
O O14 0.000000 0.763265 0.000000
O O15 0.402755 0.805509 0.606695
O O16 0.270833 0.729168 0.591059
O O17 0.321034 0.854636 0.676161
O O18 0.787484 0.574968 0.151127
#
# Coordination Sequence:
#
# PCOD9578625 Si02
#       6
#    12  12  12  12  12  12
#     4  10  20  33  49  71  96 119 149 195 254 320
#     4   9  16  26  42  63  89 118 145 173 216 287
#     4   9  16  27  48  80 120 160 196 234 276 323
#     4  10  22  41  61  81 104 134 177 229 282 340
#     4   9  16  27  48  82 121 160 197 233 276 324
#     4   9  18  33  51  76 112 150 192 236 279 329
#
# _framework density 20.642213999999999
#
# number of rings (size 3 to 8) (size 9 to 14) (size 15 to 20)
#    0.000    2.667    0.000    2.000    0.000    4.667 
#    3.000    1.667    0.000    4.833    0.000    2.333 
#    0.000    0.000    0.000    0.000    0.000    0.000 
#
# Total GULP energy -401005.638794 kJ/mol
# GULP energy per Si atom -5569.522761 kJ/mol
# Density = 2.059523 g / cm^3
# Si number density = 20.642214 Si / 1000 Ang^3
#
#
#
# Elastic Constant Matrix: (Units=GPa)
#
#
# Indices 1 2 3 4 5 6 
#
# 1 44.0839 33.1250 11.8481 8.9947 0.0000 0.0000
# 2 33.1250 44.0839 11.8481 -8.9947 0.0000 0.0000
# 3 11.8481 11.8481 32.8436 0.0000 0.0000 0.0000
# 4 8.9947 -8.9947 0.0000 20.2172 0.0000 0.0000
# 5 0.0000 0.0000 0.0000 0.0000 20.2172 8.9947
# 6 0.0000 0.0000 0.0000 0.0000 8.9947 5.4794
#
#
#
# Elastic Compliance Matrix: (Units=1/GPa)
#
#
# Indices 1 2 3 4 5 6 
#
# 1 0.176469 -0.161905 -0.005254 -0.150544 0.000000 0.000000
# 2 -0.161905 0.176469 -0.005254 0.150544 0.000000 0.000000
# 3 -0.005254 -0.005254 0.034238 0.000000 0.000000 0.000000
# 4 -0.150544 0.150544 0.000000 0.183418 0.000000 0.000000
# 5 0.000000 0.000000 0.000000 0.000000 0.183418 -0.301088
# 6 0.000000 0.000000 0.000000 0.000000 -0.301088 0.676748
#
#
# Mechanical properties :
#
#
# Convention : Reuss Voigt Hill
#
# Bulk Modulus (GPa) = 23.61229 26.07262 24.84246
# Shear Modulus (GPa) = 2.79376 13.46212 8.12794
#
# Velocity S-wave (km/s) = 1.16463 2.55652 1.98647
# Velocity P-wave (km/s) = 3.64310 4.62305 4.16201
#
# Compressibility (1/GPa) = 0.04235082
#
# Stress axis : x y z
#
# Youngs Moduli (GPa) = 5.66671 5.66671 29.20734
#
# Poissons Ratio (x) = 0.91747 0.15345
# Poissons Ratio (y) = 0.91747 0.15345
# Poissons Ratio (z) = 0.02977 0.02977
#
# Static dielectric constant tensor:
#      x y z
#    x 1.752740 0.000000 0.000000 
#    y 0.000000 1.752740 0.000000 
#    z 0.000000 0.000000 1.838170 
# 
# From -- ./inp_files/1882.got.cif
#   From: 2010.05.17/outbox.cif.g08.bks.cpg/sg164_1_cif.got.tgz:1882.got - 2010.05.20 10:58:56.
