data_PCOD9578816
_publ_section_title
;
Structure prediction by ZEFSAII (Michael W. Deem and Ramdas Pophale) SiO2 
 PCOD9578816
Probable space group: P -3 C 1
;
_chemical_formula_sum "Si O2"
_cell_formula_units_Z 72
_cell_length_a 15.429816
_cell_length_b 15.429816
_cell_length_c 18.516713
_cell_angle_alpha 90.000000
_cell_angle_beta 90.000000
_cell_angle_gamma 120.000000
_cell_volume 3817.825033
_symmetry_space_group_name_H-M "P -3 C 1"
_symmetry_group_IT_number 165
_symmetry_cell_setting 'hexagonal'
loop_
_space_group_symop_operation_xyz
x,y,z
-y,x-y,z
-x+y,-x,z
x-y,-y,1/2-z
-x,-x+y,1/2-z
y,x,1/2-z
-x,-y,-z
y,-x+y,-z
x-y,x,-z
-x+y,y,1/2+z
x,x-y,1/2+z
-y,-x,1/2+z
loop_
_atom_site_type_symbol
_atom_site_label
_atom_site_fract_x
_atom_site_fract_y
_atom_site_fract_z
Si Si1 0.651616 0.890697 0.767013
Si Si2 0.592589 0.892420 0.520653
Si Si3 0.451517 0.120312 0.751721
Si Si4 0.110629 0.543758 0.891439
Si Si5 0.508119 0.110341 0.339752
Si Si6 0.119535 0.734063 0.934571
O O1 0.631133 0.784020 0.738424
O O2 0.557417 0.893094 0.729295
O O3 0.648471 0.880057 0.852880
O O4 0.745348 0.000000 0.750000
O O5 0.528091 0.902725 0.457042
O O6 0.524240 0.848580 0.592170
O O7 0.629839 0.820184 0.489358
O O8 0.678567 0.004799 0.539298
O O9 0.513249 0.156037 0.676072
O O10 0.535266 0.157256 0.814164
O O11 0.394255 0.000000 0.750000
O O12 0.159431 0.655092 0.923790
O O13 0.002536 0.524280 0.864332
#
# Coordination Sequence:
#
# PCOD9578816 Si02
#       6
#    12  12  12  12  12  12
#     4  12  20  39  65  87 125 168 210 253 314 382
#     4  11  23  38  65  88 128 165 209 265 313 388
#     4  10  21  37  64  92 124 161 212 262 313 375
#     4  10  19  39  62  83 125 162 200 258 316 372
#     4  10  20  38  61  88 120 164 202 262 310 372
#     4  11  22  40  61  92 126 170 214 255 329 372
#
# _framework density 18.858903999999999
#
# number of rings (size 3 to 8) (size 9 to 14) (size 15 to 20)
#    0.000    1.333    6.667    2.500    0.000    4.000 
#    2.000    1.667    3.667    0.667    0.000    0.000 
#    0.000    0.000    0.000    0.000    0.000    0.000 
#
# Total GULP energy -401231.778632 kJ/mol
# GULP energy per Si atom -5572.663592 kJ/mol
# Density = 1.881598 g / cm^3
# Si number density = 18.858904 Si / 1000 Ang^3
#
#
#
# Elastic Constant Matrix: (Units=GPa)
#
#
# Indices 1 2 3 4 5 6 
#
# 1 77.6786 26.3310 41.3281 -2.5398 0.0000 0.0000
# 2 26.3310 77.6786 41.3281 2.5398 0.0000 0.0000
# 3 41.3281 41.3281 114.8302 0.0000 0.0000 0.0000
# 4 -2.5398 2.5398 0.0000 29.0118 0.0000 0.0000
# 5 0.0000 0.0000 0.0000 0.0000 29.0118 -2.5398
# 6 0.0000 0.0000 0.0000 0.0000 -2.5398 25.6738
#
#
#
# Elastic Compliance Matrix: (Units=1/GPa)
#
#
# Indices 1 2 3 4 5 6 
#
# 1 0.016556 -0.003090 -0.004846 0.001720 0.000000 0.000000
# 2 -0.003090 0.016556 -0.004846 -0.001720 0.000000 0.000000
# 3 -0.004846 -0.004846 0.012197 0.000000 0.000000 0.000000
# 4 0.001720 -0.001720 0.000000 0.034770 0.000000 0.000000
# 5 0.000000 0.000000 0.000000 0.000000 0.034770 0.003440
# 6 0.000000 0.000000 0.000000 0.000000 0.003440 0.039290
#
#
# Mechanical properties :
#
#
# Convention : Reuss Voigt Hill
#
# Bulk Modulus (GPa) = 50.65065 54.24021 52.44543
# Shear Modulus (GPa) = 26.84063 27.48617 27.16340
#
# Velocity S-wave (km/s) = 3.77667 3.82182 3.79931
# Velocity P-wave (km/s) = 6.77744 6.94971 6.86412
#
# Compressibility (1/GPa) = 0.01974308
#
# Stress axis : x y z
#
# Youngs Moduli (GPa) = 60.40248 60.40248 81.98684
#
# Poissons Ratio (x) = 0.18662 0.39735
# Poissons Ratio (y) = 0.18662 0.39735
# Poissons Ratio (z) = 0.29274 0.29274
#
# Static dielectric constant tensor:
#      x y z
#    x 1.683980 0.000000 0.000000 
#    y 0.000000 1.683980 0.000000 
#    z 0.000000 0.000000 1.698740 
# 
# From -- ./inp_files/2285.got.cif
#   From: 2010.05.17/outbox.cif.g08.bks.cpg/sg165_2_cif.got.tgz:2285.got - 2010.05.20 11:02:39.
