data_PCOD9578137
_publ_section_title
;
Structure prediction by ZEFSAII (Michael W. Deem and Ramdas Pophale) SiO2 
 PCOD9578137
Probable space group: P -3 1 C
;
_chemical_formula_sum "Si O2"
_cell_formula_units_Z 44
_cell_length_a 12.911192
_cell_length_b 12.911192
_cell_length_c 14.952064
_cell_angle_alpha 90.000000
_cell_angle_beta 90.000000
_cell_angle_gamma 120.000000
_cell_volume 2158.561655
_symmetry_space_group_name_H-M "P -3 1 C"
_symmetry_group_IT_number 163
_symmetry_cell_setting 'hexagonal'
loop_
_space_group_symop_operation_xyz
x,y,z
-y,x-y,z
-x+y,-x,z
-y,-x,1/2-z
-x+y,y,1/2-z
x,x-y,1/2-z
-x,-y,-z
y,-x+y,-z
x-y,x,-z
y,x,1/2+z
x-y,-y,1/2+z
-x,-x+y,1/2+z
loop_
_atom_site_type_symbol
_atom_site_label
_atom_site_fract_x
_atom_site_fract_y
_atom_site_fract_z
Si Si1 0.333334 0.666668 0.640256
Si Si2 0.836365 0.090987 0.018109
Si Si3 0.530612 0.926364 0.426637
Si Si4 0.271319 0.858949 0.659353
Si Si5 0.666668 0.333334 0.858362
O O1 0.333334 0.666667 0.750000
O O2 0.300055 0.764378 0.611038
O O3 0.873422 0.174030 0.104709
O O4 0.726830 0.096478 0.972816
O O5 0.956175 0.155884 0.959464
O O6 0.418851 0.802311 0.394243
O O7 0.500000 0.000000 0.500000
O O8 0.603142 0.017335 0.344317
O O9 0.206485 0.793516 0.750000
O O10 0.666668 0.333334 0.750000
#
# Coordination Sequence:
#
# PCOD9578137 Si02
#       5
#     4  12  12  12   4
#     4   9  18  31  53  82 111 141 187 248 292 337
#     4  10  21  38  60  84 115 156 201 252 309 377
#     4  11  24  41  63  90 125 172 215 258 326 408
#     4  10  21  37  61  89 117 155 205 258 308 375
#     4  12  27  43  62  97 139 170 211 288 354 391
#
# _framework density 20.383942000000001
#
# number of rings (size 3 to 8) (size 9 to 14) (size 15 to 20)
#    0.000    1.636    0.000    5.182    0.000    9.818 
#    0.000    4.091    0.000    0.000    0.000    0.000 
#    0.000    0.000    0.000    0.000    0.000    0.000 
#
# Total GULP energy -245452.004616 kJ/mol
# GULP energy per Si atom -5578.454650 kJ/mol
# Density = 2.033755 g / cm^3
# Si number density = 20.383942 Si / 1000 Ang^3
#
#
#
# Elastic Constant Matrix: (Units=GPa)
#
#
# Indices 1 2 3 4 5 6 
#
# 1 156.0048 69.0927 43.4659 0.0002 4.8312 -0.0001
# 2 69.0927 156.0042 43.4658 0.0001 -4.8310 -0.0002
# 3 43.4659 43.4658 66.8809 0.0000 0.0000 -0.0001
# 4 0.0002 0.0001 0.0000 29.3590 0.0000 -4.8311
# 5 4.8312 -4.8310 0.0000 0.0000 29.3593 0.0001
# 6 -0.0001 -0.0002 -0.0001 -4.8311 0.0001 43.4560
#
#
#
# Elastic Compliance Matrix: (Units=1/GPa)
#
#
# Indices 1 2 3 4 5 6 
#
# 1 0.008826 -0.002895 -0.003855 0.000000 -0.001929 0.000000
# 2 -0.002895 0.008826 -0.003855 0.000000 0.001929 0.000000
# 3 -0.003855 -0.003855 0.019962 0.000000 0.000000 0.000000
# 4 0.000000 0.000000 0.000000 0.034696 0.000000 0.003857
# 5 -0.001929 0.001929 0.000000 0.000000 0.034696 0.000000
# 6 0.000000 0.000000 0.000000 0.003857 0.000000 0.023441
#
#
# Mechanical properties :
#
#
# Convention : Reuss Voigt Hill
#
# Bulk Modulus (GPa) = 60.95357 76.77096 68.86226
# Shear Modulus (GPa) = 31.82238 35.29257 33.55748
#
# Velocity S-wave (km/s) = 3.95543 4.16551 4.06183
# Velocity P-wave (km/s) = 7.12939 7.80254 7.47354
#
# Compressibility (1/GPa) = 0.01640593
#
# Stress axis : x y z
#
# Youngs Moduli (GPa) = 113.30491 113.30462 50.09457
#
# Poissons Ratio (x) = 0.32797 0.19310
# Poissons Ratio (y) = 0.32797 0.19310
# Poissons Ratio (z) = 0.43675 0.43675
#
# Static dielectric constant tensor:
#      x y z
#    x 1.786240 0.000000 0.000000 
#    y 0.000000 1.786240 0.000000 
#    z 0.000000 0.000000 1.758920 
# 
# From -- ./inp_files/2947.got.cif
#   From: 2010.05.17/outbox.cif.g08.bks.cpg/sg163_2_cif.got.tgz:2947.got - 2010.05.20 10:56:03.
