data_PCOD9578501
_publ_section_title
;
Structure prediction by ZEFSAII (Michael W. Deem and Ramdas Pophale) SiO2 
 PCOD9578501
Probable space group: P -3 M 1
;
_chemical_formula_sum "Si O2"
_cell_formula_units_Z 36
_cell_length_a 18.563482
_cell_length_b 18.563482
_cell_length_c 7.164467
_cell_angle_alpha 90.000000
_cell_angle_beta 90.000000
_cell_angle_gamma 120.000000
_cell_volume 2138.126523
_symmetry_space_group_name_H-M "P -3 M 1"
_symmetry_group_IT_number 164
_symmetry_cell_setting 'hexagonal'
loop_
_space_group_symop_operation_xyz
x,y,z
-y,x-y,z
-x+y,-x,z
x-y,-y,-z
-x,-x+y,-z
y,x,-z
-x,-y,-z
y,-x+y,-z
x-y,x,-z
-x+y,y,z
x,x-y,z
-y,-x,z
loop_
_atom_site_type_symbol
_atom_site_label
_atom_site_fract_x
_atom_site_fract_y
_atom_site_fract_z
Si Si1 0.171531 0.504298 0.258728
Si Si2 0.092560 0.739074 0.539899
Si Si3 0.460341 0.375536 0.119376
O O1 0.266902 0.533803 0.302232
O O2 0.148922 0.574461 0.310622
O O3 0.117454 0.419495 0.370928
O O4 0.155373 0.488615 0.038250
O O5 0.165351 0.834650 0.555160
O O6 0.091497 0.687731 0.722717
O O7 0.000000 0.721353 0.500000
O O8 0.543384 0.456617 0.196180
O O9 0.410944 0.410944 0.000000
#
# Coordination Sequence:
#
# PCOD9578501 Si02
#       3
#    12  12  12
#     4  10  20  33  51  76 108 143 177 211 249 295
#     4  11  22  36  54  77 104 134 174 218 264 311
#     4  10  19  32  53  78 105 138 174 211 251 297
#
# _framework density 16.83717
#
# number of rings (size 3 to 8) (size 9 to 14) (size 15 to 20)
#    0.000    1.667    3.333    2.333    0.000    1.333 
#    0.000    0.000    0.000   11.000    0.000    0.000 
#    0.000    1.333    0.000    0.000    0.000    0.000 
#
# Total GULP energy -200846.851160 kJ/mol
# GULP energy per Si atom -5579.079199 kJ/mol
# Density = 1.679885 g / cm^3
# Si number density = 16.837170 Si / 1000 Ang^3
#
#
#
# Elastic Constant Matrix: (Units=GPa)
#
#
# Indices 1 2 3 4 5 6 
#
# 1 102.0275 63.8501 30.4686 0.5859 0.0000 0.0000
# 2 63.8501 102.0275 30.4686 -0.5859 0.0000 0.0000
# 3 30.4686 30.4686 62.1923 0.0000 0.0000 0.0000
# 4 0.5859 -0.5859 0.0000 19.2924 0.0000 0.0000
# 5 0.0000 0.0000 0.0000 0.0000 19.2924 0.5859
# 6 0.0000 0.0000 0.0000 0.0000 0.5859 19.0887
#
#
#
# Elastic Compliance Matrix: (Units=1/GPa)
#
#
# Indices 1 2 3 4 5 6 
#
# 1 0.016785 -0.009433 -0.003602 -0.000796 0.000000 0.000000
# 2 -0.009433 0.016785 -0.003602 0.000796 0.000000 0.000000
# 3 -0.003602 -0.003602 0.019608 0.000000 0.000000 0.000000
# 4 -0.000796 0.000796 0.000000 0.051882 0.000000 0.000000
# 5 0.000000 0.000000 0.000000 0.000000 0.051882 -0.001593
# 6 0.000000 0.000000 0.000000 0.000000 -0.001593 0.052436
#
#
# Mechanical properties :
#
#
# Convention : Reuss Voigt Hill
#
# Bulk Modulus (GPa) = 50.23902 57.31353 53.77628
# Shear Modulus (GPa) = 20.05730 20.96538 20.51134
#
# Velocity S-wave (km/s) = 3.45520 3.53255 3.49408
# Velocity P-wave (km/s) = 6.76910 7.12406 6.94885
#
# Compressibility (1/GPa) = 0.01990485
#
# Stress axis : x y z
#
# Youngs Moduli (GPa) = 59.57778 59.57778 50.99936
#
# Poissons Ratio (x) = 0.56201 0.18368
# Poissons Ratio (y) = 0.56201 0.18368
# Poissons Ratio (z) = 0.21458 0.21458
#
# Static dielectric constant tensor:
#      x y z
#    x 1.578160 0.000000 0.000000 
#    y 0.000000 1.578160 0.000000 
#    z 0.000000 0.000000 1.574320 
# 
# From -- ./inp_files/270.got.cif
#   From: 2010.05.17/outbox.cif.g08.bks.cpg/sg164_1_cif.got.tgz:270.got - 2010.05.20 10:58:56.
