data_PCOD9578842
_publ_section_title
;
Structure prediction by ZEFSAII (Michael W. Deem and Ramdas Pophale) SiO2 
 PCOD9578842
Probable space group: P -3 C 1
;
_chemical_formula_sum "Si O2"
_cell_formula_units_Z 52
_cell_length_a 11.300645
_cell_length_b 11.300645
_cell_length_c 20.665383
_cell_angle_alpha 90.000000
_cell_angle_beta 90.000000
_cell_angle_gamma 120.000000
_cell_volume 2285.496469
_symmetry_space_group_name_H-M "P -3 C 1"
_symmetry_group_IT_number 165
_symmetry_cell_setting 'hexagonal'
loop_
_space_group_symop_operation_xyz
x,y,z
-y,x-y,z
-x+y,-x,z
x-y,-y,1/2-z
-x,-x+y,1/2-z
y,x,1/2-z
-x,-y,-z
y,-x+y,-z
x-y,x,-z
-x+y,y,1/2+z
x,x-y,1/2+z
-y,-x,1/2+z
loop_
_atom_site_type_symbol
_atom_site_label
_atom_site_fract_x
_atom_site_fract_y
_atom_site_fract_z
Si Si1 0.044009 0.744344 0.490917
Si Si2 0.378785 0.331066 0.350719
Si Si3 0.000000 0.000000 0.170826
Si Si4 0.293979 0.182283 0.690922
Si Si5 0.920395 0.577654 0.875199
O O1 0.082453 0.670607 0.547545
O O2 0.900988 0.735962 0.509003
O O3 0.018137 0.670615 0.422024
O O4 0.272800 0.349156 0.303837
O O5 0.539500 0.437590 0.346450
O O6 0.374144 0.185106 0.349549
O O7 0.913497 0.845401 0.151327
O O8 0.000000 0.000000 0.250000
O O9 0.242023 0.242023 0.750000
O O10 0.385534 0.313396 0.648909
#
# Coordination Sequence:
#
# PCOD9578842 Si02
#       5
#    12  12   4  12  12
#     4  10  20  36  64  99 136 178 232 292 348 413
#     4  11  23  41  66  98 139 179 230 281 354 425
#     4   9  18  36  66  94 116 157 219 279 325 392
#     4  11  22  42  68  95 130 175 233 289 344 408
#     4  11  23  41  63  95 136 182 227 285 350 418
#
# _framework density 22.752168999999999
#
# number of rings (size 3 to 8) (size 9 to 14) (size 15 to 20)
#    0.000    1.385    4.615    1.385    0.000    0.000 
#    5.538    0.000    0.000    0.000    0.000    0.000 
#    0.000    0.000    0.000    0.000    0.000    0.000 
#
# Total GULP energy -289842.878470 kJ/mol
# GULP energy per Si atom -5573.901509 kJ/mol
# Density = 2.270038 g / cm^3
# Si number density = 22.752169 Si / 1000 Ang^3
#
#
#
# Elastic Constant Matrix: (Units=GPa)
#
#
# Indices 1 2 3 4 5 6 
#
# 1 75.6427 -1.1494 8.6456 0.9191 0.0000 0.0000
# 2 -1.1494 75.6427 8.6456 -0.9191 0.0000 0.0000
# 3 8.6456 8.6456 76.8115 0.0000 0.0000 0.0000
# 4 0.9191 -0.9191 0.0000 22.5672 0.0000 0.0000
# 5 0.0000 0.0000 0.0000 0.0000 22.5672 0.9191
# 6 0.0000 0.0000 0.0000 0.0000 0.9191 38.3960
#
#
#
# Elastic Compliance Matrix: (Units=1/GPa)
#
#
# Indices 1 2 3 4 5 6 
#
# 1 0.013410 0.000375 -0.001551 -0.000531 0.000000 0.000000
# 2 0.000375 0.013410 -0.001551 0.000531 0.000000 0.000000
# 3 -0.001551 -0.001551 0.013368 0.000000 0.000000 0.000000
# 4 -0.000531 0.000531 0.000000 0.044355 0.000000 0.000000
# 5 0.000000 0.000000 0.000000 0.000000 0.044355 -0.001062
# 6 0.000000 0.000000 0.000000 0.000000 -0.001062 0.026070
#
#
# Mechanical properties :
#
#
# Convention : Reuss Voigt Hill
#
# Bulk Modulus (GPa) = 28.79318 28.93120 28.86219
# Shear Modulus (GPa) = 29.06960 30.83644 29.95302
#
# Velocity S-wave (km/s) = 3.57832 3.68546 3.63228
# Velocity P-wave (km/s) = 5.45482 5.55460 5.50494
#
# Compressibility (1/GPa) = 0.03473045
#
# Stress axis : x y z
#
# Youngs Moduli (GPa) = 74.57393 74.57393 74.80465
#
# Poissons Ratio (x) = -0.02794 0.11606
# Poissons Ratio (y) = -0.02794 0.11606
# Poissons Ratio (z) = 0.11570 0.11570
#
# Static dielectric constant tensor:
#      x y z
#    x 1.862070 0.000000 0.000000 
#    y 0.000000 1.862070 0.000000 
#    z 0.000000 0.000000 1.955410 
# 
# From -- ./inp_files/2584.got.cif
#   From: 2010.05.17/outbox.cif.g08.bks.cpg/sg165_2_cif.got.tgz:2584.got - 2010.05.20 11:02:39.
