data_PCOD9578928
_publ_section_title
;
Structure prediction by ZEFSAII (Michael W. Deem and Ramdas Pophale) SiO2 
 PCOD9578928
Probable space group: P -3 C 1
;
_chemical_formula_sum "Si O2"
_cell_formula_units_Z 84
_cell_length_a 17.892155
_cell_length_b 17.892155
_cell_length_c 12.488922
_cell_angle_alpha 90.000000
_cell_angle_beta 90.000000
_cell_angle_gamma 120.000000
_cell_volume 3462.429095
_symmetry_space_group_name_H-M "P -3 C 1"
_symmetry_group_IT_number 165
_symmetry_cell_setting 'hexagonal'
loop_
_space_group_symop_operation_xyz
x,y,z
-y,x-y,z
-x+y,-x,z
x-y,-y,1/2-z
-x,-x+y,1/2-z
y,x,1/2-z
-x,-y,-z
y,-x+y,-z
x-y,x,-z
-x+y,y,1/2+z
x,x-y,1/2+z
-y,-x,1/2+z
loop_
_atom_site_type_symbol
_atom_site_label
_atom_site_fract_x
_atom_site_fract_y
_atom_site_fract_z
Si Si1 0.347333 0.888437 0.647668
Si Si2 0.236734 0.885220 0.045724
Si Si3 0.840404 0.966137 0.505241
Si Si4 0.977642 0.425404 0.364798
Si Si5 0.725903 0.520187 0.630876
Si Si6 0.167233 0.622640 0.942605
Si Si7 0.726116 0.788249 0.646985
O O1 0.450577 0.934188 0.655140
O O2 0.310884 0.848758 0.762844
O O3 0.328277 0.817351 0.555697
O O4 0.307233 0.949619 0.618597
O O5 0.168528 0.835832 0.141522
O O6 0.334561 0.922077 0.078110
O O7 0.221892 0.827296 0.940875
O O8 0.210180 0.954781 0.008131
O O9 0.872323 0.915517 0.425637
O O10 0.808517 0.867925 0.581218
O O11 0.000000 0.402997 0.250000
O O12 0.065399 0.486395 0.426868
O O13 0.643740 0.447084 0.566065
O O14 0.787023 0.480127 0.649663
O O15 0.767260 0.767260 0.750000
#
# Coordination Sequence:
#
# PCOD9578928 Si02
#       7
#    12  12  12  12  12  12  12
#     4  12  25  46  76 106 150 206 257 318 385 466
#     4  11  25  44  70 111 147 188 258 316 379 464
#     4  10  23  44  70 101 140 189 237 305 389 466
#     4  12  26  44  72 110 151 205 256 321 388 463
#     4  12  27  47  74 108 152 206 256 315 387 461
#     4  12  27  47  75 109 155 203 265 320 384 461
#     4  11  24  43  74 104 141 194 251 311 379 456
#
# _framework density 24.260425000000001
#
# number of rings (size 3 to 8) (size 9 to 14) (size 15 to 20)
#    0.000    0.571    4.286    3.000    6.000    2.286 
#    0.000    2.143    0.000    0.000    0.000    0.000 
#    0.000    0.000    0.000    0.000    0.000    0.000 
#
# Total GULP energy -467971.580246 kJ/mol
# GULP energy per Si atom -5571.090241 kJ/mol
# Density = 2.420521 g / cm^3
# Si number density = 24.260425 Si / 1000 Ang^3
#
#
#
# Elastic Constant Matrix: (Units=GPa)
#
#
# Indices 1 2 3 4 5 6 
#
# 1 144.6042 84.8454 27.3985 -16.7809 0.0000 0.0000
# 2 84.8454 144.6042 27.3985 16.7809 0.0000 0.0000
# 3 27.3985 27.3985 73.1363 0.0000 0.0000 0.0000
# 4 -16.7809 16.7809 0.0000 3.9075 0.0000 0.0000
# 5 0.0000 0.0000 0.0000 0.0000 3.9075 -16.7809
# 6 0.0000 0.0000 0.0000 0.0000 -16.7809 29.8794
#
#
#
# Elastic Compliance Matrix: (Units=1/GPa)
#
#
# Indices 1 2 3 4 5 6 
#
# 1 -0.003533 0.008319 -0.001793 -0.050899 0.000000 0.000000
# 2 0.008319 -0.003533 -0.001793 0.050899 0.000000 0.000000
# 3 -0.001793 -0.001793 0.015017 0.000000 0.000000 0.000000
# 4 -0.050899 0.050899 0.000000 -0.181256 0.000000 0.000000
# 5 0.000000 0.000000 0.000000 0.000000 -0.181256 -0.101797
# 6 0.000000 0.000000 0.000000 0.000000 -0.101797 -0.023704
#
#
# Mechanical properties :
#
#
# Convention : Reuss Voigt Hill
#
# Bulk Modulus (GPa) = 57.41492 71.29216 64.35354
# Shear Modulus (GPa) = -13.09162 22.38570 4.64704
#
# Velocity S-wave (km/s) = -2.32551 3.04093 1.38551
# Velocity P-wave (km/s) = 4.06286 6.46372 5.39845
#
# Compressibility (1/GPa) = 0.01741707
#
# Stress axis : x y z
#
# Youngs Moduli (GPa) = -283.07147 -283.07147 66.59300
#
# Poissons Ratio (x) = 2.35492 0.11941
# Poissons Ratio (y) = 2.35492 0.11941
# Poissons Ratio (z) = -0.50758 -0.50758
#
# Static dielectric constant tensor:
#      x y z
#    x 2.586060 0.000000 0.000000 
#    y 0.000000 2.586060 0.000000 
#    z 0.000000 0.000000 2.293110 
# 
# From -- ./inp_files/1881.got.cif
#   From: 2010.05.17/outbox.cif.g08.bks.cpg/sg165_1_cif.got.tgz:1881.got - 2010.05.20 11:02:39.
