data_PCOD9578539
_publ_section_title
;
Structure prediction by ZEFSAII (Michael W. Deem and Ramdas Pophale) SiO2 
 PCOD9578539
Probable space group: P -3 M 1
;
_chemical_formula_sum "Si O2"
_cell_formula_units_Z 60
_cell_length_a 13.125619
_cell_length_b 13.125619
_cell_length_c 25.606774
_cell_angle_alpha 90.000000
_cell_angle_beta 90.000000
_cell_angle_gamma 120.000000
_cell_volume 3820.542962
_symmetry_space_group_name_H-M "P -3 M 1"
_symmetry_group_IT_number 164
_symmetry_cell_setting 'hexagonal'
loop_
_space_group_symop_operation_xyz
x,y,z
-y,x-y,z
-x+y,-x,z
x-y,-y,-z
-x,-x+y,-z
y,x,-z
-x,-y,-z
y,-x+y,-z
x-y,x,-z
-x+y,y,z
x,x-y,z
-y,-x,z
loop_
_atom_site_type_symbol
_atom_site_label
_atom_site_fract_x
_atom_site_fract_y
_atom_site_fract_z
Si Si1 0.238578 0.238843 0.638136
Si Si2 0.333533 0.424958 0.849471
Si Si3 0.760435 0.999742 0.240415
Si Si4 0.333571 0.424709 0.452585
Si Si5 0.239479 0.000424 0.939098
O O1 0.204718 0.102359 0.633691
O O2 0.270829 0.272148 0.698814
O O3 0.345814 0.310904 0.598985
O O4 0.125926 0.251852 0.625427
O O5 0.225514 0.451027 0.849439
O O6 0.456573 0.543428 0.849350
O O7 0.315461 0.344632 0.798925
O O8 0.315746 0.345126 0.900169
O O9 0.895455 0.104546 0.234092
O O10 0.750659 0.875329 0.228841
O O11 0.362799 0.362799 0.500000
O O12 0.214967 0.429933 0.462613
O O13 0.445341 0.554660 0.446307
O O14 0.249069 0.124535 0.926975
O O15 0.104570 0.895431 0.932748
O O16 0.270274 0.000000 0.000000
#
# Coordination Sequence:
#
# PCOD9578539 Si02
#       5
#    12  12  12  12  12
#     4   9  17  30  49  73  98 121 147 183 230 281
#     4  10  20  32  46  64  90 125 161 193 222 260
#     4   9  17  30  50  74  96 118 147 188 236 280
#     4  10  20  33  49  68  92 123 158 195 232 273
#     4   9  17  30  50  75  98 118 144 185 237 285
#
# _framework density 15.704573999999999
#
# number of rings (size 3 to 8) (size 9 to 14) (size 15 to 20)
#    0.000    2.600    0.000    2.200    0.000    3.600 
#    0.000    2.000    0.000    6.800    0.000    0.000 
#    0.000    0.000    0.000    0.000    0.000    0.000 
#
# Total GULP energy -334547.772079 kJ/mol
# GULP energy per Si atom -5575.796201 kJ/mol
# Density = 1.566883 g / cm^3
# Si number density = 15.704574 Si / 1000 Ang^3
#
#
#
# Elastic Constant Matrix: (Units=GPa)
#
#
# Indices 1 2 3 4 5 6 
#
# 1 124.2745 83.7669 84.5580 0.1650 0.0000 0.0000
# 2 83.7669 124.2745 84.5580 -0.1650 0.0000 0.0000
# 3 84.5580 84.5580 100.5679 0.0000 0.0000 0.0000
# 4 0.1650 -0.1650 0.0000 19.6159 0.0000 0.0000
# 5 0.0000 0.0000 0.0000 0.0000 19.6159 0.1650
# 6 0.0000 0.0000 0.0000 0.0000 0.1650 20.2538
#
#
#
# Elastic Compliance Matrix: (Units=1/GPa)
#
#
# Indices 1 2 3 4 5 6 
#
# 1 0.019937 -0.004751 -0.012769 -0.000208 0.000000 0.000000
# 2 -0.004751 0.019937 -0.012769 0.000208 0.000000 0.000000
# 3 -0.012769 -0.012769 0.031416 0.000000 0.000000 0.000000
# 4 -0.000208 0.000208 0.000000 0.050982 0.000000 0.000000
# 5 0.000000 0.000000 0.000000 0.000000 0.050982 -0.000415
# 6 0.000000 0.000000 0.000000 0.000000 -0.000415 0.049377
#
#
# Mechanical properties :
#
#
# Convention : Reuss Voigt Hill
#
# Bulk Modulus (GPa) = 93.34213 94.98695 94.16454
# Shear Modulus (GPa) = 17.43489 18.31273 17.87381
#
# Velocity S-wave (km/s) = 3.33555 3.41849 3.37727
# Velocity P-wave (km/s) = 8.62553 8.72905 8.67745
#
# Compressibility (1/GPa) = 0.01071328
#
# Stress axis : x y z
#
# Youngs Moduli (GPa) = 50.15680 50.15680 31.83110
#
# Poissons Ratio (x) = 0.23829 0.40645
# Poissons Ratio (y) = 0.23829 0.40645
# Poissons Ratio (z) = 0.64045 0.64045
#
# Static dielectric constant tensor:
#      x y z
#    x 1.495240 0.000000 0.000000 
#    y 0.000000 1.495240 0.000000 
#    z 0.000000 0.000000 1.529660 
# 
# From -- ./inp_files/5167.got.cif
#   From: 2010.05.17/outbox.cif.g08.bks.cpg/sg164_3_cif.got.tgz:5167.got - 2010.05.20 10:58:56.
