data_PCOD9578353
_publ_section_title
;
Structure prediction by ZEFSAII (Michael W. Deem and Ramdas Pophale) SiO2 
 PCOD9578353
Probable space group: P -3 M 1
;
_chemical_formula_sum "Si O2"
_cell_formula_units_Z 84
_cell_length_a 20.386417
_cell_length_b 20.386417
_cell_length_c 14.159087
_cell_angle_alpha 90.000000
_cell_angle_beta 90.000000
_cell_angle_gamma 120.000000
_cell_volume 5096.214377
_symmetry_space_group_name_H-M "P -3 M 1"
_symmetry_group_IT_number 164
_symmetry_cell_setting 'hexagonal'
loop_
_space_group_symop_operation_xyz
x,y,z
-y,x-y,z
-x+y,-x,z
x-y,-y,-z
-x,-x+y,-z
y,x,-z
-x,-y,-z
y,-x+y,-z
x-y,x,-z
-x+y,y,z
x,x-y,z
-y,-x,z
loop_
_atom_site_type_symbol
_atom_site_label
_atom_site_fract_x
_atom_site_fract_y
_atom_site_fract_z
Si Si1 0.899320 0.331529 0.672640
Si Si2 0.110270 0.371990 0.028282
Si Si3 0.540084 0.929660 0.699568
Si Si4 0.752380 0.090316 0.182396
Si Si5 0.514215 0.335746 0.862301
Si Si6 0.213905 0.281977 0.223948
Si Si7 0.179374 0.666643 0.518825
O O1 0.852880 0.343060 0.756394
O O2 0.906248 0.259332 0.705646
O O3 0.858942 0.320927 0.573320
O O4 0.983057 0.404306 0.670991
O O5 0.195591 0.391181 0.007213
O O6 0.118071 0.449083 0.068310
O O7 0.085002 0.316343 0.117751
O O8 0.071034 0.340945 0.928408
O O9 0.460768 0.921536 0.735923
O O10 0.590226 0.909807 0.769594
O O11 0.520062 0.876661 0.607875
O O12 0.829272 0.170729 0.192317
O O13 0.763429 0.023111 0.227059
O O14 0.515042 0.257521 0.866588
O O15 0.594614 0.405387 0.886544
O O16 0.124042 0.248083 0.239518
O O17 0.192509 0.596255 0.499616
O O18 0.257906 0.742095 0.539316
#
# Coordination Sequence:
#
# PCOD9578353 Si02
#       7
#    12  12  12  12  12  12  12
#     4  10  19  32  49  68  90 117 150 189 235 285
#     4   8  16  29  44  64  90 120 153 189 227 272
#     4  10  21  34  48  66  91 124 159 196 235 273
#     4  10  19  32  50  71  95 125 163 200 233 277
#     4  10  18  28  43  65  93 121 152 191 237 285
#     4   9  17  31  50  72  96 120 148 187 240 292
#     4  11  21  33  48  66  90 119 153 190 230 275
#
# _framework density 16.482824000000001
#
# number of rings (size 3 to 8) (size 9 to 14) (size 15 to 20)
#    0.000    2.286    0.000    5.000    0.000    1.714 
#    0.000    1.429    0.000    5.714    0.000    0.000 
#    0.000    3.429    0.000    0.000    0.000   29.714 
#
# Total GULP energy -467899.540159 kJ/mol
# GULP energy per Si atom -5570.232621 kJ/mol
# Density = 1.644531 g / cm^3
# Si number density = 16.482824 Si / 1000 Ang^3
#
#
#
# Elastic Constant Matrix: (Units=GPa)
#
#
# Indices 1 2 3 4 5 6 
#
# 1 66.8453 42.2032 15.6213 -5.8373 0.0000 0.0000
# 2 42.2032 66.8453 15.6213 5.8373 0.0000 0.0000
# 3 15.6213 15.6213 32.9194 0.0000 0.0000 0.0000
# 4 -5.8373 5.8373 0.0000 10.3229 0.0000 0.0000
# 5 0.0000 0.0000 0.0000 0.0000 10.3229 -5.8373
# 6 0.0000 0.0000 0.0000 0.0000 -5.8373 12.3210
#
#
#
# Elastic Compliance Matrix: (Units=1/GPa)
#
#
# Indices 1 2 3 4 5 6 
#
# 1 0.033022 -0.022409 -0.005036 0.031345 0.000000 0.000000
# 2 -0.022409 0.033022 -0.005036 -0.031345 0.000000 0.000000
# 3 -0.005036 -0.005036 0.035157 0.000000 0.000000 0.000000
# 4 0.031345 -0.031345 0.000000 0.132322 0.000000 0.000000
# 5 0.000000 0.000000 0.000000 0.000000 0.132322 0.062690
# 6 0.000000 0.000000 0.000000 0.000000 0.062690 0.110863
#
#
# Mechanical properties :
#
#
# Convention : Reuss Voigt Hill
#
# Bulk Modulus (GPa) = 27.59522 34.83351 31.21437
# Shear Modulus (GPa) = 9.02933 12.80428 10.91680
#
# Velocity S-wave (km/s) = 2.34306 2.79018 2.57634
# Velocity P-wave (km/s) = 4.90898 5.61776 5.27529
#
# Compressibility (1/GPa) = 0.03623815
#
# Stress axis : x y z
#
# Youngs Moduli (GPa) = 30.28259 30.28259 28.44388
#
# Poissons Ratio (x) = 0.67861 0.14325
# Poissons Ratio (y) = 0.67861 0.14325
# Poissons Ratio (z) = 0.15251 0.15251
#
# Static dielectric constant tensor:
#      x y z
#    x 1.569480 0.000000 0.000000 
#    y 0.000000 1.569480 0.000000 
#    z 0.000000 0.000000 1.550660 
# 
# From -- ./inp_files/2942.got.cif
#   From: 2010.05.17/outbox.cif.g08.bks.cpg/sg164_2_cif.got.tgz:2942.got - 2010.05.20 10:58:56.
