data_PCOD9578594
_publ_section_title
;
Structure prediction by ZEFSAII (Michael W. Deem and Ramdas Pophale) SiO2 
 PCOD9578594
Probable space group: P -3 M 1
;
_chemical_formula_sum "Si O2"
_cell_formula_units_Z 66
_cell_length_a 12.835719
_cell_length_b 12.835719
_cell_length_c 28.701833
_cell_angle_alpha 90.000000
_cell_angle_beta 90.000000
_cell_angle_gamma 120.000000
_cell_volume 4095.252336
_symmetry_space_group_name_H-M "P -3 M 1"
_symmetry_group_IT_number 164
_symmetry_cell_setting 'hexagonal'
loop_
_space_group_symop_operation_xyz
x,y,z
-y,x-y,z
-x+y,-x,z
x-y,-y,-z
-x,-x+y,-z
y,x,-z
-x,-y,-z
y,-x+y,-z
x-y,x,-z
-x+y,y,z
x,x-y,z
-y,-x,z
loop_
_atom_site_type_symbol
_atom_site_label
_atom_site_fract_x
_atom_site_fract_y
_atom_site_fract_z
Si Si1 0.914079 0.333602 0.821904
Si Si2 0.000178 0.753088 0.266728
Si Si3 0.418916 0.332551 0.541936
Si Si4 0.913916 0.580565 0.089032
Si Si5 0.752735 0.752735 0.000000
Si Si6 0.333662 0.914972 0.352800
O O1 0.899207 0.449604 0.814045
O O2 0.784909 0.215092 0.829758
O O3 0.973074 0.308274 0.777063
O O4 0.000037 0.361437 0.866428
O O5 0.872968 0.745936 0.262752
O O6 0.011731 0.691008 0.313679
O O7 0.108648 0.891352 0.267828
O O8 0.343596 0.343596 0.500000
O O9 0.425217 0.212609 0.536931
O O10 0.552117 0.447884 0.538911
O O11 0.374983 0.334360 0.594483
O O12 0.784014 0.568027 0.097251
O O13 0.901285 0.450643 0.080711
O O14 0.972102 0.666728 0.044533
O O15 0.765401 0.882701 0.008258
O O16 0.458387 0.916774 0.344851
O O17 0.222309 0.777692 0.350197
#
# Coordination Sequence:
#
# PCOD9578594 Si02
#       6
#    12  12  12  12   6  12
#     4  10  20  34  53  76 100 126 158 198 241 282
#     4  10  20  33  49  69  94 124 156 190 230 278
#     4   9  17  29  46  68  93 122 156 194 236 281
#     4  10  20  34  52  74 101 133 167 201 240 289
#     4  10  20  34  52  74 100 130 166 208 252 294
#     4   9  17  30  49  71  93 119 154 197 241 282
#
# _framework density 16.116223000000002
#
# number of rings (size 3 to 8) (size 9 to 14) (size 15 to 20)
#    0.000    2.364    0.000    2.909    0.000    2.182 
#    0.000    1.818    0.000   15.818    0.000    0.000 
#    0.000    0.000    0.000    0.000    0.000    0.000 
#
# Total GULP energy -368109.633796 kJ/mol
# GULP energy per Si atom -5577.418694 kJ/mol
# Density = 1.607954 g / cm^3
# Si number density = 16.116223 Si / 1000 Ang^3
#
#
#
# Elastic Constant Matrix: (Units=GPa)
#
#
# Indices 1 2 3 4 5 6 
#
# 1 107.2788 86.6291 84.6311 2.5107 0.0000 0.0000
# 2 86.6291 107.2788 84.6311 -2.5107 0.0000 0.0000
# 3 84.6311 84.6311 129.6825 0.0000 0.0000 0.0000
# 4 2.5107 -2.5107 0.0000 21.7447 0.0000 0.0000
# 5 0.0000 0.0000 0.0000 0.0000 21.7447 2.5107
# 6 0.0000 0.0000 0.0000 0.0000 2.5107 10.3248
#
#
#
# Elastic Compliance Matrix: (Units=1/GPa)
#
#
# Indices 1 2 3 4 5 6 
#
# 1 0.030905 -0.018921 -0.007821 -0.005753 0.000000 0.000000
# 2 -0.018921 0.030905 -0.007821 0.005753 0.000000 0.000000
# 3 -0.007821 -0.007821 0.017919 0.000000 0.000000 0.000000
# 4 -0.005753 0.005753 0.000000 0.047317 0.000000 0.000000
# 5 0.000000 0.000000 0.000000 0.000000 0.047317 -0.011506
# 6 0.000000 0.000000 0.000000 0.000000 -0.011506 0.099652
#
#
# Mechanical properties :
#
#
# Convention : Reuss Voigt Hill
#
# Bulk Modulus (GPa) = 94.30724 95.11362 94.71043
# Shear Modulus (GPa) = 14.42285 16.65277 15.53781
#
# Velocity S-wave (km/s) = 2.99478 3.21797 3.10838
# Velocity P-wave (km/s) = 8.40252 8.54123 8.47216
#
# Compressibility (1/GPa) = 0.01060364
#
# Stress axis : x y z
#
# Youngs Moduli (GPa) = 32.35748 32.35748 55.80796
#
# Poissons Ratio (x) = 0.61224 0.43645
# Poissons Ratio (y) = 0.61224 0.43645
# Poissons Ratio (z) = 0.25305 0.25305
#
# Static dielectric constant tensor:
#      x y z
#    x 1.509040 0.000000 0.000000 
#    y 0.000000 1.509040 0.000000 
#    z 0.000000 0.000000 1.538770 
# 
# From -- ./inp_files/5436.got.cif
#   From: 2010.05.17/outbox.cif.g08.bks.cpg/sg164_3_cif.got.tgz:5436.got - 2010.05.20 10:58:56.
