data_PCOD9578901
_publ_section_title
;
Structure prediction by ZEFSAII (Michael W. Deem and Ramdas Pophale) SiO2 
 PCOD9578901
Probable space group: P -3 C 1
;
_chemical_formula_sum "Si O2"
_cell_formula_units_Z 66
_cell_length_a 18.812617
_cell_length_b 18.812617
_cell_length_c 10.555688
_cell_angle_alpha 90.000000
_cell_angle_beta 90.000000
_cell_angle_gamma 120.000000
_cell_volume 3235.307799
_symmetry_space_group_name_H-M "P -3 C 1"
_symmetry_group_IT_number 165
_symmetry_cell_setting 'hexagonal'
loop_
_space_group_symop_operation_xyz
x,y,z
-y,x-y,z
-x+y,-x,z
x-y,-y,1/2-z
-x,-x+y,1/2-z
y,x,1/2-z
-x,-y,-z
y,-x+y,-z
x-y,x,-z
-x+y,y,1/2+z
x,x-y,1/2+z
-y,-x,1/2+z
loop_
_atom_site_type_symbol
_atom_site_label
_atom_site_fract_x
_atom_site_fract_y
_atom_site_fract_z
Si Si1 0.194072 0.508871 0.334009
Si Si2 0.920482 0.427406 0.568414
Si Si3 0.354567 0.354567 0.250000
Si Si4 0.802689 0.121389 0.409506
Si Si5 0.089202 0.779484 0.807061
Si Si6 0.221216 0.721044 0.568563
O O1 0.127926 0.536829 0.354753
O O2 0.142320 0.409106 0.320648
O O3 0.252310 0.537713 0.455729
O O4 0.247240 0.537727 0.206932
O O5 0.859995 0.363114 0.465629
O O6 0.000000 0.500000 0.500000
O O7 0.943447 0.376702 0.665236
O O8 0.334344 0.281467 0.346581
O O9 0.811410 0.091612 0.549172
O O10 0.869537 0.148382 0.297632
O O11 0.798229 0.204410 0.429123
O O12 0.000000 0.717615 0.750000
#
# Coordination Sequence:
#
# PCOD9578901 Si02
#       6
#    12  12   6  12  12  12
#     4  10  23  39  62  88 119 173 219 279 337 402
#     4  12  24  37  65  96 127 172 234 288 338 409
#     4  12  24  38  64  98 134 164 222 286 350 406
#     4  10  23  39  64  93 129 175 208 275 346 400
#     4  10  22  38  64  89 137 169 218 265 337 398
#     4  10  22  42  59  84 129 161 221 275 352 384
#
# _framework density 20.399912
#
# number of rings (size 3 to 8) (size 9 to 14) (size 15 to 20)
#    0.000    1.455    0.000    6.545   14.000    1.455 
#    1.091    0.000    4.000    0.000    0.000    0.000 
#    0.909    1.455    0.000    0.000    0.000    0.000 
#
# Total GULP energy -368629.679488 kJ/mol
# GULP energy per Si atom -5585.298174 kJ/mol
# Density = 2.035348 g / cm^3
# Si number density = 20.399912 Si / 1000 Ang^3
#
#
#
# Elastic Constant Matrix: (Units=GPa)
#
#
# Indices 1 2 3 4 5 6 
#
# 1 76.9518 6.2177 44.5546 8.9623 0.0000 0.0000
# 2 6.2177 76.9518 44.5546 -8.9623 0.0000 0.0000
# 3 44.5546 44.5546 202.1397 0.0000 0.0000 0.0000
# 4 8.9623 -8.9623 0.0000 45.1028 0.0000 0.0000
# 5 0.0000 0.0000 0.0000 0.0000 45.1028 8.9623
# 6 0.0000 0.0000 0.0000 0.0000 8.9623 35.3671
#
#
#
# Elastic Compliance Matrix: (Units=1/GPa)
#
#
# Indices 1 2 3 4 5 6 
#
# 1 0.015314 0.000427 -0.003470 -0.002958 0.000000 0.000000
# 2 0.000427 0.015314 -0.003470 0.002958 0.000000 0.000000
# 3 -0.003470 -0.003470 0.006477 0.000000 0.000000 0.000000
# 4 -0.002958 0.002958 0.000000 0.023347 0.000000 0.000000
# 5 0.000000 0.000000 0.000000 0.000000 0.023347 -0.005916
# 6 0.000000 0.000000 0.000000 0.000000 -0.005916 0.029774
#
#
# Mechanical properties :
#
#
# Convention : Reuss Voigt Hill
#
# Bulk Modulus (GPa) = 41.52770 60.74414 51.13592
# Shear Modulus (GPa) = 37.14040 42.49562 39.81801
#
# Velocity S-wave (km/s) = 4.27150 4.56908 4.42279
# Velocity P-wave (km/s) = 6.68794 7.59451 7.15560
#
# Compressibility (1/GPa) = 0.02408031
#
# Stress axis : x y z
#
# Youngs Moduli (GPa) = 65.29961 65.29961 154.40314
#
# Poissons Ratio (x) = -0.02788 0.53571
# Poissons Ratio (y) = -0.02788 0.53571
# Poissons Ratio (z) = 0.22656 0.22656
#
# Static dielectric constant tensor:
#      x y z
#    x 1.718160 0.000000 0.000000 
#    y 0.000000 1.718160 0.000000 
#    z 0.000000 0.000000 1.688070 
# 
# From -- ./inp_files/716.got.cif
#   From: 2010.05.17/outbox.cif.g08.bks.cpg/sg165_1_cif.got.tgz:716.got - 2010.05.20 11:02:39.
