data_PCOD9578725
_publ_section_title
;
Structure prediction by ZEFSAII (Michael W. Deem and Ramdas Pophale) SiO2 
 PCOD9578725
Probable space group: P -3 M 1
;
_chemical_formula_sum "Si O2"
_cell_formula_units_Z 60
_cell_length_a 19.848158
_cell_length_b 19.848158
_cell_length_c 9.292755
_cell_angle_alpha 90.000000
_cell_angle_beta 90.000000
_cell_angle_gamma 120.000000
_cell_volume 3170.410779
_symmetry_space_group_name_H-M "P -3 M 1"
_symmetry_group_IT_number 164
_symmetry_cell_setting 'hexagonal'
loop_
_space_group_symop_operation_xyz
x,y,z
-y,x-y,z
-x+y,-x,z
x-y,-y,-z
-x,-x+y,-z
y,x,-z
-x,-y,-z
y,-x+y,-z
x-y,x,-z
-x+y,y,z
x,x-y,z
-y,-x,z
loop_
_atom_site_type_symbol
_atom_site_label
_atom_site_fract_x
_atom_site_fract_y
_atom_site_fract_z
Si Si1 0.296174 0.434563 0.806662
Si Si2 0.910121 0.455061 0.688274
Si Si3 0.451862 0.903723 0.648567
Si Si4 0.863751 0.296147 0.855691
Si Si5 0.216072 0.938848 0.622051
Si Si6 0.047579 0.252673 0.145815
O O1 0.226197 0.452394 0.805765
O O2 0.369484 0.499211 0.723769
O O3 0.264075 0.354048 0.719666
O O4 0.314238 0.430873 0.974541
O O5 0.885800 0.442900 0.521034
O O6 0.881269 0.373167 0.769642
O O7 0.003786 0.501893 0.679451
O O8 0.774008 0.225993 0.842857
O O9 0.916277 0.259127 0.806050
O O10 0.138312 0.861689 0.569030
O O11 0.267402 0.000000 0.500000
O O12 0.197239 0.989623 0.732393
O O13 0.120648 0.241295 0.120050
O O14 0.000000 0.238060 0.000000
#
# Coordination Sequence:
#
# PCOD9578725 Si02
#       6
#    12   6   6  12  12  12
#     4  10  22  41  64  91 122 161 208 254 307 365
#     4  11  25  39  61  95 128 165 204 255 310 369
#     4  11  25  39  59  95 131 164 205 252 311 370
#     4  10  22  41  64  92 121 160 209 255 308 362
#     4  11  23  39  61  90 122 161 203 251 304 364
#     4  11  21  37  63  92 122 156 200 254 302 360
#
# _framework density 18.924992
#
# number of rings (size 3 to 8) (size 9 to 14) (size 15 to 20)
#    0.000    1.400    2.000    3.000    5.600    1.600 
#    1.200    0.000    0.000    8.000    0.000    0.000 
#    0.000    0.000    0.000    0.000    0.000    0.000 
#
# Total GULP energy -335096.963577 kJ/mol
# GULP energy per Si atom -5584.949393 kJ/mol
# Density = 1.888192 g / cm^3
# Si number density = 18.924992 Si / 1000 Ang^3
#
#
#
# Elastic Constant Matrix: (Units=GPa)
#
#
# Indices 1 2 3 4 5 6 
#
# 1 80.8372 60.7557 46.4542 5.4435 0.0000 0.0000
# 2 60.7557 80.8372 46.4542 -5.4435 0.0000 0.0000
# 3 46.4542 46.4542 108.3303 0.0000 0.0000 0.0000
# 4 5.4435 -5.4435 0.0000 30.9728 0.0000 0.0000
# 5 0.0000 0.0000 0.0000 0.0000 30.9728 5.4435
# 6 0.0000 0.0000 0.0000 0.0000 5.4435 10.0407
#
#
#
# Elastic Compliance Matrix: (Units=1/GPa)
#
#
# Indices 1 2 3 4 5 6 
#
# 1 0.032435 -0.022607 -0.004214 -0.009674 0.000000 0.000000
# 2 -0.022607 0.032435 -0.004214 0.009674 0.000000 0.000000
# 3 -0.004214 -0.004214 0.012845 0.000000 0.000000 0.000000
# 4 -0.009674 0.009674 0.000000 0.035687 0.000000 0.000000
# 5 0.000000 0.000000 0.000000 0.000000 0.035687 -0.019347
# 6 0.000000 0.000000 0.000000 0.000000 -0.019347 0.110083
#
#
# Mechanical properties :
#
#
# Convention : Reuss Voigt Hill
#
# Bulk Modulus (GPa) = 63.92384 64.14811 64.03598
# Shear Modulus (GPa) = 15.31594 22.15330 18.73462
#
# Velocity S-wave (km/s) = 2.84790 3.42509 3.14975
# Velocity P-wave (km/s) = 6.68318 7.04352 6.86572
#
# Compressibility (1/GPa) = 0.01564361
#
# Stress axis : x y z
#
# Youngs Moduli (GPa) = 30.83117 30.83117 77.84855
#
# Poissons Ratio (x) = 0.69700 0.32808
# Poissons Ratio (y) = 0.69700 0.32808
# Poissons Ratio (z) = 0.12993 0.12993
#
# Static dielectric constant tensor:
#      x y z
#    x 1.646410 0.000000 0.000000 
#    y 0.000000 1.646410 0.000000 
#    z 0.000000 0.000000 1.683080 
# 
# From -- ./inp_files/1646.got.cif
#   From: 2010.05.17/outbox.cif.g08.bks.cpg/sg164_1_cif.got.tgz:1646.got - 2010.05.20 10:58:56.
