data_PCOD9578764
_publ_section_title
;
Structure prediction by ZEFSAII (Michael W. Deem and Ramdas Pophale) SiO2 
 PCOD9578764
Probable space group: P -3 C 1
;
_chemical_formula_sum "Si O2"
_cell_formula_units_Z 48
_cell_length_a 19.357041
_cell_length_b 19.357041
_cell_length_c 8.569631
_cell_angle_alpha 90.000000
_cell_angle_beta 90.000000
_cell_angle_gamma 120.000000
_cell_volume 2780.806011
_symmetry_space_group_name_H-M "P -3 C 1"
_symmetry_group_IT_number 165
_symmetry_cell_setting 'hexagonal'
loop_
_space_group_symop_operation_xyz
x,y,z
-y,x-y,z
-x+y,-x,z
x-y,-y,1/2-z
-x,-x+y,1/2-z
y,x,1/2-z
-x,-y,-z
y,-x+y,-z
x-y,x,-z
-x+y,y,1/2+z
x,x-y,1/2+z
-y,-x,1/2+z
loop_
_atom_site_type_symbol
_atom_site_label
_atom_site_fract_x
_atom_site_fract_y
_atom_site_fract_z
Si Si1 0.237285 0.909952 0.313459
Si Si2 0.525679 0.908956 0.686678
Si Si3 0.474321 0.383276 0.186678
Si Si4 0.327334 0.237285 0.313459
O O1 0.294951 0.877431 0.250857
O O2 0.149424 0.850576 0.250000
O O3 0.239251 0.911699 0.500000
O O4 0.273700 0.000000 0.250000
O O5 0.525752 0.909436 0.500000
O O6 0.435745 0.871491 0.750000
O O7 0.570845 0.000000 0.750000
O O8 0.429155 0.429155 0.250000
O O9 0.417520 0.294951 0.250857
O O10 0.273700 0.273700 0.250000
#
# Coordination Sequence:
#
# PCOD9578764 Si02
#       4
#    12  12  12  12
#     4  11  21  35  53  77 105 138 177 223 271 321
#     4  10  17  28  46  71  99 129 161 200 245 298
#     4  10  17  28  46  71  99 129 161 200 245 298
#     4  11  21  35  53  77 105 138 177 223 271 321
#
# _framework density 17.261182999999999
#
# number of rings (size 3 to 8) (size 9 to 14) (size 15 to 20)
#    0.000    1.500    0.000   13.500    0.000    0.000 
#    0.000    0.000    0.000    1.500    0.000   10.500 
#    0.000    0.000    0.000    0.000    0.000    0.000 
#
# Total GULP energy -267715.261541 kJ/mol
# GULP energy per Si atom -5577.401282 kJ/mol
# Density = 1.722190 g / cm^3
# Si number density = 17.261183 Si / 1000 Ang^3
#
#
#
# Elastic Constant Matrix: (Units=GPa)
#
#
# Indices 1 2 3 4 5 6 
#
# 1 90.4945 47.2460 49.1991 0.0000 0.0000 0.0000
# 2 47.2460 90.4945 49.1991 0.0000 0.0000 0.0000
# 3 49.1991 49.1991 221.8972 0.0000 0.0000 0.0000
# 4 0.0000 0.0000 0.0000 25.7051 0.0000 0.0000
# 5 0.0000 0.0000 0.0000 0.0000 25.7051 0.0000
# 6 0.0000 0.0000 0.0000 0.0000 0.0000 21.6243
#
#
#
# Elastic Compliance Matrix: (Units=1/GPa)
#
#
# Indices 1 2 3 4 5 6 
#
# 1 0.015874 -0.007248 -0.001913 0.000000 0.000000 0.000000
# 2 -0.007248 0.015874 -0.001913 0.000000 0.000000 0.000000
# 3 -0.001913 -0.001913 0.005355 0.000000 0.000000 0.000000
# 4 0.000000 0.000000 0.000000 0.038903 0.000000 0.000000
# 5 0.000000 0.000000 0.000000 0.000000 0.038903 0.000000
# 6 0.000000 0.000000 0.000000 0.000000 0.000000 0.046244
#
#
# Mechanical properties :
#
#
# Convention : Reuss Voigt Hill
#
# Bulk Modulus (GPa) = 66.85877 77.13055 71.99466
# Shear Modulus (GPa) = 26.55545 31.75635 29.15590
#
# Velocity S-wave (km/s) = 3.92656 4.29389 4.11433
# Velocity P-wave (km/s) = 7.70551 8.32855 8.02308
#
# Compressibility (1/GPa) = 0.01495690
#
# Stress axis : x y z
#
# Youngs Moduli (GPa) = 62.99501 62.99501 186.75064
#
# Poissons Ratio (x) = 0.45658 0.35719
# Poissons Ratio (y) = 0.45658 0.35719
# Poissons Ratio (z) = 0.12049 0.12049
#
# Static dielectric constant tensor:
#      x y z
#    x 1.527980 0.000000 0.000000 
#    y 0.000000 1.527980 0.000000 
#    z 0.000000 0.000000 1.565880 
# 
# From -- ./inp_files/504.got.cif
#   From: 2010.05.17/outbox.cif.g08.bks.cpg/sg165_1_cif.got.tgz:504.got - 2010.05.20 11:02:39.
