data_PCOD9578650
_publ_section_title
;
Structure prediction by ZEFSAII (Michael W. Deem and Ramdas Pophale) SiO2 
 PCOD9578650
Probable space group: P -3 M 1
;
_chemical_formula_sum "Si O2"
_cell_formula_units_Z 90
_cell_length_a 18.317345
_cell_length_b 18.317345
_cell_length_c 14.171608
_cell_angle_alpha 90.000000
_cell_angle_beta 90.000000
_cell_angle_gamma 120.000000
_cell_volume 4117.890681
_symmetry_space_group_name_H-M "P -3 M 1"
_symmetry_group_IT_number 164
_symmetry_cell_setting 'hexagonal'
loop_
_space_group_symop_operation_xyz
x,y,z
-y,x-y,z
-x+y,-x,z
x-y,-y,-z
-x,-x+y,-z
y,x,-z
-x,-y,-z
y,-x+y,-z
x-y,x,-z
-x+y,y,z
x,x-y,z
-y,-x,z
loop_
_atom_site_type_symbol
_atom_site_label
_atom_site_fract_x
_atom_site_fract_y
_atom_site_fract_z
Si Si1 0.838150 0.504146 0.170968
Si Si2 0.309388 0.239513 0.919133
Si Si3 0.334783 0.499466 0.054934
Si Si4 0.333536 0.830167 0.327657
Si Si5 0.055324 0.110648 0.735173
Si Si6 0.611322 0.630410 0.684349
Si Si7 0.245710 0.205136 0.707173
Si Si8 0.666987 0.169829 0.446284
O O1 0.754492 0.508984 0.192108
O O2 0.826430 0.413215 0.197418
O O3 0.849602 0.511870 0.058117
O O4 0.919617 0.575065 0.224924
O O5 0.304274 0.152137 0.950183
O O6 0.262114 0.222574 0.819843
O O7 0.271319 0.271319 0.000000
O O8 0.407954 0.304917 0.903396
O O9 0.260810 0.521620 0.071476
O O10 0.424622 0.575379 0.085731
O O11 0.398965 0.797930 0.306730
O O12 0.239673 0.760328 0.293235
O O13 0.328697 0.835938 0.441079
O O14 0.377340 0.927513 0.296763
O O15 0.148388 0.169025 0.690850
O O16 0.084192 0.042096 0.769050
O O17 0.705826 0.700344 0.658524
O O18 0.550185 0.629165 0.602383
O O19 0.271908 0.135954 0.680880
O O20 0.600634 0.201267 0.426691
O O21 0.760155 0.239845 0.412536
#
# Coordination Sequence:
#
# PCOD9578650 Si02
#       8
#    12  12  12  12   6  12  12  12
#     4  10  20  33  51  79 112 150 188 231 281 338
#     4  10  21  36  53  79 107 142 179 230 287 335
#     4   9  18  34  55  77 105 142 190 231 273 326
#     4  10  21  39  60  81 111 150 193 231 270 324
#     4   8  18  38  62  79 102 139 188 226 270 342
#     4  12  22  33  55  84 118 146 180 228 286 333
#     4  10  22  38  57  80 112 143 179 229 280 333
#     4  10  21  37  58  85 115 150 186 226 274 329
#
# _framework density 21.85585
#
# number of rings (size 3 to 8) (size 9 to 14) (size 15 to 20)
#    0.133    1.867    0.000    3.733    2.800    3.467 
#    0.000    3.333    0.000    0.533    0.000    1.867 
#    0.000    2.133    0.000    0.000    0.000    0.000 
#
# Total GULP energy -501240.301634 kJ/mol
# GULP energy per Si atom -5569.336685 kJ/mol
# Density = 2.180611 g / cm^3
# Si number density = 21.855850 Si / 1000 Ang^3
#
#
#
# Elastic Constant Matrix: (Units=GPa)
#
#
# Indices 1 2 3 4 5 6 
#
# 1 128.9398 41.0188 6.1643 6.1645 0.0000 0.0000
# 2 41.0188 128.9398 6.1643 -6.1645 0.0000 0.0000
# 3 6.1643 6.1643 52.5138 0.0000 0.0000 0.0000
# 4 6.1645 -6.1645 0.0000 4.9329 0.0000 0.0000
# 5 0.0000 0.0000 0.0000 0.0000 4.9329 6.1645
# 6 0.0000 0.0000 0.0000 0.0000 6.1645 43.9605
#
#
#
# Elastic Compliance Matrix: (Units=1/GPa)
#
#
# Indices 1 2 3 4 5 6 
#
# 1 0.009862 -0.003928 -0.000697 -0.017233 0.000000 0.000000
# 2 -0.003928 0.009862 -0.000697 0.017233 0.000000 0.000000
# 3 -0.000697 -0.000697 0.019206 0.000000 0.000000 0.000000
# 4 -0.017233 0.017233 0.000000 0.245790 0.000000 0.000000
# 5 0.000000 0.000000 0.000000 0.000000 0.245790 -0.034467
# 6 0.000000 0.000000 0.000000 0.000000 -0.034467 0.027581
#
#
# Mechanical properties :
#
#
# Convention : Reuss Voigt Hill
#
# Bulk Modulus (GPa) = 35.35019 46.34315 40.84667
# Shear Modulus (GPa) = 8.64806 27.90167 18.27486
#
# Velocity S-wave (km/s) = 1.99134 3.57686 2.89477
# Velocity P-wave (km/s) = 4.63645 6.18940 5.46833
#
# Compressibility (1/GPa) = 0.02828839
#
# Stress axis : x y z
#
# Youngs Moduli (GPa) = 101.39550 101.39550 52.06664
#
# Poissons Ratio (x) = 0.39829 0.03627
# Poissons Ratio (y) = 0.39829 0.03627
# Poissons Ratio (z) = 0.07063 0.07063
#
# Static dielectric constant tensor:
#      x y z
#    x 1.791810 0.000000 0.000000 
#    y 0.000000 1.791810 0.000000 
#    z 0.000000 0.000000 1.822680 
# 
# From -- ./inp_files/4212.got.cif
#   From: 2010.05.17/outbox.cif.g08.bks.cpg/sg164_3_cif.got.tgz:4212.got - 2010.05.20 10:58:56.
