data_PCOD9578952
_publ_section_title
;
Structure prediction by ZEFSAII (Michael W. Deem and Ramdas Pophale) SiO2 
 PCOD9578952
Probable space group: P -3 C 1
;
_chemical_formula_sum "Si O2"
_cell_formula_units_Z 58
_cell_length_a 14.902230
_cell_length_b 14.902230
_cell_length_c 12.934857
_cell_angle_alpha 90.000000
_cell_angle_beta 90.000000
_cell_angle_gamma 120.000000
_cell_volume 2487.681563
_symmetry_space_group_name_H-M "P -3 C 1"
_symmetry_group_IT_number 165
_symmetry_cell_setting 'hexagonal'
loop_
_space_group_symop_operation_xyz
x,y,z
-y,x-y,z
-x+y,-x,z
x-y,-y,1/2-z
-x,-x+y,1/2-z
y,x,1/2-z
-x,-y,-z
y,-x+y,-z
x-y,x,-z
-x+y,y,1/2+z
x,x-y,1/2+z
-y,-x,1/2+z
loop_
_atom_site_type_symbol
_atom_site_label
_atom_site_fract_x
_atom_site_fract_y
_atom_site_fract_z
Si Si1 0.841759 0.541119 0.206741
Si Si2 0.000000 0.000000 0.381716
Si Si3 0.649365 0.663076 0.980235
Si Si4 0.373459 0.471050 0.831706
Si Si5 0.840606 0.840606 0.250000
Si Si6 0.175459 0.840255 0.612028
O O1 0.939561 0.608201 0.132621
O O2 0.745174 0.554151 0.170616
O O3 0.840972 0.433593 0.197058
O O4 0.849588 0.577117 0.324924
O O5 0.885570 0.930188 0.336352
O O6 0.000000 0.000000 0.500000
O O7 0.772869 0.711111 0.964401
O O8 0.610621 0.561553 0.052721
O O9 0.622890 0.736994 0.047268
O O10 0.411224 0.411224 0.750000
O O11 0.835043 0.742981 0.305852
#
# Coordination Sequence:
#
# PCOD9578952 Si02
#       6
#    12   4  12  12   6  12
#     4  12  27  48  78 112 153 207 254 334 417 473
#     4  10  26  40  58  92 139 196 239 304 379 425
#     4  12  26  46  76 108 154 202 266 325 399 481
#     4  12  25  52  78 116 161 201 270 338 403 505
#     4  10  26  40  62  98 148 184 260 302 360 460
#     4  12  26  45  73 110 147 208 256 320 397 468
#
# _framework density 23.314882999999998
#
# number of rings (size 3 to 8) (size 9 to 14) (size 15 to 20)
#    0.000    0.414    4.138    4.138    8.690    0.000 
#    0.000    0.000    0.000    0.000    0.000    0.000 
#    0.000    0.000    0.000    0.000    0.000    0.000 
#
# Total GULP energy -323606.888787 kJ/mol
# GULP energy per Si atom -5579.429117 kJ/mol
# Density = 2.326182 g / cm^3
# Si number density = 23.314883 Si / 1000 Ang^3
#
#
#
# Elastic Constant Matrix: (Units=GPa)
#
#
# Indices 1 2 3 4 5 6 
#
# 1 78.0847 15.4622 13.5319 9.1665 0.0000 0.0000
# 2 15.4622 78.0847 13.5319 -9.1665 0.0000 0.0000
# 3 13.5319 13.5319 87.6071 0.0000 0.0000 0.0000
# 4 9.1665 -9.1665 0.0000 38.9938 0.0000 0.0000
# 5 0.0000 0.0000 0.0000 0.0000 38.9938 9.1665
# 6 0.0000 0.0000 0.0000 0.0000 9.1665 31.3112
#
#
#
# Elastic Compliance Matrix: (Units=1/GPa)
#
#
# Indices 1 2 3 4 5 6 
#
# 1 0.014169 -0.002980 -0.001728 -0.004031 0.000000 0.000000
# 2 -0.002980 0.014169 -0.001728 0.004031 0.000000 0.000000
# 3 -0.001728 -0.001728 0.011949 0.000000 0.000000 0.000000
# 4 -0.004031 0.004031 0.000000 0.027540 0.000000 0.000000
# 5 0.000000 0.000000 0.000000 0.000000 0.027540 -0.008063
# 6 0.000000 0.000000 0.000000 0.000000 -0.008063 0.034298
#
#
# Mechanical properties :
#
#
# Convention : Reuss Voigt Hill
#
# Bulk Modulus (GPa) = 36.47683 36.53651 36.50667
# Shear Modulus (GPa) = 32.96483 35.27647 34.12065
#
# Velocity S-wave (km/s) = 3.76426 3.89401 3.82968
# Velocity P-wave (km/s) = 5.87981 5.99355 5.93695
#
# Compressibility (1/GPa) = 0.02741466
#
# Stress axis : x y z
#
# Youngs Moduli (GPa) = 70.57473 70.57473 83.69224
#
# Poissons Ratio (x) = 0.21028 0.14465
# Poissons Ratio (y) = 0.21028 0.14465
# Poissons Ratio (z) = 0.12198 0.12198
#
# Static dielectric constant tensor:
#      x y z
#    x 1.922430 0.000000 0.000000 
#    y 0.000000 1.922430 0.000000 
#    z 0.000000 0.000000 1.967600 
# 
# From -- ./inp_files/1705.got.cif
#   From: 2010.05.17/outbox.cif.g08.bks.cpg/sg165_1_cif.got.tgz:1705.got - 2010.05.20 11:02:39.
