data_PCOD9578534
_publ_section_title
;
Structure prediction by ZEFSAII (Michael W. Deem and Ramdas Pophale) SiO2 
 PCOD9578534
Probable space group: P -3 M 1
;
_chemical_formula_sum "Si O2"
_cell_formula_units_Z 66
_cell_length_a 13.116926
_cell_length_b 13.116926
_cell_length_c 28.659725
_cell_angle_alpha 90.000000
_cell_angle_beta 90.000000
_cell_angle_gamma 120.000000
_cell_volume 4270.382606
_symmetry_space_group_name_H-M "P -3 M 1"
_symmetry_group_IT_number 164
_symmetry_cell_setting 'hexagonal'
loop_
_space_group_symop_operation_xyz
x,y,z
-y,x-y,z
-x+y,-x,z
x-y,-y,-z
-x,-x+y,-z
y,x,-z
-x,-y,-z
y,-x+y,-z
x-y,x,-z
-x+y,y,z
x,x-y,z
-y,-x,z
loop_
_atom_site_type_symbol
_atom_site_label
_atom_site_fract_x
_atom_site_fract_y
_atom_site_fract_z
Si Si1 0.000000 0.757114 0.000000
Si Si2 0.575268 0.667242 0.811072
Si Si3 0.574916 0.666313 0.917264
Si Si4 0.333775 0.910087 0.542680
Si Si5 0.091430 0.424852 0.375499
Si Si6 0.667276 0.574597 0.732183
O O1 0.020334 0.695484 0.955109
O O2 0.884220 0.768439 0.994549
O O3 0.573677 0.786839 0.804974
O O4 0.443457 0.556544 0.807224
O O5 0.614934 0.664085 0.864136
O O6 0.650901 0.652381 0.770915
O O7 0.546646 0.773323 0.919182
O O8 0.457088 0.542913 0.926595
O O9 0.440498 0.880996 0.542226
O O10 0.208537 0.791464 0.539385
O O11 0.359753 0.000000 0.500000
O O12 0.349151 0.985355 0.589318
O O13 0.208919 0.417838 0.385156
O O14 0.120264 0.560132 0.380676
O O15 0.055612 0.389719 0.321594
O O16 0.786626 0.573251 0.739463
O O17 0.556556 0.443445 0.737222
#
# Coordination Sequence:
#
# PCOD9578534 Si02
#       6
#     6  12  12  12  12  12
#     4  10  20  32  46  64  88 118 150 184 222 266
#     4   9  17  29  46  68  92 118 148 183 225 271
#     4   9  17  30  48  68  89 114 146 185 227 270
#     4  10  20  33  50  72  97 123 151 186 228 272
#     4   9  17  30  49  71  93 119 152 189 227 266
#     4   9  17  29  46  68  93 121 152 186 223 263
#
# _framework density 15.455289
#
# number of rings (size 3 to 8) (size 9 to 14) (size 15 to 20)
#    0.000    2.727    0.000    1.818    0.000    4.364 
#    0.000    1.818    0.000    6.182    0.000    0.000 
#    0.000    0.000    0.000    0.000    0.000    0.000 
#
# Total GULP energy -367756.194297 kJ/mol
# GULP energy per Si atom -5572.063550 kJ/mol
# Density = 1.542011 g / cm^3
# Si number density = 15.455289 Si / 1000 Ang^3
#
#
#
# Elastic Constant Matrix: (Units=GPa)
#
#
# Indices 1 2 3 4 5 6 
#
# 1 89.4063 57.3812 79.1679 -0.0852 0.0000 0.0000
# 2 57.3812 89.4063 79.1679 0.0852 0.0000 0.0000
# 3 79.1679 79.1679 130.6919 0.0000 0.0000 0.0000
# 4 -0.0852 0.0852 0.0000 24.7359 0.0000 0.0000
# 5 0.0000 0.0000 0.0000 0.0000 24.7359 -0.0852
# 6 0.0000 0.0000 0.0000 0.0000 -0.0852 16.0125
#
#
#
# Elastic Compliance Matrix: (Units=1/GPa)
#
#
# Indices 1 2 3 4 5 6 
#
# 1 0.025441 -0.005785 -0.011907 0.000107 0.000000 0.000000
# 2 -0.005785 0.025441 -0.011907 -0.000107 0.000000 0.000000
# 3 -0.011907 -0.011907 0.022077 0.000000 0.000000 0.000000
# 4 0.000107 -0.000107 0.000000 0.040428 0.000000 0.000000
# 5 0.000000 0.000000 0.000000 0.000000 0.040428 0.000215
# 6 0.000000 0.000000 0.000000 0.000000 0.000215 0.062452
#
#
# Mechanical properties :
#
#
# Convention : Reuss Voigt Hill
#
# Bulk Modulus (GPa) = 72.66497 82.32651 77.49574
# Shear Modulus (GPa) = 17.85375 19.34933 18.60154
#
# Velocity S-wave (km/s) = 3.40249 3.54214 3.47302
# Velocity P-wave (km/s) = 7.90912 8.37330 8.14452
#
# Compressibility (1/GPa) = 0.01376179
#
# Stress axis : x y z
#
# Youngs Moduli (GPa) = 39.30618 39.30618 45.29551
#
# Poissons Ratio (x) = 0.22738 0.53934
# Poissons Ratio (y) = 0.22738 0.53934
# Poissons Ratio (z) = 0.46802 0.46802
#
# Static dielectric constant tensor:
#      x y z
#    x 1.484500 0.000000 0.000000 
#    y 0.000000 1.484500 0.000000 
#    z 0.000000 0.000000 1.533160 
# 
# From -- ./inp_files/5395.got.cif
#   From: 2010.05.17/outbox.cif.g08.bks.cpg/sg164_3_cif.got.tgz:5395.got - 2010.05.20 10:58:56.
