data_PCOD9578128
_publ_section_title
;
Structure prediction by ZEFSAII (Michael W. Deem and Ramdas Pophale) SiO2 
 PCOD9578128
Probable space group: P -3 1 C
;
_chemical_formula_sum "Si O2"
_cell_formula_units_Z 36
_cell_length_a 16.775681
_cell_length_b 16.775681
_cell_length_c 6.706424
_cell_angle_alpha 90.000000
_cell_angle_beta 90.000000
_cell_angle_gamma 120.000000
_cell_volume 1634.488831
_symmetry_space_group_name_H-M "P -3 1 C"
_symmetry_group_IT_number 163
_symmetry_cell_setting 'hexagonal'
loop_
_space_group_symop_operation_xyz
x,y,z
-y,x-y,z
-x+y,-x,z
-y,-x,1/2-z
-x+y,y,1/2-z
x,x-y,1/2-z
-x,-y,-z
y,-x+y,-z
x-y,x,-z
y,x,1/2+z
x-y,-y,1/2+z
-x,-x+y,1/2+z
loop_
_atom_site_type_symbol
_atom_site_label
_atom_site_fract_x
_atom_site_fract_y
_atom_site_fract_z
Si Si1 0.317931 0.317931 0.500001
Si Si2 0.189648 0.190882 0.250001
Si Si3 0.332773 0.477797 0.750000
O O1 0.414108 0.323835 0.440215
O O2 0.215117 0.215117 0.500001
O O3 0.323836 0.414108 0.559786
O O4 0.202914 0.101457 0.250000
O O5 0.282081 0.304996 0.250001
O O6 0.085379 0.170759 0.250000
O O7 0.429297 0.570704 0.750000
O O8 0.247416 0.494832 0.750000
#
# Coordination Sequence:
#
# PCOD9578128 Si02
#       3
#    12  12  12
#     4  10  21  36  55  78 108 146 182 218 269 328
#     4  11  20  33  52  80 114 151 188 225 262 312
#     4  11  22  39  60  84 108 139 180 227 272 320
#
# _framework density 22.025234000000001
#
# number of rings (size 3 to 8) (size 9 to 14) (size 15 to 20)
#    0.000    1.333    0.000    9.667    0.000    0.000 
#    0.000    3.333    0.000    0.000    0.000   23.333 
#    0.000    0.000    0.000    0.000    0.000    0.000 
#
# Total GULP energy -200576.979341 kJ/mol
# GULP energy per Si atom -5571.582759 kJ/mol
# Density = 2.197510 g / cm^3
# Si number density = 22.025234 Si / 1000 Ang^3
#
#
#
# Elastic Constant Matrix: (Units=GPa)
#
#
# Indices 1 2 3 4 5 6 
#
# 1 169.5250 132.6561 93.1228 0.0000 -0.0004 0.0000
# 2 132.6561 169.5250 93.1228 0.0000 0.0004 0.0000
# 3 93.1228 93.1228 241.9445 0.0000 0.0000 0.0000
# 4 0.0000 0.0000 0.0000 33.0132 0.0000 0.0004
# 5 -0.0004 0.0004 0.0000 0.0000 33.0132 0.0000
# 6 0.0000 0.0000 0.0000 0.0004 0.0000 18.4344
#
#
#
# Elastic Compliance Matrix: (Units=1/GPa)
#
#
# Indices 1 2 3 4 5 6 
#
# 1 0.015731 -0.011392 -0.001670 0.000000 0.000000 0.000000
# 2 -0.011392 0.015731 -0.001670 0.000000 0.000000 0.000000
# 3 -0.001670 -0.001670 0.005419 0.000000 0.000000 0.000000
# 4 0.000000 0.000000 0.000000 0.030291 0.000000 -0.000001
# 5 0.000000 0.000000 0.000000 0.000000 0.030291 0.000000
# 6 0.000000 0.000000 0.000000 -0.000001 0.000000 0.054246
#
#
# Mechanical properties :
#
#
# Convention : Reuss Voigt Hill
#
# Bulk Modulus (GPa) = 134.84087 135.42198 135.13142
# Shear Modulus (GPa) = 27.22650 34.36500 30.79575
#
# Velocity S-wave (km/s) = 3.51971 3.95429 3.74331
# Velocity P-wave (km/s) = 8.82450 9.08113 8.95374
#
# Compressibility (1/GPa) = 0.00741615
#
# Stress axis : x y z
#
# Youngs Moduli (GPa) = 63.56950 63.56950 184.54948
#
# Poissons Ratio (x) = 0.72421 0.30817
# Poissons Ratio (y) = 0.72421 0.30817
# Poissons Ratio (z) = 0.10615 0.10615
#
# Static dielectric constant tensor:
#      x y z
#    x 1.706610 0.000000 0.000000 
#    y 0.000000 1.706610 0.000000 
#    z 0.000000 0.000000 2.054480 
# 
# From -- ./inp_files/2141.got.cif
#   From: 2010.05.17/outbox.cif.g08.bks.cpg/sg163_2_cif.got.tgz:2141.got - 2010.05.20 10:56:03.
