data_PCOD9578683
_publ_section_title
;
Structure prediction by ZEFSAII (Michael W. Deem and Ramdas Pophale) SiO2 
 PCOD9578683
Probable space group: P -3 M 1
;
_chemical_formula_sum "Si O2"
_cell_formula_units_Z 84
_cell_length_a 21.254976
_cell_length_b 21.254976
_cell_length_c 11.387955
_cell_angle_alpha 90.000000
_cell_angle_beta 90.000000
_cell_angle_gamma 120.000000
_cell_volume 4455.511940
_symmetry_space_group_name_H-M "P -3 M 1"
_symmetry_group_IT_number 164
_symmetry_cell_setting 'hexagonal'
loop_
_space_group_symop_operation_xyz
x,y,z
-y,x-y,z
-x+y,-x,z
x-y,-y,-z
-x,-x+y,-z
y,x,-z
-x,-y,-z
y,-x+y,-z
x-y,x,-z
-x+y,y,z
x,x-y,z
-y,-x,z
loop_
_atom_site_type_symbol
_atom_site_label
_atom_site_fract_x
_atom_site_fract_y
_atom_site_fract_z
Si Si1 0.727385 0.598724 0.192178
Si Si2 0.333529 0.516921 0.607235
Si Si3 0.727794 0.744015 0.133397
Si Si4 0.200230 0.948062 0.394011
Si Si5 0.411102 0.338336 0.568924
Si Si6 0.716156 0.576340 0.797763
Si Si7 0.194434 0.527416 0.994882
O O1 0.812618 0.625236 0.210443
O O2 0.684252 0.548235 0.301822
O O3 0.715373 0.664765 0.163766
O O4 0.698701 0.542328 0.086533
O O5 0.265304 0.530608 0.612458
O O6 0.408787 0.591213 0.628975
O O7 0.335651 0.478660 0.487430
O O8 0.762837 0.785682 0.258081
O O9 0.650946 0.742448 0.129914
O O10 0.762005 0.762005 0.000000
O O11 0.123956 0.876045 0.394518
O O12 0.262410 0.928259 0.431061
O O13 0.204256 0.000000 0.500000
O O14 0.395339 0.395339 0.500000
O O15 0.426639 0.342864 0.706801
O O16 0.790569 0.581138 0.748236
O O17 0.678140 0.504862 0.875823
O O18 0.280217 0.560433 0.978277
O O19 0.171657 0.585829 0.966299
#
# Coordination Sequence:
#
# PCOD9578683 Si02
#       7
#    12  12  12  12  12  12  12
#     4  10  21  36  54  78 108 143 182 230 289 345
#     4  11  22  36  54  76 106 143 190 241 292 351
#     4  11  20  34  59  88 118 152 194 240 296 357
#     4  10  21  38  61  91 126 161 199 242 293 355
#     4  10  20  36  58  80 109 144 185 234 296 358
#     4  10  20  36  55  78 111 146 180 225 288 346
#     4  10  20  35  54  75 102 141 189 235 282 337
#
# _framework density 18.853052000000002
#
# number of rings (size 3 to 8) (size 9 to 14) (size 15 to 20)
#    0.000    1.714    1.429    5.857    0.000    3.143 
#    0.000    5.000    0.000    1.857    0.000    0.000 
#    0.000    0.571    0.000    0.000    0.000    0.000 
#
# Total GULP energy -467678.547951 kJ/mol
# GULP energy per Si atom -5567.601761 kJ/mol
# Density = 1.881014 g / cm^3
# Si number density = 18.853052 Si / 1000 Ang^3
#
#
#
# Elastic Constant Matrix: (Units=GPa)
#
#
# Indices 1 2 3 4 5 6 
#
# 1 44.3274 25.5451 11.4268 -20.1996 0.0000 0.0000
# 2 25.5451 44.3274 11.4268 20.1996 0.0000 0.0000
# 3 11.4268 11.4268 67.9383 0.0000 0.0000 0.0000
# 4 -20.1996 20.1996 0.0000 -30.9536 0.0000 0.0000
# 5 0.0000 0.0000 0.0000 0.0000 -30.9536 -20.1996
# 6 0.0000 0.0000 0.0000 0.0000 -20.1996 9.3912
#
#
#
# Elastic Compliance Matrix: (Units=1/GPa)
#
#
# Indices 1 2 3 4 5 6 
#
# 1 0.018648 -0.003503 -0.002547 -0.014455 0.000000 0.000000
# 2 -0.003503 0.018648 -0.002547 0.014455 0.000000 0.000000
# 3 -0.002547 -0.002547 0.015576 0.000000 0.000000 0.000000
# 4 -0.014455 0.014455 0.000000 -0.013441 0.000000 0.000000
# 5 0.000000 0.000000 0.000000 0.000000 -0.013441 -0.028910
# 6 0.000000 0.000000 0.000000 0.000000 -0.028910 0.044301
#
#
# Mechanical properties :
#
#
# Convention : Reuss Voigt Hill
#
# Bulk Modulus (GPa) = 28.02934 28.15446 28.09190
# Shear Modulus (GPa) = 50.31309 -3.29024 23.51142
#
# Velocity S-wave (km/s) = 5.17155 -1.32249 3.53525
# Velocity P-wave (km/s) = 7.11051 3.55444 5.62110
#
# Compressibility (1/GPa) = 0.03567690
#
# Stress axis : x y z
#
# Youngs Moduli (GPa) = 53.62606 53.62606 64.20084
#
# Poissons Ratio (x) = 0.18784 0.16354
# Poissons Ratio (y) = 0.18784 0.16354
# Poissons Ratio (z) = 0.13660 0.13660
#
# Static dielectric constant tensor:
#      x y z
#    x 1.639410 0.000000 0.000000 
#    y 0.000000 1.639410 0.000000 
#    z 0.000000 0.000000 1.798690 
# 
# From -- ./inp_files/2893.got.cif
#   From: 2010.05.17/outbox.cif.g08.bks.cpg/sg164_2_cif.got.tgz:2893.got - 2010.05.20 10:58:56.
