data_PCOD9578756
_publ_section_title
;
Structure prediction by ZEFSAII (Michael W. Deem and Ramdas Pophale) SiO2 
 PCOD9578756
Probable space group: P -3 M 1
;
_chemical_formula_sum "Si O2"
_cell_formula_units_Z 84
_cell_length_a 18.000000
_cell_length_b 18.000000
_cell_length_c 15.000000
_cell_angle_alpha 90.000000
_cell_angle_beta 90.000000
_cell_angle_gamma 120.000000
_cell_volume 4208.883462
_symmetry_space_group_name_H-M "P -3 M 1"
_symmetry_group_IT_number 164
_symmetry_cell_setting 'hexagonal'
loop_
_space_group_symop_operation_xyz
x,y,z
-y,x-y,z
-x+y,-x,z
x-y,-y,-z
-x,-x+y,-z
y,x,-z
-x,-y,-z
y,-x+y,-z
x-y,x,-z
-x+y,y,z
x,x-y,z
-y,-x,z
loop_
_atom_site_type_symbol
_atom_site_label
_atom_site_fract_x
_atom_site_fract_y
_atom_site_fract_z
Si Si1 0.565145 0.962541 0.866310
Si Si2 0.166925 0.666631 0.161810
Si Si3 0.666878 0.503393 0.624062
Si Si4 0.665238 0.154337 0.313710
Si Si5 0.945594 0.716893 0.083027
Si Si6 0.007701 0.686287 0.600142
Si Si7 0.999937 0.819924 0.736208
O O1 0.474701 0.949401 0.901598
O O2 0.542119 0.905739 0.775675
O O3 0.622928 0.935281 0.921642
O O4 0.627399 0.065317 0.853765
O O5 0.188879 0.594440 0.127917
O O6 0.237752 0.762249 0.129903
O O7 0.174481 0.668130 0.269015
O O8 0.754034 0.508067 0.588557
O O9 0.580620 0.419381 0.590045
O O10 0.664654 0.590775 0.611826
O O11 0.582880 0.165760 0.336168
O O12 0.753293 0.246708 0.302646
O O13 0.682204 0.094509 0.381824
O O14 0.852865 0.705729 0.083702
O O15 0.992424 0.770154 0.171552
O O16 0.000000 0.770685 0.000000
O O17 0.003010 0.755542 0.663618
O O18 0.000000 0.710087 0.500000
O O19 0.084758 0.915243 0.729142
O O20 0.911795 0.823589 0.731713
#
# Coordination Sequence:
#
# PCOD9578756 Si02
#       7
#    12  12  12  12  12  12  12
#     4  10  20  36  61  91 127 168 212 260 313 374
#     4   9  16  28  50  82 119 159 202 252 307 368
#     4  10  19  33  53  81 115 154 199 251 309 368
#     4  11  22  40  63  90 124 166 217 270 323 378
#     4  11  23  41  67  99 131 165 208 260 321 388
#     4  12  25  41  63  89 123 168 216 263 315 377
#     4  11  24  44  68  95 127 164 209 264 325 388
#
# _framework density 19.957787
#
# number of rings (size 3 to 8) (size 9 to 14) (size 15 to 20)
#    0.000    1.429    2.857    2.714    0.000    7.143 
#    0.000    0.000    0.000    5.143    0.000    1.000 
#    0.000    0.000    0.000    0.000    0.000    0.000 
#
# Total GULP energy -468996.376963 kJ/mol
# GULP energy per Si atom -5583.290202 kJ/mol
# Density = 1.991236 g / cm^3
# Si number density = 19.957787 Si / 1000 Ang^3
#
#
#
# Elastic Constant Matrix: (Units=GPa)
#
#
# Indices 1 2 3 4 5 6 
#
# 1 236.1810 -19.9687 30.5562 -47.5607 0.0000 0.0000
# 2 -19.9687 236.1810 30.5562 47.5607 0.0000 0.0000
# 3 30.5562 30.5562 84.1847 0.0000 0.0000 0.0000
# 4 -47.5607 47.5607 0.0000 31.9721 0.0000 0.0000
# 5 0.0000 0.0000 0.0000 0.0000 31.9721 -47.5607
# 6 0.0000 0.0000 0.0000 0.0000 -47.5607 128.0749
#
#
#
# Elastic Compliance Matrix: (Units=1/GPa)
#
#
# Indices 1 2 3 4 5 6 
#
# 1 0.006938 -0.001784 -0.001871 0.012975 0.000000 0.000000
# 2 -0.001784 0.006938 -0.001871 -0.012975 0.000000 0.000000
# 3 -0.001871 -0.001871 0.013237 0.000000 0.000000 0.000000
# 4 0.012975 -0.012975 0.000000 0.069879 0.000000 0.000000
# 5 0.000000 0.000000 0.000000 0.000000 0.069879 0.025950
# 6 0.000000 0.000000 0.000000 0.000000 0.025950 0.017444
#
#
# Mechanical properties :
#
#
# Convention : Reuss Voigt Hill
#
# Bulk Modulus (GPa) = 62.26022 70.98156 66.62089
# Shear Modulus (GPa) = 24.91028 72.76402 48.83715
#
# Velocity S-wave (km/s) = 3.53675 6.04468 4.95211
# Velocity P-wave (km/s) = 6.92400 9.18480 8.13334
#
# Compressibility (1/GPa) = 0.01606162
#
# Stress axis : x y z
#
# Youngs Moduli (GPa) = 144.13364 144.13364 75.54795
#
# Poissons Ratio (x) = 0.25716 0.14132
# Poissons Ratio (y) = 0.25716 0.14132
# Poissons Ratio (z) = 0.26963 0.26963
#
# Static dielectric constant tensor:
#      x y z
#    x 1.694780 0.000000 0.000000 
#    y 0.000000 1.694780 0.000000 
#    z 0.000000 0.000000 1.717650 
# 
# From -- ./inp_files/3622.got.cif
#   From: 2010.05.17/outbox.ucp.g08.bks.cvg/sg164_2_cif.got.tgz:3622.got - 2010.06.11 15:16:10.
