data_PCOD9578732
_publ_section_title
;
Structure prediction by ZEFSAII (Michael W. Deem and Ramdas Pophale) SiO2 
 PCOD9578732
Probable space group: P -3 M 1
;
_chemical_formula_sum "Si O2"
_cell_formula_units_Z 60
_cell_length_a 20.339636
_cell_length_b 20.339636
_cell_length_c 9.194748
_cell_angle_alpha 90.000000
_cell_angle_beta 90.000000
_cell_angle_gamma 120.000000
_cell_volume 3294.251981
_symmetry_space_group_name_H-M "P -3 M 1"
_symmetry_group_IT_number 164
_symmetry_cell_setting 'hexagonal'
loop_
_space_group_symop_operation_xyz
x,y,z
-y,x-y,z
-x+y,-x,z
x-y,-y,-z
-x,-x+y,-z
y,x,-z
-x,-y,-z
y,-x+y,-z
x-y,x,-z
-x+y,y,z
x,x-y,z
-y,-x,z
loop_
_atom_site_type_symbol
_atom_site_label
_atom_site_fract_x
_atom_site_fract_y
_atom_site_fract_z
Si Si1 0.293791 0.440846 0.777925
Si Si2 0.918937 0.459469 0.703960
Si Si3 0.451402 0.902803 0.626925
Si Si4 0.921606 0.337680 0.913830
Si Si5 0.215942 0.936866 0.617072
Si Si6 0.047639 0.251711 0.147385
O O1 0.232258 0.464515 0.743463
O O2 0.371902 0.498612 0.704947
O O3 0.261659 0.357208 0.707936
O O4 0.301674 0.437366 0.951458
O O5 0.881830 0.440915 0.544027
O O6 0.903893 0.386948 0.801003
O O7 0.007477 0.503739 0.660274
O O8 0.930831 0.271023 0.838412
O O9 0.000000 0.393026 0.000000
O O10 0.137414 0.862586 0.565352
O O11 0.269372 0.000000 0.500000
O O12 0.201334 0.989235 0.727822
O O13 0.123990 0.247979 0.144535
O O14 0.000000 0.223123 0.000000
#
# Coordination Sequence:
#
# PCOD9578732 Si02
#       6
#    12   6   6  12  12  12
#     4  11  23  40  62  89 121 161 204 244 293 357
#     4  11  22  35  62  93 128 151 190 247 312 353
#     4  11  23  38  59  92 125 162 193 242 295 362
#     4  11  19  35  58  89 123 151 193 245 300 355
#     4  11  23  39  59  87 121 157 202 253 306 362
#     4  11  21  36  60  88 121 159 199 250 303 354
#
# _framework density 18.213543000000001
#
# number of rings (size 3 to 8) (size 9 to 14) (size 15 to 20)
#    0.000    1.000    6.000    2.700    5.600    0.000 
#    0.600    1.000    0.000    8.000    0.000    0.000 
#    0.000    0.000    0.000    0.000    0.000    0.000 
#
# Total GULP energy -334739.275075 kJ/mol
# GULP energy per Si atom -5578.987918 kJ/mol
# Density = 1.817209 g / cm^3
# Si number density = 18.213543 Si / 1000 Ang^3
#
#
#
# Elastic Constant Matrix: (Units=GPa)
#
#
# Indices 1 2 3 4 5 6 
#
# 1 79.0661 49.1199 18.3901 9.1350 0.0000 0.0000
# 2 49.1199 79.0661 18.3901 -9.1350 0.0000 0.0000
# 3 18.3901 18.3901 65.3436 0.0000 0.0000 0.0000
# 4 9.1350 -9.1350 0.0000 34.1752 0.0000 0.0000
# 5 0.0000 0.0000 0.0000 0.0000 34.1752 9.1350
# 6 0.0000 0.0000 0.0000 0.0000 9.1350 14.9731
#
#
#
# Elastic Compliance Matrix: (Units=1/GPa)
#
#
# Indices 1 2 3 4 5 6 
#
# 1 0.024193 -0.015707 -0.002388 -0.010665 0.000000 0.000000
# 2 -0.015707 0.024193 -0.002388 0.010665 0.000000 0.000000
# 3 -0.002388 -0.002388 0.016648 0.000000 0.000000 0.000000
# 4 -0.010665 0.010665 0.000000 0.034963 0.000000 0.000000
# 5 0.000000 0.000000 0.000000 0.000000 0.034963 -0.021330
# 6 0.000000 0.000000 0.000000 0.000000 -0.021330 0.079800
#
#
# Mechanical properties :
#
#
# Convention : Reuss Voigt Hill
#
# Bulk Modulus (GPa) = 41.54995 43.91953 42.73474
# Shear Modulus (GPa) = 18.95743 25.83642 22.39692
#
# Velocity S-wave (km/s) = 3.22971 3.77042 3.51049
# Velocity P-wave (km/s) = 6.06385 6.56664 6.32025
#
# Compressibility (1/GPa) = 0.02406742
#
# Stress axis : x y z
#
# Youngs Moduli (GPa) = 41.33397 41.33397 60.06695
#
# Poissons Ratio (x) = 0.64922 0.14346
# Poissons Ratio (y) = 0.64922 0.14346
# Poissons Ratio (z) = 0.09872 0.09872
#
# Static dielectric constant tensor:
#      x y z
#    x 1.625860 0.000000 0.000000 
#    y 0.000000 1.625860 0.000000 
#    z 0.000000 0.000000 1.699950 
# 
# From -- ./inp_files/1647.got.cif
#   From: 2010.05.17/outbox.cif.g08.bks.cpg/sg164_1_cif.got.tgz:1647.got - 2010.05.20 10:58:56.
