data_PCOD9578486
_publ_section_title
;
Structure prediction by ZEFSAII (Michael W. Deem and Ramdas Pophale) SiO2 
 PCOD9578486
Probable space group: P -3 M 1
;
_chemical_formula_sum "Si O2"
_cell_formula_units_Z 84
_cell_length_a 22.080532
_cell_length_b 22.080532
_cell_length_c 12.305174
_cell_angle_alpha 90.000000
_cell_angle_beta 90.000000
_cell_angle_gamma 120.000000
_cell_volume 5195.620919
_symmetry_space_group_name_H-M "P -3 M 1"
_symmetry_group_IT_number 164
_symmetry_cell_setting 'hexagonal'
loop_
_space_group_symop_operation_xyz
x,y,z
-y,x-y,z
-x+y,-x,z
x-y,-y,-z
-x,-x+y,-z
y,x,-z
-x,-y,-z
y,-x+y,-z
x-y,x,-z
-x+y,y,z
x,x-y,z
-y,-x,z
loop_
_atom_site_type_symbol
_atom_site_label
_atom_site_fract_x
_atom_site_fract_y
_atom_site_fract_z
Si Si1 0.926106 0.533728 0.945046
Si Si2 0.859909 0.283998 0.745618
Si Si3 0.531658 0.608246 0.455478
Si Si4 0.926760 0.205213 0.638271
Si Si5 0.666697 0.470070 0.118618
Si Si6 0.460299 0.159263 0.351435
Si Si7 0.220523 0.303544 0.616566
O O1 0.934126 0.467063 0.907876
O O2 0.893109 0.558529 0.849689
O O3 0.869283 0.506321 0.040564
O O4 0.000000 0.589347 0.000000
O O5 0.776007 0.223994 0.749989
O O6 0.886349 0.336944 0.642250
O O7 0.897740 0.239051 0.723274
O O8 0.592004 0.592004 0.500000
O O9 0.466564 0.533437 0.423110
O O10 0.511779 0.640886 0.556512
O O11 0.878194 0.121807 0.644743
O O12 0.915759 0.225321 0.515199
O O13 0.008899 0.240549 0.650621
O O14 0.742710 0.485419 0.083781
O O15 0.612106 0.387895 0.116801
O O16 0.672508 0.498350 0.240167
O O17 0.461607 0.230804 0.385880
O O18 0.378489 0.101946 0.336181
O O19 0.144968 0.289935 0.648228
#
# Coordination Sequence:
#
# PCOD9578486 Si02
#       7
#    12  12  12  12  12  12  12
#     4  10  23  39  56  77 102 133 174 225 277 328
#     4  11  21  36  56  76 104 139 178 222 270 324
#     4  11  22  32  50  78 109 142 175 217 268 320
#     4   9  17  28  47  73 100 132 166 202 246 296
#     4  10  21  37  56  75  98 131 172 215 261 315
#     4  10  19  32  50  74 102 132 169 210 258 312
#     4   9  16  28  46  71 102 134 166 201 241 294
#
# _framework density 16.167460999999999
#
# number of rings (size 3 to 8) (size 9 to 14) (size 15 to 20)
#    0.000    2.000    1.429    2.714    4.000    0.000 
#    0.000    0.000    0.000    7.143    0.000    2.000 
#    0.000    0.000    0.000    0.000    0.000    5.714 
#
# Total GULP energy -467894.989844 kJ/mol
# GULP energy per Si atom -5570.178451 kJ/mol
# Density = 1.613066 g / cm^3
# Si number density = 16.167461 Si / 1000 Ang^3
#
#
#
# Elastic Constant Matrix: (Units=GPa)
#
#
# Indices 1 2 3 4 5 6 
#
# 1 81.7183 36.6930 34.9289 0.5551 0.0000 0.0000
# 2 36.6930 81.7183 34.9289 -0.5551 0.0000 0.0000
# 3 34.9289 34.9289 55.8009 0.0000 0.0000 0.0000
# 4 0.5551 -0.5551 0.0000 18.6871 0.0000 0.0000
# 5 0.0000 0.0000 0.0000 0.0000 18.6871 0.5551
# 6 0.0000 0.0000 0.0000 0.0000 0.5551 22.5126
#
#
#
# Elastic Compliance Matrix: (Units=1/GPa)
#
#
# Indices 1 2 3 4 5 6 
#
# 1 0.017808 -0.004418 -0.008381 -0.000660 0.000000 0.000000
# 2 -0.004418 0.017808 -0.008381 0.000660 0.000000 0.000000
# 3 -0.008381 -0.008381 0.028414 0.000000 0.000000 0.000000
# 4 -0.000660 0.000660 0.000000 0.053552 0.000000 0.000000
# 5 0.000000 0.000000 0.000000 0.000000 0.053552 -0.001321
# 6 0.000000 0.000000 0.000000 0.000000 -0.001321 0.044452
#
#
# Mechanical properties :
#
#
# Convention : Reuss Voigt Hill
#
# Bulk Modulus (GPa) = 46.15188 48.03765 47.09477
# Shear Modulus (GPa) = 18.85583 19.48983 19.17283
#
# Velocity S-wave (km/s) = 3.41879 3.47579 3.44741
# Velocity P-wave (km/s) = 6.64773 6.77386 6.71109
#
# Compressibility (1/GPa) = 0.02166759
#
# Stress axis : x y z
#
# Youngs Moduli (GPa) = 56.15473 56.15473 35.19436
#
# Poissons Ratio (x) = 0.24810 0.29498
# Poissons Ratio (y) = 0.24810 0.29498
# Poissons Ratio (z) = 0.47066 0.47066
#
# Static dielectric constant tensor:
#      x y z
#    x 1.555110 0.000000 0.000000 
#    y 0.000000 1.555110 0.000000 
#    z 0.000000 0.000000 1.534300 
# 
# From -- ./inp_files/2951.got.cif
#   From: 2010.05.17/outbox.cif.g08.bks.cpg/sg164_2_cif.got.tgz:2951.got - 2010.05.20 10:58:56.
