data_PCOD9578579
_publ_section_title
;
Structure prediction by ZEFSAII (Michael W. Deem and Ramdas Pophale) SiO2 
 PCOD9578579
Probable space group: P -3 M 1
;
_chemical_formula_sum "Si O2"
_cell_formula_units_Z 60
_cell_length_a 12.683441
_cell_length_b 12.683441
_cell_length_c 26.849844
_cell_angle_alpha 90.000000
_cell_angle_beta 90.000000
_cell_angle_gamma 120.000000
_cell_volume 3740.645778
_symmetry_space_group_name_H-M "P -3 M 1"
_symmetry_group_IT_number 164
_symmetry_cell_setting 'hexagonal'
loop_
_space_group_symop_operation_xyz
x,y,z
-y,x-y,z
-x+y,-x,z
x-y,-y,-z
-x,-x+y,-z
y,x,-z
-x,-y,-z
y,-x+y,-z
x-y,x,-z
-x+y,y,z
x,x-y,z
-y,-x,z
loop_
_atom_site_type_symbol
_atom_site_label
_atom_site_fract_x
_atom_site_fract_y
_atom_site_fract_z
Si Si1 0.252236 0.999844 0.446539
Si Si2 0.333644 0.416001 0.241774
Si Si3 0.082573 0.666493 0.048635
Si Si4 0.750024 0.000409 0.854475
Si Si5 0.747348 0.999994 0.662833
O O1 0.239954 0.119977 0.445792
O O2 0.304717 0.997928 0.392255
O O3 0.311552 0.000000 0.500000
O O4 0.118963 0.881038 0.447525
O O5 0.220831 0.441661 0.241681
O O6 0.459917 0.540084 0.238217
O O7 0.312534 0.329545 0.194650
O O8 0.323090 0.343699 0.292449
O O9 0.095371 0.547686 0.056109
O O10 0.214230 0.785771 0.041988
O O11 0.021409 0.689380 0.096750
O O12 0.000000 0.643397 0.000000
O O13 0.743149 0.871575 0.855388
O O14 0.890036 0.109965 0.853564
O O15 0.748175 0.874088 0.668570
O O16 0.885876 0.114124 0.664747
#
# Coordination Sequence:
#
# PCOD9578579 Si02
#       5
#    12  12  12  12  12
#     4   8  12  18  31  55  87 118 144 172 213 268
#     4  10  20  33  49  67  89 119 155 194 232 272
#     4  10  20  34  53  76 103 135 169 203 236 272
#     4  10  20  34  53  76 100 124 151 188 236 286
#     4   9  16  26  43  67  93 119 146 181 227 277
#
# _framework density 16.040012000000001
#
# number of rings (size 3 to 8) (size 9 to 14) (size 15 to 20)
#    0.000    2.600    0.000    2.800    0.000    2.400 
#    0.000    4.000    0.000   12.200    0.000    0.000 
#    0.000    0.000    0.000    0.000    0.000    0.000 
#
# Total GULP energy -334168.345515 kJ/mol
# GULP energy per Si atom -5569.472425 kJ/mol
# Density = 1.600350 g / cm^3
# Si number density = 16.040012 Si / 1000 Ang^3
#
#
#
# Elastic Constant Matrix: (Units=GPa)
#
#
# Indices 1 2 3 4 5 6 
#
# 1 87.6244 61.3799 77.7776 0.2772 0.0000 0.0000
# 2 61.3799 87.6244 77.7776 -0.2772 0.0000 0.0000
# 3 77.7776 77.7776 182.8843 0.0000 0.0000 0.0000
# 4 0.2772 -0.2772 0.0000 13.2980 0.0000 0.0000
# 5 0.0000 0.0000 0.0000 0.0000 13.2980 0.2772
# 6 0.0000 0.0000 0.0000 0.0000 0.2772 13.1223
#
#
#
# Elastic Compliance Matrix: (Units=1/GPa)
#
#
# Indices 1 2 3 4 5 6 
#
# 1 0.025095 -0.013025 -0.005133 -0.000795 0.000000 0.000000
# 2 -0.013025 0.025095 -0.005133 0.000795 0.000000 0.000000
# 3 -0.005133 -0.005133 0.009834 0.000000 0.000000 0.000000
# 4 -0.000795 0.000795 0.000000 0.075232 0.000000 0.000000
# 5 0.000000 0.000000 0.000000 0.000000 0.075232 -0.001589
# 6 0.000000 0.000000 0.000000 0.000000 -0.001589 0.076240
#
#
# Mechanical properties :
#
#
# Convention : Reuss Voigt Hill
#
# Bulk Modulus (GPa) = 74.39682 88.00038 81.19860
# Shear Modulus (GPa) = 14.80202 17.35687 16.07944
#
# Velocity S-wave (km/s) = 3.04109 3.29309 3.16960
# Velocity P-wave (km/s) = 7.66901 8.33315 8.00797
#
# Compressibility (1/GPa) = 0.01344144
#
# Stress axis : x y z
#
# Youngs Moduli (GPa) = 39.84854 39.84854 101.68731
#
# Poissons Ratio (x) = 0.51902 0.52198
# Poissons Ratio (y) = 0.51902 0.52198
# Poissons Ratio (z) = 0.20455 0.20455
#
# Static dielectric constant tensor:
#      x y z
#    x 1.499370 0.000000 0.000000 
#    y 0.000000 1.499370 0.000000 
#    z 0.000000 0.000000 1.580430 
# 
# From -- ./inp_files/5163.got.cif
#   From: 2010.05.17/outbox.cif.g08.bks.cpg/sg164_3_cif.got.tgz:5163.got - 2010.05.20 10:58:56.
