data_PCOD9578682
_publ_section_title
;
Structure prediction by ZEFSAII (Michael W. Deem and Ramdas Pophale) SiO2 
 PCOD9578682
Probable space group: P -3 M 1
;
_chemical_formula_sum "Si O2"
_cell_formula_units_Z 90
_cell_length_a 17.550325
_cell_length_b 17.550325
_cell_length_c 19.218474
_cell_angle_alpha 90.000000
_cell_angle_beta 90.000000
_cell_angle_gamma 120.000000
_cell_volume 5126.486979
_symmetry_space_group_name_H-M "P -3 M 1"
_symmetry_group_IT_number 164
_symmetry_cell_setting 'hexagonal'
loop_
_space_group_symop_operation_xyz
x,y,z
-y,x-y,z
-x+y,-x,z
x-y,-y,-z
-x,-x+y,-z
y,x,-z
-x,-y,-z
y,-x+y,-z
x-y,x,-z
-x+y,y,z
x,x-y,z
-y,-x,z
loop_
_atom_site_type_symbol
_atom_site_label
_atom_site_fract_x
_atom_site_fract_y
_atom_site_fract_z
Si Si1 0.181306 0.182091 0.577849
Si Si2 0.000228 0.816768 0.844502
Si Si3 0.335031 0.488365 0.259821
Si Si4 0.296664 0.240413 0.707310
Si Si5 0.158405 0.490407 0.853414
Si Si6 0.000000 0.817281 0.000000
Si Si7 0.158617 0.490261 0.020909
Si Si8 0.395387 0.969304 0.130354
O O1 0.216252 0.216252 0.500000
O O2 0.172608 0.086304 0.583177
O O3 0.241136 0.239696 0.641301
O O4 0.085949 0.171897 0.583767
O O5 0.916280 0.832559 0.842724
O O6 0.985211 0.751293 0.780701
O O7 0.001018 0.780673 0.922598
O O8 0.091197 0.908804 0.835545
O O9 0.250585 0.501169 0.262795
O O10 0.423505 0.576496 0.280810
O O11 0.313672 0.398835 0.299043
O O12 0.350027 0.463047 0.182228
O O13 0.297729 0.148865 0.705420
O O14 0.239359 0.478718 0.829382
O O15 0.173392 0.586696 0.833313
O O16 0.060287 0.413399 0.835877
O O17 0.156194 0.485881 0.937700
O O18 0.912942 0.825884 0.000366
O O19 0.240889 0.481778 0.044694
O O20 0.172229 0.586115 0.039178
O O21 0.070236 0.417935 0.057797
O O22 0.495317 0.990634 0.118244
#
# Coordination Sequence:
#
# PCOD9578682 Si02
#       8
#    12  12  12  12  12   6  12  12
#     4   9  16  27  46  75 112 151 184 207 228 262
#     4   9  15  24  40  64  96 133 173 211 245 281
#     4  10  20  35  54  72  89 112 147 192 247 309
#     4   9  18  30  45  68  97 129 163 203 248 290
#     4   9  16  26  40  58  82 113 147 180 220 277
#     4   8  13  20  34  56  85 124 170 216 250 276
#     4   9  15  23  38  60  85 111 141 179 227 286
#     4   9  17  28  43  63  85 108 136 181 236 282
#
# _framework density 17.555882
#
# number of rings (size 3 to 8) (size 9 to 14) (size 15 to 20)
#    0.000    2.933    0.000    1.933    0.000    4.267 
#    0.000    4.000    2.933    0.400    0.000    0.000 
#    0.000    0.000    0.000    6.400    0.000   30.000 
#
# Total GULP energy -501178.163373 kJ/mol
# GULP energy per Si atom -5568.646260 kJ/mol
# Density = 1.751592 g / cm^3
# Si number density = 17.555882 Si / 1000 Ang^3
#
#
#
# Elastic Constant Matrix: (Units=GPa)
#
#
# Indices 1 2 3 4 5 6 
#
# 1 85.9099 36.8931 36.2874 1.9752 0.0000 0.0000
# 2 36.8931 85.9099 36.2874 -1.9752 0.0000 0.0000
# 3 36.2874 36.2874 88.5186 0.0000 0.0000 0.0000
# 4 1.9752 -1.9752 0.0000 11.6697 0.0000 0.0000
# 5 0.0000 0.0000 0.0000 0.0000 11.6697 1.9752
# 6 0.0000 0.0000 0.0000 0.0000 1.9752 24.5084
#
#
#
# Elastic Compliance Matrix: (Units=1/GPa)
#
#
# Indices 1 2 3 4 5 6 
#
# 1 0.015715 -0.004968 -0.004406 -0.003501 0.000000 0.000000
# 2 -0.004968 0.015715 -0.004406 0.003501 0.000000 0.000000
# 3 -0.004406 -0.004406 0.014909 0.000000 0.000000 0.000000
# 4 -0.003501 0.003501 0.000000 0.086877 0.000000 0.000000
# 5 0.000000 0.000000 0.000000 0.000000 0.086877 -0.007002
# 6 0.000000 0.000000 0.000000 0.000000 -0.007002 0.041367
#
#
# Mechanical properties :
#
#
# Convention : Reuss Voigt Hill
#
# Bulk Modulus (GPa) = 53.24694 53.25271 53.24983
# Shear Modulus (GPa) = 16.93314 19.62760 18.28037
#
# Velocity S-wave (km/s) = 3.10905 3.34729 3.23037
# Velocity P-wave (km/s) = 6.57907 6.73337 6.65666
#
# Compressibility (1/GPa) = 0.01878042
#
# Stress axis : x y z
#
# Youngs Moduli (GPa) = 63.63342 63.63342 67.07324
#
# Poissons Ratio (x) = 0.31615 0.29549
# Poissons Ratio (y) = 0.31615 0.29549
# Poissons Ratio (z) = 0.28034 0.28034
#
# Static dielectric constant tensor:
#      x y z
#    x 1.633110 0.000000 0.000000 
#    y 0.000000 1.633110 0.000000 
#    z 0.000000 0.000000 1.614040 
# 
# From -- ./inp_files/4225.got.cif
#   From: 2010.05.17/outbox.cif.g08.bks.cpg/sg164_3_cif.got.tgz:4225.got - 2010.05.20 10:58:56.
