data_PCOD9578948
_publ_section_title
;
Structure prediction by ZEFSAII (Michael W. Deem and Ramdas Pophale) SiO2 
 PCOD9578948
Probable space group: P -3 C 1
;
_chemical_formula_sum "Si O2"
_cell_formula_units_Z 42
_cell_length_a 11.593424
_cell_length_b 11.593424
_cell_length_c 13.802894
_cell_angle_alpha 90.000000
_cell_angle_beta 90.000000
_cell_angle_gamma 120.000000
_cell_volume 1606.660894
_symmetry_space_group_name_H-M "P -3 C 1"
_symmetry_group_IT_number 165
_symmetry_cell_setting 'hexagonal'
loop_
_space_group_symop_operation_xyz
x,y,z
-y,x-y,z
-x+y,-x,z
x-y,-y,1/2-z
-x,-x+y,1/2-z
y,x,1/2-z
-x,-y,-z
y,-x+y,-z
x-y,x,-z
-x+y,y,1/2+z
x,x-y,1/2+z
-y,-x,1/2+z
loop_
_atom_site_type_symbol
_atom_site_label
_atom_site_fract_x
_atom_site_fract_y
_atom_site_fract_z
Si Si1 0.329286 0.440184 0.929298
Si Si2 0.533409 0.853316 0.299415
Si Si3 0.408452 0.242761 0.882505
Si Si4 0.000000 0.847095 0.750000
O O1 0.418576 0.578306 0.871531
O O2 0.189970 0.380348 0.866893
O O3 0.426127 0.377567 0.927721
O O4 0.270700 0.426724 0.036074
O O5 0.735509 0.800539 0.165574
O O6 0.605676 0.000000 0.250000
O O7 0.494649 0.243697 0.792272
O O8 0.879582 0.879582 0.750000
#
# Coordination Sequence:
#
# PCOD9578948 Si02
#       4
#    12  12  12   6
#     4  12  29  49  84 123 163 232 290 356 428 525
#     4  12  26  51  77 116 171 222 283 352 438 504
#     4  12  26  50  81 125 174 219 292 360 428 518
#     4  10  24  46  82 120 164 228 262 344 444 490
#
# _framework density 26.141175
#
# number of rings (size 3 to 8) (size 9 to 14) (size 15 to 20)
#    0.286    0.000    2.857    4.857    4.000    6.857 
#    0.000    1.429    0.000    0.000    0.000    0.000 
#    0.000    0.000    0.000    0.000    0.000    0.000 
#
# Total GULP energy -233922.769649 kJ/mol
# GULP energy per Si atom -5569.589754 kJ/mol
# Density = 2.608168 g / cm^3
# Si number density = 26.141175 Si / 1000 Ang^3
#
#
#
# Elastic Constant Matrix: (Units=GPa)
#
#
# Indices 1 2 3 4 5 6 
#
# 1 157.8461 86.0629 71.6811 10.7679 0.0000 0.0000
# 2 86.0629 157.8461 71.6811 -10.7679 0.0000 0.0000
# 3 71.6811 71.6811 227.0212 0.0000 0.0000 0.0000
# 4 10.7679 -10.7679 0.0000 55.9079 0.0000 0.0000
# 5 0.0000 0.0000 0.0000 0.0000 55.9079 10.7679
# 6 0.0000 0.0000 0.0000 0.0000 10.7679 35.8916
#
#
#
# Elastic Compliance Matrix: (Units=1/GPa)
#
#
# Indices 1 2 3 4 5 6 
#
# 1 0.009910 -0.004875 -0.001590 -0.002848 0.000000 0.000000
# 2 -0.004875 0.009910 -0.001590 0.002848 0.000000 0.000000
# 3 -0.001590 -0.001590 0.005409 0.000000 0.000000 0.000000
# 4 -0.002848 0.002848 0.000000 0.018983 0.000000 0.000000
# 5 0.000000 0.000000 0.000000 0.000000 0.018983 -0.005695
# 6 0.000000 0.000000 0.000000 0.000000 -0.005695 0.029570
#
#
# Mechanical properties :
#
#
# Convention : Reuss Voigt Hill
#
# Bulk Modulus (GPa) = 109.66244 111.28486 110.47365
# Shear Modulus (GPa) = 44.67721 50.42735 47.55228
#
# Velocity S-wave (km/s) = 4.13858 4.39685 4.26967
# Velocity P-wave (km/s) = 8.05471 8.27282 8.16449
#
# Compressibility (1/GPa) = 0.00911889
#
# Stress axis : x y z
#
# Youngs Moduli (GPa) = 100.91171 100.91171 184.88917
#
# Poissons Ratio (x) = 0.49199 0.29388
# Poissons Ratio (y) = 0.49199 0.29388
# Poissons Ratio (z) = 0.16040 0.16040
#
# Static dielectric constant tensor:
#      x y z
#    x 2.198410 0.000000 0.000000 
#    y 0.000000 2.198410 0.000000 
#    z 0.000000 0.000000 2.254740 
# 
# From -- ./inp_files/2028.got.cif
#   From: 2010.05.17/outbox.cif.g08.bks.cpg/sg165_2_cif.got.tgz:2028.got - 2010.05.20 11:02:39.
