data_PCOD9578972
_publ_section_title
;
Structure prediction by ZEFSAII (Michael W. Deem and Ramdas Pophale) SiO2 
 PCOD9578972
Probable space group: P -3 C 1
;
_chemical_formula_sum "Si O2"
_cell_formula_units_Z 60
_cell_length_a 14.334574
_cell_length_b 14.334574
_cell_length_c 14.249956
_cell_angle_alpha 90.000000
_cell_angle_beta 90.000000
_cell_angle_gamma 120.000000
_cell_volume 2535.792640
_symmetry_space_group_name_H-M "P -3 C 1"
_symmetry_group_IT_number 165
_symmetry_cell_setting 'hexagonal'
loop_
_space_group_symop_operation_xyz
x,y,z
-y,x-y,z
-x+y,-x,z
x-y,-y,1/2-z
-x,-x+y,1/2-z
y,x,1/2-z
-x,-y,-z
y,-x+y,-z
x-y,x,-z
-x+y,y,1/2+z
x,x-y,1/2+z
-y,-x,1/2+z
loop_
_atom_site_type_symbol
_atom_site_label
_atom_site_fract_x
_atom_site_fract_y
_atom_site_fract_z
Si Si1 0.535494 0.803175 0.067262
Si Si2 0.081285 0.842825 0.988870
Si Si3 0.876844 0.752179 0.721651
Si Si4 0.454743 0.325825 0.241103
Si Si5 0.404661 0.879768 0.970119
O O1 0.658136 0.900626 0.047069
O O2 0.482018 0.818245 0.162563
O O3 0.460689 0.808830 0.986632
O O4 0.536732 0.694319 0.043097
O O5 0.136631 0.865877 0.888474
O O6 0.960171 0.813190 0.965407
O O7 0.829589 0.829589 0.750000
O O8 0.800014 0.633045 0.758722
O O9 0.000000 0.805754 0.750000
O O10 0.390336 0.390336 0.250000
O O11 0.501834 0.360659 0.137022
O O12 0.500000 0.000000 0.000000
#
# Coordination Sequence:
#
# PCOD9578972 Si02
#       5
#    12  12  12  12  12
#     4  12  26  47  77 112 151 199 265 327 397 472
#     4  12  23  42  69 108 154 203 249 310 383 463
#     4  11  22  39  65 105 152 201 252 304 374 463
#     4  11  23  48  75 109 154 202 257 328 396 484
#     4  12  26  50  78 111 155 208 264 333 409 474
#
# _framework density 23.661241
#
# number of rings (size 3 to 8) (size 9 to 14) (size 15 to 20)
#    0.000    0.400    4.000    6.800    0.000    1.600 
#    0.000    1.000    0.000    0.000    0.000    0.000 
#    0.000    0.000    0.000    0.000    0.000    0.000 
#
# Total GULP energy -334766.882096 kJ/mol
# GULP energy per Si atom -5579.448035 kJ/mol
# Density = 2.360739 g / cm^3
# Si number density = 23.661241 Si / 1000 Ang^3
#
#
#
# Elastic Constant Matrix: (Units=GPa)
#
#
# Indices 1 2 3 4 5 6 
#
# 1 85.5858 25.1891 28.7707 -7.1639 0.0000 0.0000
# 2 25.1891 85.5858 28.7707 7.1639 0.0000 0.0000
# 3 28.7707 28.7707 169.9245 0.0000 0.0000 0.0000
# 4 -7.1639 7.1639 0.0000 36.0521 0.0000 0.0000
# 5 0.0000 0.0000 0.0000 0.0000 36.0521 -7.1639
# 6 0.0000 0.0000 0.0000 0.0000 -7.1639 30.1983
#
#
#
# Elastic Compliance Matrix: (Units=1/GPa)
#
#
# Indices 1 2 3 4 5 6 
#
# 1 0.013637 -0.003739 -0.001676 0.003453 0.000000 0.000000
# 2 -0.003739 0.013637 -0.001676 -0.003453 0.000000 0.000000
# 3 -0.001676 -0.001676 0.006452 0.000000 0.000000 0.000000
# 4 0.003453 -0.003453 0.000000 0.029110 0.000000 0.000000
# 5 0.000000 0.000000 0.000000 0.000000 0.029110 0.006906
# 6 0.000000 0.000000 0.000000 0.000000 0.006906 0.034753
#
#
# Mechanical properties :
#
#
# Convention : Reuss Voigt Hill
#
# Bulk Modulus (GPa) = 51.16472 56.28413 53.72442
# Shear Modulus (GPa) = 33.92228 37.68486 35.80357
#
# Velocity S-wave (km/s) = 3.79048 3.99517 3.89417
# Velocity P-wave (km/s) = 6.38967 6.71722 6.55549
#
# Compressibility (1/GPa) = 0.01954472
#
# Stress axis : x y z
#
# Youngs Moduli (GPa) = 73.32954 73.32954 154.97970
#
# Poissons Ratio (x) = 0.27420 0.25972
# Poissons Ratio (y) = 0.27420 0.25972
# Poissons Ratio (z) = 0.12289 0.12289
#
# Static dielectric constant tensor:
#      x y z
#    x 1.762580 0.000000 0.000000 
#    y 0.000000 1.762580 0.000000 
#    z 0.000000 0.000000 2.541670 
# 
# From -- ./inp_files/1673.got.cif
#   From: 2010.05.17/outbox.cif.g08.bks.cpg/sg165_1_cif.got.tgz:1673.got - 2010.05.20 11:02:39.
