data_PCOD9578138
_publ_section_title
;
Structure prediction by ZEFSAII (Michael W. Deem and Ramdas Pophale) SiO2 
 PCOD9578138
Probable space group: P -3 1 C
;
_chemical_formula_sum "Si O2"
_cell_formula_units_Z 84
_cell_length_a 17.842323
_cell_length_b 17.842323
_cell_length_c 15.728599
_cell_angle_alpha 90.000000
_cell_angle_beta 90.000000
_cell_angle_gamma 120.000000
_cell_volume 4336.341394
_symmetry_space_group_name_H-M "P -3 1 C"
_symmetry_group_IT_number 163
_symmetry_cell_setting 'hexagonal'
loop_
_space_group_symop_operation_xyz
x,y,z
-y,x-y,z
-x+y,-x,z
-y,-x,1/2-z
-x+y,y,1/2-z
x,x-y,1/2-z
-x,-y,-z
y,-x+y,-z
x-y,x,-z
y,x,1/2+z
x-y,-y,1/2+z
-x,-x+y,1/2+z
loop_
_atom_site_type_symbol
_atom_site_label
_atom_site_fract_x
_atom_site_fract_y
_atom_site_fract_z
Si Si1 0.315524 0.468705 0.258140
Si Si2 0.496717 0.236779 0.152428
Si Si3 0.095135 0.204860 0.001543
Si Si4 0.549284 0.129153 0.424390
Si Si5 0.187454 0.279324 0.327117
Si Si6 0.294704 0.182468 0.338573
Si Si7 0.445732 0.518972 0.118556
O O1 0.257497 0.514994 0.250000
O O2 0.250507 0.377212 0.300117
O O3 0.353209 0.462545 0.166153
O O4 0.396140 0.510653 0.322108
O O5 0.527584 0.263792 0.250000
O O6 0.546013 0.192070 0.109941
O O7 0.502891 0.318137 0.100099
O O8 0.397560 0.160875 0.158587
O O9 0.118443 0.262587 0.917871
O O10 0.142026 0.148937 0.994226
O O11 0.127359 0.264075 0.085181
O O12 0.556258 0.108609 0.523628
O O13 0.498975 0.032113 0.382921
O O14 0.119020 0.238040 0.250000
O O15 0.249450 0.239908 0.341375
O O16 0.267057 0.133529 0.250000
#
# Coordination Sequence:
#
# PCOD9578138 Si02
#       7
#    12  12  12  12  12  12  12
#     4  10  23  42  67  93 125 168 213 269 338 386
#     4  11  25  40  67  93 130 171 216 272 327 401
#     4  10  21  38  59  89 126 168 212 264 322 392
#     4  11  25  45  68  99 132 178 224 275 337 404
#     4  10  21  37  62  90 125 163 210 267 319 391
#     4  10  22  37  58  93 121 166 210 264 322 379
#     4  10  25  44  68  96 132 174 220 282 340 400
#
# _framework density 19.371168999999998
#
# number of rings (size 3 to 8) (size 9 to 14) (size 15 to 20)
#    0.000    1.714    0.000    2.571   12.000    1.143 
#    6.000    0.000    0.000    4.571    0.000    0.000 
#    0.000    0.000    0.000    0.000    0.000    0.000 
#
# Total GULP energy -468399.057371 kJ/mol
# GULP energy per Si atom -5576.179254 kJ/mol
# Density = 1.932708 g / cm^3
# Si number density = 19.371169 Si / 1000 Ang^3
#
#
#
# Elastic Constant Matrix: (Units=GPa)
#
#
# Indices 1 2 3 4 5 6 
#
# 1 169.5583 -41.9840 41.8021 -0.0010 -22.7908 0.0000
# 2 -41.9840 169.5583 41.8021 0.0010 22.7908 0.0000
# 3 41.8021 41.8021 144.6577 0.0000 0.0000 0.0000
# 4 -0.0010 0.0010 0.0000 32.1662 0.0000 22.7908
# 5 -22.7908 22.7908 0.0000 0.0000 32.1662 -0.0010
# 6 0.0000 0.0000 0.0000 22.7908 -0.0010 105.7711
#
#
#
# Elastic Compliance Matrix: (Units=1/GPa)
#
#
# Indices 1 2 3 4 5 6 
#
# 1 0.007624 0.002045 -0.002794 0.000000 0.003953 0.000000
# 2 0.002045 0.007624 -0.002794 0.000000 -0.003953 0.000000
# 3 -0.002794 -0.002794 0.008528 0.000000 0.000000 0.000000
# 4 0.000000 0.000000 0.000000 0.036690 0.000000 -0.007906
# 5 0.003953 -0.003953 0.000000 0.000000 0.036690 0.000000
# 6 0.000000 0.000000 0.000000 -0.007906 0.000000 0.011158
#
#
# Mechanical properties :
#
#
# Convention : Reuss Voigt Hill
#
# Bulk Modulus (GPa) = 59.91550 63.00165 61.45858
# Shear Modulus (GPa) = 41.33462 63.49765 52.41613
#
# Velocity S-wave (km/s) = 4.62434 5.73155 5.20745
# Velocity P-wave (km/s) = 7.71428 8.74041 8.24333
#
# Compressibility (1/GPa) = 0.01669017
#
# Stress axis : x y z
#
# Youngs Moduli (GPa) = 131.15881 131.15881 117.26316
#
# Poissons Ratio (x) = -0.26828 0.32767
# Poissons Ratio (y) = -0.26828 0.32767
# Poissons Ratio (z) = 0.36650 0.36650
#
# Static dielectric constant tensor:
#      x y z
#    x 1.731880 0.000000 0.000000 
#    y 0.000000 1.731880 0.000000 
#    z 0.000000 0.000000 1.723950 
# 
# From -- ./inp_files/2671.got.cif
#   From: 2010.05.17/outbox.cif.g08.bks.cpg/sg163_2_cif.got.tgz:2671.got - 2010.05.20 10:56:03.
