data_PCOD9578753
_publ_section_title
;
Structure prediction by ZEFSAII (Michael W. Deem and Ramdas Pophale) SiO2 
 PCOD9578753
Probable space group: P -3 M 1
;
_chemical_formula_sum "Si O2"
_cell_formula_units_Z 84
_cell_length_a 18.000000
_cell_length_b 18.000000
_cell_length_c 15.000000
_cell_angle_alpha 90.000000
_cell_angle_beta 90.000000
_cell_angle_gamma 120.000000
_cell_volume 4208.883462
_symmetry_space_group_name_H-M "P -3 M 1"
_symmetry_group_IT_number 164
_symmetry_cell_setting 'hexagonal'
loop_
_space_group_symop_operation_xyz
x,y,z
-y,x-y,z
-x+y,-x,z
x-y,-y,-z
-x,-x+y,-z
y,x,-z
-x,-y,-z
y,-x+y,-z
x-y,x,-z
-x+y,y,z
x,x-y,z
-y,-x,z
loop_
_atom_site_type_symbol
_atom_site_label
_atom_site_fract_x
_atom_site_fract_y
_atom_site_fract_z
Si Si1 0.507027 0.667397 0.805932
Si Si2 0.089893 0.351619 0.168504
Si Si3 0.819649 0.819510 0.753405
Si Si4 0.349901 0.264138 0.341320
Si Si5 0.665964 0.155711 0.482580
Si Si6 0.508802 0.665722 0.306999
Si Si7 0.468613 0.102028 0.991499
O O1 0.483287 0.741644 0.789817
O O2 0.426190 0.573811 0.785550
O O3 0.589612 0.691727 0.745236
O O4 0.528312 0.667623 0.910572
O O5 0.172418 0.344836 0.193330
O O6 0.017535 0.250673 0.167722
O O7 0.088840 0.413528 0.245919
O O8 0.111551 0.407722 0.079334
O O9 0.915461 0.830922 0.743569
O O10 0.750574 0.765845 0.674041
O O11 0.824773 0.912387 0.763501
O O12 0.345960 0.172980 0.350329
O O13 0.408304 0.319214 0.424170
O O14 0.576988 0.153975 0.460659
O O15 0.748019 0.251981 0.466845
O O16 0.665267 0.138200 0.588003
O O17 0.495831 0.747916 0.291813
O O18 0.421533 0.578468 0.285897
O O19 0.567376 0.134751 0.962518
O O20 0.423837 0.000000 0.000000
#
# Coordination Sequence:
#
# PCOD9578753 Si02
#       7
#    12  12  12  12  12  12  12
#     4  10  19  31  49  77 116 160 201 234 264 306
#     4  10  20  35  56  81 108 139 177 223 276 329
#     4  10  21  39  63  86 105 129 168 223 289 356
#     4   9  18  32  52  79 110 145 184 227 276 327
#     4   9  16  28  49  80 119 160 197 226 254 295
#     4   9  17  30  51  81 118 159 196 226 255 295
#     4  10  20  33  50  74 107 149 193 232 269 312
#
# _framework density 19.957787
#
# number of rings (size 3 to 8) (size 9 to 14) (size 15 to 20)
#    0.000    2.429    0.000    2.714    0.000    1.143 
#    0.000    5.000    0.000    9.714    0.000    0.000 
#    0.000   26.857    0.000    3.857    0.000    4.000 
#
# Total GULP energy -468059.023173 kJ/mol
# GULP energy per Si atom -5572.131228 kJ/mol
# Density = 1.991236 g / cm^3
# Si number density = 19.957787 Si / 1000 Ang^3
#
#
#
# Elastic Constant Matrix: (Units=GPa)
#
#
# Indices 1 2 3 4 5 6 
#
# 1 104.8571 27.8104 23.2339 2.6823 0.0000 0.0000
# 2 27.8104 104.8571 23.2339 -2.6823 0.0000 0.0000
# 3 23.2339 23.2339 58.9893 0.0000 0.0000 0.0000
# 4 2.6823 -2.6823 0.0000 18.5706 0.0000 0.0000
# 5 0.0000 0.0000 0.0000 0.0000 18.5706 2.6823
# 6 0.0000 0.0000 0.0000 0.0000 2.6823 38.5233
#
#
#
# Elastic Compliance Matrix: (Units=1/GPa)
#
#
# Indices 1 2 3 4 5 6 
#
# 1 0.010927 -0.002184 -0.003444 -0.001894 0.000000 0.000000
# 2 -0.002184 0.010927 -0.003444 0.001894 0.000000 0.000000
# 3 -0.003444 -0.003444 0.019665 0.000000 0.000000 0.000000
# 4 -0.001894 0.001894 0.000000 0.054396 0.000000 0.000000
# 5 0.000000 0.000000 0.000000 0.000000 0.054396 -0.003787
# 6 0.000000 0.000000 0.000000 0.000000 -0.003787 0.026222
#
#
# Mechanical properties :
#
#
# Convention : Reuss Voigt Hill
#
# Bulk Modulus (GPa) = 42.77670 46.36221 44.56946
# Shear Modulus (GPa) = 24.69518 28.09458 26.39488
#
# Velocity S-wave (km/s) = 3.52144 3.75600 3.64061
# Velocity P-wave (km/s) = 6.16557 6.48773 6.32870
#
# Compressibility (1/GPa) = 0.02337721
#
# Stress axis : x y z
#
# Youngs Moduli (GPa) = 91.51264 91.51264 50.85151
#
# Poissons Ratio (x) = 0.19982 0.17513
# Poissons Ratio (y) = 0.19982 0.17513
# Poissons Ratio (z) = 0.31516 0.31516
#
# Static dielectric constant tensor:
#      x y z
#    x 1.732580 0.000000 0.000000 
#    y 0.000000 1.732580 0.000000 
#    z 0.000000 0.000000 1.744590 
# 
# From -- ./inp_files/3542.got.cif
#   From: 2010.05.17/outbox.ucp.g08.bks.cvg/sg164_2_cif.got.tgz:3542.got - 2010.06.11 15:16:10.
