data_PCOD9578811
_publ_section_title
;
Structure prediction by ZEFSAII (Michael W. Deem and Ramdas Pophale) SiO2 
 PCOD9578811
Probable space group: P -3 C 1
;
_chemical_formula_sum "Si O2"
_cell_formula_units_Z 72
_cell_length_a 23.145080
_cell_length_b 23.145080
_cell_length_c 9.177584
_cell_angle_alpha 90.000000
_cell_angle_beta 90.000000
_cell_angle_gamma 120.000000
_cell_volume 4257.712890
_symmetry_space_group_name_H-M "P -3 C 1"
_symmetry_group_IT_number 165
_symmetry_cell_setting 'hexagonal'
loop_
_space_group_symop_operation_xyz
x,y,z
-y,x-y,z
-x+y,-x,z
x-y,-y,1/2-z
-x,-x+y,1/2-z
y,x,1/2-z
-x,-y,-z
y,-x+y,-z
x-y,x,-z
-x+y,y,1/2+z
x,x-y,1/2+z
-y,-x,1/2+z
loop_
_atom_site_type_symbol
_atom_site_label
_atom_site_fract_x
_atom_site_fract_y
_atom_site_fract_z
Si Si1 0.814976 0.072394 0.817258
Si Si2 0.466806 0.415394 0.120278
Si Si3 0.847533 0.576122 0.110072
Si Si4 0.268744 0.415334 0.736375
Si Si5 0.931239 0.197632 0.661999
Si Si6 0.594742 0.047645 0.612771
O O1 0.764579 0.099407 0.772580
O O2 0.883969 0.129619 0.749292
O O3 0.788310 0.000000 0.750000
O O4 0.817908 0.065643 0.991586
O O5 0.447199 0.447199 0.250000
O O6 0.464476 0.347576 0.162402
O O7 0.540155 0.471636 0.065049
O O8 0.408778 0.403355 0.005379
O O9 0.779465 0.562692 0.185116
O O10 0.896929 0.653389 0.152967
O O11 0.841376 0.565582 0.934836
O O12 0.335436 0.443030 0.833191
O O13 0.000000 0.235732 0.750000
O O14 0.564837 0.000000 0.750000
#
# Coordination Sequence:
#
# PCOD9578811 Si02
#       6
#    12  12  12  12  12  12
#     4  10  20  33  52  76 104 141 174 214 262 311
#     4  10  21  33  55  82 107 139 185 225 271 324
#     4  10  21  35  50  79 107 142 175 217 265 322
#     4  10  21  34  53  75 110 140 177 214 269 319
#     4  10  20  34  52  76 106 138 175 215 260 314
#     4  10  19  36  55  78 108 144 178 226 276 318
#
# _framework density 16.910488000000001
#
# number of rings (size 3 to 8) (size 9 to 14) (size 15 to 20)
#    0.000    2.000    1.667    2.000    4.667    1.333 
#    0.000    0.000    0.000    1.000    0.000    2.333 
#    0.000    0.000    0.000    0.000    0.000    0.000 
#
# Total GULP energy -400927.865298 kJ/mol
# GULP energy per Si atom -5568.442574 kJ/mol
# Density = 1.687200 g / cm^3
# Si number density = 16.910488 Si / 1000 Ang^3
#
#
#
# Elastic Constant Matrix: (Units=GPa)
#
#
# Indices 1 2 3 4 5 6 
#
# 1 102.1848 29.5914 28.1547 2.9353 0.0000 0.0000
# 2 29.5914 102.1848 28.1547 -2.9353 0.0000 0.0000
# 3 28.1547 28.1547 75.3332 0.0000 0.0000 0.0000
# 4 2.9353 -2.9353 0.0000 26.9493 0.0000 0.0000
# 5 0.0000 0.0000 0.0000 0.0000 26.9493 2.9353
# 6 0.0000 0.0000 0.0000 0.0000 2.9353 36.2967
#
#
#
# Elastic Compliance Matrix: (Units=1/GPa)
#
#
# Indices 1 2 3 4 5 6 
#
# 1 0.011464 -0.002433 -0.003375 -0.001514 0.000000 0.000000
# 2 -0.002433 0.011464 -0.003375 0.001514 0.000000 0.000000
# 3 -0.003375 -0.003375 0.015797 0.000000 0.000000 0.000000
# 4 -0.001514 0.001514 0.000000 0.037437 0.000000 0.000000
# 5 0.000000 0.000000 0.000000 0.000000 0.037437 -0.003028
# 6 0.000000 0.000000 0.000000 0.000000 -0.003028 0.027796
#
#
# Mechanical properties :
#
#
# Convention : Reuss Voigt Hill
#
# Bulk Modulus (GPa) = 49.12001 50.16715 49.64358
# Shear Modulus (GPa) = 30.02135 30.95917 30.49026
#
# Velocity S-wave (km/s) = 4.21801 4.28339 4.25083
# Velocity P-wave (km/s) = 7.26858 7.36165 7.31527
#
# Compressibility (1/GPa) = 0.02035830
#
# Stress axis : x y z
#
# Youngs Moduli (GPa) = 87.22713 87.22713 63.30236
#
# Poissons Ratio (x) = 0.21226 0.21366
# Poissons Ratio (y) = 0.21226 0.21366
# Poissons Ratio (z) = 0.29441 0.29441
#
# Static dielectric constant tensor:
#      x y z
#    x 1.578320 0.000000 0.000000 
#    y 0.000000 1.578320 0.000000 
#    z 0.000000 0.000000 1.412970 
# 
# From -- ./inp_files/769.got.cif
#   From: 2010.05.17/outbox.cif.g08.bks.cpg/sg165_1_cif.got.tgz:769.got - 2010.05.20 11:02:39.
