data_PCOD9578905
_publ_section_title
;
Structure prediction by ZEFSAII (Michael W. Deem and Ramdas Pophale) SiO2 
 PCOD9578905
Probable space group: P -3 C 1
;
_chemical_formula_sum "Si O2"
_cell_formula_units_Z 60
_cell_length_a 14.250116
_cell_length_b 14.250116
_cell_length_c 17.421331
_cell_angle_alpha 90.000000
_cell_angle_beta 90.000000
_cell_angle_gamma 120.000000
_cell_volume 3063.717824
_symmetry_space_group_name_H-M "P -3 C 1"
_symmetry_group_IT_number 165
_symmetry_cell_setting 'hexagonal'
loop_
_space_group_symop_operation_xyz
x,y,z
-y,x-y,z
-x+y,-x,z
x-y,-y,1/2-z
-x,-x+y,1/2-z
y,x,1/2-z
-x,-y,-z
y,-x+y,-z
x-y,x,-z
-x+y,y,1/2+z
x,x-y,1/2+z
-y,-x,1/2+z
loop_
_atom_site_type_symbol
_atom_site_label
_atom_site_fract_x
_atom_site_fract_y
_atom_site_fract_z
Si Si1 0.276692 0.965687 0.916142
Si Si2 0.377949 0.893646 0.793328
Si Si3 0.667033 0.873040 0.585140
Si Si4 0.287549 0.844719 0.239590
Si Si5 0.148905 0.939759 0.321025
O O1 0.341239 0.912739 0.875782
O O2 0.167653 0.935695 0.866714
O O3 0.339122 0.096062 0.918283
O O4 0.248331 0.913737 0.000251
O O5 0.485770 0.887658 0.780770
O O6 0.282508 0.786345 0.755261
O O7 0.394065 0.000000 0.750000
O O8 0.580622 0.866769 0.648678
O O9 0.781966 0.965827 0.618824
O O10 0.223190 0.896469 0.281165
O O11 0.127530 0.000000 0.250000
#
# Coordination Sequence:
#
# PCOD9578905 Si02
#       5
#    12  12  12  12  12
#     4  11  22  37  64  93 133 170 215 271 333 395
#     4  11  21  41  65  96 123 170 223 264 332 395
#     4  11  20  40  60  93 130 169 214 268 331 387
#     4  10  22  39  65  92 125 170 220 276 318 399
#     4   9  20  36  59  87 129 170 218 258 320 388
#
# _framework density 19.584047999999999
#
# number of rings (size 3 to 8) (size 9 to 14) (size 15 to 20)
#    0.000    1.600    4.000    2.200    0.000    0.000 
#    1.200    9.000    0.000    0.000    0.000    0.000 
#    0.000    0.000    0.000    0.000    0.000    0.000 
#
# Total GULP energy -334369.898799 kJ/mol
# GULP energy per Si atom -5572.831647 kJ/mol
# Density = 1.953947 g / cm^3
# Si number density = 19.584048 Si / 1000 Ang^3
#
#
#
# Elastic Constant Matrix: (Units=GPa)
#
#
# Indices 1 2 3 4 5 6 
#
# 1 71.1161 22.1744 39.4809 -3.9038 0.0000 0.0000
# 2 22.1744 71.1161 39.4809 3.9038 0.0000 0.0000
# 3 39.4809 39.4809 170.0270 0.0000 0.0000 0.0000
# 4 -3.9038 3.9038 0.0000 13.7064 0.0000 0.0000
# 5 0.0000 0.0000 0.0000 0.0000 13.7064 -3.9038
# 6 0.0000 0.0000 0.0000 0.0000 -3.9038 24.4709
#
#
#
# Elastic Compliance Matrix: (Units=1/GPa)
#
#
# Indices 1 2 3 4 5 6 
#
# 1 0.017373 -0.004032 -0.003098 0.006096 0.000000 0.000000
# 2 -0.004032 0.017373 -0.003098 -0.006096 0.000000 0.000000
# 3 -0.003098 -0.003098 0.007320 0.000000 0.000000 0.000000
# 4 0.006096 -0.006096 0.000000 0.076431 0.000000 0.000000
# 5 0.000000 0.000000 0.000000 0.000000 0.076431 0.012193
# 6 0.000000 0.000000 0.000000 0.000000 0.012193 0.042810
#
#
# Mechanical properties :
#
#
# Convention : Reuss Voigt Hill
#
# Bulk Modulus (GPa) = 46.27257 57.17019 51.72138
# Shear Modulus (GPa) = 18.83960 24.45159 21.64560
#
# Velocity S-wave (km/s) = 3.10496 3.53731 3.32816
# Velocity P-wave (km/s) = 6.04428 6.77783 6.42154
#
# Compressibility (1/GPa) = 0.02161108
#
# Stress axis : x y z
#
# Youngs Moduli (GPa) = 57.56011 57.56011 136.61016
#
# Poissons Ratio (x) = 0.23208 0.42320
# Poissons Ratio (y) = 0.23208 0.42320
# Poissons Ratio (z) = 0.17831 0.17831
#
# Static dielectric constant tensor:
#      x y z
#    x 1.734380 0.000000 0.000000 
#    y 0.000000 1.734380 0.000000 
#    z 0.000000 0.000000 1.700280 
# 
# From -- ./inp_files/1671.got.cif
#   From: 2010.05.17/outbox.cif.g08.bks.cpg/sg165_1_cif.got.tgz:1671.got - 2010.05.20 11:02:39.
