data_PCOD9578909
_publ_section_title
;
Structure prediction by ZEFSAII (Michael W. Deem and Ramdas Pophale) SiO2 
 PCOD9578909
Probable space group: P -3 C 1
;
_chemical_formula_sum "Si O2"
_cell_formula_units_Z 66
_cell_length_a 19.313797
_cell_length_b 19.313797
_cell_length_c 9.497594
_cell_angle_alpha 90.000000
_cell_angle_beta 90.000000
_cell_angle_gamma 120.000000
_cell_volume 3068.170974
_symmetry_space_group_name_H-M "P -3 C 1"
_symmetry_group_IT_number 165
_symmetry_cell_setting 'hexagonal'
loop_
_space_group_symop_operation_xyz
x,y,z
-y,x-y,z
-x+y,-x,z
x-y,-y,1/2-z
-x,-x+y,1/2-z
y,x,1/2-z
-x,-y,-z
y,-x+y,-z
x-y,x,-z
-x+y,y,1/2+z
x,x-y,1/2+z
-y,-x,1/2+z
loop_
_atom_site_type_symbol
_atom_site_label
_atom_site_fract_x
_atom_site_fract_y
_atom_site_fract_z
Si Si1 0.249190 0.249190 0.250000
Si Si2 0.473945 0.094516 0.602472
Si Si3 0.320085 0.156435 0.339975
Si Si4 0.083699 0.470922 0.564284
Si Si5 0.964983 0.828437 0.982024
Si Si6 0.224230 0.803679 0.408117
O O1 0.323512 0.237080 0.280796
O O2 0.199075 0.213491 0.391798
O O3 0.488479 0.093902 0.769390
O O4 0.544208 0.092404 0.516070
O O5 0.465914 0.173322 0.581898
O O6 0.399506 0.006785 0.556292
O O7 0.232386 0.078835 0.351039
O O8 0.389335 0.157074 0.245803
O O9 0.340855 0.170650 0.502760
O O10 0.152292 0.459083 0.492495
O O11 0.905690 0.855926 0.046738
#
# Coordination Sequence:
#
# PCOD9578909 Si02
#       6
#     6  12  12  12  12  12
#     4  10  22  42  56  88 136 170 232 296 344 392
#     4  10  24  46  72 104 141 178 226 279 344 405
#     4  11  24  40  63  95 130 177 226 280 340 400
#     4  10  24  46  73 103 141 179 225 284 336 414
#     4  10  22  40  59  85 125 179 238 296 348 401
#     4  12  24  43  71 102 138 180 224 269 343 405
#
# _framework density 21.511187
#
# number of rings (size 3 to 8) (size 9 to 14) (size 15 to 20)
#    0.000    1.455    3.636    0.182    5.091    2.909 
#    4.364    0.000    0.000    0.000    0.000    0.000 
#    0.000    0.000    0.000    0.000    0.000    0.000 
#
# Total GULP energy -367657.843887 kJ/mol
# GULP energy per Si atom -5570.573392 kJ/mol
# Density = 2.146223 g / cm^3
# Si number density = 21.511187 Si / 1000 Ang^3
#
#
#
# Elastic Constant Matrix: (Units=GPa)
#
#
# Indices 1 2 3 4 5 6 
#
# 1 97.7477 45.3843 32.4774 1.0838 0.0000 0.0000
# 2 45.3843 97.7477 32.4774 -1.0838 0.0000 0.0000
# 3 32.4774 32.4774 75.8418 0.0000 0.0000 0.0000
# 4 1.0838 -1.0838 0.0000 34.7714 0.0000 0.0000
# 5 0.0000 0.0000 0.0000 0.0000 34.7714 1.0838
# 6 0.0000 0.0000 0.0000 0.0000 1.0838 26.1817
#
#
#
# Elastic Compliance Matrix: (Units=1/GPa)
#
#
# Indices 1 2 3 4 5 6 
#
# 1 0.013897 -0.005225 -0.003713 -0.000596 0.000000 0.000000
# 2 -0.005225 0.013897 -0.003713 0.000596 0.000000 0.000000
# 3 -0.003713 -0.003713 0.016366 0.000000 0.000000 0.000000
# 4 -0.000596 0.000596 0.000000 0.028796 0.000000 0.000000
# 5 0.000000 0.000000 0.000000 0.000000 0.028796 -0.001192
# 6 0.000000 0.000000 0.000000 0.000000 -0.001192 0.038244
#
#
# Mechanical properties :
#
#
# Convention : Reuss Voigt Hill
#
# Bulk Modulus (GPa) = 53.03522 54.66838 53.85180
# Shear Modulus (GPa) = 29.13997 29.87809 29.50903
#
# Velocity S-wave (km/s) = 3.68454 3.73091 3.70780
# Velocity P-wave (km/s) = 6.54289 6.63541 6.58931
#
# Compressibility (1/GPa) = 0.01885539
#
# Stress axis : x y z
#
# Youngs Moduli (GPa) = 71.95858 71.95858 61.10315
#
# Poissons Ratio (x) = 0.37599 0.22691
# Poissons Ratio (y) = 0.37599 0.22691
# Poissons Ratio (z) = 0.26722 0.26722
#
# Static dielectric constant tensor:
#      x y z
#    x 1.839230 0.000000 0.000000 
#    y 0.000000 1.839230 0.000000 
#    z 0.000000 0.000000 1.780970 
# 
# From -- ./inp_files/699.got.cif
#   From: 2010.05.17/outbox.cif.g08.bks.cpg/sg165_1_cif.got.tgz:699.got - 2010.05.20 11:02:39.
