data_PCOD9578759
_publ_section_title
;
Structure prediction by ZEFSAII (Michael W. Deem and Ramdas Pophale) SiO2 
 PCOD9578759
Probable space group: P -3 M 1
;
_chemical_formula_sum "Si O2"
_cell_formula_units_Z 60
_cell_length_a 18.000000
_cell_length_b 18.000000
_cell_length_c 12.000000
_cell_angle_alpha 90.000000
_cell_angle_beta 90.000000
_cell_angle_gamma 120.000000
_cell_volume 3367.106770
_symmetry_space_group_name_H-M "P -3 M 1"
_symmetry_group_IT_number 164
_symmetry_cell_setting 'hexagonal'
loop_
_space_group_symop_operation_xyz
x,y,z
-y,x-y,z
-x+y,-x,z
x-y,-y,-z
-x,-x+y,-z
y,x,-z
-x,-y,-z
y,-x+y,-z
x-y,x,-z
-x+y,y,z
x,x-y,z
-y,-x,z
loop_
_atom_site_type_symbol
_atom_site_label
_atom_site_fract_x
_atom_site_fract_y
_atom_site_fract_z
Si Si1 0.824728 0.824726 0.632820
Si Si2 0.421507 0.402107 0.622629
Si Si3 0.740798 0.645944 0.997085
Si Si4 0.155564 0.488315 0.194972
Si Si5 0.902253 0.639698 0.258002
O O1 0.805583 0.805583 0.500000
O O2 0.847444 0.923722 0.647611
O O3 0.738777 0.768156 0.706514
O O4 0.906850 0.813700 0.659558
O O5 0.380781 0.380781 0.500000
O O6 0.513220 0.486781 0.614191
O O7 0.439189 0.336578 0.693848
O O8 0.355601 0.418025 0.692568
O O9 0.835379 0.670757 0.960433
O O10 0.678418 0.571641 0.911989
O O11 0.724284 0.724284 0.000000
O O12 0.730745 0.621299 0.126726
O O13 0.250667 0.501334 0.196931
O O14 0.157794 0.578897 0.187574
O O15 0.812038 0.624076 0.304390
#
# Coordination Sequence:
#
# PCOD9578759 Si02
#       5
#    12  12  12  12  12
#     4   9  17  29  47  73 105 141 179 220 266 314
#     4  10  21  36  55  80 108 140 176 214 264 325
#     4  10  20  35  54  79 107 141 184 226 271 321
#     4  10  21  37  59  85 111 140 177 224 276 325
#     4  10  20  33  50  75 105 139 177 216 262 313
#
# _framework density 17.819452999999999
#
# number of rings (size 3 to 8) (size 9 to 14) (size 15 to 20)
#    0.000    2.200    2.000    1.000    0.000    4.400 
#    0.000    0.000    0.000    0.600    0.000    0.000 
#    0.000    0.000    0.000    0.000    0.000    0.000 
#
# Total GULP energy -334014.515824 kJ/mol
# GULP energy per Si atom -5566.908597 kJ/mol
# Density = 1.777889 g / cm^3
# Si number density = 17.819453 Si / 1000 Ang^3
#
#
#
# Elastic Constant Matrix: (Units=GPa)
#
#
# Indices 1 2 3 4 5 6 
#
# 1 42.4306 23.2932 26.8888 5.4871 0.0000 0.0000
# 2 23.2932 42.4306 26.8888 -5.4871 0.0000 0.0000
# 3 26.8888 26.8888 99.4878 0.0000 0.0000 0.0000
# 4 5.4871 -5.4871 0.0000 19.5894 0.0000 0.0000
# 5 0.0000 0.0000 0.0000 0.0000 19.5894 5.4871
# 6 0.0000 0.0000 0.0000 0.0000 5.4871 9.5687
#
#
#
# Elastic Compliance Matrix: (Units=1/GPa)
#
#
# Indices 1 2 3 4 5 6 
#
# 1 0.040894 -0.021359 -0.005280 -0.017438 0.000000 0.000000
# 2 -0.021359 0.040894 -0.005280 0.017438 0.000000 0.000000
# 3 -0.005280 -0.005280 0.012905 0.000000 0.000000 0.000000
# 4 -0.017438 0.017438 0.000000 0.060817 0.000000 0.000000
# 5 0.000000 0.000000 0.000000 0.000000 0.060817 -0.034875
# 6 0.000000 0.000000 0.000000 0.000000 -0.034875 0.124507
#
#
# Mechanical properties :
#
#
# Convention : Reuss Voigt Hill
#
# Bulk Modulus (GPa) = 32.40783 37.61006 35.00894
# Shear Modulus (GPa) = 12.04943 16.90140 14.47542
#
# Velocity S-wave (km/s) = 2.60320 3.08308 2.85325
# Velocity P-wave (km/s) = 5.22128 5.81600 5.52665
#
# Compressibility (1/GPa) = 0.03085674
#
# Stress axis : x y z
#
# Youngs Moduli (GPa) = 24.45325 24.45325 77.48652
#
# Poissons Ratio (x) = 0.52230 0.40912
# Poissons Ratio (y) = 0.52230 0.40912
# Poissons Ratio (z) = 0.12911 0.12911
#
# Static dielectric constant tensor:
#      x y z
#    x 1.619780 0.000000 0.000000 
#    y 0.000000 1.619780 0.000000 
#    z 0.000000 0.000000 1.679900 
# 
# From -- ./inp_files/2673.got.cif
#   From: 2010.05.17/outbox.ucp.g08.bks.cvg/sg164_2_cif.got.tgz:2673.got - 2010.06.11 15:16:10.
