data_PCOD9578387
_publ_section_title
;
Structure prediction by ZEFSAII (Michael W. Deem and Ramdas Pophale) SiO2 
 PCOD9578387
Probable space group: P -3 M 1
;
_chemical_formula_sum "Si O2"
_cell_formula_units_Z 72
_cell_length_a 23.084296
_cell_length_b 23.084296
_cell_length_c 9.251231
_cell_angle_alpha 90.000000
_cell_angle_beta 90.000000
_cell_angle_gamma 120.000000
_cell_volume 4269.366380
_symmetry_space_group_name_H-M "P -3 M 1"
_symmetry_group_IT_number 164
_symmetry_cell_setting 'hexagonal'
loop_
_space_group_symop_operation_xyz
x,y,z
-y,x-y,z
-x+y,-x,z
x-y,-y,-z
-x,-x+y,-z
y,x,-z
-x,-y,-z
y,-x+y,-z
x-y,x,-z
-x+y,y,z
x,x-y,z
-y,-x,z
loop_
_atom_site_type_symbol
_atom_site_label
_atom_site_fract_x
_atom_site_fract_y
_atom_site_fract_z
Si Si1 0.221916 0.043477 0.141678
Si Si2 0.940317 0.333120 0.884710
Si Si3 0.788274 0.715279 0.687648
Si Si4 0.392240 0.265256 0.455603
Si Si5 0.875836 0.257962 0.132984
Si Si6 0.400545 0.465345 0.396667
O O1 0.206610 0.103305 0.169487
O O2 0.301745 0.080025 0.109618
O O3 0.206005 0.991738 0.273330
O O4 0.184794 0.000000 0.000000
O O5 0.932366 0.269435 0.795629
O O6 0.948669 0.387322 0.767672
O O7 0.880175 0.303620 0.999339
O O8 0.000000 0.361226 0.000000
O O9 0.859056 0.718112 0.714083
O O10 0.761771 0.680147 0.531800
O O11 0.403243 0.201622 0.459305
O O12 0.393079 0.289099 0.292211
O O13 0.447027 0.327862 0.544877
O O14 0.800892 0.199108 0.144970
O O15 0.424727 0.424727 0.500000
O O16 0.458012 0.541989 0.403792
#
# Coordination Sequence:
#
# PCOD9578387 Si02
#       6
#    12  12  12  12  12  12
#     4  11  20  29  45  69 100 138 178 224 282 335
#     4  11  18  29  49  72  98 140 174 211 262 314
#     4  10  18  31  49  72  98 133 178 227 276 322
#     4   9  20  34  55  80 105 136 176 224 274 322
#     4  10  18  30  48  78 106 131 170 220 274 321
#     4  10  22  36  52  76 112 150 179 210 253 315
#
# _framework density 16.864329999999999
#
# number of rings (size 3 to 8) (size 9 to 14) (size 15 to 20)
#    0.000    1.833    3.333    2.000    2.333    1.000 
#    0.000    0.833    0.000    4.333    0.000    0.000 
#    0.000    1.333    0.000   33.333    0.000    0.000 
#
# Total GULP energy -401135.621610 kJ/mol
# GULP energy per Si atom -5571.328078 kJ/mol
# Density = 1.682595 g / cm^3
# Si number density = 16.864330 Si / 1000 Ang^3
#
#
#
# Elastic Constant Matrix: (Units=GPa)
#
#
# Indices 1 2 3 4 5 6 
#
# 1 73.7329 34.9530 33.9334 1.7685 0.0000 0.0000
# 2 34.9530 73.7329 33.9334 -1.7685 0.0000 0.0000
# 3 33.9334 33.9334 110.3771 0.0000 0.0000 0.0000
# 4 1.7685 -1.7685 0.0000 19.4831 0.0000 0.0000
# 5 0.0000 0.0000 0.0000 0.0000 19.4831 1.7685
# 6 0.0000 0.0000 0.0000 0.0000 1.7685 19.3900
#
#
#
# Elastic Compliance Matrix: (Units=1/GPa)
#
#
# Indices 1 2 3 4 5 6 
#
# 1 0.018694 -0.007308 -0.003501 -0.002360 0.000000 0.000000
# 2 -0.007308 0.018694 -0.003501 0.002360 0.000000 0.000000
# 3 -0.003501 -0.003501 0.011212 0.000000 0.000000 0.000000
# 4 -0.002360 0.002360 0.000000 0.051755 0.000000 0.000000
# 5 0.000000 0.000000 0.000000 0.000000 0.051755 -0.004720
# 6 0.000000 0.000000 0.000000 0.000000 -0.004720 0.052004
#
#
# Mechanical properties :
#
#
# Convention : Reuss Voigt Hill
#
# Bulk Modulus (GPa) = 50.04210 51.49803 50.77006
# Shear Modulus (GPa) = 20.88614 22.00610 21.44612
#
# Velocity S-wave (km/s) = 3.52302 3.61625 3.56994
# Velocity P-wave (km/s) = 6.80343 6.93104 6.86753
#
# Compressibility (1/GPa) = 0.01998318
#
# Stress axis : x y z
#
# Youngs Moduli (GPa) = 53.49237 53.49237 89.18804
#
# Poissons Ratio (x) = 0.39090 0.31222
# Poissons Ratio (y) = 0.39090 0.31222
# Poissons Ratio (z) = 0.18726 0.18726
#
# Static dielectric constant tensor:
#      x y z
#    x 1.594670 0.000000 0.000000 
#    y 0.000000 1.594670 0.000000 
#    z 0.000000 0.000000 1.680080 
# 
# From -- ./inp_files/1890.got.cif
#   From: 2010.05.17/outbox.cif.g08.bks.cpg/sg164_1_cif.got.tgz:1890.got - 2010.05.20 10:58:56.
