data_PCOD9578642
_publ_section_title
;
Structure prediction by ZEFSAII (Michael W. Deem and Ramdas Pophale) SiO2 
 PCOD9578642
Probable space group: P -3 M 1
;
_chemical_formula_sum "Si O2"
_cell_formula_units_Z 66
_cell_length_a 12.784526
_cell_length_b 12.784526
_cell_length_c 28.839521
_cell_angle_alpha 90.000000
_cell_angle_beta 90.000000
_cell_angle_gamma 120.000000
_cell_volume 4082.140385
_symmetry_space_group_name_H-M "P -3 M 1"
_symmetry_group_IT_number 164
_symmetry_cell_setting 'hexagonal'
loop_
_space_group_symop_operation_xyz
x,y,z
-y,x-y,z
-x+y,-x,z
x-y,-y,-z
-x,-x+y,-z
y,x,-z
-x,-y,-z
y,-x+y,-z
x-y,x,-z
-x+y,y,z
x,x-y,z
-y,-x,z
loop_
_atom_site_type_symbol
_atom_site_label
_atom_site_fract_x
_atom_site_fract_y
_atom_site_fract_z
Si Si1 0.751713 0.751713 0.000000
Si Si2 0.581160 0.665988 0.821443
Si Si3 0.666934 0.581989 0.910556
Si Si4 0.332730 0.914913 0.541744
Si Si5 0.915677 0.333506 0.353510
Si Si6 0.666821 0.084684 0.733171
O O1 0.693395 0.665612 0.955600
O O2 0.764274 0.882137 0.991878
O O3 0.589732 0.794866 0.822560
O O4 0.441613 0.558388 0.820243
O O5 0.640465 0.642475 0.866573
O O6 0.643751 0.648558 0.776019
O O7 0.784652 0.569303 0.902225
O O8 0.548951 0.451050 0.917604
O O9 0.449776 0.899552 0.537299
O O10 0.213625 0.786376 0.538123
O O11 0.336045 0.961355 0.594058
O O12 0.339533 0.000000 0.500000
O O13 0.887519 0.443760 0.350289
O O14 0.792982 0.207019 0.346398
O O15 0.013654 0.358635 0.314359
O O16 0.555929 0.111858 0.733942
O O17 0.793137 0.206864 0.737052
#
# Coordination Sequence:
#
# PCOD9578642 Si02
#       6
#     6  12  12  12  12  12
#     4  10  20  34  52  74 102 136 172 208 246 290
#     4  10  20  34  53  76 100 126 158 198 242 286
#     4  10  20  34  53  76 102 132 166 204 246 292
#     4   9  17  29  46  69  95 123 155 192 236 283
#     4   9  17  30  49  71  94 121 155 196 239 282
#     4  10  20  33  50  72  99 129 159 193 235 285
#
# _framework density 16.167988999999999
#
# number of rings (size 3 to 8) (size 9 to 14) (size 15 to 20)
#    0.000    2.364    0.000    2.909    0.000    2.182 
#    0.000    3.636    0.000   15.818    0.000    0.000 
#    0.000    0.000    0.000    0.000    0.000    0.000 
#
# Total GULP energy -368114.987154 kJ/mol
# GULP energy per Si atom -5577.499805 kJ/mol
# Density = 1.613119 g / cm^3
# Si number density = 16.167989 Si / 1000 Ang^3
#
#
#
# Elastic Constant Matrix: (Units=GPa)
#
#
# Indices 1 2 3 4 5 6 
#
# 1 115.2288 76.3223 83.5547 2.6951 0.0000 0.0000
# 2 76.3223 115.2288 83.5547 -2.6951 0.0000 0.0000
# 3 83.5547 83.5547 142.5894 0.0000 0.0000 0.0000
# 4 2.6951 -2.6951 0.0000 23.1203 0.0000 0.0000
# 5 0.0000 0.0000 0.0000 0.0000 23.1203 2.6951
# 6 0.0000 0.0000 0.0000 0.0000 2.6951 19.4533
#
#
#
# Elastic Compliance Matrix: (Units=1/GPa)
#
#
# Indices 1 2 3 4 5 6 
#
# 1 0.018403 -0.007722 -0.006259 -0.003045 0.000000 0.000000
# 2 -0.007722 0.018403 -0.006259 0.003045 0.000000 0.000000
# 3 -0.006259 -0.006259 0.014348 0.000000 0.000000 0.000000
# 4 -0.003045 0.003045 0.000000 0.043962 0.000000 0.000000
# 5 0.000000 0.000000 0.000000 0.000000 0.043962 -0.006091
# 6 0.000000 0.000000 0.000000 0.000000 -0.006091 0.052249
#
#
# Mechanical properties :
#
#
# Convention : Reuss Voigt Hill
#
# Bulk Modulus (GPa) = 93.67961 95.54562 94.61262
# Shear Modulus (GPa) = 21.24380 21.77980 21.51180
#
# Velocity S-wave (km/s) = 3.62877 3.67426 3.65158
# Velocity P-wave (km/s) = 8.69623 8.78772 8.74210
#
# Compressibility (1/GPa) = 0.01067468
#
# Stress axis : x y z
#
# Youngs Moduli (GPa) = 54.34030 54.34030 69.69617
#
# Poissons Ratio (x) = 0.41962 0.43620
# Poissons Ratio (y) = 0.41962 0.43620
# Poissons Ratio (z) = 0.34009 0.34009
#
# Static dielectric constant tensor:
#      x y z
#    x 1.508290 0.000000 0.000000 
#    y 0.000000 1.508290 0.000000 
#    z 0.000000 0.000000 1.549530 
# 
# From -- ./inp_files/5442.got.cif
#   From: 2010.05.17/outbox.cif.g08.bks.cpg/sg164_3_cif.got.tgz:5442.got - 2010.05.20 10:58:56.
