data_PCOD9578719
_publ_section_title
;
Structure prediction by ZEFSAII (Michael W. Deem and Ramdas Pophale) SiO2 
 PCOD9578719
Probable space group: P -3 M 1
;
_chemical_formula_sum "Si O2"
_cell_formula_units_Z 84
_cell_length_a 21.612968
_cell_length_b 21.612968
_cell_length_c 12.519833
_cell_angle_alpha 90.000000
_cell_angle_beta 90.000000
_cell_angle_gamma 120.000000
_cell_volume 5064.749713
_symmetry_space_group_name_H-M "P -3 M 1"
_symmetry_group_IT_number 164
_symmetry_cell_setting 'hexagonal'
loop_
_space_group_symop_operation_xyz
x,y,z
-y,x-y,z
-x+y,-x,z
x-y,-y,-z
-x,-x+y,-z
y,x,-z
-x,-y,-z
y,-x+y,-z
x-y,x,-z
-x+y,y,z
x,x-y,z
-y,-x,z
loop_
_atom_site_type_symbol
_atom_site_label
_atom_site_fract_x
_atom_site_fract_y
_atom_site_fract_z
Si Si1 0.188593 0.664034 0.969853
Si Si2 0.612328 0.536695 0.451991
Si Si3 0.354453 0.443693 0.172297
Si Si4 0.360321 0.925309 0.797040
Si Si5 0.704302 0.782626 0.130195
Si Si6 0.296254 0.218146 0.127324
Si Si7 0.812415 0.334068 0.627578
O O1 0.217077 0.608539 0.982096
O O2 0.254567 0.745434 0.967611
O O3 0.134711 0.650834 0.067856
O O4 0.138593 0.642155 0.865201
O O5 0.597360 0.597360 0.500000
O O6 0.537084 0.462917 0.459279
O O7 0.632584 0.550593 0.328542
O O8 0.665472 0.522940 0.524517
O O9 0.415951 0.421742 0.169244
O O10 0.280875 0.368260 0.178405
O O11 0.358114 0.490153 0.273981
O O12 0.284732 0.919127 0.823690
O O13 0.716637 0.858319 0.164940
O O14 0.768973 0.768805 0.153571
O O15 0.694113 0.776682 0.001382
O O16 0.287154 0.143577 0.162377
O O17 0.791723 0.395862 0.613811
O O18 0.742174 0.257827 0.646738
#
# Coordination Sequence:
#
# PCOD9578719 Si02
#       7
#    12  12  12  12  12  12  12
#     4  12  25  38  53  76 111 148 180 217 266 326
#     4  10  21  39  58  76 101 133 177 229 271 313
#     4  11  21  35  56  82 107 136 179 226 273 320
#     4  11  21  36  59  82 103 134 177 229 279 318
#     4   9  16  29  48  73 105 138 172 208 251 306
#     4   9  17  29  48  75 106 136 168 208 257 310
#     4  11  23  38  57  79 107 142 179 221 271 331
#
# _framework density 16.585222999999999
#
# number of rings (size 3 to 8) (size 9 to 14) (size 15 to 20)
#    0.000    1.571    2.857    3.286    0.000    3.429 
#    0.000    1.429    0.000    2.000    0.000    2.000 
#    0.000    0.000    0.000    0.000    0.000    0.714 
#
# Total GULP energy -468703.996955 kJ/mol
# GULP energy per Si atom -5579.809488 kJ/mol
# Density = 1.654747 g / cm^3
# Si number density = 16.585223 Si / 1000 Ang^3
#
#
#
# Elastic Constant Matrix: (Units=GPa)
#
#
# Indices 1 2 3 4 5 6 
#
# 1 85.0132 28.4259 21.4880 16.1876 0.0000 0.0000
# 2 28.4259 85.0132 21.4880 -16.1876 0.0000 0.0000
# 3 21.4880 21.4880 80.8737 0.0000 0.0000 0.0000
# 4 16.1876 -16.1876 0.0000 39.1961 0.0000 0.0000
# 5 0.0000 0.0000 0.0000 0.0000 39.1961 16.1876
# 6 0.0000 0.0000 0.0000 0.0000 16.1876 28.2936
#
#
#
# Elastic Compliance Matrix: (Units=1/GPa)
#
#
# Indices 1 2 3 4 5 6 
#
# 1 0.016471 -0.006669 -0.002604 -0.009556 0.000000 0.000000
# 2 -0.006669 0.016471 -0.002604 0.009556 0.000000 0.000000
# 3 -0.002604 -0.002604 0.013749 0.000000 0.000000 0.000000
# 4 -0.009556 0.009556 0.000000 0.033406 0.000000 0.000000
# 5 0.000000 0.000000 0.000000 0.000000 0.033406 -0.019113
# 6 0.000000 0.000000 0.000000 0.000000 -0.019113 0.046279
#
#
# Mechanical properties :
#
#
# Convention : Reuss Voigt Hill
#
# Bulk Modulus (GPa) = 43.60079 43.74488 43.67284
# Shear Modulus (GPa) = 26.15326 33.30372 29.72849
#
# Velocity S-wave (km/s) = 3.97533 4.48597 4.23835
# Velocity P-wave (km/s) = 6.88600 7.29829 7.09514
#
# Compressibility (1/GPa) = 0.02293537
#
# Stress axis : x y z
#
# Youngs Moduli (GPa) = 60.71419 60.71419 72.73302
#
# Poissons Ratio (x) = 0.40488 0.18942
# Poissons Ratio (y) = 0.40488 0.18942
# Poissons Ratio (z) = 0.15812 0.15812
#
# Static dielectric constant tensor:
#      x y z
#    x 1.564340 0.000000 0.000000 
#    y 0.000000 1.564340 0.000000 
#    z 0.000000 0.000000 1.556560 
# 
# From -- ./inp_files/2898.got.cif
#   From: 2010.05.17/outbox.cif.g08.bks.cpg/sg164_2_cif.got.tgz:2898.got - 2010.05.20 10:58:56.
