data_PCOD9578689
_publ_section_title
;
Structure prediction by ZEFSAII (Michael W. Deem and Ramdas Pophale) SiO2 
 PCOD9578689
Probable space group: P -3 M 1
;
_chemical_formula_sum "Si O2"
_cell_formula_units_Z 66
_cell_length_a 20.908263
_cell_length_b 20.908263
_cell_length_c 8.845488
_cell_angle_alpha 90.000000
_cell_angle_beta 90.000000
_cell_angle_gamma 120.000000
_cell_volume 3348.793269
_symmetry_space_group_name_H-M "P -3 M 1"
_symmetry_group_IT_number 164
_symmetry_cell_setting 'hexagonal'
loop_
_space_group_symop_operation_xyz
x,y,z
-y,x-y,z
-x+y,-x,z
x-y,-y,-z
-x,-x+y,-z
y,x,-z
-x,-y,-z
y,-x+y,-z
x-y,x,-z
-x+y,y,z
x,x-y,z
-y,-x,z
loop_
_atom_site_type_symbol
_atom_site_label
_atom_site_fract_x
_atom_site_fract_y
_atom_site_fract_z
Si Si1 0.185266 0.220264 0.830803
Si Si2 0.621489 0.096758 0.289569
Si Si3 0.606423 0.066676 0.835863
Si Si4 0.665389 0.480118 0.583409
Si Si5 0.845517 0.000000 0.500000
Si Si6 0.880075 0.615152 0.068168
O O1 0.102528 0.205055 0.825669
O O2 0.194119 0.191353 0.663827
O O3 0.239447 0.307965 0.846831
O O4 0.192175 0.192175 0.000000
O O5 0.557375 0.114749 0.250835
O O6 0.644971 0.121943 0.459427
O O7 0.693526 0.142706 0.189458
O O8 0.585602 0.009430 0.257295
O O9 0.531983 0.063966 0.900031
O O10 0.646072 0.140737 0.738281
O O11 0.670472 0.076360 0.948038
O O12 0.747650 0.495300 0.573439
O O13 0.606568 0.393433 0.562476
O O14 0.925932 0.074068 0.497377
O O15 0.809279 0.618558 0.007117
#
# Coordination Sequence:
#
# PCOD9578689 Si02
#       6
#    12  12  12  12   6  12
#     4  10  21  38  59  86 122 160 197 243 297 356
#     4  10  20  36  58  81 109 148 193 243 292 346
#     4  10  20  36  59  84 110 148 196 245 295 348
#     4  10  20  35  55  82 116 152 192 242 299 359
#     4  10  21  40  66  94 123 158 202 248 296 354
#     4  11  22  37  56  83 115 150 191 238 297 358
#
# _framework density 19.708591999999999
#
# number of rings (size 3 to 8) (size 9 to 14) (size 15 to 20)
#    0.000    1.818    0.000    4.636    0.000    3.636 
#    6.545    0.000    0.000    8.000    0.000    0.000 
#    0.000    0.000    0.000    0.000    0.000    0.000 
#
# Total GULP energy -367481.514981 kJ/mol
# GULP energy per Si atom -5567.901742 kJ/mol
# Density = 1.966373 g / cm^3
# Si number density = 19.708592 Si / 1000 Ang^3
#
#
#
# Elastic Constant Matrix: (Units=GPa)
#
#
# Indices 1 2 3 4 5 6 
#
# 1 100.8535 53.5989 51.6639 7.8877 0.0000 0.0000
# 2 53.5989 100.8535 51.6639 -7.8877 0.0000 0.0000
# 3 51.6639 51.6639 119.0713 0.0000 0.0000 0.0000
# 4 7.8877 -7.8877 0.0000 37.4256 0.0000 0.0000
# 5 0.0000 0.0000 0.0000 0.0000 37.4256 7.8877
# 6 0.0000 0.0000 0.0000 0.0000 7.8877 23.6273
#
#
#
# Elastic Compliance Matrix: (Units=1/GPa)
#
#
# Indices 1 2 3 4 5 6 
#
# 1 0.015943 -0.006821 -0.003958 -0.004798 0.000000 0.000000
# 2 -0.006821 0.015943 -0.003958 0.004798 0.000000 0.000000
# 3 -0.003958 -0.003958 0.011833 0.000000 0.000000 0.000000
# 4 -0.004798 0.004798 0.000000 0.028742 0.000000 0.000000
# 5 0.000000 0.000000 0.000000 0.000000 0.028742 -0.009595
# 6 0.000000 0.000000 0.000000 0.000000 -0.009595 0.045527
#
#
# Mechanical properties :
#
#
# Convention : Reuss Voigt Hill
#
# Bulk Modulus (GPa) = 70.19777 70.51464 70.35620
# Shear Modulus (GPa) = 27.63155 30.61913 29.12534
#
# Velocity S-wave (km/s) = 3.74840 3.94584 3.84839
# Velocity P-wave (km/s) = 7.37761 7.52435 7.45134
#
# Compressibility (1/GPa) = 0.01424547
#
# Stress axis : x y z
#
# Youngs Moduli (GPa) = 62.72326 62.72326 84.50839
#
# Poissons Ratio (x) = 0.42781 0.33450
# Poissons Ratio (y) = 0.42781 0.33450
# Poissons Ratio (z) = 0.24827 0.24827
#
# Static dielectric constant tensor:
#      x y z
#    x 1.681750 0.000000 0.000000 
#    y 0.000000 1.681750 0.000000 
#    z 0.000000 0.000000 1.813210 
# 
# From -- ./inp_files/1683.got.cif
#   From: 2010.05.17/outbox.cif.g08.bks.cpg/sg164_1_cif.got.tgz:1683.got - 2010.05.20 10:58:56.
