data_PCOD9578929
_publ_section_title
;
Structure prediction by ZEFSAII (Michael W. Deem and Ramdas Pophale) SiO2 
 PCOD9578929
Probable space group: P -3 C 1
;
_chemical_formula_sum "Si O2"
_cell_formula_units_Z 72
_cell_length_a 14.606508
_cell_length_b 14.606508
_cell_length_c 17.240727
_cell_angle_alpha 90.000000
_cell_angle_beta 90.000000
_cell_angle_gamma 120.000000
_cell_volume 3185.510262
_symmetry_space_group_name_H-M "P -3 C 1"
_symmetry_group_IT_number 165
_symmetry_cell_setting 'hexagonal'
loop_
_space_group_symop_operation_xyz
x,y,z
-y,x-y,z
-x+y,-x,z
x-y,-y,1/2-z
-x,-x+y,1/2-z
y,x,1/2-z
-x,-y,-z
y,-x+y,-z
x-y,x,-z
-x+y,y,1/2+z
x,x-y,1/2+z
-y,-x,1/2+z
loop_
_atom_site_type_symbol
_atom_site_label
_atom_site_fract_x
_atom_site_fract_y
_atom_site_fract_z
Si Si1 0.207763 0.909128 0.684498
Si Si2 0.933959 0.421783 0.828126
Si Si3 0.629708 0.114324 0.044184
Si Si4 0.226125 0.058803 0.978141
Si Si5 0.679442 0.069544 0.870180
Si Si6 0.150568 0.708538 0.928677
O O1 0.296932 0.875002 0.680458
O O2 0.209739 0.972806 0.608054
O O3 0.105821 0.791906 0.670167
O O4 0.240050 0.000000 0.750000
O O5 0.878714 0.491745 0.836340
O O6 0.000000 0.461721 0.750000
O O7 0.011217 0.443861 0.902144
O O8 0.730024 0.204198 0.090777
O O9 0.543019 0.151251 0.032663
O O10 0.672709 0.092762 0.963174
O O11 0.186452 0.142519 0.976839
O O12 0.341166 0.110902 0.015530
O O13 0.604807 0.941658 0.863893
#
# Coordination Sequence:
#
# PCOD9578929 Si02
#       6
#    12  12  12  12  12  12
#     4  11  23  44  70 103 142 191 246 315 381 454
#     4  10  23  45  63  94 144 186 238 304 381 450
#     4  11  22  37  72 103 139 188 249 310 374 458
#     4  12  23  43  70 103 140 198 252 317 384 450
#     4  11  22  40  70  99 138 193 246 301 385 459
#     4  11  20  39  67 111 142 181 255 315 371 446
#
# _framework density 22.602345
#
# number of rings (size 3 to 8) (size 9 to 14) (size 15 to 20)
#    0.000    1.000    3.333    5.500    0.000    0.000 
#   19.000    0.833    0.000    0.000    0.000    0.000 
#    0.000    0.000    0.000    0.000    0.000    0.000 
#
# Total GULP energy -401307.698514 kJ/mol
# GULP energy per Si atom -5573.718035 kJ/mol
# Density = 2.255090 g / cm^3
# Si number density = 22.602345 Si / 1000 Ang^3
#
#
#
# Elastic Constant Matrix: (Units=GPa)
#
#
# Indices 1 2 3 4 5 6 
#
# 1 118.1108 40.8466 14.4632 -4.9897 0.0000 0.0000
# 2 40.8466 118.1108 14.4632 4.9897 0.0000 0.0000
# 3 14.4632 14.4632 62.9792 0.0000 0.0000 0.0000
# 4 -4.9897 4.9897 0.0000 11.9302 0.0000 0.0000
# 5 0.0000 0.0000 0.0000 0.0000 11.9302 -4.9897
# 6 0.0000 0.0000 0.0000 0.0000 -4.9897 38.6321
#
#
#
# Elastic Compliance Matrix: (Units=1/GPa)
#
#
# Indices 1 2 3 4 5 6 
#
# 1 0.010124 -0.003558 -0.001508 0.005722 0.000000 0.000000
# 2 -0.003558 0.010124 -0.001508 -0.005722 0.000000 0.000000
# 3 -0.001508 -0.001508 0.016571 0.000000 0.000000 0.000000
# 4 0.005722 -0.005722 0.000000 0.088608 0.000000 0.000000
# 5 0.000000 0.000000 0.000000 0.000000 0.088608 0.011445
# 6 0.000000 0.000000 0.000000 0.000000 0.011445 0.027363
#
#
# Mechanical properties :
#
#
# Convention : Reuss Voigt Hill
#
# Bulk Modulus (GPa) = 42.24658 48.74963 45.49811
# Shear Modulus (GPa) = 19.05241 27.79368 23.42304
#
# Velocity S-wave (km/s) = 2.90649 3.51049 3.22267
# Velocity P-wave (km/s) = 5.47681 6.16819 5.83275
#
# Compressibility (1/GPa) = 0.02367055
#
# Stress axis : x y z
#
# Youngs Moduli (GPa) = 98.77971 98.77971 60.34721
#
# Poissons Ratio (x) = 0.35148 0.09099
# Poissons Ratio (y) = 0.35148 0.09099
# Poissons Ratio (z) = 0.14893 0.14893
#
# Static dielectric constant tensor:
#      x y z
#    x 1.920020 0.000000 0.000000 
#    y 0.000000 1.920020 0.000000 
#    z 0.000000 0.000000 1.894670 
# 
# From -- ./inp_files/2291.got.cif
#   From: 2010.05.17/outbox.cif.g08.bks.cpg/sg165_2_cif.got.tgz:2291.got - 2010.05.20 11:02:39.
