data_PCOD9578023
_publ_section_title
;
Structure prediction by ZEFSAII (Michael W. Deem and Ramdas Pophale) SiO2 
 PCOD9578023
Probable space group: P -3 1 C
;
_chemical_formula_sum "Si O2"
_cell_formula_units_Z 84
_cell_length_a 21.930861
_cell_length_b 21.930861
_cell_length_c 11.306406
_cell_angle_alpha 90.000000
_cell_angle_beta 90.000000
_cell_angle_gamma 120.000000
_cell_volume 4709.410771
_symmetry_space_group_name_H-M "P -3 1 C"
_symmetry_group_IT_number 163
_symmetry_cell_setting 'hexagonal'
loop_
_space_group_symop_operation_xyz
x,y,z
-y,x-y,z
-x+y,-x,z
-y,-x,1/2-z
-x+y,y,1/2-z
x,x-y,1/2-z
-x,-y,-z
y,-x+y,-z
x-y,x,-z
y,x,1/2+z
x-y,-y,1/2+z
-x,-x+y,1/2+z
loop_
_atom_site_type_symbol
_atom_site_label
_atom_site_fract_x
_atom_site_fract_y
_atom_site_fract_z
Si Si1 1.000000 0.257784 0.499999
Si Si2 0.187474 0.521368 0.975171
Si Si3 0.942552 0.737675 0.250001
Si Si4 0.860269 0.286922 0.249999
Si Si5 0.122023 0.390256 0.117579
Si Si6 0.731766 0.609743 0.882420
Si Si7 0.478632 0.666106 0.524828
O O1 0.982850 0.214604 0.375709
O O2 0.933572 0.267170 0.528991
O O3 0.017150 0.231754 0.624289
O O4 0.066427 0.333598 0.471007
O O5 0.145487 0.472734 0.863543
O O6 0.266854 0.533708 0.970324
O O7 0.188761 0.594381 0.975948
O O8 0.147897 0.470590 0.085217
O O9 0.870868 0.741735 0.250000
O O10 0.920460 0.654653 0.250001
O O11 0.788430 0.211571 0.250000
O O12 0.854513 0.327247 0.136456
O O13 0.191954 0.383907 0.109912
O O14 0.093703 0.373167 0.249999
O O15 0.677306 0.529409 0.914781
#
# Coordination Sequence:
#
# PCOD9578023 Si02
#       7
#    12  12  12  12  12  12  12
#     4  12  20  36  61  84 112 154 191 232 286 342
#     4  10  19  32  51  74 102 139 188 249 307 359
#     4  11  22  37  60  92 120 152 195 230 278 342
#     4   9  17  31  51  74 105 138 179 236 288 342
#     4  10  21  36  54  78 107 142 184 232 289 350
#     4  10  21  36  54  78 107 142 184 232 289 350
#     4  10  19  32  51  74 102 139 188 249 307 359
#
# _framework density 17.836625999999999
#
# number of rings (size 3 to 8) (size 9 to 14) (size 15 to 20)
#    0.000    1.714    4.286    1.571    0.000    0.571 
#    0.000    2.143    0.000    1.714    0.000    0.000 
#    0.000    0.000    0.000   73.714    0.000    0.000 
#
# Total GULP energy -468206.719173 kJ/mol
# GULP energy per Si atom -5573.889514 kJ/mol
# Density = 1.779603 g / cm^3
# Si number density = 17.836626 Si / 1000 Ang^3
#
#
#
# Elastic Constant Matrix: (Units=GPa)
#
#
# Indices 1 2 3 4 5 6 
#
# 1 49.9257 13.9012 26.8459 0.0000 0.0000 0.0000
# 2 13.9012 49.9257 26.8459 0.0000 0.0000 0.0000
# 3 26.8459 26.8459 121.7001 0.0000 0.0000 0.0000
# 4 0.0000 0.0000 0.0000 17.9681 0.0000 0.0000
# 5 0.0000 0.0000 0.0000 0.0000 17.9681 0.0000
# 6 0.0000 0.0000 0.0000 0.0000 0.0000 18.0122
#
#
#
# Elastic Compliance Matrix: (Units=1/GPa)
#
#
# Indices 1 2 3 4 5 6 
#
# 1 0.023498 -0.004261 -0.004244 0.000000 0.000000 0.000000
# 2 -0.004261 0.023498 -0.004244 0.000000 0.000000 0.000000
# 3 -0.004244 -0.004244 0.010089 0.000000 0.000000 0.000000
# 4 0.000000 0.000000 0.000000 0.055654 0.000000 0.000000
# 5 0.000000 0.000000 0.000000 0.000000 0.055654 0.000000
# 6 0.000000 0.000000 0.000000 0.000000 0.000000 0.055518
#
#
# Mechanical properties :
#
#
# Convention : Reuss Voigt Hill
#
# Bulk Modulus (GPa) = 31.65648 39.63751 35.64699
# Shear Modulus (GPa) = 19.23547 21.05361 20.14454
#
# Velocity S-wave (km/s) = 3.28750 3.43936 3.36429
# Velocity P-wave (km/s) = 5.67422 6.16791 5.92621
#
# Compressibility (1/GPa) = 0.03158911
#
# Stress axis : x y z
#
# Youngs Moduli (GPa) = 42.55686 42.55686 99.11710
#
# Poissons Ratio (x) = 0.18133 0.42060
# Poissons Ratio (y) = 0.18133 0.42060
# Poissons Ratio (z) = 0.18059 0.18059
#
# Static dielectric constant tensor:
#      x y z
#    x 1.584450 0.000000 0.000000 
#    y 0.000000 1.584450 0.000000 
#    z 0.000000 0.000000 1.690520 
# 
# From -- ./inp_files/1842.got.cif
#   From: 2010.05.17/outbox.cif.g08.bks.cpg/sg163_1_cif.got.tgz:1842.got - 2010.05.20 10:56:03.
