data_PCOD9578332
_publ_section_title
;
Structure prediction by ZEFSAII (Michael W. Deem and Ramdas Pophale) SiO2 
 PCOD9578332
Probable space group: P -3 M 1
;
_chemical_formula_sum "Si O2"
_cell_formula_units_Z 66
_cell_length_a 25.388264
_cell_length_b 25.388264
_cell_length_c 5.547224
_cell_angle_alpha 90.000000
_cell_angle_beta 90.000000
_cell_angle_gamma 120.000000
_cell_volume 3096.508998
_symmetry_space_group_name_H-M "P -3 M 1"
_symmetry_group_IT_number 164
_symmetry_cell_setting 'hexagonal'
loop_
_space_group_symop_operation_xyz
x,y,z
-y,x-y,z
-x+y,-x,z
x-y,-y,-z
-x,-x+y,-z
y,x,-z
-x,-y,-z
y,-x+y,-z
x-y,x,-z
-x+y,y,z
x,x-y,z
-y,-x,z
loop_
_atom_site_type_symbol
_atom_site_label
_atom_site_fract_x
_atom_site_fract_y
_atom_site_fract_z
Si Si1 0.297597 0.469285 0.750001
Si Si2 0.481417 0.518583 0.250000
Si Si3 0.673055 0.773836 0.250001
Si Si4 0.635768 0.039707 0.750000
Si Si5 0.205551 0.666139 0.250001
Si Si6 0.672271 0.899126 0.750001
O O1 0.232369 0.464737 0.750000
O O2 0.329121 0.505060 0.504367
O O3 0.280724 0.398543 0.750001
O O4 0.329121 0.505060 0.995635
O O5 0.500000 0.500000 0.500000
O O6 0.409578 0.476204 0.250000
O O7 0.500000 0.500000 0.000000
O O8 0.656876 0.828438 0.250001
O O9 0.615922 0.706131 0.250001
O O10 0.704032 0.775604 0.500839
O O11 0.704032 0.775604 0.999163
O O12 0.621147 0.000000 0.500000
O O13 0.621148 0.000000 0.000000
O O14 0.208209 0.604105 0.250001
O O15 0.273627 0.726374 0.250001
O O16 0.669029 0.834514 0.750001
#
# Coordination Sequence:
#
# PCOD9578332 Si02
#       6
#    12   6  12  12  12  12
#     4   9  17  28  42  55  68  94 126 159 204 256
#     4   8  16  30  50  70  92 126 164 204 254 312
#     4  10  19  31  51  76 101 126 159 200 243 292
#     4  10  19  33  53  77 103 134 167 205 256 312
#     4  10  18  27  39  52  67  88 120 159 200 248
#     4   9  17  30  47  65  84 114 148 182 227 277
#
# _framework density 21.314323000000002
#
# number of rings (size 3 to 8) (size 9 to 14) (size 15 to 20)
#    0.000    2.545    0.000    2.909    0.000    4.364 
#    0.000    1.818   12.000    0.000    0.000    0.000 
#    0.909    0.000    0.000    0.000   31.636    0.000 
#
# Total GULP energy -367701.490432 kJ/mol
# GULP energy per Si atom -5571.234704 kJ/mol
# Density = 2.126581 g / cm^3
# Si number density = 21.314323 Si / 1000 Ang^3
#
#
#
# Elastic Constant Matrix: (Units=GPa)
#
#
# Indices 1 2 3 4 5 6 
#
# 1 84.1869 33.1813 30.2510 0.0001 0.0000 0.0000
# 2 33.1813 84.1869 30.2510 -0.0001 0.0000 0.0000
# 3 30.2510 30.2510 275.1091 0.0000 0.0000 0.0000
# 4 0.0001 -0.0001 0.0000 18.4821 0.0000 0.0000
# 5 0.0000 0.0000 0.0000 0.0000 18.4821 0.0001
# 6 0.0000 0.0000 0.0000 0.0000 0.0001 25.5028
#
#
#
# Elastic Compliance Matrix: (Units=1/GPa)
#
#
# Indices 1 2 3 4 5 6 
#
# 1 0.014319 -0.005287 -0.000993 0.000000 0.000000 0.000000
# 2 -0.005287 0.014319 -0.000993 0.000000 0.000000 0.000000
# 3 -0.000993 -0.000993 0.003853 0.000000 0.000000 0.000000
# 4 0.000000 0.000000 0.000000 0.054106 0.000000 0.000000
# 5 0.000000 0.000000 0.000000 0.000000 0.054106 0.000000
# 6 0.000000 0.000000 0.000000 0.000000 0.000000 0.039211
#
#
# Mechanical properties :
#
#
# Convention : Reuss Voigt Hill
#
# Bulk Modulus (GPa) = 55.72594 70.09440 62.91017
# Shear Modulus (GPa) = 24.94473 35.81338 30.37905
#
# Velocity S-wave (km/s) = 3.42472 4.10353 3.77939
# Velocity P-wave (km/s) = 6.46837 7.44375 6.97314
#
# Compressibility (1/GPa) = 0.01794496
#
# Stress axis : x y z
#
# Youngs Moduli (GPa) = 69.83764 69.83764 259.51502
#
# Poissons Ratio (x) = 0.36921 0.25774
# Poissons Ratio (y) = 0.36921 0.25774
# Poissons Ratio (z) = 0.06936 0.06936
#
# Static dielectric constant tensor:
#      x y z
#    x 1.766230 0.000000 0.000000 
#    y 0.000000 1.766230 0.000000 
#    z 0.000000 0.000000 1.929860 
# 
# From -- ./inp_files/750.got.cif
#   From: 2010.05.17/outbox.cif.g08.bks.cpg/sg164_1_cif.got.tgz:750.got - 2010.05.20 10:58:56.
