data_PCOD9578321
_publ_section_title
;
Structure prediction by ZEFSAII (Michael W. Deem and Ramdas Pophale) SiO2 
 PCOD9578321
Probable space group: P -3 M 1
;
_chemical_formula_sum "Si O2"
_cell_formula_units_Z 96
_cell_length_a 18.415972
_cell_length_b 18.415972
_cell_length_c 20.669857
_cell_angle_alpha 90.000000
_cell_angle_beta 90.000000
_cell_angle_gamma 120.000000
_cell_volume 6070.960339
_symmetry_space_group_name_H-M "P -3 M 1"
_symmetry_group_IT_number 164
_symmetry_cell_setting 'hexagonal'
loop_
_space_group_symop_operation_xyz
x,y,z
-y,x-y,z
-x+y,-x,z
x-y,-y,-z
-x,-x+y,-z
y,x,-z
-x,-y,-z
y,-x+y,-z
x-y,x,-z
-x+y,y,z
x,x-y,z
-y,-x,z
loop_
_atom_site_type_symbol
_atom_site_label
_atom_site_fract_x
_atom_site_fract_y
_atom_site_fract_z
Si Si1 0.332666 0.496153 0.951828
Si Si2 0.019560 0.596482 0.856893
Si Si3 0.427989 0.022459 0.288148
Si Si4 0.834848 0.498483 0.546056
Si Si5 0.741776 0.647369 0.645908
Si Si6 0.558862 0.862036 0.594975
Si Si7 0.203420 0.241670 0.571374
Si Si8 0.495941 0.332734 0.893166
O O1 0.246728 0.493456 0.935051
O O2 0.411914 0.588087 0.937061
O O3 0.345093 0.428700 0.911453
O O4 0.334096 0.485031 0.029053
O O5 0.012572 0.506286 0.868060
O O6 0.053959 0.624303 0.784562
O O7 0.923690 0.574588 0.862152
O O8 0.495475 0.990950 0.289694
O O9 0.452768 0.091195 0.344458
O O10 0.333198 0.952562 0.303974
O O11 0.738290 0.476580 0.550065
O O12 0.846205 0.423103 0.572360
O O13 0.887456 0.585174 0.584644
O O14 0.860114 0.512507 0.470863
O O15 0.817030 0.634061 0.668486
O O16 0.779301 0.742764 0.621454
O O17 0.534914 0.767457 0.611698
O O18 0.657014 0.910552 0.575348
O O19 0.212007 0.212007 0.500000
O O20 0.106702 0.213404 0.585685
O O21 0.491174 0.245587 0.875816
O O22 0.588407 0.411594 0.877674
#
# Coordination Sequence:
#
# PCOD9578321 Si02
#       8
#    12  12  12  12  12  12  12  12
#     4   9  16  27  45  68  92 119 150 184 219 260
#     4   9  18  30  42  61  92 123 151 185 224 256
#     4  10  20  32  46  65  88 120 158 187 212 256
#     4  10  18  29  45  66  90 116 148 187 228 265
#     4  10  20  33  48  66  88 115 146 183 227 269
#     4   9  18  30  45  64  86 113 145 182 222 261
#     4  10  17  29  47  66  85 105 132 168 216 272
#     4   9  16  27  45  67  90 118 153 188 222 259
#
# _framework density 15.812984
#
# number of rings (size 3 to 8) (size 9 to 14) (size 15 to 20)
#    0.000    2.500    1.250    1.875    0.000    3.500 
#    0.000    1.875    0.000    2.750    0.000    0.000 
#    0.000    0.000    0.000    0.375    0.000    5.625 
#
# Total GULP energy -534713.457640 kJ/mol
# GULP energy per Si atom -5569.931850 kJ/mol
# Density = 1.577699 g / cm^3
# Si number density = 15.812984 Si / 1000 Ang^3
#
#
#
# Elastic Constant Matrix: (Units=GPa)
#
#
# Indices 1 2 3 4 5 6 
#
# 1 46.0854 17.2294 9.0062 -0.6742 0.0000 0.0000
# 2 17.2294 46.0854 9.0062 0.6742 0.0000 0.0000
# 3 9.0062 9.0062 21.3082 0.0000 0.0000 0.0000
# 4 -0.6742 0.6742 0.0000 14.0622 0.0000 0.0000
# 5 0.0000 0.0000 0.0000 0.0000 14.0622 -0.6742
# 6 0.0000 0.0000 0.0000 0.0000 -0.6742 14.4280
#
#
#
# Elastic Compliance Matrix: (Units=1/GPa)
#
#
# Indices 1 2 3 4 5 6 
#
# 1 0.026343 -0.008390 -0.007588 0.001665 0.000000 0.000000
# 2 -0.008390 0.026343 -0.007588 -0.001665 0.000000 0.000000
# 3 -0.007588 -0.007588 0.053345 0.000000 0.000000 0.000000
# 4 0.001665 -0.001665 0.000000 0.071272 0.000000 0.000000
# 5 0.000000 0.000000 0.000000 0.000000 0.071272 0.003330
# 6 0.000000 0.000000 0.000000 0.000000 0.003330 0.069465
#
#
# Mechanical properties :
#
#
# Convention : Reuss Voigt Hill
#
# Bulk Modulus (GPa) = 16.97842 20.44028 18.70935
# Shear Modulus (GPa) = 12.99362 13.72630 13.35996
#
# Velocity S-wave (km/s) = 2.86965 2.94945 2.90982
# Velocity P-wave (km/s) = 4.66264 4.95513 4.81111
#
# Compressibility (1/GPa) = 0.05889828
#
# Stress axis : x y z
#
# Youngs Moduli (GPa) = 37.96111 37.96111 18.74601
#
# Poissons Ratio (x) = 0.31849 0.14224
# Poissons Ratio (y) = 0.31849 0.14224
# Poissons Ratio (z) = 0.28805 0.28805
#
# Static dielectric constant tensor:
#      x y z
#    x 1.536750 0.000000 0.000000 
#    y 0.000000 1.536750 0.000000 
#    z 0.000000 0.000000 1.521150 
# 
# From -- ./inp_files/4691.got.cif
#   From: 2010.05.17/outbox.cif.g08.bks.cpg/sg164_3_cif.got.tgz:4691.got - 2010.05.20 10:58:56.
