data_PCOD9578644
_publ_section_title
;
Structure prediction by ZEFSAII (Michael W. Deem and Ramdas Pophale) SiO2 
 PCOD9578644
Probable space group: P -3 M 1
;
_chemical_formula_sum "Si O2"
_cell_formula_units_Z 66
_cell_length_a 12.845347
_cell_length_b 12.845347
_cell_length_c 28.988862
_cell_angle_alpha 90.000000
_cell_angle_beta 90.000000
_cell_angle_gamma 120.000000
_cell_volume 4142.413799
_symmetry_space_group_name_H-M "P -3 M 1"
_symmetry_group_IT_number 164
_symmetry_cell_setting 'hexagonal'
loop_
_space_group_symop_operation_xyz
x,y,z
-y,x-y,z
-x+y,-x,z
x-y,-y,-z
-x,-x+y,-z
y,x,-z
-x,-y,-z
y,-x+y,-z
x-y,x,-z
-x+y,y,z
x,x-y,z
-y,-x,z
loop_
_atom_site_type_symbol
_atom_site_label
_atom_site_fract_x
_atom_site_fract_y
_atom_site_fract_z
Si Si1 0.914087 0.580949 0.760897
Si Si2 0.419717 0.085874 0.865717
Si Si3 0.752316 0.751419 0.051406
Si Si4 0.247801 0.000000 0.500000
Si Si5 0.332401 0.913382 0.411607
Si Si6 0.247819 0.999965 0.675580
O O1 0.776088 0.552175 0.757259
O O2 0.919002 0.459501 0.753183
O O3 0.955291 0.624283 0.813347
O O4 0.987568 0.681307 0.722920
O O5 0.546189 0.092378 0.870391
O O6 0.437073 0.218537 0.870182
O O7 0.331411 0.007920 0.906392
O O8 0.880490 0.760980 0.055374
O O9 0.767618 0.883809 0.053940
O O10 0.702911 0.702911 0.000000
O O11 0.234709 0.117355 0.492055
O O12 0.334305 0.027957 0.543927
O O13 0.461519 0.923037 0.413196
O O14 0.225964 0.774037 0.410133
O O15 0.314908 0.976066 0.366506
O O16 0.126300 0.873701 0.671555
O O17 0.220225 0.110113 0.674481
#
# Coordination Sequence:
#
# PCOD9578644 Si02
#       6
#    12  12  12   6  12  12
#     4   9  17  30  49  71  93 118 150 190 234 278
#     4   9  17  29  46  68  92 118 149 187 231 276
#     4   9  17  29  45  65  89 118 152 189 229 273
#     4  10  20  34  54  78 104 134 166 200 238 284
#     4  10  20  34  53  76 101 129 162 201 242 282
#     4  10  20  33  50  72  99 129 159 194 236 282
#
# _framework density 15.932741
#
# number of rings (size 3 to 8) (size 9 to 14) (size 15 to 20)
#    0.000    2.545    0.000    2.364    0.000    3.273 
#    0.000    3.636    0.000   10.182    0.000    0.000 
#    0.000    0.000    0.000    0.000    0.000    0.000 
#
# Total GULP energy -367893.238773 kJ/mol
# GULP energy per Si atom -5574.139981 kJ/mol
# Density = 1.589648 g / cm^3
# Si number density = 15.932741 Si / 1000 Ang^3
#
#
#
# Elastic Constant Matrix: (Units=GPa)
#
#
# Indices 1 2 3 4 5 6 
#
# 1 92.6719 57.3975 71.6151 -0.1791 0.0000 0.0000
# 2 57.3975 92.6719 71.6151 0.1791 0.0000 0.0000
# 3 71.6151 71.6151 143.8226 0.0000 0.0000 0.0000
# 4 -0.1791 0.1791 0.0000 23.7846 0.0000 0.0000
# 5 0.0000 0.0000 0.0000 0.0000 23.7846 -0.1791
# 6 0.0000 0.0000 0.0000 0.0000 -0.1791 17.6372
#
#
#
# Elastic Compliance Matrix: (Units=1/GPa)
#
#
# Indices 1 2 3 4 5 6 
#
# 1 0.020525 -0.007826 -0.006323 0.000214 0.000000 0.000000
# 2 -0.007826 0.020525 -0.006323 -0.000214 0.000000 0.000000
# 3 -0.006323 -0.006323 0.013250 0.000000 0.000000 0.000000
# 4 0.000214 -0.000214 0.000000 0.042047 0.000000 0.000000
# 5 0.000000 0.000000 0.000000 0.000000 0.042047 0.000427
# 6 0.000000 0.000000 0.000000 0.000000 0.000427 0.056703
#
#
# Mechanical properties :
#
#
# Convention : Reuss Voigt Hill
#
# Bulk Modulus (GPa) = 74.88008 81.15797 78.01902
# Shear Modulus (GPa) = 20.79054 21.61053 21.20054
#
# Velocity S-wave (km/s) = 3.61625 3.68687 3.65173
# Velocity P-wave (km/s) = 8.03343 8.31700 8.17644
#
# Compressibility (1/GPa) = 0.01335469
#
# Stress axis : x y z
#
# Youngs Moduli (GPa) = 48.72116 48.72116 75.47131
#
# Poissons Ratio (x) = 0.38131 0.47721
# Poissons Ratio (y) = 0.38131 0.47721
# Poissons Ratio (z) = 0.30807 0.30807
#
# Static dielectric constant tensor:
#      x y z
#    x 1.499870 0.000000 0.000000 
#    y 0.000000 1.499870 0.000000 
#    z 0.000000 0.000000 1.554590 
# 
# From -- ./inp_files/5512.got.cif
#   From: 2010.05.17/outbox.cif.g08.bks.cpg/sg164_3_cif.got.tgz:5512.got - 2010.05.20 10:58:56.
