data_PCOD9578105
_publ_section_title
;
Structure prediction by ZEFSAII (Michael W. Deem and Ramdas Pophale) SiO2 
 PCOD9578105
Probable space group: P -3 1 C
;
_chemical_formula_sum "Si O2"
_cell_formula_units_Z 58
_cell_length_a 14.096304
_cell_length_b 14.096304
_cell_length_c 14.286354
_cell_angle_alpha 90.000000
_cell_angle_beta 90.000000
_cell_angle_gamma 120.000000
_cell_volume 2458.456641
_symmetry_space_group_name_H-M "P -3 1 C"
_symmetry_group_IT_number 163
_symmetry_cell_setting 'hexagonal'
loop_
_space_group_symop_operation_xyz
x,y,z
-y,x-y,z
-x+y,-x,z
-y,-x,1/2-z
-x+y,y,1/2-z
x,x-y,1/2-z
-x,-y,-z
y,-x+y,-z
x-y,x,-z
y,x,1/2+z
x-y,-y,1/2+z
-x,-x+y,1/2+z
loop_
_atom_site_type_symbol
_atom_site_label
_atom_site_fract_x
_atom_site_fract_y
_atom_site_fract_z
Si Si1 0.000000 0.000000 0.861620
Si Si2 0.564438 0.197462 0.061034
Si Si3 0.826204 0.066401 0.123361
Si Si4 0.659542 0.952522 0.960018
Si Si5 0.466674 0.933348 0.750000
Si Si6 0.282045 0.935165 0.229184
O O1 0.058779 0.124558 0.892881
O O2 0.000000 0.000000 0.750000
O O3 0.693505 0.248615 0.044492
O O4 0.465638 0.098177 0.007329
O O5 0.544798 0.146918 0.165275
O O6 0.858761 0.189683 0.098425
O O7 0.772329 0.013752 0.223227
O O8 0.736645 0.989147 0.048423
O O9 0.700636 0.047580 0.882461
O O10 0.595333 0.013153 0.730074
O O11 0.189064 0.810937 0.250000
#
# Coordination Sequence:
#
# PCOD9578105 Si02
#       6
#     4  12  12  12   6  12
#     4  12  24  40  65  97 130 185 229 283 326 406
#     4   9  19  37  65  92 125 160 215 282 343 385
#     4  12  23  38  61  90 131 168 212 260 329 392
#     4  11  23  39  62  95 127 169 214 266 328 399
#     4  10  20  38  64  94 118 168 218 270 342 396
#     4  11  23  41  62  91 127 166 214 271 324 398
#
# _framework density 23.592034999999999
#
# number of rings (size 3 to 8) (size 9 to 14) (size 15 to 20)
#    0.414    0.828    0.000    8.069    0.000    4.138 
#    0.621   11.379    0.000    0.000    0.000    0.000 
#    0.000    0.000    0.000    0.000    0.000    0.000 
#
# Total GULP energy -324013.897302 kJ/mol
# GULP energy per Si atom -5586.446505 kJ/mol
# Density = 2.353834 g / cm^3
# Si number density = 23.592035 Si / 1000 Ang^3
#
#
#
# Elastic Constant Matrix: (Units=GPa)
#
#
# Indices 1 2 3 4 5 6 
#
# 1 87.6856 49.8712 3.5509 -0.0001 2.0979 0.0000
# 2 49.8712 87.6856 3.5509 0.0001 -2.0979 0.0000
# 3 3.5509 3.5509 65.5312 0.0000 0.0000 0.0000
# 4 -0.0001 0.0001 0.0000 15.3701 0.0000 -2.0979
# 5 2.0979 -2.0979 0.0000 0.0000 15.3701 -0.0001
# 6 0.0000 0.0000 0.0000 -2.0979 -0.0001 18.9072
#
#
#
# Elastic Compliance Matrix: (Units=1/GPa)
#
#
# Indices 1 2 3 4 5 6 
#
# 1 0.017071 -0.009781 -0.000395 0.000000 -0.003665 0.000000
# 2 -0.009781 0.017071 -0.000395 0.000000 0.003665 0.000000
# 3 -0.000395 -0.000395 0.015303 0.000000 0.000000 0.000000
# 4 0.000000 0.000000 0.000000 0.066062 0.000000 0.007330
# 5 -0.003665 0.003665 0.000000 0.000000 0.066062 0.000000
# 6 0.000000 0.000000 0.000000 0.007330 0.000000 0.053703
#
#
# Mechanical properties :
#
#
# Convention : Reuss Voigt Hill
#
# Bulk Modulus (GPa) = 35.33214 39.42760 37.37987
# Shear Modulus (GPa) = 18.80779 22.19145 20.49962
#
# Velocity S-wave (km/s) = 2.82655 3.07030 2.95094
# Velocity P-wave (km/s) = 5.06570 5.41457 5.24304
#
# Compressibility (1/GPa) = 0.02830285
#
# Stress axis : x y z
#
# Youngs Moduli (GPa) = 58.57938 58.57938 65.34789
#
# Poissons Ratio (x) = 0.57295 0.02581
# Poissons Ratio (y) = 0.57295 0.02581
# Poissons Ratio (z) = 0.02314 0.02314
#
# Static dielectric constant tensor:
#      x y z
#    x 1.916090 0.000000 0.000000 
#    y 0.000000 1.916090 0.000000 
#    z 0.000000 0.000000 1.900420 
# 
# From -- ./inp_files/2409.got.cif
#   From: 2010.05.17/outbox.cif.g08.bks.cpg/sg163_2_cif.got.tgz:2409.got - 2010.05.20 10:56:03.
