data_PCOD9578317
_publ_section_title
;
Structure prediction by ZEFSAII (Michael W. Deem and Ramdas Pophale) SiO2 
 PCOD9578317
Probable space group: P -3 M 1
;
_chemical_formula_sum "Si O2"
_cell_formula_units_Z 60
_cell_length_a 18.901799
_cell_length_b 18.901799
_cell_length_c 11.756070
_cell_angle_alpha 90.000000
_cell_angle_beta 90.000000
_cell_angle_gamma 120.000000
_cell_volume 3637.467120
_symmetry_space_group_name_H-M "P -3 M 1"
_symmetry_group_IT_number 164
_symmetry_cell_setting 'hexagonal'
loop_
_space_group_symop_operation_xyz
x,y,z
-y,x-y,z
-x+y,-x,z
x-y,-y,-z
-x,-x+y,-z
y,x,-z
-x,-y,-z
y,-x+y,-z
x-y,x,-z
-x+y,y,z
x,x-y,z
-y,-x,z
loop_
_atom_site_type_symbol
_atom_site_label
_atom_site_fract_x
_atom_site_fract_y
_atom_site_fract_z
Si Si1 0.702613 0.563507 0.697863
Si Si2 0.418653 0.420094 0.135901
Si Si3 0.753946 0.794803 0.375256
Si Si4 0.903955 0.529620 0.467636
Si Si5 0.356944 0.258057 0.271969
O O1 0.772939 0.545878 0.736920
O O2 0.642539 0.556752 0.798745
O O3 0.747354 0.656257 0.647151
O O4 0.656248 0.512787 0.586438
O O5 0.509751 0.490250 0.167925
O O6 0.391897 0.331381 0.183586
O O7 0.415190 0.415190 0.000000
O O8 0.780189 0.780189 0.500000
O O9 0.781746 0.890873 0.358193
O O10 0.776897 0.739658 0.295160
O O11 0.887087 0.443544 0.416219
O O12 0.890084 0.589404 0.385638
O O13 0.000000 0.579455 0.500000
O O14 0.369671 0.184836 0.235846
#
# Coordination Sequence:
#
# PCOD9578317 Si02
#       5
#    12  12  12  12  12
#     4  10  18  30  50  76 103 134 171 210 256 306
#     4  10  21  37  55  76 102 135 178 223 263 304
#     4  10  17  27  45  72 105 136 165 200 245 296
#     4  11  18  28  50  79 108 137 174 213 255 306
#     4  11  20  33  53  78 105 135 173 215 261 310
#
# _framework density 16.494996
#
# number of rings (size 3 to 8) (size 9 to 14) (size 15 to 20)
#    0.000    1.600    6.000    2.400    0.000    0.800 
#    0.000    0.000    0.000   14.800    0.000    0.000 
#    0.000    0.800    0.000    0.000    0.000    0.000 
#
# Total GULP energy -334041.505156 kJ/mol
# GULP energy per Si atom -5567.358419 kJ/mol
# Density = 1.645745 g / cm^3
# Si number density = 16.494996 Si / 1000 Ang^3
#
#
#
# Elastic Constant Matrix: (Units=GPa)
#
#
# Indices 1 2 3 4 5 6 
#
# 1 74.6717 59.9864 32.3947 -12.1493 0.0000 0.0000
# 2 59.9864 74.6717 32.3947 12.1493 0.0000 0.0000
# 3 32.3947 32.3947 80.7516 0.0000 0.0000 0.0000
# 4 -12.1493 12.1493 0.0000 -3.9050 0.0000 0.0000
# 5 0.0000 0.0000 0.0000 0.0000 -3.9050 -12.1493
# 6 0.0000 0.0000 0.0000 0.0000 -12.1493 7.3427
#
#
#
# Elastic Compliance Matrix: (Units=1/GPa)
#
#
# Indices 1 2 3 4 5 6 
#
# 1 0.010139 -0.000937 -0.003692 -0.034460 0.000000 0.000000
# 2 -0.000937 0.010139 -0.003692 0.034460 0.000000 0.000000
# 3 -0.003692 -0.003692 0.015346 0.000000 0.000000 0.000000
# 4 -0.034460 0.034460 0.000000 -0.041654 0.000000 0.000000
# 5 0.000000 0.000000 0.000000 0.000000 -0.041654 -0.068921
# 6 0.000000 0.000000 0.000000 0.000000 -0.068921 0.022153
#
#
# Mechanical properties :
#
#
# Convention : Reuss Voigt Hill
#
# Bulk Modulus (GPa) = 52.67674 53.29406 52.98540
# Shear Modulus (GPa) = -1951.39405 6.92781 -972.23312
#
# Velocity S-wave (km/s) = -34.43240 2.05160 -24.30413
# Velocity P-wave (km/s) = 39.35457 6.16372 27.48446
#
# Compressibility (1/GPa) = 0.01898371
#
# Stress axis : x y z
#
# Youngs Moduli (GPa) = 98.62569 98.62569 65.16519
#
# Poissons Ratio (x) = 0.09240 0.24057
# Poissons Ratio (y) = 0.09240 0.24057
# Poissons Ratio (z) = 0.36410 0.36410
#
# Static dielectric constant tensor:
#      x y z
#    x 1.573570 0.000000 0.000000 
#    y 0.000000 1.573570 0.000000 
#    z 0.000000 0.000000 1.564810 
# 
# From -- ./inp_files/2697.got.cif
#   From: 2010.05.17/outbox.cif.g08.bks.cpg/sg164_2_cif.got.tgz:2697.got - 2010.05.20 10:58:56.
