data_PCOD9578113
_publ_section_title
;
Structure prediction by ZEFSAII (Michael W. Deem and Ramdas Pophale) SiO2 
 PCOD9578113
Probable space group: P -3 1 C
;
_chemical_formula_sum "Si O2"
_cell_formula_units_Z 46
_cell_length_a 13.916824
_cell_length_b 13.916824
_cell_length_c 12.591563
_cell_angle_alpha 90.000000
_cell_angle_beta 90.000000
_cell_angle_gamma 120.000000
_cell_volume 2111.983614
_symmetry_space_group_name_H-M "P -3 1 C"
_symmetry_group_IT_number 163
_symmetry_cell_setting 'hexagonal'
loop_
_space_group_symop_operation_xyz
x,y,z
-y,x-y,z
-x+y,-x,z
-y,-x,1/2-z
-x+y,y,1/2-z
x,x-y,1/2-z
-x,-y,-z
y,-x+y,-z
x-y,x,-z
y,x,1/2+z
x-y,-y,1/2+z
-x,-x+y,1/2+z
loop_
_atom_site_type_symbol
_atom_site_label
_atom_site_fract_x
_atom_site_fract_y
_atom_site_fract_z
Si Si1 0.572676 0.803589 0.984300
Si Si2 0.071713 0.143425 0.250000
Si Si3 0.261698 0.288287 0.378898
Si Si4 0.333335 0.666668 0.623197
Si Si5 0.456855 0.335058 0.705732
O O1 0.459461 0.730641 0.920776
O O2 0.671228 0.901623 0.917544
O O3 0.618446 0.729414 0.039601
O O4 0.547652 0.865834 0.080562
O O5 0.130043 0.214215 0.354388
O O6 0.119904 0.059952 0.250000
O O7 0.306881 0.343046 0.263424
O O8 0.333334 0.666667 0.750000
O O9 0.548165 0.451836 0.750000
O O10 0.484312 0.242156 0.750000
#
# Coordination Sequence:
#
# PCOD9578113 Si02
#       5
#    12   6  12   4  12
#     4  11  25  44  72 100 146 185 245 287 363 425
#     4  10  24  44  70 100 148 182 228 290 358 408
#     4  11  24  43  70 110 138 189 237 292 349 436
#     4  12  30  51  67 107 142 195 231 306 370 425
#     4  10  20  39  66  98 137 179 239 288 349 413
#
# _framework density 21.780470999999999
#
# number of rings (size 3 to 8) (size 9 to 14) (size 15 to 20)
#    0.261    1.043    3.913    3.391    3.652    8.348 
#    0.000    1.304    0.000    0.000    0.000    0.000 
#    0.000    0.000    0.000    0.000    0.000    0.000 
#
# Total GULP energy -256676.073261 kJ/mol
# GULP energy per Si atom -5579.914636 kJ/mol
# Density = 2.173090 g / cm^3
# Si number density = 21.780471 Si / 1000 Ang^3
#
#
#
# Elastic Constant Matrix: (Units=GPa)
#
#
# Indices 1 2 3 4 5 6 
#
# 1 72.8733 16.6368 29.6462 0.0001 1.2185 0.0006
# 2 16.6368 72.8744 29.6468 -0.0006 -1.2188 0.0004
# 3 29.6462 29.6468 103.3197 -0.0002 -0.0001 0.0007
# 4 0.0001 -0.0006 -0.0002 27.7845 0.0001 -1.2187
# 5 1.2185 -1.2188 -0.0001 0.0001 27.7846 0.0003
# 6 0.0006 0.0004 0.0007 -1.2187 0.0003 28.1185
#
#
#
# Elastic Compliance Matrix: (Units=1/GPa)
#
#
# Indices 1 2 3 4 5 6 
#
# 1 0.015805 -0.002011 -0.003958 0.000000 -0.000781 0.000000
# 2 -0.002011 0.015805 -0.003958 0.000000 0.000781 0.000000
# 3 -0.003958 -0.003958 0.011950 0.000000 0.000000 0.000000
# 4 0.000000 0.000000 0.000000 0.036060 0.000000 0.001563
# 5 -0.000781 0.000781 0.000000 0.000000 0.036060 0.000000
# 6 0.000000 0.000000 0.000000 0.001563 0.000000 0.035632
#
#
# Mechanical properties :
#
#
# Convention : Reuss Voigt Hill
#
# Bulk Modulus (GPa) = 42.18413 44.54745 43.36579
# Shear Modulus (GPa) = 27.92261 28.28001 28.10131
#
# Velocity S-wave (km/s) = 3.58439 3.60726 3.59584
# Velocity P-wave (km/s) = 6.04486 6.15200 6.09867
#
# Compressibility (1/GPa) = 0.02370560
#
# Stress axis : x y z
#
# Youngs Moduli (GPa) = 63.27197 63.27265 83.68146
#
# Poissons Ratio (x) = 0.12724 0.33120
# Poissons Ratio (y) = 0.12724 0.33121
# Poissons Ratio (z) = 0.25042 0.25043
#
# Static dielectric constant tensor:
#      x y z
#    x 1.813510 0.000000 0.000000 
#    y 0.000000 1.813510 0.000000 
#    z 0.000000 0.000000 1.818870 
# 
# From -- ./inp_files/1591.got.cif
#   From: 2010.05.17/outbox.cif.g08.bks.cpg/sg163_1_cif.got.tgz:1591.got - 2010.05.20 10:56:03.
