data_PCOD9578276
_publ_section_title
;
Structure prediction by ZEFSAII (Michael W. Deem and Ramdas Pophale) SiO2 
 PCOD9578276
Probable space group: P -3 1 C
;
_chemical_formula_sum "Si O2"
_cell_formula_units_Z 30
_cell_length_a 10.772816
_cell_length_b 10.772816
_cell_length_c 13.885534
_cell_angle_alpha 90.000000
_cell_angle_beta 90.000000
_cell_angle_gamma 120.000000
_cell_volume 1395.570248
_symmetry_space_group_name_H-M "P -3 1 C"
_symmetry_group_IT_number 163
_symmetry_cell_setting 'hexagonal'
loop_
_space_group_symop_operation_xyz
x,y,z
-y,x-y,z
-x+y,-x,z
-y,-x,1/2-z
-x+y,y,1/2-z
x,x-y,1/2-z
-x,-y,-z
y,-x+y,-z
x-y,x,-z
y,x,1/2+z
x-y,-y,1/2+z
-x,-x+y,1/2+z
loop_
_atom_site_type_symbol
_atom_site_label
_atom_site_fract_x
_atom_site_fract_y
_atom_site_fract_z
Si Si1 0.329003 0.164502 0.250000
Si Si2 0.068381 0.357367 0.394162
Si Si3 0.393457 0.018493 0.610769
O O1 0.255785 0.219594 0.171241
O O2 0.411050 0.301748 0.316346
O O3 0.049181 0.495079 0.378067
O O4 0.227847 0.392723 0.370444
O O5 0.031632 0.341982 0.508097
#
# Coordination Sequence:
#
# PCOD9578276 Si02
#       3
#     6  12  12
#     4  12  24  44  68 106 140 178 238 288 352 424
#     4  11  24  47  72 105 141 186 239 292 351 422
#     4  11  24  47  72 105 141 186 239 292 351 422
#
# _framework density 21.496590999999999
#
# number of rings (size 3 to 8) (size 9 to 14) (size 15 to 20)
#    0.000    0.800    4.000    3.200    0.000    0.000 
#   19.200    6.000    0.000    0.000    0.000    0.000 
#    0.000    0.000    0.000    0.000    0.000    0.000 
#
# Total GULP energy -167111.867580 kJ/mol
# GULP energy per Si atom -5570.395586 kJ/mol
# Density = 2.144766 g / cm^3
# Si number density = 21.496591 Si / 1000 Ang^3
#
#
#
# Elastic Constant Matrix: (Units=GPa)
#
#
# Indices 1 2 3 4 5 6 
#
# 1 23.0719 78.8884 54.8140 -0.0003 9.5499 0.0000
# 2 78.8884 23.0719 54.8140 0.0003 -9.5499 0.0000
# 3 54.8140 54.8140 132.6826 0.0000 0.0000 0.0000
# 4 -0.0003 0.0003 0.0000 37.2860 0.0000 -9.5499
# 5 9.5499 -9.5499 0.0000 0.0000 37.2860 -0.0003
# 6 0.0000 0.0000 0.0000 -9.5499 -0.0003 -27.9082
#
#
#
# Elastic Compliance Matrix: (Units=1/GPa)
#
#
# Indices 1 2 3 4 5 6 
#
# 1 0.000587 0.017059 -0.007290 0.000000 0.004219 0.000000
# 2 0.017059 0.000587 -0.007290 0.000000 -0.004219 0.000000
# 3 -0.007290 -0.007290 0.013560 0.000000 0.000000 0.000000
# 4 0.000000 0.000000 0.000000 0.024659 0.000000 -0.008438
# 5 0.004219 -0.004219 0.000000 0.000000 0.024659 0.000000
# 6 0.000000 0.000000 0.000000 -0.008438 0.000000 -0.032944
#
#
# Mechanical properties :
#
#
# Convention : Reuss Voigt Hill
#
# Bulk Modulus (GPa) = 50.78163 61.76211 56.27187
# Shear Modulus (GPa) = 152.85008 8.68676 80.76842
#
# Velocity S-wave (km/s) = 8.44149 2.01240 6.13630
# Velocity P-wave (km/s) = 10.89431 5.84749 8.74297
#
# Compressibility (1/GPa) = 0.01969216
#
# Stress axis : x y z
#
# Youngs Moduli (GPa) = 1704.13664 1704.13651 73.74651
#
# Poissons Ratio (x) = -29.07084 0.53760
# Poissons Ratio (y) = -29.07084 0.53760
# Poissons Ratio (z) = 12.42290 12.42290
#
# Static dielectric constant tensor:
#      x y z
#    x 1.738330 0.000000 0.000000 
#    y 0.000000 1.738330 0.000000 
#    z 0.000000 0.000000 1.906830 
# 
# From -- ./inp_files/1993.got.cif
#   From: 2010.05.17/outbox.cif.g08.bks.cpg/sg163_1_cif.got.tgz:1993.got - 2010.05.20 10:56:03.
