data_PCOD9578752
_publ_section_title
;
Structure prediction by ZEFSAII (Michael W. Deem and Ramdas Pophale) SiO2 
 PCOD9578752
Probable space group: P -3 M 1
;
_chemical_formula_sum "Si O2"
_cell_formula_units_Z 84
_cell_length_a 18.000000
_cell_length_b 18.000000
_cell_length_c 21.000000
_cell_angle_alpha 90.000000
_cell_angle_beta 90.000000
_cell_angle_gamma 120.000000
_cell_volume 5892.436847
_symmetry_space_group_name_H-M "P -3 M 1"
_symmetry_group_IT_number 164
_symmetry_cell_setting 'hexagonal'
loop_
_space_group_symop_operation_xyz
x,y,z
-y,x-y,z
-x+y,-x,z
x-y,-y,-z
-x,-x+y,-z
y,x,-z
-x,-y,-z
y,-x+y,-z
x-y,x,-z
-x+y,y,z
x,x-y,z
-y,-x,z
loop_
_atom_site_type_symbol
_atom_site_label
_atom_site_fract_x
_atom_site_fract_y
_atom_site_fract_z
Si Si1 0.902805 0.269055 0.648665
Si Si2 0.762934 0.699200 0.188953
Si Si3 0.666074 0.157011 0.387674
Si Si4 0.174758 0.175943 0.689987
Si Si5 0.601359 0.575188 0.269798
Si Si6 0.362788 0.095844 0.504590
Si Si7 0.176073 0.000149 0.924969
O O1 0.810811 0.189190 0.668557
O O2 0.967877 0.230196 0.649158
O O3 0.894919 0.293693 0.576345
O O4 0.940883 0.349470 0.695976
O O5 0.835403 0.670806 0.186627
O O6 0.797145 0.775089 0.242042
O O7 0.670965 0.622814 0.213319
O O8 0.766444 0.745389 0.122267
O O9 0.584338 0.168676 0.398567
O O10 0.752260 0.247740 0.378790
O O11 0.646334 0.098734 0.324819
O O12 0.681610 0.112229 0.448914
O O13 0.157259 0.078630 0.693825
O O14 0.089233 0.178466 0.669301
O O15 0.510209 0.489792 0.253876
O O16 0.336523 0.168262 0.497479
O O17 0.285399 0.000000 0.500000
O O18 0.078223 0.921778 0.915879
O O19 0.181847 0.090924 0.910484
O O20 0.196531 0.000000 0.000000
#
# Coordination Sequence:
#
# PCOD9578752 Si02
#       7
#    12  12  12  12  12  12  12
#     4   9  18  31  43  61  86 111 142 183 227 268
#     4   9  17  28  42  63  93 121 147 181 218 260
#     4  10  20  32  48  68  89 110 135 175 227 280
#     4   9  16  25  40  61  87 118 150 182 214 250
#     4  10  19  31  49  67  84 111 146 184 225 273
#     4  10  19  31  46  64  85 113 147 184 225 273
#     4   9  16  26  43  70 104 139 167 186 205 235
#
# _framework density 14.255561999999999
#
# number of rings (size 3 to 8) (size 9 to 14) (size 15 to 20)
#    0.000    2.571    1.429    1.286    0.000    3.143 
#    0.000    1.429    0.000    1.143    0.000    0.000 
#    0.000    0.000    0.000    0.286    0.000    0.000 
#
# Total GULP energy -467895.338606 kJ/mol
# GULP energy per Si atom -5570.182602 kJ/mol
# Density = 1.422312 g / cm^3
# Si number density = 14.255562 Si / 1000 Ang^3
#
#
#
# Elastic Constant Matrix: (Units=GPa)
#
#
# Indices 1 2 3 4 5 6 
#
# 1 88.7746 45.2259 40.7665 3.1905 0.0000 0.0000
# 2 45.2259 88.7746 40.7665 -3.1905 0.0000 0.0000
# 3 40.7665 40.7665 75.8972 0.0000 0.0000 0.0000
# 4 3.1905 -3.1905 0.0000 19.6945 0.0000 0.0000
# 5 0.0000 0.0000 0.0000 0.0000 19.6945 3.1905
# 6 0.0000 0.0000 0.0000 0.0000 3.1905 21.7743
#
#
#
# Elastic Compliance Matrix: (Units=1/GPa)
#
#
# Indices 1 2 3 4 5 6 
#
# 1 0.017303 -0.006218 -0.005954 -0.003810 0.000000 0.000000
# 2 -0.006218 0.017303 -0.005954 0.003810 0.000000 0.000000
# 3 -0.005954 -0.005954 0.019572 0.000000 0.000000 0.000000
# 4 -0.003810 0.003810 0.000000 0.052010 0.000000 0.000000
# 5 0.000000 0.000000 0.000000 0.000000 0.052010 -0.007621
# 6 0.000000 0.000000 0.000000 0.000000 -0.007621 0.047042
#
#
# Mechanical properties :
#
#
# Convention : Reuss Voigt Hill
#
# Bulk Modulus (GPa) = 55.78511 56.32934 56.05723
# Shear Modulus (GPa) = 20.20450 20.67852 20.44151
#
# Velocity S-wave (km/s) = 3.76880 3.81275 3.79084
# Velocity P-wave (km/s) = 7.62598 7.68001 7.65304
#
# Compressibility (1/GPa) = 0.01792593
#
# Stress axis : x y z
#
# Youngs Moduli (GPa) = 57.79221 57.79221 51.09271
#
# Poissons Ratio (x) = 0.35934 0.30423
# Poissons Ratio (y) = 0.35934 0.30423
# Poissons Ratio (z) = 0.34412 0.34412
#
# Static dielectric constant tensor:
#      x y z
#    x 1.468550 0.000000 0.000000 
#    y 0.000000 1.468550 0.000000 
#    z 0.000000 0.000000 1.482480 
# 
# From -- ./inp_files/4628.got.cif
#   From: 2010.05.17/outbox.ucp.g08.bks.cvg/sg164_3_cif.got.tgz:4628.got - 2010.06.11 15:16:10.
