data_PCOD9578982
_publ_section_title
;
Structure prediction by ZEFSAII (Michael W. Deem and Ramdas Pophale) SiO2 
 PCOD9578982
Probable space group: P -3 C 1
;
_chemical_formula_sum "Si O2"
_cell_formula_units_Z 60
_cell_length_a 14.185595
_cell_length_b 14.185595
_cell_length_c 14.702629
_cell_angle_alpha 90.000000
_cell_angle_beta 90.000000
_cell_angle_gamma 120.000000
_cell_volume 2562.245525
_symmetry_space_group_name_H-M "P -3 C 1"
_symmetry_group_IT_number 165
_symmetry_cell_setting 'hexagonal'
loop_
_space_group_symop_operation_xyz
x,y,z
-y,x-y,z
-x+y,-x,z
x-y,-y,1/2-z
-x,-x+y,1/2-z
y,x,1/2-z
-x,-y,-z
y,-x+y,-z
x-y,x,-z
-x+y,y,1/2+z
x,x-y,1/2+z
-y,-x,1/2+z
loop_
_atom_site_type_symbol
_atom_site_label
_atom_site_fract_x
_atom_site_fract_y
_atom_site_fract_z
Si Si1 0.607306 0.115585 0.129252
Si Si2 0.879568 0.755592 0.233047
Si Si3 0.867385 0.542675 0.323345
Si Si4 0.851313 0.772080 0.028771
Si Si5 0.183933 0.717579 0.986332
O O1 0.631264 0.161086 0.232337
O O2 0.710564 0.188239 0.064265
O O3 0.514010 0.128671 0.079946
O O4 0.575483 0.990308 0.144888
O O5 0.787232 0.787232 0.250000
O O6 0.865334 0.650587 0.287063
O O7 0.880844 0.742257 0.125040
O O8 0.000000 0.855402 0.250000
O O9 0.793090 0.488051 0.411320
O O10 0.755541 0.659258 0.994578
O O11 0.816990 0.862609 0.036860
#
# Coordination Sequence:
#
# PCOD9578982 Si02
#       5
#    12  12  12  12  12
#     4  11  25  47  72 105 148 195 249 320 380 441
#     4  12  22  41  67 105 149 201 244 308 374 452
#     4  11  24  48  72 100 157 190 243 322 375 442
#     4  12  25  44  73 111 157 205 258 312 386 466
#     4  12  24  45  74 105 141 201 257 312 384 460
#
# _framework density 23.41696
#
# number of rings (size 3 to 8) (size 9 to 14) (size 15 to 20)
#    0.000    0.400    4.000    6.200    0.000    1.600 
#    3.600    0.000    0.000    0.000    0.000    0.000 
#    0.000    0.000    0.000    0.000    0.000    0.000 
#
# Total GULP energy -335498.521655 kJ/mol
# GULP energy per Si atom -5591.642028 kJ/mol
# Density = 2.336366 g / cm^3
# Si number density = 23.416960 Si / 1000 Ang^3
#
#
#
# Elastic Constant Matrix: (Units=GPa)
#
#
# Indices 1 2 3 4 5 6 
#
# 1 90.6777 57.9688 34.2356 -20.2239 0.0000 0.0000
# 2 57.9688 90.6777 34.2356 20.2239 0.0000 0.0000
# 3 34.2356 34.2356 198.9420 0.0000 0.0000 0.0000
# 4 -20.2239 20.2239 0.0000 15.5148 0.0000 0.0000
# 5 0.0000 0.0000 0.0000 0.0000 15.5148 -20.2239
# 6 0.0000 0.0000 0.0000 0.0000 -20.2239 16.3544
#
#
#
# Elastic Compliance Matrix: (Units=1/GPa)
#
#
# Indices 1 2 3 4 5 6 
#
# 1 -0.021327 0.028634 -0.001257 -0.065125 0.000000 0.000000
# 2 0.028634 -0.021327 -0.001257 0.065125 0.000000 0.000000
# 3 -0.001257 -0.001257 0.005459 0.000000 0.000000 0.000000
# 4 -0.065125 0.065125 0.000000 -0.105329 0.000000 0.000000
# 5 0.000000 0.000000 0.000000 0.000000 -0.105329 -0.130250
# 6 0.000000 0.000000 0.000000 0.000000 -0.130250 -0.099921
#
#
# Mechanical properties :
#
#
# Convention : Reuss Voigt Hill
#
# Bulk Modulus (GPa) = 66.47623 70.35303 68.41463
# Shear Modulus (GPa) = -12.65830 26.40062 6.87116
#
# Velocity S-wave (km/s) = -2.32752 3.36134 1.71483
# Velocity P-wave (km/s) = 4.60723 6.72114 5.76195
#
# Compressibility (1/GPa) = 0.01504297
#
# Stress axis : x y z
#
# Youngs Moduli (GPa) = -46.88886 -46.88886 183.17202
#
# Poissons Ratio (x) = 1.34260 0.23032
# Poissons Ratio (y) = 1.34260 0.23032
# Poissons Ratio (z) = -0.05896 -0.05896
#
# Static dielectric constant tensor:
#      x y z
#    x 1.909700 0.000000 0.000000 
#    y 0.000000 1.909700 0.000000 
#    z 0.000000 0.000000 1.989240 
# 
# From -- ./inp_files/1674.got.cif
#   From: 2010.05.17/outbox.cif.g08.bks.cpg/sg165_1_cif.got.tgz:1674.got - 2010.05.20 11:02:39.
