data_PCOD9578662
_publ_section_title
;
Structure prediction by ZEFSAII (Michael W. Deem and Ramdas Pophale) SiO2 
 PCOD9578662
Probable space group: P -3 M 1
;
_chemical_formula_sum "Si O2"
_cell_formula_units_Z 60
_cell_length_a 12.661352
_cell_length_b 12.661352
_cell_length_c 26.105738
_cell_angle_alpha 90.000000
_cell_angle_beta 90.000000
_cell_angle_gamma 120.000000
_cell_volume 3624.321976
_symmetry_space_group_name_H-M "P -3 M 1"
_symmetry_group_IT_number 164
_symmetry_cell_setting 'hexagonal'
loop_
_space_group_symop_operation_xyz
x,y,z
-y,x-y,z
-x+y,-x,z
x-y,-y,-z
-x,-x+y,-z
y,x,-z
-x,-y,-z
y,-x+y,-z
x-y,x,-z
-x+y,y,z
x,x-y,z
-y,-x,z
loop_
_atom_site_type_symbol
_atom_site_label
_atom_site_fract_x
_atom_site_fract_y
_atom_site_fract_z
Si Si1 0.584482 0.917449 0.749594
Si Si2 0.749260 0.000396 0.349655
Si Si3 0.999903 0.748791 0.849647
Si Si4 0.415642 0.333517 0.449770
Si Si5 0.082216 0.415469 0.050072
O O1 0.461767 0.923534 0.749398
O O2 0.554838 0.777419 0.747915
O O3 0.667024 0.982638 0.700068
O O4 0.662974 0.976406 0.800697
O O5 0.889368 0.110633 0.348002
O O6 0.690125 0.020581 0.400557
O O7 0.742998 0.871499 0.349817
O O8 0.118239 0.881762 0.855753
O O9 0.879705 0.759409 0.841606
O O10 0.978496 0.668554 0.900318
O O11 0.356780 0.356780 0.500000
O O12 0.428677 0.214339 0.456521
O O13 0.547199 0.452802 0.441706
O O14 0.214576 0.429151 0.043149
O O15 0.093182 0.546591 0.057370
O O16 0.000000 0.354945 0.000000
#
# Coordination Sequence:
#
# PCOD9578662 Si02
#       5
#    12  12  12  12  12
#     4  10  20  34  53  76 102 132 166 205 248 295
#     4  10  20  34  53  76 102 132 167 208 253 299
#     4  10  20  34  53  76 102 132 166 205 249 297
#     4  10  20  34  53  76 103 135 170 208 250 297
#     4  10  20  34  52  74 101 133 169 208 251 298
#
# _framework density 16.554821
#
# number of rings (size 3 to 8) (size 9 to 14) (size 15 to 20)
#    0.000    2.000    0.000    4.000    0.000    0.000 
#    0.000    4.000    0.000   22.400    0.000    0.000 
#    0.000    0.000    0.000    0.000    0.000    0.000 
#
# Total GULP energy -335025.200852 kJ/mol
# GULP energy per Si atom -5583.753348 kJ/mol
# Density = 1.651714 g / cm^3
# Si number density = 16.554821 Si / 1000 Ang^3
#
#
#
# Elastic Constant Matrix: (Units=GPa)
#
#
# Indices 1 2 3 4 5 6 
#
# 1 151.0109 110.5751 106.5744 -4.3455 0.0000 0.0000
# 2 110.5751 151.0109 106.5744 4.3455 0.0000 0.0000
# 3 106.5744 106.5744 156.3188 0.0000 0.0000 0.0000
# 4 -4.3455 4.3455 0.0000 23.9388 0.0000 0.0000
# 5 0.0000 0.0000 0.0000 0.0000 23.9388 -4.3455
# 6 0.0000 0.0000 0.0000 0.0000 -4.3455 20.2179
#
#
#
# Elastic Compliance Matrix: (Units=1/GPa)
#
#
# Indices 1 2 3 4 5 6 
#
# 1 0.017168 -0.008567 -0.005864 0.004672 0.000000 0.000000
# 2 -0.008567 0.017168 -0.005864 -0.004672 0.000000 0.000000
# 3 -0.005864 -0.005864 0.014393 0.000000 0.000000 0.000000
# 4 0.004672 -0.004672 0.000000 0.043469 0.000000 0.000000
# 5 0.000000 0.000000 0.000000 0.000000 0.043469 0.009343
# 6 0.000000 0.000000 0.000000 0.000000 0.009343 0.051469
#
#
# Mechanical properties :
#
#
# Convention : Reuss Voigt Hill
#
# Bulk Modulus (GPa) = 122.86282 122.86538 122.86410
# Shear Modulus (GPa) = 21.69776 22.59355 22.14565
#
# Velocity S-wave (km/s) = 3.62423 3.69829 3.66145
# Velocity P-wave (km/s) = 9.58594 9.62366 9.60482
#
# Compressibility (1/GPa) = 0.00813916
#
# Stress axis : x y z
#
# Youngs Moduli (GPa) = 58.24867 58.24867 69.47848
#
# Poissons Ratio (x) = 0.49901 0.40742
# Poissons Ratio (y) = 0.49901 0.40742
# Poissons Ratio (z) = 0.34157 0.34157
#
# Static dielectric constant tensor:
#      x y z
#    x 1.523640 0.000000 0.000000 
#    y 0.000000 1.523640 0.000000 
#    z 0.000000 0.000000 1.536570 
# 
# From -- ./inp_files/5157.got.cif
#   From: 2010.05.17/outbox.cif.g08.bks.cpg/sg164_3_cif.got.tgz:5157.got - 2010.05.20 10:58:56.
