data_PCOD9578471
_publ_section_title
;
Structure prediction by ZEFSAII (Michael W. Deem and Ramdas Pophale) SiO2 
 PCOD9578471
Probable space group: P -3 M 1
;
_chemical_formula_sum "Si O2"
_cell_formula_units_Z 96
_cell_length_a 24.428676
_cell_length_b 24.428676
_cell_length_c 10.877433
_cell_angle_alpha 90.000000
_cell_angle_beta 90.000000
_cell_angle_gamma 120.000000
_cell_volume 5621.560740
_symmetry_space_group_name_H-M "P -3 M 1"
_symmetry_group_IT_number 164
_symmetry_cell_setting 'hexagonal'
loop_
_space_group_symop_operation_xyz
x,y,z
-y,x-y,z
-x+y,-x,z
x-y,-y,-z
-x,-x+y,-z
y,x,-z
-x,-y,-z
y,-x+y,-z
x-y,x,-z
-x+y,y,z
x,x-y,z
-y,-x,z
loop_
_atom_site_type_symbol
_atom_site_label
_atom_site_fract_x
_atom_site_fract_y
_atom_site_fract_z
Si Si1 0.065073 0.595990 0.831401
Si Si2 0.274730 0.424660 0.686565
Si Si3 0.654471 0.722150 0.470730
Si Si4 0.131520 0.131254 0.140988
Si Si5 0.039437 0.830405 0.382036
Si Si6 0.544848 0.333065 0.493969
Si Si7 0.546948 0.836957 0.289159
Si Si8 0.921278 0.522739 0.874798
O O1 0.079558 0.539779 0.790506
O O2 0.106768 0.665779 0.774451
O O3 0.989948 0.567968 0.814137
O O4 0.073239 0.600407 0.978537
O O5 0.209472 0.418944 0.737685
O O6 0.257586 0.364552 0.598549
O O7 0.304519 0.484925 0.595455
O O8 0.661372 0.661372 0.500000
O O9 0.720892 0.773251 0.411040
O O10 0.601072 0.711191 0.374183
O O11 0.060832 0.121664 0.149471
O O12 0.171906 0.178415 0.251649
O O13 0.129172 0.064586 0.156950
O O14 0.153677 0.153677 0.000000
O O15 0.106154 0.893846 0.379201
O O16 0.000000 0.831451 0.500000
O O17 0.573292 0.286646 0.483576
O O18 0.596167 0.403834 0.464593
O O19 0.516753 0.325379 0.630138
O O20 0.560988 0.780494 0.266725
O O21 0.539835 0.870078 0.170343
O O22 0.903657 0.451829 0.840087
#
# Coordination Sequence:
#
# PCOD9578471 Si02
#       8
#    12  12  12  12  12  12  12  12
#     4   9  18  33  53  75 100 132 171 215 260 308
#     4  10  19  31  49  74 102 129 165 207 257 314
#     4  10  20  34  52  70  95 131 170 213 255 301
#     4   9  17  30  50  75 102 130 162 204 255 310
#     4  10  19  31  49  70  95 130 167 206 254 306
#     4   9  17  28  44  68  97 129 157 189 231 287
#     4  10  19  31  49  73 100 129 165 207 257 310
#     4   9  18  33  53  75  99 131 172 216 258 307
#
# _framework density 17.077107999999999
#
# number of rings (size 3 to 8) (size 9 to 14) (size 15 to 20)
#    0.000    2.500    0.000    4.750    0.000    1.000 
#    0.000    0.000    8.250    8.500    0.000    0.000 
#    0.000    0.000    0.000    0.000    0.000    0.000 
#
# Total GULP energy -534431.857556 kJ/mol
# GULP energy per Si atom -5566.998516 kJ/mol
# Density = 1.703824 g / cm^3
# Si number density = 17.077108 Si / 1000 Ang^3
#
#
#
# Elastic Constant Matrix: (Units=GPa)
#
#
# Indices 1 2 3 4 5 6 
#
# 1 75.2209 46.4707 36.8657 -0.5832 0.0000 0.0000
# 2 46.4707 75.2209 36.8657 0.5832 0.0000 0.0000
# 3 36.8657 36.8657 74.2443 0.0000 0.0000 0.0000
# 4 -0.5832 0.5832 0.0000 25.7789 0.0000 0.0000
# 5 0.0000 0.0000 0.0000 0.0000 25.7789 -0.5832
# 6 0.0000 0.0000 0.0000 0.0000 -0.5832 14.3751
#
#
#
# Elastic Compliance Matrix: (Units=1/GPa)
#
#
# Indices 1 2 3 4 5 6 
#
# 1 0.023284 -0.011530 -0.005836 0.000788 0.000000 0.000000
# 2 -0.011530 0.023284 -0.005836 -0.000788 0.000000 0.000000
# 3 -0.005836 -0.005836 0.019265 0.000000 0.000000 0.000000
# 4 0.000788 -0.000788 0.000000 0.038827 0.000000 0.000000
# 5 0.000000 0.000000 0.000000 0.000000 0.038827 0.001575
# 6 0.000000 0.000000 0.000000 0.000000 0.001575 0.069629
#
#
# Mechanical properties :
#
#
# Convention : Reuss Voigt Hill
#
# Bulk Modulus (GPa) = 51.47391 51.67667 51.57529
# Shear Modulus (GPa) = 18.79724 20.15220 19.47472
#
# Velocity S-wave (km/s) = 3.32132 3.43894 3.38064
# Velocity P-wave (km/s) = 6.70192 6.78932 6.74576
#
# Compressibility (1/GPa) = 0.01942732
#
# Stress axis : x y z
#
# Youngs Moduli (GPa) = 42.94808 42.94808 51.90789
#
# Poissons Ratio (x) = 0.49521 0.30294
# Poissons Ratio (y) = 0.49521 0.30294
# Poissons Ratio (z) = 0.25065 0.25065
#
# Static dielectric constant tensor:
#      x y z
#    x 1.593130 0.000000 0.000000 
#    y 0.000000 1.593130 0.000000 
#    z 0.000000 0.000000 1.580710 
# 
# From -- ./inp_files/3159.got.cif
#   From: 2010.05.17/outbox.cif.g08.bks.cpg/sg164_2_cif.got.tgz:3159.got - 2010.05.20 10:58:56.
