data_PCOD9578640
_publ_section_title
;
Structure prediction by ZEFSAII (Michael W. Deem and Ramdas Pophale) SiO2 
 PCOD9578640
Probable space group: P -3 M 1
;
_chemical_formula_sum "Si O2"
_cell_formula_units_Z 48
_cell_length_a 17.785273
_cell_length_b 17.785273
_cell_length_c 10.506450
_cell_angle_alpha 90.000000
_cell_angle_beta 90.000000
_cell_angle_gamma 120.000000
_cell_volume 2878.112075
_symmetry_space_group_name_H-M "P -3 M 1"
_symmetry_group_IT_number 164
_symmetry_cell_setting 'hexagonal'
loop_
_space_group_symop_operation_xyz
x,y,z
-y,x-y,z
-x+y,-x,z
x-y,-y,-z
-x,-x+y,-z
y,x,-z
-x,-y,-z
y,-x+y,-z
x-y,x,-z
-x+y,y,z
x,x-y,z
-y,-x,z
loop_
_atom_site_type_symbol
_atom_site_label
_atom_site_fract_x
_atom_site_fract_y
_atom_site_fract_z
Si Si1 0.729180 0.628327 0.248366
Si Si2 0.488835 0.332714 0.000005
Si Si3 0.532507 0.637273 0.500002
Si Si4 0.899144 0.628317 0.751639
O O1 0.831427 0.662853 0.237375
O O2 0.693592 0.567173 0.372696
O O3 0.700870 0.700873 0.259073
O O4 0.683505 0.569545 0.124833
O O5 0.514332 0.257166 0.999998
O O6 0.573075 0.426926 0.000017
O O7 0.430465 0.316511 0.875169
O O8 0.579357 0.579357 0.500000
O O9 0.429861 0.570140 0.500008
O O10 0.567166 0.693587 0.372694
O O11 0.831418 0.662836 0.762640
#
# Coordination Sequence:
#
# PCOD9578640 Si02
#       4
#    12  12  12  12
#     4  10  20  33  50  72  97 127 163 202 242 283
#     4  10  20  33  50  73 100 128 157 192 236 285
#     4   9  17  30  49  72  96 122 154 191 231 280
#     4  10  20  33  50  72  97 127 163 202 242 283
#
# _framework density 16.677599000000001
#
# number of rings (size 3 to 8) (size 9 to 14) (size 15 to 20)
#    0.000    2.250    0.000    3.250    0.000    4.000 
#    0.000    0.000    0.000    7.500    0.000    0.000 
#    0.000   12.000    0.000    0.000    0.000    2.000 
#
# Total GULP energy -267734.200054 kJ/mol
# GULP energy per Si atom -5577.795834 kJ/mol
# Density = 1.663964 g / cm^3
# Si number density = 16.677599 Si / 1000 Ang^3
#
#
#
# Elastic Constant Matrix: (Units=GPa)
#
#
# Indices 1 2 3 4 5 6 
#
# 1 96.9200 74.1066 37.0338 0.0002 0.0000 0.0000
# 2 74.1066 96.9200 37.0338 -0.0002 0.0000 0.0000
# 3 37.0338 37.0338 145.8212 0.0000 0.0000 0.0000
# 4 0.0002 -0.0002 0.0000 15.3138 0.0000 0.0000
# 5 0.0000 0.0000 0.0000 0.0000 15.3138 0.0002
# 6 0.0000 0.0000 0.0000 0.0000 0.0002 11.4067
#
#
#
# Elastic Compliance Matrix: (Units=1/GPa)
#
#
# Indices 1 2 3 4 5 6 
#
# 1 0.025202 -0.018632 -0.001668 -0.000001 0.000000 0.000000
# 2 -0.018632 0.025202 -0.001668 0.000001 0.000000 0.000000
# 3 -0.001668 -0.001668 0.007705 0.000000 0.000000 0.000000
# 4 -0.000001 0.000001 0.000000 0.065301 0.000000 0.000000
# 5 0.000000 0.000000 0.000000 0.000000 0.065301 -0.000001
# 6 0.000000 0.000000 0.000000 0.000000 -0.000001 0.087668
#
#
# Mechanical properties :
#
#
# Convention : Reuss Voigt Hill
#
# Bulk Modulus (GPa) = 70.56888 70.66773 70.61830
# Shear Modulus (GPa) = 15.38274 21.17265 18.27769
#
# Velocity S-wave (km/s) = 3.04033 3.56691 3.31409
# Velocity P-wave (km/s) = 7.39799 7.70899 7.55509
#
# Compressibility (1/GPa) = 0.01417055
#
# Stress axis : x y z
#
# Youngs Moduli (GPa) = 39.67973 39.67973 129.78276
#
# Poissons Ratio (x) = 0.73932 0.21654
# Poissons Ratio (y) = 0.73932 0.21654
# Poissons Ratio (z) = 0.06620 0.06620
#
# Static dielectric constant tensor:
#      x y z
#    x 1.553710 0.000000 0.000000 
#    y 0.000000 1.553710 0.000000 
#    z 0.000000 0.000000 1.562830 
# 
# From -- ./inp_files/1220.got.cif
#   From: 2010.05.17/outbox.cif.g08.bks.cpg/sg164_1_cif.got.tgz:1220.got - 2010.05.20 10:58:56.
