data_PCOD9578190
_publ_section_title
;
Structure prediction by ZEFSAII (Michael W. Deem and Ramdas Pophale) SiO2 
 PCOD9578190
Probable space group: P -3 1 C
;
_chemical_formula_sum "Si O2"
_cell_formula_units_Z 54
_cell_length_a 11.967737
_cell_length_b 11.967737
_cell_length_c 23.920545
_cell_angle_alpha 90.000000
_cell_angle_beta 90.000000
_cell_angle_gamma 120.000000
_cell_volume 2967.056219
_symmetry_space_group_name_H-M "P -3 1 C"
_symmetry_group_IT_number 163
_symmetry_cell_setting 'hexagonal'
loop_
_space_group_symop_operation_xyz
x,y,z
-y,x-y,z
-x+y,-x,z
-y,-x,1/2-z
-x+y,y,1/2-z
x,x-y,1/2-z
-x,-y,-z
y,-x+y,-z
x-y,x,-z
y,x,1/2+z
x-y,-y,1/2+z
-x,-x+y,1/2+z
loop_
_atom_site_type_symbol
_atom_site_label
_atom_site_fract_x
_atom_site_fract_y
_atom_site_fract_z
Si Si1 0.270600 0.027203 0.060063
Si Si2 0.120377 0.734125 0.064235
Si Si3 0.333333 0.666667 0.461279
Si Si4 0.139999 0.410555 0.867995
Si Si5 0.752965 0.505930 0.250000
Si Si6 0.000000 0.000000 0.433855
Si Si7 0.666668 0.333334 0.094367
O O1 0.377110 0.148379 0.092845
O O2 0.231022 0.881979 0.074716
O O3 0.310866 0.053254 0.994351
O O4 0.141798 0.029568 0.079293
O O5 0.199694 0.659269 0.056979
O O6 0.007113 0.673023 0.110429
O O7 0.333334 0.666667 0.528276
O O8 0.178705 0.406949 0.804090
O O9 0.195709 0.560528 0.881544
O O10 0.597813 0.402188 0.250000
O O11 0.000000 0.000000 0.500000
#
# Coordination Sequence:
#
# PCOD9578190 Si02
#       7
#    12  12   4  12   6   4   4
#     4  12  20  36  62  93 130 174 207 258 321 388
#     4  12  24  37  59  92 136 174 205 253 324 397
#     4  12  27  36  52 100 148 172 198 247 332 406
#     4  12  23  39  67  93 121 164 220 271 313 364
#     4  10  22  44  66  90 114 158 226 274 298 358
#     4  12  15  33  57  91 125 169 210 234 316 377
#     4  12  21  37  64  93 123 163 211 268 311 361
#
# _framework density 18.199859
#
# number of rings (size 3 to 8) (size 9 to 14) (size 15 to 20)
#    0.222    0.000   11.111    0.000    3.111    1.778 
#    0.000    1.111    0.000    0.000    0.000    0.000 
#    0.000    0.000    0.000    0.000    0.000    0.000 
#
# Total GULP energy -300700.596304 kJ/mol
# GULP energy per Si atom -5568.529561 kJ/mol
# Density = 1.815843 g / cm^3
# Si number density = 18.199859 Si / 1000 Ang^3
#
#
#
# Elastic Constant Matrix: (Units=GPa)
#
#
# Indices 1 2 3 4 5 6 
#
# 1 83.4293 26.7914 25.0886 -0.0001 1.9291 -0.0001
# 2 26.7914 83.4297 25.0886 0.0001 -1.9291 0.0004
# 3 25.0886 25.0886 114.3362 -0.0001 0.0000 0.0000
# 4 -0.0001 0.0001 -0.0001 20.0526 0.0001 -1.9290
# 5 1.9291 -1.9291 0.0000 0.0001 20.0525 0.0001
# 6 -0.0001 0.0004 0.0000 -1.9290 0.0001 28.3193
#
#
#
# Elastic Compliance Matrix: (Units=1/GPa)
#
#
# Indices 1 2 3 4 5 6 
#
# 1 0.013926 -0.003846 -0.002212 0.000000 -0.001710 0.000000
# 2 -0.003846 0.013926 -0.002212 0.000000 0.001710 0.000000
# 3 -0.002212 -0.002212 0.009717 0.000000 0.000000 0.000000
# 4 0.000000 0.000000 0.000000 0.050198 0.000000 0.003419
# 5 -0.001710 0.001710 0.000000 0.000000 0.050198 0.000000
# 6 0.000000 0.000000 0.000000 0.003419 0.000000 0.035545
#
#
# Mechanical properties :
#
#
# Convention : Reuss Voigt Hill
#
# Bulk Modulus (GPa) = 47.55353 48.34806 47.95079
# Shear Modulus (GPa) = 25.37313 27.29997 26.33655
#
# Velocity S-wave (km/s) = 3.73787 3.87720 3.80817
# Velocity P-wave (km/s) = 6.69433 6.83127 6.76315
#
# Compressibility (1/GPa) = 0.02102893
#
# Stress axis : x y z
#
# Youngs Moduli (GPa) = 71.80796 71.80830 102.91483
#
# Poissons Ratio (x) = 0.27621 0.22762
# Poissons Ratio (y) = 0.27620 0.22762
# Poissons Ratio (z) = 0.15882 0.15882
#
# Static dielectric constant tensor:
#      x y z
#    x 1.624850 0.000000 0.000000 
#    y 0.000000 1.624840 0.000000 
#    z 0.000000 0.000000 1.637010 
# 
# From -- ./inp_files/3872.got.cif
#   From: 2010.05.17/outbox.cif.g08.bks.cpg/sg163_2_cif.got.tgz:3872.got - 2010.05.20 10:56:03.
