data_PCOD9578366
_publ_section_title
;
Structure prediction by ZEFSAII (Michael W. Deem and Ramdas Pophale) SiO2 
 PCOD9578366
Probable space group: P -3 M 1
;
_chemical_formula_sum "Si O2"
_cell_formula_units_Z 60
_cell_length_a 17.976885
_cell_length_b 17.976885
_cell_length_c 15.298219
_cell_angle_alpha 90.000000
_cell_angle_beta 90.000000
_cell_angle_gamma 120.000000
_cell_volume 4281.543747
_symmetry_space_group_name_H-M "P -3 M 1"
_symmetry_group_IT_number 164
_symmetry_cell_setting 'hexagonal'
loop_
_space_group_symop_operation_xyz
x,y,z
-y,x-y,z
-x+y,-x,z
x-y,-y,-z
-x,-x+y,-z
y,x,-z
-x,-y,-z
y,-x+y,-z
x-y,x,-z
-x+y,y,z
x,x-y,z
-y,-x,z
loop_
_atom_site_type_symbol
_atom_site_label
_atom_site_fract_x
_atom_site_fract_y
_atom_site_fract_z
Si Si1 0.174572 0.999906 0.101845
Si Si2 0.366835 0.469780 0.490313
Si Si3 0.494053 0.333205 0.309344
Si Si4 0.240443 0.304521 0.743463
Si Si5 0.299002 0.064298 0.582100
O O1 0.150377 0.075189 0.110861
O O2 0.253730 0.025363 0.166721
O O3 0.092015 0.907986 0.122954
O O4 0.197466 0.000000 0.000000
O O5 0.423856 0.423856 0.500000
O O6 0.432907 0.567094 0.460134
O O7 0.333758 0.474273 0.586986
O O8 0.289968 0.402639 0.430100
O O9 0.516777 0.258389 0.294416
O O10 0.573774 0.426227 0.288369
O O11 0.406433 0.307030 0.257902
O O12 0.147994 0.295988 0.721889
O O13 0.269299 0.262554 0.668289
O O14 0.271214 0.135607 0.582216
O O15 0.259058 0.000000 0.500000
#
# Coordination Sequence:
#
# PCOD9578366 Si02
#       5
#    12  12  12  12  12
#     4   9  17  30  48  68  88 111 142 182 223 258
#     4   9  16  26  41  59  80 109 146 182 210 242
#     4  10  18  29  44  64  87 113 145 181 219 255
#     4  10  19  30  44  63  87 115 146 177 213 257
#     4  11  19  28  42  60  85 117 147 174 205 249
#
# _framework density 14.013636
#
# number of rings (size 3 to 8) (size 9 to 14) (size 15 to 20)
#    0.000    2.200    4.000    2.200    0.000    0.800 
#    0.000    0.000    0.000    5.800    0.000    0.000 
#    0.000    0.000    0.000    0.000    0.000    1.000 
#
# Total GULP energy -334074.544643 kJ/mol
# GULP energy per Si atom -5567.909077 kJ/mol
# Density = 1.398174 g / cm^3
# Si number density = 14.013636 Si / 1000 Ang^3
#
#
#
# Elastic Constant Matrix: (Units=GPa)
#
#
# Indices 1 2 3 4 5 6 
#
# 1 92.9530 54.4626 47.9299 2.1408 0.0000 0.0000
# 2 54.4626 92.9530 47.9299 -2.1408 0.0000 0.0000
# 3 47.9299 47.9299 70.0593 0.0000 0.0000 0.0000
# 4 2.1408 -2.1408 0.0000 18.6250 0.0000 0.0000
# 5 0.0000 0.0000 0.0000 0.0000 18.6250 2.1408
# 6 0.0000 0.0000 0.0000 0.0000 2.1408 19.2452
#
#
#
# Elastic Compliance Matrix: (Units=1/GPa)
#
#
# Indices 1 2 3 4 5 6 
#
# 1 0.019268 -0.007049 -0.008360 -0.003025 0.000000 0.000000
# 2 -0.007049 0.019268 -0.008360 0.003025 0.000000 0.000000
# 3 -0.008360 -0.008360 0.025712 0.000000 0.000000 0.000000
# 4 -0.003025 0.003025 0.000000 0.054387 0.000000 0.000000
# 5 0.000000 0.000000 0.000000 0.000000 0.054387 -0.006050
# 6 0.000000 0.000000 0.000000 0.000000 -0.006050 0.052634
#
#
# Mechanical properties :
#
#
# Convention : Reuss Voigt Hill
#
# Bulk Modulus (GPa) = 59.83727 61.84558 60.84142
# Shear Modulus (GPa) = 17.93629 18.34187 18.13908
#
# Velocity S-wave (km/s) = 3.58147 3.62174 3.60166
# Velocity P-wave (km/s) = 7.73916 7.85605 7.79783
#
# Compressibility (1/GPa) = 0.01671199
#
# Stress axis : x y z
#
# Youngs Moduli (GPa) = 51.89845 51.89845 38.89191
#
# Poissons Ratio (x) = 0.36581 0.32513
# Poissons Ratio (y) = 0.36581 0.32513
# Poissons Ratio (z) = 0.43387 0.43387
#
# Static dielectric constant tensor:
#      x y z
#    x 1.478420 0.000000 0.000000 
#    y 0.000000 1.478420 0.000000 
#    z 0.000000 0.000000 1.436380 
# 
# From -- ./inp_files/2693.got.cif
#   From: 2010.05.17/outbox.cif.g08.bks.cpg/sg164_2_cif.got.tgz:2693.got - 2010.05.20 10:58:56.
