data_PCOD9578102
_publ_section_title
;
Structure prediction by ZEFSAII (Michael W. Deem and Ramdas Pophale) SiO2 
 PCOD9578102
Probable space group: P -3 1 C
;
_chemical_formula_sum "Si O2"
_cell_formula_units_Z 42
_cell_length_a 11.633076
_cell_length_b 11.633076
_cell_length_c 16.214364
_cell_angle_alpha 90.000000
_cell_angle_beta 90.000000
_cell_angle_gamma 120.000000
_cell_volume 1900.289116
_symmetry_space_group_name_H-M "P -3 1 C"
_symmetry_group_IT_number 163
_symmetry_cell_setting 'hexagonal'
loop_
_space_group_symop_operation_xyz
x,y,z
-y,x-y,z
-x+y,-x,z
-y,-x,1/2-z
-x+y,y,1/2-z
x,x-y,1/2-z
-x,-y,-z
y,-x+y,-z
x-y,x,-z
y,x,1/2+z
x-y,-y,1/2+z
-x,-x+y,1/2+z
loop_
_atom_site_type_symbol
_atom_site_label
_atom_site_fract_x
_atom_site_fract_y
_atom_site_fract_z
Si Si1 0.139390 0.159612 0.874769
Si Si2 0.535794 0.914962 0.598213
Si Si3 0.718954 0.119028 0.484391
Si Si4 0.634491 0.817246 0.750000
O O1 0.205142 0.248076 0.954222
O O2 0.210017 0.263016 0.801776
O O3 0.130476 0.018245 0.870616
O O4 0.398159 0.909093 0.580873
O O5 0.546489 0.820660 0.527980
O O6 0.555129 0.856939 0.684389
O O7 0.651492 0.061510 0.572134
#
# Coordination Sequence:
#
# PCOD9578102 Si02
#       4
#    12  12  12   6
#     4   9  20  36  58  94 133 171 209 279 341 407
#     4  10  23  39  62  95 126 179 223 280 337 410
#     4  10  22  40  62  93 132 176 227 275 341 406
#     4  10  20  38  60  92 128 170 216 278 336 398
#
# _framework density 22.101901999999999
#
# number of rings (size 3 to 8) (size 9 to 14) (size 15 to 20)
#    0.571    1.714    0.000    1.429    8.000    4.571 
#    0.000    5.714    0.000    0.000    0.000    0.000 
#    0.000    0.000    0.000    0.000    0.000    0.000 
#
# Total GULP energy -234084.277236 kJ/mol
# GULP energy per Si atom -5573.435172 kJ/mol
# Density = 2.205160 g / cm^3
# Si number density = 22.101902 Si / 1000 Ang^3
#
#
#
# Elastic Constant Matrix: (Units=GPa)
#
#
# Indices 1 2 3 4 5 6 
#
# 1 101.6989 25.9809 36.6464 0.0000 8.2508 0.0000
# 2 25.9809 101.6989 36.6464 0.0000 -8.2508 0.0000
# 3 36.6464 36.6464 100.5020 0.0000 0.0000 0.0000
# 4 0.0000 0.0000 0.0000 40.3414 0.0000 -8.2508
# 5 8.2508 -8.2508 0.0000 0.0000 40.3414 0.0000
# 6 0.0000 0.0000 0.0000 -8.2508 0.0000 37.8590
#
#
#
# Elastic Compliance Matrix: (Units=1/GPa)
#
#
# Indices 1 2 3 4 5 6 
#
# 1 0.011864 -0.001959 -0.003612 0.000000 -0.002827 0.000000
# 2 -0.001959 0.011864 -0.003612 0.000000 0.002827 0.000000
# 3 -0.003612 -0.003612 0.012584 0.000000 0.000000 0.000000
# 4 0.000000 0.000000 0.000000 0.025945 0.000000 0.005654
# 5 -0.002827 0.002827 0.000000 0.000000 0.025945 0.000000
# 6 0.000000 0.000000 0.000000 0.005654 0.000000 0.027646
#
#
# Mechanical properties :
#
#
# Convention : Reuss Voigt Hill
#
# Bulk Modulus (GPa) = 55.71805 55.82746 55.77276
# Shear Modulus (GPa) = 35.66439 37.35009 36.50724
#
# Velocity S-wave (km/s) = 4.02136 4.11530 4.06861
# Velocity P-wave (km/s) = 6.84297 6.92062 6.88190
#
# Compressibility (1/GPa) = 0.01794751
#
# Stress axis : x y z
#
# Youngs Moduli (GPa) = 84.28695 84.28695 79.46559
#
# Poissons Ratio (x) = 0.16510 0.28702
# Poissons Ratio (y) = 0.16510 0.28702
# Poissons Ratio (z) = 0.30443 0.30443
#
# Static dielectric constant tensor:
#      x y z
#    x 1.844970 0.000000 0.000000 
#    y 0.000000 1.844970 0.000000 
#    z 0.000000 0.000000 1.902700 
# 
# From -- ./inp_files/2928.got.cif
#   From: 2010.05.17/outbox.cif.g08.bks.cpg/sg163_2_cif.got.tgz:2928.got - 2010.05.20 10:56:03.
