data_PCOD9578300
_publ_section_title
;
Structure prediction by ZEFSAII (Michael W. Deem and Ramdas Pophale) SiO2 
 PCOD9578300
Probable space group: P -3 1 C
;
_chemical_formula_sum "Si O2"
_cell_formula_units_Z 52
_cell_length_a 12.000000
_cell_length_b 12.000000
_cell_length_c 21.000000
_cell_angle_alpha 90.000000
_cell_angle_beta 90.000000
_cell_angle_gamma 120.000000
_cell_volume 2618.860821
_symmetry_space_group_name_H-M "P -3 1 C"
_symmetry_group_IT_number 163
_symmetry_cell_setting 'hexagonal'
loop_
_space_group_symop_operation_xyz
x,y,z
-y,x-y,z
-x+y,-x,z
-y,-x,1/2-z
-x+y,y,1/2-z
x,x-y,1/2-z
-x,-y,-z
y,-x+y,-z
x-y,x,-z
y,x,1/2+z
x-y,-y,1/2+z
-x,-x+y,1/2+z
loop_
_atom_site_type_symbol
_atom_site_label
_atom_site_fract_x
_atom_site_fract_y
_atom_site_fract_z
Si Si1 0.693864 0.098014 0.365345
Si Si2 0.299853 0.192228 0.502576
Si Si3 0.133683 0.832486 0.145254
Si Si4 0.626982 0.549951 0.311361
Si Si5 0.000000 0.000000 0.327384
O O1 0.741428 0.120677 0.438741
O O2 0.552083 0.082815 0.363588
O O3 0.800445 0.226754 0.325207
O O4 0.683512 0.960891 0.341864
O O5 0.193240 0.234090 0.507634
O O6 0.357060 0.213204 0.573919
O O7 0.051248 0.695071 0.184310
O O8 0.044893 0.900067 0.149154
O O9 0.540820 0.459181 0.250000
O O10 0.000000 0.000000 0.250000
#
# Coordination Sequence:
#
# PCOD9578300 Si02
#       5
#    12  12  12  12   4
#     4  11  25  44  74 107 144 199 250 307 375 440
#     4  10  18  38  71 107 151 185 249 311 361 432
#     4  11  23  45  71 112 143 198 248 307 372 429
#     4  12  26  45  71 106 153 199 249 304 372 452
#     4  12  24  39  79 110 157 180 259 317 355 441
#
# _framework density 19.855962000000002
#
# number of rings (size 3 to 8) (size 9 to 14) (size 15 to 20)
#    0.000    0.923    4.615    2.769    3.231    0.923 
#    1.385    0.000    0.000    0.000    0.000    0.000 
#    0.000    0.000    0.000    0.000    0.000    0.000 
#
# Total GULP energy -289573.828042 kJ/mol
# GULP energy per Si atom -5568.727462 kJ/mol
# Density = 1.981077 g / cm^3
# Si number density = 19.855962 Si / 1000 Ang^3
#
#
#
# Elastic Constant Matrix: (Units=GPa)
#
#
# Indices 1 2 3 4 5 6 
#
# 1 362.8618 -163.4725 28.8332 0.0004 136.7714 0.0000
# 2 -163.4725 362.8618 28.8332 -0.0004 -136.7714 0.0000
# 3 28.8332 28.8332 127.9313 0.0000 0.0000 0.0000
# 4 0.0004 -0.0004 0.0000 133.5292 0.0000 -136.7714
# 5 136.7714 -136.7714 0.0000 0.0000 133.5292 0.0005
# 6 0.0000 0.0000 0.0000 -136.7714 0.0005 263.1671
#
#
#
# Elastic Compliance Matrix: (Units=1/GPa)
#
#
# Indices 1 2 3 4 5 6 
#
# 1 0.004714 0.000651 -0.001209 0.000000 -0.004161 0.000000
# 2 0.000651 0.004714 -0.001209 0.000000 0.004161 0.000000
# 3 -0.001209 -0.001209 0.008362 0.000000 0.000000 0.000000
# 4 0.000000 0.000000 0.000000 0.016013 0.000000 0.008322
# 5 -0.004161 0.004161 0.000000 0.000000 0.016013 0.000000
# 6 0.000000 0.000000 0.000000 0.008322 0.000000 0.008125
#
#
# Mechanical properties :
#
#
# Convention : Reuss Voigt Hill
#
# Bulk Modulus (GPa) = 70.15028 71.33807 70.74418
# Shear Modulus (GPa) = 75.49751 170.00919 122.75335
#
# Velocity S-wave (km/s) = 6.17294 9.26321 7.87122
# Velocity P-wave (km/s) = 9.28510 12.26439 10.87723
#
# Compressibility (1/GPa) = 0.01425511
#
# Stress axis : x y z
#
# Youngs Moduli (GPa) = 212.14329 212.14329 119.59231
#
# Poissons Ratio (x) = -0.13815 0.14461
# Poissons Ratio (y) = -0.13815 0.14461
# Poissons Ratio (z) = 0.25652 0.25652
#
# Static dielectric constant tensor:
#      x y z
#    x 1.707410 0.000000 0.000000 
#    y 0.000000 1.707410 0.000000 
#    z 0.000000 0.000000 1.862160 
# 
# From -- ./inp_files/3506.got.cif
#   From: 2010.05.17/outbox.ucp.g08.bks.cvg/sg163_2_cif.got.tgz:3506.got - 2010.06.11 15:15:55.
