data_PCOD9578736
_publ_section_title
;
Structure prediction by ZEFSAII (Michael W. Deem and Ramdas Pophale) SiO2 
 PCOD9578736
Probable space group: P -3 M 1
;
_chemical_formula_sum "Si O2"
_cell_formula_units_Z 72
_cell_length_a 21.764757
_cell_length_b 21.764757
_cell_length_c 9.985040
_cell_angle_alpha 90.000000
_cell_angle_beta 90.000000
_cell_angle_gamma 120.000000
_cell_volume 4096.265390
_symmetry_space_group_name_H-M "P -3 M 1"
_symmetry_group_IT_number 164
_symmetry_cell_setting 'hexagonal'
loop_
_space_group_symop_operation_xyz
x,y,z
-y,x-y,z
-x+y,-x,z
x-y,-y,-z
-x,-x+y,-z
y,x,-z
-x,-y,-z
y,-x+y,-z
x-y,x,-z
-x+y,y,z
x,x-y,z
-y,-x,z
loop_
_atom_site_type_symbol
_atom_site_label
_atom_site_fract_x
_atom_site_fract_y
_atom_site_fract_z
Si Si1 0.666296 0.480155 0.767301
Si Si2 0.880250 0.611218 0.580129
Si Si3 0.601923 0.875173 0.727003
Si Si4 0.334004 0.521204 0.922642
Si Si5 0.053733 0.251278 0.878606
Si Si6 0.187185 0.228146 0.361727
O O1 0.734100 0.468200 0.751168
O O2 0.593240 0.406761 0.742833
O O3 0.678588 0.543936 0.669456
O O4 0.666893 0.501506 0.922856
O O5 0.804798 0.609595 0.576758
O O6 0.900129 0.606605 0.426011
O O7 0.934208 0.687889 0.641779
O O8 0.596179 0.798090 0.717193
O O9 0.535226 0.863523 0.813667
O O10 0.672350 0.921396 0.812933
O O11 0.264712 0.529424 0.907720
O O12 0.403951 0.596050 0.903537
O O13 0.124377 0.248754 0.916896
O O14 0.010596 0.197202 0.759725
O O15 0.000000 0.233096 0.000000
O O16 0.198665 0.198665 0.500000
O O17 0.111669 0.223338 0.358219
#
# Coordination Sequence:
#
# PCOD9578736 Si02
#       6
#    12  12  12  12  12  12
#     4   9  17  29  48  75 109 147 188 232 279 326
#     4   9  18  32  51  78 107 140 182 228 270 310
#     4   9  18  33  51  76 108 141 181 228 270 309
#     4   9  17  29  48  74 108 148 190 233 278 325
#     4  11  23  39  60  87 114 140 173 214 260 313
#     4  11  21  37  62  87 112 140 174 215 258 310
#
# _framework density 17.576986000000002
#
# number of rings (size 3 to 8) (size 9 to 14) (size 15 to 20)
#    0.000    2.333    1.667    1.333    2.333    2.000 
#    0.000    0.000    0.000   10.667    0.000    0.000 
#    0.000    0.000    0.000    0.000    0.000    0.000 
#
# Total GULP energy -401437.026798 kJ/mol
# GULP energy per Si atom -5575.514261 kJ/mol
# Density = 1.753698 g / cm^3
# Si number density = 17.576986 Si / 1000 Ang^3
#
#
#
# Elastic Constant Matrix: (Units=GPa)
#
#
# Indices 1 2 3 4 5 6 
#
# 1 -137.0839 203.6678 17.0452 -247.3855 0.0001 0.0001
# 2 203.6678 -137.0839 17.0452 247.3855 -0.0001 -0.0001
# 3 17.0452 17.0452 46.5399 0.0000 0.0000 0.0000
# 4 -247.3855 247.3855 0.0000 -282.4481 0.0001 0.0001
# 5 0.0001 -0.0001 0.0000 0.0001 -282.4482 -247.3856
# 6 0.0001 -0.0001 0.0000 0.0001 -247.3856 -170.3759
#
#
#
# Elastic Compliance Matrix: (Units=1/GPa)
#
#
# Indices 1 2 3 4 5 6 
#
# 1 0.014642 0.003843 -0.006770 -0.009459 0.000000 0.000000
# 2 0.003843 0.014642 -0.006770 0.009459 0.000000 0.000000
# 3 -0.006770 -0.006770 0.026446 0.000000 0.000000 0.000000
# 4 -0.009459 0.009459 0.000000 0.013028 0.000000 0.000000
# 5 0.000000 0.000000 0.000000 0.000000 0.013028 -0.018917
# 6 0.000000 0.000000 0.000000 0.000000 -0.018917 0.021598
#
#
# Mechanical properties :
#
#
# Convention : Reuss Voigt Hill
#
# Bulk Modulus (GPa) = 27.52133 27.54317 27.53225
# Shear Modulus (GPa) = 37.06675 -178.08018 -70.50672
#
# Velocity S-wave (km/s) = 4.59717 -10.07643 -6.34036
# Velocity P-wave (km/s) = 6.62346 10.93961 6.15649
#
# Compressibility (1/GPa) = 0.03633546
#
# Stress axis : x y z
#
# Youngs Moduli (GPa) = 68.29655 68.29655 37.81287
#
# Poissons Ratio (x) = -0.26245 0.25600
# Poissons Ratio (y) = -0.26245 0.25600
# Poissons Ratio (z) = 0.46237 0.46237
#
# Static dielectric constant tensor:
#      x y z
#    x 1.519220 0.000000 0.000000 
#    y 0.000000 1.519220 0.000000 
#    z 0.000000 0.000000 1.594410 
# 
# From -- ./inp_files/1957.got.cif
#   From: 2010.05.17/outbox.cif.g08.bks.cpg/sg164_1_cif.got.tgz:1957.got - 2010.05.20 10:58:56.
