data_PCOD9578969
_publ_section_title
;
Structure prediction by ZEFSAII (Michael W. Deem and Ramdas Pophale) SiO2 
 PCOD9578969
Probable space group: P -3 C 1
;
_chemical_formula_sum "Si O2"
_cell_formula_units_Z 76
_cell_length_a 17.515845
_cell_length_b 17.515845
_cell_length_c 13.796130
_cell_angle_alpha 90.000000
_cell_angle_beta 90.000000
_cell_angle_gamma 120.000000
_cell_volume 3665.642411
_symmetry_space_group_name_H-M "P -3 C 1"
_symmetry_group_IT_number 165
_symmetry_cell_setting 'hexagonal'
loop_
_space_group_symop_operation_xyz
x,y,z
-y,x-y,z
-x+y,-x,z
x-y,-y,1/2-z
-x,-x+y,1/2-z
y,x,1/2-z
-x,-y,-z
y,-x+y,-z
x-y,x,-z
-x+y,y,1/2+z
x,x-y,1/2+z
-y,-x,1/2+z
loop_
_atom_site_type_symbol
_atom_site_label
_atom_site_fract_x
_atom_site_fract_y
_atom_site_fract_z
Si Si1 0.000000 0.000000 0.617466
Si Si2 0.518422 0.619251 0.285070
Si Si3 0.841430 0.192429 0.300870
Si Si4 0.234616 0.948276 0.015311
Si Si5 0.048868 0.443065 0.499396
Si Si6 0.206845 0.119598 0.641369
Si Si7 0.460704 0.360338 0.286468
O O1 0.944608 0.046650 0.649187
O O2 0.000000 0.000000 0.500000
O O3 0.560491 0.560491 0.250000
O O4 0.577196 0.708217 0.227188
O O5 0.534929 0.636849 0.399130
O O6 0.415250 0.557667 0.260768
O O7 0.862814 0.192043 0.414234
O O8 0.894963 0.155265 0.241015
O O9 0.741501 0.140075 0.266514
O O10 0.225688 0.022058 0.076131
O O11 0.178894 0.930066 0.917929
O O12 0.337633 0.982670 0.998094
O O13 0.103854 0.470256 0.597638
O O14 0.000000 0.500000 0.500000
O O15 0.407081 0.407081 0.250000
#
# Coordination Sequence:
#
# PCOD9578969 Si02
#       7
#     4  12  12  12  12  12  12
#     4  12  24  48  63  88 141 198 232 297 354 400
#     4  11  21  44  66  96 132 175 215 268 342 407
#     4  12  25  43  67 100 133 176 232 282 340 410
#     4  12  23  41  66  95 131 177 230 283 337 416
#     4  12  21  40  72  96 127 172 221 272 339 404
#     4  12  24  43  66  92 134 183 237 286 347 400
#     4  11  24  42  66 102 134 168 221 276 332 405
#
# _framework density 20.733063999999999
#
# number of rings (size 3 to 8) (size 9 to 14) (size 15 to 20)
#    0.000    0.316    7.895    2.368    0.000    1.263 
#    0.947    7.105    0.000    0.000    0.000    0.000 
#    0.000    0.000    0.000    0.000    0.000    0.000 
#
# Total GULP energy -425017.919225 kJ/mol
# GULP energy per Si atom -5592.341042 kJ/mol
# Density = 2.068587 g / cm^3
# Si number density = 20.733064 Si / 1000 Ang^3
#
#
#
# Elastic Constant Matrix: (Units=GPa)
#
#
# Indices 1 2 3 4 5 6 
#
# 1 119.3613 52.1801 7.9174 2.4114 0.0000 0.0000
# 2 52.1801 119.3613 7.9174 -2.4114 0.0000 0.0000
# 3 7.9174 7.9174 85.2811 0.0000 0.0000 0.0000
# 4 2.4114 -2.4114 0.0000 26.1571 0.0000 0.0000
# 5 0.0000 0.0000 0.0000 0.0000 26.1571 2.4114
# 6 0.0000 0.0000 0.0000 0.0000 2.4114 33.5906
#
#
#
# Elastic Compliance Matrix: (Units=1/GPa)
#
#
# Indices 1 2 3 4 5 6 
#
# 1 0.010432 -0.004552 -0.000546 -0.001381 0.000000 0.000000
# 2 -0.004552 0.010432 -0.000546 0.001381 0.000000 0.000000
# 3 -0.000546 -0.000546 0.011827 0.000000 0.000000 0.000000
# 4 -0.001381 0.001381 0.000000 0.038485 0.000000 0.000000
# 5 0.000000 0.000000 0.000000 0.000000 0.038485 -0.002763
# 6 0.000000 0.000000 0.000000 0.000000 -0.002763 0.029969
#
#
# Mechanical properties :
#
#
# Convention : Reuss Voigt Hill
#
# Bulk Modulus (GPa) = 46.72127 51.11484 48.91805
# Shear Modulus (GPa) = 31.63497 34.24689 32.94093
#
# Velocity S-wave (km/s) = 3.91042 4.06864 3.99031
# Velocity P-wave (km/s) = 6.55531 6.83953 6.69892
#
# Compressibility (1/GPa) = 0.02140353
#
# Stress axis : x y z
#
# Youngs Moduli (GPa) = 95.85815 95.85815 84.55028
#
# Poissons Ratio (x) = 0.43637 0.04615
# Poissons Ratio (y) = 0.43637 0.04615
# Poissons Ratio (z) = 0.05233 0.05233
#
# Static dielectric constant tensor:
#      x y z
#    x 1.728810 0.000000 0.000000 
#    y 0.000000 1.728810 0.000000 
#    z 0.000000 0.000000 1.736150 
# 
# From -- ./inp_files/1826.got.cif
#   From: 2010.05.17/outbox.cif.g08.bks.cpg/sg165_1_cif.got.tgz:1826.got - 2010.05.20 11:02:39.
