data_PCOD9578339
_publ_section_title
;
Structure prediction by ZEFSAII (Michael W. Deem and Ramdas Pophale) SiO2 
 PCOD9578339
Probable space group: P -3 M 1
;
_chemical_formula_sum "Si O2"
_cell_formula_units_Z 84
_cell_length_a 21.280959
_cell_length_b 21.280959
_cell_length_c 12.351208
_cell_angle_alpha 90.000000
_cell_angle_beta 90.000000
_cell_angle_gamma 120.000000
_cell_volume 4844.204371
_symmetry_space_group_name_H-M "P -3 M 1"
_symmetry_group_IT_number 164
_symmetry_cell_setting 'hexagonal'
loop_
_space_group_symop_operation_xyz
x,y,z
-y,x-y,z
-x+y,-x,z
x-y,-y,-z
-x,-x+y,-z
y,x,-z
-x,-y,-z
y,-x+y,-z
x-y,x,-z
-x+y,y,z
x,x-y,z
-y,-x,z
loop_
_atom_site_type_symbol
_atom_site_label
_atom_site_fract_x
_atom_site_fract_y
_atom_site_fract_z
Si Si1 0.534569 0.610624 0.934114
Si Si2 0.547000 0.703532 0.546195
Si Si3 0.717629 0.785237 0.581415
Si Si4 0.977147 0.421563 0.375378
Si Si5 0.010199 0.677711 0.774767
Si Si6 0.865081 0.588236 0.884249
Si Si7 0.475618 0.807980 0.311546
O O1 0.453004 0.546997 0.903229
O O2 0.593741 0.657503 0.841283
O O3 0.568922 0.568922 0.000000
O O4 0.540584 0.669992 0.019516
O O5 0.530086 0.765043 0.587854
O O6 0.634497 0.742889 0.537613
O O7 0.525817 0.634663 0.621175
O O8 0.509794 0.677124 0.430377
O O9 0.764575 0.764575 0.500000
O O10 0.740464 0.870232 0.584311
O O11 0.708940 0.750979 0.703255
O O12 0.994300 0.497150 0.324352
O O13 0.015916 0.383907 0.317649
O O14 0.000000 0.434106 0.500000
O O15 0.943103 0.657425 0.854051
O O16 0.805226 0.610451 0.908661
O O17 0.839705 0.536748 0.779553
O O18 0.414270 0.828540 0.292678
O O19 0.442842 0.721421 0.308796
#
# Coordination Sequence:
#
# PCOD9578339 Si02
#       7
#    12  12  12  12  12  12  12
#     4   9  18  32  49  70  98 132 170 212 255 295
#     4   9  17  28  42  62  90 122 154 191 236 287
#     4  10  20  34  52  75 102 129 158 194 242 304
#     4  10  18  27  42  65  92 121 155 196 239 282
#     4  10  19  32  49  72  96 123 162 203 242 291
#     4  10  20  32  48  69  95 127 161 203 252 295
#     4  10  18  27  40  59  86 121 161 202 241 281
#
# _framework density 17.340309000000001
#
# number of rings (size 3 to 8) (size 9 to 14) (size 15 to 20)
#    0.000    2.286    0.000    4.857    0.000    5.143 
#    0.000    0.000    0.000    0.714    0.000    0.000 
#    0.000    2.286    0.000    0.000    0.000   10.286 
#
# Total GULP energy -467684.751437 kJ/mol
# GULP energy per Si atom -5567.675612 kJ/mol
# Density = 1.730084 g / cm^3
# Si number density = 17.340309 Si / 1000 Ang^3
#
#
#
# Elastic Constant Matrix: (Units=GPa)
#
#
# Indices 1 2 3 4 5 6 
#
# 1 60.4569 42.0153 19.0859 -1.7881 0.0000 0.0000
# 2 42.0153 60.4569 19.0859 1.7881 0.0000 0.0000
# 3 19.0859 19.0859 59.4401 0.0000 0.0000 0.0000
# 4 -1.7881 1.7881 0.0000 13.1282 0.0000 0.0000
# 5 0.0000 0.0000 0.0000 0.0000 13.1282 -1.7881
# 6 0.0000 0.0000 0.0000 0.0000 -1.7881 9.2208
#
#
#
# Elastic Compliance Matrix: (Units=1/GPa)
#
#
# Indices 1 2 3 4 5 6 
#
# 1 0.033391 -0.022306 -0.003559 0.007586 0.000000 0.000000
# 2 -0.022306 0.033391 -0.003559 -0.007586 0.000000 0.000000
# 3 -0.003559 -0.003559 0.019109 0.000000 0.000000 0.000000
# 4 0.007586 -0.007586 0.000000 0.078238 0.000000 0.000000
# 5 0.000000 0.000000 0.000000 0.000000 0.078238 0.015172
# 6 0.000000 0.000000 0.000000 0.000000 0.015172 0.111393
#
#
# Mechanical properties :
#
#
# Convention : Reuss Voigt Hill
#
# Bulk Modulus (GPa) = 36.97991 37.85867 37.41929
# Shear Modulus (GPa) = 11.85895 13.77323 12.81609
#
# Velocity S-wave (km/s) = 2.61798 2.82137 2.72157
# Velocity P-wave (km/s) = 5.52365 5.70032 5.61268
#
# Compressibility (1/GPa) = 0.02704171
#
# Stress axis : x y z
#
# Youngs Moduli (GPa) = 29.94861 29.94861 52.33044
#
# Poissons Ratio (x) = 0.66803 0.18625
# Poissons Ratio (y) = 0.66803 0.18625
# Poissons Ratio (z) = 0.10659 0.10659
#
# Static dielectric constant tensor:
#      x y z
#    x 1.622130 0.000000 0.000000 
#    y 0.000000 1.622130 0.000000 
#    z 0.000000 0.000000 1.641990 
# 
# From -- ./inp_files/2927.got.cif
#   From: 2010.05.17/outbox.cif.g08.bks.cpg/sg164_2_cif.got.tgz:2927.got - 2010.05.20 10:58:56.
