data_PCOD9578431
_publ_section_title
;
Structure prediction by ZEFSAII (Michael W. Deem and Ramdas Pophale) SiO2 
 PCOD9578431
Probable space group: P -3 M 1
;
_chemical_formula_sum "Si O2"
_cell_formula_units_Z 96
_cell_length_a 17.901700
_cell_length_b 17.901700
_cell_length_c 20.046518
_cell_angle_alpha 90.000000
_cell_angle_beta 90.000000
_cell_angle_gamma 120.000000
_cell_volume 5563.628584
_symmetry_space_group_name_H-M "P -3 M 1"
_symmetry_group_IT_number 164
_symmetry_cell_setting 'hexagonal'
loop_
_space_group_symop_operation_xyz
x,y,z
-y,x-y,z
-x+y,-x,z
x-y,-y,-z
-x,-x+y,-z
y,x,-z
-x,-y,-z
y,-x+y,-z
x-y,x,-z
-x+y,y,z
x,x-y,z
-y,-x,z
loop_
_atom_site_type_symbol
_atom_site_label
_atom_site_fract_x
_atom_site_fract_y
_atom_site_fract_z
Si Si1 0.367096 0.902569 0.850542
Si Si2 0.244659 0.315022 0.553051
Si Si3 0.171776 0.502910 0.083529
Si Si4 0.977433 0.619346 0.651194
Si Si5 0.667327 0.502807 0.296562
Si Si6 0.629083 0.540051 0.782053
Si Si7 0.846339 0.334478 0.532599
Si Si8 0.740242 0.093289 0.023686
O O1 0.441269 0.882539 0.875416
O O2 0.326446 0.847419 0.783260
O O3 0.305059 0.898934 0.909030
O O4 0.415455 0.999681 0.822620
O O5 0.253182 0.253182 0.500000
O O6 0.150362 0.300723 0.560584
O O7 0.286578 0.303018 0.619551
O O8 0.305073 0.413777 0.524558
O O9 0.272221 0.544442 0.068281
O O10 0.138754 0.569377 0.072445
O O11 0.157221 0.477481 0.161064
O O12 0.123858 0.422336 0.035891
O O13 0.922391 0.597758 0.718493
O O14 0.913414 0.552886 0.595120
O O15 0.067802 0.623961 0.672222
O O16 0.762023 0.524045 0.321506
O O17 0.597445 0.402556 0.307145
O O18 0.551506 0.448495 0.755926
O O19 0.837800 0.418900 0.516482
O O20 0.751720 0.248281 0.545244
O O21 0.840567 0.159434 0.029800
O O22 0.718378 0.000000 0.000000
#
# Coordination Sequence:
#
# PCOD9578431 Si02
#       8
#    12  12  12  12  12  12  12  12
#     4   9  17  30  48  69  93 125 161 196 243 302
#     4   9  19  34  53  76 102 130 160 199 247 298
#     4  10  20  32  48  71 101 136 172 208 244 286
#     4  10  19  32  50  70  95 129 169 204 245 292
#     4  10  19  30  45  68  99 132 167 205 247 297
#     4   9  17  29  45  65  92 128 164 199 239 284
#     4  10  20  33  49  70  96 129 168 209 249 288
#     4  11  21  33  51  73  97 127 165 213 263 307
#
# _framework density 17.254925
#
# number of rings (size 3 to 8) (size 9 to 14) (size 15 to 20)
#    0.000    2.250    1.250    3.375    0.000    4.250 
#    0.000    0.000    0.000    7.250    0.000    0.000 
#    0.000    0.000    0.000    1.625    0.000    0.000 
#
# Total GULP energy -534418.450376 kJ/mol
# GULP energy per Si atom -5566.858858 kJ/mol
# Density = 1.721565 g / cm^3
# Si number density = 17.254925 Si / 1000 Ang^3
#
#
#
# Elastic Constant Matrix: (Units=GPa)
#
#
# Indices 1 2 3 4 5 6 
#
# 1 74.2610 4.5617 14.2764 7.4111 0.0000 0.0000
# 2 4.5617 74.2610 14.2764 -7.4111 0.0000 0.0000
# 3 14.2764 14.2764 66.2636 0.0000 0.0000 0.0000
# 4 7.4111 -7.4111 0.0000 14.3055 0.0000 0.0000
# 5 0.0000 0.0000 0.0000 0.0000 14.3055 7.4111
# 6 0.0000 0.0000 0.0000 0.0000 7.4111 34.8496
#
#
#
# Elastic Compliance Matrix: (Units=1/GPa)
#
#
# Indices 1 2 3 4 5 6 
#
# 1 0.014942 -0.001182 -0.002965 -0.008353 0.000000 0.000000
# 2 -0.001182 0.014942 -0.002965 0.008353 0.000000 0.000000
# 3 -0.002965 -0.002965 0.016369 0.000000 0.000000 0.000000
# 4 -0.008353 0.008353 0.000000 0.078558 0.000000 0.000000
# 5 0.000000 0.000000 0.000000 0.000000 0.078558 -0.016706
# 6 0.000000 0.000000 0.000000 0.000000 -0.016706 0.032247
#
#
# Mechanical properties :
#
#
# Convention : Reuss Voigt Hill
#
# Bulk Modulus (GPa) = 31.21961 31.22386 31.22173
# Shear Modulus (GPa) = 19.19266 24.80351 21.99809
#
# Velocity S-wave (km/s) = 3.33874 3.79552 3.57443
# Velocity P-wave (km/s) = 5.74415 6.11088 5.93035
#
# Compressibility (1/GPa) = 0.03203115
#
# Stress axis : x y z
#
# Youngs Moduli (GPa) = 66.92460 66.92460 61.09207
#
# Poissons Ratio (x) = 0.07907 0.18112
# Poissons Ratio (y) = 0.07907 0.18112
# Poissons Ratio (z) = 0.19841 0.19841
#
# Static dielectric constant tensor:
#      x y z
#    x 1.595710 0.000000 0.000000 
#    y 0.000000 1.595710 0.000000 
#    z 0.000000 0.000000 1.622670 
# 
# From -- ./inp_files/4784.got.cif
#   From: 2010.05.17/outbox.cif.g08.bks.cpg/sg164_3_cif.got.tgz:4784.got - 2010.05.20 10:58:56.
