data_PCOD9578008
_publ_section_title
;
Structure prediction by ZEFSAII (Michael W. Deem and Ramdas Pophale) SiO2 
 PCOD9578008
Probable space group: P -3 1 C
;
_chemical_formula_sum "Si O2"
_cell_formula_units_Z 84
_cell_length_a 18.115706
_cell_length_b 18.115706
_cell_length_c 14.571201
_cell_angle_alpha 90.000000
_cell_angle_beta 90.000000
_cell_angle_gamma 120.000000
_cell_volume 4141.298247
_symmetry_space_group_name_H-M "P -3 1 C"
_symmetry_group_IT_number 163
_symmetry_cell_setting 'hexagonal'
loop_
_space_group_symop_operation_xyz
x,y,z
-y,x-y,z
-x+y,-x,z
-y,-x,1/2-z
-x+y,y,1/2-z
x,x-y,1/2-z
-x,-y,-z
y,-x+y,-z
x-y,x,-z
y,x,1/2+z
x-y,-y,1/2+z
-x,-x+y,1/2+z
loop_
_atom_site_type_symbol
_atom_site_label
_atom_site_fract_x
_atom_site_fract_y
_atom_site_fract_z
Si Si1 0.766005 0.233996 0.750000
Si Si2 0.537414 0.001557 0.347113
Si Si3 0.415313 0.548455 0.511862
Si Si4 0.232059 0.490377 0.450974
Si Si5 0.804588 0.779141 0.379371
Si Si6 0.055598 0.111195 0.750000
Si Si7 0.671546 0.710226 0.215190
Si Si8 0.293383 0.163201 0.945664
O O1 0.739521 0.258407 0.654985
O O2 0.724178 0.130936 0.752596
O O3 0.488906 0.977812 0.250000
O O4 0.533154 0.079265 0.395428
O O5 0.498168 0.929003 0.425253
O O6 0.630598 0.015441 0.324221
O O7 0.315578 0.515855 0.510632
O O8 0.468246 0.648280 0.490752
O O9 0.176519 0.388055 0.443899
O O10 0.899016 0.830229 0.336683
O O11 0.738087 0.732424 0.296841
O O12 0.803797 0.718119 0.457398
O O13 0.775615 0.841473 0.425475
O O14 0.092070 0.046035 0.750000
O O15 0.712778 0.778652 0.133862
#
# Coordination Sequence:
#
# PCOD9578008 Si02
#       8
#     6  12  12  12  12   6  12  12
#     4  10  18  37  62  94 126 168 206 264 330 391
#     4  11  25  41  70 100 131 179 226 275 343 402
#     4  11  25  42  68  98 141 172 225 279 336 410
#     4  11  23  42  64  99 134 176 216 275 333 401
#     4  12  26  42  70  94 133 177 224 278 334 394
#     4  10  26  45  64  88 132 170 218 270 320 391
#     4  11  21  43  65  94 134 169 218 281 327 395
#     4  11  26  41  68  99 130 172 224 273 342 391
#
# _framework density 20.283494999999998
#
# number of rings (size 3 to 8) (size 9 to 14) (size 15 to 20)
#    0.143    0.857    5.714    2.000    8.000    0.000 
#    0.000    1.429    0.000    0.000    0.000    0.000 
#    0.000    0.000    0.000    0.000    0.000    0.000 
#
# Total GULP energy -469365.667152 kJ/mol
# GULP energy per Si atom -5587.686514 kJ/mol
# Density = 2.023733 g / cm^3
# Si number density = 20.283495 Si / 1000 Ang^3
#
#
#
# Elastic Constant Matrix: (Units=GPa)
#
#
# Indices 1 2 3 4 5 6 
#
# 1 33.6097 14.6765 16.7817 0.0001 0.2967 0.0000
# 2 14.6765 33.6097 16.7817 -0.0001 -0.2967 0.0000
# 3 16.7817 16.7817 78.4498 0.0000 0.0000 0.0000
# 4 0.0001 -0.0001 0.0000 17.9120 0.0000 -0.2967
# 5 0.2967 -0.2967 0.0000 0.0000 17.9120 0.0001
# 6 0.0000 0.0000 0.0000 -0.2967 0.0001 9.4666
#
#
#
# Elastic Compliance Matrix: (Units=1/GPa)
#
#
# Indices 1 2 3 4 5 6 
#
# 1 0.038586 -0.014259 -0.005204 0.000000 -0.000875 0.000000
# 2 -0.014259 0.038586 -0.005204 0.000000 0.000875 0.000000
# 3 -0.005204 -0.005204 0.014973 0.000000 0.000000 0.000000
# 4 0.000000 0.000000 0.000000 0.055857 0.000000 0.001751
# 5 -0.000875 0.000875 0.000000 0.000000 0.055857 -0.000001
# 6 0.000000 0.000000 0.000000 0.001751 -0.000001 0.105689
#
#
# Mechanical properties :
#
#
# Convention : Reuss Voigt Hill
#
# Bulk Modulus (GPa) = 23.35804 26.90543 25.13173
# Shear Modulus (GPa) = 13.39930 15.55341 14.47636
#
# Velocity S-wave (km/s) = 2.57300 2.77212 2.67442
# Velocity P-wave (km/s) = 4.51308 4.85177 4.68549
#
# Compressibility (1/GPa) = 0.04281182
#
# Stress axis : x y z
#
# Youngs Moduli (GPa) = 25.91619 25.91619 66.78499
#
# Poissons Ratio (x) = 0.36953 0.34755
# Poissons Ratio (y) = 0.36953 0.34755
# Poissons Ratio (z) = 0.13487 0.13487
#
# Static dielectric constant tensor:
#      x y z
#    x 1.730540 0.000000 0.000000 
#    y 0.000000 1.730540 0.000000 
#    z 0.000000 0.000000 1.715750 
# 
# From -- ./inp_files/2690.got.cif
#   From: 2010.05.17/outbox.cif.g08.bks.cpg/sg163_2_cif.got.tgz:2690.got - 2010.05.20 10:56:03.
