data_PCOD9578875
_publ_section_title
;
Structure prediction by ZEFSAII (Michael W. Deem and Ramdas Pophale) SiO2 
 PCOD9578875
Probable space group: P -3 C 1
;
_chemical_formula_sum "Si O2"
_cell_formula_units_Z 48
_cell_length_a 12.912560
_cell_length_b 12.912560
_cell_length_c 18.067029
_cell_angle_alpha 90.000000
_cell_angle_beta 90.000000
_cell_angle_gamma 120.000000
_cell_volume 2608.807765
_symmetry_space_group_name_H-M "P -3 C 1"
_symmetry_group_IT_number 165
_symmetry_cell_setting 'hexagonal'
loop_
_space_group_symop_operation_xyz
x,y,z
-y,x-y,z
-x+y,-x,z
x-y,-y,1/2-z
-x,-x+y,1/2-z
y,x,1/2-z
-x,-y,-z
y,-x+y,-z
x-y,x,-z
-x+y,y,1/2+z
x,x-y,1/2+z
-y,-x,1/2+z
loop_
_atom_site_type_symbol
_atom_site_label
_atom_site_fract_x
_atom_site_fract_y
_atom_site_fract_z
Si Si1 0.237959 0.373344 0.073947
Si Si2 0.000000 0.709891 0.837026
Si Si3 0.537276 0.537276 0.836833
Si Si4 0.373344 0.135385 0.573947
O O1 0.120068 0.311071 0.123753
O O2 0.351908 0.464624 0.122756
O O3 0.276263 0.276264 0.450040
O O4 0.212285 0.424570 0.000000
O O5 0.000000 0.585116 0.845473
O O6 0.000000 0.734811 0.750000
O O7 0.120068 0.808997 0.876247
O O8 0.562967 0.562967 0.750000
O O9 0.535375 0.648092 0.877244
#
# Coordination Sequence:
#
# PCOD9578875 Si02
#       4
#    12  12  12  12
#     4  10  21  38  60  88 121 154 201 245 293 358
#     4  11  21  39  63  85 120 163 194 250 306 342
#     4   9  21  39  60  88 118 151 205 251 291 357
#     4  10  21  38  60  88 121 154 201 245 293 358
#
# _framework density 18.39921
#
# number of rings (size 3 to 8) (size 9 to 14) (size 15 to 20)
#    1.500    0.500    2.500    1.500    0.000    4.000 
#    4.500    1.250    0.000    0.000    0.000    0.000 
#    0.000    0.000    0.000    0.000    0.000    0.000 
#
# Total GULP energy -267306.735687 kJ/mol
# GULP energy per Si atom -5568.890327 kJ/mol
# Density = 1.835733 g / cm^3
# Si number density = 18.399210 Si / 1000 Ang^3
#
#
#
# Elastic Constant Matrix: (Units=GPa)
#
#
# Indices 1 2 3 4 5 6 
#
# 1 32.6287 11.6537 23.1467 0.0000 0.0000 0.0000
# 2 11.6537 32.6287 23.1467 0.0000 0.0000 0.0000
# 3 23.1467 23.1467 108.0266 0.0000 0.0000 0.0000
# 4 0.0000 0.0000 0.0000 23.1804 0.0000 0.0000
# 5 0.0000 0.0000 0.0000 0.0000 23.1804 0.0000
# 6 0.0000 0.0000 0.0000 0.0000 0.0000 10.4875
#
#
#
# Elastic Compliance Matrix: (Units=1/GPa)
#
#
# Indices 1 2 3 4 5 6 
#
# 1 0.038388 -0.009287 -0.006235 0.000000 0.000000 0.000000
# 2 -0.009287 0.038388 -0.006235 0.000000 0.000000 0.000000
# 3 -0.006235 -0.006235 0.011929 0.000000 0.000000 0.000000
# 4 0.000000 0.000000 0.000000 0.043140 0.000000 0.000000
# 5 0.000000 0.000000 0.000000 0.000000 0.043140 0.000000
# 6 0.000000 0.000000 0.000000 0.000000 0.000000 0.095352
#
#
# Mechanical properties :
#
#
# Convention : Reuss Voigt Hill
#
# Bulk Modulus (GPa) = 22.12917 32.13091 27.13004
# Shear Modulus (GPa) = 15.20141 19.05880 17.13011
#
# Velocity S-wave (km/s) = 2.87749 3.22195 3.05458
# Velocity P-wave (km/s) = 4.80554 5.59843 5.21707
#
# Compressibility (1/GPa) = 0.04518922
#
# Stress axis : x y z
#
# Youngs Moduli (GPa) = 26.04957 26.04957 83.82876
#
# Poissons Ratio (x) = 0.24194 0.52271
# Poissons Ratio (y) = 0.24194 0.52271
# Poissons Ratio (z) = 0.16243 0.16243
#
# Static dielectric constant tensor:
#      x y z
#    x 1.612820 0.000000 0.000000 
#    y 0.000000 1.612820 0.000000 
#    z 0.000000 0.000000 1.642800 
# 
# From -- ./inp_files/1521.got.cif
#   From: 2010.05.17/outbox.cif.g08.bks.cpg/sg165_1_cif.got.tgz:1521.got - 2010.05.20 11:02:39.
