data_PCOD9578962
_publ_section_title
;
Structure prediction by ZEFSAII (Michael W. Deem and Ramdas Pophale) SiO2 
 PCOD9578962
Probable space group: P -3 C 1
;
_chemical_formula_sum "Si O2"
_cell_formula_units_Z 54
_cell_length_a 25.981451
_cell_length_b 25.981451
_cell_length_c 7.481616
_cell_angle_alpha 90.000000
_cell_angle_beta 90.000000
_cell_angle_gamma 120.000000
_cell_volume 4373.738857
_symmetry_space_group_name_H-M "P -3 C 1"
_symmetry_group_IT_number 165
_symmetry_cell_setting 'hexagonal'
loop_
_space_group_symop_operation_xyz
x,y,z
-y,x-y,z
-x+y,-x,z
x-y,-y,1/2-z
-x,-x+y,1/2-z
y,x,1/2-z
-x,-y,-z
y,-x+y,-z
x-y,x,-z
-x+y,y,1/2+z
x,x-y,1/2+z
-y,-x,1/2+z
loop_
_atom_site_type_symbol
_atom_site_label
_atom_site_fract_x
_atom_site_fract_y
_atom_site_fract_z
Si Si1 0.675002 0.456995 0.038444
Si Si2 0.415942 0.919681 0.924642
Si Si3 0.000000 0.587639 0.750000
Si Si4 0.618390 0.086804 0.473235
Si Si5 0.553656 0.341789 0.952383
O O1 0.663708 0.460375 0.245318
O O2 0.665530 0.508683 0.955287
O O3 0.622423 0.393076 0.971764
O O4 0.736857 0.458712 0.017125
O O5 0.466247 0.063882 0.770983
O O6 0.419205 0.960581 0.091038
O O7 0.477446 0.918353 0.933728
O O8 0.365979 0.851447 0.955815
O O9 0.949630 0.585433 0.613172
#
# Coordination Sequence:
#
# PCOD9578962 Si02
#       5
#    12  12   6  12  12
#     4  11  20  33  44  59  77  97 123 149 181 219
#     4  11  20  30  43  61  75  95 119 144 178 213
#     4  12  20  32  42  58  80  90 122 142 178 212
#     4  11  20  30  43  61  75  95 119 144 178 213
#     4  11  20  33  44  59  77  97 123 149 181 219
#
# _framework density 12.346416
#
# number of rings (size 3 to 8) (size 9 to 14) (size 15 to 20)
#    0.000    0.889    4.444    8.444    0.000    0.000 
#    0.000    0.000    0.000    0.000    0.000    0.000 
#    0.000    0.000    0.000    0.000    0.000    0.000 
#
# Total GULP energy -300613.769471 kJ/mol
# GULP energy per Si atom -5566.921657 kJ/mol
# Density = 1.231832 g / cm^3
# Si number density = 12.346416 Si / 1000 Ang^3
#
#
#
# Elastic Constant Matrix: (Units=GPa)
#
#
# Indices 1 2 3 4 5 6 
#
# 1 48.3337 34.4147 13.9372 0.4442 0.0000 0.0000
# 2 34.4147 48.3337 13.9372 -0.4442 0.0000 0.0000
# 3 13.9372 13.9372 96.6441 0.0000 0.0000 0.0000
# 4 0.4442 -0.4442 0.0000 14.8549 0.0000 0.0000
# 5 0.0000 0.0000 0.0000 0.0000 14.8549 0.4442
# 6 0.0000 0.0000 0.0000 0.0000 0.4442 6.9595
#
#
#
# Elastic Compliance Matrix: (Units=1/GPa)
#
#
# Indices 1 2 3 4 5 6 
#
# 1 0.042342 -0.029640 -0.001832 -0.002153 0.000000 0.000000
# 2 -0.029640 0.042342 -0.001832 0.002153 0.000000 0.000000
# 3 -0.001832 -0.001832 0.010876 0.000000 0.000000 0.000000
# 4 -0.002153 0.002153 0.000000 0.067447 0.000000 0.000000
# 5 0.000000 0.000000 0.000000 0.000000 0.067447 -0.004305
# 6 0.000000 0.000000 0.000000 0.000000 -0.004305 0.143963
#
#
# Mechanical properties :
#
#
# Convention : Reuss Voigt Hill
#
# Bulk Modulus (GPa) = 34.53962 35.32109 34.93035
# Shear Modulus (GPa) = 11.09451 16.06868 13.58160
#
# Velocity S-wave (km/s) = 3.00092 3.61152 3.32029
# Velocity P-wave (km/s) = 6.32800 6.78685 6.56143
#
# Compressibility (1/GPa) = 0.02895226
#
# Stress axis : x y z
#
# Youngs Moduli (GPa) = 23.61736 23.61736 91.94922
#
# Poissons Ratio (x) = 0.70002 0.16843
# Poissons Ratio (y) = 0.70002 0.16843
# Poissons Ratio (z) = 0.04326 0.04326
#
# Static dielectric constant tensor:
#      x y z
#    x 1.414680 0.000000 0.000000 
#    y 0.000000 1.414680 0.000000 
#    z 0.000000 0.000000 1.456910 
# 
# From -- ./inp_files/731.got.cif
#   From: 2010.05.17/outbox.cif.g08.bks.cpg/sg165_1_cif.got.tgz:731.got - 2010.05.20 11:02:39.
