data_PCOD9578292
_publ_section_title
;
Structure prediction by ZEFSAII (Michael W. Deem and Ramdas Pophale) SiO2 
 PCOD9578292
Probable space group: P -3 1 C
;
_chemical_formula_sum "Si O2"
_cell_formula_units_Z 48
_cell_length_a 17.706851
_cell_length_b 17.706851
_cell_length_c 7.449750
_cell_angle_alpha 90.000000
_cell_angle_beta 90.000000
_cell_angle_gamma 120.000000
_cell_volume 2022.809554
_symmetry_space_group_name_H-M "P -3 1 C"
_symmetry_group_IT_number 163
_symmetry_cell_setting 'hexagonal'
loop_
_space_group_symop_operation_xyz
x,y,z
-y,x-y,z
-x+y,-x,z
-y,-x,1/2-z
-x+y,y,1/2-z
x,x-y,1/2-z
-x,-y,-z
y,-x+y,-z
x-y,x,-z
y,x,1/2+z
x-y,-y,1/2+z
-x,-x+y,1/2+z
loop_
_atom_site_type_symbol
_atom_site_label
_atom_site_fract_x
_atom_site_fract_y
_atom_site_fract_z
Si Si1 0.574013 0.700344 0.693832
Si Si2 0.068102 0.193037 0.049533
Si Si3 0.700384 0.640988 0.547291
Si Si4 0.170881 0.665915 0.179523
O O1 0.584085 0.792043 0.750000
O O2 0.652021 0.693664 0.598948
O O3 0.502713 0.665420 0.535481
O O4 0.570817 0.656497 0.886600
O O5 0.104442 0.208884 0.250000
O O6 0.080335 0.284553 0.983737
O O7 0.121798 0.155879 0.946538
O O8 0.701366 0.587975 0.720819
O O9 0.268098 0.731903 0.250000
O O10 0.140260 0.570130 0.250000
#
# Coordination Sequence:
#
# PCOD9578292 Si02
#       4
#    12  12  12  12
#     4  12  25  47  80 116 156 201 259 318 386 474
#     4  12  26  45  69 104 153 207 265 321 380 450
#     4  12  25  48  76 112 155 206 263 316 390 460
#     4  12  28  52  79 113 154 196 256 327 407 485
#
# _framework density 23.729372000000001
#
# number of rings (size 3 to 8) (size 9 to 14) (size 15 to 20)
#    0.000    0.000    5.000    5.000    0.000    2.000 
#    0.000    0.000    0.000    0.000    0.000    0.000 
#    0.000    0.000    0.000    0.000    0.000    0.000 
#
# Total GULP energy -268381.730964 kJ/mol
# GULP energy per Si atom -5591.286062 kJ/mol
# Density = 2.367536 g / cm^3
# Si number density = 23.729372 Si / 1000 Ang^3
#
#
#
# Elastic Constant Matrix: (Units=GPa)
#
#
# Indices 1 2 3 4 5 6 
#
# 1 64.1980 47.6750 13.8445 -0.0005 -2.8639 0.0000
# 2 47.6750 64.1980 13.8445 0.0005 2.8639 0.0000
# 3 13.8445 13.8445 147.3956 0.0000 0.0000 0.0000
# 4 -0.0005 0.0005 0.0000 28.2823 0.0000 2.8639
# 5 -2.8639 2.8639 0.0000 0.0000 28.2823 -0.0005
# 6 0.0000 0.0000 0.0000 2.8639 -0.0005 8.2615
#
#
#
# Elastic Compliance Matrix: (Units=1/GPa)
#
#
# Indices 1 2 3 4 5 6 
#
# 1 0.035937 -0.026786 -0.000860 0.000001 0.006351 0.000000
# 2 -0.026786 0.035937 -0.000860 -0.000001 -0.006351 0.000000
# 3 -0.000860 -0.000860 0.006946 0.000000 0.000000 0.000000
# 4 0.000001 -0.000001 0.000000 0.036644 0.000000 -0.012703
# 5 0.006351 -0.006351 0.000000 0.000000 0.036644 0.000002
# 6 0.000000 0.000000 0.000000 -0.012703 0.000002 0.125447
#
#
# Mechanical properties :
#
#
# Convention : Reuss Voigt Hill
#
# Bulk Modulus (GPa) = 45.84935 47.39105 46.62020
# Shear Modulus (GPa) = 14.62689 26.32708 20.47699
#
# Velocity S-wave (km/s) = 2.48544 3.33449 2.94077
# Velocity P-wave (km/s) = 5.25360 5.90253 5.58749
#
# Compressibility (1/GPa) = 0.02181056
#
# Stress axis : x y z
#
# Youngs Moduli (GPa) = 27.82614 27.82614 143.96901
#
# Poissons Ratio (x) = 0.74535 0.12375
# Poissons Ratio (y) = 0.74535 0.12375
# Poissons Ratio (z) = 0.02392 0.02392
#
# Static dielectric constant tensor:
#      x y z
#    x 1.899310 0.000000 0.000000 
#    y 0.000000 1.899310 0.000000 
#    z 0.000000 0.000000 1.934290 
# 
# From -- ./inp_files/906.got.cif
#   From: 2010.05.17/outbox.cif.g08.bks.cpg/sg163_1_cif.got.tgz:906.got - 2010.05.20 10:56:03.
