data_PCOD9578079
_publ_section_title
;
Structure prediction by ZEFSAII (Michael W. Deem and Ramdas Pophale) SiO2 
 PCOD9578079
Probable space group: P -3 1 C
;
_chemical_formula_sum "Si O2"
_cell_formula_units_Z 54
_cell_length_a 12.290472
_cell_length_b 12.290472
_cell_length_c 22.772847
_cell_angle_alpha 90.000000
_cell_angle_beta 90.000000
_cell_angle_gamma 120.000000
_cell_volume 2979.100014
_symmetry_space_group_name_H-M "P -3 1 C"
_symmetry_group_IT_number 163
_symmetry_cell_setting 'hexagonal'
loop_
_space_group_symop_operation_xyz
x,y,z
-y,x-y,z
-x+y,-x,z
-y,-x,1/2-z
-x+y,y,1/2-z
x,x-y,1/2-z
-x,-y,-z
y,-x+y,-z
x-y,x,-z
y,x,1/2+z
x-y,-y,1/2+z
-x,-x+y,1/2+z
loop_
_atom_site_type_symbol
_atom_site_label
_atom_site_fract_x
_atom_site_fract_y
_atom_site_fract_z
Si Si1 0.086290 0.257275 0.876843
Si Si2 0.834509 0.917255 0.750000
Si Si3 0.582312 0.918451 0.944800
Si Si4 0.333333 0.666667 0.092738
Si Si5 0.000000 0.000000 0.929792
Si Si6 0.333333 0.666666 0.950389
Si Si7 0.377313 0.927393 0.417395
O O1 0.113703 0.243439 0.809347
O O2 0.214077 0.308917 0.914230
O O3 0.020198 0.341495 0.884256
O O4 0.995402 0.118965 0.903308
O O5 0.932302 0.864603 0.750000
O O6 0.457467 0.788241 0.930591
O O7 0.549546 0.023299 0.923747
O O8 0.594443 0.926179 0.015439
O O9 0.212508 0.679458 0.108540
O O10 0.333334 0.666667 0.021332
O O11 0.000000 0.000000 0.000000
#
# Coordination Sequence:
#
# PCOD9578079 Si02
#       7
#    12   6  12   4   4   4  12
#     4  12  22  39  63  85 119 159 214 246 303 367
#     4  10  22  46  58  80 116 174 200 250 316 356
#     4  10  20  35  58  89 126 162 194 247 308 365
#     4   9  21  33  54  84 134 164 183 225 313 386
#     4  12  24  34  59  97 123 138 196 272 310 372
#     4   9  15  36  51  82 127 169 190 222 304 371
#     4  10  22  35  58  91 126 163 192 242 317 373
#
# _framework density 18.126279
#
# number of rings (size 3 to 8) (size 9 to 14) (size 15 to 20)
#    0.222    1.333    4.444    1.333    6.222    0.000 
#    0.000    1.111    0.000    0.000    0.000    0.000 
#    0.000    0.000    0.000    0.000    0.000    0.000 
#
# Total GULP energy -301125.530326 kJ/mol
# GULP energy per Si atom -5576.398710 kJ/mol
# Density = 1.808502 g / cm^3
# Si number density = 18.126279 Si / 1000 Ang^3
#
#
#
# Elastic Constant Matrix: (Units=GPa)
#
#
# Indices 1 2 3 4 5 6 
#
# 1 72.9594 20.9151 31.3031 0.0000 -1.2652 -0.0001
# 2 20.9151 72.9591 31.3030 0.0000 1.2652 -0.0001
# 3 31.3031 31.3030 83.5945 0.0001 0.0000 -0.0001
# 4 0.0000 0.0000 0.0001 14.9532 0.0000 1.2652
# 5 -1.2652 1.2652 0.0000 0.0000 14.9532 0.0000
# 6 -0.0001 -0.0001 -0.0001 1.2652 0.0000 26.0221
#
#
#
# Elastic Compliance Matrix: (Units=1/GPa)
#
#
# Indices 1 2 3 4 5 6 
#
# 1 0.016746 -0.002548 -0.005317 0.000000 0.001632 0.000000
# 2 -0.002548 0.016746 -0.005317 0.000000 -0.001632 0.000000
# 3 -0.005317 -0.005317 0.015944 0.000000 0.000000 0.000000
# 4 0.000000 0.000000 0.000000 0.067152 0.000000 -0.003265
# 5 0.001632 -0.001632 0.000000 0.000000 0.067152 0.000000
# 6 0.000000 0.000000 0.000000 -0.003265 0.000000 0.038588
#
#
# Mechanical properties :
#
#
# Convention : Reuss Voigt Hill
#
# Bulk Modulus (GPa) = 43.33872 44.06170 43.70021
# Shear Modulus (GPa) = 19.50221 20.91848 20.21035
#
# Velocity S-wave (km/s) = 3.28366 3.40080 3.34275
# Velocity P-wave (km/s) = 6.19175 6.30726 6.24978
#
# Compressibility (1/GPa) = 0.02307405
#
# Stress axis : x y z
#
# Youngs Moduli (GPa) = 59.71556 59.71530 62.71807
#
# Poissons Ratio (x) = 0.15214 0.33346
# Poissons Ratio (y) = 0.15214 0.33346
# Poissons Ratio (z) = 0.31749 0.31749
#
# Static dielectric constant tensor:
#      x y z
#    x 1.649460 0.000000 0.000000 
#    y 0.000000 1.649460 0.000000 
#    z 0.000000 0.000000 1.588130 
# 
# From -- ./inp_files/3873.got.cif
#   From: 2010.05.17/outbox.cif.g08.bks.cpg/sg163_2_cif.got.tgz:3873.got - 2010.05.20 10:56:03.
