data_PCOD9578127
_publ_section_title
;
Structure prediction by ZEFSAII (Michael W. Deem and Ramdas Pophale) SiO2 
 PCOD9578127
Probable space group: P -3 1 C
;
_chemical_formula_sum "Si O2"
_cell_formula_units_Z 46
_cell_length_a 20.214730
_cell_length_b 20.214730
_cell_length_c 8.665540
_cell_angle_alpha 90.000000
_cell_angle_beta 90.000000
_cell_angle_gamma 120.000000
_cell_volume 3066.635459
_symmetry_space_group_name_H-M "P -3 1 C"
_symmetry_group_IT_number 163
_symmetry_cell_setting 'hexagonal'
loop_
_space_group_symop_operation_xyz
x,y,z
-y,x-y,z
-x+y,-x,z
-y,-x,1/2-z
-x+y,y,1/2-z
x,x-y,1/2-z
-x,-y,-z
y,-x+y,-z
x-y,x,-z
y,x,1/2+z
x-y,-y,1/2+z
-x,-x+y,1/2+z
loop_
_atom_site_type_symbol
_atom_site_label
_atom_site_fract_x
_atom_site_fract_y
_atom_site_fract_z
Si Si1 0.653446 0.557404 0.934517
Si Si2 0.059004 0.607169 0.721065
Si Si3 0.446357 0.618696 0.032888
Si Si4 0.666668 0.333334 0.557575
Si Si5 0.766384 0.233617 0.750000
O O1 0.620298 0.605031 0.848875
O O2 0.587481 0.468051 0.911121
O O3 0.734181 0.572750 0.865921
O O4 0.651828 0.567660 0.118078
O O5 0.040084 0.520042 0.750000
O O6 0.127329 0.635719 0.597835
O O7 0.368721 0.617589 0.990045
O O8 0.482961 0.689358 0.150991
O O9 0.666668 0.333334 0.750000
#
# Coordination Sequence:
#
# PCOD9578127 Si02
#       5
#    12  12  12   4   6
#     4  11  21  35  51  67  89 120 156 195 248 306
#     4  10  21  36  50  66  86 122 160 191 236 315
#     4  11  20  32  48  67  92 119 155 194 253 307
#     4  12  18  30  46  68  97 121 149 199 264 307
#     4  12  20  30  50  66  90 116 144 198 248 294
#
# _framework density 15.000152
#
# number of rings (size 3 to 8) (size 9 to 14) (size 15 to 20)
#    0.000    1.043    3.913    7.043    0.000    1.043 
#    4.696    0.000    0.000    0.000    0.000    0.000 
#    0.000    0.000    0.000    0.000    0.000    0.000 
#
# Total GULP energy -256199.452864 kJ/mol
# GULP energy per Si atom -5569.553323 kJ/mol
# Density = 1.496601 g / cm^3
# Si number density = 15.000152 Si / 1000 Ang^3
#
#
#
# Elastic Constant Matrix: (Units=GPa)
#
#
# Indices 1 2 3 4 5 6 
#
# 1 60.2482 25.7171 48.5208 0.0000 -2.0879 0.0002
# 2 25.7171 60.2486 48.5210 -0.0001 2.0877 0.0002
# 3 48.5208 48.5210 100.9011 0.0001 0.0000 0.0001
# 4 0.0000 -0.0001 0.0001 21.3092 -0.0001 2.0877
# 5 -2.0879 2.0877 0.0000 -0.0001 21.3093 0.0001
# 6 0.0002 0.0002 0.0001 2.0877 0.0001 17.2657
#
#
#
# Elastic Compliance Matrix: (Units=1/GPa)
#
#
# Indices 1 2 3 4 5 6 
#
# 1 0.027376 -0.001931 -0.012236 0.000000 0.002871 0.000000
# 2 -0.001931 0.027376 -0.012236 0.000000 -0.002871 0.000000
# 3 -0.012236 -0.012236 0.021679 0.000000 0.000000 0.000000
# 4 0.000000 0.000000 0.000000 0.047491 0.000000 -0.005742
# 5 0.002871 -0.002871 0.000000 0.000000 0.047491 0.000000
# 6 0.000000 0.000000 0.000000 -0.005742 0.000000 0.058613
#
#
# Mechanical properties :
#
#
# Convention : Reuss Voigt Hill
#
# Bulk Modulus (GPa) = 42.32796 51.87953 47.10375
# Shear Modulus (GPa) = 17.19962 18.55276 17.87619
#
# Velocity S-wave (km/s) = 3.38987 3.52069 3.45590
# Velocity P-wave (km/s) = 6.60312 7.15458 6.88438
#
# Compressibility (1/GPa) = 0.02362504
#
# Stress axis : x y z
#
# Youngs Moduli (GPa) = 36.52857 36.52885 46.12847
#
# Poissons Ratio (x) = 0.07053 0.56442
# Poissons Ratio (y) = 0.07053 0.56442
# Poissons Ratio (z) = 0.44696 0.44696
#
# Static dielectric constant tensor:
#      x y z
#    x 1.517680 0.000000 0.000000 
#    y 0.000000 1.517680 0.000000 
#    z 0.000000 0.000000 1.606830 
# 
# From -- ./inp_files/932.got.cif
#   From: 2010.05.17/outbox.cif.g08.bks.cpg/sg163_1_cif.got.tgz:932.got - 2010.05.20 10:56:03.
