data_PCOD9578412
_publ_section_title
;
Structure prediction by ZEFSAII (Michael W. Deem and Ramdas Pophale) SiO2 
 PCOD9578412
Probable space group: P -3 M 1
;
_chemical_formula_sum "Si O2"
_cell_formula_units_Z 96
_cell_length_a 17.725053
_cell_length_b 17.725053
_cell_length_c 21.167331
_cell_angle_alpha 90.000000
_cell_angle_beta 90.000000
_cell_angle_gamma 120.000000
_cell_volume 5759.328065
_symmetry_space_group_name_H-M "P -3 M 1"
_symmetry_group_IT_number 164
_symmetry_cell_setting 'hexagonal'
loop_
_space_group_symop_operation_xyz
x,y,z
-y,x-y,z
-x+y,-x,z
x-y,-y,-z
-x,-x+y,-z
y,x,-z
-x,-y,-z
y,-x+y,-z
x-y,x,-z
-x+y,y,z
x,x-y,z
-y,-x,z
loop_
_atom_site_type_symbol
_atom_site_label
_atom_site_fract_x
_atom_site_fract_y
_atom_site_fract_z
Si Si1 0.227695 0.030799 0.932427
Si Si2 0.589694 0.585415 0.735005
Si Si3 0.664189 0.507065 0.838091
Si Si4 0.000364 0.173275 0.429933
Si Si5 0.167490 0.998944 0.789741
Si Si6 0.308748 0.069753 0.683821
Si Si7 0.335466 0.846550 0.828871
Si Si8 0.001809 0.388537 0.928745
O O1 0.270272 0.135136 0.931851
O O2 0.178296 0.000307 0.865605
O O3 0.296234 0.998221 0.930499
O O4 0.179047 0.000000 0.000000
O O5 0.498736 0.501265 0.718189
O O6 0.640751 0.552089 0.780861
O O7 0.658295 0.629091 0.679545
O O8 0.565069 0.650158 0.772350
O O9 0.762968 0.525936 0.839434
O O10 0.595994 0.404007 0.834894
O O11 0.635437 0.546112 0.896100
O O12 0.070178 0.140355 0.434784
O O13 0.033280 0.242046 0.373909
O O14 0.000000 0.209122 0.500000
O O15 0.905874 0.094127 0.415372
O O16 0.136027 0.068014 0.775071
O O17 0.255851 0.034191 0.750151
O O18 0.096822 0.903179 0.769203
O O19 0.348058 0.174029 0.684579
O O20 0.409429 0.818857 0.821059
O O21 0.238452 0.761549 0.832827
O O22 0.366181 0.912364 0.889221
O O23 0.000000 0.415533 0.000000
#
# Coordination Sequence:
#
# PCOD9578412 Si02
#       8
#    12  12  12  12  12  12  12  12
#     4  10  20  32  46  63  85 118 160 201 237 276
#     4   9  19  34  51  71  96 124 150 185 238 291
#     4  10  19  32  50  70  92 117 148 186 230 284
#     4   9  17  29  46  71 106 146 180 205 231 266
#     4  10  19  29  42  63  92 124 157 193 232 272
#     4  10  19  30  48  73  99 128 163 202 238 275
#     4  10  21  36  53  71  90 115 148 189 237 289
#     4  10  21  34  48  64  87 115 146 186 238 291
#
# _framework density 16.668612
#
# number of rings (size 3 to 8) (size 9 to 14) (size 15 to 20)
#    0.000    2.250    0.000    4.625    0.000    7.500 
#    0.000    1.250    0.000    4.125    0.000    0.000 
#    0.000    0.000    0.000    0.250    0.000    0.000 
#
# Total GULP energy -534619.110433 kJ/mol
# GULP energy per Si atom -5568.949067 kJ/mol
# Density = 1.663067 g / cm^3
# Si number density = 16.668612 Si / 1000 Ang^3
#
#
#
# Elastic Constant Matrix: (Units=GPa)
#
#
# Indices 1 2 3 4 5 6 
#
# 1 82.4989 47.4400 18.6941 -2.5903 0.0000 0.0000
# 2 47.4400 82.4989 18.6941 2.5903 0.0000 0.0000
# 3 18.6941 18.6941 52.3199 0.0000 0.0000 0.0000
# 4 -2.5903 2.5903 0.0000 14.8172 0.0000 0.0000
# 5 0.0000 0.0000 0.0000 0.0000 14.8172 -2.5903
# 6 0.0000 0.0000 0.0000 0.0000 -2.5903 17.5294
#
#
#
# Elastic Compliance Matrix: (Units=1/GPa)
#
#
# Indices 1 2 3 4 5 6 
#
# 1 0.018929 -0.010351 -0.003065 0.005119 0.000000 0.000000
# 2 -0.010351 0.018929 -0.003065 -0.005119 0.000000 0.000000
# 3 -0.003065 -0.003065 0.021303 0.000000 0.000000 0.000000
# 4 0.005119 -0.005119 0.000000 0.069279 0.000000 0.000000
# 5 0.000000 0.000000 0.000000 0.000000 0.069279 0.010237
# 6 0.000000 0.000000 0.000000 0.000000 0.010237 0.058560
#
#
# Mechanical properties :
#
#
# Convention : Reuss Voigt Hill
#
# Bulk Modulus (GPa) = 38.16871 42.99710 40.58291
# Shear Modulus (GPa) = 16.78007 18.26542 17.52275
#
# Velocity S-wave (km/s) = 3.17627 3.31387 3.24580
# Velocity P-wave (km/s) = 6.03323 6.36346 6.20054
#
# Compressibility (1/GPa) = 0.02619947
#
# Stress axis : x y z
#
# Youngs Moduli (GPa) = 52.82953 52.82953 46.94092
#
# Poissons Ratio (x) = 0.54684 0.14387
# Poissons Ratio (y) = 0.54684 0.14387
# Poissons Ratio (z) = 0.16192 0.16192
#
# Static dielectric constant tensor:
#      x y z
#    x 1.591920 0.000000 0.000000 
#    y 0.000000 1.591920 0.000000 
#    z 0.000000 0.000000 1.584690 
# 
# From -- ./inp_files/4778.got.cif
#   From: 2010.05.17/outbox.cif.g08.bks.cpg/sg164_3_cif.got.tgz:4778.got - 2010.05.20 10:58:56.
