data_PCOD9578063
_publ_section_title
;
Structure prediction by ZEFSAII (Michael W. Deem and Ramdas Pophale) SiO2 
 PCOD9578063
Probable space group: P -3 1 C
;
_chemical_formula_sum "Si O2"
_cell_formula_units_Z 84
_cell_length_a 17.167849
_cell_length_b 17.167849
_cell_length_c 18.105406
_cell_angle_alpha 90.000000
_cell_angle_beta 90.000000
_cell_angle_gamma 120.000000
_cell_volume 4621.369239
_symmetry_space_group_name_H-M "P -3 1 C"
_symmetry_group_IT_number 163
_symmetry_cell_setting 'hexagonal'
loop_
_space_group_symop_operation_xyz
x,y,z
-y,x-y,z
-x+y,-x,z
-y,-x,1/2-z
-x+y,y,1/2-z
x,x-y,1/2-z
-x,-y,-z
y,-x+y,-z
x-y,x,-z
y,x,1/2+z
x-y,-y,1/2+z
-x,-x+y,1/2+z
loop_
_atom_site_type_symbol
_atom_site_label
_atom_site_fract_x
_atom_site_fract_y
_atom_site_fract_z
Si Si1 0.843878 0.847661 0.709054
Si Si2 0.561808 0.623495 0.760395
Si Si3 0.265628 0.897007 0.212205
Si Si4 0.842258 0.010469 0.961802
Si Si5 0.146939 0.480904 0.606119
Si Si6 0.515961 0.669250 0.913369
Si Si7 0.324651 0.957553 0.050581
O O1 0.802493 0.901247 0.750000
O O2 0.785057 0.740182 0.714870
O O3 0.853725 0.867008 0.622114
O O4 0.937292 0.874584 0.750000
O O5 0.470001 0.530000 0.750000
O O6 0.642597 0.602599 0.754921
O O7 0.556364 0.678913 0.690417
O O8 0.565300 0.668875 0.837820
O O9 0.198318 0.801683 0.250000
O O10 0.294491 0.899426 0.126782
O O11 0.757133 0.024808 0.967051
O O12 0.829613 0.930605 0.014425
O O13 0.236165 0.481233 0.580917
O O14 0.165543 0.582333 0.596771
O O15 0.054598 0.412545 0.564486
O O16 0.565187 0.658803 0.984500
#
# Coordination Sequence:
#
# PCOD9578063 Si02
#       7
#    12  12  12  12  12  12  12
#     4  10  20  33  50  70  98 136 175 215 263 316
#     4   9  20  36  57  83 113 146 180 224 283 340
#     4   9  20  37  55  77 106 143 188 229 266 320
#     4  11  22  35  50  73 105 140 181 231 276 326
#     4  10  21  38  56  86 116 144 184 226 279 348
#     4  11  21  36  61  85 114 148 180 229 286 340
#     4  10  22  37  54  80 112 145 187 230 275 336
#
# _framework density 18.176431000000001
#
# number of rings (size 3 to 8) (size 9 to 14) (size 15 to 20)
#    0.000    2.000    0.000    3.143    0.000    9.143 
#    0.000    1.429    0.000    0.286    0.000    0.000 
#    0.000    0.000    0.000    0.000    0.000    0.000 
#
# Total GULP energy -468689.089330 kJ/mol
# GULP energy per Si atom -5579.632016 kJ/mol
# Density = 1.813506 g / cm^3
# Si number density = 18.176431 Si / 1000 Ang^3
#
#
#
# Elastic Constant Matrix: (Units=GPa)
#
#
# Indices 1 2 3 4 5 6 
#
# 1 63.0982 31.2614 43.8294 -0.0001 -5.6178 0.0000
# 2 31.2614 63.0982 43.8294 0.0001 5.6178 0.0000
# 3 43.8294 43.8294 119.1684 0.0000 0.0000 0.0000
# 4 -0.0001 0.0001 0.0000 21.4396 0.0000 5.6178
# 5 -5.6178 5.6178 0.0000 0.0000 21.4396 -0.0001
# 6 0.0000 0.0000 0.0000 5.6178 -0.0001 15.9184
#
#
#
# Elastic Compliance Matrix: (Units=1/GPa)
#
#
# Indices 1 2 3 4 5 6 
#
# 1 0.025355 -0.009256 -0.005921 0.000000 0.009069 0.000000
# 2 -0.009256 0.025355 -0.005921 0.000000 -0.009069 0.000000
# 3 -0.005921 -0.005921 0.012747 0.000000 0.000000 0.000000
# 4 0.000000 0.000000 0.000000 0.051395 0.000000 -0.018138
# 5 0.009069 -0.009069 0.000000 0.000000 0.051395 0.000000
# 6 0.000000 0.000000 0.000000 -0.018138 0.000000 0.069222
#
#
# Mechanical properties :
#
#
# Convention : Reuss Voigt Hill
#
# Bulk Modulus (GPa) = 47.03715 53.68948 50.36332
# Shear Modulus (GPa) = 17.55919 20.18914 18.87417
#
# Velocity S-wave (km/s) = 3.11149 3.33638 3.22590
# Velocity P-wave (km/s) = 6.23240 6.66663 6.45317
#
# Compressibility (1/GPa) = 0.02125979
#
# Stress axis : x y z
#
# Youngs Moduli (GPa) = 39.44071 39.44071 78.45136
#
# Poissons Ratio (x) = 0.36508 0.46449
# Poissons Ratio (y) = 0.36508 0.46449
# Poissons Ratio (z) = 0.23352 0.23352
#
# Static dielectric constant tensor:
#      x y z
#    x 1.617350 0.000000 0.000000 
#    y 0.000000 1.617350 0.000000 
#    z 0.000000 0.000000 1.638730 
# 
# From -- ./inp_files/2686.got.cif
#   From: 2010.05.17/outbox.cif.g08.bks.cpg/sg163_2_cif.got.tgz:2686.got - 2010.05.20 10:56:03.
