data_PCOD9578214
_publ_section_title
;
Structure prediction by ZEFSAII (Michael W. Deem and Ramdas Pophale) SiO2 
 PCOD9578214
Probable space group: P -3 1 C
;
_chemical_formula_sum "Si O2"
_cell_formula_units_Z 52
_cell_length_a 12.028614
_cell_length_b 12.028614
_cell_length_c 19.586982
_cell_angle_alpha 90.000000
_cell_angle_beta 90.000000
_cell_angle_gamma 120.000000
_cell_volume 2454.309526
_symmetry_space_group_name_H-M "P -3 1 C"
_symmetry_group_IT_number 163
_symmetry_cell_setting 'hexagonal'
loop_
_space_group_symop_operation_xyz
x,y,z
-y,x-y,z
-x+y,-x,z
-y,-x,1/2-z
-x+y,y,1/2-z
x,x-y,1/2-z
-x,-y,-z
y,-x+y,-z
x-y,x,-z
y,x,1/2+z
x-y,-y,1/2+z
-x,-x+y,1/2+z
loop_
_atom_site_type_symbol
_atom_site_label
_atom_site_fract_x
_atom_site_fract_y
_atom_site_fract_z
Si Si1 0.000000 0.000000 0.916904
Si Si2 0.605566 0.957670 0.009674
Si Si3 0.852684 0.155572 0.398037
Si Si4 0.850358 0.149643 0.250000
Si Si5 0.229045 0.726935 0.128273
Si Si6 0.847725 0.695449 0.750000
O O1 0.080139 0.932753 0.893015
O O2 0.000000 0.000000 0.000000
O O3 0.550158 0.825811 0.053639
O O4 0.721158 0.061233 0.055649
O O5 0.656799 0.934920 0.938444
O O6 0.500000 0.000000 0.000000
O O7 0.830250 0.196405 0.323384
O O8 0.002101 0.217097 0.239252
O O9 0.196538 0.579476 0.137309
O O10 0.171643 0.777997 0.184850
#
# Coordination Sequence:
#
# PCOD9578214 Si02
#       6
#     4  12  12   6  12   6
#     4  12  21  40  77 106 150 163 233 295 369 415
#     4  12  25  45  71 101 143 187 251 297 355 427
#     4  12  25  45  67 111 140 191 225 301 368 425
#     4  12  27  40  70 102 154 181 226 286 380 442
#     4  10  24  44  72 105 134 187 247 308 350 413
#     4  12  23  46  66 108 148 185 228 296 372 446
#
# _framework density 21.187224000000001
#
# number of rings (size 3 to 8) (size 9 to 14) (size 15 to 20)
#    0.462    0.000    4.615    3.692    6.462    0.000 
#    1.385    1.154    0.000    0.000    0.000    0.000 
#    0.000    0.000    0.000    0.000    0.000    0.000 
#
# Total GULP energy -290730.137785 kJ/mol
# GULP energy per Si atom -5590.964188 kJ/mol
# Density = 2.113900 g / cm^3
# Si number density = 21.187224 Si / 1000 Ang^3
#
#
#
# Elastic Constant Matrix: (Units=GPa)
#
#
# Indices 1 2 3 4 5 6 
#
# 1 103.9902 42.4357 42.1333 0.0001 1.0515 0.0000
# 2 42.4357 103.9902 42.1333 -0.0001 -1.0515 0.0000
# 3 42.1333 42.1333 160.9316 0.0000 0.0000 0.0000
# 4 0.0001 -0.0001 0.0000 23.5562 0.0000 -1.0515
# 5 1.0515 -1.0515 0.0000 0.0000 23.5562 0.0001
# 6 0.0000 0.0000 0.0000 -1.0515 0.0001 30.7772
#
#
#
# Elastic Compliance Matrix: (Units=1/GPa)
#
#
# Indices 1 2 3 4 5 6 
#
# 1 0.012156 -0.004115 -0.002105 0.000000 -0.000726 0.000000
# 2 -0.004115 0.012156 -0.002105 0.000000 0.000726 0.000000
# 3 -0.002105 -0.002105 0.007316 0.000000 0.000000 0.000000
# 4 0.000000 0.000000 0.000000 0.042517 0.000000 0.001453
# 5 -0.000726 0.000726 0.000000 0.000000 0.042517 0.000000
# 6 0.000000 0.000000 0.000000 0.001453 0.000000 0.032541
#
#
# Mechanical properties :
#
#
# Convention : Reuss Voigt Hill
#
# Bulk Modulus (GPa) = 66.76807 69.14629 67.95718
# Shear Modulus (GPa) = 29.26636 31.72524 30.49580
#
# Velocity S-wave (km/s) = 3.72064 3.87379 3.79799
# Velocity P-wave (km/s) = 7.07385 7.26051 7.16779
#
# Compressibility (1/GPa) = 0.01497722
#
# Stress axis : x y z
#
# Youngs Moduli (GPa) = 82.26562 82.26562 136.68429
#
# Poissons Ratio (x) = 0.33851 0.28774
# Poissons Ratio (y) = 0.33851 0.28774
# Poissons Ratio (z) = 0.17318 0.17318
#
# Static dielectric constant tensor:
#      x y z
#    x 1.760150 0.000000 0.000000 
#    y 0.000000 1.760150 0.000000 
#    z 0.000000 0.000000 1.833590 
# 
# From -- ./inp_files/3528.got.cif
#   From: 2010.05.17/outbox.cif.g08.bks.cpg/sg163_2_cif.got.tgz:3528.got - 2010.05.20 10:56:03.
