data_PCOD9578120
_publ_section_title
;
Structure prediction by ZEFSAII (Michael W. Deem and Ramdas Pophale) SiO2 
 PCOD9578120
Probable space group: P -3 1 C
;
_chemical_formula_sum "Si O2"
_cell_formula_units_Z 46
_cell_length_a 13.984738
_cell_length_b 13.984738
_cell_length_c 12.361453
_cell_angle_alpha 90.000000
_cell_angle_beta 90.000000
_cell_angle_gamma 120.000000
_cell_volume 2093.672856
_symmetry_space_group_name_H-M "P -3 1 C"
_symmetry_group_IT_number 163
_symmetry_cell_setting 'hexagonal'
loop_
_space_group_symop_operation_xyz
x,y,z
-y,x-y,z
-x+y,-x,z
-y,-x,1/2-z
-x+y,y,1/2-z
x,x-y,1/2-z
-x,-y,-z
y,-x+y,-z
x-y,x,-z
y,x,1/2+z
x-y,-y,1/2+z
-x,-x+y,1/2+z
loop_
_atom_site_type_symbol
_atom_site_label
_atom_site_fract_x
_atom_site_fract_y
_atom_site_fract_z
Si Si1 0.464425 0.589869 0.475353
Si Si2 0.881027 0.762053 0.750000
Si Si3 0.666668 0.333335 0.377027
Si Si4 0.409830 0.241866 0.922140
Si Si5 0.784455 0.949643 0.560075
O O1 0.500000 0.500000 0.500000
O O2 0.416879 0.628363 0.575667
O O3 0.354985 0.521709 0.403315
O O4 0.559192 0.704551 0.426981
O O5 0.893956 0.678615 0.829799
O O6 0.834965 0.824118 0.826403
O O7 0.666668 0.333334 0.250000
O O8 0.345961 0.239450 0.033220
O O9 0.809468 0.853186 0.529561
#
# Coordination Sequence:
#
# PCOD9578120 Si02
#       5
#    12   6   4  12  12
#     4  10  20  41  66  88 135 168 210 281 328 368
#     4  10  22  40  64  92 132 172 222 262 344 402
#     4   9  21  42  63 100 131 169 228 270 324 412
#     4  10  22  40  62  95 132 167 220 277 315 392
#     4  10  21  39  63  95 134 170 216 275 328 394
#
# _framework density 21.970956999999999
#
# number of rings (size 3 to 8) (size 9 to 14) (size 15 to 20)
#    0.000    2.087    0.000    3.913    0.000    5.217 
#   14.087    0.000    0.000    0.000    3.391    0.000 
#    0.000    0.000    0.000    0.000    0.000    0.000 
#
# Total GULP energy -256434.117059 kJ/mol
# GULP energy per Si atom -5574.654719 kJ/mol
# Density = 2.192095 g / cm^3
# Si number density = 21.970957 Si / 1000 Ang^3
#
#
#
# Elastic Constant Matrix: (Units=GPa)
#
#
# Indices 1 2 3 4 5 6 
#
# 1 125.0636 28.8016 38.6119 0.0000 -4.8031 0.0003
# 2 28.8016 125.0644 38.6120 0.0001 4.8031 0.0004
# 3 38.6119 38.6120 109.5679 0.0002 0.0002 0.0001
# 4 0.0000 0.0001 0.0002 17.4268 0.0002 4.8031
# 5 -4.8031 4.8031 0.0002 0.0002 17.4268 0.0001
# 6 0.0003 0.0004 0.0001 4.8031 0.0001 48.1313
#
#
#
# Elastic Compliance Matrix: (Units=1/GPa)
#
#
# Indices 1 2 3 4 5 6 
#
# 1 0.009289 -0.001393 -0.002782 0.000000 0.002944 0.000000
# 2 -0.001393 0.009289 -0.002782 0.000000 -0.002944 0.000000
# 3 -0.002782 -0.002782 0.011088 0.000000 0.000000 0.000000
# 4 0.000000 0.000000 0.000000 0.059006 -0.000001 -0.005888
# 5 0.002944 -0.002944 0.000000 -0.000001 0.059006 0.000000
# 6 0.000000 0.000000 0.000000 -0.005888 0.000000 0.021364
#
#
# Mechanical properties :
#
#
# Convention : Reuss Voigt Hill
#
# Bulk Modulus (GPa) = 63.49456 63.52743 63.51099
# Shear Modulus (GPa) = 26.56646 33.50834 30.03740
#
# Velocity S-wave (km/s) = 3.48107 3.90951 3.70150
# Velocity P-wave (km/s) = 6.71708 7.02539 6.87297
#
# Compressibility (1/GPa) = 0.01574938
#
# Stress axis : x y z
#
# Youngs Moduli (GPa) = 107.65531 107.65614 90.18883
#
# Poissons Ratio (x) = 0.14999 0.25095
# Poissons Ratio (y) = 0.14999 0.25095
# Poissons Ratio (z) = 0.29955 0.29955
#
# Static dielectric constant tensor:
#      x y z
#    x 1.872800 0.000000 0.000000 
#    y 0.000000 1.872800 0.000000 
#    z 0.000000 0.000000 1.840120 
# 
# From -- ./inp_files/1576.got.cif
#   From: 2010.05.17/outbox.cif.g08.bks.cpg/sg163_1_cif.got.tgz:1576.got - 2010.05.20 10:56:03.
