data_PCOD9578243
_publ_section_title
;
Structure prediction by ZEFSAII (Michael W. Deem and Ramdas Pophale) SiO2 
 PCOD9578243
Probable space group: P -3 1 C
;
_chemical_formula_sum "Si O2"
_cell_formula_units_Z 48
_cell_length_a 13.070230
_cell_length_b 13.070230
_cell_length_c 12.442248
_cell_angle_alpha 90.000000
_cell_angle_beta 90.000000
_cell_angle_gamma 120.000000
_cell_volume 1840.754815
_symmetry_space_group_name_H-M "P -3 1 C"
_symmetry_group_IT_number 163
_symmetry_cell_setting 'hexagonal'
loop_
_space_group_symop_operation_xyz
x,y,z
-y,x-y,z
-x+y,-x,z
-y,-x,1/2-z
-x+y,y,1/2-z
x,x-y,1/2-z
-x,-y,-z
y,-x+y,-z
x-y,x,-z
y,x,1/2+z
x-y,-y,1/2+z
-x,-x+y,1/2+z
loop_
_atom_site_type_symbol
_atom_site_label
_atom_site_fract_x
_atom_site_fract_y
_atom_site_fract_z
Si Si1 0.122911 0.652081 0.684491
Si Si2 0.415766 0.528486 0.127726
Si Si3 0.401041 0.233439 0.971531
Si Si4 0.997734 0.772173 0.801039
O O1 0.187075 0.593538 0.750000
O O2 0.178490 0.760451 0.600398
O O3 0.027771 0.537768 0.621058
O O4 0.041844 0.685250 0.757704
O O5 0.425485 0.574516 0.250000
O O6 0.481255 0.646826 0.061836
O O7 0.288754 0.430103 0.085036
O O8 0.280968 0.226480 0.923266
O O9 0.877818 0.755635 0.750000
O O10 0.099876 0.900125 0.750000
#
# Coordination Sequence:
#
# PCOD9578243 Si02
#       4
#    12  12  12  12
#     4  11  25  43  70 106 149 200 246 307 390 460
#     4  11  21  42  72 106 144 190 244 310 375 459
#     4  12  24  43  75 110 149 190 255 318 379 457
#     4  12  26  46  71 106 148 201 259 317 377 445
#
# _framework density 26.076259
#
# number of rings (size 3 to 8) (size 9 to 14) (size 15 to 20)
#    0.000    0.500    7.500    2.250    3.500    0.000 
#    0.000    0.000    0.000    3.500    0.000    0.000 
#    0.000    0.000    0.000    0.000    0.000    0.000 
#
# Total GULP energy -267287.037115 kJ/mol
# GULP energy per Si atom -5568.479940 kJ/mol
# Density = 2.601691 g / cm^3
# Si number density = 26.076259 Si / 1000 Ang^3
#
#
#
# Elastic Constant Matrix: (Units=GPa)
#
#
# Indices 1 2 3 4 5 6 
#
# 1 127.3017 39.3556 59.3116 -0.0002 11.2113 0.0000
# 2 39.3556 127.3017 59.3116 0.0002 -11.2113 0.0000
# 3 59.3116 59.3116 130.6885 0.0000 0.0000 0.0000
# 4 -0.0002 0.0002 0.0000 32.8742 0.0000 -11.2113
# 5 11.2113 -11.2113 0.0000 0.0000 32.8742 -0.0002
# 6 0.0000 0.0000 0.0000 -11.2113 -0.0002 43.9730
#
#
#
# Elastic Compliance Matrix: (Units=1/GPa)
#
#
# Indices 1 2 3 4 5 6 
#
# 1 0.010659 -0.001795 -0.004023 0.000000 -0.004247 0.000000
# 2 -0.001795 0.010659 -0.004023 0.000000 0.004247 0.000000
# 3 -0.004023 -0.004023 0.011303 0.000000 0.000000 0.000000
# 4 0.000000 0.000000 0.000000 0.033316 0.000000 0.008494
# 5 -0.004247 0.004247 0.000000 0.000000 0.033316 0.000000
# 6 0.000000 0.000000 0.000000 0.008494 0.000000 0.024907
#
#
# Mechanical properties :
#
#
# Convention : Reuss Voigt Hill
#
# Bulk Modulus (GPa) = 77.28193 77.91659 77.59926
# Shear Modulus (GPa) = 33.74909 37.09851 35.42380
#
# Velocity S-wave (km/s) = 3.60147 3.77595 3.68974
# Velocity P-wave (km/s) = 6.85531 6.99683 6.92643
#
# Compressibility (1/GPa) = 0.01293964
#
# Stress axis : x y z
#
# Youngs Moduli (GPa) = 93.82182 93.82182 88.47180
#
# Poissons Ratio (x) = 0.16840 0.35589
# Poissons Ratio (y) = 0.16840 0.35589
# Poissons Ratio (z) = 0.37741 0.37741
#
# Static dielectric constant tensor:
#      x y z
#    x 2.023050 0.000000 0.000000 
#    y 0.000000 2.023050 0.000000 
#    z 0.000000 0.000000 2.370130 
# 
# From -- ./inp_files/1557.got.cif
#   From: 2010.05.17/outbox.cif.g08.bks.cpg/sg163_1_cif.got.tgz:1557.got - 2010.05.20 10:56:03.
