data_PCOD9578322
_publ_section_title
;
Structure prediction by ZEFSAII (Michael W. Deem and Ramdas Pophale) SiO2 
 PCOD9578322
Probable space group: P -3 M 1
;
_chemical_formula_sum "Si O2"
_cell_formula_units_Z 96
_cell_length_a 17.967680
_cell_length_b 17.967680
_cell_length_c 20.783880
_cell_angle_alpha 90.000000
_cell_angle_beta 90.000000
_cell_angle_gamma 120.000000
_cell_volume 5810.871432
_symmetry_space_group_name_H-M "P -3 M 1"
_symmetry_group_IT_number 164
_symmetry_cell_setting 'hexagonal'
loop_
_space_group_symop_operation_xyz
x,y,z
-y,x-y,z
-x+y,-x,z
x-y,-y,-z
-x,-x+y,-z
y,x,-z
-x,-y,-z
y,-x+y,-z
x-y,x,-z
-x+y,y,z
x,x-y,z
-y,-x,z
loop_
_atom_site_type_symbol
_atom_site_label
_atom_site_fract_x
_atom_site_fract_y
_atom_site_fract_z
Si Si1 0.267694 0.361552 0.974794
Si Si2 0.030761 0.601425 0.859440
Si Si3 0.429819 0.026391 0.285238
Si Si4 0.662956 0.502596 0.546989
Si Si5 0.742493 0.649845 0.649898
Si Si6 0.557799 0.863299 0.594069
Si Si7 0.201625 0.236933 0.572322
Si Si8 0.490807 0.332262 0.905651
O O1 0.168246 0.336491 0.969635
O O2 0.319672 0.395285 0.908218
O O3 0.287892 0.287892 0.000000
O O4 0.311099 0.439508 0.026558
O O5 0.044502 0.522251 0.880327
O O6 0.062454 0.625136 0.786330
O O7 0.926936 0.561236 0.861765
O O8 0.494299 0.988597 0.286969
O O9 0.456521 0.093789 0.343671
O O10 0.331210 0.958529 0.299061
O O11 0.741652 0.483304 0.547897
O O12 0.576614 0.423387 0.573853
O O13 0.695196 0.588338 0.588463
O O14 0.648396 0.517570 0.472997
O O15 0.815020 0.630039 0.672999
O O16 0.786606 0.746663 0.623202
O O17 0.528366 0.764183 0.606414
O O18 0.659560 0.911469 0.578951
O O19 0.211928 0.211928 0.500000
O O20 0.102352 0.204703 0.585932
O O21 0.489873 0.244937 0.885265
O O22 0.587809 0.412192 0.911221
#
# Coordination Sequence:
#
# PCOD9578322 Si02
#       8
#    12  12  12  12  12  12  12  12
#     4   9  17  30  50  75 100 127 157 194 237 278
#     4   9  18  31  45  66  99 132 162 195 231 269
#     4  10  20  32  47  68  93 126 165 199 227 268
#     4  10  18  29  45  66  91 119 153 193 237 282
#     4  10  20  33  48  67  91 120 153 193 241 285
#     4   9  18  30  45  65  88 116 152 194 238 283
#     4  10  17  29  47  66  86 108 137 178 234 293
#     4   9  16  27  46  71  98 127 159 192 228 267
#
# _framework density 16.520758000000001
#
# number of rings (size 3 to 8) (size 9 to 14) (size 15 to 20)
#    0.000    2.500    1.250    1.750    0.000    2.500 
#    0.000    1.875    0.000    3.125    0.000    0.000 
#    0.000    1.000    0.000    0.000    0.000    0.000 
#
# Total GULP energy -534716.450803 kJ/mol
# GULP energy per Si atom -5569.963029 kJ/mol
# Density = 1.648316 g / cm^3
# Si number density = 16.520758 Si / 1000 Ang^3
#
#
#
# Elastic Constant Matrix: (Units=GPa)
#
#
# Indices 1 2 3 4 5 6 
#
# 1 59.8711 32.0278 18.2264 2.9775 0.0000 0.0000
# 2 32.0278 59.8711 18.2264 -2.9775 0.0000 0.0000
# 3 18.2264 18.2264 53.1069 0.0000 0.0000 0.0000
# 4 2.9775 -2.9775 0.0000 12.9903 0.0000 0.0000
# 5 0.0000 0.0000 0.0000 0.0000 12.9903 2.9775
# 6 0.0000 0.0000 0.0000 0.0000 2.9775 13.9216
#
#
#
# Elastic Compliance Matrix: (Units=1/GPa)
#
#
# Indices 1 2 3 4 5 6 
#
# 1 0.025182 -0.012585 -0.004323 -0.008657 0.000000 0.000000
# 2 -0.012585 0.025182 -0.004323 0.008657 0.000000 0.000000
# 3 -0.004323 -0.004323 0.021797 0.000000 0.000000 0.000000
# 4 -0.008657 0.008657 0.000000 0.080949 0.000000 0.000000
# 5 0.000000 0.000000 0.000000 0.000000 0.080949 -0.017313
# 6 0.000000 0.000000 0.000000 0.000000 -0.017313 0.075533
#
#
# Mechanical properties :
#
#
# Convention : Reuss Voigt Hill
#
# Bulk Modulus (GPa) = 33.67273 34.42338 34.04806
# Shear Modulus (GPa) = 13.81391 14.93834 14.37613
#
# Velocity S-wave (km/s) = 2.89477 3.01028 2.95309
# Velocity P-wave (km/s) = 5.62132 5.74143 5.68170
#
# Compressibility (1/GPa) = 0.02969762
#
# Stress axis : x y z
#
# Youngs Moduli (GPa) = 39.71162 39.71162 45.87716
#
# Poissons Ratio (x) = 0.49978 0.19833
# Poissons Ratio (y) = 0.49978 0.19833
# Poissons Ratio (z) = 0.17168 0.17168
#
# Static dielectric constant tensor:
#      x y z
#    x 1.569550 0.000000 0.000000 
#    y 0.000000 1.569550 0.000000 
#    z 0.000000 0.000000 1.542440 
# 
# From -- ./inp_files/4690.got.cif
#   From: 2010.05.17/outbox.cif.g08.bks.cpg/sg164_3_cif.got.tgz:4690.got - 2010.05.20 10:58:56.
