data_PCOD9578303
_publ_section_title
;
Structure prediction by ZEFSAII (Michael W. Deem and Ramdas Pophale) SiO2 
 PCOD9578303
Probable space group: P -3 1 C
;
_chemical_formula_sum "Si O2"
_cell_formula_units_Z 60
_cell_length_a 12.000000
_cell_length_b 12.000000
_cell_length_c 27.000000
_cell_angle_alpha 90.000000
_cell_angle_beta 90.000000
_cell_angle_gamma 120.000000
_cell_volume 3367.106770
_symmetry_space_group_name_H-M "P -3 1 C"
_symmetry_group_IT_number 163
_symmetry_cell_setting 'hexagonal'
loop_
_space_group_symop_operation_xyz
x,y,z
-y,x-y,z
-x+y,-x,z
-y,-x,1/2-z
-x+y,y,1/2-z
x,x-y,1/2-z
-x,-y,-z
y,-x+y,-z
x-y,x,-z
y,x,1/2+z
x-y,-y,1/2+z
-x,-x+y,1/2+z
loop_
_atom_site_type_symbol
_atom_site_label
_atom_site_fract_x
_atom_site_fract_y
_atom_site_fract_z
Si Si1 0.595524 0.664351 0.755118
Si Si2 0.010259 0.266677 0.855570
Si Si3 0.010412 0.740051 0.344233
Si Si4 0.934507 0.342722 0.555418
Si Si5 0.074159 0.397969 0.455464
O O1 0.455166 0.544834 0.750000
O O2 0.591620 0.795810 0.750000
O O3 0.648986 0.660541 0.809139
O O4 0.682668 0.668151 0.709048
O O5 0.011502 0.323062 0.909638
O O6 0.133179 0.250654 0.848057
O O7 0.880474 0.131464 0.851198
O O8 0.009058 0.655152 0.390541
O O9 0.918891 0.465983 0.548475
O O10 0.798102 0.214000 0.551512
O O11 0.019704 0.341542 0.509577
#
# Coordination Sequence:
#
# PCOD9578303 Si02
#       5
#    12  12  12  12  12
#     4  10  20  34  52  74 100 130 164 202 244 290
#     4  10  20  34  53  76 102 132 166 205 249 297
#     4  10  20  34  53  76 102 132 166 205 249 297
#     4  10  20  34  52  74 101 133 169 209 253 301
#     4  10  20  34  52  74 101 133 169 209 253 301
#
# _framework density 17.819452999999999
#
# number of rings (size 3 to 8) (size 9 to 14) (size 15 to 20)
#    0.000    2.000    0.000    4.000    0.000    0.000 
#    0.000    2.000    0.000   24.800    0.000    0.000 
#    0.000    0.000    0.000    0.000    0.000    0.000 
#
# Total GULP energy -334591.129151 kJ/mol
# GULP energy per Si atom -5576.518819 kJ/mol
# Density = 1.777889 g / cm^3
# Si number density = 17.819453 Si / 1000 Ang^3
#
#
#
# Elastic Constant Matrix: (Units=GPa)
#
#
# Indices 1 2 3 4 5 6 
#
# 1 42.5329 5.7426 3.4547 0.0001 -0.2945 0.0000
# 2 5.7426 42.5329 3.4547 -0.0001 0.2945 0.0000
# 3 3.4547 3.4547 29.7687 0.0000 0.0000 0.0000
# 4 0.0001 -0.0001 0.0000 34.8725 0.0000 0.2945
# 5 -0.2945 0.2945 0.0000 0.0000 34.8725 0.0001
# 6 0.0000 0.0000 0.0000 0.2945 0.0001 18.3952
#
#
#
# Elastic Compliance Matrix: (Units=1/GPa)
#
#
# Indices 1 2 3 4 5 6 
#
# 1 0.024125 -0.003060 -0.002445 0.000000 0.000230 0.000000
# 2 -0.003060 0.024125 -0.002445 0.000000 -0.000230 0.000000
# 3 -0.002445 -0.002445 0.034160 0.000000 0.000000 0.000000
# 4 0.000000 0.000000 0.000000 0.028680 0.000000 -0.000459
# 5 0.000230 -0.000230 0.000000 0.000000 0.028680 0.000000
# 6 0.000000 0.000000 0.000000 -0.000459 0.000000 0.054369
#
#
# Mechanical properties :
#
#
# Convention : Reuss Voigt Hill
#
# Bulk Modulus (GPa) = 15.03527 15.57092 15.30310
# Shear Modulus (GPa) = 21.53257 24.44019 22.98638
#
# Velocity S-wave (km/s) = 3.47994 3.70746 3.59550
# Velocity P-wave (km/s) = 4.96009 5.20424 5.08363
#
# Compressibility (1/GPa) = 0.06651026
#
# Stress axis : x y z
#
# Youngs Moduli (GPa) = 41.45159 41.45159 29.27427
#
# Poissons Ratio (x) = 0.12685 0.07156
# Poissons Ratio (y) = 0.12685 0.07156
# Poissons Ratio (z) = 0.10133 0.10133
#
# Static dielectric constant tensor:
#      x y z
#    x 1.570320 0.000000 0.000000 
#    y 0.000000 1.570320 0.000000 
#    z 0.000000 0.000000 1.632460 
# 
# From -- ./inp_files/4091.got.cif
#   From: 2010.05.17/outbox.ucp.g08.bks.cvg/sg163_3_cif.got.tgz:4091.got - 2010.06.11 15:15:55.
