data_PCOD9578821
_publ_section_title
;
Structure prediction by ZEFSAII (Michael W. Deem and Ramdas Pophale) SiO2 
 PCOD9578821
Probable space group: P -3 C 1
;
_chemical_formula_sum "Si O2"
_cell_formula_units_Z 48
_cell_length_a 24.144171
_cell_length_b 24.144171
_cell_length_c 5.041998
_cell_angle_alpha 90.000000
_cell_angle_beta 90.000000
_cell_angle_gamma 120.000000
_cell_volume 2545.410888
_symmetry_space_group_name_H-M "P -3 C 1"
_symmetry_group_IT_number 165
_symmetry_cell_setting 'hexagonal'
loop_
_space_group_symop_operation_xyz
x,y,z
-y,x-y,z
-x+y,-x,z
x-y,-y,1/2-z
-x,-x+y,1/2-z
y,x,1/2-z
-x,-y,-z
y,-x+y,-z
x-y,x,-z
-x+y,y,1/2+z
x,x-y,1/2+z
-y,-x,1/2+z
loop_
_atom_site_type_symbol
_atom_site_label
_atom_site_fract_x
_atom_site_fract_y
_atom_site_fract_z
Si Si1 0.821749 0.240616 0.145610
Si Si2 0.735636 0.899030 0.890584
Si Si3 0.338255 0.398982 0.550095
Si Si4 0.000000 0.268813 0.750000
Si Si5 0.459625 0.000000 0.750000
O O1 0.794873 0.236443 0.853161
O O2 0.863720 0.105130 0.901264
O O3 0.875375 0.306090 0.276833
O O4 0.858130 0.199705 0.126957
O O5 0.748789 0.963851 0.030086
O O6 0.374516 0.374516 0.750000
O O7 0.285491 0.335214 0.397273
O O8 0.388259 0.444354 0.328525
O O9 0.500000 0.000000 0.500000
#
# Coordination Sequence:
#
# PCOD9578821 Si02
#       5
#    12  12  12   6   6
#     4  10  20  32  47  70  99 128 166 211 248 283
#     4  10  20  30  43  64  92 125 163 202 241 281
#     4  11  21  33  52  73  97 136 179 205 245 299
#     4  11  20  30  46  68  94 128 168 204 234 291
#     4  11  24  38  52  72 100 134 180 222 254 299
#
# _framework density 18.857468000000001
#
# number of rings (size 3 to 8) (size 9 to 14) (size 15 to 20)
#    0.000    1.500    3.750    4.500    3.500    0.000 
#    0.000    0.000    0.000    0.000    0.000    0.000 
#    0.000    0.000    0.000   22.500    0.000   10.000 
#
# Total GULP energy -267802.858751 kJ/mol
# GULP energy per Si atom -5579.226224 kJ/mol
# Density = 1.881455 g / cm^3
# Si number density = 18.857468 Si / 1000 Ang^3
#
#
#
# Elastic Constant Matrix: (Units=GPa)
#
#
# Indices 1 2 3 4 5 6 
#
# 1 55.1849 34.1852 28.5019 -10.3571 0.0000 0.0000
# 2 34.1852 55.1849 28.5019 10.3571 0.0000 0.0000
# 3 28.5019 28.5019 123.6285 0.0000 0.0000 0.0000
# 4 -10.3571 10.3571 0.0000 37.1141 0.0000 0.0000
# 5 0.0000 0.0000 0.0000 0.0000 37.1141 -10.3571
# 6 0.0000 0.0000 0.0000 0.0000 -10.3571 10.4998
#
#
#
# Elastic Compliance Matrix: (Units=1/GPa)
#
#
# Indices 1 2 3 4 5 6 
#
# 1 0.039413 -0.026294 -0.003024 0.018336 0.000000 0.000000
# 2 -0.026294 0.039413 -0.003024 -0.018336 0.000000 0.000000
# 3 -0.003024 -0.003024 0.009483 0.000000 0.000000 0.000000
# 4 0.018336 -0.018336 0.000000 0.037178 0.000000 0.000000
# 5 0.000000 0.000000 0.000000 0.000000 0.037178 0.036673
# 6 0.000000 0.000000 0.000000 0.000000 0.036673 0.131414
#
#
# Mechanical properties :
#
#
# Convention : Reuss Voigt Hill
#
# Bulk Modulus (GPa) = 42.33222 46.26405 44.29813
# Shear Modulus (GPa) = 13.63739 26.46621 20.05180
#
# Velocity S-wave (km/s) = 2.69212 3.75038 3.26442
# Velocity P-wave (km/s) = 5.67103 6.58336 6.14415
#
# Compressibility (1/GPa) = 0.02362267
#
# Stress axis : x y z
#
# Youngs Moduli (GPa) = 25.37249 25.37249 105.44882
#
# Poissons Ratio (x) = 0.66715 0.31892
# Poissons Ratio (y) = 0.66715 0.31892
# Poissons Ratio (z) = 0.07674 0.07674
#
# Static dielectric constant tensor:
#      x y z
#    x 1.700410 0.000000 0.000000 
#    y 0.000000 1.700410 0.000000 
#    z 0.000000 0.000000 1.741380 
# 
# From -- ./inp_files/167.got.cif
#   From: 2010.05.17/outbox.cif.g08.bks.cpg/sg165_1_cif.got.tgz:167.got - 2010.05.20 11:02:39.
