data_PCOD9578693
_publ_section_title
;
Structure prediction by ZEFSAII (Michael W. Deem and Ramdas Pophale) SiO2 
 PCOD9578693
Probable space group: P -3 M 1
;
_chemical_formula_sum "Si O2"
_cell_formula_units_Z 40
_cell_length_a 11.183804
_cell_length_b 11.183804
_cell_length_c 18.425706
_cell_angle_alpha 90.000000
_cell_angle_beta 90.000000
_cell_angle_gamma 120.000000
_cell_volume 1995.877414
_symmetry_space_group_name_H-M "P -3 M 1"
_symmetry_group_IT_number 164
_symmetry_cell_setting 'hexagonal'
loop_
_space_group_symop_operation_xyz
x,y,z
-y,x-y,z
-x+y,-x,z
x-y,-y,-z
-x,-x+y,-z
y,x,-z
-x,-y,-z
y,-x+y,-z
x-y,x,-z
-x+y,y,z
x,x-y,z
-y,-x,z
loop_
_atom_site_type_symbol
_atom_site_label
_atom_site_fract_x
_atom_site_fract_y
_atom_site_fract_z
Si Si1 0.173452 0.826549 0.305931
Si Si2 0.333334 0.666668 0.307723
Si Si3 0.668885 0.071470 0.230878
Si Si4 0.333333 0.666667 0.483797
Si Si5 0.833432 0.166569 0.520620
Si Si6 0.667602 0.609794 0.921988
O O1 0.254292 0.745709 0.282922
O O2 0.169285 0.830716 0.392096
O O3 0.023265 0.738848 0.272099
O O4 0.333334 0.666667 0.395655
O O5 0.515096 0.030192 0.253005
O O6 0.771116 0.228885 0.248102
O O7 0.668514 0.047301 0.144683
O O8 0.500810 0.750405 0.504171
O O9 0.000000 0.249647 0.500000
O O10 0.811203 0.622406 0.902020
O O11 0.550079 0.449922 0.929675
O O12 0.676739 0.676739 0.000000
#
# Coordination Sequence:
#
# PCOD9578693 Si02
#       6
#     6   2  12   2   6  12
#     4  11  22  41  69  91 127 164 220 261 315 385
#     4   9  18  39  69  99 114 162 214 278 301 363
#     4  11  23  40  63  93 126 167 212 267 319 374
#     4   9  21  45  75  99 135 171 229 272 322 402
#     4  11  25  45  69 103 138 177 220 277 343 405
#     4  10  20  35  57  85 119 160 211 261 315 374
#
# _framework density 20.041312000000001
#
# number of rings (size 3 to 8) (size 9 to 14) (size 15 to 20)
#    0.000    1.500    3.000    2.100    2.100    0.000 
#    0.900    3.000    0.000    1.200    0.000    0.000 
#    0.000    0.000    0.000    0.000    0.000    0.000 
#
# Total GULP energy -223024.809087 kJ/mol
# GULP energy per Si atom -5575.620227 kJ/mol
# Density = 1.999570 g / cm^3
# Si number density = 20.041312 Si / 1000 Ang^3
#
#
#
# Elastic Constant Matrix: (Units=GPa)
#
#
# Indices 1 2 3 4 5 6 
#
# 1 99.9891 48.3577 13.9032 -2.6741 0.0000 0.0000
# 2 48.3577 99.9887 13.9033 2.6741 0.0000 0.0000
# 3 13.9032 13.9033 59.2552 0.0000 0.0000 0.0000
# 4 -2.6741 2.6741 0.0000 24.2879 0.0000 0.0000
# 5 0.0000 0.0000 0.0000 0.0000 24.2879 -2.6741
# 6 0.0000 0.0000 0.0000 0.0000 -2.6741 25.8157
#
#
#
# Elastic Compliance Matrix: (Units=1/GPa)
#
#
# Indices 1 2 3 4 5 6 
#
# 1 0.013321 -0.006270 -0.001654 0.002157 0.000000 0.000000
# 2 -0.006270 0.013321 -0.001654 -0.002157 0.000000 0.000000
# 3 -0.001654 -0.001654 0.017653 0.000000 0.000000 0.000000
# 4 0.002157 -0.002157 0.000000 0.041648 0.000000 0.000000
# 5 0.000000 0.000000 0.000000 0.000000 0.041648 0.004314
# 6 0.000000 0.000000 0.000000 0.000000 0.004314 0.039183
#
#
# Mechanical properties :
#
#
# Convention : Reuss Voigt Hill
#
# Bulk Modulus (GPa) = 39.78195 45.72902 42.75549
# Shear Modulus (GPa) = 25.73198 27.08289 26.40743
#
# Velocity S-wave (km/s) = 3.58711 3.68006 3.63388
# Velocity P-wave (km/s) = 6.08683 6.39719 6.24394
#
# Compressibility (1/GPa) = 0.02513703
#
# Stress axis : x y z
#
# Youngs Moduli (GPa) = 75.06782 75.06742 56.64911
#
# Poissons Ratio (x) = 0.47069 0.09372
# Poissons Ratio (y) = 0.47069 0.09372
# Poissons Ratio (z) = 0.12419 0.12419
#
# Static dielectric constant tensor:
#      x y z
#    x 1.692720 0.000000 0.000000 
#    y 0.000000 1.692720 0.000000 
#    z 0.000000 0.000000 1.702460 
# 
# From -- ./inp_files/3855.got.cif
#   From: 2010.05.17/outbox.cif.g08.bks.cpg/sg164_2_cif.got.tgz:3855.got - 2010.05.20 10:58:56.
