data_PCOD9578703
_publ_section_title
;
Structure prediction by ZEFSAII (Michael W. Deem and Ramdas Pophale) SiO2 
 PCOD9578703
Probable space group: P -3 M 1
;
_chemical_formula_sum "Si O2"
_cell_formula_units_Z 96
_cell_length_a 17.587416
_cell_length_b 17.587416
_cell_length_c 21.126605
_cell_angle_alpha 90.000000
_cell_angle_beta 90.000000
_cell_angle_gamma 120.000000
_cell_volume 5659.322153
_symmetry_space_group_name_H-M "P -3 M 1"
_symmetry_group_IT_number 164
_symmetry_cell_setting 'hexagonal'
loop_
_space_group_symop_operation_xyz
x,y,z
-y,x-y,z
-x+y,-x,z
x-y,-y,-z
-x,-x+y,-z
y,x,-z
-x,-y,-z
y,-x+y,-z
x-y,x,-z
-x+y,y,z
x,x-y,z
-y,-x,z
loop_
_atom_site_type_symbol
_atom_site_label
_atom_site_fract_x
_atom_site_fract_y
_atom_site_fract_z
Si Si1 0.512961 0.667514 0.658316
Si Si2 0.486785 0.332837 0.481054
Si Si3 0.944711 0.236905 0.065330
Si Si4 0.166953 0.665586 0.078938
Si Si5 0.513554 0.666907 0.380685
Si Si6 0.420873 0.019118 0.735146
Si Si7 0.748130 0.077804 0.839286
Si Si8 0.334454 0.494598 0.926523
O O1 0.515693 0.757847 0.672516
O O2 0.412400 0.587601 0.654675
O O3 0.554791 0.675603 0.588029
O O4 0.560100 0.639289 0.709687
O O5 0.511838 0.255919 0.482189
O O6 0.572561 0.427440 0.480605
O O7 0.444147 0.326425 0.549589
O O8 0.857618 0.142383 0.056748
O O9 0.910440 0.304102 0.085386
O O10 0.005809 0.243683 0.124059
O O11 0.000000 0.266021 0.000000
O O12 0.136939 0.568470 0.102194
O O13 0.268092 0.731909 0.096512
O O14 0.113621 0.708500 0.106652
O O15 0.162266 0.663340 0.003146
O O16 0.516625 0.758313 0.367826
O O17 0.412401 0.587600 0.384593
O O18 0.556528 0.640228 0.324931
O O19 0.514127 0.028253 0.756537
O O20 0.368513 0.042586 0.785785
O O21 0.839393 0.160608 0.817302
O O22 0.256034 0.512067 0.905712
O O23 0.429144 0.570857 0.903132
#
# Coordination Sequence:
#
# PCOD9578703 Si02
#       8
#    12  12  12  12  12  12  12  12
#     4   9  17  30  48  70  96 128 167 208 248 288
#     4   8  13  22  40  65  93 126 166 210 250 286
#     4  11  22  38  58  80 100 121 153 196 249 301
#     4   9  16  27  45  70 100 131 161 189 218 258
#     4   9  16  27  43  66  97 134 173 211 250 286
#     4  10  21  33  47  70 100 133 169 205 237 279
#     4  11  22  37  54  71  95 126 158 195 240 292
#     4   9  17  29  48  76 108 138 163 188 221 265
#
# _framework density 16.963162000000001
#
# number of rings (size 3 to 8) (size 9 to 14) (size 15 to 20)
#    0.000    2.500    1.250    1.750    0.000    5.250 
#    0.000    2.500    0.000    6.250    0.000    4.375 
#    0.000    0.000    0.000    0.000    0.000    0.000 
#
# Total GULP energy -534659.574622 kJ/mol
# GULP energy per Si atom -5569.370569 kJ/mol
# Density = 1.692455 g / cm^3
# Si number density = 16.963162 Si / 1000 Ang^3
#
#
#
# Elastic Constant Matrix: (Units=GPa)
#
#
# Indices 1 2 3 4 5 6 
#
# 1 70.1711 35.7768 31.5007 1.8600 0.0000 0.0000
# 2 35.7768 70.1711 31.5007 -1.8600 0.0000 0.0000
# 3 31.5007 31.5007 52.8263 0.0000 0.0000 0.0000
# 4 1.8600 -1.8600 0.0000 17.8826 0.0000 0.0000
# 5 0.0000 0.0000 0.0000 0.0000 17.8826 1.8600
# 6 0.0000 0.0000 0.0000 0.0000 1.8600 17.1971
#
#
#
# Elastic Compliance Matrix: (Units=1/GPa)
#
#
# Indices 1 2 3 4 5 6 
#
# 1 0.022015 -0.007391 -0.008721 -0.003058 0.000000 0.000000
# 2 -0.007391 0.022015 -0.008721 0.003058 0.000000 0.000000
# 3 -0.008721 -0.008721 0.029330 0.000000 0.000000 0.000000
# 4 -0.003058 0.003058 0.000000 0.056557 0.000000 0.000000
# 5 0.000000 0.000000 0.000000 0.000000 0.056557 -0.006117
# 6 0.000000 0.000000 0.000000 0.000000 -0.006117 0.058811
#
#
# Mechanical properties :
#
#
# Convention : Reuss Voigt Hill
#
# Bulk Modulus (GPa) = 42.20028 43.41387 42.80708
# Shear Modulus (GPa) = 16.51005 16.88514 16.69760
#
# Velocity S-wave (km/s) = 3.12314 3.15842 3.14083
# Velocity P-wave (km/s) = 6.15930 6.24095 6.20026
#
# Compressibility (1/GPa) = 0.02369653
#
# Stress axis : x y z
#
# Youngs Moduli (GPa) = 45.42400 45.42400 34.09459
#
# Poissons Ratio (x) = 0.33571 0.29732
# Poissons Ratio (y) = 0.33571 0.29732
# Poissons Ratio (z) = 0.39612 0.39612
#
# Static dielectric constant tensor:
#      x y z
#    x 1.584570 0.000000 0.000000 
#    y 0.000000 1.584570 0.000000 
#    z 0.000000 0.000000 1.611360 
# 
# From -- ./inp_files/4782.got.cif
#   From: 2010.05.17/outbox.cif.g08.bks.cpg/sg164_3_cif.got.tgz:4782.got - 2010.05.20 10:58:56.
