data_PCOD9578141
_publ_section_title
;
Structure prediction by ZEFSAII (Michael W. Deem and Ramdas Pophale) SiO2 
 PCOD9578141
Probable space group: P -3 1 C
;
_chemical_formula_sum "Si O2"
_cell_formula_units_Z 60
_cell_length_a 16.799101
_cell_length_b 16.799101
_cell_length_c 12.929676
_cell_angle_alpha 90.000000
_cell_angle_beta 90.000000
_cell_angle_gamma 120.000000
_cell_volume 3160.023820
_symmetry_space_group_name_H-M "P -3 1 C"
_symmetry_group_IT_number 163
_symmetry_cell_setting 'hexagonal'
loop_
_space_group_symop_operation_xyz
x,y,z
-y,x-y,z
-x+y,-x,z
-y,-x,1/2-z
-x+y,y,1/2-z
x,x-y,1/2-z
-x,-y,-z
y,-x+y,-z
x-y,x,-z
y,x,1/2+z
x-y,-y,1/2+z
-x,-x+y,1/2+z
loop_
_atom_site_type_symbol
_atom_site_label
_atom_site_fract_x
_atom_site_fract_y
_atom_site_fract_z
Si Si1 0.782784 0.919079 0.998997
Si Si2 0.324350 0.025599 0.863339
Si Si3 0.664642 0.152747 0.763625
Si Si4 0.247370 0.888439 0.678688
Si Si5 0.012387 0.418704 0.049319
O O1 0.714465 0.887220 0.900567
O O2 0.830867 0.858099 0.011696
O O3 0.720165 0.915341 0.095806
O O4 0.429573 0.083327 0.827334
O O5 0.271961 0.967363 0.763776
O O6 0.331107 0.969913 0.961021
O O7 0.767114 0.232887 0.750000
O O8 0.594718 0.189436 0.750000
O O9 0.638288 0.095818 0.869709
O O10 0.203053 0.796948 0.750000
O O11 0.340803 0.922291 0.612343
O O12 0.000000 0.500000 0.000000
#
# Coordination Sequence:
#
# PCOD9578141 Si02
#       5
#    12  12  12  12  12
#     4  11  23  38  58  85 124 164 211 257 307 369
#     4  10  22  38  61  85 119 156 212 253 309 363
#     4  11  23  38  62  92 126 160 201 258 320 376
#     4  10  21  38  58  88 120 158 206 259 312 370
#     4  10  21  39  62  90 118 158 208 260 310 376
#
# _framework density 18.987196999999998
#
# number of rings (size 3 to 8) (size 9 to 14) (size 15 to 20)
#    0.000    1.600    4.000    0.400    8.400    0.000 
#    0.000    0.000    0.000    0.000    0.000    0.000 
#    0.000    0.000    0.000    0.000    0.000    0.000 
#
# Total GULP energy -334426.256691 kJ/mol
# GULP energy per Si atom -5573.770945 kJ/mol
# Density = 1.894398 g / cm^3
# Si number density = 18.987197 Si / 1000 Ang^3
#
#
#
# Elastic Constant Matrix: (Units=GPa)
#
#
# Indices 1 2 3 4 5 6 
#
# 1 79.5694 25.9795 36.6225 0.0003 -3.4074 0.0000
# 2 25.9795 79.5694 36.6225 -0.0003 3.4074 0.0000
# 3 36.6225 36.6225 98.8709 0.0000 0.0000 0.0000
# 4 0.0003 -0.0003 0.0000 23.1827 0.0000 3.4074
# 5 -3.4074 3.4074 0.0000 0.0000 23.1827 0.0003
# 6 0.0000 0.0000 0.0000 3.4074 0.0003 26.7950
#
#
#
# Elastic Compliance Matrix: (Units=1/GPa)
#
#
# Indices 1 2 3 4 5 6 
#
# 1 0.015884 -0.003132 -0.004723 0.000000 0.002795 0.000000
# 2 -0.003132 0.015884 -0.004723 0.000000 -0.002795 0.000000
# 3 -0.004723 -0.004723 0.013613 0.000000 0.000000 0.000000
# 4 0.000000 0.000000 0.000000 0.043957 0.000000 -0.005590
# 5 0.002795 -0.002795 0.000000 0.000000 0.043957 0.000000
# 6 0.000000 0.000000 0.000000 -0.005590 0.000000 0.038031
#
#
# Mechanical properties :
#
#
# Convention : Reuss Voigt Hill
#
# Bulk Modulus (GPa) = 49.44684 50.71763 50.08223
# Shear Modulus (GPa) = 24.60320 25.21775 24.91048
#
# Velocity S-wave (km/s) = 3.60360 3.64833 3.62603
# Velocity P-wave (km/s) = 6.58888 6.67207 6.63060
#
# Compressibility (1/GPa) = 0.02022374
#
# Stress axis : x y z
#
# Youngs Moduli (GPa) = 62.95695 62.95695 73.45701
#
# Poissons Ratio (x) = 0.19717 0.34697
# Poissons Ratio (y) = 0.19717 0.34697
# Poissons Ratio (z) = 0.29738 0.29738
#
# Static dielectric constant tensor:
#      x y z
#    x 1.683360 0.000000 0.000000 
#    y 0.000000 1.683360 0.000000 
#    z 0.000000 0.000000 1.688550 
# 
# From -- ./inp_files/1727.got.cif
#   From: 2010.05.17/outbox.cif.g08.bks.cpg/sg163_1_cif.got.tgz:1727.got - 2010.05.20 10:56:03.
