data_PCOD9578200
_publ_section_title
;
Structure prediction by ZEFSAII (Michael W. Deem and Ramdas Pophale) SiO2 
 PCOD9578200
Probable space group: P -3 1 C
;
_chemical_formula_sum "Si O2"
_cell_formula_units_Z 60
_cell_length_a 15.819491
_cell_length_b 15.819491
_cell_length_c 12.878014
_cell_angle_alpha 90.000000
_cell_angle_beta 90.000000
_cell_angle_gamma 120.000000
_cell_volume 2791.030202
_symmetry_space_group_name_H-M "P -3 1 C"
_symmetry_group_IT_number 163
_symmetry_cell_setting 'hexagonal'
loop_
_space_group_symop_operation_xyz
x,y,z
-y,x-y,z
-x+y,-x,z
-y,-x,1/2-z
-x+y,y,1/2-z
x,x-y,1/2-z
-x,-y,-z
y,-x+y,-z
x-y,x,-z
y,x,1/2+z
x-y,-y,1/2+z
-x,-x+y,1/2+z
loop_
_atom_site_type_symbol
_atom_site_label
_atom_site_fract_x
_atom_site_fract_y
_atom_site_fract_z
Si Si1 0.236424 0.283233 0.863832
Si Si2 0.364722 0.846926 0.646936
Si Si3 0.689174 0.179269 0.049846
Si Si4 0.182752 0.359443 0.375486
Si Si5 0.276420 0.042828 0.378699
O O1 0.311890 0.400274 0.862158
O O2 0.290474 0.227919 0.905643
O O3 0.222078 0.254457 0.743457
O O4 0.128667 0.251889 0.905872
O O5 0.431004 0.862008 0.750000
O O6 0.272232 0.739593 0.626840
O O7 0.435148 0.860240 0.550071
O O8 0.705873 0.097533 0.103043
O O9 0.749565 0.206384 0.942384
O O10 0.187815 0.375630 0.250000
O O11 0.069716 0.302216 0.411053
#
# Coordination Sequence:
#
# PCOD9578200 Si02
#       5
#    12  12  12  12  12
#     4   9  19  39  64  93 129 174 214 277 324 384
#     4  11  21  39  63 100 128 153 213 286 335 372
#     4  11  23  38  66  96 127 165 215 274 336 386
#     4  10  23  43  61  90 142 181 215 265 324 404
#     4   9  19  38  62  92 127 171 222 262 327 381
#
# _framework density 21.497440000000001
#
# number of rings (size 3 to 8) (size 9 to 14) (size 15 to 20)
#    0.000    2.000    2.000    1.000    5.600    0.800 
#    1.200    1.000    0.000    1.200    0.000    0.000 
#    0.000    0.000    0.000    0.000    0.000    0.000 
#
# Total GULP energy -334078.659347 kJ/mol
# GULP energy per Si atom -5567.977656 kJ/mol
# Density = 2.144851 g / cm^3
# Si number density = 21.497440 Si / 1000 Ang^3
#
#
#
# Elastic Constant Matrix: (Units=GPa)
#
#
# Indices 1 2 3 4 5 6 
#
# 1 67.3781 45.8512 26.8404 -0.0001 -2.9617 0.0000
# 2 45.8512 67.3781 26.8404 0.0001 2.9617 0.0000
# 3 26.8404 26.8404 97.4099 0.0000 0.0000 0.0000
# 4 -0.0001 0.0001 0.0000 36.9966 0.0000 2.9617
# 5 -2.9617 2.9617 0.0000 0.0000 36.9966 -0.0001
# 6 0.0000 0.0000 0.0000 2.9617 -0.0001 10.7634
#
#
#
# Elastic Compliance Matrix: (Units=1/GPa)
#
#
# Indices 1 2 3 4 5 6 
#
# 1 0.028829 -0.018671 -0.002799 0.000000 0.003803 0.000000
# 2 -0.018671 0.028829 -0.002799 0.000000 -0.003803 0.000000
# 3 -0.002799 -0.002799 0.011808 0.000000 0.000000 0.000000
# 4 0.000000 0.000000 0.000000 0.027638 0.000000 -0.007605
# 5 0.003803 -0.003803 0.000000 0.000000 0.027638 0.000000
# 6 0.000000 0.000000 0.000000 -0.007605 0.000000 0.095000
#
#
# Mechanical properties :
#
#
# Convention : Reuss Voigt Hill
#
# Bulk Modulus (GPa) = 47.77997 47.91447 47.84722
# Shear Modulus (GPa) = 18.16480 25.79358 21.97919
#
# Velocity S-wave (km/s) = 2.91000 3.46763 3.20098
# Velocity P-wave (km/s) = 5.79352 6.19431 5.99727
#
# Compressibility (1/GPa) = 0.02092927
#
# Stress axis : x y z
#
# Youngs Moduli (GPa) = 34.68695 34.68695 84.68510
#
# Poissons Ratio (x) = 0.64763 0.23705
# Poissons Ratio (y) = 0.64763 0.23705
# Poissons Ratio (z) = 0.09709 0.09709
#
# Static dielectric constant tensor:
#      x y z
#    x 1.789010 0.000000 0.000000 
#    y 0.000000 1.789010 0.000000 
#    z 0.000000 0.000000 2.026890 
# 
# From -- ./inp_files/2374.got.cif
#   From: 2010.05.17/outbox.cif.g08.bks.cpg/sg163_2_cif.got.tgz:2374.got - 2010.05.20 10:56:03.
