data_PCOD9578249
_publ_section_title
;
Structure prediction by ZEFSAII (Michael W. Deem and Ramdas Pophale) SiO2 
 PCOD9578249
Probable space group: P -3 1 C
;
_chemical_formula_sum "Si O2"
_cell_formula_units_Z 56
_cell_length_a 13.845072
_cell_length_b 13.845072
_cell_length_c 17.127242
_cell_angle_alpha 90.000000
_cell_angle_beta 90.000000
_cell_angle_gamma 120.000000
_cell_volume 2843.207153
_symmetry_space_group_name_H-M "P -3 1 C"
_symmetry_group_IT_number 163
_symmetry_cell_setting 'hexagonal'
loop_
_space_group_symop_operation_xyz
x,y,z
-y,x-y,z
-x+y,-x,z
-y,-x,1/2-z
-x+y,y,1/2-z
x,x-y,1/2-z
-x,-y,-z
y,-x+y,-z
x-y,x,-z
y,x,1/2+z
x-y,-y,1/2+z
-x,-x+y,1/2+z
loop_
_atom_site_type_symbol
_atom_site_label
_atom_site_fract_x
_atom_site_fract_y
_atom_site_fract_z
Si Si1 0.738970 0.896273 0.515971
Si Si2 0.575187 0.742772 0.126619
Si Si3 0.666668 0.333334 0.575320
Si Si4 0.583629 0.749216 0.834150
Si Si5 0.333333 0.666666 0.888185
Si Si6 0.937067 0.362158 0.773499
O O1 0.798572 0.825970 0.492937
O O2 0.642909 0.866721 0.452540
O O3 0.676707 0.862087 0.599696
O O4 0.444575 0.669404 0.105625
O O5 0.585812 0.849949 0.171499
O O6 0.622780 0.688746 0.188044
O O7 0.666668 0.333334 0.481884
O O8 0.615274 0.807637 0.750000
O O9 0.461275 0.725528 0.858764
O O10 0.577706 0.631548 0.817457
O O11 0.898316 0.449158 0.750000
#
# Coordination Sequence:
#
# PCOD9578249 Si02
#       6
#    12  12   4  12   4  12
#     4  12  26  48  70  96 135 181 235 293 345 404
#     4  11  23  41  67  99 135 176 224 282 341 403
#     4  12  21  41  68 111 139 176 223 279 341 413
#     4  12  25  44  66 100 138 182 227 276 342 418
#     4  12  25  43  70 100 154 179 217 271 349 433
#     4  11  22  39  67  97 135 176 224 278 337 399
#
# _framework density 19.696066999999999
#
# number of rings (size 3 to 8) (size 9 to 14) (size 15 to 20)
#    0.000    0.429    6.429    3.429    0.000    0.000 
#    0.000    4.286    0.000    0.000    0.000    0.000 
#    0.000    0.000    0.000    0.000    0.000    0.000 
#
# Total GULP energy -312769.661033 kJ/mol
# GULP energy per Si atom -5585.172518 kJ/mol
# Density = 1.965124 g / cm^3
# Si number density = 19.696067 Si / 1000 Ang^3
#
#
#
# Elastic Constant Matrix: (Units=GPa)
#
#
# Indices 1 2 3 4 5 6 
#
# 1 77.8494 27.6278 38.3608 0.0000 -0.1029 0.0000
# 2 27.6278 77.8492 38.3608 0.0001 0.1029 -0.0002
# 3 38.3608 38.3608 161.4454 -0.0001 0.0000 0.0001
# 4 0.0000 0.0001 -0.0001 31.0351 0.0000 0.1030
# 5 -0.1029 0.1029 0.0000 0.0000 31.0351 0.0002
# 6 0.0000 -0.0002 0.0001 0.1030 0.0002 25.1106
#
#
#
# Elastic Compliance Matrix: (Units=1/GPa)
#
#
# Indices 1 2 3 4 5 6 
#
# 1 0.015687 -0.004225 -0.002723 0.000000 0.000066 0.000000
# 2 -0.004225 0.015687 -0.002723 0.000000 -0.000066 0.000000
# 3 -0.002723 -0.002723 0.007488 0.000000 0.000000 0.000000
# 4 0.000000 0.000000 0.000000 0.032222 0.000000 -0.000132
# 5 0.000066 -0.000066 0.000000 0.000000 0.032222 0.000000
# 6 0.000000 0.000000 0.000000 -0.000132 0.000000 0.039824
#
#
# Mechanical properties :
#
#
# Convention : Reuss Voigt Hill
#
# Bulk Modulus (GPa) = 51.23471 58.42697 54.83084
# Shear Modulus (GPa) = 29.58926 31.62247 30.60587
#
# Velocity S-wave (km/s) = 3.88015 4.01124 3.94624
# Velocity P-wave (km/s) = 6.79288 7.15417 6.97586
#
# Compressibility (1/GPa) = 0.01951802
#
# Stress axis : x y z
#
# Youngs Moduli (GPa) = 63.74772 63.74752 133.54256
#
# Poissons Ratio (x) = 0.26935 0.36369
# Poissons Ratio (y) = 0.26935 0.36369
# Poissons Ratio (z) = 0.17361 0.17361
#
# Static dielectric constant tensor:
#      x y z
#    x 1.690570 0.000000 0.000000 
#    y 0.000000 1.690570 0.000000 
#    z 0.000000 0.000000 1.683990 
# 
# From -- ./inp_files/3049.got.cif
#   From: 2010.05.17/outbox.cif.g08.bks.cpg/sg163_2_cif.got.tgz:3049.got - 2010.05.20 10:56:03.
