data_PCOD9578867
_publ_section_title
;
Structure prediction by ZEFSAII (Michael W. Deem and Ramdas Pophale) SiO2 
 PCOD9578867
Probable space group: P -3 C 1
;
_chemical_formula_sum "Si O2"
_cell_formula_units_Z 44
_cell_length_a 12.741816
_cell_length_b 12.741816
_cell_length_c 16.209314
_cell_angle_alpha 90.000000
_cell_angle_beta 90.000000
_cell_angle_gamma 120.000000
_cell_volume 2279.071371
_symmetry_space_group_name_H-M "P -3 C 1"
_symmetry_group_IT_number 165
_symmetry_cell_setting 'hexagonal'
loop_
_space_group_symop_operation_xyz
x,y,z
-y,x-y,z
-x+y,-x,z
x-y,-y,1/2-z
-x,-x+y,1/2-z
y,x,1/2-z
-x,-y,-z
y,-x+y,-z
x-y,x,-z
-x+y,y,1/2+z
x,x-y,1/2+z
-y,-x,1/2+z
loop_
_atom_site_type_symbol
_atom_site_label
_atom_site_fract_x
_atom_site_fract_y
_atom_site_fract_z
Si Si1 0.925991 0.351027 0.828846
Si Si2 0.666668 0.333334 0.795503
Si Si3 0.261667 0.036794 0.991775
Si Si4 0.666667 0.333333 0.098591
Si Si5 0.524762 0.938463 0.922618
O O1 0.786612 0.324155 0.820546
O O2 0.935539 0.277149 0.907611
O O3 0.000000 0.341062 0.750000
O O4 0.007343 0.495305 0.847253
O O5 0.666668 0.333334 0.696884
O O6 0.233586 0.142035 0.012137
O O7 0.339198 0.030125 0.068181
O O8 0.560073 0.204751 0.069762
O O9 0.500000 0.000000 0.000000
#
# Coordination Sequence:
#
# PCOD9578867 Si02
#       5
#    12   4  12   4  12
#     4  11  23  41  63  98 130 168 215 267 328 392
#     4  12  24  37  65  94 132 169 209 259 333 391
#     4  11  24  43  66  91 126 173 221 271 325 394
#     4  12  21  37  62  91 126 166 206 262 324 382
#     4  10  21  37  61  90 126 162 207 261 323 381
#
# _framework density 19.306108999999999
#
# number of rings (size 3 to 8) (size 9 to 14) (size 15 to 20)
#    0.000    1.091    2.727    5.182    0.000    6.545 
#    0.000    1.364    0.000    0.000    0.000    0.000 
#    0.000    0.000    0.000    0.000    0.000    0.000 
#
# Total GULP energy -245340.333105 kJ/mol
# GULP energy per Si atom -5575.916661 kJ/mol
# Density = 1.926217 g / cm^3
# Si number density = 19.306109 Si / 1000 Ang^3
#
#
#
# Elastic Constant Matrix: (Units=GPa)
#
#
# Indices 1 2 3 4 5 6 
#
# 1 107.9477 22.1563 10.6106 -2.8889 0.0000 0.0000
# 2 22.1563 107.9459 10.6098 2.8892 0.0000 0.0000
# 3 10.6106 10.6098 68.7712 0.0002 0.0000 0.0000
# 4 -2.8889 2.8892 0.0002 23.2950 0.0000 0.0000
# 5 0.0000 0.0000 0.0000 0.0000 23.2945 -2.8886
# 6 0.0000 0.0000 0.0000 0.0000 -2.8886 42.8949
#
#
#
# Elastic Compliance Matrix: (Units=1/GPa)
#
#
# Indices 1 2 3 4 5 6 
#
# 1 0.009819 -0.001935 -0.001217 0.001458 0.000000 0.000000
# 2 -0.001935 0.009820 -0.001216 -0.001458 0.000000 0.000000
# 3 -0.001217 -0.001216 0.014916 0.000000 0.000000 0.000000
# 4 0.001458 -0.001458 0.000000 0.043289 0.000000 0.000000
# 5 0.000000 0.000000 0.000000 0.000000 0.043290 0.002915
# 6 0.000000 0.000000 0.000000 0.000000 0.002915 0.023509
#
#
# Mechanical properties :
#
#
# Convention : Reuss Voigt Hill
#
# Bulk Modulus (GPa) = 38.73008 41.26870 39.99939
# Shear Modulus (GPa) = 30.86682 33.98275 32.42479
#
# Velocity S-wave (km/s) = 4.00285 4.20003 4.10263
# Velocity P-wave (km/s) = 6.43959 6.70394 6.57309
#
# Compressibility (1/GPa) = 0.02581973
#
# Stress axis : x y z
#
# Youngs Moduli (GPa) = 101.83839 101.83687 67.04059
#
# Poissons Ratio (x) = 0.19705 0.08156
# Poissons Ratio (y) = 0.19705 0.08155
# Poissons Ratio (z) = 0.12389 0.12388
#
# Static dielectric constant tensor:
#      x y z
#    x 1.672910 0.000000 0.000000 
#    y 0.000000 1.672900 0.000000 
#    z 0.000000 0.000000 1.739540 
# 
# From -- ./inp_files/2100.got.cif
#   From: 2010.05.17/outbox.cif.g08.bks.cpg/sg165_2_cif.got.tgz:2100.got - 2010.05.20 11:02:39.
