data_PCOD9578098
_publ_section_title
;
Structure prediction by ZEFSAII (Michael W. Deem and Ramdas Pophale) SiO2 
 PCOD9578098
Probable space group: P -3 1 C
;
_chemical_formula_sum "Si O2"
_cell_formula_units_Z 36
_cell_length_a 21.695680
_cell_length_b 21.695680
_cell_length_c 4.916695
_cell_angle_alpha 90.000000
_cell_angle_beta 90.000000
_cell_angle_gamma 120.000000
_cell_volume 2004.243267
_symmetry_space_group_name_H-M "P -3 1 C"
_symmetry_group_IT_number 163
_symmetry_cell_setting 'hexagonal'
loop_
_space_group_symop_operation_xyz
x,y,z
-y,x-y,z
-x+y,-x,z
-y,-x,1/2-z
-x+y,y,1/2-z
x,x-y,1/2-z
-x,-y,-z
y,-x+y,-z
x-y,x,-z
y,x,1/2+z
x-y,-y,1/2+z
-x,-x+y,1/2+z
loop_
_atom_site_type_symbol
_atom_site_label
_atom_site_fract_x
_atom_site_fract_y
_atom_site_fract_z
Si Si1 0.472828 0.609762 0.490917
Si Si2 0.192887 0.807114 0.750000
Si Si3 0.314737 0.363700 0.826049
Si Si4 0.243249 0.486497 0.250000
O O1 0.448177 0.551824 0.250000
O O2 0.552977 0.639099 0.595103
O O3 0.470777 0.676893 0.359974
O O4 0.422475 0.577526 0.750000
O O5 0.112093 0.766890 0.851713
O O6 0.197454 0.760973 0.500711
O O7 0.325405 0.342850 0.526569
#
# Coordination Sequence:
#
# PCOD9578098 Si02
#       4
#    12   6  12   6
#     4  11  22  36  55  77 106 137 180 242 284 323
#     4  10  20  38  58  76 108 142 170 215 260 325
#     4  11  22  36  57  83 107 141 179 212 272 337
#     4  10  20  38  56  70  98 144 184 217 286 343
#
# _framework density 17.961891999999999
#
# number of rings (size 3 to 8) (size 9 to 14) (size 15 to 20)
#    0.000    1.333    0.000   10.000    0.000    4.000 
#    1.000    0.000   14.667    0.000    0.000    0.000 
#    0.000    0.000    0.000   10.000    0.000    0.000 
#
# Total GULP energy -201076.141435 kJ/mol
# GULP energy per Si atom -5585.448373 kJ/mol
# Density = 1.792101 g / cm^3
# Si number density = 17.961892 Si / 1000 Ang^3
#
#
#
# Elastic Constant Matrix: (Units=GPa)
#
#
# Indices 1 2 3 4 5 6 
#
# 1 54.4359 40.1014 2.2827 -0.0004 1.9560 0.0000
# 2 40.1014 54.4359 2.2827 0.0004 -1.9560 0.0000
# 3 2.2827 2.2827 79.4812 0.0000 0.0000 0.0000
# 4 -0.0004 0.0004 0.0000 32.8548 0.0000 -1.9560
# 5 1.9560 -1.9560 0.0000 0.0000 32.8548 -0.0004
# 6 0.0000 0.0000 0.0000 -1.9560 -0.0004 7.1673
#
#
#
# Elastic Compliance Matrix: (Units=1/GPa)
#
#
# Indices 1 2 3 4 5 6 
#
# 1 0.040753 -0.030161 -0.000304 0.000001 -0.004222 0.000000
# 2 -0.030161 0.040753 -0.000304 -0.000001 0.004222 0.000000
# 3 -0.000304 -0.000304 0.012599 0.000000 0.000000 0.000000
# 4 0.000001 -0.000001 0.000000 0.030940 0.000000 0.008444
# 5 -0.004222 0.004222 0.000000 0.000000 0.030940 0.000002
# 6 0.000000 0.000000 0.000000 0.008444 0.000002 0.141828
#
#
# Mechanical properties :
#
#
# Convention : Reuss Voigt Hill
#
# Bulk Modulus (GPa) = 30.70571 30.85409 30.77990
# Shear Modulus (GPa) = 13.50596 24.15444 18.83020
#
# Velocity S-wave (km/s) = 2.74510 3.67108 3.24132
# Velocity P-wave (km/s) = 5.21339 5.93160 5.58405
#
# Compressibility (1/GPa) = 0.03256723
#
# Stress axis : x y z
#
# Youngs Moduli (GPa) = 24.53792 24.53792 79.37097
#
# Poissons Ratio (x) = 0.74008 0.02415
# Poissons Ratio (y) = 0.74008 0.02415
# Poissons Ratio (z) = 0.00746 0.00746
#
# Static dielectric constant tensor:
#      x y z
#    x 1.633070 0.000000 0.000000 
#    y 0.000000 1.633070 0.000000 
#    z 0.000000 0.000000 1.654100 
# 
# From -- ./inp_files/175.got.cif
#   From: 2010.05.17/outbox.cif.g08.bks.cpg/sg163_1_cif.got.tgz:175.got - 2010.05.20 10:56:03.
