data_PCOD9578466
_publ_section_title
;
Structure prediction by ZEFSAII (Michael W. Deem and Ramdas Pophale) SiO2 
 PCOD9578466
Probable space group: P -3 M 1
;
_chemical_formula_sum "Si O2"
_cell_formula_units_Z 84
_cell_length_a 18.003306
_cell_length_b 18.003306
_cell_length_c 15.770075
_cell_angle_alpha 90.000000
_cell_angle_beta 90.000000
_cell_angle_gamma 120.000000
_cell_volume 4426.586109
_symmetry_space_group_name_H-M "P -3 M 1"
_symmetry_group_IT_number 164
_symmetry_cell_setting 'hexagonal'
loop_
_space_group_symop_operation_xyz
x,y,z
-y,x-y,z
-x+y,-x,z
x-y,-y,-z
-x,-x+y,-z
y,x,-z
-x,-y,-z
y,-x+y,-z
x-y,x,-z
-x+y,y,z
x,x-y,z
-y,-x,z
loop_
_atom_site_type_symbol
_atom_site_label
_atom_site_fract_x
_atom_site_fract_y
_atom_site_fract_z
Si Si1 0.376015 0.456913 0.827461
Si Si2 0.176164 0.175647 0.601820
Si Si3 0.096625 0.363947 0.664948
Si Si4 0.365045 0.263259 0.015628
Si Si5 0.500664 0.669611 0.324436
Si Si6 0.534007 0.897890 0.502654
Si Si7 0.880952 0.357179 0.858571
O O1 0.440641 0.559360 0.823565
O O2 0.337056 0.415298 0.736789
O O3 0.433554 0.416424 0.855897
O O4 0.302988 0.420454 0.898925
O O5 0.188667 0.188667 0.500000
O O6 0.079811 0.159621 0.618916
O O7 0.243203 0.265961 0.645692
O O8 0.183741 0.091871 0.624049
O O9 0.179015 0.358029 0.692567
O O10 0.120800 0.420687 0.579668
O O11 0.321713 0.160857 0.018816
O O12 0.432463 0.297548 0.938157
O O13 0.300595 0.300595 0.000000
O O14 0.458724 0.729362 0.330758
O O15 0.430439 0.569562 0.322407
O O16 0.550568 0.682088 0.411632
O O17 0.544732 0.687931 0.233151
O O18 0.431753 0.863506 0.513613
O O19 0.579225 0.000000 0.500000
O O20 0.842330 0.421165 0.866680
#
# Coordination Sequence:
#
# PCOD9578466 Si02
#       7
#    12  12  12  12  12  12  12
#     4  10  20  36  57  78 104 140 180 220 265 319
#     4   9  18  33  53  77 107 144 186 235 292 347
#     4  11  21  33  51  76 107 143 184 226 266 314
#     4  10  20  36  59  86 114 144 183 230 279 331
#     4  10  19  31  48  71 100 131 164 204 255 316
#     4  10  20  34  50  67  93 133 178 221 264 312
#     4   9  18  33  55  81 106 135 170 213 269 329
#
# _framework density 18.976248999999999
#
# number of rings (size 3 to 8) (size 9 to 14) (size 15 to 20)
#    0.000    2.143    0.000    3.714    0.000    4.571 
#    0.000    7.143    0.000    9.857    0.000    0.000 
#    0.000    0.000    0.000    3.429    0.000    0.000 
#
# Total GULP energy -467980.477564 kJ/mol
# GULP energy per Si atom -5571.196161 kJ/mol
# Density = 1.893306 g / cm^3
# Si number density = 18.976249 Si / 1000 Ang^3
#
#
#
# Elastic Constant Matrix: (Units=GPa)
#
#
# Indices 1 2 3 4 5 6 
#
# 1 31.7711 79.4598 30.7778 13.8685 0.0000 0.0000
# 2 79.4598 31.7711 30.7778 -13.8685 0.0000 0.0000
# 3 30.7778 30.7778 117.7929 0.0000 0.0000 0.0000
# 4 13.8685 -13.8685 0.0000 -84.8771 0.0000 0.0000
# 5 0.0000 0.0000 0.0000 0.0000 -84.8771 13.8685
# 6 0.0000 0.0000 0.0000 0.0000 13.8685 -23.8444
#
#
#
# Elastic Compliance Matrix: (Units=1/GPa)
#
#
# Indices 1 2 3 4 5 6 
#
# 1 -0.006331 0.016841 -0.002746 -0.003786 0.000000 0.000000
# 2 0.016841 -0.006331 -0.002746 0.003786 0.000000 0.000000
# 3 -0.002746 -0.002746 0.009925 0.000000 0.000000 0.000000
# 4 -0.003786 0.003786 0.000000 -0.013019 0.000000 0.000000
# 5 0.000000 0.000000 0.000000 0.000000 -0.013019 -0.007572
# 6 0.000000 0.000000 0.000000 0.000000 -0.007572 -0.046343
#
#
# Mechanical properties :
#
#
# Convention : Reuss Voigt Hill
#
# Bulk Modulus (GPa) = 50.10010 51.48511 50.79260
# Shear Modulus (GPa) = -54.84786 -36.03174 -45.43980
#
# Velocity S-wave (km/s) = -5.38202 -4.36223 -4.89873
# Velocity P-wave (km/s) = 3.48752 1.34841 2.27427
#
# Compressibility (1/GPa) = 0.01996004
#
# Stress axis : x y z
#
# Youngs Moduli (GPa) = -157.96046 -157.96046 100.76032
#
# Poissons Ratio (x) = 2.66017 0.27670
# Poissons Ratio (y) = 2.66017 0.27670
# Poissons Ratio (z) = -0.43378 -0.43378
#
# Static dielectric constant tensor:
#      x y z
#    x 1.686750 0.000000 0.000000 
#    y 0.000000 1.686750 0.000000 
#    z 0.000000 0.000000 1.667530 
# 
# From -- ./inp_files/3606.got.cif
#   From: 2010.05.17/outbox.cif.g08.bks.cpg/sg164_2_cif.got.tgz:3606.got - 2010.05.20 10:58:56.
