data_PCOD9578014
_publ_section_title
;
Structure prediction by ZEFSAII (Michael W. Deem and Ramdas Pophale) SiO2 
 PCOD9578014
Probable space group: P -3 1 C
;
_chemical_formula_sum "Si O2"
_cell_formula_units_Z 60
_cell_length_a 17.639434
_cell_length_b 17.639434
_cell_length_c 15.683844
_cell_angle_alpha 90.000000
_cell_angle_beta 90.000000
_cell_angle_gamma 120.000000
_cell_volume 4226.223271
_symmetry_space_group_name_H-M "P -3 1 C"
_symmetry_group_IT_number 163
_symmetry_cell_setting 'hexagonal'
loop_
_space_group_symop_operation_xyz
x,y,z
-y,x-y,z
-x+y,-x,z
-y,-x,1/2-z
-x+y,y,1/2-z
x,x-y,1/2-z
-x,-y,-z
y,-x+y,-z
x-y,x,-z
y,x,1/2+z
x-y,-y,1/2+z
-x,-x+y,1/2+z
loop_
_atom_site_type_symbol
_atom_site_label
_atom_site_fract_x
_atom_site_fract_y
_atom_site_fract_z
Si Si1 0.941683 0.701723 0.083931
Si Si2 0.941683 0.239960 0.083932
Si Si3 0.491194 0.334316 0.147407
Si Si4 0.818357 0.818622 0.250000
Si Si5 0.491194 0.334316 0.352593
O O1 0.853279 0.706557 0.072073
O O2 0.910119 0.600914 0.105211
O O3 0.989986 0.761734 0.165927
O O4 1.000000 0.734334 1.000000
O O5 0.989986 0.228251 0.165927
O O6 0.910119 0.309205 0.105212
O O7 0.480919 0.334788 0.250000
O O8 0.573201 0.426799 0.121746
O O9 0.509754 0.254877 0.128918
O O10 0.917119 0.834239 0.250000
O O11 0.819129 0.909565 0.250000
#
# Coordination Sequence:
#
# PCOD9578014 Si02
#       5
#    12  12  12  12  12
#     4  10  19  31  46  66  91 119 149 183 222 263
#     4  10  19  31  46  66  91 119 149 183 222 263
#     4   9  16  28  46  68  92 117 146 181 221 264
#     4  10  19  32  47  64  86 116 152 188 223 260
#     4   9  16  28  46  68  92 117 146 181 221 264
#
# _framework density 14.197074000000001
#
# number of rings (size 3 to 8) (size 9 to 14) (size 15 to 20)
#    0.000    2.400    2.000    1.800    0.000    2.400 
#    0.000    0.000    0.000    6.400    0.000    0.000 
#    0.000    0.000    0.000    0.800    0.000    0.000 
#
# Total GULP energy -334437.572977 kJ/mol
# GULP energy per Si atom -5573.959550 kJ/mol
# Density = 1.416476 g / cm^3
# Si number density = 14.197074 Si / 1000 Ang^3
#
#
#
# Elastic Constant Matrix: (Units=GPa)
#
#
# Indices 1 2 3 4 5 6 
#
# 1 105.7970 62.8372 68.5687 0.0000 0.0000 0.0000
# 2 62.8372 105.7970 68.5687 0.0000 0.0000 0.0000
# 3 68.5687 68.5687 109.4331 0.0000 0.0000 0.0000
# 4 0.0000 0.0000 0.0000 23.0645 0.0000 0.0000
# 5 0.0000 0.0000 0.0000 0.0000 23.0645 0.0000
# 6 0.0000 0.0000 0.0000 0.0000 0.0000 21.4799
#
#
#
# Elastic Compliance Matrix: (Units=1/GPa)
#
#
# Indices 1 2 3 4 5 6 
#
# 1 0.017684 -0.005593 -0.007576 0.000000 0.000000 0.000000
# 2 -0.005593 0.017684 -0.007576 0.000000 0.000000 0.000000
# 3 -0.007576 -0.007576 0.018632 0.000000 0.000000 0.000000
# 4 0.000000 0.000000 0.000000 0.043357 0.000000 0.000000
# 5 0.000000 0.000000 0.000000 0.000000 0.043357 0.000000
# 6 0.000000 0.000000 0.000000 0.000000 0.000000 0.046555
#
#
# Mechanical properties :
#
#
# Convention : Reuss Voigt Hill
#
# Bulk Modulus (GPa) = 79.93629 80.10851 80.02240
# Shear Modulus (GPa) = 21.46574 21.59195 21.52885
#
# Velocity S-wave (km/s) = 3.89264 3.90407 3.89836
# Velocity P-wave (km/s) = 8.75389 8.76761 8.76075
#
# Compressibility (1/GPa) = 0.01250996
#
# Stress axis : x y z
#
# Youngs Moduli (GPa) = 56.54747 56.54747 53.67136
#
# Poissons Ratio (x) = 0.31629 0.40661
# Poissons Ratio (y) = 0.31629 0.40661
# Poissons Ratio (z) = 0.42840 0.42840
#
# Static dielectric constant tensor:
#      x y z
#    x 1.453680 0.000000 0.000000 
#    y 0.000000 1.453680 0.000000 
#    z 0.000000 0.000000 1.443640 
# 
# From -- ./inp_files/1730.got.cif
#   From: 2010.05.17/outbox.cif.g08.bks.cpg/sg163_1_cif.got.tgz:1730.got - 2010.05.20 10:56:03.
