data_PCOD9578604
_publ_section_title
;
Structure prediction by ZEFSAII (Michael W. Deem and Ramdas Pophale) SiO2 
 PCOD9578604
Probable space group: P -3 M 1
;
_chemical_formula_sum "Si O2"
_cell_formula_units_Z 60
_cell_length_a 12.902106
_cell_length_b 12.902106
_cell_length_c 25.897925
_cell_angle_alpha 90.000000
_cell_angle_beta 90.000000
_cell_angle_gamma 120.000000
_cell_volume 3733.505640
_symmetry_space_group_name_H-M "P -3 M 1"
_symmetry_group_IT_number 164
_symmetry_cell_setting 'hexagonal'
loop_
_space_group_symop_operation_xyz
x,y,z
-y,x-y,z
-x+y,-x,z
x-y,-y,-z
-x,-x+y,-z
y,x,-z
-x,-y,-z
y,-x+y,-z
x-y,x,-z
-x+y,y,z
x,x-y,z
-y,-x,z
loop_
_atom_site_type_symbol
_atom_site_label
_atom_site_fract_x
_atom_site_fract_y
_atom_site_fract_z
Si Si1 0.754178 0.999607 0.145933
Si Si2 0.089362 0.666496 0.760264
Si Si3 0.087627 0.420971 0.451859
Si Si4 0.333032 0.911264 0.641422
Si Si5 0.912992 0.333461 0.951159
O O1 0.878407 0.121594 0.136366
O O2 0.697825 0.017763 0.198252
O O3 0.775592 0.887796 0.150587
O O4 0.662693 0.971402 0.098826
O O5 0.079234 0.539617 0.771204
O O6 0.227730 0.772271 0.763515
O O7 0.051649 0.666503 0.700904
O O8 0.207428 0.414856 0.455548
O O9 0.116356 0.558178 0.452471
O O10 0.000000 0.356721 0.500000
O O11 0.014611 0.361871 0.399492
O O12 0.440734 0.881467 0.636901
O O13 0.207190 0.792811 0.630666
O O14 0.898214 0.449107 0.943211
O O15 0.784886 0.215115 0.960171
O O16 0.000000 0.361118 0.000000
#
# Coordination Sequence:
#
# PCOD9578604 Si02
#       5
#    12  12  12  12  12
#     4  10  20  33  49  69  95 128 164 199 234 275
#     4   9  17  30  49  73  98 124 156 195 238 279
#     4  10  20  33  50  71  95 123 155 193 235 279
#     4   9  17  30  50  74  98 124 155 193 235 279
#     4  10  20  34  52  73  97 124 155 193 237 285
#
# _framework density 16.070688000000001
#
# number of rings (size 3 to 8) (size 9 to 14) (size 15 to 20)
#    0.000    2.400    0.000    2.800    0.000    2.400 
#    0.000    2.000    0.000   13.600    0.000    0.000 
#    0.000    0.000    0.000    0.000    0.000    0.000 
#
# Total GULP energy -334677.026358 kJ/mol
# GULP energy per Si atom -5577.950439 kJ/mol
# Density = 1.603411 g / cm^3
# Si number density = 16.070688 Si / 1000 Ang^3
#
#
#
# Elastic Constant Matrix: (Units=GPa)
#
#
# Indices 1 2 3 4 5 6 
#
# 1 123.1844 85.2525 86.2915 -2.3400 0.0000 0.0000
# 2 85.2525 123.1844 86.2915 2.3400 0.0000 0.0000
# 3 86.2915 86.2915 117.5104 0.0000 0.0000 0.0000
# 4 -2.3400 2.3400 0.0000 23.6824 0.0000 0.0000
# 5 0.0000 0.0000 0.0000 0.0000 23.6824 -2.3400
# 6 0.0000 0.0000 0.0000 0.0000 -2.3400 18.9659
#
#
#
# Elastic Compliance Matrix: (Units=1/GPa)
#
#
# Indices 1 2 3 4 5 6 
#
# 1 0.019464 -0.007225 -0.008988 0.002637 0.000000 0.000000
# 2 -0.007225 0.019464 -0.008988 -0.002637 0.000000 0.000000
# 3 -0.008988 -0.008988 0.021710 0.000000 0.000000 0.000000
# 4 0.002637 -0.002637 0.000000 0.042747 0.000000 0.000000
# 5 0.000000 0.000000 0.000000 0.000000 0.042747 0.005274
# 6 0.000000 0.000000 0.000000 0.000000 0.005274 0.053377
#
#
# Mechanical properties :
#
#
# Convention : Reuss Voigt Hill
#
# Bulk Modulus (GPa) = 97.67925 97.72782 97.70354
# Shear Modulus (GPa) = 19.73789 20.33573 20.03681
#
# Velocity S-wave (km/s) = 3.50836 3.56109 3.53483
# Velocity P-wave (km/s) = 8.79343 8.82336 8.80841
#
# Compressibility (1/GPa) = 0.01023759
#
# Stress axis : x y z
#
# Youngs Moduli (GPa) = 51.37724 51.37724 46.06212
#
# Poissons Ratio (x) = 0.37118 0.41399
# Poissons Ratio (y) = 0.37118 0.41399
# Poissons Ratio (z) = 0.46176 0.46176
#
# Static dielectric constant tensor:
#      x y z
#    x 1.508160 0.000000 0.000000 
#    y 0.000000 1.508160 0.000000 
#    z 0.000000 0.000000 1.534090 
# 
# From -- ./inp_files/5160.got.cif
#   From: 2010.05.17/outbox.cif.g08.bks.cpg/sg164_3_cif.got.tgz:5160.got - 2010.05.20 10:58:56.
