data_PCOD9578107
_publ_section_title
;
Structure prediction by ZEFSAII (Michael W. Deem and Ramdas Pophale) SiO2 
 PCOD9578107
Probable space group: P -3 1 C
;
_chemical_formula_sum "Si O2"
_cell_formula_units_Z 42
_cell_length_a 9.778376
_cell_length_b 9.778376
_cell_length_c 27.124498
_cell_angle_alpha 90.000000
_cell_angle_beta 90.000000
_cell_angle_gamma 120.000000
_cell_volume 2246.083030
_symmetry_space_group_name_H-M "P -3 1 C"
_symmetry_group_IT_number 163
_symmetry_cell_setting 'hexagonal'
loop_
_space_group_symop_operation_xyz
x,y,z
-y,x-y,z
-x+y,-x,z
-y,-x,1/2-z
-x+y,y,1/2-z
x,x-y,1/2-z
-x,-y,-z
y,-x+y,-z
x-y,x,-z
y,x,1/2+z
x-y,-y,1/2+z
-x,-x+y,1/2+z
loop_
_atom_site_type_symbol
_atom_site_label
_atom_site_fract_x
_atom_site_fract_y
_atom_site_fract_z
Si Si1 0.208017 0.842458 0.088617
Si Si2 0.011030 0.475955 0.858080
Si Si3 0.125244 0.562622 0.750000
Si Si4 0.333334 0.666668 0.020778
Si Si5 0.666668 0.333334 0.096820
Si Si6 0.000000 0.000000 0.441339
O O1 0.249971 0.761836 0.042717
O O2 0.114989 0.700987 0.127294
O O3 0.104938 0.922840 0.075596
O O4 0.373561 0.962676 0.113329
O O5 0.027935 0.508802 0.800100
O O6 0.179646 0.518205 0.880468
O O7 0.248224 0.496447 0.750000
O O8 0.333334 0.666667 0.961959
O O9 0.000000 0.000000 0.500000
#
# Coordination Sequence:
#
# PCOD9578107 Si02
#       6
#    12  12   6   4   4   4
#     4  10  25  42  59  94 127 160 202 254 306 368
#     4  11  22  42  67  89 120 159 208 254 302 365
#     4  10  20  38  68  94 110 150 216 258 292 356
#     4   9  24  42  64  86 121 168 225 234 283 377
#     4  12  21  37  70  87 118 172 207 249 289 362
#     4  12  27  36  57  91 137 163 192 252 321 352
#
# _framework density 18.699217999999998
#
# number of rings (size 3 to 8) (size 9 to 14) (size 15 to 20)
#    0.286    1.143    2.857    2.286    8.000    3.429 
#    0.000    0.000    0.000    0.000    0.000    0.000 
#    0.000    0.000    0.000    0.000    0.000    0.000 
#
# Total GULP energy -234507.999154 kJ/mol
# GULP energy per Si atom -5583.523789 kJ/mol
# Density = 1.865666 g / cm^3
# Si number density = 18.699218 Si / 1000 Ang^3
#
#
#
# Elastic Constant Matrix: (Units=GPa)
#
#
# Indices 1 2 3 4 5 6 
#
# 1 96.1592 29.6934 26.2879 0.0000 8.8549 0.0001
# 2 29.6934 96.1598 26.2883 0.0000 -8.8549 0.0004
# 3 26.2879 26.2883 156.8816 -0.0003 -0.0002 0.0004
# 4 0.0000 0.0000 -0.0003 15.9131 0.0007 -8.8550
# 5 8.8549 -8.8549 -0.0002 0.0007 15.9123 -0.0001
# 6 0.0001 0.0004 0.0004 -8.8550 -0.0001 33.2333
#
#
#
# Elastic Compliance Matrix: (Units=1/GPa)
#
#
# Indices 1 2 3 4 5 6 
#
# 1 0.013104 -0.004560 -0.001432 0.000000 -0.009830 0.000000
# 2 -0.004560 0.013104 -0.001432 -0.000001 0.009830 0.000000
# 3 -0.001432 -0.001432 0.006854 0.000000 0.000000 0.000000
# 4 0.000000 -0.000001 0.000000 0.073780 -0.000004 0.019659
# 5 -0.009830 0.009830 0.000000 -0.000004 0.073785 -0.000001
# 6 0.000000 0.000000 0.000000 0.019659 -0.000001 0.035328
#
#
# Mechanical properties :
#
#
# Convention : Reuss Voigt Hill
#
# Bulk Modulus (GPa) = 54.89946 57.08221 55.99083
# Shear Modulus (GPa) = 21.10821 30.80714 25.95767
#
# Velocity S-wave (km/s) = 3.36345 4.06336 3.72986
# Velocity P-wave (km/s) = 6.67133 7.25309 6.96828
#
# Compressibility (1/GPa) = 0.01821512
#
# Stress axis : x y z
#
# Youngs Moduli (GPa) = 76.31152 76.31201 145.89948
#
# Poissons Ratio (x) = 0.34800 0.20888
# Poissons Ratio (y) = 0.34800 0.20888
# Poissons Ratio (z) = 0.10925 0.10925
#
# Static dielectric constant tensor:
#      x y z
#    x 1.683160 0.000000 0.000000 
#    y 0.000000 1.683160 0.000000 
#    z 0.000000 0.000000 1.606260 
# 
# From -- ./inp_files/4283.got.cif
#   From: 2010.05.17/outbox.cif.g08.bks.cpg/sg163_3_cif.got.tgz:4283.got - 2010.05.20 10:56:03.
