data_PCOD9578622
_publ_section_title
;
Structure prediction by ZEFSAII (Michael W. Deem and Ramdas Pophale) SiO2 
 PCOD9578622
Probable space group: P -3 M 1
;
_chemical_formula_sum "Si O2"
_cell_formula_units_Z 84
_cell_length_a 18.209595
_cell_length_b 18.209595
_cell_length_c 15.694841
_cell_angle_alpha 90.000000
_cell_angle_beta 90.000000
_cell_angle_gamma 120.000000
_cell_volume 4507.005889
_symmetry_space_group_name_H-M "P -3 M 1"
_symmetry_group_IT_number 164
_symmetry_cell_setting 'hexagonal'
loop_
_space_group_symop_operation_xyz
x,y,z
-y,x-y,z
-x+y,-x,z
x-y,-y,-z
-x,-x+y,-z
y,x,-z
-x,-y,-z
y,-x+y,-z
x-y,x,-z
-x+y,y,z
x,x-y,z
-y,-x,z
loop_
_atom_site_type_symbol
_atom_site_label
_atom_site_fract_x
_atom_site_fract_y
_atom_site_fract_z
Si Si1 0.101222 0.632039 0.497638
Si Si2 0.102476 0.634215 0.001812
Si Si3 0.095317 0.735476 0.156511
Si Si4 0.353355 0.262053 0.654057
Si Si5 0.001000 0.829080 0.602894
Si Si6 0.266587 0.365906 0.841233
Si Si7 0.838997 0.506987 0.312298
O O1 0.137304 0.568652 0.480682
O O2 0.113556 0.693919 0.421056
O O3 0.133362 0.671638 0.590668
O O4 0.000000 0.575341 0.500000
O O5 0.136475 0.568238 0.999675
O O6 0.122311 0.688549 0.087617
O O7 0.125911 0.693882 0.919650
O O8 0.000000 0.577951 0.000000
O O9 0.164700 0.835301 0.152623
O O10 0.093190 0.703535 0.252849
O O11 0.997049 0.707763 0.141538
O O12 0.332984 0.166492 0.653676
O O13 0.259592 0.248273 0.638494
O O14 0.089432 0.910569 0.628547
O O15 0.000000 0.821876 0.500000
O O16 0.921412 0.842824 0.625114
O O17 0.167478 0.334956 0.834701
O O18 0.312238 0.420092 0.756479
O O19 0.741631 0.483262 0.301464
O O20 0.850085 0.425043 0.300047
#
# Coordination Sequence:
#
# PCOD9578622 Si02
#       7
#    12  12  12  12  12  12  12
#     4  10  20  33  49  70  98 134 177 221 264 316
#     4   9  18  34  57  82 105 131 167 213 266 323
#     4  10  21  36  54  78 110 147 187 229 268 310
#     4  10  20  33  49  71 101 139 182 224 263 305
#     4   9  17  29  47  71 101 139 182 228 278 329
#     4  10  20  34  56  85 113 143 179 221 273 329
#     4  10  20  34  54  81 111 140 172 217 276 339
#
# _framework density 18.637651000000002
#
# number of rings (size 3 to 8) (size 9 to 14) (size 15 to 20)
#    0.000    2.286    0.000    2.857    0.000    2.286 
#    0.000    3.571    0.000    3.714    0.000    0.000 
#    0.000    3.429    0.000    0.429    0.000    0.000 
#
# Total GULP energy -468174.003942 kJ/mol
# GULP energy per Si atom -5573.500047 kJ/mol
# Density = 1.859523 g / cm^3
# Si number density = 18.637651 Si / 1000 Ang^3
#
#
#
# Elastic Constant Matrix: (Units=GPa)
#
#
# Indices 1 2 3 4 5 6 
#
# 1 79.6314 35.7650 46.1315 -3.8581 0.0000 0.0000
# 2 35.7650 79.6314 46.1315 3.8581 0.0000 0.0000
# 3 46.1315 46.1315 120.7660 0.0000 0.0000 0.0000
# 4 -3.8581 3.8581 0.0000 23.3398 0.0000 0.0000
# 5 0.0000 0.0000 0.0000 0.0000 23.3398 -3.8581
# 6 0.0000 0.0000 0.0000 0.0000 -3.8581 21.9332
#
#
#
# Elastic Compliance Matrix: (Units=1/GPa)
#
#
# Indices 1 2 3 4 5 6 
#
# 1 0.017978 -0.005502 -0.004766 0.003881 0.000000 0.000000
# 2 -0.005502 0.017978 -0.004766 -0.003881 0.000000 0.000000
# 3 -0.004766 -0.004766 0.011921 0.000000 0.000000 0.000000
# 4 0.003881 -0.003881 0.000000 0.044128 0.000000 0.000000
# 5 0.000000 0.000000 0.000000 0.000000 0.044128 0.007762
# 6 0.000000 0.000000 0.000000 0.000000 0.007762 0.046958
#
#
# Mechanical properties :
#
#
# Convention : Reuss Voigt Hill
#
# Bulk Modulus (GPa) = 56.14615 59.56498 57.85556
# Shear Modulus (GPa) = 22.82112 23.85593 23.33852
#
# Velocity S-wave (km/s) = 3.50303 3.58157 3.54252
# Velocity P-wave (km/s) = 6.82291 7.00945 6.91681
#
# Compressibility (1/GPa) = 0.01781066
#
# Stress axis : x y z
#
# Youngs Moduli (GPa) = 55.62449 55.62449 83.88237
#
# Poissons Ratio (x) = 0.30602 0.39977
# Poissons Ratio (y) = 0.30602 0.39977
# Poissons Ratio (z) = 0.26509 0.26509
#
# Static dielectric constant tensor:
#      x y z
#    x 1.664940 0.000000 0.000000 
#    y 0.000000 1.664940 0.000000 
#    z 0.000000 0.000000 1.678820 
# 
# From -- ./inp_files/3625.got.cif
#   From: 2010.05.17/outbox.cif.g08.bks.cpg/sg164_2_cif.got.tgz:3625.got - 2010.05.20 10:58:56.
