data_PCOD9578110
_publ_section_title
;
Structure prediction by ZEFSAII (Michael W. Deem and Ramdas Pophale) SiO2 
 PCOD9578110
Probable space group: P -3 1 C
;
_chemical_formula_sum "Si O2"
_cell_formula_units_Z 72
_cell_length_a 22.965541
_cell_length_b 22.965541
_cell_length_c 8.431651
_cell_angle_alpha 90.000000
_cell_angle_beta 90.000000
_cell_angle_gamma 120.000000
_cell_volume 3851.204806
_symmetry_space_group_name_H-M "P -3 1 C"
_symmetry_group_IT_number 163
_symmetry_cell_setting 'hexagonal'
loop_
_space_group_symop_operation_xyz
x,y,z
-y,x-y,z
-x+y,-x,z
-y,-x,1/2-z
-x+y,y,1/2-z
x,x-y,1/2-z
-x,-y,-z
y,-x+y,-z
x-y,x,-z
y,x,1/2+z
x-y,-y,1/2+z
-x,-x+y,1/2+z
loop_
_atom_site_type_symbol
_atom_site_label
_atom_site_fract_x
_atom_site_fract_y
_atom_site_fract_z
Si Si1 0.904625 0.559054 0.711233
Si Si2 0.812207 0.624414 0.750000
Si Si3 0.960488 0.370288 0.439962
Si Si4 0.388945 0.568485 0.027927
Si Si5 0.780417 0.155449 0.091504
Si Si6 0.748324 0.281738 0.430223
Si Si7 0.454668 0.909335 0.750000
O O1 0.849079 0.581316 0.725021
O O2 0.868679 0.482426 0.658180
O O3 0.961898 0.605729 0.586361
O O4 0.941971 0.571115 0.877883
O O5 0.815337 0.658659 0.577674
O O6 0.911384 0.292918 0.386357
O O7 0.948691 0.425905 0.349715
O O8 0.445060 0.645379 0.000279
O O9 0.318140 0.565587 0.035145
O O10 0.394584 0.533735 0.866643
O O11 0.825531 0.174470 0.250000
O O12 0.761328 0.214357 0.071609
O O13 0.721577 0.278424 0.250000
#
# Coordination Sequence:
#
# PCOD9578110 Si02
#       7
#    12   6  12  12  12  12   6
#     4  11  26  43  62  83 115 142 188 238 296 355
#     4  10  22  42  62  84 111 144 180 230 286 340
#     4  11  25  42  60  87 105 145 186 229 295 364
#     4  12  22  37  60  81 112 143 188 244 299 368
#     4  10  20  39  63  83 108 143 181 228 291 344
#     4  11  19  35  56  79 100 143 187 227 298 371
#     4  12  22  40  58  82 107 142 180 246 304 354
#
# _framework density 18.695449
#
# number of rings (size 3 to 8) (size 9 to 14) (size 15 to 20)
#    0.000    1.000    5.000    2.333    2.333    3.333 
#    0.000    0.000    0.000    2.000    0.000    0.000 
#    0.000    0.000    0.000    0.000    0.000    0.000 
#
# Total GULP energy -402163.897699 kJ/mol
# GULP energy per Si atom -5585.609690 kJ/mol
# Density = 1.865290 g / cm^3
# Si number density = 18.695449 Si / 1000 Ang^3
#
#
#
# Elastic Constant Matrix: (Units=GPa)
#
#
# Indices 1 2 3 4 5 6 
#
# 1 46.7556 34.0391 43.5478 0.0000 -10.3131 0.0000
# 2 34.0391 46.7556 43.5478 0.0000 10.3131 0.0000
# 3 43.5478 43.5478 115.8914 0.0000 0.0000 0.0000
# 4 0.0000 0.0000 0.0000 21.0241 0.0000 10.3131
# 5 -10.3131 10.3131 0.0000 0.0000 21.0241 0.0000
# 6 0.0000 0.0000 0.0000 10.3131 0.0000 6.3583
#
#
#
# Elastic Compliance Matrix: (Units=1/GPa)
#
#
# Indices 1 2 3 4 5 6 
#
# 1 0.202821 -0.182017 -0.007817 0.000000 0.188778 0.000000
# 2 -0.182017 0.202821 -0.007817 0.000000 -0.188778 0.000000
# 3 -0.007817 -0.007817 0.014504 0.000000 0.000000 0.000000
# 4 0.000000 0.000000 0.000000 0.232770 0.000000 -0.377556
# 5 0.188778 -0.188778 0.000000 0.000000 0.232770 0.000000
# 6 0.000000 0.000000 0.000000 -0.377556 0.000000 0.769674
#
#
# Mechanical properties :
#
#
# Convention : Reuss Voigt Hill
#
# Bulk Modulus (GPa) = 40.25387 50.18579 45.21983
# Shear Modulus (GPa) = 2.42843 15.56580 8.99712
#
# Velocity S-wave (km/s) = 1.14095 2.88861 2.19611
# Velocity P-wave (km/s) = 4.82844 6.16665 5.53811
#
# Compressibility (1/GPa) = 0.02484233
#
# Stress axis : x y z
#
# Youngs Moduli (GPa) = 4.93046 4.93046 68.94737
#
# Poissons Ratio (x) = 0.89743 0.53899
# Poissons Ratio (y) = 0.89743 0.53899
# Poissons Ratio (z) = 0.03854 0.03854
#
# Static dielectric constant tensor:
#      x y z
#    x 1.643830 0.000000 0.000000 
#    y 0.000000 1.643830 0.000000 
#    z 0.000000 0.000000 1.861230 
# 
# From -- ./inp_files/1282.got.cif
#   From: 2010.05.17/outbox.cif.g08.bks.cpg/sg163_1_cif.got.tgz:1282.got - 2010.05.20 10:56:03.
