data_PCOD9578933
_publ_section_title
;
Structure prediction by ZEFSAII (Michael W. Deem and Ramdas Pophale) SiO2 
 PCOD9578933
Probable space group: P -3 C 1
;
_chemical_formula_sum "Si O2"
_cell_formula_units_Z 70
_cell_length_a 15.010627
_cell_length_b 15.010627
_cell_length_c 18.707200
_cell_angle_alpha 90.000000
_cell_angle_beta 90.000000
_cell_angle_gamma 120.000000
_cell_volume 3650.371689
_symmetry_space_group_name_H-M "P -3 C 1"
_symmetry_group_IT_number 165
_symmetry_cell_setting 'hexagonal'
loop_
_space_group_symop_operation_xyz
x,y,z
-y,x-y,z
-x+y,-x,z
x-y,-y,1/2-z
-x,-x+y,1/2-z
y,x,1/2-z
-x,-y,-z
y,-x+y,-z
x-y,x,-z
-x+y,y,1/2+z
x,x-y,1/2+z
-y,-x,1/2+z
loop_
_atom_site_type_symbol
_atom_site_label
_atom_site_fract_x
_atom_site_fract_y
_atom_site_fract_z
Si Si1 0.142234 0.441325 0.128018
Si Si2 0.314977 0.009235 0.508583
Si Si3 0.000000 0.000000 0.413548
Si Si4 0.801460 0.105332 0.736943
Si Si5 0.110594 0.244191 0.409014
Si Si6 0.000000 0.671566 0.250000
Si Si7 0.897148 0.527643 0.382229
O O1 0.103804 0.380879 0.203960
O O2 0.260103 0.468100 0.122639
O O3 0.128249 0.539904 0.126160
O O4 0.082428 0.375118 0.057950
O O5 0.295207 0.065004 0.574644
O O6 0.199635 0.937385 0.479860
O O7 0.367851 0.948950 0.542271
O O8 0.056505 0.121752 0.392457
O O9 0.000000 0.000000 0.500000
O O10 0.785729 0.098801 0.652052
O O11 0.904021 0.213263 0.745289
O O12 0.803250 0.000000 0.750000
O O13 0.027725 0.623837 0.182222
#
# Coordination Sequence:
#
# PCOD9578933 Si02
#       7
#    12  12   4  12  12   6  12
#     4  11  25  43  66  94 121 174 215 277 337 381
#     4  12  21  40  67  96 131 169 217 266 324 394
#     4  12  24  33  61 101 148 192 211 257 322 397
#     4  11  24  40  61  91 132 171 218 263 320 400
#     4  12  23  39  61  99 138 177 219 255 323 396
#     4  10  24  40  62  92 124 176 216 266 330 386
#     4  11  24  43  67  93 127 165 222 276 328 395
#
# _framework density 19.176130000000001
#
# number of rings (size 3 to 8) (size 9 to 14) (size 15 to 20)
#    0.000    0.686    6.857    0.857    3.600    0.000 
#    0.514    0.000    0.000    0.000    0.000    0.000 
#    0.000    0.000    0.000    0.000    0.000    0.000 
#
# Total GULP energy -390015.577737 kJ/mol
# GULP energy per Si atom -5571.651111 kJ/mol
# Density = 1.913248 g / cm^3
# Si number density = 19.176130 Si / 1000 Ang^3
#
#
#
# Elastic Constant Matrix: (Units=GPa)
#
#
# Indices 1 2 3 4 5 6 
#
# 1 107.6911 53.8601 49.2476 -5.2256 0.0000 0.0000
# 2 53.8601 107.6911 49.2476 5.2256 0.0000 0.0000
# 3 49.2476 49.2476 111.2141 0.0000 0.0000 0.0000
# 4 -5.2256 5.2256 0.0000 24.4137 0.0000 0.0000
# 5 0.0000 0.0000 0.0000 0.0000 24.4137 -5.2256
# 6 0.0000 0.0000 0.0000 0.0000 -5.2256 26.9155
#
#
#
# Elastic Compliance Matrix: (Units=1/GPa)
#
#
# Indices 1 2 3 4 5 6 
#
# 1 0.013931 -0.005451 -0.003755 0.004149 0.000000 0.000000
# 2 -0.005451 0.013931 -0.003755 -0.004149 0.000000 0.000000
# 3 -0.003755 -0.003755 0.012317 0.000000 0.000000 0.000000
# 4 0.004149 -0.004149 0.000000 0.042737 0.000000 0.000000
# 5 0.000000 0.000000 0.000000 0.000000 0.042737 0.008297
# 6 0.000000 0.000000 0.000000 0.000000 0.008297 0.038764
#
#
# Mechanical properties :
#
#
# Convention : Reuss Voigt Hill
#
# Bulk Modulus (GPa) = 70.14379 70.14520 70.14450
# Shear Modulus (GPa) = 25.62922 26.76463 26.19692
#
# Velocity S-wave (km/s) = 3.65981 3.73999 3.70012
# Velocity P-wave (km/s) = 7.38356 7.43700 7.41033
#
# Compressibility (1/GPa) = 0.01425643
#
# Stress axis : x y z
#
# Youngs Moduli (GPa) = 71.78415 71.78415 81.18862
#
# Poissons Ratio (x) = 0.39133 0.30484
# Poissons Ratio (y) = 0.39133 0.30484
# Poissons Ratio (z) = 0.26953 0.26953
#
# Static dielectric constant tensor:
#      x y z
#    x 1.684000 0.000000 0.000000 
#    y 0.000000 1.684000 0.000000 
#    z 0.000000 0.000000 1.732380 
# 
# From -- ./inp_files/2298.got.cif
#   From: 2010.05.17/outbox.cif.g08.bks.cpg/sg165_2_cif.got.tgz:2298.got - 2010.05.20 11:02:39.
