data_PCOD9578021
_publ_section_title
;
Structure prediction by ZEFSAII (Michael W. Deem and Ramdas Pophale) SiO2 
 PCOD9578021
Probable space group: P -3 1 C
;
_chemical_formula_sum "Si O2"
_cell_formula_units_Z 48
_cell_length_a 27.312182
_cell_length_b 27.312182
_cell_length_c 5.302131
_cell_angle_alpha 90.000000
_cell_angle_beta 90.000000
_cell_angle_gamma 120.000000
_cell_volume 3425.262666
_symmetry_space_group_name_H-M "P -3 1 C"
_symmetry_group_IT_number 163
_symmetry_cell_setting 'hexagonal'
loop_
_space_group_symop_operation_xyz
x,y,z
-y,x-y,z
-x+y,-x,z
-y,-x,1/2-z
-x+y,y,1/2-z
x,x-y,1/2-z
-x,-y,-z
y,-x+y,-z
x-y,x,-z
y,x,1/2+z
x-y,-y,1/2+z
-x,-x+y,1/2+z
loop_
_atom_site_type_symbol
_atom_site_label
_atom_site_fract_x
_atom_site_fract_y
_atom_site_fract_z
Si Si1 0.300628 0.500444 0.690032
Si Si2 0.401852 0.368454 0.764054
Si Si3 0.530896 0.469105 0.750000
Si Si4 0.864432 0.432216 0.250000
Si Si5 0.732524 0.161297 0.691017
O O1 0.265814 0.531627 0.750000
O O2 0.365762 0.538441 0.736746
O O3 0.290175 0.477879 0.404699
O O4 0.276959 0.450770 0.902329
O O5 0.367957 0.374095 0.530075
O O6 0.462736 0.427970 0.760947
O O7 0.405716 0.311365 0.731487
O O8 0.546616 0.448945 0.496695
O O9 0.800823 0.199178 0.750000
#
# Coordination Sequence:
#
# PCOD9578021 Si02
#       5
#    12  12   6   6  12
#     4  10  19  32  49  63  81 110 146 183 218 266
#     4  12  22  34  49  72  96 119 148 185 228 278
#     4  12  22  33  48  68  98 124 142 176 236 292
#     4  12  18  33  50  64  90 114 150 180 234 278
#     4  10  20  36  52  66  84 116 148 176 215 267
#
# _framework density 14.013522999999999
#
# number of rings (size 3 to 8) (size 9 to 14) (size 15 to 20)
#    0.000    1.000    5.000    3.750    0.000    0.000 
#    0.750    0.000    0.000    0.000    0.000    0.000 
#    0.000    0.000    0.000    0.000    0.000    0.000 
#
# Total GULP energy -267208.424661 kJ/mol
# GULP energy per Si atom -5566.842180 kJ/mol
# Density = 1.398163 g / cm^3
# Si number density = 14.013523 Si / 1000 Ang^3
#
#
#
# Elastic Constant Matrix: (Units=GPa)
#
#
# Indices 1 2 3 4 5 6 
#
# 1 43.1126 8.6886 4.7098 -0.0002 7.7565 0.0000
# 2 8.6886 43.1126 4.7098 0.0002 -7.7565 0.0000
# 3 4.7098 4.7098 85.1914 0.0000 0.0000 0.0000
# 4 -0.0002 0.0002 0.0000 15.5467 0.0000 -7.7565
# 5 7.7565 -7.7565 0.0000 0.0000 15.5467 -0.0002
# 6 0.0000 0.0000 0.0000 -7.7565 -0.0002 17.2120
#
#
#
# Elastic Compliance Matrix: (Units=1/GPa)
#
#
# Indices 1 2 3 4 5 6 
#
# 1 0.028488 -0.008987 -0.001078 0.000000 -0.018697 0.000000
# 2 -0.008987 0.028488 -0.001078 0.000000 0.018697 0.000000
# 3 -0.001078 -0.001078 0.011857 0.000000 0.000000 0.000000
# 4 0.000000 0.000000 0.000000 0.082979 0.000000 0.037394
# 5 -0.018697 0.018697 0.000000 0.000000 0.082979 0.000001
# 6 0.000000 0.000000 0.000000 0.037394 0.000001 0.074951
#
#
# Mechanical properties :
#
#
# Convention : Reuss Voigt Hill
#
# Bulk Modulus (GPa) = 21.48397 23.07034 22.27715
# Shear Modulus (GPa) = 14.38664 19.88163 17.13413
#
# Velocity S-wave (km/s) = 3.20758 3.77071 3.50049
# Velocity P-wave (km/s) = 5.39279 5.95452 5.68061
#
# Compressibility (1/GPa) = 0.04654634
#
# Stress axis : x y z
#
# Youngs Moduli (GPa) = 35.10257 35.10257 84.33501
#
# Poissons Ratio (x) = 0.31548 0.09092
# Poissons Ratio (y) = 0.31548 0.09092
# Poissons Ratio (z) = 0.03784 0.03784
#
# Static dielectric constant tensor:
#      x y z
#    x 1.470850 0.000000 0.000000 
#    y 0.000000 1.470850 0.000000 
#    z 0.000000 0.000000 1.469640 
# 
# From -- ./inp_files/291.got.cif
#   From: 2010.05.17/outbox.cif.g08.bks.cpg/sg163_1_cif.got.tgz:291.got - 2010.05.20 10:56:03.
