data_PCOD9578861
_publ_section_title
;
Structure prediction by ZEFSAII (Michael W. Deem and Ramdas Pophale) SiO2 
 PCOD9578861
Probable space group: P -3 C 1
;
_chemical_formula_sum "Si O2"
_cell_formula_units_Z 72
_cell_length_a 14.321697
_cell_length_b 14.321697
_cell_length_c 19.029354
_cell_angle_alpha 90.000000
_cell_angle_beta 90.000000
_cell_angle_gamma 120.000000
_cell_volume 3380.209667
_symmetry_space_group_name_H-M "P -3 C 1"
_symmetry_group_IT_number 165
_symmetry_cell_setting 'hexagonal'
loop_
_space_group_symop_operation_xyz
x,y,z
-y,x-y,z
-x+y,-x,z
x-y,-y,1/2-z
-x,-x+y,1/2-z
y,x,1/2-z
-x,-y,-z
y,-x+y,-z
x-y,x,-z
-x+y,y,1/2+z
x,x-y,1/2+z
-y,-x,1/2+z
loop_
_atom_site_type_symbol
_atom_site_label
_atom_site_fract_x
_atom_site_fract_y
_atom_site_fract_z
Si Si1 0.438161 0.210784 0.836952
Si Si2 0.922883 0.479043 0.812527
Si Si3 0.340835 0.257383 0.093518
Si Si4 0.874855 0.117248 0.238578
Si Si5 0.552106 0.471637 0.065035
Si Si6 0.243768 0.850194 0.518623
O O1 0.482772 0.321191 0.794250
O O2 0.506527 0.150663 0.834986
O O3 0.324498 0.134759 0.801221
O O4 0.436156 0.237058 0.919015
O O5 0.000000 0.487004 0.750000
O O6 0.006599 0.553993 0.872017
O O7 0.299830 0.190338 0.166316
O O8 0.468917 0.350268 0.091758
O O9 0.287979 0.326607 0.062688
O O10 0.319943 0.170207 0.033950
O O11 0.000000 0.207202 0.250000
O O12 0.860618 0.000000 0.250000
O O13 0.500000 0.500000 0.000000
O O14 0.668350 0.510791 0.030888
#
# Coordination Sequence:
#
# PCOD9578861 Si02
#       6
#    12  12  12  12  12  12
#     4  12  24  44  68 103 137 187 230 282 367 420
#     4  12  25  43  71 101 145 178 234 289 346 433
#     4  11  24  44  69 103 139 180 238 297 359 426
#     4  12  26  47  71  98 140 191 241 297 355 428
#     4  10  20  44  65  99 137 177 223 291 353 419
#     4  11  24  40  73  98 140 179 237 287 360 425
#
# _framework density 21.300453000000001
#
# number of rings (size 3 to 8) (size 9 to 14) (size 15 to 20)
#    0.000    0.667    5.000    4.500    7.000    0.000 
#    1.000    0.000    0.000    1.333    0.000    0.000 
#    0.000    0.000    0.000    0.000    0.000    0.000 
#
# Total GULP energy -401273.612612 kJ/mol
# GULP energy per Si atom -5573.244620 kJ/mol
# Density = 2.125197 g / cm^3
# Si number density = 21.300453 Si / 1000 Ang^3
#
#
#
# Elastic Constant Matrix: (Units=GPa)
#
#
# Indices 1 2 3 4 5 6 
#
# 1 70.0408 28.8085 29.8540 4.9704 0.0000 0.0000
# 2 28.8085 70.0408 29.8540 -4.9704 0.0000 0.0000
# 3 29.8540 29.8540 108.0016 0.0000 0.0000 0.0000
# 4 4.9704 -4.9704 0.0000 27.0961 0.0000 0.0000
# 5 0.0000 0.0000 0.0000 0.0000 27.0961 4.9704
# 6 0.0000 0.0000 0.0000 0.0000 4.9704 20.6162
#
#
#
# Elastic Compliance Matrix: (Units=1/GPa)
#
#
# Indices 1 2 3 4 5 6 
#
# 1 0.018760 -0.006615 -0.003357 -0.004655 0.000000 0.000000
# 2 -0.006615 0.018760 -0.003357 0.004655 0.000000 0.000000
# 3 -0.003357 -0.003357 0.011115 0.000000 0.000000 0.000000
# 4 -0.004655 0.004655 0.000000 0.038613 0.000000 0.000000
# 5 0.000000 0.000000 0.000000 0.000000 0.038613 -0.009309
# 6 0.000000 0.000000 0.000000 0.000000 -0.009309 0.050750
#
#
# Mechanical properties :
#
#
# Convention : Reuss Voigt Hill
#
# Bulk Modulus (GPa) = 45.50507 47.23509 46.37008
# Shear Modulus (GPa) = 23.74228 25.59944 24.67086
#
# Velocity S-wave (km/s) = 3.34224 3.47050 3.40697
# Velocity P-wave (km/s) = 6.02527 6.18732 6.10683
#
# Compressibility (1/GPa) = 0.02197557
#
# Stress axis : x y z
#
# Youngs Moduli (GPa) = 53.30613 53.30613 89.96892
#
# Poissons Ratio (x) = 0.35265 0.30202
# Poissons Ratio (y) = 0.35265 0.30202
# Poissons Ratio (z) = 0.17894 0.17894
#
# Static dielectric constant tensor:
#      x y z
#    x 1.945610 0.000000 0.000000 
#    y 0.000000 1.945610 0.000000 
#    z 0.000000 0.000000 1.793850 
# 
# From -- ./inp_files/2284.got.cif
#   From: 2010.05.17/outbox.cif.g08.bks.cpg/sg165_2_cif.got.tgz:2284.got - 2010.05.20 11:02:39.
