data_PCOD9578391
_publ_section_title
;
Structure prediction by ZEFSAII (Michael W. Deem and Ramdas Pophale) SiO2 
 PCOD9578391
Probable space group: P -3 M 1
;
_chemical_formula_sum "Si O2"
_cell_formula_units_Z 84
_cell_length_a 17.465515
_cell_length_b 17.465515
_cell_length_c 18.533608
_cell_angle_alpha 90.000000
_cell_angle_beta 90.000000
_cell_angle_gamma 120.000000
_cell_volume 4896.135146
_symmetry_space_group_name_H-M "P -3 M 1"
_symmetry_group_IT_number 164
_symmetry_cell_setting 'hexagonal'
loop_
_space_group_symop_operation_xyz
x,y,z
-y,x-y,z
-x+y,-x,z
x-y,-y,-z
-x,-x+y,-z
y,x,-z
-x,-y,-z
y,-x+y,-z
x-y,x,-z
-x+y,y,z
x,x-y,z
-y,-x,z
loop_
_atom_site_type_symbol
_atom_site_label
_atom_site_fract_x
_atom_site_fract_y
_atom_site_fract_z
Si Si1 0.818554 0.000585 0.289541
Si Si2 0.299044 0.237652 0.431609
Si Si3 0.407146 0.987110 0.914475
Si Si4 0.331316 0.843610 0.312764
Si Si5 0.912230 0.652638 0.813622
Si Si6 0.844801 0.334314 0.201143
Si Si7 0.609687 0.044891 0.346088
O O1 0.908383 0.091618 0.272413
O O2 0.785423 0.013091 0.367591
O O3 0.833945 0.916973 0.290621
O O4 0.739010 0.976842 0.233561
O O5 0.279289 0.279289 0.500000
O O6 0.295110 0.147555 0.452902
O O7 0.392749 0.305430 0.396231
O O8 0.507587 0.015173 0.891675
O O9 0.349613 0.890880 0.877189
O O10 0.368801 0.042791 0.878027
O O11 0.410019 0.000000 0.000000
O O12 0.411982 0.823964 0.305170
O O13 0.242372 0.757629 0.341833
O O14 0.302228 0.868846 0.238023
O O15 0.372438 0.938371 0.352902
O O16 0.833995 0.667989 0.839511
O O17 0.813638 0.406819 0.207862
O O18 0.763884 0.236117 0.211145
O O19 0.919174 0.361309 0.263960
O O20 0.533209 0.066417 0.365653
#
# Coordination Sequence:
#
# PCOD9578391 Si02
#       7
#    12  12  12  12  12  12  12
#     4  10  20  35  54  78 105 137 175 220 271 320
#     4  11  22  35  54  79 108 141 177 216 263 319
#     4  10  20  34  51  72 103 140 172 208 259 314
#     4  10  18  30  50  75 103 132 167 210 256 303
#     4  10  19  32  52  74 100 132 172 217 260 308
#     4  10  19  33  54  79 105 134 172 217 265 314
#     4  10  20  35  56  78 104 138 175 220 265 312
#
# _framework density 17.156389000000001
#
# number of rings (size 3 to 8) (size 9 to 14) (size 15 to 20)
#    0.000    1.857    2.857    1.714    0.000    3.143 
#    0.000    0.000    0.000    2.857    0.000    1.000 
#    0.000    2.857    0.000    0.000    0.000    0.143 
#
# Total GULP energy -468112.658434 kJ/mol
# GULP energy per Si atom -5572.769743 kJ/mol
# Density = 1.711734 g / cm^3
# Si number density = 17.156389 Si / 1000 Ang^3
#
#
#
# Elastic Constant Matrix: (Units=GPa)
#
#
# Indices 1 2 3 4 5 6 
#
# 1 78.9124 28.1301 28.1134 -4.7026 0.0000 0.0000
# 2 28.1301 78.9124 28.1134 4.7026 0.0000 0.0000
# 3 28.1134 28.1134 64.9196 0.0000 0.0000 0.0000
# 4 -4.7026 4.7026 0.0000 13.4271 0.0000 0.0000
# 5 0.0000 0.0000 0.0000 0.0000 13.4271 -4.7026
# 6 0.0000 0.0000 0.0000 0.0000 -4.7026 25.3911
#
#
#
# Elastic Compliance Matrix: (Units=1/GPa)
#
#
# Indices 1 2 3 4 5 6 
#
# 1 0.016575 -0.004482 -0.005237 0.007375 0.000000 0.000000
# 2 -0.004482 0.016575 -0.005237 -0.007375 0.000000 0.000000
# 3 -0.005237 -0.005237 0.019939 0.000000 0.000000 0.000000
# 4 0.007375 -0.007375 0.000000 0.079642 0.000000 0.000000
# 5 0.000000 0.000000 0.000000 0.000000 0.079642 0.014750
# 6 0.000000 0.000000 0.000000 0.000000 0.014750 0.042116
#
#
# Mechanical properties :
#
#
# Convention : Reuss Voigt Hill
#
# Bulk Modulus (GPa) = 43.14485 43.49537 43.32011
# Shear Modulus (GPa) = 17.11581 19.67491 18.39536
#
# Velocity S-wave (km/s) = 3.16196 3.39011 3.27802
# Velocity P-wave (km/s) = 6.20751 6.38210 6.29541
#
# Compressibility (1/GPa) = 0.02317774
#
# Stress axis : x y z
#
# Youngs Moduli (GPa) = 60.33061 60.33061 50.15231
#
# Poissons Ratio (x) = 0.27043 0.26264
# Poissons Ratio (y) = 0.27043 0.26264
# Poissons Ratio (z) = 0.31594 0.31594
#
# Static dielectric constant tensor:
#      x y z
#    x 1.595580 0.000000 0.000000 
#    y 0.000000 1.595580 0.000000 
#    z 0.000000 0.000000 1.554490 
# 
# From -- ./inp_files/3580.got.cif
#   From: 2010.05.17/outbox.cif.g08.bks.cpg/sg164_2_cif.got.tgz:3580.got - 2010.05.20 10:58:56.
