data_PCOD9578614
_publ_section_title
;
Structure prediction by ZEFSAII (Michael W. Deem and Ramdas Pophale) SiO2 
 PCOD9578614
Probable space group: P -3 M 1
;
_chemical_formula_sum "Si O2"
_cell_formula_units_Z 60
_cell_length_a 12.952976
_cell_length_b 12.952976
_cell_length_c 26.177058
_cell_angle_alpha 90.000000
_cell_angle_beta 90.000000
_cell_angle_gamma 120.000000
_cell_volume 3803.562777
_symmetry_space_group_name_H-M "P -3 M 1"
_symmetry_group_IT_number 164
_symmetry_cell_setting 'hexagonal'
loop_
_space_group_symop_operation_xyz
x,y,z
-y,x-y,z
-x+y,-x,z
x-y,-y,-z
-x,-x+y,-z
y,x,-z
-x,-y,-z
y,-x+y,-z
x-y,x,-z
-x+y,y,z
x,x-y,z
-y,-x,z
loop_
_atom_site_type_symbol
_atom_site_label
_atom_site_fract_x
_atom_site_fract_y
_atom_site_fract_z
Si Si1 0.244735 0.245173 0.356024
Si Si2 0.911748 0.333788 0.852817
Si Si3 0.088050 0.666281 0.451825
Si Si4 0.999171 0.753646 0.057133
Si Si5 0.912095 0.578866 0.736063
O O1 0.253018 0.126509 0.360693
O O2 0.304836 0.334608 0.403565
O O3 0.307260 0.319646 0.304907
O O4 0.107092 0.214184 0.354409
O O5 0.907799 0.453900 0.858977
O O6 0.779408 0.220593 0.857998
O O7 0.950717 0.331017 0.794505
O O8 0.989604 0.320771 0.896825
O O9 0.103157 0.551579 0.441865
O O10 0.216208 0.783793 0.461401
O O11 0.000000 0.634472 0.500000
O O12 0.880570 0.761139 0.062251
O O13 0.114337 0.885664 0.059917
O O14 0.000000 0.706571 0.000000
O O15 0.775685 0.551370 0.731068
O O16 0.916659 0.458330 0.727239
#
# Coordination Sequence:
#
# PCOD9578614 Si02
#       5
#    12  12  12  12  12
#     4  10  20  33  49  70  97 127 158 193 234 278
#     4   9  17  29  46  68  92 118 149 187 231 276
#     4  10  20  34  53  76 101 129 161 197 235 275
#     4   9  17  29  45  65  89 118 152 189 228 270
#     4   9  17  30  49  71  93 118 150 190 234 278
#
# _framework density 15.774684000000001
#
# number of rings (size 3 to 8) (size 9 to 14) (size 15 to 20)
#    0.000    2.600    0.000    2.200    0.000    3.600 
#    0.000    2.000    0.000   10.400    0.000    0.000 
#    0.000    0.000    0.000    0.000    0.000    0.000 
#
# Total GULP energy -334403.947600 kJ/mol
# GULP energy per Si atom -5573.399127 kJ/mol
# Density = 1.573878 g / cm^3
# Si number density = 15.774684 Si / 1000 Ang^3
#
#
#
# Elastic Constant Matrix: (Units=GPa)
#
#
# Indices 1 2 3 4 5 6 
#
# 1 92.0702 54.6847 71.6907 1.6292 0.0000 0.0000
# 2 54.6847 92.0702 71.6907 -1.6292 0.0000 0.0000
# 3 71.6907 71.6907 126.0421 0.0000 0.0000 0.0000
# 4 1.6292 -1.6292 0.0000 24.4934 0.0000 0.0000
# 5 0.0000 0.0000 0.0000 0.0000 24.4934 1.6292
# 6 0.0000 0.0000 0.0000 0.0000 1.6292 18.6927
#
#
#
# Elastic Compliance Matrix: (Units=1/GPa)
#
#
# Indices 1 2 3 4 5 6 
#
# 1 0.021121 -0.005784 -0.008723 -0.001790 0.000000 0.000000
# 2 -0.005784 0.021121 -0.008723 0.001790 0.000000 0.000000
# 3 -0.008723 -0.008723 0.017857 0.000000 0.000000 0.000000
# 4 -0.001790 0.001790 0.000000 0.041065 0.000000 0.000000
# 5 0.000000 0.000000 0.000000 0.000000 0.041065 -0.003579
# 6 0.000000 0.000000 0.000000 0.000000 -0.003579 0.053809
#
#
# Mechanical properties :
#
#
# Convention : Reuss Voigt Hill
#
# Bulk Modulus (GPa) = 73.32665 78.47940 75.90302
# Shear Modulus (GPa) = 20.23922 21.01033 20.62477
#
# Velocity S-wave (km/s) = 3.58581 3.65348 3.61980
# Velocity P-wave (km/s) = 7.98303 8.22529 8.10507
#
# Compressibility (1/GPa) = 0.01363761
#
# Stress axis : x y z
#
# Youngs Moduli (GPa) = 47.34700 47.34700 55.99929
#
# Poissons Ratio (x) = 0.27384 0.48851
# Poissons Ratio (y) = 0.27384 0.48851
# Poissons Ratio (z) = 0.41303 0.41303
#
# Static dielectric constant tensor:
#      x y z
#    x 1.495690 0.000000 0.000000 
#    y 0.000000 1.495690 0.000000 
#    z 0.000000 0.000000 1.542820 
# 
# From -- ./inp_files/5161.got.cif
#   From: 2010.05.17/outbox.cif.g08.bks.cpg/sg164_3_cif.got.tgz:5161.got - 2010.05.20 10:58:56.
