data_PCOD9578515
_publ_section_title
;
Structure prediction by ZEFSAII (Michael W. Deem and Ramdas Pophale) SiO2 
 PCOD9578515
Probable space group: P -3 M 1
;
_chemical_formula_sum "Si O2"
_cell_formula_units_Z 84
_cell_length_a 19.052813
_cell_length_b 19.052813
_cell_length_c 14.774742
_cell_angle_alpha 90.000000
_cell_angle_beta 90.000000
_cell_angle_gamma 120.000000
_cell_volume 4644.818492
_symmetry_space_group_name_H-M "P -3 M 1"
_symmetry_group_IT_number 164
_symmetry_cell_setting 'hexagonal'
loop_
_space_group_symop_operation_xyz
x,y,z
-y,x-y,z
-x+y,-x,z
x-y,-y,-z
-x,-x+y,-z
y,x,-z
-x,-y,-z
y,-x+y,-z
x-y,x,-z
-x+y,y,z
x,x-y,z
-y,-x,z
loop_
_atom_site_type_symbol
_atom_site_label
_atom_site_fract_x
_atom_site_fract_y
_atom_site_fract_z
Si Si1 0.530356 0.628742 0.137282
Si Si2 0.503426 0.170846 0.062639
Si Si3 0.764451 0.688144 0.373020
Si Si4 0.745476 0.093708 0.575901
Si Si5 0.706595 0.051423 0.175040
Si Si6 0.163293 0.000587 0.109351
Si Si7 0.828163 0.333941 0.671742
O O1 0.468024 0.531977 0.138219
O O2 0.621151 0.649946 0.156137
O O3 0.503867 0.664529 0.220283
O O4 0.519464 0.659882 0.040869
O O5 0.578628 0.157256 0.088965
O O6 0.530086 0.265043 0.068427
O O7 0.420336 0.120403 0.119091
O O8 0.859443 0.718885 0.366513
O O9 0.734585 0.751790 0.391251
O O10 0.735206 0.639332 0.467797
O O11 0.723002 0.644651 0.279893
O O12 0.827703 0.172298 0.602276
O O13 0.675301 0.100287 0.626825
O O14 0.775697 0.029005 0.147555
O O15 0.142740 0.071370 0.132812
O O16 0.088895 0.911106 0.136151
O O17 0.169599 0.000000 0.000000
O O18 0.832348 0.416174 0.643799
O O19 0.742580 0.257421 0.645568
#
# Coordination Sequence:
#
# PCOD9578515 Si02
#       7
#    12  12  12  12  12  12  12
#     4  10  21  36  55  81 112 146 185 231 283 335
#     4  11  23  39  58  81 115 157 199 239 280 331
#     4  10  20  36  57  81 109 143 186 235 285 338
#     4   9  19  37  59  81 109 144 185 232 287 347
#     4  12  22  36  57  83 115 145 192 237 283 334
#     4  10  21  36  54  78 111 150 189 230 280 337
#     4  10  19  34  56  85 116 145 181 228 284 341
#
# _framework density 18.084669000000002
#
# number of rings (size 3 to 8) (size 9 to 14) (size 15 to 20)
#    0.000    1.714    1.429    3.857    0.000    4.571 
#    0.000    4.286    0.000    0.286    0.000    4.000 
#    0.000    0.000    0.000    0.000    0.000    0.000 
#
# Total GULP energy -468062.126035 kJ/mol
# GULP energy per Si atom -5572.168167 kJ/mol
# Density = 1.804351 g / cm^3
# Si number density = 18.084669 Si / 1000 Ang^3
#
#
#
# Elastic Constant Matrix: (Units=GPa)
#
#
# Indices 1 2 3 4 5 6 
#
# 1 105.5136 57.0877 36.0052 -4.3926 0.0000 0.0000
# 2 57.0877 105.5136 36.0052 4.3926 0.0000 0.0000
# 3 36.0052 36.0052 71.5868 0.0000 0.0000 0.0000
# 4 -4.3926 4.3926 0.0000 16.0039 0.0000 0.0000
# 5 0.0000 0.0000 0.0000 0.0000 16.0039 -4.3926
# 6 0.0000 0.0000 0.0000 0.0000 -4.3926 24.2129
#
#
#
# Elastic Compliance Matrix: (Units=1/GPa)
#
#
# Indices 1 2 3 4 5 6 
#
# 1 0.014822 -0.006910 -0.003980 0.005965 0.000000 0.000000
# 2 -0.006910 0.014822 -0.003980 -0.005965 0.000000 0.000000
# 3 -0.003980 -0.003980 0.017972 0.000000 0.000000 0.000000
# 4 0.005965 -0.005965 0.000000 0.065759 0.000000 0.000000
# 5 0.000000 0.000000 0.000000 0.000000 0.065759 0.011930
# 6 0.000000 0.000000 0.000000 0.000000 0.011930 0.043464
#
#
# Mechanical properties :
#
#
# Convention : Reuss Voigt Hill
#
# Bulk Modulus (GPa) = 55.93276 60.09001 58.01138
# Shear Modulus (GPa) = 19.35756 21.47856 20.41806
#
# Velocity S-wave (km/s) = 3.27522 3.44999 3.36374
# Velocity P-wave (km/s) = 6.73039 7.01207 6.87267
#
# Compressibility (1/GPa) = 0.01787861
#
# Stress axis : x y z
#
# Youngs Moduli (GPa) = 67.46579 67.46579 55.64136
#
# Poissons Ratio (x) = 0.46618 0.22143
# Poissons Ratio (y) = 0.46618 0.22143
# Poissons Ratio (z) = 0.26849 0.26849
#
# Static dielectric constant tensor:
#      x y z
#    x 1.628850 0.000000 0.000000 
#    y 0.000000 1.628850 0.000000 
#    z 0.000000 0.000000 1.629500 
# 
# From -- ./inp_files/3576.got.cif
#   From: 2010.05.17/outbox.cif.g08.bks.cpg/sg164_2_cif.got.tgz:3576.got - 2010.05.20 10:58:56.
