data_PCOD9578657
_publ_section_title
;
Structure prediction by ZEFSAII (Michael W. Deem and Ramdas Pophale) SiO2 
 PCOD9578657
Probable space group: P -3 M 1
;
_chemical_formula_sum "Si O2"
_cell_formula_units_Z 60
_cell_length_a 12.679385
_cell_length_b 12.679385
_cell_length_c 26.066201
_cell_angle_alpha 90.000000
_cell_angle_beta 90.000000
_cell_angle_gamma 120.000000
_cell_volume 3629.148586
_symmetry_space_group_name_H-M "P -3 M 1"
_symmetry_group_IT_number 164
_symmetry_cell_setting 'hexagonal'
loop_
_space_group_symop_operation_xyz
x,y,z
-y,x-y,z
-x+y,-x,z
x-y,-y,-z
-x,-x+y,-z
y,x,-z
-x,-y,-z
y,-x+y,-z
x-y,x,-z
-x+y,y,z
x,x-y,z
-y,-x,z
loop_
_atom_site_type_symbol
_atom_site_label
_atom_site_fract_x
_atom_site_fract_y
_atom_site_fract_z
Si Si1 0.917425 0.333258 0.200100
Si Si2 0.748880 0.749097 0.699652
Si Si3 0.916715 0.332803 0.599952
Si Si4 0.749179 0.749179 0.000000
Si Si5 0.415849 0.333352 0.899960
Si Si6 0.000000 0.748833 0.500000
O O1 0.906876 0.453438 0.207619
O O2 0.785051 0.214950 0.193277
O O3 0.978371 0.309578 0.249578
O O4 0.999192 0.354914 0.149838
O O5 0.881286 0.762572 0.705441
O O6 0.685674 0.663655 0.650630
O O7 0.760490 0.880245 0.691877
O O8 0.924800 0.462400 0.599351
O O9 0.776453 0.223548 0.599999
O O10 0.978500 0.312320 0.549910
O O11 0.666446 0.688429 0.049955
O O12 0.761499 0.880750 0.993040
O O13 0.427638 0.213819 0.892830
O O14 0.547682 0.452319 0.906814
O O15 0.880809 0.761617 0.493386
#
# Coordination Sequence:
#
# PCOD9578657 Si02
#       6
#    12  12  12   6  12   6
#     4  10  20  34  52  74 101 133 168 206 248 295
#     4  10  20  34  53  76 102 132 166 206 250 296
#     4  10  20  34  52  74 101 133 168 206 248 295
#     4  10  20  34  52  74 100 130 164 202 246 296
#     4  10  20  34  52  74 100 130 165 205 249 296
#     4  10  20  34  54  78 104 134 168 208 252 298
#
# _framework density 16.532805
#
# number of rings (size 3 to 8) (size 9 to 14) (size 15 to 20)
#    0.000    2.000    0.000    4.000    0.000    0.000 
#    0.000    2.000    0.000   24.800    0.000    0.000 
#    0.000    0.000    0.000    0.000    0.000    0.000 
#
# Total GULP energy -335009.421752 kJ/mol
# GULP energy per Si atom -5583.490363 kJ/mol
# Density = 1.649518 g / cm^3
# Si number density = 16.532805 Si / 1000 Ang^3
#
#
#
# Elastic Constant Matrix: (Units=GPa)
#
#
# Indices 1 2 3 4 5 6 
#
# 1 148.2469 108.1681 110.7447 4.3371 0.0000 0.0000
# 2 108.1681 148.2469 110.7447 -4.3371 0.0000 0.0000
# 3 110.7447 110.7447 159.1688 0.0000 0.0000 0.0000
# 4 4.3371 -4.3371 0.0000 25.6184 0.0000 0.0000
# 5 0.0000 0.0000 0.0000 0.0000 25.6184 4.3371
# 6 0.0000 0.0000 0.0000 0.0000 4.3371 20.0394
#
#
#
# Elastic Compliance Matrix: (Units=1/GPa)
#
#
# Indices 1 2 3 4 5 6 
#
# 1 0.017837 -0.008063 -0.006801 -0.004385 0.000000 0.000000
# 2 -0.008063 0.017837 -0.006801 0.004385 0.000000 0.000000
# 3 -0.006801 -0.006801 0.015746 0.000000 0.000000 0.000000
# 4 -0.004385 0.004385 0.000000 0.040519 0.000000 0.000000
# 5 0.000000 0.000000 0.000000 0.000000 0.040519 -0.008770
# 6 0.000000 0.000000 0.000000 0.000000 -0.008770 0.051800
#
#
# Mechanical properties :
#
#
# Convention : Reuss Voigt Hill
#
# Bulk Modulus (GPa) = 123.57913 123.88641 123.73277
# Shear Modulus (GPa) = 21.71239 22.65560 22.18399
#
# Velocity S-wave (km/s) = 3.62787 3.70583 3.66706
# Velocity P-wave (km/s) = 9.61554 9.66474 9.64017
#
# Compressibility (1/GPa) = 0.00809198
#
# Stress axis : x y z
#
# Youngs Moduli (GPa) = 56.06312 56.06312 63.50833
#
# Poissons Ratio (x) = 0.45202 0.43190
# Poissons Ratio (y) = 0.45202 0.43190
# Poissons Ratio (z) = 0.38126 0.38126
#
# Static dielectric constant tensor:
#      x y z
#    x 1.523730 0.000000 0.000000 
#    y 0.000000 1.523730 0.000000 
#    z 0.000000 0.000000 1.530690 
# 
# From -- ./inp_files/5231.got.cif
#   From: 2010.05.17/outbox.cif.g08.bks.cpg/sg164_3_cif.got.tgz:5231.got - 2010.05.20 10:58:56.
