data_PCOD9578586
_publ_section_title
;
Structure prediction by ZEFSAII (Michael W. Deem and Ramdas Pophale) SiO2 
 PCOD9578586
Probable space group: P -3 M 1
;
_chemical_formula_sum "Si O2"
_cell_formula_units_Z 54
_cell_length_a 12.659492
_cell_length_b 12.659492
_cell_length_c 24.017129
_cell_angle_alpha 90.000000
_cell_angle_beta 90.000000
_cell_angle_gamma 120.000000
_cell_volume 3333.375812
_symmetry_space_group_name_H-M "P -3 M 1"
_symmetry_group_IT_number 164
_symmetry_cell_setting 'hexagonal'
loop_
_space_group_symop_operation_xyz
x,y,z
-y,x-y,z
-x+y,-x,z
x-y,-y,-z
-x,-x+y,-z
y,x,-z
-x,-y,-z
y,-x+y,-z
x-y,x,-z
-x+y,y,z
x,x-y,z
-y,-x,z
loop_
_atom_site_type_symbol
_atom_site_label
_atom_site_fract_x
_atom_site_fract_y
_atom_site_fract_z
Si Si1 0.415687 0.333572 0.337411
Si Si2 0.251742 0.251742 0.000000
Si Si3 0.081747 0.415556 0.229187
Si Si4 0.747140 0.747054 0.878171
Si Si5 0.584217 0.666300 0.445697
O O1 0.410124 0.205062 0.339538
O O2 0.555560 0.444441 0.338421
O O3 0.355768 0.349316 0.281291
O O4 0.350942 0.353930 0.390631
O O5 0.308194 0.305463 0.939646
O O6 0.238019 0.119010 0.002011
O O7 0.209445 0.418889 0.236630
O O8 0.102583 0.551292 0.226698
O O9 0.021544 0.343567 0.172251
O O10 0.746312 0.873156 0.871804
O O11 0.886220 0.772440 0.876871
O O12 0.646275 0.646275 0.500000
O O13 0.590072 0.795036 0.446572
O O14 0.443955 0.556046 0.445540
#
# Coordination Sequence:
#
# PCOD9578586 Si02
#       5
#    12   6  12  12  12
#     4  10  20  34  53  75  98 124 155 195 241 287
#     4   8  13  22  39  64  92 120 150 186 230 280
#     4  10  20  33  49  68  92 124 160 197 235 278
#     4   9  16  27  45  69  95 121 151 190 237 286
#     4  10  20  34  54  78 104 134 167 203 239 277
#
# _framework density 16.199791999999999
#
# number of rings (size 3 to 8) (size 9 to 14) (size 15 to 20)
#    0.000    2.444    0.000    3.000    0.000    1.778 
#    0.000    5.000    0.000   10.222    0.000    0.000 
#    0.000    0.000    0.000    0.000    0.000    0.000 
#
# Total GULP energy -300976.542088 kJ/mol
# GULP energy per Si atom -5573.639668 kJ/mol
# Density = 1.616292 g / cm^3
# Si number density = 16.199792 Si / 1000 Ang^3
#
#
#
# Elastic Constant Matrix: (Units=GPa)
#
#
# Indices 1 2 3 4 5 6 
#
# 1 99.4025 67.8158 78.1125 1.3822 0.0000 0.0000
# 2 67.8158 99.4025 78.1125 -1.3822 0.0000 0.0000
# 3 78.1125 78.1125 183.4257 0.0000 0.0000 0.0000
# 4 1.3822 -1.3822 0.0000 22.3040 0.0000 0.0000
# 5 0.0000 0.0000 0.0000 0.0000 22.3040 1.3822
# 6 0.0000 0.0000 0.0000 0.0000 1.3822 15.7934
#
#
#
# Elastic Compliance Matrix: (Units=1/GPa)
#
#
# Indices 1 2 3 4 5 6 
#
# 1 0.020882 -0.010950 -0.004229 -0.001973 0.000000 0.000000
# 2 -0.010950 0.020882 -0.004229 0.001973 0.000000 0.000000
# 3 -0.004229 -0.004229 0.009054 0.000000 0.000000 0.000000
# 4 -0.001973 0.001973 0.000000 0.045080 0.000000 0.000000
# 5 0.000000 0.000000 0.000000 0.000000 0.045080 -0.003945
# 6 0.000000 0.000000 0.000000 0.000000 -0.003945 0.063663
#
#
# Mechanical properties :
#
#
# Convention : Reuss Voigt Hill
#
# Bulk Modulus (GPa) = 83.33652 92.25691 87.79672
# Shear Modulus (GPa) = 20.20558 22.62627 21.41593
#
# Velocity S-wave (km/s) = 3.53551 3.74130 3.63986
# Velocity P-wave (km/s) = 8.25960 8.70265 8.48402
#
# Compressibility (1/GPa) = 0.01199954
#
# Stress axis : x y z
#
# Youngs Moduli (GPa) = 47.88924 47.88924 110.44857
#
# Poissons Ratio (x) = 0.52439 0.46713
# Poissons Ratio (y) = 0.52439 0.46713
# Poissons Ratio (z) = 0.20254 0.20254
#
# Static dielectric constant tensor:
#      x y z
#    x 1.508170 0.000000 0.000000 
#    y 0.000000 1.508170 0.000000 
#    z 0.000000 0.000000 1.568480 
# 
# From -- ./inp_files/4833.got.cif
#   From: 2010.05.17/outbox.cif.g08.bks.cpg/sg164_3_cif.got.tgz:4833.got - 2010.05.20 10:58:56.
