data_PCOD9578926
_publ_section_title
;
Structure prediction by ZEFSAII (Michael W. Deem and Ramdas Pophale) SiO2 
 PCOD9578926
Probable space group: P -3 C 1
;
_chemical_formula_sum "Si O2"
_cell_formula_units_Z 48
_cell_length_a 13.979412
_cell_length_b 13.979412
_cell_length_c 11.538388
_cell_angle_alpha 90.000000
_cell_angle_beta 90.000000
_cell_angle_gamma 120.000000
_cell_volume 1952.781174
_symmetry_space_group_name_H-M "P -3 C 1"
_symmetry_group_IT_number 165
_symmetry_cell_setting 'hexagonal'
loop_
_space_group_symop_operation_xyz
x,y,z
-y,x-y,z
-x+y,-x,z
x-y,-y,1/2-z
-x,-x+y,1/2-z
y,x,1/2-z
-x,-y,-z
y,-x+y,-z
x-y,x,-z
-x+y,y,1/2+z
x,x-y,1/2+z
-y,-x,1/2+z
loop_
_atom_site_type_symbol
_atom_site_label
_atom_site_fract_x
_atom_site_fract_y
_atom_site_fract_z
Si Si1 0.669745 0.591984 0.141178
Si Si2 0.358151 0.123121 0.790228
Si Si3 0.359020 0.556946 0.053320
Si Si4 0.821326 0.030325 0.960456
O O1 0.606489 0.606489 0.250000
O O2 0.782639 0.605159 0.193311
O O3 0.703224 0.690485 0.047455
O O4 0.615243 0.482165 0.066693
O O5 0.467874 0.133033 0.848956
O O6 0.271321 0.139758 0.870039
O O7 0.288967 0.000000 0.750000
O O8 0.444778 0.686170 0.061443
O O9 0.915317 0.093945 0.059020
#
# Coordination Sequence:
#
# PCOD9578926 Si02
#       4
#    12  12  12  12
#     4  10  23  43  72 108 150 196 257 317 378 464
#     4  11  24  43  74 110 152 196 259 320 383 470
#     4  10  25  49  79 103 152 203 259 324 384 448
#     4  11  21  39  71 101 155 203 244 311 390 469
#
# _framework density 24.580327
#
# number of rings (size 3 to 8) (size 9 to 14) (size 15 to 20)
#    0.500    1.000    2.500    1.750    0.000    2.000 
#    0.000   20.000    0.000    0.000    0.000    0.000 
#    0.000    0.000    0.000    0.000    0.000    0.000 
#
# Total GULP energy -267415.664927 kJ/mol
# GULP energy per Si atom -5571.159686 kJ/mol
# Density = 2.452438 g / cm^3
# Si number density = 24.580327 Si / 1000 Ang^3
#
#
#
# Elastic Constant Matrix: (Units=GPa)
#
#
# Indices 1 2 3 4 5 6 
#
# 1 56.3807 -6.6308 11.5499 3.4703 0.0000 0.0000
# 2 -6.6308 56.3807 11.5499 -3.4703 0.0000 0.0000
# 3 11.5499 11.5499 32.4961 0.0000 0.0000 0.0000
# 4 3.4703 -3.4703 0.0000 22.4858 0.0000 0.0000
# 5 0.0000 0.0000 0.0000 0.0000 22.4858 3.4703
# 6 0.0000 0.0000 0.0000 0.0000 3.4703 31.5057
#
#
#
# Elastic Compliance Matrix: (Units=1/GPa)
#
#
# Indices 1 2 3 4 5 6 
#
# 1 0.020109 0.003964 -0.008556 -0.002492 0.000000 0.000000
# 2 0.003964 0.020109 -0.008556 0.002492 0.000000 0.000000
# 3 -0.008556 -0.008556 0.036855 0.000000 0.000000 0.000000
# 4 -0.002492 0.002492 0.000000 0.045242 0.000000 0.000000
# 5 0.000000 0.000000 0.000000 0.000000 0.045242 -0.004983
# 6 0.000000 0.000000 0.000000 0.000000 -0.004983 0.032289
#
#
# Mechanical properties :
#
#
# Convention : Reuss Voigt Hill
#
# Bulk Modulus (GPa) = 19.69402 19.79950 19.74676
# Shear Modulus (GPa) = 20.57042 23.88135 22.22589
#
# Velocity S-wave (km/s) = 2.89600 3.12037 3.01028
# Velocity P-wave (km/s) = 4.38314 4.58855 4.48702
#
# Compressibility (1/GPa) = 0.05077682
#
# Stress axis : x y z
#
# Youngs Moduli (GPa) = 49.72900 49.72900 27.13326
#
# Poissons Ratio (x) = -0.19715 0.23216
# Poissons Ratio (y) = -0.19715 0.23216
# Poissons Ratio (z) = 0.42550 0.42550
#
# Static dielectric constant tensor:
#      x y z
#    x 1.966550 0.000000 0.000000 
#    y 0.000000 1.966550 0.000000 
#    z 0.000000 0.000000 2.076480 
# 
# From -- ./inp_files/1027.got.cif
#   From: 2010.05.17/outbox.cif.g08.bks.cpg/sg165_1_cif.got.tgz:1027.got - 2010.05.20 11:02:39.
