data_PCOD9578876
_publ_section_title
;
Structure prediction by ZEFSAII (Michael W. Deem and Ramdas Pophale) SiO2 
 PCOD9578876
Probable space group: P -3 C 1
;
_chemical_formula_sum "Si O2"
_cell_formula_units_Z 68
_cell_length_a 11.722660
_cell_length_b 11.722660
_cell_length_c 28.513879
_cell_angle_alpha 90.000000
_cell_angle_beta 90.000000
_cell_angle_gamma 120.000000
_cell_volume 3393.432947
_symmetry_space_group_name_H-M "P -3 C 1"
_symmetry_group_IT_number 165
_symmetry_cell_setting 'hexagonal'
loop_
_space_group_symop_operation_xyz
x,y,z
-y,x-y,z
-x+y,-x,z
x-y,-y,1/2-z
-x,-x+y,1/2-z
y,x,1/2-z
-x,-y,-z
y,-x+y,-z
x-y,x,-z
-x+y,y,1/2+z
x,x-y,1/2+z
-y,-x,1/2+z
loop_
_atom_site_type_symbol
_atom_site_label
_atom_site_fract_x
_atom_site_fract_y
_atom_site_fract_z
Si Si1 0.308010 0.922312 0.296125
Si Si2 0.666667 0.333334 0.987898
Si Si3 0.938761 0.485894 0.949795
Si Si4 0.652780 0.113054 0.171566
Si Si5 0.977541 0.248086 0.101680
Si Si6 0.282582 0.020187 0.901262
Si Si7 0.333334 0.666667 0.897517
O O1 0.452245 0.943624 0.307765
O O2 0.210494 0.765182 0.292806
O O3 0.313604 0.000000 0.250000
O O4 0.259926 0.963712 0.342531
O O5 0.793256 0.453559 0.964114
O O6 0.666668 0.333334 0.045340
O O7 0.011331 0.621092 0.921140
O O8 0.947664 0.366718 0.925836
O O9 0.000000 0.500000 0.000000
O O10 0.687953 0.006253 0.152105
O O11 0.665745 0.207313 0.126702
O O12 0.114021 0.251184 0.092776
O O13 0.848067 0.116287 0.084043
#
# Coordination Sequence:
#
# PCOD9578876 Si02
#       7
#    12   4  12  12  12  12   4
#     4  10  21  38  62  97 128 164 220 262 324 389
#     4  12  24  39  66 100 134 163 231 270 333 388
#     4  12  26  41  66 100 130 169 219 277 327 385
#     4   9  19  37  64  88 126 173 214 262 320 378
#     4  11  25  45  66  95 133 176 218 269 333 393
#     4  11  23  44  66  93 129 175 215 266 324 393
#     4   9  18  36  63  94 122 172 222 267 312 391
#
# _framework density 20.038703000000002
#
# number of rings (size 3 to 8) (size 9 to 14) (size 15 to 20)
#    0.000    1.412    3.529    1.765    7.412    1.412 
#    1.059    2.647    0.000    2.118    0.000    0.000 
#    0.000    0.000    0.000    0.000    0.000    0.000 
#
# Total GULP energy -379403.372909 kJ/mol
# GULP energy per Si atom -5579.461366 kJ/mol
# Density = 1.999309 g / cm^3
# Si number density = 20.038703 Si / 1000 Ang^3
#
#
#
# Elastic Constant Matrix: (Units=GPa)
#
#
# Indices 1 2 3 4 5 6 
#
# 1 99.6292 33.9973 29.4365 -2.9785 0.0000 0.0000
# 2 33.9973 99.6298 29.4364 2.9784 0.0000 0.0000
# 3 29.4365 29.4364 90.3808 0.0000 0.0000 0.0000
# 4 -2.9785 2.9784 0.0000 15.8308 0.0000 0.0000
# 5 0.0000 0.0000 0.0000 0.0000 15.8304 -2.9786
# 6 0.0000 0.0000 0.0000 0.0000 -2.9786 32.8161
#
#
#
# Elastic Compliance Matrix: (Units=1/GPa)
#
#
# Indices 1 2 3 4 5 6 
#
# 1 0.012119 -0.003382 -0.002846 0.002916 0.000000 0.000000
# 2 -0.003382 0.012119 -0.002846 -0.002916 0.000000 0.000000
# 3 -0.002846 -0.002846 0.012918 0.000000 0.000000 0.000000
# 4 0.002916 -0.002916 0.000000 0.064265 0.000000 0.000000
# 5 0.000000 0.000000 0.000000 0.000000 0.064267 0.005833
# 6 0.000000 0.000000 0.000000 0.000000 0.005833 0.031002
#
#
# Mechanical properties :
#
#
# Convention : Reuss Voigt Hill
#
# Bulk Modulus (GPa) = 52.60452 52.82003 52.71227
# Shear Modulus (GPa) = 22.60664 26.01346 24.31005
#
# Velocity S-wave (km/s) = 3.36244 3.60691 3.48682
# Velocity P-wave (km/s) = 6.43297 6.61533 6.52479
#
# Compressibility (1/GPa) = 0.01900977
#
# Stress axis : x y z
#
# Youngs Moduli (GPa) = 82.51348 82.51409 77.41180
#
# Poissons Ratio (x) = 0.27906 0.22029
# Poissons Ratio (y) = 0.27905 0.22029
# Poissons Ratio (z) = 0.23481 0.23481
#
# Static dielectric constant tensor:
#      x y z
#    x 4.528630 0.000000 0.000000 
#    y 0.000000 4.526290 0.000000 
#    z 0.000000 0.000000 1.683820 
# 
# From -- ./inp_files/3322.got.cif
#   From: 2010.05.17/outbox.cif.g08.bks.cpg/sg165_2_cif.got.tgz:3322.got - 2010.05.20 11:02:39.
