data_PCOD9578476
_publ_section_title
;
Structure prediction by ZEFSAII (Michael W. Deem and Ramdas Pophale) SiO2 
 PCOD9578476
Probable space group: P -3 M 1
;
_chemical_formula_sum "Si O2"
_cell_formula_units_Z 72
_cell_length_a 22.420149
_cell_length_b 22.420149
_cell_length_c 10.407654
_cell_angle_alpha 90.000000
_cell_angle_beta 90.000000
_cell_angle_gamma 120.000000
_cell_volume 4530.649509
_symmetry_space_group_name_H-M "P -3 M 1"
_symmetry_group_IT_number 164
_symmetry_cell_setting 'hexagonal'
loop_
_space_group_symop_operation_xyz
x,y,z
-y,x-y,z
-x+y,-x,z
x-y,-y,-z
-x,-x+y,-z
y,x,-z
-x,-y,-z
y,-x+y,-z
x-y,x,-z
-x+y,y,z
x,x-y,z
-y,-x,z
loop_
_atom_site_type_symbol
_atom_site_label
_atom_site_fract_x
_atom_site_fract_y
_atom_site_fract_z
Si Si1 0.718862 0.581809 0.803959
Si Si2 0.272973 0.001330 0.856636
Si Si3 0.867816 0.591715 0.236055
Si Si4 0.606336 0.874142 0.474766
Si Si5 0.474913 0.666635 0.970404
Si Si6 0.952055 0.764716 0.610037
O O1 0.797365 0.594730 0.805610
O O2 0.720097 0.651170 0.846783
O O3 0.693395 0.568508 0.655853
O O4 0.676426 0.520566 0.902841
O O5 0.229703 0.008883 0.741645
O O6 0.343838 0.067187 0.171029
O O7 0.246789 0.000000 0.000000
O O8 0.801906 0.603812 0.234757
O O9 0.887124 0.586964 0.384108
O O10 0.844797 0.523762 0.152206
O O11 0.595339 0.797670 0.481606
O O12 0.687421 0.924290 0.446629
O O13 0.459239 0.729620 0.971216
O O14 0.405831 0.594170 0.967527
O O15 0.885338 0.770675 0.635415
O O16 0.000000 0.815264 0.500000
#
# Coordination Sequence:
#
# PCOD9578476 Si02
#       6
#    12  12  12  12  12  12
#     4   9  18  32  49  71 100 131 167 209 254 298
#     4  11  19  29  48  77 105 138 166 206 258 310
#     4  10  19  31  49  73 101 132 167 209 260 305
#     4   8  15  29  48  70  96 128 163 205 253 297
#     4  10  20  35  53  73  98 131 170 209 253 308
#     4  10  19  31  49  76 107 139 176 215 253 301
#
# _framework density 15.891762
#
# number of rings (size 3 to 8) (size 9 to 14) (size 15 to 20)
#    0.000    2.333    3.333    1.667    0.000    0.667 
#    0.000    2.500    0.000    0.167    0.000    5.833 
#    0.000    0.667    0.000    0.000    0.000    0.000 
#
# Total GULP energy -401061.407806 kJ/mol
# GULP energy per Si atom -5570.297331 kJ/mol
# Density = 1.585559 g / cm^3
# Si number density = 15.891762 Si / 1000 Ang^3
#
#
#
# Elastic Constant Matrix: (Units=GPa)
#
#
# Indices 1 2 3 4 5 6 
#
# 1 44.6316 25.4374 21.3954 -1.7664 0.0000 0.0000
# 2 25.4374 44.6316 21.3954 1.7664 0.0000 0.0000
# 3 21.3954 21.3954 132.7064 0.0000 0.0000 0.0000
# 4 -1.7664 1.7664 0.0000 16.9002 0.0000 0.0000
# 5 0.0000 0.0000 0.0000 0.0000 16.9002 -1.7664
# 6 0.0000 0.0000 0.0000 0.0000 -1.7664 9.5971
#
#
#
# Elastic Compliance Matrix: (Units=1/GPa)
#
#
# Indices 1 2 3 4 5 6 
#
# 1 0.034476 -0.018645 -0.002552 0.005552 0.000000 0.000000
# 2 -0.018645 0.034476 -0.002552 -0.005552 0.000000 0.000000
# 3 -0.002552 -0.002552 0.008358 0.000000 0.000000 0.000000
# 4 0.005552 -0.005552 0.000000 0.060331 0.000000 0.000000
# 5 0.000000 0.000000 0.000000 0.000000 0.060331 0.011104
# 6 0.000000 0.000000 0.000000 0.000000 0.011104 0.106242
#
#
# Mechanical properties :
#
#
# Convention : Reuss Voigt Hill
#
# Bulk Modulus (GPa) = 33.54567 39.82508 36.68538
# Shear Modulus (GPa) = 13.82548 18.92893 16.37720
#
# Velocity S-wave (km/s) = 2.95274 3.45500 3.21370
# Velocity P-wave (km/s) = 5.72534 6.40552 6.07496
#
# Compressibility (1/GPa) = 0.02981010
#
# Stress axis : x y z
#
# Youngs Moduli (GPa) = 29.00596 29.00596 119.64033
#
# Poissons Ratio (x) = 0.54083 0.30535
# Poissons Ratio (y) = 0.54083 0.30535
# Poissons Ratio (z) = 0.07403 0.07403
#
# Static dielectric constant tensor:
#      x y z
#    x 1.509180 0.000000 0.000000 
#    y 0.000000 1.509180 0.000000 
#    z 0.000000 0.000000 1.582760 
# 
# From -- ./inp_files/1975.got.cif
#   From: 2010.05.17/outbox.cif.g08.bks.cpg/sg164_1_cif.got.tgz:1975.got - 2010.05.20 10:58:56.
