data_PCOD9578560
_publ_section_title
;
Structure prediction by ZEFSAII (Michael W. Deem and Ramdas Pophale) SiO2 
 PCOD9578560
Probable space group: P -3 M 1
;
_chemical_formula_sum "Si O2"
_cell_formula_units_Z 84
_cell_length_a 17.823970
_cell_length_b 17.823970
_cell_length_c 17.099824
_cell_angle_alpha 90.000000
_cell_angle_beta 90.000000
_cell_angle_gamma 120.000000
_cell_volume 4704.691569
_symmetry_space_group_name_H-M "P -3 M 1"
_symmetry_group_IT_number 164
_symmetry_cell_setting 'hexagonal'
loop_
_space_group_symop_operation_xyz
x,y,z
-y,x-y,z
-x+y,-x,z
x-y,-y,-z
-x,-x+y,-z
y,x,-z
-x,-y,-z
y,-x+y,-z
x-y,x,-z
-x+y,y,z
x,x-y,z
-y,-x,z
loop_
_atom_site_type_symbol
_atom_site_label
_atom_site_fract_x
_atom_site_fract_y
_atom_site_fract_z
Si Si1 0.169707 0.171178 0.618070
Si Si2 0.095045 0.364250 0.387783
Si Si3 0.171837 0.171413 0.194495
Si Si4 0.071145 0.317707 0.932795
Si Si5 0.511120 0.844682 0.841309
Si Si6 0.333237 0.844774 0.535003
Si Si7 0.392953 0.961242 0.688179
O O1 0.142028 0.071014 0.604916
O O2 0.265148 0.230285 0.585231
O O3 0.181045 0.186183 0.712102
O O4 0.095026 0.190052 0.590865
O O5 0.186080 0.372160 0.363414
O O6 0.113224 0.429667 0.458840
O O7 0.045190 0.383100 0.319601
O O8 0.142601 0.071301 0.177415
O O9 0.257166 0.227584 0.143687
O O10 0.095111 0.190222 0.174932
O O11 0.154040 0.308079 0.955528
O O12 0.107981 0.417007 0.908162
O O13 0.000000 0.285025 0.000000
O O14 0.420199 0.840397 0.856563
O O15 0.498294 0.749147 0.830809
O O16 0.551280 0.900575 0.762610
O O17 0.417986 0.835972 0.524202
O O18 0.248410 0.751591 0.547334
O O19 0.350154 0.904713 0.610338
O O20 0.493042 0.986084 0.688287
#
# Coordination Sequence:
#
# PCOD9578560 Si02
#       7
#    12  12  12  12  12  12  12
#     4   9  17  29  46  68  95 130 173 218 260 300
#     4  10  20  32  47  71 103 139 174 206 245 296
#     4   9  16  27  45  70 102 138 175 215 257 302
#     4  10  20  33  50  75 107 141 173 205 245 296
#     4  10  21  37  58  82 106 132 164 207 260 314
#     4  10  20  34  53  76 103 134 169 211 261 317
#     4  10  20  35  55  78 104 131 163 209 261 307
#
# _framework density 17.854519
#
# number of rings (size 3 to 8) (size 9 to 14) (size 15 to 20)
#    0.000    2.286    0.000    3.143    0.000    4.857 
#    0.000    2.857    0.000    2.571    0.000    0.000 
#    0.000   14.857    0.000    0.000    0.000    0.000 
#
# Total GULP energy -469079.298017 kJ/mol
# GULP energy per Si atom -5584.277357 kJ/mol
# Density = 1.781388 g / cm^3
# Si number density = 17.854519 Si / 1000 Ang^3
#
#
#
# Elastic Constant Matrix: (Units=GPa)
#
#
# Indices 1 2 3 4 5 6 
#
# 1 104.2664 67.1706 43.6669 3.4201 0.0000 0.0000
# 2 67.1706 104.2664 43.6669 -3.4201 0.0000 0.0000
# 3 43.6669 43.6669 53.0606 0.0000 0.0000 0.0000
# 4 3.4201 -3.4201 0.0000 13.4678 0.0000 0.0000
# 5 0.0000 0.0000 0.0000 0.0000 13.4678 3.4201
# 6 0.0000 0.0000 0.0000 0.0000 3.4201 18.5479
#
#
#
# Elastic Compliance Matrix: (Units=1/GPa)
#
#
# Indices 1 2 3 4 5 6 
#
# 1 0.019163 -0.009119 -0.008266 -0.007182 0.000000 0.000000
# 2 -0.009119 0.019163 -0.008266 0.007182 0.000000 0.000000
# 3 -0.008266 -0.008266 0.032451 0.000000 0.000000 0.000000
# 4 -0.007182 0.007182 0.000000 0.077899 0.000000 0.000000
# 5 0.000000 0.000000 0.000000 0.000000 0.077899 -0.014364
# 6 0.000000 0.000000 0.000000 0.000000 -0.014364 0.056563
#
#
# Mechanical properties :
#
#
# Convention : Reuss Voigt Hill
#
# Bulk Modulus (GPa) = 51.34533 63.40022 57.37278
# Shear Modulus (GPa) = 14.66582 16.23597 15.45090
#
# Velocity S-wave (km/s) = 2.86913 3.01881 2.94492
# Velocity P-wave (km/s) = 6.30840 6.90923 6.61564
#
# Compressibility (1/GPa) = 0.01947597
#
# Stress axis : x y z
#
# Youngs Moduli (GPa) = 52.18490 52.18490 30.81576
#
# Poissons Ratio (x) = 0.47587 0.25471
# Poissons Ratio (y) = 0.47587 0.25471
# Poissons Ratio (z) = 0.43134 0.43134
#
# Static dielectric constant tensor:
#      x y z
#    x 1.607780 0.000000 0.000000 
#    y 0.000000 1.607780 0.000000 
#    z 0.000000 0.000000 1.601640 
# 
# From -- ./inp_files/3634.got.cif
#   From: 2010.05.17/outbox.cif.g08.bks.cpg/sg164_2_cif.got.tgz:3634.got - 2010.05.20 10:58:56.
