data_PCOD9578757
_publ_section_title
;
Structure prediction by ZEFSAII (Michael W. Deem and Ramdas Pophale) SiO2 
 PCOD9578757
Probable space group: P -3 M 1
;
_chemical_formula_sum "Si O2"
_cell_formula_units_Z 66
_cell_length_a 12.000000
_cell_length_b 12.000000
_cell_length_c 30.000000
_cell_angle_alpha 90.000000
_cell_angle_beta 90.000000
_cell_angle_gamma 120.000000
_cell_volume 3741.229744
_symmetry_space_group_name_H-M "P -3 M 1"
_symmetry_group_IT_number 164
_symmetry_cell_setting 'hexagonal'
loop_
_space_group_symop_operation_xyz
x,y,z
-y,x-y,z
-x+y,-x,z
x-y,-y,-z
-x,-x+y,-z
y,x,-z
-x,-y,-z
y,-x+y,-z
x-y,x,-z
-x+y,y,z
x,x-y,z
-y,-x,z
loop_
_atom_site_type_symbol
_atom_site_label
_atom_site_fract_x
_atom_site_fract_y
_atom_site_fract_z
Si Si1 0.598114 0.928517 0.776737
Si Si2 0.402099 0.071863 0.865984
Si Si3 0.669705 0.598119 0.044724
Si Si4 0.266765 0.000000 0.500000
Si Si5 0.998969 0.732645 0.403389
Si Si6 0.403546 0.069214 0.686910
O O1 0.463902 0.927804 0.776946
O O2 0.571807 0.785904 0.780778
O O3 0.676571 0.008664 0.819724
O O4 0.664756 0.989072 0.729781
O O5 0.534517 0.069034 0.865927
O O6 0.432219 0.216110 0.868540
O O7 0.325338 0.996195 0.909851
O O8 0.783970 0.567940 0.043923
O O9 0.534362 0.465639 0.044781
O O10 0.672628 0.672628 0.000000
O O11 0.326380 0.999742 0.548043
O O12 0.126209 0.873792 0.499967
O O13 0.873975 0.747950 0.401511
O O14 0.001386 0.656763 0.360110
O O15 0.127357 0.872644 0.401471
O O16 0.545465 0.090930 0.691434
O O17 0.408459 0.204229 0.686836
#
# Coordination Sequence:
#
# PCOD9578757 Si02
#       6
#    12  12  12   6  12  12
#     4  10  20  34  53  75  98 124 155 195 241 287
#     4  10  20  34  54  78 104 134 167 204 242 283
#     4  10  20  34  54  78 104 134 168 209 253 296
#     4   8  13  22  39  64  92 120 150 186 230 280
#     4   9  16  27  45  69  95 121 151 190 237 286
#     4  10  20  33  49  68  92 124 160 197 235 278
#
# _framework density 17.641258000000001
#
# number of rings (size 3 to 8) (size 9 to 14) (size 15 to 20)
#    0.000    2.364    0.000    3.182    0.000    1.455 
#    0.000    5.909    0.000   12.000    0.000    0.000 
#    0.000    0.000    0.000    0.000    0.000    0.000 
#
# Total GULP energy -367587.427447 kJ/mol
# GULP energy per Si atom -5569.506476 kJ/mol
# Density = 1.760111 g / cm^3
# Si number density = 17.641258 Si / 1000 Ang^3
#
#
#
# Elastic Constant Matrix: (Units=GPa)
#
#
# Indices 1 2 3 4 5 6 
#
# 1 31.3030 -11.1964 26.5169 -6.6911 0.0000 0.0000
# 2 -11.1964 31.3030 26.5169 6.6911 0.0000 0.0000
# 3 26.5169 26.5169 162.3557 0.0000 0.0000 0.0000
# 4 -6.6911 6.6911 0.0000 -6.6630 0.0000 0.0000
# 5 0.0000 0.0000 0.0000 0.0000 -6.6630 -6.6911
# 6 0.0000 0.0000 0.0000 0.0000 -6.6911 21.2497
#
#
#
# Elastic Compliance Matrix: (Units=1/GPa)
#
#
# Indices 1 2 3 4 5 6 
#
# 1 0.052626 0.034749 -0.014271 -0.017952 0.000000 0.000000
# 2 0.034749 0.052626 -0.014271 0.017952 0.000000 0.000000
# 3 -0.014271 -0.014271 0.010821 0.000000 0.000000 0.000000
# 4 -0.017952 0.017952 0.000000 -0.114026 0.000000 0.000000
# 5 0.000000 0.000000 0.000000 0.000000 -0.114026 -0.035905
# 6 0.000000 0.000000 0.000000 0.000000 -0.035905 0.035754
#
#
# Mechanical properties :
#
#
# Convention : Reuss Voigt Hill
#
# Bulk Modulus (GPa) = 7.78273 34.29292 21.03782
# Shear Modulus (GPa) = -109.14418 13.79302 -47.67558
#
# Velocity S-wave (km/s) = -7.87420 2.79921 -5.20420
# Velocity P-wave (km/s) = 8.84587 5.47071 4.91532
#
# Compressibility (1/GPa) = 0.12848966
#
# Stress axis : x y z
#
# Youngs Moduli (GPa) = 19.00189 19.00189 92.41406
#
# Poissons Ratio (x) = -0.66031 1.31881
# Poissons Ratio (y) = -0.66031 1.31881
# Poissons Ratio (z) = 0.27117 0.27117
#
# Static dielectric constant tensor:
#      x y z
#    x 1.561440 0.000000 0.000000 
#    y 0.000000 1.561440 0.000000 
#    z 0.000000 0.000000 1.674750 
# 
# From -- ./inp_files/5417.got.cif
#   From: 2010.05.17/outbox.ucp.g08.bks.cvg/sg164_3_cif.got.tgz:5417.got - 2010.06.11 15:16:10.
