data_PCOD9578920
_publ_section_title
;
Structure prediction by ZEFSAII (Michael W. Deem and Ramdas Pophale) SiO2 
 PCOD9578920
Probable space group: P -3 C 1
;
_chemical_formula_sum "Si O2"
_cell_formula_units_Z 26
_cell_length_a 9.769660
_cell_length_b 9.769660
_cell_length_c 17.835441
_cell_angle_alpha 90.000000
_cell_angle_beta 90.000000
_cell_angle_gamma 120.000000
_cell_volume 1474.257628
_symmetry_space_group_name_H-M "P -3 C 1"
_symmetry_group_IT_number 165
_symmetry_cell_setting 'hexagonal'
loop_
_space_group_symop_operation_xyz
x,y,z
-y,x-y,z
-x+y,-x,z
x-y,-y,1/2-z
-x,-x+y,1/2-z
y,x,1/2-z
-x,-y,-z
y,-x+y,-z
x-y,x,-z
-x+y,y,1/2+z
x,x-y,1/2+z
-y,-x,1/2+z
loop_
_atom_site_type_symbol
_atom_site_label
_atom_site_fract_x
_atom_site_fract_y
_atom_site_fract_z
Si Si1 0.333333 0.666667 0.589448
Si Si2 0.821503 0.821503 0.750000
Si Si3 0.333335 0.666668 0.410552
Si Si4 0.446951 0.000000 0.664690
O O1 0.333334 0.666667 0.500000
O O2 0.411951 0.843391 0.621819
O O3 0.717470 0.717469 0.680091
O O4 0.852852 0.000000 0.750000
O O5 0.411955 0.568564 0.378181
O O6 0.504253 0.000000 0.750000
#
# Coordination Sequence:
#
# PCOD9578920 Si02
#       4
#     4   6   4  12
#     4  12  25  41  61  96 133 170 208 276 334 377
#     4   8  20  36  64  96 118 154 220 270 306 368
#     4  12  25  41  61  96 133 170 208 276 334 377
#     4  10  23  38  67  87 127 163 223 257 322 382
#
# _framework density 17.635995000000001
#
# number of rings (size 3 to 8) (size 9 to 14) (size 15 to 20)
#    1.846    0.000    0.000    4.154    6.462    0.000 
#    0.000    0.000    0.000    2.769    0.000    0.000 
#    0.000    0.000    0.000    0.000    0.000    0.000 
#
# Total GULP energy -144897.717430 kJ/mol
# GULP energy per Si atom -5572.989132 kJ/mol
# Density = 1.759585 g / cm^3
# Si number density = 17.635995 Si / 1000 Ang^3
#
#
#
# Elastic Constant Matrix: (Units=GPa)
#
#
# Indices 1 2 3 4 5 6 
#
# 1 416.6512 -217.2364 77.1658 -0.0144 0.0000 0.0000
# 2 -217.2364 416.5946 77.1982 0.0138 0.0000 0.0000
# 3 77.1658 77.1982 186.3368 -0.0003 0.0000 0.0000
# 4 -0.0144 0.0138 -0.0003 25.4409 0.0000 0.0000
# 5 0.0000 0.0000 0.0000 0.0000 25.4404 -0.0156
# 6 0.0000 0.0000 0.0000 0.0000 -0.0156 316.2037
#
#
#
# Elastic Compliance Matrix: (Units=1/GPa)
#
#
# Indices 1 2 3 4 5 6 
#
# 1 0.004480 0.002903 -0.003058 0.000001 0.000000 0.000000
# 2 0.002903 0.004481 -0.003058 -0.000001 0.000000 0.000000
# 3 -0.003058 -0.003058 0.007900 0.000000 0.000000 0.000000
# 4 0.000001 -0.000001 0.000000 0.039307 0.000000 0.000000
# 5 0.000000 0.000000 0.000000 0.000000 0.039308 0.000002
# 6 0.000000 0.000000 0.000000 0.000000 0.000002 0.003163
#
#
# Mechanical properties :
#
#
# Convention : Reuss Voigt Hill
#
# Bulk Modulus (GPa) = 95.84443 99.31530 97.57986
# Shear Modulus (GPa) = 46.06501 145.58065 95.82283
#
# Velocity S-wave (km/s) = 5.11631 9.09542 7.37913
# Velocity P-wave (km/s) = 9.45336 12.91272 11.31602
#
# Compressibility (1/GPa) = 0.01043357
#
# Stress axis : x y z
#
# Youngs Moduli (GPa) = 223.22464 223.17619 126.58283
#
# Poissons Ratio (x) = -0.64780 0.38705
# Poissons Ratio (y) = -0.64794 0.38714
# Poissons Ratio (z) = 0.68256 0.68256
#
# Static dielectric constant tensor:
#      x y z
#    x 1.603360 0.000000 0.000000 
#    y 0.000000 1.603360 0.000000 
#    z 0.000000 0.000000 1.566160 
# 
# From -- ./inp_files/2444.got.cif
#   From: 2010.05.17/outbox.cif.g08.bks.cpg/sg165_2_cif.got.tgz:2444.got - 2010.05.20 11:02:39.
