data_PCOD9578505
_publ_section_title
;
Structure prediction by ZEFSAII (Michael W. Deem and Ramdas Pophale) SiO2 
 PCOD9578505
Probable space group: P -3 M 1
;
_chemical_formula_sum "Si O2"
_cell_formula_units_Z 54
_cell_length_a 17.659005
_cell_length_b 17.659005
_cell_length_c 10.039094
_cell_angle_alpha 90.000000
_cell_angle_beta 90.000000
_cell_angle_gamma 120.000000
_cell_volume 2711.175376
_symmetry_space_group_name_H-M "P -3 M 1"
_symmetry_group_IT_number 164
_symmetry_cell_setting 'hexagonal'
loop_
_space_group_symop_operation_xyz
x,y,z
-y,x-y,z
-x+y,-x,z
x-y,-y,-z
-x,-x+y,-z
y,x,-z
-x,-y,-z
y,-x+y,-z
x-y,x,-z
-x+y,y,z
x,x-y,z
-y,-x,z
loop_
_atom_site_type_symbol
_atom_site_label
_atom_site_fract_x
_atom_site_fract_y
_atom_site_fract_z
Si Si1 0.504667 0.666539 0.823278
Si Si2 0.549579 0.922627 0.091925
Si Si3 0.484106 0.332473 0.622117
Si Si4 0.913960 0.268337 0.379699
Si Si5 0.819194 0.819194 0.500000
O O1 0.487655 0.743828 0.780885
O O2 0.425385 0.574616 0.779723
O O3 0.592152 0.682469 0.750476
O O4 0.511736 0.666221 0.982421
O O5 0.474099 0.948199 0.115365
O O6 0.559678 0.889104 0.234603
O O7 0.622450 0.000000 0.000000
O O8 0.500859 0.250430 0.613525
O O9 0.575546 0.424455 0.610555
O O10 0.415755 0.320295 0.505690
O O11 0.823554 0.176447 0.384024
O O12 0.984330 0.235624 0.383881
O O13 0.827333 0.913667 0.483701
#
# Coordination Sequence:
#
# PCOD9578505 Si02
#       5
#    12  12  12  12   6
#     4  10  19  33  52  78 113 155 197 234 272 323
#     4   9  19  32  46  68 100 144 201 249 281 316
#     4  10  19  33  52  78 113 155 197 234 272 323
#     4   9  20  34  53  84 115 139 172 224 281 332
#     4  10  21  40  63  86 110 140 180 226 279 340
#
# _framework density 19.917560000000002
#
# number of rings (size 3 to 8) (size 9 to 14) (size 15 to 20)
#    0.000    2.444    0.000    1.889    3.111    0.000 
#    0.000    5.556    0.000    0.000    0.000    0.000 
#    0.000    0.000    0.000   22.444    0.000    0.000 
#
# Total GULP energy -300697.002188 kJ/mol
# GULP energy per Si atom -5568.463003 kJ/mol
# Density = 1.987223 g / cm^3
# Si number density = 19.917560 Si / 1000 Ang^3
#
#
#
# Elastic Constant Matrix: (Units=GPa)
#
#
# Indices 1 2 3 4 5 6 
#
# 1 112.6485 48.6337 25.4929 -3.7607 0.0000 0.0000
# 2 48.6337 112.6485 25.4929 3.7607 0.0000 0.0000
# 3 25.4929 25.4929 114.4891 0.0000 0.0000 0.0000
# 4 -3.7607 3.7607 0.0000 17.7649 0.0000 0.0000
# 5 0.0000 0.0000 0.0000 0.0000 17.7649 -3.7607
# 6 0.0000 0.0000 0.0000 0.0000 -3.7607 32.0074
#
#
#
# Elastic Compliance Matrix: (Units=1/GPa)
#
#
# Indices 1 2 3 4 5 6 
#
# 1 0.011345 -0.004675 -0.001485 0.003391 0.000000 0.000000
# 2 -0.004675 0.011345 -0.001485 -0.003391 0.000000 0.000000
# 3 -0.001485 -0.001485 0.009396 0.000000 0.000000 0.000000
# 4 0.003391 -0.003391 0.000000 0.057726 0.000000 0.000000
# 5 0.000000 0.000000 0.000000 0.000000 0.057726 0.006782
# 6 0.000000 0.000000 0.000000 0.000000 0.006782 0.032040
#
#
# Mechanical properties :
#
#
# Convention : Reuss Voigt Hill
#
# Bulk Modulus (GPa) = 59.54195 59.89167 59.71681
# Shear Modulus (GPa) = 24.94177 29.51856 27.23016
#
# Velocity S-wave (km/s) = 3.54255 3.85390 3.70150
# Velocity P-wave (km/s) = 6.83316 7.06671 6.95092
#
# Compressibility (1/GPa) = 0.01679488
#
# Stress axis : x y z
#
# Youngs Moduli (GPa) = 88.14590 88.14590 106.43009
#
# Poissons Ratio (x) = 0.41208 0.15806
# Poissons Ratio (y) = 0.41208 0.15806
# Poissons Ratio (z) = 0.13091 0.13091
#
# Static dielectric constant tensor:
#      x y z
#    x 1.742870 0.000000 0.000000 
#    y 0.000000 1.742870 0.000000 
#    z 0.000000 0.000000 1.743750 
# 
# From -- ./inp_files/1548.got.cif
#   From: 2010.05.17/outbox.cif.g08.bks.cpg/sg164_1_cif.got.tgz:1548.got - 2010.05.20 10:58:56.
