data_PCOD9578738
_publ_section_title
;
Structure prediction by ZEFSAII (Michael W. Deem and Ramdas Pophale) SiO2 
 PCOD9578738
Probable space group: P -3 M 1
;
_chemical_formula_sum "Si O2"
_cell_formula_units_Z 36
_cell_length_a 20.544710
_cell_length_b 20.544710
_cell_length_c 5.212652
_cell_angle_alpha 90.000000
_cell_angle_beta 90.000000
_cell_angle_gamma 120.000000
_cell_volume 1905.414187
_symmetry_space_group_name_H-M "P -3 M 1"
_symmetry_group_IT_number 164
_symmetry_cell_setting 'hexagonal'
loop_
_space_group_symop_operation_xyz
x,y,z
-y,x-y,z
-x+y,-x,z
x-y,-y,-z
-x,-x+y,-z
y,x,-z
-x,-y,-z
y,-x+y,-z
x-y,x,-z
-x+y,y,z
x,x-y,z
-y,-x,z
loop_
_atom_site_type_symbol
_atom_site_label
_atom_site_fract_x
_atom_site_fract_y
_atom_site_fract_z
Si Si1 0.049404 0.803023 0.254751
Si Si2 0.471299 0.091268 0.031474
Si Si3 0.683938 0.594953 0.533087
O O1 0.113223 0.886778 0.189719
O O2 0.088650 0.756639 0.358319
O O3 0.000000 0.800104 0.500000
O O4 0.000000 0.764448 0.000000
O O5 0.553714 0.107427 0.103533
O O6 0.435707 0.118838 0.251091
O O7 0.467294 0.121680 0.752982
O O8 0.420569 0.000000 0.000000
O O9 0.624427 0.624427 0.500000
#
# Coordination Sequence:
#
# PCOD9578738 Si02
#       3
#    12  12  12
#     4  11  22  37  56  74  94 123 162 209 263 326
#     4   9  15  23  38  62  94 129 156 174 198 243
#     4   9  16  27  42  64  92 122 156 187 222 277
#
# _framework density 18.893529999999998
#
# number of rings (size 3 to 8) (size 9 to 14) (size 15 to 20)
#    0.000    2.333    0.000    7.000    0.000    4.000 
#    0.000    0.000    0.000    6.667    0.000    0.000 
#    0.000    0.000    0.000   20.000    0.000   35.667 
#
# Total GULP energy -200457.228524 kJ/mol
# GULP energy per Si atom -5568.256348 kJ/mol
# Density = 1.885053 g / cm^3
# Si number density = 18.893530 Si / 1000 Ang^3
#
#
#
# Elastic Constant Matrix: (Units=GPa)
#
#
# Indices 1 2 3 4 5 6 
#
# 1 33.6211 32.5549 33.3126 -3.4693 0.0000 0.0000
# 2 32.5549 33.6211 33.3126 3.4693 0.0000 0.0000
# 3 33.3126 33.3126 112.8908 0.0000 0.0000 0.0000
# 4 -3.4693 3.4693 0.0000 11.0986 0.0000 0.0000
# 5 0.0000 0.0000 0.0000 0.0000 11.0986 -3.4693
# 6 0.0000 0.0000 0.0000 0.0000 -3.4693 0.5331
#
#
#
# Elastic Compliance Matrix: (Units=1/GPa)
#
#
# Indices 1 2 3 4 5 6 
#
# 1 -0.442656 0.464154 -0.006344 -0.283459 0.000000 0.000000
# 2 0.464154 -0.442656 -0.006344 0.283459 0.000000 0.000000
# 3 -0.006344 -0.006344 0.012602 0.000000 0.000000 0.000000
# 4 -0.283459 0.283459 0.000000 -0.087111 0.000000 0.000000
# 5 0.000000 0.000000 0.000000 0.000000 -0.087111 -0.566917
# 6 0.000000 0.000000 0.000000 0.000000 -0.566917 -1.813620
#
#
# Mechanical properties :
#
#
# Convention : Reuss Voigt Hill
#
# Bulk Modulus (GPa) = 33.08739 42.05479 37.57109
# Shear Modulus (GPa) = -1.33212 9.94292 4.30540
#
# Velocity S-wave (km/s) = -0.84059 2.29653 1.51120
# Velocity P-wave (km/s) = 4.07534 5.41657 4.79310
#
# Compressibility (1/GPa) = 0.03022300
#
# Stress axis : x y z
#
# Youngs Moduli (GPa) = -2.25909 -2.25909 79.35213
#
# Poissons Ratio (x) = 1.04857 0.50339
# Poissons Ratio (y) = 1.04857 0.50339
# Poissons Ratio (z) = -0.01433 -0.01433
#
# Static dielectric constant tensor:
#      x y z
#    x 1.665700 0.000000 0.000000 
#    y 0.000000 1.665700 0.000000 
#    z 0.000000 0.000000 1.696550 
# 
# From -- ./inp_files/284.got.cif
#   From: 2010.05.17/outbox.cif.g08.bks.cpg/sg164_1_cif.got.tgz:284.got - 2010.05.20 10:58:56.
