data_PCOD9578795
_publ_section_title
;
Structure prediction by ZEFSAII (Michael W. Deem and Ramdas Pophale) SiO2 
 PCOD9578795
Probable space group: P -3 C 1
;
_chemical_formula_sum "Si O2"
_cell_formula_units_Z 84
_cell_length_a 31.603557
_cell_length_b 31.603557
_cell_length_c 5.175208
_cell_angle_alpha 90.000000
_cell_angle_beta 90.000000
_cell_angle_gamma 120.000000
_cell_volume 4476.415307
_symmetry_space_group_name_H-M "P -3 C 1"
_symmetry_group_IT_number 165
_symmetry_cell_setting 'hexagonal'
loop_
_space_group_symop_operation_xyz
x,y,z
-y,x-y,z
-x+y,-x,z
x-y,-y,1/2-z
-x,-x+y,1/2-z
y,x,1/2-z
-x,-y,-z
y,-x+y,-z
x-y,x,-z
-x+y,y,1/2+z
x,x-y,1/2+z
-y,-x,1/2+z
loop_
_atom_site_type_symbol
_atom_site_label
_atom_site_fract_x
_atom_site_fract_y
_atom_site_fract_z
Si Si1 0.942527 0.744191 0.288700
Si Si2 0.838601 0.895393 0.686048
Si Si3 0.774251 0.495561 0.695322
Si Si4 0.050574 0.553736 0.686283
Si Si5 0.058170 0.747810 0.713282
Si Si6 0.387455 0.165143 0.207239
Si Si7 0.451011 0.607895 0.272333
O O1 0.921709 0.780526 0.270471
O O2 0.935640 0.722999 0.573710
O O3 0.000000 0.779065 0.250000
O O4 0.931556 0.704278 0.068606
O O5 0.867789 0.867789 0.750000
O O6 0.850730 0.913923 0.395400
O O7 0.749557 0.483711 0.415255
O O8 0.810894 0.553925 0.708457
O O9 0.803212 0.467197 0.746441
O O10 0.049799 0.535368 0.394800
O O11 0.102470 0.600692 0.741316
O O12 0.000000 0.552153 0.750000
O O13 0.106311 0.743655 0.771036
O O14 0.000000 0.704637 0.750000
O O15 0.374102 0.189308 0.448120
O O16 0.424674 0.585122 0.543435
#
# Coordination Sequence:
#
# PCOD9578795 Si02
#       7
#    12  12  12  12  12  12  12
#     4   9  19  32  48  72 100 129 157 195 249 300
#     4  11  22  36  53  72  94 120 153 195 249 310
#     4  10  21  38  57  78 109 145 183 227 265 310
#     4   8  14  25  43  71 105 133 159 200 251 304
#     4  10  19  33  51  76 109 137 171 219 261 295
#     4  10  21  35  53  76 103 143 187 216 252 313
#     4  10  19  33  57  83 105 137 180 220 270 328
#
# _framework density 18.765014999999998
#
# number of rings (size 3 to 8) (size 9 to 14) (size 15 to 20)
#    0.000    2.286    0.000    3.000    0.000    5.714 
#    0.000    0.714    0.000    8.571    0.000   12.000 
#    0.000    0.000    0.000    0.000    0.000    0.000 
#
# Total GULP energy -467738.411278 kJ/mol
# GULP energy per Si atom -5568.314420 kJ/mol
# Density = 1.872231 g / cm^3
# Si number density = 18.765015 Si / 1000 Ang^3
#
#
#
# Elastic Constant Matrix: (Units=GPa)
#
#
# Indices 1 2 3 4 5 6 
#
# 1 34.7215 32.5038 -6.1744 -9.6763 0.0000 0.0000
# 2 32.5038 34.7215 -6.1744 9.6763 0.0000 0.0000
# 3 -6.1744 -6.1744 64.2082 0.0000 0.0000 0.0000
# 4 -9.6763 9.6763 0.0000 5.1149 0.0000 0.0000
# 5 0.0000 0.0000 0.0000 0.0000 5.1149 -9.6763
# 6 0.0000 0.0000 0.0000 0.0000 -9.6763 1.1088
#
#
#
# Elastic Compliance Matrix: (Units=1/GPa)
#
#
# Indices 1 2 3 4 5 6 
#
# 1 -0.006967 0.022109 0.001456 -0.055005 0.000000 0.000000
# 2 0.022109 -0.006967 0.001456 0.055005 0.000000 0.000000
# 3 0.001456 0.001456 0.015854 0.000000 0.000000 0.000000
# 4 -0.055005 0.055005 0.000000 -0.012606 0.000000 0.000000
# 5 0.000000 0.000000 0.000000 0.000000 -0.012606 -0.110009
# 6 0.000000 0.000000 0.000000 0.000000 -0.110009 -0.058152
#
#
# Mechanical properties :
#
#
# Convention : Reuss Voigt Hill
#
# Bulk Modulus (GPa) = 19.24379 19.32900 19.28639
# Shear Modulus (GPa) = -43.79628 9.83417 -16.98106
#
# Velocity S-wave (km/s) = -4.83632 2.29174 -3.01147
# Velocity P-wave (km/s) = 4.57266 4.16241 1.33858
#
# Compressibility (1/GPa) = 0.05196481
#
# Stress axis : x y z
#
# Youngs Moduli (GPa) = -143.54394 -143.54394 63.07404
#
# Poissons Ratio (x) = 3.17366 -0.09185
# Poissons Ratio (y) = 3.17366 -0.09185
# Poissons Ratio (z) = 0.20903 0.20903
#
# Static dielectric constant tensor:
#      x y z
#    x 1.681580 0.000000 0.000000 
#    y 0.000000 1.681580 0.000000 
#    z 0.000000 0.000000 1.599130 
# 
# From -- ./inp_files/260.got.cif
#   From: 2010.05.17/outbox.cif.g08.bks.cpg/sg165_1_cif.got.tgz:260.got - 2010.05.20 11:02:39.
