data_PCOD9578498
_publ_section_title
;
Structure prediction by ZEFSAII (Michael W. Deem and Ramdas Pophale) SiO2 
 PCOD9578498
Probable space group: P -3 M 1
;
_chemical_formula_sum "Si O2"
_cell_formula_units_Z 96
_cell_length_a 22.599135
_cell_length_b 22.599135
_cell_length_c 12.134953
_cell_angle_alpha 90.000000
_cell_angle_beta 90.000000
_cell_angle_gamma 120.000000
_cell_volume 5367.256657
_symmetry_space_group_name_H-M "P -3 M 1"
_symmetry_group_IT_number 164
_symmetry_cell_setting 'hexagonal'
loop_
_space_group_symop_operation_xyz
x,y,z
-y,x-y,z
-x+y,-x,z
x-y,-y,-z
-x,-x+y,-z
y,x,-z
-x,-y,-z
y,-x+y,-z
x-y,x,-z
-x+y,y,z
x,x-y,z
-y,-x,z
loop_
_atom_site_type_symbol
_atom_site_label
_atom_site_fract_x
_atom_site_fract_y
_atom_site_fract_z
Si Si1 0.667186 0.077341 0.036207
Si Si2 0.428734 0.146919 0.429599
Si Si3 0.474935 0.087500 0.822421
Si Si4 0.721976 0.791981 0.562270
Si Si5 0.927631 0.214120 0.176239
Si Si6 0.397419 0.932693 0.750376
Si Si7 0.801651 0.468699 0.631243
Si Si8 0.000538 0.866583 0.131287
O O1 0.669280 0.111548 0.919293
O O2 0.729757 0.074816 0.097231
O O3 0.633920 0.100497 0.131182
O O4 0.614244 0.000000 0.000000
O O5 0.428350 0.214175 0.382089
O O6 0.354507 0.102001 0.485261
O O7 0.441964 0.103435 0.339393
O O8 0.486217 0.171755 0.521689
O O9 0.541224 0.082448 0.863584
O O10 0.500155 0.141018 0.724169
O O11 0.423007 0.012931 0.770328
O O12 0.771851 0.771851 0.500000
O O13 0.743658 0.871829 0.554397
O O14 0.709352 0.772208 0.692500
O O15 0.855435 0.144566 0.160907
O O16 0.986328 0.196057 0.147321
O O17 0.463549 0.927097 0.721831
O O18 0.734331 0.468662 0.669623
O O19 0.785545 0.392773 0.606781
O O20 0.072160 0.927841 0.174328
O O21 0.935475 0.870950 0.177073
O O22 0.000000 0.875461 0.000000
#
# Coordination Sequence:
#
# PCOD9578498 Si02
#       8
#    12  12  12  12  12  12  12  12
#     4  10  19  32  52  76 109 142 176 218 273 326
#     4  10  21  36  55  81 109 141 184 231 278 335
#     4   9  20  35  53  83 115 143 185 229 269 329
#     4  10  22  38  57  79 110 147 185 231 285 340
#     4  10  20  34  51  76 106 141 183 228 277 333
#     4  10  19  33  56  80 105 140 178 224 275 321
#     4  10  21  37  56  80 112 148 187 231 281 334
#     4   9  17  30  49  73 102 136 178 228 278 328
#
# _framework density 17.886233000000001
#
# number of rings (size 3 to 8) (size 9 to 14) (size 15 to 20)
#    0.000    2.250    1.250    1.375    1.750    3.000 
#    0.000    1.875    0.000    5.625    0.000    0.000 
#    0.000    0.000    0.000    0.000    0.000    0.000 
#
# Total GULP energy -534574.246409 kJ/mol
# GULP energy per Si atom -5568.481733 kJ/mol
# Density = 1.784552 g / cm^3
# Si number density = 17.886233 Si / 1000 Ang^3
#
#
#
# Elastic Constant Matrix: (Units=GPa)
#
#
# Indices 1 2 3 4 5 6 
#
# 1 94.9899 46.3191 42.7221 3.3922 0.0000 0.0000
# 2 46.3191 94.9899 42.7221 -3.3922 0.0000 0.0000
# 3 42.7221 42.7221 61.4470 0.0000 0.0000 0.0000
# 4 3.3922 -3.3922 0.0000 17.7001 0.0000 0.0000
# 5 0.0000 0.0000 0.0000 0.0000 17.7001 3.3922
# 6 0.0000 0.0000 0.0000 0.0000 3.3922 24.3354
#
#
#
# Elastic Compliance Matrix: (Units=1/GPa)
#
#
# Indices 1 2 3 4 5 6 
#
# 1 0.016660 -0.004450 -0.008489 -0.004046 0.000000 0.000000
# 2 -0.004450 0.016660 -0.008489 0.004046 0.000000 0.000000
# 3 -0.008489 -0.008489 0.028078 0.000000 0.000000 0.000000
# 4 -0.004046 0.004046 0.000000 0.058048 0.000000 0.000000
# 5 0.000000 0.000000 0.000000 0.000000 0.058048 -0.008091
# 6 0.000000 0.000000 0.000000 0.000000 -0.008091 0.042220
#
#
# Mechanical properties :
#
#
# Convention : Reuss Voigt Hill
#
# Bulk Modulus (GPa) = 53.93216 57.21704 55.57460
# Shear Modulus (GPa) = 18.60460 19.92468 19.26464
#
# Velocity S-wave (km/s) = 3.22865 3.34124 3.28543
# Velocity P-wave (km/s) = 6.64209 6.85157 6.74764
#
# Compressibility (1/GPa) = 0.01854181
#
# Stress axis : x y z
#
# Youngs Moduli (GPa) = 60.02436 60.02436 35.61457
#
# Poissons Ratio (x) = 0.26712 0.30233
# Poissons Ratio (y) = 0.26712 0.30233
# Poissons Ratio (z) = 0.50954 0.50954
#
# Static dielectric constant tensor:
#      x y z
#    x 1.633060 0.000000 0.000000 
#    y 0.000000 1.633060 0.000000 
#    z 0.000000 0.000000 1.633280 
# 
# From -- ./inp_files/3169.got.cif
#   From: 2010.05.17/outbox.cif.g08.bks.cpg/sg164_2_cif.got.tgz:3169.got - 2010.05.20 10:58:56.
