data_PCOD9578349
_publ_section_title
;
Structure prediction by ZEFSAII (Michael W. Deem and Ramdas Pophale) SiO2 
 PCOD9578349
Probable space group: P -3 M 1
;
_chemical_formula_sum "Si O2"
_cell_formula_units_Z 54
_cell_length_a 27.657023
_cell_length_b 27.657023
_cell_length_c 5.201789
_cell_angle_alpha 90.000000
_cell_angle_beta 90.000000
_cell_angle_gamma 120.000000
_cell_volume 3445.832996
_symmetry_space_group_name_H-M "P -3 M 1"
_symmetry_group_IT_number 164
_symmetry_cell_setting 'hexagonal'
loop_
_space_group_symop_operation_xyz
x,y,z
-y,x-y,z
-x+y,-x,z
x-y,-y,-z
-x,-x+y,-z
y,x,-z
-x,-y,-z
y,-x+y,-z
x-y,x,-z
-x+y,y,z
x,x-y,z
-y,-x,z
loop_
_atom_site_type_symbol
_atom_site_label
_atom_site_fract_x
_atom_site_fract_y
_atom_site_fract_z
Si Si1 0.705315 0.521734 0.641889
Si Si2 0.039629 0.519815 0.752643
Si Si3 0.658816 0.720219 0.884719
Si Si4 0.657474 0.774391 0.382385
Si Si5 0.524246 0.875258 0.855533
O O1 0.752113 0.504225 0.685668
O O2 0.739666 0.589635 0.628397
O O3 0.675514 0.504496 0.367337
O O4 0.660547 0.504761 0.870643
O O5 0.080275 0.586234 0.777151
O O6 0.000000 0.500000 0.500000
O O7 0.000000 0.500000 0.000000
O O8 0.676210 0.746186 0.601264
O O9 0.591667 0.682501 0.871251
O O10 0.683403 0.683403 0.000000
O O11 0.674871 0.768190 0.096838
O O12 0.674491 0.837246 0.449573
#
# Coordination Sequence:
#
# PCOD9578349 Si02
#       5
#    12   6  12  12  12
#     4   9  17  31  50  69  87 105 142 191 237 267
#     4  12  24  36  48  66 102 142 164 182 216 278
#     4  10  18  28  43  62  84 113 149 183 219 259
#     4   9  17  28  42  60  83 110 136 179 225 259
#     4  10  20  32  47  67  93 121 153 185 220 279
#
# _framework density 15.671101
#
# number of rings (size 3 to 8) (size 9 to 14) (size 15 to 20)
#    0.000    2.222    0.000    4.000    0.000    8.889 
#    0.000    0.000    0.000    0.000    0.000    0.000 
#   22.222    0.000    0.000    0.000    0.000    0.000 
#
# Total GULP energy -300817.581636 kJ/mol
# GULP energy per Si atom -5570.695956 kJ/mol
# Density = 1.563543 g / cm^3
# Si number density = 15.671101 Si / 1000 Ang^3
#
#
#
# Elastic Constant Matrix: (Units=GPa)
#
#
# Indices 1 2 3 4 5 6 
#
# 1 55.8399 17.9866 32.1831 -6.2391 0.0000 0.0000
# 2 17.9866 55.8399 32.1831 6.2391 0.0000 0.0000
# 3 32.1831 32.1831 114.4008 0.0000 0.0000 0.0000
# 4 -6.2391 6.2391 0.0000 21.3519 0.0000 0.0000
# 5 0.0000 0.0000 0.0000 0.0000 21.3519 -6.2391
# 6 0.0000 0.0000 0.0000 0.0000 -6.2391 18.9267
#
#
#
# Elastic Compliance Matrix: (Units=1/GPa)
#
#
# Indices 1 2 3 4 5 6 
#
# 1 0.023590 -0.005643 -0.005049 0.008542 0.000000 0.000000
# 2 -0.005643 0.023590 -0.005049 -0.008542 0.000000 0.000000
# 3 -0.005049 -0.005049 0.011582 0.000000 0.000000 0.000000
# 4 0.008542 -0.008542 0.000000 0.051826 0.000000 0.000000
# 5 0.000000 0.000000 0.000000 0.000000 0.051826 0.017084
# 6 0.000000 0.000000 0.000000 0.000000 0.017084 0.058467
#
#
# Mechanical properties :
#
#
# Convention : Reuss Voigt Hill
#
# Bulk Modulus (GPa) = 36.65589 43.42067 40.03828
# Shear Modulus (GPa) = 19.12353 21.90795 20.51574
#
# Velocity S-wave (km/s) = 3.49708 3.74302 3.62214
# Velocity P-wave (km/s) = 6.30457 6.81527 6.56489
#
# Compressibility (1/GPa) = 0.02728075
#
# Stress axis : x y z
#
# Youngs Moduli (GPa) = 42.39012 42.39012 86.34176
#
# Poissons Ratio (x) = 0.23922 0.43593
# Poissons Ratio (y) = 0.23922 0.43593
# Poissons Ratio (z) = 0.21402 0.21402
#
# Static dielectric constant tensor:
#      x y z
#    x 1.519240 0.000000 0.000000 
#    y 0.000000 1.519240 0.000000 
#    z 0.000000 0.000000 1.544320 
# 
# From -- ./inp_files/551.got.cif
#   From: 2010.05.17/outbox.cif.g08.bks.cpg/sg164_1_cif.got.tgz:551.got - 2010.05.20 10:58:56.
