data_PCOD9578453
_publ_section_title
;
Structure prediction by ZEFSAII (Michael W. Deem and Ramdas Pophale) SiO2 
 PCOD9578453
Probable space group: P -3 M 1
;
_chemical_formula_sum "Si O2"
_cell_formula_units_Z 84
_cell_length_a 19.883070
_cell_length_b 19.883070
_cell_length_c 13.547354
_cell_angle_alpha 90.000000
_cell_angle_beta 90.000000
_cell_angle_gamma 120.000000
_cell_volume 4638.226939
_symmetry_space_group_name_H-M "P -3 M 1"
_symmetry_group_IT_number 164
_symmetry_cell_setting 'hexagonal'
loop_
_space_group_symop_operation_xyz
x,y,z
-y,x-y,z
-x+y,-x,z
x-y,-y,-z
-x,-x+y,-z
y,x,-z
-x,-y,-z
y,-x+y,-z
x-y,x,-z
-x+y,y,z
x,x-y,z
-y,-x,z
loop_
_atom_site_type_symbol
_atom_site_label
_atom_site_fract_x
_atom_site_fract_y
_atom_site_fract_z
Si Si1 0.335764 0.517615 0.901239
Si Si2 0.913251 0.670038 0.548155
Si Si3 0.029663 0.329839 0.249146
Si Si4 0.212321 0.270112 0.924027
Si Si5 0.913246 0.382122 0.295306
Si Si6 0.176242 0.666519 0.508882
Si Si7 0.129704 0.712674 0.072595
O O1 0.246528 0.493055 0.890347
O O2 0.390986 0.609015 0.890830
O O3 0.360014 0.479664 0.815021
O O4 0.345644 0.490781 0.009099
O O5 0.841641 0.683282 0.513161
O O6 0.923797 0.684448 0.665797
O O7 0.881144 0.577067 0.533410
O O8 0.000000 0.722863 0.500000
O O9 0.081992 0.398197 0.172509
O O10 0.982904 0.258067 0.175048
O O11 0.972938 0.351966 0.306471
O O12 0.131667 0.263334 0.898853
O O13 0.204452 0.204452 0.000000
O O14 0.260000 0.347103 0.992691
O O15 0.948157 0.474079 0.308670
O O16 0.844126 0.342319 0.374278
O O17 0.165090 0.582545 0.476847
O O18 0.263948 0.736053 0.491318
O O19 0.211126 0.788875 0.097007
#
# Coordination Sequence:
#
# PCOD9578453 Si02
#       7
#    12  12  12  12  12  12  12
#     4  10  19  31  47  71 105 146 189 230 272 322
#     4  11  24  41  62  89 118 149 192 243 295 350
#     4  11  20  34  53  81 110 144 180 227 280 338
#     4   9  18  32  54  81 108 139 173 213 263 324
#     4  10  20  31  50  79 112 146 183 234 289 335
#     4  10  21  38  60  86 117 155 197 243 294 347
#     4   9  18  32  50  73 105 141 180 220 266 319
#
# _framework density 18.110368000000001
#
# number of rings (size 3 to 8) (size 9 to 14) (size 15 to 20)
#    0.000    2.000    2.857    1.143    0.000    3.143 
#    0.000    2.857    0.000    0.286    0.000    3.000 
#    0.000    0.000    0.000    0.000    0.000    0.000 
#
# Total GULP energy -467756.840164 kJ/mol
# GULP energy per Si atom -5568.533811 kJ/mol
# Density = 1.806915 g / cm^3
# Si number density = 18.110368 Si / 1000 Ang^3
#
#
#
# Elastic Constant Matrix: (Units=GPa)
#
#
# Indices 1 2 3 4 5 6 
#
# 1 75.0754 35.6023 15.5711 -1.1162 0.0000 0.0000
# 2 35.6023 75.0754 15.5711 1.1162 0.0000 0.0000
# 3 15.5711 15.5711 62.4249 0.0000 0.0000 0.0000
# 4 -1.1162 1.1162 0.0000 21.0698 0.0000 0.0000
# 5 0.0000 0.0000 0.0000 0.0000 21.0698 -1.1162
# 6 0.0000 0.0000 0.0000 0.0000 -1.1162 19.7365
#
#
#
# Elastic Compliance Matrix: (Units=1/GPa)
#
#
# Indices 1 2 3 4 5 6 
#
# 1 0.017564 -0.007846 -0.002424 0.001346 0.000000 0.000000
# 2 -0.007846 0.017564 -0.002424 -0.001346 0.000000 0.000000
# 3 -0.002424 -0.002424 0.017228 0.000000 0.000000 0.000000
# 4 0.001346 -0.001346 0.000000 0.047604 0.000000 0.000000
# 5 0.000000 0.000000 0.000000 0.000000 0.047604 0.002692
# 6 0.000000 0.000000 0.000000 0.000000 0.002692 0.050820
#
#
# Mechanical properties :
#
#
# Convention : Reuss Voigt Hill
#
# Bulk Modulus (GPa) = 37.08159 38.45166 37.76663
# Shear Modulus (GPa) = 21.48134 22.09732 21.78933
#
# Velocity S-wave (km/s) = 3.44777 3.49685 3.47240
# Velocity P-wave (km/s) = 6.03069 6.13041 6.08075
#
# Compressibility (1/GPa) = 0.02696756
#
# Stress axis : x y z
#
# Youngs Moduli (GPa) = 56.93609 56.93609 58.04354
#
# Poissons Ratio (x) = 0.44674 0.14069
# Poissons Ratio (y) = 0.44674 0.14069
# Poissons Ratio (z) = 0.13800 0.13800
#
# Static dielectric constant tensor:
#      x y z
#    x 1.656980 0.000000 0.000000 
#    y 0.000000 1.656980 0.000000 
#    z 0.000000 0.000000 1.620080 
# 
# From -- ./inp_files/2949.got.cif
#   From: 2010.05.17/outbox.cif.g08.bks.cpg/sg164_2_cif.got.tgz:2949.got - 2010.05.20 10:58:56.
