data_PCOD9578195
_publ_section_title
;
Structure prediction by ZEFSAII (Michael W. Deem and Ramdas Pophale) SiO2 
 PCOD9578195
Probable space group: P -3 1 C
;
_chemical_formula_sum "Si O2"
_cell_formula_units_Z 42
_cell_length_a 16.304556
_cell_length_b 16.304556
_cell_length_c 8.860712
_cell_angle_alpha 90.000000
_cell_angle_beta 90.000000
_cell_angle_gamma 120.000000
_cell_volume 2039.939118
_symmetry_space_group_name_H-M "P -3 1 C"
_symmetry_group_IT_number 163
_symmetry_cell_setting 'hexagonal'
loop_
_space_group_symop_operation_xyz
x,y,z
-y,x-y,z
-x+y,-x,z
-y,-x,1/2-z
-x+y,y,1/2-z
x,x-y,1/2-z
-x,-y,-z
y,-x+y,-z
x-y,x,-z
y,x,1/2+z
x-y,-y,1/2+z
-x,-x+y,1/2+z
loop_
_atom_site_type_symbol
_atom_site_label
_atom_site_fract_x
_atom_site_fract_y
_atom_site_fract_z
Si Si1 0.021651 0.698272 0.264496
Si Si2 0.782562 0.948883 0.004770
Si Si3 0.608277 0.076532 0.024935
Si Si4 0.213317 0.606659 0.750000
O O1 0.082405 0.670507 0.378122
O O2 0.954962 0.722462 0.366561
O O3 0.959006 0.607750 0.160345
O O4 0.071584 0.786397 0.149249
O O5 0.816864 0.872824 0.984009
O O6 0.594953 0.159573 0.094661
O O7 0.500000 0.000000 0.000000
O O8 0.281276 0.562552 0.750000
#
# Coordination Sequence:
#
# PCOD9578195 Si02
#       4
#    12  12  12   6
#     4  10  23  37  66  97 124 175 230 269 323 413
#     4  11  23  42  61  98 134 181 224 279 335 389
#     4  11  20  44  69  94 129 172 215 275 343 396
#     4  10  24  42  66 106 128 168 216 274 336 392
#
# _framework density 20.588849
#
# number of rings (size 3 to 8) (size 9 to 14) (size 15 to 20)
#    0.286    1.143    2.857    2.000    0.000    4.571 
#    5.143    2.857    0.000    0.000    0.000    0.000 
#    0.000    0.000    0.000    0.000    0.000    0.000 
#
# Total GULP energy -233986.379781 kJ/mol
# GULP energy per Si atom -5571.104281 kJ/mol
# Density = 2.054199 g / cm^3
# Si number density = 20.588849 Si / 1000 Ang^3
#
#
#
# Elastic Constant Matrix: (Units=GPa)
#
#
# Indices 1 2 3 4 5 6 
#
# 1 96.3824 35.5481 27.4412 0.0001 0.0909 0.0000
# 2 35.5481 96.3824 27.4412 -0.0001 -0.0909 0.0000
# 3 27.4412 27.4412 100.5811 0.0000 0.0000 0.0000
# 4 0.0001 -0.0001 0.0000 38.0981 0.0000 -0.0909
# 5 0.0909 -0.0909 0.0000 0.0000 38.0981 0.0001
# 6 0.0000 0.0000 0.0000 -0.0909 0.0001 30.4171
#
#
#
# Elastic Compliance Matrix: (Units=1/GPa)
#
#
# Indices 1 2 3 4 5 6 
#
# 1 0.012494 -0.003944 -0.002333 0.000000 -0.000039 0.000000
# 2 -0.003944 0.012494 -0.002333 0.000000 0.000039 0.000000
# 3 -0.002333 -0.002333 0.011215 0.000000 0.000000 0.000000
# 4 0.000000 0.000000 0.000000 0.026248 0.000000 0.000078
# 5 -0.000039 0.000039 0.000000 0.000000 0.026248 0.000000
# 6 0.000000 0.000000 0.000000 0.000078 0.000000 0.032876
#
#
# Mechanical properties :
#
#
# Convention : Reuss Voigt Hill
#
# Bulk Modulus (GPa) = 52.67447 52.68966 52.68207
# Shear Modulus (GPa) = 34.45343 34.85034 34.65189
#
# Velocity S-wave (km/s) = 4.09516 4.11868 4.10694
# Velocity P-wave (km/s) = 6.92820 6.94730 6.93776
#
# Compressibility (1/GPa) = 0.01898453
#
# Stress axis : x y z
#
# Youngs Moduli (GPa) = 80.03727 80.03727 89.16571
#
# Poissons Ratio (x) = 0.31567 0.20800
# Poissons Ratio (y) = 0.31567 0.20800
# Poissons Ratio (z) = 0.18670 0.18670
#
# Static dielectric constant tensor:
#      x y z
#    x 1.749130 0.000000 0.000000 
#    y 0.000000 1.749130 0.000000 
#    z 0.000000 0.000000 1.610410 
# 
# From -- ./inp_files/819.got.cif
#   From: 2010.05.17/outbox.cif.g08.bks.cpg/sg163_1_cif.got.tgz:819.got - 2010.05.20 10:56:03.
