data_PCOD9578394
_publ_section_title
;
Structure prediction by ZEFSAII (Michael W. Deem and Ramdas Pophale) SiO2 
 PCOD9578394
Probable space group: P -3 M 1
;
_chemical_formula_sum "Si O2"
_cell_formula_units_Z 84
_cell_length_a 17.852844
_cell_length_b 17.852844
_cell_length_c 20.477514
_cell_angle_alpha 90.000000
_cell_angle_beta 90.000000
_cell_angle_gamma 120.000000
_cell_volume 5652.267191
_symmetry_space_group_name_H-M "P -3 M 1"
_symmetry_group_IT_number 164
_symmetry_cell_setting 'hexagonal'
loop_
_space_group_symop_operation_xyz
x,y,z
-y,x-y,z
-x+y,-x,z
x-y,-y,-z
-x,-x+y,-z
y,x,-z
-x,-y,-z
y,-x+y,-z
x-y,x,-z
-x+y,y,z
x,x-y,z
-y,-x,z
loop_
_atom_site_type_symbol
_atom_site_label
_atom_site_fract_x
_atom_site_fract_y
_atom_site_fract_z
Si Si1 0.821742 0.998513 0.818368
Si Si2 0.502257 0.669183 0.872202
Si Si3 0.300989 0.237461 0.307381
Si Si4 0.465851 0.364328 0.984037
Si Si5 0.823841 0.824157 0.423466
Si Si6 0.097397 0.731671 0.143102
Si Si7 0.593359 0.579749 0.232042
O O1 0.918878 0.081123 0.816499
O O2 0.762249 0.025472 0.861172
O O3 0.822001 0.911001 0.838259
O O4 0.774502 0.979107 0.747845
O O5 0.521549 0.760774 0.846504
O O6 0.400613 0.599388 0.871231
O O7 0.546973 0.630575 0.826707
O O8 0.531120 0.676871 0.947274
O O9 0.330189 0.165095 0.308230
O O10 0.255235 0.233051 0.375749
O O11 0.376717 0.331913 0.286407
O O12 0.564056 0.435944 0.965132
O O13 0.414606 0.301188 0.925326
O O14 0.417458 0.417458 0.000000
O O15 0.803294 0.803294 0.500000
O O16 0.922866 0.845731 0.414137
O O17 0.816422 0.908211 0.407762
O O18 0.183556 0.816445 0.164925
O O19 0.069333 0.657023 0.196759
O O20 0.501872 0.498129 0.252335
#
# Coordination Sequence:
#
# PCOD9578394 Si02
#       7
#    12  12  12  12  12  12  12
#     4   9  17  28  43  63  89 119 151 183 214 249
#     4  10  19  30  47  68  89 110 135 173 221 275
#     4   9  17  28  43  67  95 120 151 184 214 256
#     4  10  18  31  47  64  83 105 137 175 222 277
#     4   9  16  26  43  70 104 137 162 183 210 246
#     4  10  19  31  45  64  86 110 143 184 224 267
#     4  10  19  32  49  65  86 116 146 180 225 270
#
# _framework density 14.861293999999999
#
# number of rings (size 3 to 8) (size 9 to 14) (size 15 to 20)
#    0.000    2.429    1.429    2.143    0.000    1.714 
#    0.000    1.429    0.000    3.857    0.000    0.000 
#    0.000    2.857    0.000    0.286    0.000    0.000 
#
# Total GULP energy -467886.577919 kJ/mol
# GULP energy per Si atom -5570.078309 kJ/mol
# Density = 1.482747 g / cm^3
# Si number density = 14.861294 Si / 1000 Ang^3
#
#
#
# Elastic Constant Matrix: (Units=GPa)
#
#
# Indices 1 2 3 4 5 6 
#
# 1 78.1481 49.0550 34.5890 -0.8544 0.0000 0.0000
# 2 49.0550 78.1481 34.5890 0.8544 0.0000 0.0000
# 3 34.5890 34.5890 57.3556 0.0000 0.0000 0.0000
# 4 -0.8544 0.8544 0.0000 20.0968 0.0000 0.0000
# 5 0.0000 0.0000 0.0000 0.0000 20.0968 -0.8544
# 6 0.0000 0.0000 0.0000 0.0000 -0.8544 14.5465
#
#
#
# Elastic Compliance Matrix: (Units=1/GPa)
#
#
# Indices 1 2 3 4 5 6 
#
# 1 0.023078 -0.011380 -0.007055 0.001465 0.000000 0.000000
# 2 -0.011380 0.023078 -0.007055 -0.001465 0.000000 0.000000
# 3 -0.007055 -0.007055 0.025944 0.000000 0.000000 0.000000
# 4 0.001465 -0.001465 0.000000 0.049884 0.000000 0.000000
# 5 0.000000 0.000000 0.000000 0.000000 0.049884 0.002930
# 6 0.000000 0.000000 0.000000 0.000000 0.002930 0.068917
#
#
# Mechanical properties :
#
#
# Convention : Reuss Voigt Hill
#
# Bulk Modulus (GPa) = 47.34543 50.01309 48.67926
# Shear Modulus (GPa) = 16.73334 17.30926 17.02130
#
# Velocity S-wave (km/s) = 3.35919 3.41650 3.38797
# Velocity P-wave (km/s) = 6.85368 7.02066 6.93767
#
# Compressibility (1/GPa) = 0.02112136
#
# Stress axis : x y z
#
# Youngs Moduli (GPa) = 43.33077 43.33077 38.54471
#
# Poissons Ratio (x) = 0.49311 0.27192
# Poissons Ratio (y) = 0.49311 0.27192
# Poissons Ratio (z) = 0.30568 0.30568
#
# Static dielectric constant tensor:
#      x y z
#    x 1.507460 0.000000 0.000000 
#    y 0.000000 1.507460 0.000000 
#    z 0.000000 0.000000 1.479600 
# 
# From -- ./inp_files/4662.got.cif
#   From: 2010.05.17/outbox.cif.g08.bks.cpg/sg164_3_cif.got.tgz:4662.got - 2010.05.20 10:58:56.
