data_PCOD9578767
_publ_section_title
;
Structure prediction by ZEFSAII (Michael W. Deem and Ramdas Pophale) SiO2 
 PCOD9578767
Probable space group: P -3 C 1
;
_chemical_formula_sum "Si O2"
_cell_formula_units_Z 72
_cell_length_a 33.224606
_cell_length_b 33.224606
_cell_length_c 5.369189
_cell_angle_alpha 90.000000
_cell_angle_beta 90.000000
_cell_angle_gamma 120.000000
_cell_volume 5132.855077
_symmetry_space_group_name_H-M "P -3 C 1"
_symmetry_group_IT_number 165
_symmetry_cell_setting 'hexagonal'
loop_
_space_group_symop_operation_xyz
x,y,z
-y,x-y,z
-x+y,-x,z
x-y,-y,1/2-z
-x,-x+y,1/2-z
y,x,1/2-z
-x,-y,-z
y,-x+y,-z
x-y,x,-z
-x+y,y,1/2+z
x,x-y,1/2+z
-y,-x,1/2+z
loop_
_atom_site_type_symbol
_atom_site_label
_atom_site_fract_x
_atom_site_fract_y
_atom_site_fract_z
Si Si1 0.447106 0.000000 0.250000
Si Si2 0.380781 0.803573 0.249994
Si Si3 0.103206 0.444292 0.749996
Si Si4 0.450032 0.248493 0.249993
Si Si5 0.267905 0.553178 0.250010
Si Si6 0.497491 0.397489 0.750004
Si Si7 0.393036 0.393036 0.250000
O O1 0.493229 0.049539 0.250001
O O2 0.419865 0.000000 0.499061
O O3 0.393541 0.787078 0.499989
O O4 0.326041 0.785333 0.250006
O O5 0.408192 0.858728 0.249996
O O6 0.148137 0.437672 0.750001
O O7 0.105075 0.472627 0.499310
O O8 0.051283 0.398306 0.749998
O O9 0.105074 0.472627 0.000680
O O10 0.434482 0.217240 0.499992
O O11 0.506626 0.271599 0.249992
O O12 0.289951 0.579903 0.500010
#
# Coordination Sequence:
#
# PCOD9578767 Si02
#       7
#     6  12  12  12  12  12   6
#     4   8  16  28  46  65  84 112 140 162 186 222
#     4  12  24  36  50  70  88 106 131 161 196 239
#     4  10  17  30  49  71  92 113 139 165 200 241
#     4  10  18  27  44  69  88 107 132 165 198 228
#     4  10  19  34  53  68  80  98 122 155 193 227
#     4  10  18  32  48  65  88 112 137 163 192 229
#     4   8  16  26  44  69  94 116 134 162 196 238
#
# _framework density 14.027281
#
# number of rings (size 3 to 8) (size 9 to 14) (size 15 to 20)
#    0.000    2.000    0.000    7.000    0.000    0.000 
#    0.000    0.833    0.000    6.667    0.000    0.000 
#    0.000    0.000    0.000    0.000    0.000    0.000 
#
# Total GULP energy -401158.525948 kJ/mol
# GULP energy per Si atom -5571.646194 kJ/mol
# Density = 1.399535 g / cm^3
# Si number density = 14.027281 Si / 1000 Ang^3
#
#
#
# Elastic Constant Matrix: (Units=GPa)
#
#
# Indices 1 2 3 4 5 6 
#
# 1 55.9561 29.4031 19.0643 -0.0005 0.0000 0.0000
# 2 29.4031 55.9561 19.0643 0.0005 0.0000 0.0000
# 3 19.0643 19.0643 141.8790 0.0000 0.0000 0.0000
# 4 -0.0005 0.0005 0.0000 22.6591 0.0000 0.0000
# 5 0.0000 0.0000 0.0000 0.0000 22.6591 -0.0005
# 6 0.0000 0.0000 0.0000 0.0000 -0.0005 13.2765
#
#
#
# Elastic Compliance Matrix: (Units=1/GPa)
#
#
# Indices 1 2 3 4 5 6 
#
# 1 0.025062 -0.012599 -0.001675 0.000001 0.000000 0.000000
# 2 -0.012599 0.025062 -0.001675 -0.000001 0.000000 0.000000
# 3 -0.001675 -0.001675 0.007498 0.000000 0.000000 0.000000
# 4 0.000001 -0.000001 0.000000 0.044132 0.000000 0.000000
# 5 0.000000 0.000000 0.000000 0.000000 0.044132 0.000002
# 6 0.000000 0.000000 0.000000 0.000000 0.000002 0.075321
#
#
# Mechanical properties :
#
#
# Convention : Reuss Voigt Hill
#
# Bulk Modulus (GPa) = 38.87108 43.20607 41.03858
# Shear Modulus (GPa) = 19.10737 24.13625 21.62181
#
# Velocity S-wave (km/s) = 3.69475 4.15259 3.93034
# Velocity P-wave (km/s) = 6.78032 7.33896 7.06516
#
# Compressibility (1/GPa) = 0.02572606
#
# Stress axis : x y z
#
# Youngs Moduli (GPa) = 39.90123 39.90123 133.36331
#
# Poissons Ratio (x) = 0.50270 0.22334
# Poissons Ratio (y) = 0.50270 0.22334
# Poissons Ratio (z) = 0.06682 0.06682
#
# Static dielectric constant tensor:
#      x y z
#    x 1.473100 0.000000 0.000000 
#    y 0.000000 1.473100 0.000000 
#    z 0.000000 0.000000 1.565590 
# 
# From -- ./inp_files/239.got.cif
#   From: 2010.05.17/outbox.cif.g08.bks.cpg/sg165_1_cif.got.tgz:239.got - 2010.05.20 11:02:39.
