data_PCOD9578465
_publ_section_title
;
Structure prediction by ZEFSAII (Michael W. Deem and Ramdas Pophale) SiO2 
 PCOD9578465
Probable space group: P -3 M 1
;
_chemical_formula_sum "Si O2"
_cell_formula_units_Z 72
_cell_length_a 21.778080
_cell_length_b 21.778080
_cell_length_c 9.575936
_cell_angle_alpha 90.000000
_cell_angle_beta 90.000000
_cell_angle_gamma 120.000000
_cell_volume 3933.245407
_symmetry_space_group_name_H-M "P -3 M 1"
_symmetry_group_IT_number 164
_symmetry_cell_setting 'hexagonal'
loop_
_space_group_symop_operation_xyz
x,y,z
-y,x-y,z
-x+y,-x,z
x-y,-y,-z
-x,-x+y,-z
y,x,-z
-x,-y,-z
y,-x+y,-z
x-y,x,-z
-x+y,y,z
x,x-y,z
-y,-x,z
loop_
_atom_site_type_symbol
_atom_site_label
_atom_site_fract_x
_atom_site_fract_y
_atom_site_fract_z
Si Si1 0.602709 0.541346 0.782229
Si Si2 0.695879 0.166656 0.021012
Si Si3 0.531914 0.335188 0.319407
Si Si4 0.937656 0.731992 0.410250
Si Si5 0.720552 0.581635 0.549123
Si Si6 0.958953 0.662360 0.138498
O O1 0.521457 0.478544 0.763398
O O2 0.653939 0.553032 0.651240
O O3 0.615488 0.619676 0.817924
O O4 0.637822 0.520478 0.909169
O O5 0.760143 0.239858 0.962640
O O6 0.663773 0.184599 0.154850
O O7 0.727457 0.119921 0.086947
O O8 0.557998 0.278999 0.345589
O O9 0.588326 0.411675 0.372902
O O10 0.459331 0.305302 0.402659
O O11 0.871661 0.743321 0.382272
O O12 0.909689 0.663665 0.512469
O O13 0.960746 0.710213 0.266749
O O14 0.000000 0.793603 0.500000
O O15 0.785117 0.570235 0.601560
O O16 0.000000 0.705023 0.000000
#
# Coordination Sequence:
#
# PCOD9578465 Si02
#       6
#    12  12  12  12  12  12
#     4  11  22  35  52  79 115 148 193 246 295 348
#     4  10  20  35  53  72 101 147 194 239 299 350
#     4  10  19  31  48  70  98 141 195 248 296 340
#     4  11  21  40  63  91 123 151 187 229 272 335
#     4  10  20  35  55  77 109 148 190 237 292 345
#     4  10  21  36  55  83 117 150 194 236 295 343
#
# _framework density 18.305493999999999
#
# number of rings (size 3 to 8) (size 9 to 14) (size 15 to 20)
#    0.000    1.667    3.333    2.167    0.000    3.667 
#    0.000    1.667    0.000    4.833    0.000    0.000 
#    0.000    0.667    0.000    0.000    0.000    0.000 
#
# Total GULP energy -401700.369865 kJ/mol
# GULP energy per Si atom -5579.171804 kJ/mol
# Density = 1.826383 g / cm^3
# Si number density = 18.305494 Si / 1000 Ang^3
#
#
#
# Elastic Constant Matrix: (Units=GPa)
#
#
# Indices 1 2 3 4 5 6 
#
# 1 63.6880 33.5169 26.0919 -1.0378 0.0000 0.0000
# 2 33.5169 63.6880 26.0919 1.0378 0.0000 0.0000
# 3 26.0919 26.0919 82.1193 0.0000 0.0000 0.0000
# 4 -1.0378 1.0378 0.0000 19.9356 0.0000 0.0000
# 5 0.0000 0.0000 0.0000 0.0000 19.9356 -1.0378
# 6 0.0000 0.0000 0.0000 0.0000 -1.0378 15.0856
#
#
#
# Elastic Compliance Matrix: (Units=1/GPa)
#
#
# Indices 1 2 3 4 5 6 
#
# 1 0.022833 -0.010430 -0.003941 0.001732 0.000000 0.000000
# 2 -0.010430 0.022833 -0.003941 -0.001732 0.000000 0.000000
# 3 -0.003941 -0.003941 0.014682 0.000000 0.000000 0.000000
# 4 0.001732 -0.001732 0.000000 0.050342 0.000000 0.000000
# 5 0.000000 0.000000 0.000000 0.000000 0.050342 0.003463
# 6 0.000000 0.000000 0.000000 0.000000 0.003463 0.066527
#
#
# Mechanical properties :
#
#
# Convention : Reuss Voigt Hill
#
# Bulk Modulus (GPa) = 42.15048 42.32186 42.23617
# Shear Modulus (GPa) = 18.37620 19.24430 18.81025
#
# Velocity S-wave (km/s) = 3.17182 3.24587 3.20906
# Velocity P-wave (km/s) = 6.04070 6.10062 6.07073
#
# Compressibility (1/GPa) = 0.02372452
#
# Stress axis : x y z
#
# Youngs Moduli (GPa) = 43.79566 43.79566 68.11203
#
# Poissons Ratio (x) = 0.45679 0.26842
# Poissons Ratio (y) = 0.45679 0.26842
# Poissons Ratio (z) = 0.17259 0.17259
#
# Static dielectric constant tensor:
#      x y z
#    x 1.641800 0.000000 0.000000 
#    y 0.000000 1.641800 0.000000 
#    z 0.000000 0.000000 1.641310 
# 
# From -- ./inp_files/1902.got.cif
#   From: 2010.05.17/outbox.cif.g08.bks.cpg/sg164_1_cif.got.tgz:1902.got - 2010.05.20 10:58:56.
