data_PCOD9578289
_publ_section_title
;
Structure prediction by ZEFSAII (Michael W. Deem and Ramdas Pophale) SiO2 
 PCOD9578289
Probable space group: P -3 1 C
;
_chemical_formula_sum "Si O2"
_cell_formula_units_Z 28
_cell_length_a 12.975942
_cell_length_b 12.975942
_cell_length_c 7.847517
_cell_angle_alpha 90.000000
_cell_angle_beta 90.000000
_cell_angle_gamma 120.000000
_cell_volume 1144.302082
_symmetry_space_group_name_H-M "P -3 1 C"
_symmetry_group_IT_number 163
_symmetry_cell_setting 'hexagonal'
loop_
_space_group_symop_operation_xyz
x,y,z
-y,x-y,z
-x+y,-x,z
-y,-x,1/2-z
-x+y,y,1/2-z
x,x-y,1/2-z
-x,-y,-z
y,-x+y,-z
x-y,x,-z
y,x,1/2+z
x-y,-y,1/2+z
-x,-x+y,1/2+z
loop_
_atom_site_type_symbol
_atom_site_label
_atom_site_fract_x
_atom_site_fract_y
_atom_site_fract_z
Si Si1 0.823753 0.071065 0.563787
Si Si2 0.666667 0.333333 0.555074
Si Si3 0.128369 0.655042 0.858623
O O1 0.864676 0.135324 0.750000
O O2 0.709132 0.065598 0.473975
O O3 0.935707 0.142461 0.438489
O O4 0.666668 0.333334 0.750000
O O5 0.623253 0.203710 0.486247
O O6 0.231342 0.768658 0.750000
O O7 0.063691 0.531846 0.750000
#
# Coordination Sequence:
#
# PCOD9578289 Si02
#       3
#    12   4  12
#     4  12  25  44  68  99 139 186 233 280 333 403
#     4   9  16  32  58  90 130 176 220 279 346 404
#     4   9  19  38  63  93 134 176 223 283 343 405
#
# _framework density 24.469063999999999
#
# number of rings (size 3 to 8) (size 9 to 14) (size 15 to 20)
#    0.000    1.714    0.000    7.286    0.000    0.000 
#    0.000   21.429    0.000    7.714    0.000    0.000 
#    0.000    0.000    0.000    0.000    0.000    0.000 
#
# Total GULP energy -156251.870714 kJ/mol
# GULP energy per Si atom -5580.423954 kJ/mol
# Density = 2.441337 g / cm^3
# Si number density = 24.469064 Si / 1000 Ang^3
#
#
#
# Elastic Constant Matrix: (Units=GPa)
#
#
# Indices 1 2 3 4 5 6 
#
# 1 115.0325 34.9804 33.7520 0.0000 13.2567 0.0005
# 2 34.9804 115.0329 33.7513 0.0001 -13.2568 0.0003
# 3 33.7520 33.7513 135.3520 0.0001 0.0001 -0.0003
# 4 0.0000 0.0001 0.0001 37.4999 0.0001 -13.2567
# 5 13.2567 -13.2568 0.0001 0.0001 37.4999 0.0000
# 6 0.0005 0.0003 -0.0003 -13.2567 0.0000 40.0265
#
#
#
# Elastic Compliance Matrix: (Units=1/GPa)
#
#
# Indices 1 2 3 4 5 6 
#
# 1 0.010829 -0.003320 -0.001872 0.000000 -0.005002 0.000000
# 2 -0.003320 0.010828 -0.001872 0.000000 0.005002 0.000000
# 3 -0.001872 -0.001872 0.008322 0.000000 0.000000 0.000000
# 4 0.000000 0.000000 0.000000 0.030203 0.000000 0.010003
# 5 -0.005002 0.005002 0.000000 0.000000 0.030203 0.000000
# 6 0.000000 0.000000 0.000000 0.010003 0.000000 0.028297
#
#
# Mechanical properties :
#
#
# Convention : Reuss Voigt Hill
#
# Bulk Modulus (GPa) = 63.09264 63.37611 63.23438
# Shear Modulus (GPa) = 36.20723 40.53417 38.37070
#
# Velocity S-wave (km/s) = 3.85088 4.07449 3.96426
# Velocity P-wave (km/s) = 6.75374 6.93484 6.84489
#
# Compressibility (1/GPa) = 0.01584971
#
# Stress axis : x y z
#
# Youngs Moduli (GPa) = 92.34858 92.34921 120.16433
#
# Poissons Ratio (x) = 0.30659 0.22500
# Poissons Ratio (y) = 0.30659 0.22499
# Poissons Ratio (z) = 0.17291 0.17291
#
# Static dielectric constant tensor:
#      x y z
#    x 1.886820 0.000000 0.000000 
#    y 0.000000 1.886820 0.000000 
#    z 0.000000 0.000000 2.025250 
# 
# From -- ./inp_files/646.got.cif
#   From: 2010.05.17/outbox.cif.g08.bks.cpg/sg163_1_cif.got.tgz:646.got - 2010.05.20 10:56:03.
