data_PCOD9578538
_publ_section_title
;
Structure prediction by ZEFSAII (Michael W. Deem and Ramdas Pophale) SiO2 
 PCOD9578538
Probable space group: P -3 M 1
;
_chemical_formula_sum "Si O2"
_cell_formula_units_Z 66
_cell_length_a 12.817494
_cell_length_b 12.817494
_cell_length_c 28.744946
_cell_angle_alpha 90.000000
_cell_angle_beta 90.000000
_cell_angle_gamma 120.000000
_cell_volume 4089.765193
_symmetry_space_group_name_H-M "P -3 M 1"
_symmetry_group_IT_number 164
_symmetry_cell_setting 'hexagonal'
loop_
_space_group_symop_operation_xyz
x,y,z
-y,x-y,z
-x+y,-x,z
x-y,-y,-z
-x,-x+y,-z
y,x,-z
-x,-y,-z
y,-x+y,-z
x-y,x,-z
-x+y,y,z
x,x-y,z
-y,-x,z
loop_
_atom_site_type_symbol
_atom_site_label
_atom_site_fract_x
_atom_site_fract_y
_atom_site_fract_z
Si Si1 0.752642 0.751985 0.133800
Si Si2 0.000000 0.752117 0.500000
Si Si3 0.914344 0.580581 0.585726
Si Si4 0.333244 0.418549 0.778117
Si Si5 0.333202 0.419757 0.308538
Si Si6 0.914874 0.581142 0.044805
O O1 0.891783 0.783565 0.134375
O O2 0.690965 0.673257 0.179734
O O3 0.692055 0.667441 0.089051
O O4 0.743739 0.871870 0.132168
O O5 0.881772 0.763544 0.497577
O O6 0.988823 0.675909 0.546014
O O7 0.777638 0.555276 0.582912
O O8 0.916575 0.458288 0.578219
O O9 0.955829 0.623301 0.638643
O O10 0.219033 0.438065 0.775786
O O11 0.455273 0.544728 0.786147
O O12 0.349479 0.362991 0.730295
O O13 0.206272 0.412544 0.299633
O O14 0.441345 0.558655 0.306841
O O15 0.785016 0.570031 0.037442
O O16 0.900491 0.450246 0.053054
O O17 0.000000 0.638184 0.000000
#
# Coordination Sequence:
#
# PCOD9578538 Si02
#       6
#    12   6  12  12  12  12
#     4  10  20  34  52  73  97 125 159 200 244 288
#     4  10  20  32  46  64  90 124 158 192 230 278
#     4   9  17  30  49  71  93 118 151 193 239 284
#     4  10  20  33  50  71  97 129 162 196 233 278
#     4   9  17  30  49  72  96 122 153 192 238 285
#     4  10  20  34  53  76 103 135 169 205 244 288
#
# _framework density 16.137847000000001
#
# number of rings (size 3 to 8) (size 9 to 14) (size 15 to 20)
#    0.000    2.364    0.000    2.909    0.000    2.182 
#    0.000    1.818    0.000    8.727    0.000    0.000 
#    0.000    0.000    0.000    0.000    0.000    0.000 
#
# Total GULP energy -368127.237351 kJ/mol
# GULP energy per Si atom -5577.685414 kJ/mol
# Density = 1.610112 g / cm^3
# Si number density = 16.137847 Si / 1000 Ang^3
#
#
#
# Elastic Constant Matrix: (Units=GPa)
#
#
# Indices 1 2 3 4 5 6 
#
# 1 111.7733 74.9177 83.3367 -1.0677 0.0000 0.0000
# 2 74.9177 111.7733 83.3367 1.0677 0.0000 0.0000
# 3 83.3367 83.3367 139.5106 0.0000 0.0000 0.0000
# 4 -1.0677 1.0677 0.0000 24.9111 0.0000 0.0000
# 5 0.0000 0.0000 0.0000 0.0000 24.9111 -1.0677
# 6 0.0000 0.0000 0.0000 0.0000 -1.0677 18.4278
#
#
#
# Elastic Compliance Matrix: (Units=1/GPa)
#
#
# Indices 1 2 3 4 5 6 
#
# 1 0.019339 -0.007862 -0.006856 0.001166 0.000000 0.000000
# 2 -0.007862 0.019339 -0.006856 -0.001166 0.000000 0.000000
# 3 -0.006856 -0.006856 0.015359 0.000000 0.000000 0.000000
# 4 0.001166 -0.001166 0.000000 0.040243 0.000000 0.000000
# 5 0.000000 0.000000 0.000000 0.000000 0.040243 0.002332
# 6 0.000000 0.000000 0.000000 0.000000 0.002332 0.054401
#
#
# Mechanical properties :
#
#
# Convention : Reuss Voigt Hill
#
# Bulk Modulus (GPa) = 91.83186 94.02660 92.92923
# Shear Modulus (GPa) = 21.21343 21.74774 21.48059
#
# Velocity S-wave (km/s) = 3.62956 3.67498 3.65234
# Velocity P-wave (km/s) = 8.63673 8.74062 8.68883
#
# Compressibility (1/GPa) = 0.01088947
#
# Stress axis : x y z
#
# Youngs Moduli (GPa) = 51.70927 51.70927 65.10951
#
# Poissons Ratio (x) = 0.40652 0.44639
# Poissons Ratio (y) = 0.40652 0.44639
# Poissons Ratio (z) = 0.35452 0.35452
#
# Static dielectric constant tensor:
#      x y z
#    x 1.509450 0.000000 0.000000 
#    y 0.000000 1.509450 0.000000 
#    z 0.000000 0.000000 1.536360 
# 
# From -- ./inp_files/5420.got.cif
#   From: 2010.05.17/outbox.cif.g08.bks.cpg/sg164_3_cif.got.tgz:5420.got - 2010.05.20 10:58:56.
