data_PCOD9578783
_publ_section_title
;
Structure prediction by ZEFSAII (Michael W. Deem and Ramdas Pophale) SiO2 
 PCOD9578783
Probable space group: P -3 C 1
;
_chemical_formula_sum "Si O2"
_cell_formula_units_Z 72
_cell_length_a 23.921973
_cell_length_b 23.921973
_cell_length_c 8.722608
_cell_angle_alpha 90.000000
_cell_angle_beta 90.000000
_cell_angle_gamma 120.000000
_cell_volume 4322.858090
_symmetry_space_group_name_H-M "P -3 C 1"
_symmetry_group_IT_number 165
_symmetry_cell_setting 'hexagonal'
loop_
_space_group_symop_operation_xyz
x,y,z
-y,x-y,z
-x+y,-x,z
x-y,-y,1/2-z
-x,-x+y,1/2-z
y,x,1/2-z
-x,-y,-z
y,-x+y,-z
x-y,x,-z
-x+y,y,1/2+z
x,x-y,1/2+z
-y,-x,1/2+z
loop_
_atom_site_type_symbol
_atom_site_label
_atom_site_fract_x
_atom_site_fract_y
_atom_site_fract_z
Si Si1 0.130433 0.400999 0.939618
Si Si2 0.079275 0.811179 0.917444
Si Si3 0.733969 0.935674 0.552767
Si Si4 0.458083 0.787958 0.058267
Si Si5 0.455361 0.661106 0.924581
Si Si6 0.854146 0.253585 0.924962
O O1 0.144354 0.473780 0.961479
O O2 0.136682 0.393301 0.757603
O O3 0.070959 0.334019 0.997806
O O4 0.189932 0.402602 0.030263
O O5 0.078210 0.807161 0.734069
O O6 0.007925 0.792194 0.972817
O O7 0.137629 0.880334 0.970271
O O8 0.093728 0.757314 0.987839
O O9 0.450990 0.784716 0.241719
O O10 0.531525 0.843592 0.023866
O O11 0.450511 0.720696 0.997801
O O12 0.404758 0.800863 0.984573
#
# Coordination Sequence:
#
# PCOD9578783 Si02
#       6
#    12  12  12  12  12  12
#     4   9  17  29  46  67  91 122 158 196 238 280
#     4  10  20  33  52  78 103 127 155 187 225 268
#     4  10  20  33  52  78 103 127 155 187 225 268
#     4  10  19  29  42  62  89 122 160 202 248 294
#     4  10  19  29  42  62  89 122 160 202 248 294
#     4   9  17  29  46  67  91 122 158 196 238 280
#
# _framework density 16.655646999999998
#
# number of rings (size 3 to 8) (size 9 to 14) (size 15 to 20)
#    0.000    2.333    0.000    5.333    0.000    6.667 
#    0.000    0.000    0.000    1.333    0.000    0.000 
#    0.000    0.000    0.000    0.000    0.000    0.000 
#
# Total GULP energy -401010.636961 kJ/mol
# GULP energy per Si atom -5569.592180 kJ/mol
# Density = 1.661774 g / cm^3
# Si number density = 16.655647 Si / 1000 Ang^3
#
#
#
# Elastic Constant Matrix: (Units=GPa)
#
#
# Indices 1 2 3 4 5 6 
#
# 1 65.0234 34.0328 11.7770 -6.6143 0.0000 0.0000
# 2 34.0328 65.0234 11.7770 6.6143 0.0000 0.0000
# 3 11.7770 11.7770 38.0270 0.0000 0.0000 0.0000
# 4 -6.6143 6.6143 0.0000 12.1877 0.0000 0.0000
# 5 0.0000 0.0000 0.0000 0.0000 12.1877 -6.6143
# 6 0.0000 0.0000 0.0000 0.0000 -6.6143 15.4953
#
#
#
# Elastic Compliance Matrix: (Units=1/GPa)
#
#
# Indices 1 2 3 4 5 6 
#
# 1 0.026447 -0.015549 -0.003375 0.022792 0.000000 0.000000
# 2 -0.015549 0.026447 -0.003375 -0.022792 0.000000 0.000000
# 3 -0.003375 -0.003375 0.028388 0.000000 0.000000 0.000000
# 4 0.022792 -0.022792 0.000000 0.106788 0.000000 0.000000
# 5 0.000000 0.000000 0.000000 0.000000 0.106788 0.045583
# 6 0.000000 0.000000 0.000000 0.000000 0.045583 0.083993
#
#
# Mechanical properties :
#
#
# Convention : Reuss Voigt Hill
#
# Bulk Modulus (GPa) = 27.26057 31.47192 29.36624
# Shear Modulus (GPa) = 11.47634 15.33993 13.40814
#
# Velocity S-wave (km/s) = 2.62780 3.03810 2.84037
# Velocity P-wave (km/s) = 5.06061 5.58958 5.33166
#
# Compressibility (1/GPa) = 0.03668302
#
# Stress axis : x y z
#
# Youngs Moduli (GPa) = 37.81109 37.81109 35.22657
#
# Poissons Ratio (x) = 0.58794 0.11889
# Poissons Ratio (y) = 0.58794 0.11889
# Poissons Ratio (z) = 0.12762 0.12762
#
# Static dielectric constant tensor:
#      x y z
#    x 1.566070 0.000000 0.000000 
#    y 0.000000 1.566070 0.000000 
#    z 0.000000 0.000000 1.556820 
# 
# From -- ./inp_files/775.got.cif
#   From: 2010.05.17/outbox.cif.g08.bks.cpg/sg165_1_cif.got.tgz:775.got - 2010.05.20 11:02:39.
