data_PCOD9578122
_publ_section_title
;
Structure prediction by ZEFSAII (Michael W. Deem and Ramdas Pophale) SiO2 
 PCOD9578122
Probable space group: P -3 1 C
;
_chemical_formula_sum "Si O2"
_cell_formula_units_Z 42
_cell_length_a 8.303389
_cell_length_b 8.303389
_cell_length_c 31.851206
_cell_angle_alpha 90.000000
_cell_angle_beta 90.000000
_cell_angle_gamma 120.000000
_cell_volume 1901.810677
_symmetry_space_group_name_H-M "P -3 1 C"
_symmetry_group_IT_number 163
_symmetry_cell_setting 'hexagonal'
loop_
_space_group_symop_operation_xyz
x,y,z
-y,x-y,z
-x+y,-x,z
-y,-x,1/2-z
-x+y,y,1/2-z
x,x-y,1/2-z
-x,-y,-z
y,-x+y,-z
x-y,x,-z
y,x,1/2+z
x-y,-y,1/2+z
-x,-x+y,1/2+z
loop_
_atom_site_type_symbol
_atom_site_label
_atom_site_fract_x
_atom_site_fract_y
_atom_site_fract_z
Si Si1 0.909277 0.473605 0.545209
Si Si2 0.678300 0.969731 0.336005
Si Si3 0.629940 0.650409 0.870151
Si Si4 0.209999 0.790001 0.250000
O O1 0.749798 0.531368 0.548793
O O2 0.000000 0.500000 0.500000
O O3 0.044588 0.584351 0.583758
O O4 0.716461 0.847584 0.369131
O O5 0.699114 0.893804 0.290974
O O6 0.803266 0.186041 0.347009
O O7 0.470046 0.930745 0.343199
O O8 0.134196 0.567098 0.250000
#
# Coordination Sequence:
#
# PCOD9578122 Si02
#       4
#    12  12  12   6
#     4  10  23  41  68 103 142 185 241 302 368 427
#     4  12  24  44  73 104 144 190 241 301 366 443
#     4  12  24  45  70 105 143 196 240 296 369 444
#     4  10  20  44  72  96 136 176 228 304 366 404
#
# _framework density 22.084216999999999
#
# number of rings (size 3 to 8) (size 9 to 14) (size 15 to 20)
#    0.857    0.000    5.714    1.714    4.000    1.143 
#    0.000    0.000    0.000    2.286    0.000    0.000 
#    0.000    0.000    0.000    0.000    0.000    0.000 
#
# Total GULP energy -233840.787918 kJ/mol
# GULP energy per Si atom -5567.637808 kJ/mol
# Density = 2.203395 g / cm^3
# Si number density = 22.084217 Si / 1000 Ang^3
#
#
#
# Elastic Constant Matrix: (Units=GPa)
#
#
# Indices 1 2 3 4 5 6 
#
# 1 77.2319 10.3532 39.0065 0.0000 -13.2645 0.0000
# 2 10.3532 77.2319 39.0065 0.0000 13.2645 0.0000
# 3 39.0065 39.0065 226.7446 0.0000 0.0000 0.0000
# 4 0.0000 0.0000 0.0000 31.1437 0.0000 13.2645
# 5 -13.2645 13.2645 0.0000 0.0000 31.1437 0.0000
# 6 0.0000 0.0000 0.0000 13.2645 0.0000 33.4393
#
#
#
# Elastic Compliance Matrix: (Units=1/GPa)
#
#
# Indices 1 2 3 4 5 6 
#
# 1 0.015738 -0.002254 -0.002320 0.000000 0.007663 0.000000
# 2 -0.002254 0.015738 -0.002320 0.000000 -0.007663 0.000000
# 3 -0.002320 -0.002320 0.005208 0.000000 0.000000 0.000000
# 4 0.000000 0.000000 0.000000 0.038637 0.000000 -0.015326
# 5 0.007663 -0.007663 0.000000 0.000000 0.038637 0.000000
# 6 0.000000 0.000000 0.000000 -0.015326 0.000000 0.035984
#
#
# Mechanical properties :
#
#
# Convention : Reuss Voigt Hill
#
# Bulk Modulus (GPa) = 43.67356 61.99340 52.83348
# Shear Modulus (GPa) = 29.17809 38.66818 33.92313
#
# Velocity S-wave (km/s) = 3.63880 4.18897 3.92354
# Velocity P-wave (km/s) = 6.12155 7.17836 6.67092
#
# Compressibility (1/GPa) = 0.02289715
#
# Stress axis : x y z
#
# Youngs Moduli (GPa) = 63.54100 63.54100 192.00111
#
# Poissons Ratio (x) = 0.14324 0.44536
# Poissons Ratio (y) = 0.14324 0.44536
# Poissons Ratio (z) = 0.14739 0.14739
#
# Static dielectric constant tensor:
#      x y z
#    x 1.873390 0.000000 0.000000 
#    y 0.000000 1.873390 0.000000 
#    z 0.000000 0.000000 1.892910 
# 
# From -- ./inp_files/4272.got.cif
#   From: 2010.05.17/outbox.cif.g08.bks.cpg/sg163_3_cif.got.tgz:4272.got - 2010.05.20 10:56:03.
