data_PCOD9578656
_publ_section_title
;
Structure prediction by ZEFSAII (Michael W. Deem and Ramdas Pophale) SiO2 
 PCOD9578656
Probable space group: P -3 M 1
;
_chemical_formula_sum "Si O2"
_cell_formula_units_Z 54
_cell_length_a 24.720533
_cell_length_b 24.720533
_cell_length_c 5.148412
_cell_angle_alpha 90.000000
_cell_angle_beta 90.000000
_cell_angle_gamma 120.000000
_cell_volume 2724.705612
_symmetry_space_group_name_H-M "P -3 M 1"
_symmetry_group_IT_number 164
_symmetry_cell_setting 'hexagonal'
loop_
_space_group_symop_operation_xyz
x,y,z
-y,x-y,z
-x+y,-x,z
x-y,-y,-z
-x,-x+y,-z
y,x,-z
-x,-y,-z
y,-x+y,-z
x-y,x,-z
-x+y,y,z
x,x-y,z
-y,-x,z
loop_
_atom_site_type_symbol
_atom_site_label
_atom_site_fract_x
_atom_site_fract_y
_atom_site_fract_z
Si Si1 0.292409 0.837437 0.468520
Si Si2 0.747620 0.873810 0.646987
Si Si3 0.000000 0.772127 0.500000
Si Si4 0.166293 0.332586 0.128369
Si Si5 0.332873 0.793674 0.963610
Si Si6 0.942259 0.294168 0.829770
O O1 0.217988 0.782013 0.460712
O O2 0.319852 0.830647 0.738693
O O3 0.310158 0.908871 0.405603
O O4 0.323462 0.817709 0.239747
O O5 0.782113 0.945931 0.601317
O O6 0.691682 0.845841 0.427183
O O7 0.726044 0.863022 0.940908
O O8 0.026394 0.744143 0.284800
O O9 0.124220 0.363838 0.047266
O O10 0.399968 0.799936 0.939635
O O11 0.278366 0.721635 0.937008
O O12 0.000000 0.347185 0.000000
#
# Coordination Sequence:
#
# PCOD9578656 Si02
#       6
#    12   6   6   6  12  12
#     4  10  22  36  57  88 120 150 186 241 295 336
#     4  10  20  34  50  79 108 144 192 236 288 336
#     4  10  22  34  56  81 115 154 196 238 294 334
#     4  10  20  34  52  76 114 145 184 236 276 334
#     4  10  21  39  63  89 115 148 187 236 293 347
#     4  11  21  35  56  82 119 155 192 234 288 342
#
# _framework density 19.818656000000001
#
# number of rings (size 3 to 8) (size 9 to 14) (size 15 to 20)
#    0.000    1.778    3.333    0.889    3.111    0.000 
#    0.000    2.222    0.000    4.222    0.000    0.000 
#    0.000    4.000    0.000    0.000    0.000    0.444 
#
# Total GULP energy -300805.559796 kJ/mol
# GULP energy per Si atom -5570.473330 kJ/mol
# Density = 1.977355 g / cm^3
# Si number density = 19.818656 Si / 1000 Ang^3
#
#
#
# Elastic Constant Matrix: (Units=GPa)
#
#
# Indices 1 2 3 4 5 6 
#
# 1 90.9312 29.1430 15.0968 4.5399 0.0000 0.0000
# 2 29.1430 90.9312 15.0968 -4.5399 0.0000 0.0000
# 3 15.0968 15.0968 62.8882 0.0000 0.0000 0.0000
# 4 4.5399 -4.5399 0.0000 14.8083 0.0000 0.0000
# 5 0.0000 0.0000 0.0000 0.0000 14.8083 4.5399
# 6 0.0000 0.0000 0.0000 0.0000 4.5399 30.8941
#
#
#
# Elastic Compliance Matrix: (Units=1/GPa)
#
#
# Indices 1 2 3 4 5 6 
#
# 1 0.012906 -0.004042 -0.002128 -0.005196 0.000000 0.000000
# 2 -0.004042 0.012906 -0.002128 0.005196 0.000000 0.000000
# 3 -0.002128 -0.002128 0.016923 0.000000 0.000000 0.000000
# 4 -0.005196 0.005196 0.000000 0.070716 0.000000 0.000000
# 5 0.000000 0.000000 0.000000 0.000000 0.070716 -0.010392
# 6 0.000000 0.000000 0.000000 0.000000 -0.010392 0.033896
#
#
# Mechanical properties :
#
#
# Convention : Reuss Voigt Hill
#
# Bulk Modulus (GPa) = 38.25780 40.38042 39.31911
# Shear Modulus (GPa) = 20.54496 24.46308 22.50402
#
# Velocity S-wave (km/s) = 3.22319 3.51714 3.37337
# Velocity P-wave (km/s) = 5.76175 6.07560 5.92075
#
# Compressibility (1/GPa) = 0.02613846
#
# Stress axis : x y z
#
# Youngs Moduli (GPa) = 77.48622 77.48622 59.09201
#
# Poissons Ratio (x) = 0.31322 0.12573
# Poissons Ratio (y) = 0.31322 0.12573
# Poissons Ratio (z) = 0.16487 0.16487
#
# Static dielectric constant tensor:
#      x y z
#    x 1.738910 0.000000 0.000000 
#    y 0.000000 1.738910 0.000000 
#    z 0.000000 0.000000 1.789240 
# 
# From -- ./inp_files/590.got.cif
#   From: 2010.05.17/outbox.cif.g08.bks.cpg/sg164_1_cif.got.tgz:590.got - 2010.05.20 10:58:56.
