data_PCOD9578648
_publ_section_title
;
Structure prediction by ZEFSAII (Michael W. Deem and Ramdas Pophale) SiO2 
 PCOD9578648
Probable space group: P -3 M 1
;
_chemical_formula_sum "Si O2"
_cell_formula_units_Z 84
_cell_length_a 18.597686
_cell_length_b 18.597686
_cell_length_c 14.156496
_cell_angle_alpha 90.000000
_cell_angle_beta 90.000000
_cell_angle_gamma 120.000000
_cell_volume 4240.374596
_symmetry_space_group_name_H-M "P -3 M 1"
_symmetry_group_IT_number 164
_symmetry_cell_setting 'hexagonal'
loop_
_space_group_symop_operation_xyz
x,y,z
-y,x-y,z
-x+y,-x,z
x-y,-y,-z
-x,-x+y,-z
y,x,-z
-x,-y,-z
y,-x+y,-z
x-y,x,-z
-x+y,y,z
x,x-y,z
-y,-x,z
loop_
_atom_site_type_symbol
_atom_site_label
_atom_site_fract_x
_atom_site_fract_y
_atom_site_fract_z
Si Si1 0.791382 0.042594 0.904458
Si Si2 0.880254 0.595997 0.771174
Si Si3 0.570542 0.597787 0.667718
Si Si4 0.332336 0.835923 0.830971
Si Si5 0.495361 0.828024 0.035771
Si Si6 0.001973 0.160647 0.728648
Si Si7 0.931715 0.695575 0.421659
O O1 0.867879 0.132122 0.931315
O O2 0.742079 0.060019 0.823601
O O3 0.825601 0.994478 0.841604
O O4 0.746054 0.000000 0.000000
O O5 0.798497 0.596994 0.732716
O O6 0.934860 0.577207 0.698892
O O7 0.851407 0.537787 0.863285
O O8 0.486244 0.513756 0.638523
O O9 0.546521 0.635184 0.758212
O O10 0.612950 0.675286 0.595969
O O11 0.406999 0.813998 0.837475
O O12 0.245742 0.754258 0.802767
O O13 0.319190 0.862057 0.936421
O O14 0.427070 0.854139 0.037351
O O15 0.458736 0.729368 0.025478
O O16 0.907099 0.092902 0.705341
O O17 0.063406 0.126811 0.702613
O O18 0.037225 0.246286 0.671458
O O19 0.839566 0.679131 0.443797
O O20 0.000000 0.748754 0.500000
#
# Coordination Sequence:
#
# PCOD9578648 Si02
#       7
#    12  12  12  12  12  12  12
#     4  10  20  33  50  76 114 160 204 246 289 335
#     4  10  21  34  50  75 111 155 202 250 299 344
#     4  11  23  39  61  88 116 148 189 239 292 352
#     4   9  18  32  52  80 116 155 195 238 289 346
#     4   9  17  29  46  70 103 148 198 247 294 341
#     4  10  20  36  58  86 120 157 199 243 289 343
#     4  11  24  42  67  94 121 153 189 234 291 351
#
# _framework density 19.809570999999998
#
# number of rings (size 3 to 8) (size 9 to 14) (size 15 to 20)
#    0.000    2.000    1.429    2.143    2.000    2.000 
#    0.000    2.143    0.000    5.143    0.000    1.000 
#    0.000    0.000    0.000    0.000    0.000    0.000 
#
# Total GULP energy -467926.495110 kJ/mol
# GULP energy per Si atom -5570.553513 kJ/mol
# Density = 1.976448 g / cm^3
# Si number density = 19.809571 Si / 1000 Ang^3
#
#
#
# Elastic Constant Matrix: (Units=GPa)
#
#
# Indices 1 2 3 4 5 6 
#
# 1 88.6693 42.4980 21.3140 5.0296 0.0000 0.0000
# 2 42.4980 88.6693 21.3140 -5.0296 0.0000 0.0000
# 3 21.3140 21.3140 37.2150 0.0000 0.0000 0.0000
# 4 5.0296 -5.0296 0.0000 21.1407 0.0000 0.0000
# 5 0.0000 0.0000 0.0000 0.0000 21.1407 5.0296
# 6 0.0000 0.0000 0.0000 0.0000 5.0296 23.0857
#
#
#
# Elastic Compliance Matrix: (Units=1/GPa)
#
#
# Indices 1 2 3 4 5 6 
#
# 1 0.016105 -0.006738 -0.005365 -0.005434 0.000000 0.000000
# 2 -0.006738 0.016105 -0.005365 0.005434 0.000000 0.000000
# 3 -0.005365 -0.005365 0.033016 0.000000 0.000000 0.000000
# 4 -0.005434 0.005434 0.000000 0.049888 0.000000 0.000000
# 5 0.000000 0.000000 0.000000 0.000000 0.049888 -0.010869
# 6 0.000000 0.000000 0.000000 0.000000 -0.010869 0.045685
#
#
# Mechanical properties :
#
#
# Convention : Reuss Voigt Hill
#
# Bulk Modulus (GPa) = 33.01288 42.75615 37.88452
# Shear Modulus (GPa) = 19.55272 21.70191 20.62732
#
# Velocity S-wave (km/s) = 3.14512 3.31346 3.23039
# Velocity P-wave (km/s) = 5.46720 6.02239 5.75150
#
# Compressibility (1/GPa) = 0.03029121
#
# Stress axis : x y z
#
# Youngs Moduli (GPa) = 62.09285 62.09285 30.28816
#
# Poissons Ratio (x) = 0.41835 0.16249
# Poissons Ratio (y) = 0.41835 0.16249
# Poissons Ratio (z) = 0.33312 0.33312
#
# Static dielectric constant tensor:
#      x y z
#    x 1.775740 0.000000 0.000000 
#    y 0.000000 1.775740 0.000000 
#    z 0.000000 0.000000 1.734730 
# 
# From -- ./inp_files/3586.got.cif
#   From: 2010.05.17/outbox.cif.g08.bks.cpg/sg164_2_cif.got.tgz:3586.got - 2010.05.20 10:58:56.
