data_PCOD9578329
_publ_section_title
;
Structure prediction by ZEFSAII (Michael W. Deem and Ramdas Pophale) SiO2 
 PCOD9578329
Probable space group: P -3 M 1
;
_chemical_formula_sum "Si O2"
_cell_formula_units_Z 84
_cell_length_a 23.604610
_cell_length_b 23.604610
_cell_length_c 12.739251
_cell_angle_alpha 90.000000
_cell_angle_beta 90.000000
_cell_angle_gamma 120.000000
_cell_volume 6147.070371
_symmetry_space_group_name_H-M "P -3 M 1"
_symmetry_group_IT_number 164
_symmetry_cell_setting 'hexagonal'
loop_
_space_group_symop_operation_xyz
x,y,z
-y,x-y,z
-x+y,-x,z
x-y,-y,-z
-x,-x+y,-z
y,x,-z
-x,-y,-z
y,-x+y,-z
x-y,x,-z
-x+y,y,z
x,x-y,z
-y,-x,z
loop_
_atom_site_type_symbol
_atom_site_label
_atom_site_fract_x
_atom_site_fract_y
_atom_site_fract_z
Si Si1 0.743657 0.619415 0.198077
Si Si2 0.722487 0.925824 0.375972
Si Si3 0.921725 0.524808 0.125012
Si Si4 0.475193 0.078276 0.874989
Si Si5 0.791816 0.075626 0.000000
Si Si6 0.203336 0.277512 0.624028
Si Si7 0.875759 0.619416 0.801924
O O1 0.800130 0.600260 0.194936
O O2 0.671838 0.558658 0.183154
O O3 0.753003 0.659712 0.304368
O O4 0.759617 0.670147 0.101777
O O5 0.743225 0.871613 0.352314
O O6 0.707420 0.921546 0.500000
O O7 0.659712 0.906711 0.304368
O O8 0.777284 1.000000 0.352694
O O9 0.903067 0.451534 0.156717
O O10 0.000001 0.569641 0.139504
O O11 0.909489 0.524047 0.000001
O O12 0.548468 0.096935 0.843284
O O13 0.441343 0.113181 0.816848
O O14 0.868631 0.131370 1.000000
O O15 0.759617 0.089469 0.898223
O O16 0.772700 0.000000 0.000000
O O17 0.128386 0.256772 0.647685
O O18 0.800132 0.600263 0.805063
#
# Coordination Sequence:
#
# PCOD9578329 Si02
#       7
#    12  12  12  12  12  12  12
#     4  10  18  27  42  62  83 107 134 168 207 246
#     4   9  17  28  42  60  82 110 142 175 212 252
#     4   9  16  25  39  59  82 107 131 157 192 236
#     4   9  16  25  39  59  82 107 131 157 192 236
#     4  10  18  26  39  60  83 105 131 167 209 247
#     4   9  17  28  42  60  82 110 142 175 212 252
#     4  10  18  27  42  62  83 107 134 168 207 246
#
# _framework density 13.665046
#
# number of rings (size 3 to 8) (size 9 to 14) (size 15 to 20)
#    0.000    2.571    1.429    3.429    0.000    0.000 
#    0.000    0.000    0.000    1.857    0.000    6.000 
#    0.000    6.857    0.000    0.286    0.000    0.571 
#
# Total GULP energy -467855.394969 kJ/mol
# GULP energy per Si atom -5569.707083 kJ/mol
# Density = 1.363394 g / cm^3
# Si number density = 13.665046 Si / 1000 Ang^3
#
#
#
# Elastic Constant Matrix: (Units=GPa)
#
#
# Indices 1 2 3 4 5 6 
#
# 1 108.0840 66.1154 35.1987 0.0003 0.0000 0.0000
# 2 66.1154 108.0840 35.1987 -0.0003 0.0000 0.0000
# 3 35.1987 35.1987 35.8028 0.0000 0.0000 0.0000
# 4 0.0003 -0.0003 0.0000 17.3354 0.0000 0.0000
# 5 0.0000 0.0000 0.0000 0.0000 17.3354 0.0003
# 6 0.0000 0.0000 0.0000 0.0000 0.0003 20.9843
#
#
#
# Elastic Compliance Matrix: (Units=1/GPa)
#
#
# Indices 1 2 3 4 5 6 
#
# 1 0.016676 -0.007151 -0.009364 0.000000 0.000000 0.000000
# 2 -0.007151 0.016676 -0.009364 0.000000 0.000000 0.000000
# 3 -0.009364 -0.009364 0.046343 0.000000 0.000000 0.000000
# 4 0.000000 0.000000 0.000000 0.057685 0.000000 0.000000
# 5 0.000000 0.000000 0.000000 0.000000 0.057685 -0.000001
# 6 0.000000 0.000000 0.000000 0.000000 -0.000001 0.047655
#
#
# Mechanical properties :
#
#
# Convention : Reuss Voigt Hill
#
# Bulk Modulus (GPa) = 35.79583 58.33294 47.06439
# Shear Modulus (GPa) = 16.45866 18.82821 17.64344
#
# Velocity S-wave (km/s) = 3.47426 3.71595 3.59714
# Velocity P-wave (km/s) = 6.50738 7.82249 7.19505
#
# Compressibility (1/GPa) = 0.02793621
#
# Stress axis : x y z
#
# Youngs Moduli (GPa) = 59.96620 59.96620 21.57826
#
# Poissons Ratio (x) = 0.42884 0.20206
# Poissons Ratio (y) = 0.42884 0.20206
# Poissons Ratio (z) = 0.56153 0.56153
#
# Static dielectric constant tensor:
#      x y z
#    x 1.442070 0.000000 0.000000 
#    y 0.000000 1.442070 0.000000 
#    z 0.000000 0.000000 1.454410 
# 
# From -- ./inp_files/3065.got.cif
#   From: 2010.05.17/outbox.cif.g08.bks.cpg/sg164_2_cif.got.tgz:3065.got - 2010.05.20 10:58:56.
