data_PCOD9578701
_publ_section_title
;
Structure prediction by ZEFSAII (Michael W. Deem and Ramdas Pophale) SiO2 
 PCOD9578701
Probable space group: P -3 M 1
;
_chemical_formula_sum "Si O2"
_cell_formula_units_Z 84
_cell_length_a 27.172196
_cell_length_b 27.172196
_cell_length_c 6.808484
_cell_angle_alpha 90.000000
_cell_angle_beta 90.000000
_cell_angle_gamma 120.000000
_cell_volume 4353.419619
_symmetry_space_group_name_H-M "P -3 M 1"
_symmetry_group_IT_number 164
_symmetry_cell_setting 'hexagonal'
loop_
_space_group_symop_operation_xyz
x,y,z
-y,x-y,z
-x+y,-x,z
x-y,-y,-z
-x,-x+y,-z
y,x,-z
-x,-y,-z
y,-x+y,-z
x-y,x,-z
-x+y,y,z
x,x-y,z
-y,-x,z
loop_
_atom_site_type_symbol
_atom_site_label
_atom_site_fract_x
_atom_site_fract_y
_atom_site_fract_z
Si Si1 0.441789 0.163872 0.658190
Si Si2 0.463221 0.036652 0.669194
Si Si3 0.324090 0.266008 0.126790
Si Si4 0.450092 0.349485 0.011579
Si Si5 0.902950 0.686815 0.538077
Si Si6 0.765090 0.937810 0.097929
Si Si7 0.480491 0.854205 0.605053
O O1 0.438778 0.219389 0.692751
O O2 0.465170 0.149841 0.853586
O O3 0.375911 0.114432 0.624663
O O4 0.483598 0.174151 0.474080
O O5 0.506474 0.012947 0.705550
O O6 0.442834 0.049502 0.871173
O O7 0.498095 0.095741 0.555304
O O8 0.418484 0.000000 0.500000
O O9 0.307360 0.248558 0.350917
O O10 0.298602 0.298602 0.000000
O O11 0.391126 0.304609 0.110437
O O12 0.294178 0.204926 0.022008
O O13 0.496168 0.377729 0.181942
O O14 0.842036 0.684071 0.492512
O O15 0.935809 0.740323 0.684496
O O16 0.789017 0.894509 0.089217
O O17 0.805647 0.000000 0.000000
O O18 0.412104 0.824208 0.605102
#
# Coordination Sequence:
#
# PCOD9578701 Si02
#       7
#    12  12  12  12  12  12  12
#     4  10  21  37  59  83 110 146 194 245 303 368
#     4   9  20  35  50  71 105 151 198 239 284 337
#     4  11  23  33  52  84 121 162 200 242 289 347
#     4  11  21  33  52  81 110 149 195 244 292 353
#     4  10  20  38  59  83 120 159 201 249 300 356
#     4  10  22  41  63  91 125 165 207 248 300 360
#     4  10  21  37  56  79 109 145 189 243 295 348
#
# _framework density 19.295176000000001
#
# number of rings (size 3 to 8) (size 9 to 14) (size 15 to 20)
#    0.000    1.857    2.857    0.857    2.000    4.000 
#    0.000    2.143    0.000    1.286    0.000    1.000 
#    0.000    0.000    0.000   14.571    0.000    1.143 
#
# Total GULP energy -467751.515666 kJ/mol
# GULP energy per Si atom -5568.470425 kJ/mol
# Density = 1.925126 g / cm^3
# Si number density = 19.295176 Si / 1000 Ang^3
#
#
#
# Elastic Constant Matrix: (Units=GPa)
#
#
# Indices 1 2 3 4 5 6 
#
# 1 110.3427 -16.6537 37.3128 -68.9062 0.0000 0.0000
# 2 -16.6537 110.3427 37.3128 68.9062 0.0000 0.0000
# 3 37.3128 37.3128 126.1335 0.0000 0.0000 0.0000
# 4 -68.9062 68.9062 0.0000 149.8254 0.0000 0.0000
# 5 0.0000 0.0000 0.0000 0.0000 149.8254 -68.9062
# 6 0.0000 0.0000 0.0000 0.0000 -68.9062 63.4982
#
#
#
# Elastic Compliance Matrix: (Units=1/GPa)
#
#
# Indices 1 2 3 4 5 6 
#
# 1 0.014842 -0.000878 -0.004131 0.007230 0.000000 0.000000
# 2 -0.000878 0.014842 -0.004131 -0.007230 0.000000 0.000000
# 3 -0.004131 -0.004131 0.010372 0.000000 0.000000 0.000000
# 4 0.007230 -0.007230 0.000000 0.013324 0.000000 0.000000
# 5 0.000000 0.000000 0.000000 0.000000 0.013324 0.014459
# 6 0.000000 0.000000 0.000000 0.000000 0.014459 0.031439
#
#
# Mechanical properties :
#
#
# Convention : Reuss Voigt Hill
#
# Bulk Modulus (GPa) = 45.92074 51.41808 48.66941
# Shear Modulus (GPa) = 40.42656 91.88628 66.15642
#
# Velocity S-wave (km/s) = 4.58226 6.90831 5.86182
# Velocity P-wave (km/s) = 7.20048 9.50468 8.43166
#
# Compressibility (1/GPa) = 0.02177665
#
# Stress axis : x y z
#
# Youngs Moduli (GPa) = 67.37761 67.37761 96.41294
#
# Poissons Ratio (x) = 0.05915 0.39826
# Poissons Ratio (y) = 0.05915 0.39826
# Poissons Ratio (z) = 0.27832 0.27832
#
# Static dielectric constant tensor:
#      x y z
#    x 1.733730 0.000000 0.000000 
#    y 0.000000 1.733730 0.000000 
#    z 0.000000 0.000000 1.751550 
# 
# From -- ./inp_files/846.got.cif
#   From: 2010.05.17/outbox.cif.g08.bks.cpg/sg164_1_cif.got.tgz:846.got - 2010.05.20 10:58:56.
