data_PCOD9578874
_publ_section_title
;
Structure prediction by ZEFSAII (Michael W. Deem and Ramdas Pophale) SiO2 
 PCOD9578874
Probable space group: P -3 C 1
;
_chemical_formula_sum "Si O2"
_cell_formula_units_Z 76
_cell_length_a 14.989781
_cell_length_b 14.989781
_cell_length_c 15.232650
_cell_angle_alpha 90.000000
_cell_angle_beta 90.000000
_cell_angle_gamma 120.000000
_cell_volume 2964.126069
_symmetry_space_group_name_H-M "P -3 C 1"
_symmetry_group_IT_number 165
_symmetry_cell_setting 'hexagonal'
loop_
_space_group_symop_operation_xyz
x,y,z
-y,x-y,z
-x+y,-x,z
x-y,-y,1/2-z
-x,-x+y,1/2-z
y,x,1/2-z
-x,-y,-z
y,-x+y,-z
x-y,x,-z
-x+y,y,1/2+z
x,x-y,1/2+z
-y,-x,1/2+z
loop_
_atom_site_type_symbol
_atom_site_label
_atom_site_fract_x
_atom_site_fract_y
_atom_site_fract_z
Si Si1 0.408189 0.535662 0.923262
Si Si2 0.334146 0.379491 0.341145
Si Si3 0.186737 0.165636 0.550750
Si Si4 0.715548 0.175737 0.406184
Si Si5 0.549881 0.796675 0.771720
Si Si6 0.000000 0.000000 0.849888
Si Si7 0.675582 0.617646 0.384819
O O1 0.516429 0.629248 0.894662
O O2 0.322397 0.515783 0.849535
O O3 0.431610 0.441149 0.913960
O O4 0.361454 0.532008 0.019016
O O5 0.397124 0.397124 0.250000
O O6 0.362804 0.303893 0.393565
O O7 0.223970 0.359236 0.306255
O O8 0.131311 0.205761 0.481907
O O9 0.419768 0.166846 0.433395
O O10 0.106322 0.014259 0.383661
O O11 0.711524 0.216202 0.307534
O O12 0.736875 0.016584 0.594225
O O13 0.594100 0.899982 0.714163
O O14 0.000000 0.000000 0.750000
#
# Coordination Sequence:
#
# PCOD9578874 Si02
#       7
#    12  12  12  12  12   4  12
#     4  12  22  41  75  95 134 190 225 280 351 425
#     4  10  21  44  66  92 139 175 225 292 359 410
#     4   9  18  36  54  75 121 169 212 267 323 378
#     4   9  23  40  61 100 130 175 223 281 337 408
#     4   9  23  41  60 102 134 165 230 281 342 406
#     4   9  19  32  43  75 112 167 211 255 325 374
#     4  10  21  38  59  98 127 164 236 270 331 405
#
# _framework density 25.639934
#
# number of rings (size 3 to 8) (size 9 to 14) (size 15 to 20)
#    0.947    1.263    0.000    3.474    2.211    1.263 
#    9.474    0.000    0.000    0.632    0.000    0.000 
#    0.000    0.000    0.000    0.000    0.000    0.000 
#
# Total GULP energy -424369.727111 kJ/mol
# GULP energy per Si atom -5583.812199 kJ/mol
# Density = 2.558158 g / cm^3
# Si number density = 25.639934 Si / 1000 Ang^3
#
#
#
# Elastic Constant Matrix: (Units=GPa)
#
#
# Indices 1 2 3 4 5 6 
#
# 1 73.0910 18.7893 26.4710 -9.6208 0.0000 0.0000
# 2 18.7893 73.0910 26.4710 9.6208 0.0000 0.0000
# 3 26.4710 26.4710 136.8267 0.0000 0.0000 0.0000
# 4 -9.6208 9.6208 0.0000 15.5387 0.0000 0.0000
# 5 0.0000 0.0000 0.0000 0.0000 15.5387 -9.6208
# 6 0.0000 0.0000 0.0000 0.0000 -9.6208 27.1508
#
#
#
# Elastic Compliance Matrix: (Units=1/GPa)
#
#
# Indices 1 2 3 4 5 6 
#
# 1 0.017920 -0.005671 -0.002370 0.014607 0.000000 0.000000
# 2 -0.005671 0.017920 -0.002370 -0.014607 0.000000 0.000000
# 3 -0.002370 -0.002370 0.008225 0.000000 0.000000 0.000000
# 4 0.014607 -0.014607 0.000000 0.082443 0.000000 0.000000
# 5 0.000000 0.000000 0.000000 0.000000 0.082443 0.029213
# 6 0.000000 0.000000 0.000000 0.000000 0.029213 0.047183
#
#
# Mechanical properties :
#
#
# Convention : Reuss Voigt Hill
#
# Bulk Modulus (GPa) = 43.02046 47.38568 45.20307
# Shear Modulus (GPa) = 17.56208 25.73081 21.64644
#
# Velocity S-wave (km/s) = 2.61999 3.17131 2.90875
# Velocity P-wave (km/s) = 5.09584 5.65075 5.38045
#
# Compressibility (1/GPa) = 0.02324475
#
# Stress axis : x y z
#
# Youngs Moduli (GPa) = 55.80254 55.80254 121.57397
#
# Poissons Ratio (x) = 0.31646 0.28810
# Poissons Ratio (y) = 0.31646 0.28810
# Poissons Ratio (z) = 0.13224 0.13224
#
# Static dielectric constant tensor:
#      x y z
#    x 2.024980 0.000000 0.000000 
#    y 0.000000 2.024980 0.000000 
#    z 0.000000 0.000000 2.085730 
# 
# From -- ./inp_files/1823.got.cif
#   From: 2010.05.17/outbox.cif.g08.bks.cpg/sg165_1_cif.got.tgz:1823.got - 2010.05.20 11:02:39.
