data_PCOD9578913
_publ_section_title
;
Structure prediction by ZEFSAII (Michael W. Deem and Ramdas Pophale) SiO2 
 PCOD9578913
Probable space group: P -3 C 1
;
_chemical_formula_sum "Si O2"
_cell_formula_units_Z 48
_cell_length_a 10.220674
_cell_length_b 10.220674
_cell_length_c 26.372365
_cell_angle_alpha 90.000000
_cell_angle_beta 90.000000
_cell_angle_gamma 120.000000
_cell_volume 2385.826082
_symmetry_space_group_name_H-M "P -3 C 1"
_symmetry_group_IT_number 165
_symmetry_cell_setting 'hexagonal'
loop_
_space_group_symop_operation_xyz
x,y,z
-y,x-y,z
-x+y,-x,z
x-y,-y,1/2-z
-x,-x+y,1/2-z
y,x,1/2-z
-x,-y,-z
y,-x+y,-z
x-y,x,-z
-x+y,y,1/2+z
x,x-y,1/2+z
-y,-x,1/2+z
loop_
_atom_site_type_symbol
_atom_site_label
_atom_site_fract_x
_atom_site_fract_y
_atom_site_fract_z
Si Si1 0.977670 0.499033 0.395741
Si Si2 0.666668 0.333334 0.951359
Si Si3 0.333334 0.666668 0.428505
Si Si4 0.000000 0.000000 0.061085
Si Si5 0.220096 0.230018 0.862066
Si Si6 0.710494 0.995578 0.309257
O O1 0.836574 0.459501 0.432895
O O2 0.952090 0.336513 0.382158
O O3 0.155692 0.599517 0.412376
O O4 0.957808 0.572822 0.344811
O O5 0.666668 0.333334 0.011294
O O6 0.158825 0.044424 0.088227
O O7 0.000000 0.000000 0.000000
O O8 0.168177 0.325363 0.828163
O O9 0.215886 0.100631 0.826417
O O10 0.687625 0.000000 0.250000
#
# Coordination Sequence:
#
# PCOD9578913 Si02
#       6
#    12   4   4   4  12  12
#     4  12  24  46  66 101 138 170 234 282 333 418
#     4  12  27  48  73  98 139 186 222 279 349 404
#     4  12  27  48  73  98 139 186 222 279 349 404
#     4   9  21  39  67  95 124 174 219 273 337 404
#     4  10  22  42  63  94 137 168 229 286 326 414
#     4  11  23  41  67  94 132 185 227 280 345 401
#
# _framework density 20.118815999999999
#
# number of rings (size 3 to 8) (size 9 to 14) (size 15 to 20)
#    0.000    1.000    5.000    2.000    0.000    4.000 
#    0.000    0.000    0.000    0.000    0.000    0.000 
#    0.000    0.000    0.000    0.000    0.000    0.000 
#
# Total GULP energy -267601.895368 kJ/mol
# GULP energy per Si atom -5575.039487 kJ/mol
# Density = 2.007302 g / cm^3
# Si number density = 20.118816 Si / 1000 Ang^3
#
#
#
# Elastic Constant Matrix: (Units=GPa)
#
#
# Indices 1 2 3 4 5 6 
#
# 1 59.3991 31.7729 45.7248 -1.2594 0.0000 0.0000
# 2 31.7729 59.3997 45.7253 1.2594 0.0000 0.0000
# 3 45.7248 45.7253 195.4173 -0.0003 0.0000 0.0000
# 4 -1.2594 1.2594 -0.0003 18.6094 0.0000 0.0000
# 5 0.0000 0.0000 0.0000 0.0000 18.6093 -1.2601
# 6 0.0000 0.0000 0.0000 0.0000 -1.2601 13.8150
#
#
#
# Elastic Compliance Matrix: (Units=1/GPa)
#
#
# Indices 1 2 3 4 5 6 
#
# 1 0.025377 -0.011045 -0.003353 0.002465 0.000000 0.000000
# 2 -0.011045 0.025377 -0.003354 -0.002465 0.000000 0.000000
# 3 -0.003353 -0.003354 0.006687 0.000000 0.000000 0.000000
# 4 0.002465 -0.002465 0.000000 0.054070 0.000000 0.000000
# 5 0.000000 0.000000 0.000000 0.000000 0.054071 0.004932
# 6 0.000000 0.000000 0.000000 0.000000 0.004932 0.072835
#
#
# Mechanical properties :
#
#
# Convention : Reuss Voigt Hill
#
# Bulk Modulus (GPa) = 45.58603 62.29580 53.94092
# Shear Modulus (GPa) = 17.77894 22.93961 20.35927
#
# Velocity S-wave (km/s) = 2.97593 3.38036 3.18457
# Velocity P-wave (km/s) = 5.87501 6.80198 6.35542
#
# Compressibility (1/GPa) = 0.02193655
#
# Stress axis : x y z
#
# Youngs Moduli (GPa) = 39.40579 39.40610 149.55288
#
# Poissons Ratio (x) = 0.43524 0.50152
# Poissons Ratio (y) = 0.43523 0.50153
# Poissons Ratio (z) = 0.13215 0.13215
#
# Static dielectric constant tensor:
#      x y z
#    x 1.786750 0.000000 0.000000 
#    y 0.000000 1.786750 0.000000 
#    z 0.000000 0.000000 1.652680 
# 
# From -- ./inp_files/2568.got.cif
#   From: 2010.05.17/outbox.cif.g08.bks.cpg/sg165_2_cif.got.tgz:2568.got - 2010.05.20 11:02:39.
