data_PCOD9578092
_publ_section_title
;
Structure prediction by ZEFSAII (Michael W. Deem and Ramdas Pophale) SiO2 
 PCOD9578092
Probable space group: P -3 1 C
;
_chemical_formula_sum "Si O2"
_cell_formula_units_Z 72
_cell_length_a 14.433792
_cell_length_b 14.433792
_cell_length_c 18.893938
_cell_angle_alpha 90.000000
_cell_angle_beta 90.000000
_cell_angle_gamma 120.000000
_cell_volume 3408.897969
_symmetry_space_group_name_H-M "P -3 1 C"
_symmetry_group_IT_number 163
_symmetry_cell_setting 'hexagonal'
loop_
_space_group_symop_operation_xyz
x,y,z
-y,x-y,z
-x+y,-x,z
-y,-x,1/2-z
-x+y,y,1/2-z
x,x-y,1/2-z
-x,-y,-z
y,-x+y,-z
x-y,x,-z
y,x,1/2+z
x-y,-y,1/2+z
-x,-x+y,1/2+z
loop_
_atom_site_type_symbol
_atom_site_label
_atom_site_fract_x
_atom_site_fract_y
_atom_site_fract_z
Si Si1 0.041765 0.672233 0.700893
Si Si2 0.122973 0.369967 0.648123
Si Si3 0.508219 0.124673 0.557455
Si Si4 0.437441 0.551554 0.904745
Si Si5 0.809113 0.760183 0.010459
Si Si6 0.577250 0.728584 0.395273
O O1 0.128233 0.789345 0.672306
O O2 0.055380 0.683939 0.784763
O O3 0.084063 0.600469 0.661809
O O4 0.920564 0.626191 0.674575
O O5 0.178327 0.492167 0.618324
O O6 0.055753 0.285650 0.588284
O O7 0.524356 0.152096 0.473543
O O8 0.445506 0.174530 0.596668
O O9 0.625338 0.162933 0.588664
O O10 0.449628 0.997940 0.568310
O O11 0.792313 0.859621 0.996124
O O12 0.743520 0.663415 0.955437
#
# Coordination Sequence:
#
# PCOD9578092 Si02
#       6
#    12  12  12  12  12  12
#     4  10  23  39  65  95 135 182 228 283 355 429
#     4  11  21  42  65  93 135 176 228 289 356 415
#     4  10  21  34  62  95 133 168 224 282 341 410
#     4  10  20  37  58  95 127 173 222 280 342 406
#     4  12  24  42  68  99 134 183 242 305 357 420
#     4  11  21  40  64 102 139 181 231 290 351 420
#
# _framework density 21.121196000000001
#
# number of rings (size 3 to 8) (size 9 to 14) (size 15 to 20)
#    0.000    1.333    3.333    3.000    2.333    0.000 
#    1.000    3.333    0.000    0.000    0.000    7.000 
#    0.000    0.000    0.000    0.000    0.000    0.000 
#
# Total GULP energy -402188.396346 kJ/mol
# GULP energy per Si atom -5585.949949 kJ/mol
# Density = 2.107312 g / cm^3
# Si number density = 21.121196 Si / 1000 Ang^3
#
#
#
# Elastic Constant Matrix: (Units=GPa)
#
#
# Indices 1 2 3 4 5 6 
#
# 1 99.0094 27.4005 50.2277 0.0000 -3.2898 0.0000
# 2 27.4005 99.0094 50.2277 0.0000 3.2898 0.0000
# 3 50.2277 50.2277 137.2344 0.0000 0.0000 0.0000
# 4 0.0000 0.0000 0.0000 32.3067 0.0000 3.2898
# 5 -3.2898 3.2898 0.0000 0.0000 32.3067 0.0000
# 6 0.0000 0.0000 0.0000 3.2898 0.0000 35.8045
#
#
#
# Elastic Compliance Matrix: (Units=1/GPa)
#
#
# Indices 1 2 3 4 5 6 
#
# 1 0.012626 -0.001471 -0.004083 0.000000 0.001435 0.000000
# 2 -0.001471 0.012626 -0.004083 0.000000 -0.001435 0.000000
# 3 -0.004083 -0.004083 0.010275 0.000000 0.000000 0.000000
# 4 0.000000 0.000000 0.000000 0.031246 0.000000 -0.002871
# 5 0.001435 -0.001435 0.000000 0.000000 0.031246 0.000000
# 6 0.000000 0.000000 0.000000 -0.002871 0.000000 0.028193
#
#
# Mechanical properties :
#
#
# Convention : Reuss Voigt Hill
#
# Bulk Modulus (GPa) = 61.52062 65.66281 63.59172
# Shear Modulus (GPa) = 33.13391 33.91008 33.52199
#
# Velocity S-wave (km/s) = 3.96504 4.01122 3.98820
# Velocity P-wave (km/s) = 7.08186 7.25322 7.16805
#
# Compressibility (1/GPa) = 0.01625471
#
# Stress axis : x y z
#
# Youngs Moduli (GPa) = 79.20180 79.20180 97.31943
#
# Poissons Ratio (x) = 0.11648 0.39734
# Poissons Ratio (y) = 0.11648 0.39734
# Poissons Ratio (z) = 0.32337 0.32337
#
# Static dielectric constant tensor:
#      x y z
#    x 1.789890 0.000000 0.000000 
#    y 0.000000 1.789890 0.000000 
#    z 0.000000 0.000000 1.784160 
# 
# From -- ./inp_files/3155.got.cif
#   From: 2010.05.17/outbox.cif.g08.bks.cpg/sg163_2_cif.got.tgz:3155.got - 2010.05.20 10:56:03.
