data_PCOD9578085
_publ_section_title
;
Structure prediction by ZEFSAII (Michael W. Deem and Ramdas Pophale) SiO2 
 PCOD9578085
Probable space group: P -3 1 C
;
_chemical_formula_sum "Si O2"
_cell_formula_units_Z 48
_cell_length_a 24.486026
_cell_length_b 24.486026
_cell_length_c 5.645167
_cell_angle_alpha 90.000000
_cell_angle_beta 90.000000
_cell_angle_gamma 120.000000
_cell_volume 2931.190459
_symmetry_space_group_name_H-M "P -3 1 C"
_symmetry_group_IT_number 163
_symmetry_cell_setting 'hexagonal'
loop_
_space_group_symop_operation_xyz
x,y,z
-y,x-y,z
-x+y,-x,z
-y,-x,1/2-z
-x+y,y,1/2-z
x,x-y,1/2-z
-x,-y,-z
y,-x+y,-z
x-y,x,-z
y,x,1/2+z
x-y,-y,1/2+z
-x,-x+y,1/2+z
loop_
_atom_site_type_symbol
_atom_site_label
_atom_site_fract_x
_atom_site_fract_y
_atom_site_fract_z
Si Si1 0.632135 0.457836 0.440550
Si Si2 0.531274 0.468726 0.750000
Si Si3 0.364986 0.968502 0.408545
Si Si4 0.264271 0.528542 0.250000
Si Si5 0.269351 0.836084 0.623354
O O1 0.596041 0.403960 0.250000
O O2 0.581695 0.471064 0.563678
O O3 0.669849 0.437411 0.616643
O O4 0.681459 0.524137 0.324304
O O5 0.463843 0.431713 0.614161
O O6 0.303756 0.901523 0.478612
O O7 0.370483 0.010217 0.640918
O O8 0.213999 0.483706 0.442706
O O9 0.199936 0.800065 0.750000
#
# Coordination Sequence:
#
# PCOD9578085 Si02
#       5
#    12   6  12   6  12
#     4  11  19  34  57  74  95 127 176 214 268 329
#     4  12  22  36  52  79 112 134 160 210 292 344
#     4  12  25  38  56  88 113 134 171 218 272 334
#     4  10  20  36  56  69  88 132 178 214 254 334
#     4  10  22  37  58  74  98 139 170 205 261 328
#
# _framework density 16.375598
#
# number of rings (size 3 to 8) (size 9 to 14) (size 15 to 20)
#    0.000    1.000    5.000    2.250    3.500    0.000 
#    0.000    0.000    0.000   81.500    0.000    0.000 
#    0.000    0.000    0.000    0.000    0.000    0.000 
#
# Total GULP energy -267540.083152 kJ/mol
# GULP energy per Si atom -5573.751732 kJ/mol
# Density = 1.633833 g / cm^3
# Si number density = 16.375598 Si / 1000 Ang^3
#
#
#
# Elastic Constant Matrix: (Units=GPa)
#
#
# Indices 1 2 3 4 5 6 
#
# 1 62.5661 11.0214 29.8847 0.0021 18.1713 0.0000
# 2 11.0214 62.5661 29.8847 -0.0021 -18.1713 0.0000
# 3 29.8847 29.8847 102.4343 0.0000 0.0000 0.0000
# 4 0.0021 -0.0021 0.0000 55.1100 0.0000 -18.1713
# 5 18.1713 -18.1713 0.0000 0.0000 55.1100 0.0021
# 6 0.0000 0.0000 0.0000 -18.1713 0.0021 25.7723
#
#
#
# Elastic Compliance Matrix: (Units=1/GPa)
#
#
# Indices 1 2 3 4 5 6 
#
# 1 0.021543 -0.003734 -0.005196 -0.000001 -0.008335 0.000000
# 2 -0.003734 0.021543 -0.005196 0.000001 0.008335 0.000000
# 3 -0.005196 -0.005196 0.012794 0.000000 0.000000 0.000000
# 4 -0.000001 0.000001 0.000000 0.023642 0.000000 0.016669
# 5 -0.008335 0.008335 0.000000 0.000000 0.023642 -0.000002
# 6 0.000000 0.000000 0.000000 0.016669 -0.000002 0.050554
#
#
# Mechanical properties :
#
#
# Convention : Reuss Voigt Hill
#
# Bulk Modulus (GPa) = 36.19300 41.01646 38.60473
# Shear Modulus (GPa) = 26.15351 37.65017 31.90184
#
# Velocity S-wave (km/s) = 4.00071 4.80016 4.41855
# Velocity P-wave (km/s) = 6.59475 7.47153 7.04679
#
# Compressibility (1/GPa) = 0.02762965
#
# Stress axis : x y z
#
# Youngs Moduli (GPa) = 46.41829 46.41829 78.16133
#
# Poissons Ratio (x) = 0.17332 0.40611
# Poissons Ratio (y) = 0.17332 0.40611
# Poissons Ratio (z) = 0.24118 0.24118
#
# Static dielectric constant tensor:
#      x y z
#    x 1.616260 0.000000 0.000000 
#    y 0.000000 1.616260 0.000000 
#    z 0.000000 0.000000 1.623280 
# 
# From -- ./inp_files/287.got.cif
#   From: 2010.05.17/outbox.cif.g08.bks.cpg/sg163_1_cif.got.tgz:287.got - 2010.05.20 10:56:03.
