data_PCOD9578889
_publ_section_title
;
Structure prediction by ZEFSAII (Michael W. Deem and Ramdas Pophale) SiO2 
 PCOD9578889
Probable space group: P -3 C 1
;
_chemical_formula_sum "Si O2"
_cell_formula_units_Z 72
_cell_length_a 15.486244
_cell_length_b 15.486244
_cell_length_c 17.450930
_cell_angle_alpha 90.000000
_cell_angle_beta 90.000000
_cell_angle_gamma 120.000000
_cell_volume 3624.444079
_symmetry_space_group_name_H-M "P -3 C 1"
_symmetry_group_IT_number 165
_symmetry_cell_setting 'hexagonal'
loop_
_space_group_symop_operation_xyz
x,y,z
-y,x-y,z
-x+y,-x,z
x-y,-y,1/2-z
-x,-x+y,1/2-z
y,x,1/2-z
-x,-y,-z
y,-x+y,-z
x-y,x,-z
-x+y,y,1/2+z
x,x-y,1/2+z
-y,-x,1/2+z
loop_
_atom_site_type_symbol
_atom_site_label
_atom_site_fract_x
_atom_site_fract_y
_atom_site_fract_z
Si Si1 0.271423 0.968787 0.662414
Si Si2 0.627386 0.109135 0.086295
Si Si3 0.159734 0.212245 0.476798
Si Si4 0.954403 0.334608 0.438606
Si Si5 0.701970 0.160910 0.621907
Si Si6 0.894568 0.246786 0.283262
O O1 0.226229 0.020410 0.607773
O O2 0.187298 0.852919 0.673384
O O3 0.285010 0.000000 0.750000
O O4 0.383960 0.016185 0.626663
O O5 0.548502 0.136699 0.120458
O O6 0.732804 0.211173 0.094185
O O7 0.609048 0.080370 0.996389
O O8 0.045043 0.176659 0.478800
O O9 0.226864 0.314751 0.522222
O O10 0.924440 0.328702 0.350255
O O11 0.073371 0.380442 0.433586
O O12 0.733080 0.150801 0.707876
O O13 0.000000 0.259731 0.250000
#
# Coordination Sequence:
#
# PCOD9578889 Si02
#       6
#    12  12  12  12  12  12
#     4  11  22  38  64  95 124 172 222 270 326 401
#     4  11  24  40  68  95 132 171 220 274 327 398
#     4  11  22  36  58  87 129 167 217 270 331 387
#     4  10  21  41  63  91 119 173 210 269 319 398
#     4  11  23  43  63  94 131 170 214 273 337 384
#     4  10  22  41  64  91 130 166 216 270 332 391
#
# _framework density 19.865114999999999
#
# number of rings (size 3 to 8) (size 9 to 14) (size 15 to 20)
#    0.000    1.333    3.333    3.000    4.667    2.000 
#    0.000    0.000    0.000    0.333    0.000    0.000 
#    0.000    0.000    0.000    0.000    0.000    0.000 
#
# Total GULP energy -401036.071937 kJ/mol
# GULP energy per Si atom -5569.945444 kJ/mol
# Density = 1.981990 g / cm^3
# Si number density = 19.865115 Si / 1000 Ang^3
#
#
#
# Elastic Constant Matrix: (Units=GPa)
#
#
# Indices 1 2 3 4 5 6 
#
# 1 75.0750 28.3499 12.6461 4.5585 0.0000 0.0000
# 2 28.3499 75.0750 12.6461 -4.5585 0.0000 0.0000
# 3 12.6461 12.6461 100.8435 0.0000 0.0000 0.0000
# 4 4.5585 -4.5585 0.0000 20.7527 0.0000 0.0000
# 5 0.0000 0.0000 0.0000 0.0000 20.7527 4.5585
# 6 0.0000 0.0000 0.0000 0.0000 4.5585 23.3625
#
#
#
# Elastic Compliance Matrix: (Units=1/GPa)
#
#
# Indices 1 2 3 4 5 6 
#
# 1 0.016167 -0.006193 -0.001251 -0.004912 0.000000 0.000000
# 2 -0.006193 0.016167 -0.001251 0.004912 0.000000 0.000000
# 3 -0.001251 -0.001251 0.010230 0.000000 0.000000 0.000000
# 4 -0.004912 0.004912 0.000000 0.050344 0.000000 0.000000
# 5 0.000000 0.000000 0.000000 0.000000 0.050344 -0.009823
# 6 0.000000 0.000000 0.000000 0.000000 -0.009823 0.044720
#
#
# Mechanical properties :
#
#
# Convention : Reuss Voigt Hill
#
# Bulk Modulus (GPa) = 39.72017 39.80861 39.76439
# Shear Modulus (GPa) = 23.39134 26.13035 24.76085
#
# Velocity S-wave (km/s) = 3.43521 3.63076 3.53434
# Velocity P-wave (km/s) = 5.98101 6.13674 6.05938
#
# Compressibility (1/GPa) = 0.02517613
#
# Stress axis : x y z
#
# Youngs Moduli (GPa) = 61.85274 61.85274 97.75090
#
# Poissons Ratio (x) = 0.38303 0.12227
# Poissons Ratio (y) = 0.38303 0.12227
# Poissons Ratio (z) = 0.07737 0.07737
#
# Static dielectric constant tensor:
#      x y z
#    x 1.825800 0.000000 0.000000 
#    y 0.000000 1.825800 0.000000 
#    z 0.000000 0.000000 1.686240 
# 
# From -- ./inp_files/2261.got.cif
#   From: 2010.05.17/outbox.cif.g08.bks.cpg/sg165_2_cif.got.tgz:2261.got - 2010.05.20 11:02:39.
