data_PCOD9578557
_publ_section_title
;
Structure prediction by ZEFSAII (Michael W. Deem and Ramdas Pophale) SiO2 
 PCOD9578557
Probable space group: P -3 M 1
;
_chemical_formula_sum "Si O2"
_cell_formula_units_Z 96
_cell_length_a 17.424042
_cell_length_b 17.424042
_cell_length_c 22.626115
_cell_angle_alpha 90.000000
_cell_angle_beta 90.000000
_cell_angle_gamma 120.000000
_cell_volume 5948.924270
_symmetry_space_group_name_H-M "P -3 M 1"
_symmetry_group_IT_number 164
_symmetry_cell_setting 'hexagonal'
loop_
_space_group_symop_operation_xyz
x,y,z
-y,x-y,z
-x+y,-x,z
x-y,-y,-z
-x,-x+y,-z
y,x,-z
-x,-y,-z
y,-x+y,-z
x-y,x,-z
-x+y,y,z
x,x-y,z
-y,-x,z
loop_
_atom_site_type_symbol
_atom_site_label
_atom_site_fract_x
_atom_site_fract_y
_atom_site_fract_z
Si Si1 0.356839 0.264651 0.522266
Si Si2 0.724367 0.628938 0.871735
Si Si3 0.512563 0.666697 0.012113
Si Si4 0.304323 0.062201 0.054746
Si Si5 0.162869 0.495429 0.583485
Si Si6 0.954484 0.568548 0.754967
Si Si7 0.153239 0.485024 0.720931
Si Si8 0.852122 0.333881 0.631853
O O1 0.278274 0.278274 0.500000
O O2 0.328281 0.164141 0.535691
O O3 0.421732 0.297163 0.465948
O O4 0.415138 0.321112 0.578212
O O5 0.825291 0.650582 0.873697
O O6 0.715573 0.713132 0.890363
O O7 0.681304 0.592481 0.808630
O O8 0.674492 0.556075 0.923430
O O9 0.485261 0.742631 0.009680
O O10 0.429573 0.570428 0.001510
O O11 0.593387 0.696536 0.966228
O O12 0.288704 0.144352 0.063740
O O13 0.247297 0.000000 0.000000
O O14 0.268969 0.537938 0.581254
O O15 0.134981 0.567491 0.570832
O O16 0.137953 0.464182 0.650762
O O17 0.947510 0.473755 0.765467
O O18 0.904164 0.558535 0.693138
O O19 0.059493 0.639293 0.751098
O O20 0.239167 0.478333 0.739089
O O21 0.171850 0.585925 0.727884
O O22 0.845108 0.422554 0.623288
O O23 0.754147 0.245854 0.632860
#
# Coordination Sequence:
#
# PCOD9578557 Si02
#       8
#    12  12  12  12  12  12  12  12
#     4  10  20  32  47  67  91 119 150 190 240 290
#     4  10  20  33  49  68  91 121 157 194 230 268
#     4   9  17  29  47  72 100 128 155 183 216 256
#     4   9  18  32  51  74  98 123 150 184 229 278
#     4   9  16  26  42  65  93 123 154 187 225 272
#     4  10  20  32  47  67  92 125 164 200 230 265
#     4   9  17  29  45  66  92 122 156 194 235 278
#     4  10  20  33  48  67  94 127 161 195 232 275
#
# _framework density 16.137371000000002
#
# number of rings (size 3 to 8) (size 9 to 14) (size 15 to 20)
#    0.000    2.500    0.000    3.500    0.000    6.250 
#    0.000    1.250    0.000    6.375    0.000    4.375 
#    0.000    0.000    0.000    1.375    0.000    0.000 
#
# Total GULP energy -535051.561607 kJ/mol
# GULP energy per Si atom -5573.453767 kJ/mol
# Density = 1.610064 g / cm^3
# Si number density = 16.137371 Si / 1000 Ang^3
#
#
#
# Elastic Constant Matrix: (Units=GPa)
#
#
# Indices 1 2 3 4 5 6 
#
# 1 73.9184 50.2198 34.9753 1.0964 0.0000 0.0000
# 2 50.2198 73.9184 34.9753 -1.0964 0.0000 0.0000
# 3 34.9753 34.9753 46.5642 0.0000 0.0000 0.0000
# 4 1.0964 -1.0964 0.0000 20.0913 0.0000 0.0000
# 5 0.0000 0.0000 0.0000 0.0000 20.0913 1.0964
# 6 0.0000 0.0000 0.0000 0.0000 1.0964 11.8493
#
#
#
# Elastic Compliance Matrix: (Units=1/GPa)
#
#
# Indices 1 2 3 4 5 6 
#
# 1 0.028189 -0.014222 -0.010491 -0.002314 0.000000 0.000000
# 2 -0.014222 0.028189 -0.010491 0.002314 0.000000 0.000000
# 3 -0.010491 -0.010491 0.037236 0.000000 0.000000 0.000000
# 4 -0.002314 0.002314 0.000000 0.050025 0.000000 0.000000
# 5 0.000000 0.000000 0.000000 0.000000 0.050025 -0.004629
# 6 0.000000 0.000000 0.000000 0.000000 -0.004629 0.084822
#
#
# Mechanical properties :
#
#
# Convention : Reuss Voigt Hill
#
# Bulk Modulus (GPa) = 43.09230 48.30465 45.69848
# Shear Modulus (GPa) = 14.02018 15.35508 14.68763
#
# Velocity S-wave (km/s) = 2.95074 3.08802 3.02016
# Velocity P-wave (km/s) = 6.19440 6.53551 6.36724
#
# Compressibility (1/GPa) = 0.02320600
#
# Stress axis : x y z
#
# Youngs Moduli (GPa) = 35.47487 35.47487 26.85596
#
# Poissons Ratio (x) = 0.50452 0.28174
# Poissons Ratio (y) = 0.50452 0.28174
# Poissons Ratio (z) = 0.37217 0.37217
#
# Static dielectric constant tensor:
#      x y z
#    x 1.550380 0.000000 0.000000 
#    y 0.000000 1.550380 0.000000 
#    z 0.000000 0.000000 1.535960 
# 
# From -- ./inp_files/4799.got.cif
#   From: 2010.05.17/outbox.cif.g08.bks.cpg/sg164_3_cif.got.tgz:4799.got - 2010.05.20 10:58:56.
