data_PCOD9578992
_publ_section_title
;
Structure prediction by ZEFSAII (Michael W. Deem and Ramdas Pophale) SiO2 
 PCOD9578992
Probable space group: P -3 C 1
;
_chemical_formula_sum "Si O2"
_cell_formula_units_Z 32
_cell_length_a 10.026410
_cell_length_b 10.026410
_cell_length_c 13.972563
_cell_angle_alpha 90.000000
_cell_angle_beta 90.000000
_cell_angle_gamma 120.000000
_cell_volume 1216.459425
_symmetry_space_group_name_H-M "P -3 C 1"
_symmetry_group_IT_number 165
_symmetry_cell_setting 'hexagonal'
loop_
_space_group_symop_operation_xyz
x,y,z
-y,x-y,z
-x+y,-x,z
x-y,-y,1/2-z
-x,-x+y,1/2-z
y,x,1/2-z
-x,-y,-z
y,-x+y,-z
x-y,x,-z
-x+y,y,1/2+z
x,x-y,1/2+z
-y,-x,1/2+z
loop_
_atom_site_type_symbol
_atom_site_label
_atom_site_fract_x
_atom_site_fract_y
_atom_site_fract_z
Si Si1 0.323131 0.374356 0.014734
Si Si2 0.666669 0.333335 0.543688
Si Si3 0.684846 0.802300 0.166697
Si Si4 0.333333 0.666666 0.729649
O O1 0.260011 0.492949 0.993012
O O2 0.268060 0.256928 0.927761
O O3 0.500000 0.500000 0.000000
O O4 0.264872 0.309908 0.121683
O O5 0.666668 0.333334 0.656737
O O6 0.787077 0.787077 0.250000
O O7 0.503025 0.700374 0.196782
#
# Coordination Sequence:
#
# PCOD9578992 Si02
#       4
#    12   4  12   4
#     4  12  23  41  69 107 161 202 261 330 394 472
#     4  12  22  38  70 115 158 193 262 329 409 469
#     4  12  25  42  69 110 160 209 262 324 405 473
#     4  12  22  38  67 106 155 214 259 326 385 481
#
# _framework density 26.305848000000001
#
# number of rings (size 3 to 8) (size 9 to 14) (size 15 to 20)
#    0.000    0.000   11.250    0.000    0.000    0.000 
#    0.000    5.625    0.000    0.750    0.000    2.625 
#    0.000    0.000    0.000    0.000    0.000    0.000 
#
# Total GULP energy -178562.908243 kJ/mol
# GULP energy per Si atom -5580.090883 kJ/mol
# Density = 2.624597 g / cm^3
# Si number density = 26.305848 Si / 1000 Ang^3
#
#
#
# Elastic Constant Matrix: (Units=GPa)
#
#
# Indices 1 2 3 4 5 6 
#
# 1 70.8201 17.6087 29.4798 -3.4025 0.0000 0.0000
# 2 17.6087 70.8206 29.4814 3.4022 0.0000 0.0000
# 3 29.4798 29.4814 215.6185 0.0001 0.0000 0.0000
# 4 -3.4025 3.4022 0.0001 55.8091 0.0000 0.0000
# 5 0.0000 0.0000 0.0000 0.0000 55.8082 -3.4011
# 6 0.0000 0.0000 0.0000 0.0000 -3.4011 26.6016
#
#
#
# Elastic Compliance Matrix: (Units=1/GPa)
#
#
# Indices 1 2 3 4 5 6 
#
# 1 0.015692 -0.003249 -0.001701 0.001155 0.000000 0.000000
# 2 -0.003249 0.015692 -0.001701 -0.001155 0.000000 0.000000
# 3 -0.001701 -0.001701 0.005103 0.000000 0.000000 0.000000
# 4 0.001155 -0.001155 0.000000 0.018059 0.000000 0.000000
# 5 0.000000 0.000000 0.000000 0.000000 0.018059 0.002309
# 6 0.000000 0.000000 0.000000 0.000000 0.002309 0.037887
#
#
# Mechanical properties :
#
#
# Convention : Reuss Voigt Hill
#
# Bulk Modulus (GPa) = 43.13378 56.71099 49.92238
# Shear Modulus (GPa) = 38.01642 46.35641 42.18641
#
# Velocity S-wave (km/s) = 3.80566 4.20242 4.00895
# Velocity P-wave (km/s) = 5.97858 6.71954 6.35986
#
# Compressibility (1/GPa) = 0.02318369
#
# Stress axis : x y z
#
# Youngs Moduli (GPa) = 63.72797 63.72812 195.96189
#
# Poissons Ratio (x) = 0.20704 0.33337
# Poissons Ratio (y) = 0.20704 0.33339
# Poissons Ratio (z) = 0.10841 0.10842
#
# Static dielectric constant tensor:
#      x y z
#    x 2.597020 0.000000 0.000000 
#    y 0.000000 2.596950 0.000020 
#    z 0.000000 0.000020 2.107180 
# 
# From -- ./inp_files/1426.got.cif
#   From: 2010.05.17/outbox.cif.g08.bks.cpg/sg165_1_cif.got.tgz:1426.got - 2010.05.20 11:02:39.
