data_PCOD9578223
_publ_section_title
;
Structure prediction by ZEFSAII (Michael W. Deem and Ramdas Pophale) SiO2 
 PCOD9578223
Probable space group: P -3 1 C
;
_chemical_formula_sum "Si O2"
_cell_formula_units_Z 54
_cell_length_a 16.304289
_cell_length_b 16.304289
_cell_length_c 12.502732
_cell_angle_alpha 90.000000
_cell_angle_beta 90.000000
_cell_angle_gamma 120.000000
_cell_volume 2878.321378
_symmetry_space_group_name_H-M "P -3 1 C"
_symmetry_group_IT_number 163
_symmetry_cell_setting 'hexagonal'
loop_
_space_group_symop_operation_xyz
x,y,z
-y,x-y,z
-x+y,-x,z
-y,-x,1/2-z
-x+y,y,1/2-z
x,x-y,1/2-z
-x,-y,-z
y,-x+y,-z
x-y,x,-z
y,x,1/2+z
x-y,-y,1/2+z
-x,-x+y,1/2+z
loop_
_atom_site_type_symbol
_atom_site_label
_atom_site_fract_x
_atom_site_fract_y
_atom_site_fract_z
Si Si1 0.613213 0.749604 0.907651
Si Si2 0.923332 0.513303 0.934697
Si Si3 0.170112 0.977572 0.031562
Si Si4 0.395445 0.604555 0.250000
Si Si5 0.714876 0.657363 0.169388
O O1 0.608515 0.845641 0.899849
O O2 0.625772 0.718637 0.789593
O O3 0.530665 0.669162 0.977391
O O4 0.710106 0.774011 0.966879
O O5 0.856837 0.430529 0.853996
O O6 0.982239 0.609159 0.864800
O O7 0.000000 0.500000 0.000000
O O8 0.230590 0.014931 0.141549
O O9 0.063320 0.891802 0.033300
O O10 0.435930 0.717965 0.250000
#
# Coordination Sequence:
#
# PCOD9578223 Si02
#       5
#    12  12  12   6  12
#     4   9  19  35  55  80 116 150 198 256 297 355
#     4  11  22  38  65  89 117 162 207 244 312 392
#     4   9  17  30  48  76 112 156 198 246 301 354
#     4  10  26  44  62  96 138 160 200 264 334 378
#     4   9  19  35  54  83 113 149 202 250 299 360
#
# _framework density 18.760935
#
# number of rings (size 3 to 8) (size 9 to 14) (size 15 to 20)
#    0.222    2.222    0.000    1.556    3.111    0.889 
#    8.000    0.000    0.000    2.667    0.000    0.000 
#    0.000    0.000    0.000    0.000    0.000    0.000 
#
# Total GULP energy -300836.431002 kJ/mol
# GULP energy per Si atom -5571.045019 kJ/mol
# Density = 1.871823 g / cm^3
# Si number density = 18.760935 Si / 1000 Ang^3
#
#
#
# Elastic Constant Matrix: (Units=GPa)
#
#
# Indices 1 2 3 4 5 6 
#
# 1 68.2475 25.8489 30.1277 0.0000 -5.3241 0.0000
# 2 25.8489 68.2475 30.1277 0.0000 5.3241 0.0000
# 3 30.1277 30.1277 88.2458 0.0000 0.0000 0.0000
# 4 0.0000 0.0000 0.0000 25.2734 0.0000 5.3241
# 5 -5.3241 5.3241 0.0000 0.0000 25.2734 0.0000
# 6 0.0000 0.0000 0.0000 5.3241 0.0000 21.1993
#
#
#
# Elastic Compliance Matrix: (Units=1/GPa)
#
#
# Indices 1 2 3 4 5 6 
#
# 1 0.019252 -0.005651 -0.004643 0.000000 0.005246 0.000000
# 2 -0.005651 0.019252 -0.004643 0.000000 -0.005246 0.000000
# 3 -0.004643 -0.004643 0.014503 0.000000 0.000000 0.000000
# 4 0.000000 0.000000 0.000000 0.041778 0.000000 -0.010492
# 5 0.005246 -0.005246 0.000000 0.000000 0.041778 0.000000
# 6 0.000000 0.000000 0.000000 -0.010492 0.000000 0.049807
#
#
# Mechanical properties :
#
#
# Convention : Reuss Voigt Hill
#
# Bulk Modulus (GPa) = 43.23280 44.10550 43.66915
# Shear Modulus (GPa) = 22.32592 23.59163 22.95878
#
# Velocity S-wave (km/s) = 3.45341 3.54995 3.50202
# Velocity P-wave (km/s) = 6.24464 6.35320 6.29915
#
# Compressibility (1/GPa) = 0.02313059
#
# Stress axis : x y z
#
# Youngs Moduli (GPa) = 51.94247 51.94247 68.95319
#
# Poissons Ratio (x) = 0.29354 0.32018
# Poissons Ratio (y) = 0.29354 0.32018
# Poissons Ratio (z) = 0.24119 0.24119
#
# Static dielectric constant tensor:
#      x y z
#    x 1.670510 0.000000 0.000000 
#    y 0.000000 1.670510 0.000000 
#    z 0.000000 0.000000 1.651180 
# 
# From -- ./inp_files/1701.got.cif
#   From: 2010.05.17/outbox.cif.g08.bks.cpg/sg163_1_cif.got.tgz:1701.got - 2010.05.20 10:56:03.
