data_PCOD9578827
_publ_section_title
;
Structure prediction by ZEFSAII (Michael W. Deem and Ramdas Pophale) SiO2 
 PCOD9578827
Probable space group: P -3 C 1
;
_chemical_formula_sum "Si O2"
_cell_formula_units_Z 60
_cell_length_a 24.185124
_cell_length_b 24.185124
_cell_length_c 5.203715
_cell_angle_alpha 90.000000
_cell_angle_beta 90.000000
_cell_angle_gamma 120.000000
_cell_volume 2635.971870
_symmetry_space_group_name_H-M "P -3 C 1"
_symmetry_group_IT_number 165
_symmetry_cell_setting 'hexagonal'
loop_
_space_group_symop_operation_xyz
x,y,z
-y,x-y,z
-x+y,-x,z
x-y,-y,1/2-z
-x,-x+y,1/2-z
y,x,1/2-z
-x,-y,-z
y,-x+y,-z
x-y,x,-z
-x+y,y,1/2+z
x,x-y,1/2+z
-y,-x,1/2+z
loop_
_atom_site_type_symbol
_atom_site_label
_atom_site_fract_x
_atom_site_fract_y
_atom_site_fract_z
Si Si1 0.758983 0.452602 0.689083
Si Si2 0.103800 0.582326 0.864074
Si Si3 0.126681 0.713534 0.747642
Si Si4 0.075181 0.333509 0.743537
Si Si5 0.930785 0.132229 0.641453
O O1 0.710972 0.430856 0.451680
O O2 0.817915 0.440208 0.646987
O O3 0.800704 0.530501 0.710946
O O4 0.082249 0.551410 0.140322
O O5 0.087423 0.637177 0.801301
O O6 0.112252 0.726396 0.462395
O O7 0.104583 0.745116 0.963945
O O8 0.079969 0.271736 0.812098
O O9 0.000000 0.310830 0.750000
O O10 0.921821 0.116160 0.341039
O O11 0.000000 0.152594 0.750000
#
# Coordination Sequence:
#
# PCOD9578827 Si02
#       5
#    12  12  12  12  12
#     4  10  20  33  54  83 108 135 187 246 297 353
#     4  10  20  36  58  78 109 153 192 234 299 362
#     4  10  22  34  59  84 112 160 192 252 299 370
#     4  11  22  39  58  90 126 160 196 245 310 359
#     4  11  24  42  67  97 134 176 215 257 312 378
#
# _framework density 22.762003
#
# number of rings (size 3 to 8) (size 9 to 14) (size 15 to 20)
#    1.200    0.400    0.000    6.000    0.000    8.000 
#    0.000    0.000    0.000   24.000    0.000    0.000 
#    0.000    0.000    0.000    0.000    0.000    0.000 
#
# Total GULP energy -335307.958651 kJ/mol
# GULP energy per Si atom -5588.465978 kJ/mol
# Density = 2.271020 g / cm^3
# Si number density = 22.762003 Si / 1000 Ang^3
#
#
#
# Elastic Constant Matrix: (Units=GPa)
#
#
# Indices 1 2 3 4 5 6 
#
# 1 45.7284 -6.2429 0.9940 7.7954 0.0000 0.0000
# 2 -6.2429 45.7284 0.9940 -7.7954 0.0000 0.0000
# 3 0.9940 0.9940 80.2604 0.0000 0.0000 0.0000
# 4 7.7954 -7.7954 0.0000 27.7190 0.0000 0.0000
# 5 0.0000 0.0000 0.0000 0.0000 27.7190 7.7954
# 6 0.0000 0.0000 0.0000 0.0000 7.7954 25.9856
#
#
#
# Elastic Compliance Matrix: (Units=1/GPa)
#
#
# Indices 1 2 3 4 5 6 
#
# 1 0.023178 0.002164 -0.000314 -0.005910 0.000000 0.000000
# 2 0.002164 0.023178 -0.000314 0.005910 0.000000 0.000000
# 3 -0.000314 -0.000314 0.012467 0.000000 0.000000 0.000000
# 4 -0.005910 0.005910 0.000000 0.039400 0.000000 0.000000
# 5 0.000000 0.000000 0.000000 0.000000 0.039400 -0.011820
# 6 0.000000 0.000000 0.000000 0.000000 -0.011820 0.042029
#
#
# Mechanical properties :
#
#
# Convention : Reuss Voigt Hill
#
# Bulk Modulus (GPa) = 16.15642 18.13417 17.14529
# Shear Modulus (GPa) = 25.35341 28.01619 26.68480
#
# Velocity S-wave (km/s) = 3.34106 3.51213 3.42766
# Velocity P-wave (km/s) = 4.69009 4.94276 4.81808
#
# Compressibility (1/GPa) = 0.06189491
#
# Stress axis : x y z
#
# Youngs Moduli (GPa) = 43.14450 43.14450 80.21037
#
# Poissons Ratio (x) = -0.09335 0.02517
# Poissons Ratio (y) = -0.09335 0.02517
# Poissons Ratio (z) = 0.01354 0.01354
#
# Static dielectric constant tensor:
#      x y z
#    x 1.867360 0.000000 0.000000 
#    y 0.000000 1.867360 0.000000 
#    z 0.000000 0.000000 1.777120 
# 
# From -- ./inp_files/197.got.cif
#   From: 2010.05.17/outbox.cif.g08.bks.cpg/sg165_1_cif.got.tgz:197.got - 2010.05.20 11:02:39.
