data_PCOD9578781
_publ_section_title
;
Structure prediction by ZEFSAII (Michael W. Deem and Ramdas Pophale) SiO2 
 PCOD9578781
Probable space group: P -3 C 1
;
_chemical_formula_sum "Si O2"
_cell_formula_units_Z 52
_cell_length_a 11.706956
_cell_length_b 11.706956
_cell_length_c 20.457809
_cell_angle_alpha 90.000000
_cell_angle_beta 90.000000
_cell_angle_gamma 120.000000
_cell_volume 2428.162365
_symmetry_space_group_name_H-M "P -3 C 1"
_symmetry_group_IT_number 165
_symmetry_cell_setting 'hexagonal'
loop_
_space_group_symop_operation_xyz
x,y,z
-y,x-y,z
-x+y,-x,z
x-y,-y,1/2-z
-x,-x+y,1/2-z
y,x,1/2-z
-x,-y,-z
y,-x+y,-z
x-y,x,-z
-x+y,y,1/2+z
x,x-y,1/2+z
-y,-x,1/2+z
loop_
_atom_site_type_symbol
_atom_site_label
_atom_site_fract_x
_atom_site_fract_y
_atom_site_fract_z
Si Si1 0.361640 0.426722 0.185009
Si Si2 0.690498 0.585569 0.356327
Si Si3 0.161525 0.308040 0.865184
Si Si4 0.133229 0.304399 0.005193
Si Si5 0.000000 0.000000 0.169142
O O1 0.444943 0.444943 0.250000
O O2 0.217766 0.413901 0.188916
O O3 0.448017 0.555507 0.141837
O O4 0.341677 0.286949 0.162100
O O5 0.655885 0.697707 0.335417
O O6 0.754680 0.622331 0.429274
O O7 0.087404 0.147838 0.858580
O O8 0.196653 0.375652 0.937150
O O9 0.206937 0.222994 0.017040
O O10 0.000000 0.000000 0.250000
#
# Coordination Sequence:
#
# PCOD9578781 Si02
#       5
#    12  12  12  12   4
#     4  12  27  45  70  96 139 187 232 282 349 417
#     4  11  26  45  69 100 137 184 231 283 348 417
#     4  11  22  42  70 106 130 175 228 292 346 407
#     4  10  18  38  69 102 136 167 222 287 347 412
#     4  12  21  36  73 107 142 171 232 293 343 414
#
# _framework density 21.415372999999999
#
# number of rings (size 3 to 8) (size 9 to 14) (size 15 to 20)
#    0.000    0.923    4.615    2.769    3.231    0.923 
#    1.385    0.000    0.000    0.000    0.000    0.000 
#    0.000    0.000    0.000    0.000    0.000    0.000 
#
# Total GULP energy -289778.030735 kJ/mol
# GULP energy per Si atom -5572.654437 kJ/mol
# Density = 2.136663 g / cm^3
# Si number density = 21.415373 Si / 1000 Ang^3
#
#
#
# Elastic Constant Matrix: (Units=GPa)
#
#
# Indices 1 2 3 4 5 6 
#
# 1 90.3128 49.9569 18.6400 2.2949 0.0000 0.0000
# 2 49.9569 90.3128 18.6400 -2.2949 0.0000 0.0000
# 3 18.6400 18.6400 50.3609 0.0000 0.0000 0.0000
# 4 2.2949 -2.2949 0.0000 -28.0531 0.0000 0.0000
# 5 0.0000 0.0000 0.0000 0.0000 -28.0531 2.2949
# 6 0.0000 0.0000 0.0000 0.0000 2.2949 20.1780
#
#
#
# Elastic Compliance Matrix: (Units=1/GPa)
#
#
# Indices 1 2 3 4 5 6 
#
# 1 0.016229 -0.008322 -0.002927 0.002008 0.000000 0.000000
# 2 -0.008322 0.016229 -0.002927 -0.002008 0.000000 0.000000
# 3 -0.002927 -0.002927 0.022023 0.000000 0.000000 0.000000
# 4 0.002008 -0.002008 0.000000 -0.035318 0.000000 0.000000
# 5 0.000000 0.000000 0.000000 0.000000 -0.035318 0.004017
# 6 0.000000 0.000000 0.000000 0.000000 0.004017 0.049102
#
#
# Mechanical properties :
#
#
# Convention : Reuss Voigt Hill
#
# Bulk Modulus (GPa) = 38.26926 45.05116 41.66021
# Shear Modulus (GPa) = 71.42060 2.39766 36.90913
#
# Velocity S-wave (km/s) = 5.78122 1.05926 4.15599
# Velocity P-wave (km/s) = 7.90394 4.75169 6.52115
#
# Compressibility (1/GPa) = 0.02613064
#
# Stress axis : x y z
#
# Youngs Moduli (GPa) = 61.61804 61.61804 45.40681
#
# Poissons Ratio (x) = 0.51279 0.13289
# Poissons Ratio (y) = 0.51279 0.13289
# Poissons Ratio (z) = 0.18033 0.18033
#
# Static dielectric constant tensor:
#      x y z
#    x 1.764550 0.000000 0.000000 
#    y 0.000000 1.764550 0.000000 
#    z 0.000000 0.000000 1.924140 
# 
# From -- ./inp_files/2575.got.cif
#   From: 2010.05.17/outbox.cif.g08.bks.cpg/sg165_2_cif.got.tgz:2575.got - 2010.05.20 11:02:39.
