data_PCOD9578484
_publ_section_title
;
Structure prediction by ZEFSAII (Michael W. Deem and Ramdas Pophale) SiO2 
 PCOD9578484
Probable space group: P -3 M 1
;
_chemical_formula_sum "Si O2"
_cell_formula_units_Z 72
_cell_length_a 24.551057
_cell_length_b 24.551057
_cell_length_c 8.964127
_cell_angle_alpha 90.000000
_cell_angle_beta 90.000000
_cell_angle_gamma 120.000000
_cell_volume 4679.279874
_symmetry_space_group_name_H-M "P -3 M 1"
_symmetry_group_IT_number 164
_symmetry_cell_setting 'hexagonal'
loop_
_space_group_symop_operation_xyz
x,y,z
-y,x-y,z
-x+y,-x,z
x-y,-y,-z
-x,-x+y,-z
y,x,-z
-x,-y,-z
y,-x+y,-z
x-y,x,-z
-x+y,y,z
x,x-y,z
-y,-x,z
loop_
_atom_site_type_symbol
_atom_site_label
_atom_site_fract_x
_atom_site_fract_y
_atom_site_fract_z
Si Si1 0.071848 0.268740 0.345267
Si Si2 0.946075 0.534900 0.287164
Si Si3 0.906954 0.515010 0.622198
Si Si4 0.366504 0.066949 0.086053
Si Si5 0.403145 0.137722 0.787010
Si Si6 0.737993 0.806184 0.703382
O O1 0.129094 0.258188 0.300002
O O2 0.086908 0.336168 0.284328
O O3 0.073153 0.274288 0.524958
O O4 0.005264 0.214386 0.283531
O O5 0.932420 0.466210 0.234472
O O6 0.910375 0.525807 0.444176
O O7 0.932483 0.576422 0.174310
O O8 0.020503 0.574265 0.323622
O O9 0.884200 0.442100 0.649409
O O10 0.869913 0.542622 0.709479
O O11 0.320599 0.076240 0.198883
O O12 0.395271 0.120433 0.960581
O O13 0.327512 0.000000 0.000000
O O14 0.411257 0.205629 0.760736
O O15 0.753583 0.876792 0.742566
#
# Coordination Sequence:
#
# PCOD9578484 Si02
#       6
#    12  12  12  12  12  12
#     4   9  18  32  50  68  90 121 163 207 246 288
#     4   9  18  31  50  72  97 124 153 188 236 286
#     4   9  17  32  51  72  94 121 156 195 234 280
#     4  12  20  29  44  69 102 132 156 188 230 282
#     4  11  21  32  46  70  99 129 162 198 236 279
#     4  10  19  32  48  67  93 128 163 198 243 295
#
# _framework density 15.386983000000001
#
# number of rings (size 3 to 8) (size 9 to 14) (size 15 to 20)
#    0.000    2.000    3.333    2.500    0.000    3.667 
#    0.000    0.833    0.000    0.667    0.000    2.333 
#    0.000    2.000    0.000    0.000    0.000    0.000 
#
# Total GULP energy -401273.586054 kJ/mol
# GULP energy per Si atom -5573.244251 kJ/mol
# Density = 1.535196 g / cm^3
# Si number density = 15.386983 Si / 1000 Ang^3
#
#
#
# Elastic Constant Matrix: (Units=GPa)
#
#
# Indices 1 2 3 4 5 6 
#
# 1 87.7879 44.9895 33.5061 2.4605 0.0000 0.0000
# 2 44.9895 87.7879 33.5061 -2.4605 0.0000 0.0000
# 3 33.5061 33.5061 31.5808 0.0000 0.0000 0.0000
# 4 2.4605 -2.4605 0.0000 15.7243 0.0000 0.0000
# 5 0.0000 0.0000 0.0000 0.0000 15.7243 2.4605
# 6 0.0000 0.0000 0.0000 0.0000 2.4605 21.3992
#
#
#
# Elastic Compliance Matrix: (Units=1/GPa)
#
#
# Indices 1 2 3 4 5 6 
#
# 1 0.020003 -0.003790 -0.017201 -0.003723 0.000000 0.000000
# 2 -0.003790 0.020003 -0.017201 0.003723 0.000000 0.000000
# 3 -0.017201 -0.017201 0.068165 0.000000 0.000000 0.000000
# 4 -0.003723 0.003723 0.000000 0.064761 0.000000 0.000000
# 5 0.000000 0.000000 0.000000 0.000000 0.064761 -0.007446
# 6 0.000000 0.000000 0.000000 0.000000 -0.007446 0.047587
#
#
# Mechanical properties :
#
#
# Convention : Reuss Voigt Hill
#
# Bulk Modulus (GPa) = 31.46101 47.90665 39.68383
# Shear Modulus (GPa) = 13.43144 16.91320 15.17232
#
# Velocity S-wave (km/s) = 2.95771 3.31900 3.14355
# Velocity P-wave (km/s) = 5.67053 6.77420 6.24679
#
# Compressibility (1/GPa) = 0.03178538
#
# Stress axis : x y z
#
# Youngs Moduli (GPa) = 49.99220 49.99220 14.67037
#
# Poissons Ratio (x) = 0.18949 0.25235
# Poissons Ratio (y) = 0.18949 0.25235
# Poissons Ratio (z) = 0.85993 0.85993
#
# Static dielectric constant tensor:
#      x y z
#    x 1.505060 0.000000 0.000000 
#    y 0.000000 1.505060 0.000000 
#    z 0.000000 0.000000 1.524140 
# 
# From -- ./inp_files/1884.got.cif
#   From: 2010.05.17/outbox.cif.g08.bks.cpg/sg164_1_cif.got.tgz:1884.got - 2010.05.20 10:58:56.
