data_PCOD9578910
_publ_section_title
;
Structure prediction by ZEFSAII (Michael W. Deem and Ramdas Pophale) SiO2 
 PCOD9578910
Probable space group: P -3 C 1
;
_chemical_formula_sum "Si O2"
_cell_formula_units_Z 56
_cell_length_a 14.366378
_cell_length_b 14.366378
_cell_length_c 13.015569
_cell_angle_alpha 90.000000
_cell_angle_beta 90.000000
_cell_angle_gamma 120.000000
_cell_volume 2326.421318
_symmetry_space_group_name_H-M "P -3 C 1"
_symmetry_group_IT_number 165
_symmetry_cell_setting 'hexagonal'
loop_
_space_group_symop_operation_xyz
x,y,z
-y,x-y,z
-x+y,-x,z
x-y,-y,1/2-z
-x,-x+y,1/2-z
y,x,1/2-z
-x,-y,-z
y,-x+y,-z
x-y,x,-z
-x+y,y,1/2+z
x,x-y,1/2+z
-y,-x,1/2+z
loop_
_atom_site_type_symbol
_atom_site_label
_atom_site_fract_x
_atom_site_fract_y
_atom_site_fract_z
Si Si1 0.121347 0.480263 0.158022
Si Si2 0.698817 0.130302 0.052485
Si Si3 0.333335 0.666668 0.160766
Si Si4 0.666667 0.333333 0.599762
Si Si5 0.410607 0.410607 0.250000
Si Si6 0.083182 0.221356 0.038967
Si Si7 0.263203 0.000000 0.250000
O O1 0.245854 0.547602 0.130656
O O2 0.086553 0.560936 0.203070
O O3 0.097051 0.387791 0.241109
O O4 0.064511 0.436791 0.047930
O O5 0.681484 0.231367 0.072497
O O6 0.669608 0.058259 0.155412
O O7 0.813295 0.154542 0.006857
O O8 0.333334 0.666667 0.280257
O O9 0.025321 0.217824 0.147217
O O10 0.156111 0.167495 0.042604
#
# Coordination Sequence:
#
# PCOD9578910 Si02
#       7
#    12  12   4   4   6  12   6
#     4  10  22  40  63  97 144 191 235 290 351 429
#     4  11  25  43  69 103 141 188 237 292 359 428
#     4  12  22  38  70 100 146 199 232 281 361 427
#     4  12  25  44  70 106 149 187 235 290 349 436
#     4  11  22  38  62  95 138 188 242 287 344 413
#     4  11  27  49  75 105 138 185 244 305 366 428
#     4   9  24  46  72 103 144 176 236 305 364 429
#
# _framework density 24.071307000000001
#
# number of rings (size 3 to 8) (size 9 to 14) (size 15 to 20)
#    0.000    1.286    2.143    2.143    3.000    9.429 
#    0.000    0.000    0.000    0.000    0.000    0.000 
#    0.000    0.000    0.000    0.000    0.000    0.000 
#
# Total GULP energy -312218.494246 kJ/mol
# GULP energy per Si atom -5575.330254 kJ/mol
# Density = 2.401652 g / cm^3
# Si number density = 24.071307 Si / 1000 Ang^3
#
#
#
# Elastic Constant Matrix: (Units=GPa)
#
#
# Indices 1 2 3 4 5 6 
#
# 1 84.9782 34.1960 19.2581 9.8805 0.0000 0.0000
# 2 34.1960 84.9770 19.2576 -9.8805 0.0000 0.0000
# 3 19.2581 19.2576 156.2121 0.0006 0.0000 0.0000
# 4 9.8805 -9.8805 0.0006 12.6255 0.0000 0.0000
# 5 0.0000 0.0000 0.0000 0.0000 12.6247 9.8802
# 6 0.0000 0.0000 0.0000 0.0000 9.8802 25.3914
#
#
#
# Elastic Compliance Matrix: (Units=1/GPa)
#
#
# Indices 1 2 3 4 5 6 
#
# 1 0.018527 -0.009788 -0.001077 -0.022159 0.000000 0.000000
# 2 -0.009788 0.018527 -0.001077 0.022159 0.000000 0.000000
# 3 -0.001077 -0.001077 0.006667 0.000000 0.000000 0.000000
# 4 -0.022159 0.022159 0.000000 0.113888 0.000000 0.000000
# 5 0.000000 0.000000 0.000000 0.000000 0.113893 -0.044317
# 6 0.000000 0.000000 0.000000 0.000000 -0.044317 0.056628
#
#
# Mechanical properties :
#
#
# Convention : Reuss Voigt Hill
#
# Bulk Modulus (GPa) = 50.41264 52.39897 51.40581
# Shear Modulus (GPa) = 13.94205 27.02536 20.48371
#
# Velocity S-wave (km/s) = 2.40926 3.35434 2.92029
# Velocity P-wave (km/s) = 5.35984 6.06775 5.72475
#
# Compressibility (1/GPa) = 0.01983629
#
# Stress axis : x y z
#
# Youngs Moduli (GPa) = 53.97517 53.97427 149.98820
#
# Poissons Ratio (x) = 0.52829 0.16158
# Poissons Ratio (y) = 0.52830 0.16161
# Poissons Ratio (z) = 0.05815 0.05815
#
# Static dielectric constant tensor:
#      x y z
#    x 1.955370 0.000000 0.000000 
#    y 0.000000 1.955380 0.000000 
#    z 0.000000 0.000000 1.983100 
# 
# From -- ./inp_files/1736.got.cif
#   From: 2010.05.17/outbox.cif.g08.bks.cpg/sg165_1_cif.got.tgz:1736.got - 2010.05.20 11:02:39.
