data_PCOD9578645
_publ_section_title
;
Structure prediction by ZEFSAII (Michael W. Deem and Ramdas Pophale) SiO2 
 PCOD9578645
Probable space group: P -3 M 1
;
_chemical_formula_sum "Si O2"
_cell_formula_units_Z 60
_cell_length_a 12.735370
_cell_length_b 12.735370
_cell_length_c 26.387972
_cell_angle_alpha 90.000000
_cell_angle_beta 90.000000
_cell_angle_gamma 120.000000
_cell_volume 3706.463949
_symmetry_space_group_name_H-M "P -3 M 1"
_symmetry_group_IT_number 164
_symmetry_cell_setting 'hexagonal'
loop_
_space_group_symop_operation_xyz
x,y,z
-y,x-y,z
-x+y,-x,z
x-y,-y,-z
-x,-x+y,-z
y,x,-z
-x,-y,-z
y,-x+y,-z
x-y,x,-z
-x+y,y,z
x,x-y,z
-y,-x,z
loop_
_atom_site_type_symbol
_atom_site_label
_atom_site_fract_x
_atom_site_fract_y
_atom_site_fract_z
Si Si1 0.583310 0.916791 0.839737
Si Si2 0.083130 0.666076 0.450954
Si Si3 0.916014 0.582807 0.744377
Si Si4 0.583203 0.915893 0.954007
Si Si5 0.666147 0.083484 0.353050
O O1 0.444473 0.888946 0.836320
O O2 0.586595 0.793298 0.832143
O O3 0.627155 0.963144 0.896950
O O4 0.656241 0.014382 0.796663
O O5 0.113966 0.556983 0.451182
O O6 0.205134 0.794867 0.451558
O O7 0.000000 0.645397 0.500000
O O8 0.003087 0.646930 0.401033
O O9 0.793901 0.587801 0.739215
O O10 0.887788 0.443894 0.743795
O O11 0.007434 0.648868 0.697930
O O12 0.450577 0.901153 0.958756
O O13 0.572852 0.786426 0.957633
O O14 0.661473 0.000000 0.000000
O O15 0.557189 0.114378 0.353903
O O16 0.794835 0.205166 0.355060
#
# Coordination Sequence:
#
# PCOD9578645 Si02
#       5
#    12  12  12  12  12
#     4   9  17  30  49  71  94 121 155 197 241 284
#     4  10  20  34  54  78 104 134 167 205 247 291
#     4  10  20  33  50  72  99 129 159 194 237 287
#     4   9  17  29  46  69  95 123 155 192 237 285
#     4  10  20  34  54  78 102 128 160 202 247 289
#
# _framework density 16.187936000000001
#
# number of rings (size 3 to 8) (size 9 to 14) (size 15 to 20)
#    0.000    2.400    0.000    2.800    0.000    2.400 
#    0.000    6.000    0.000   14.200    0.000    0.000 
#    0.000    0.000    0.000    0.000    0.000    0.000 
#
# Total GULP energy -334620.193054 kJ/mol
# GULP energy per Si atom -5577.003218 kJ/mol
# Density = 1.615109 g / cm^3
# Si number density = 16.187936 Si / 1000 Ang^3
#
#
#
# Elastic Constant Matrix: (Units=GPa)
#
#
# Indices 1 2 3 4 5 6 
#
# 1 106.3477 70.2781 73.8921 -2.0131 0.0000 0.0000
# 2 70.2781 106.3477 73.8921 2.0131 0.0000 0.0000
# 3 73.8921 73.8921 155.6952 0.0000 0.0000 0.0000
# 4 -2.0131 2.0131 0.0000 17.7041 0.0000 0.0000
# 5 0.0000 0.0000 0.0000 0.0000 17.7041 -2.0131
# 6 0.0000 0.0000 0.0000 0.0000 -2.0131 18.0348
#
#
#
# Elastic Compliance Matrix: (Units=1/GPa)
#
#
# Indices 1 2 3 4 5 6 
#
# 1 0.018736 -0.009345 -0.004457 0.003193 0.000000 0.000000
# 2 -0.009345 0.018736 -0.004457 -0.003193 0.000000 0.000000
# 3 -0.004457 -0.004457 0.010653 0.000000 0.000000 0.000000
# 4 0.003193 -0.003193 0.000000 0.057210 0.000000 0.000000
# 5 0.000000 0.000000 0.000000 0.000000 0.057210 0.006386
# 6 0.000000 0.000000 0.000000 0.000000 0.006386 0.056161
#
#
# Mechanical properties :
#
#
# Convention : Reuss Voigt Hill
#
# Bulk Modulus (GPa) = 86.15169 89.39058 87.77114
# Shear Modulus (GPa) = 19.29814 20.71049 20.00431
#
# Velocity S-wave (km/s) = 3.45647 3.58072 3.51914
# Velocity P-wave (km/s) = 8.32255 8.51092 8.41726
#
# Compressibility (1/GPa) = 0.01160743
#
# Stress axis : x y z
#
# Youngs Moduli (GPa) = 53.37419 53.37419 93.86909
#
# Poissons Ratio (x) = 0.49878 0.41835
# Poissons Ratio (y) = 0.49878 0.41835
# Poissons Ratio (z) = 0.23788 0.23788
#
# Static dielectric constant tensor:
#      x y z
#    x 1.506570 0.000000 0.000000 
#    y 0.000000 1.506570 0.000000 
#    z 0.000000 0.000000 1.562640 
# 
# From -- ./inp_files/5181.got.cif
#   From: 2010.05.17/outbox.cif.g08.bks.cpg/sg164_3_cif.got.tgz:5181.got - 2010.05.20 10:58:56.
