data_PCOD9578798
_publ_section_title
;
Structure prediction by ZEFSAII (Michael W. Deem and Ramdas Pophale) SiO2 
 PCOD9578798
Probable space group: P -3 C 1
;
_chemical_formula_sum "Si O2"
_cell_formula_units_Z 68
_cell_length_a 12.530430
_cell_length_b 12.530430
_cell_length_c 26.846326
_cell_angle_alpha 90.000000
_cell_angle_beta 90.000000
_cell_angle_gamma 120.000000
_cell_volume 3650.458711
_symmetry_space_group_name_H-M "P -3 C 1"
_symmetry_group_IT_number 165
_symmetry_cell_setting 'hexagonal'
loop_
_space_group_symop_operation_xyz
x,y,z
-y,x-y,z
-x+y,-x,z
x-y,-y,1/2-z
-x,-x+y,1/2-z
y,x,1/2-z
-x,-y,-z
y,-x+y,-z
x-y,x,-z
-x+y,y,1/2+z
x,x-y,1/2+z
-y,-x,1/2+z
loop_
_atom_site_type_symbol
_atom_site_label
_atom_site_fract_x
_atom_site_fract_y
_atom_site_fract_z
Si Si1 0.249407 0.249407 0.250000
Si Si2 0.355797 0.442443 0.937846
Si Si3 0.087059 0.679974 0.153463
Si Si4 0.333334 0.666667 0.044841
Si Si5 0.926004 0.582009 0.845749
Si Si6 0.666668 0.333334 0.074582
Si Si7 0.257812 0.257812 0.750000
Si Si8 0.070647 0.642826 0.048394
O O1 0.312161 0.322684 0.199405
O O2 0.242059 0.118695 0.248844
O O3 0.354245 0.347690 0.897645
O O4 0.310892 0.531094 0.913269
O O5 0.500157 0.536080 0.950994
O O6 0.302463 0.387808 0.992749
O O7 0.075946 0.546790 0.155682
O O8 0.227959 0.789138 0.158055
O O9 0.046172 0.698165 0.098106
O O10 0.201691 0.649231 0.059349
O O11 0.333334 0.666667 0.985315
O O12 0.996776 0.666857 0.798889
#
# Coordination Sequence:
#
# PCOD9578798 Si02
#       8
#     6  12  12   4  12   4   6  12
#     4  10  22  38  56  74  96 130 170 212 254 296
#     4   9  18  29  45  71 102 140 175 206 249 300
#     4  10  19  33  53  78 105 132 164 207 255 302
#     4   9  15  27  48  72 103 140 169 210 256 302
#     4  10  20  34  54  78 104 133 167 207 255 308
#     4   9  18  30  42  66 109 146 175 213 253 296
#     4  10  22  40  58  76  98 130 172 212 252 304
#     4   9  16  28  47  72 102 134 171 205 249 305
#
# _framework density 18.627797000000001
#
# number of rings (size 3 to 8) (size 9 to 14) (size 15 to 20)
#    0.000    2.471    0.000    3.176    0.000    4.235 
#    0.000    0.000    0.000    0.706    0.000    0.000 
#    0.000    7.059    0.000    0.000    0.000    0.000 
#
# Total GULP energy -378805.472909 kJ/mol
# GULP energy per Si atom -5570.668719 kJ/mol
# Density = 1.858540 g / cm^3
# Si number density = 18.627797 Si / 1000 Ang^3
#
#
#
# Elastic Constant Matrix: (Units=GPa)
#
#
# Indices 1 2 3 4 5 6 
#
# 1 40.4188 22.0303 40.9785 -0.7624 0.0000 0.0000
# 2 22.0303 40.4191 40.9785 0.7625 0.0000 0.0000
# 3 40.9785 40.9785 152.0451 0.0000 0.0000 0.0000
# 4 -0.7624 0.7625 0.0000 23.2549 0.0000 0.0000
# 5 0.0000 0.0000 0.0000 0.0000 23.2548 -0.7623
# 6 0.0000 0.0000 0.0000 0.0000 -0.7623 9.1944
#
#
#
# Elastic Compliance Matrix: (Units=1/GPa)
#
#
# Indices 1 2 3 4 5 6 
#
# 1 0.039653 -0.014876 -0.006678 0.001788 0.000000 0.000000
# 2 -0.014876 0.039653 -0.006678 -0.001788 0.000000 0.000000
# 3 -0.006678 -0.006678 0.010176 0.000000 0.000000 0.000000
# 4 0.001788 -0.001788 0.000000 0.043119 0.000000 0.000000
# 5 0.000000 0.000000 0.000000 0.000000 0.043119 0.003575
# 6 0.000000 0.000000 0.000000 0.000000 0.003575 0.109058
#
#
# Mechanical properties :
#
#
# Convention : Reuss Voigt Hill
#
# Bulk Modulus (GPa) = 30.28558 48.98418 39.63488
# Shear Modulus (GPa) = 14.19453 19.73390 16.96422
#
# Velocity S-wave (km/s) = 2.76344 3.25834 3.02104
# Velocity P-wave (km/s) = 5.14546 6.36467 5.78726
#
# Compressibility (1/GPa) = 0.03301902
#
# Stress axis : x y z
#
# Youngs Moduli (GPa) = 25.21865 25.21889 98.26591
#
# Poissons Ratio (x) = 0.37517 0.65619
# Poissons Ratio (y) = 0.37516 0.65618
# Poissons Ratio (z) = 0.16840 0.16840
#
# Static dielectric constant tensor:
#      x y z
#    x 1.651230 0.000000 0.000000 
#    y 0.000000 1.651230 0.000000 
#    z 0.000000 0.000000 1.710440 
# 
# From -- ./inp_files/3336.got.cif
#   From: 2010.05.17/outbox.cif.g08.bks.cpg/sg165_2_cif.got.tgz:3336.got - 2010.05.20 11:02:39.
