data_PCOD9578597
_publ_section_title
;
Structure prediction by ZEFSAII (Michael W. Deem and Ramdas Pophale) SiO2 
 PCOD9578597
Probable space group: P -3 M 1
;
_chemical_formula_sum "Si O2"
_cell_formula_units_Z 66
_cell_length_a 13.071337
_cell_length_b 13.071337
_cell_length_c 28.784660
_cell_angle_alpha 90.000000
_cell_angle_beta 90.000000
_cell_angle_gamma 120.000000
_cell_volume 4259.236533
_symmetry_space_group_name_H-M "P -3 M 1"
_symmetry_group_IT_number 164
_symmetry_cell_setting 'hexagonal'
loop_
_space_group_symop_operation_xyz
x,y,z
-y,x-y,z
-x+y,-x,z
x-y,-y,-z
-x,-x+y,-z
y,x,-z
-x,-y,-z
y,-x+y,-z
x-y,x,-z
-x+y,y,z
x,x-y,z
-y,-x,z
loop_
_atom_site_type_symbol
_atom_site_label
_atom_site_fract_x
_atom_site_fract_y
_atom_site_fract_z
Si Si1 0.999396 0.242655 0.832129
Si Si2 0.999671 0.758140 0.274713
Si Si3 0.422848 0.332666 0.540645
Si Si4 0.909341 0.576766 0.086064
Si Si5 0.756230 0.756230 0.000000
Si Si6 0.333991 0.910118 0.354904
O O1 0.875976 0.124024 0.842546
O O2 0.996317 0.277709 0.778617
O O3 0.107896 0.215792 0.835951
O O4 0.029098 0.348014 0.867593
O O5 0.108675 0.891326 0.279381
O O6 0.017596 0.681967 0.313706
O O7 0.877906 0.755812 0.281525
O O8 0.349972 0.349972 0.500000
O O9 0.425553 0.212777 0.534518
O O10 0.555427 0.444574 0.538455
O O11 0.377624 0.332926 0.592913
O O12 0.772372 0.544743 0.087212
O O13 0.919127 0.459564 0.081834
O O14 0.969451 0.668064 0.043483
O O15 0.769189 0.884595 0.008679
O O16 0.453546 0.907091 0.349274
O O17 0.222178 0.777823 0.352669
#
# Coordination Sequence:
#
# PCOD9578597 Si02
#       6
#    12  12  12  12   6  12
#     4   9  17  30  49  71  93 118 150 190 232 270
#     4   9  17  29  46  68  92 118 148 183 225 270
#     4   9  17  29  45  64  85 111 144 182 223 266
#     4  10  20  33  49  69  95 127 159 188 221 266
#     4  10  20  34  54  78 100 122 152 194 238 274
#     4   9  17  29  45  64  86 114 148 184 221 263
#
# _framework density 15.495735
#
# number of rings (size 3 to 8) (size 9 to 14) (size 15 to 20)
#    0.000    2.727    0.000    1.818    0.000    4.364 
#    0.000    1.818    0.000    4.545    0.000    0.000 
#    0.000    0.000    0.000    0.000    0.000    0.000 
#
# Total GULP energy -367721.443004 kJ/mol
# GULP energy per Si atom -5571.537015 kJ/mol
# Density = 1.546047 g / cm^3
# Si number density = 15.495735 Si / 1000 Ang^3
#
#
#
# Elastic Constant Matrix: (Units=GPa)
#
#
# Indices 1 2 3 4 5 6 
#
# 1 82.6902 50.2713 70.2372 0.6270 0.0000 0.0000
# 2 50.2713 82.6902 70.2372 -0.6270 0.0000 0.0000
# 3 70.2372 70.2372 127.4650 0.0000 0.0000 0.0000
# 4 0.6270 -0.6270 0.0000 22.9751 0.0000 0.0000
# 5 0.0000 0.0000 0.0000 0.0000 22.9751 0.6270
# 6 0.0000 0.0000 0.0000 0.0000 0.6270 16.2094
#
#
#
# Elastic Compliance Matrix: (Units=1/GPa)
#
#
# Indices 1 2 3 4 5 6 
#
# 1 0.024439 -0.006439 -0.009919 -0.000843 0.000000 0.000000
# 2 -0.006439 0.024439 -0.009919 0.000843 0.000000 0.000000
# 3 -0.009919 -0.009919 0.018776 0.000000 0.000000 0.000000
# 4 -0.000843 0.000843 0.000000 0.043571 0.000000 0.000000
# 5 0.000000 0.000000 0.000000 0.000000 0.043571 -0.001685
# 6 0.000000 0.000000 0.000000 0.000000 -0.001685 0.061758
#
#
# Mechanical properties :
#
#
# Convention : Reuss Voigt Hill
#
# Bulk Modulus (GPa) = 66.21684 74.92629 70.57156
# Shear Modulus (GPa) = 18.23871 19.23858 18.73864
#
# Velocity S-wave (km/s) = 3.43449 3.52737 3.48124
# Velocity P-wave (km/s) = 7.65197 8.06521 7.86131
#
# Compressibility (1/GPa) = 0.01510190
#
# Stress axis : x y z
#
# Youngs Moduli (GPa) = 40.91754 40.91754 53.25919
#
# Poissons Ratio (x) = 0.26349 0.52825
# Poissons Ratio (y) = 0.26349 0.52825
# Poissons Ratio (z) = 0.40584 0.40584
#
# Static dielectric constant tensor:
#      x y z
#    x 1.486310 0.000000 0.000000 
#    y 0.000000 1.486310 0.000000 
#    z 0.000000 0.000000 1.535310 
# 
# From -- ./inp_files/5409.got.cif
#   From: 2010.05.17/outbox.cif.g08.bks.cpg/sg164_3_cif.got.tgz:5409.got - 2010.05.20 10:58:56.
