data_PCOD9578233
_publ_section_title
;
Structure prediction by ZEFSAII (Michael W. Deem and Ramdas Pophale) SiO2 
 PCOD9578233
Probable space group: P -3 1 C
;
_chemical_formula_sum "Si O2"
_cell_formula_units_Z 56
_cell_length_a 14.172161
_cell_length_b 14.172161
_cell_length_c 18.065719
_cell_angle_alpha 90.000000
_cell_angle_beta 90.000000
_cell_angle_gamma 120.000000
_cell_volume 3142.375190
_symmetry_space_group_name_H-M "P -3 1 C"
_symmetry_group_IT_number 163
_symmetry_cell_setting 'hexagonal'
loop_
_space_group_symop_operation_xyz
x,y,z
-y,x-y,z
-x+y,-x,z
-y,-x,1/2-z
-x+y,y,1/2-z
x,x-y,1/2-z
-x,-y,-z
y,-x+y,-z
x-y,x,-z
y,x,1/2+z
x-y,-y,1/2+z
-x,-x+y,1/2+z
loop_
_atom_site_type_symbol
_atom_site_label
_atom_site_fract_x
_atom_site_fract_y
_atom_site_fract_z
Si Si1 0.402337 0.184963 0.588597
Si Si2 0.517326 0.090652 0.389065
Si Si3 0.533758 0.067515 0.750000
Si Si4 0.666668 0.333333 0.935080
Si Si5 0.791980 0.208021 0.750000
Si Si6 0.342720 0.971076 0.508691
Si Si7 0.333334 0.666667 0.613393
O O1 0.537720 0.258071 0.588524
O O2 0.360448 0.190662 0.670188
O O3 0.359485 0.233970 0.525551
O O4 0.354875 0.059936 0.567666
O O5 0.599121 0.086920 0.449838
O O6 0.570389 0.214750 0.362828
O O7 0.495497 0.009153 0.321711
O O8 0.408488 0.042453 0.437374
O O9 0.662115 0.146223 0.757684
O O10 0.666668 0.333334 0.023911
#
# Coordination Sequence:
#
# PCOD9578233 Si02
#       7
#    12  12   6   4   6  12   4
#     4  12  22  36  60  84 116 155 199 251 293 354
#     4  11  21  35  55  81 123 164 197 239 286 362
#     4  12  23  38  56  82 124 160 200 255 304 338
#     4  12  18  31  53  85 117 154 191 232 285 343
#     4  12  23  36  52  86 118 150 200 253 302 330
#     4  11  20  36  56  83 114 154 206 243 296 357
#     4  12  21  37  56  85 123 172 203 223 279 370
#
# _framework density 17.820914999999999
#
# number of rings (size 3 to 8) (size 9 to 14) (size 15 to 20)
#    0.000    0.429    8.571    2.786    0.000    0.857 
#    0.000    0.000    0.000    1.714    0.000    0.000 
#    0.000    0.000    0.000    0.000    0.000    0.000 
#
# Total GULP energy -312259.397459 kJ/mol
# GULP energy per Si atom -5576.060669 kJ/mol
# Density = 1.778035 g / cm^3
# Si number density = 17.820915 Si / 1000 Ang^3
#
#
#
# Elastic Constant Matrix: (Units=GPa)
#
#
# Indices 1 2 3 4 5 6 
#
# 1 40.3828 10.8747 3.5856 -0.0001 -3.2736 0.0002
# 2 10.8747 40.3833 3.5858 0.0000 3.2736 0.0002
# 3 3.5856 3.5858 89.3146 -0.0002 -0.0001 0.0001
# 4 -0.0001 0.0000 -0.0002 18.8666 0.0000 3.2736
# 5 -3.2736 3.2736 -0.0001 0.0000 18.8666 -0.0001
# 6 0.0002 0.0002 0.0001 3.2736 -0.0001 14.7542
#
#
#
# Elastic Compliance Matrix: (Units=1/GPa)
#
#
# Indices 1 2 3 4 5 6 
#
# 1 0.027433 -0.007813 -0.000788 0.000000 0.006116 0.000000
# 2 -0.007813 0.027432 -0.000788 0.000000 -0.006116 0.000000
# 3 -0.000788 -0.000788 0.011260 0.000000 0.000000 0.000000
# 4 0.000000 0.000000 0.000000 0.055126 0.000000 -0.012231
# 5 0.006116 -0.006116 0.000000 0.000000 0.055126 0.000000
# 6 0.000000 0.000000 0.000000 -0.012231 0.000000 0.070491
#
#
# Mechanical properties :
#
#
# Convention : Reuss Voigt Hill
#
# Bulk Modulus (GPa) = 21.12027 22.90810 22.01419
# Shear Modulus (GPa) = 17.76660 20.63313 19.19987
#
# Velocity S-wave (km/s) = 3.16088 3.40634 3.28590
# Velocity P-wave (km/s) = 5.01983 5.32479 5.17456
#
# Compressibility (1/GPa) = 0.04734787
#
# Stress axis : x y z
#
# Youngs Moduli (GPa) = 36.45291 36.45336 88.81297
#
# Poissons Ratio (x) = 0.28481 0.06995
# Poissons Ratio (y) = 0.28481 0.06996
# Poissons Ratio (z) = 0.02871 0.02871
#
# Static dielectric constant tensor:
#      x y z
#    x 1.634410 0.000000 0.000000 
#    y 0.000000 1.634410 0.000000 
#    z 0.000000 0.000000 1.642050 
# 
# From -- ./inp_files/3053.got.cif
#   From: 2010.05.17/outbox.cif.g08.bks.cpg/sg163_2_cif.got.tgz:3053.got - 2010.05.20 10:56:03.
