data_PCOD9578217
_publ_section_title
;
Structure prediction by ZEFSAII (Michael W. Deem and Ramdas Pophale) SiO2 
 PCOD9578217
Probable space group: P -3 1 C
;
_chemical_formula_sum "Si O2"
_cell_formula_units_Z 34
_cell_length_a 14.706857
_cell_length_b 14.706857
_cell_length_c 8.609479
_cell_angle_alpha 90.000000
_cell_angle_beta 90.000000
_cell_angle_gamma 120.000000
_cell_volume 1612.676443
_symmetry_space_group_name_H-M "P -3 1 C"
_symmetry_group_IT_number 163
_symmetry_cell_setting 'hexagonal'
loop_
_space_group_symop_operation_xyz
x,y,z
-y,x-y,z
-x+y,-x,z
-y,-x,1/2-z
-x+y,y,1/2-z
x,x-y,1/2-z
-x,-y,-z
y,-x+y,-z
x-y,x,-z
y,x,1/2+z
x-y,-y,1/2+z
-x,-x+y,1/2+z
loop_
_atom_site_type_symbol
_atom_site_label
_atom_site_fract_x
_atom_site_fract_y
_atom_site_fract_z
Si Si1 0.458256 0.133029 0.499570
Si Si2 0.498412 0.501588 0.750000
Si Si3 0.090295 0.861586 0.432303
Si Si4 0.333335 0.666667 0.563219
O O1 0.476367 0.070189 0.637461
O O2 0.346302 0.123559 0.517522
O O3 0.550394 0.253017 0.495611
O O4 0.469597 0.076809 0.345857
O O5 0.113182 0.886819 0.250000
O O6 0.968098 0.812795 0.470846
O O7 0.333334 0.666667 0.750000
#
# Coordination Sequence:
#
# PCOD9578217 Si02
#       4
#    12   6  12   4
#     4  11  26  46  72 106 144 196 241 310 369 443
#     4  10  24  46  72 102 144 190 250 294 368 444
#     4  12  28  49  78 111 151 200 256 314 376 445
#     4  12  27  43  68 106 153 187 245 310 375 442
#
# _framework density 21.082964
#
# number of rings (size 3 to 8) (size 9 to 14) (size 15 to 20)
#    0.000    0.706    1.765    3.529   14.824    2.824 
#    0.000    0.000    0.000    0.000    0.000    0.000 
#    0.000    0.000    0.000    0.000    0.000    0.000 
#
# Total GULP energy -190572.968425 kJ/mol
# GULP energy per Si atom -5605.087307 kJ/mol
# Density = 2.103498 g / cm^3
# Si number density = 21.082964 Si / 1000 Ang^3
#
#
#
# Elastic Constant Matrix: (Units=GPa)
#
#
# Indices 1 2 3 4 5 6 
#
# 1 -12.1670 298.6407 67.0800 -0.4038 451.8349 -0.1633
# 2 298.6407 -12.1659 67.0712 0.4082 -451.8341 0.1657
# 3 67.0800 67.0712 132.5413 -0.0019 -0.0101 -0.0010
# 4 -0.4038 0.4082 -0.0019-1013.8012 0.9154 -450.3143
# 5 451.8349 -451.8341 -0.0101 0.9154-1017.2725 0.3698
# 6 -0.1633 0.1657 -0.0010 -450.3143 0.3698 -154.7373
#
#
#
# Elastic Compliance Matrix: (Units=1/GPa)
#
#
# Indices 1 2 3 4 5 6 
#
# 1 0.007808 -0.003233 -0.002315 0.000000 0.004904 0.000000
# 2 -0.003233 0.007808 -0.002315 0.000000 -0.004904 0.000000
# 3 -0.002315 -0.002315 0.009888 0.000000 0.000000 0.000000
# 4 0.000000 0.000000 0.000000 0.003370 -0.000001 -0.009809
# 5 0.004904 -0.004904 0.000000 -0.000001 0.003373 -0.000001
# 6 0.000000 0.000000 0.000000 -0.009809 -0.000001 0.022082
#
#
# Mechanical properties :
#
#
# Convention : Reuss Voigt Hill
#
# Bulk Modulus (GPa) = 102.28046 108.19913 105.23979
# Shear Modulus (GPa) = 68.19705 -458.80111 -195.30203
#
# Velocity S-wave (km/s) = 5.69361 -14.76785 -9.63515
# Velocity P-wave (km/s) = 9.58340 15.47106 8.58814
#
# Compressibility (1/GPa) = 0.00977704
#
# Stress axis : x y z
#
# Youngs Moduli (GPa) = 128.07185 128.07211 101.13088
#
# Poissons Ratio (x) = 0.41408 0.23414
# Poissons Ratio (y) = 0.41408 0.23414
# Poissons Ratio (z) = 0.29652 0.29652
#
# Static dielectric constant tensor:
#      x y z
#    x 1.723100 0.000000 0.000000 
#    y 0.000000 1.723090 0.000000 
#    z 0.000000 0.000000 1.760150 
# 
# From -- ./inp_files/702.got.cif
#   From: 2010.05.17/outbox.cif.g08.bks.cpg/sg163_1_cif.got.tgz:702.got - 2010.05.20 10:56:03.
