data_PCOD9578960
_publ_section_title
;
Structure prediction by ZEFSAII (Michael W. Deem and Ramdas Pophale) SiO2 
 PCOD9578960
Probable space group: P -3 C 1
;
_chemical_formula_sum "Si O2"
_cell_formula_units_Z 34
_cell_length_a 10.775769
_cell_length_b 10.775769
_cell_length_c 13.031457
_cell_angle_alpha 90.000000
_cell_angle_beta 90.000000
_cell_angle_gamma 120.000000
_cell_volume 1310.449087
_symmetry_space_group_name_H-M "P -3 C 1"
_symmetry_group_IT_number 165
_symmetry_cell_setting 'hexagonal'
loop_
_space_group_symop_operation_xyz
x,y,z
-y,x-y,z
-x+y,-x,z
x-y,-y,1/2-z
-x,-x+y,1/2-z
y,x,1/2-z
-x,-y,-z
y,-x+y,-z
x-y,x,-z
-x+y,y,1/2+z
x,x-y,1/2+z
-y,-x,1/2+z
loop_
_atom_site_type_symbol
_atom_site_label
_atom_site_fract_x
_atom_site_fract_y
_atom_site_fract_z
Si Si1 0.358893 0.358893 0.750000
Si Si2 0.654922 0.165200 0.955531
Si Si3 0.068664 0.313315 0.848148
Si Si4 0.000000 0.000000 0.618213
O O1 0.458295 0.366840 0.845741
O O2 0.224396 0.346196 0.812954
O O3 0.793998 0.324319 0.963765
O O4 0.680547 0.084188 0.050096
O O5 0.984771 0.138648 0.856636
O O6 0.000000 0.347146 0.750000
O O7 0.000000 0.000000 0.500000
#
# Coordination Sequence:
#
# PCOD9578960 Si02
#       4
#     6  12  12   4
#     4  12  26  50  92 118 168 244 278 366 434 502
#     4  10  29  60  80 124 172 227 296 354 427 529
#     4  12  25  49  83 130 171 221 285 361 437 511
#     4  12  22  44  79 124 170 206 290 358 436 500
#
# _framework density 25.945305000000001
#
# number of rings (size 3 to 8) (size 9 to 14) (size 15 to 20)
#    0.706    0.000    3.529    2.118    4.941    4.235 
#    6.353    0.000    0.000    0.000    0.000    0.000 
#    0.000    0.000    0.000    0.000    0.000    0.000 
#
# Total GULP energy -189895.110432 kJ/mol
# GULP energy per Si atom -5585.150307 kJ/mol
# Density = 2.588625 g / cm^3
# Si number density = 25.945305 Si / 1000 Ang^3
#
#
#
# Elastic Constant Matrix: (Units=GPa)
#
#
# Indices 1 2 3 4 5 6 
#
# 1 84.8523 116.8259 89.9518 33.9430 0.0000 0.0000
# 2 116.8259 84.8523 89.9518 -33.9430 0.0000 0.0000
# 3 89.9518 89.9518 240.6860 0.0000 0.0000 0.0000
# 4 33.9430 -33.9430 0.0000 31.9393 0.0000 0.0000
# 5 0.0000 0.0000 0.0000 0.0000 31.9393 33.9430
# 6 0.0000 0.0000 0.0000 0.0000 33.9430 -15.9868
#
#
#
# Elastic Compliance Matrix: (Units=1/GPa)
#
#
# Indices 1 2 3 4 5 6 
#
# 1 -0.001083 0.008521 -0.002780 0.010207 0.000000 0.000000
# 2 0.008521 -0.001083 -0.002780 -0.010207 0.000000 0.000000
# 3 -0.002780 -0.002780 0.006233 0.000000 0.000000 0.000000
# 4 0.010207 -0.010207 0.000000 0.009615 0.000000 0.000000
# 5 0.000000 0.000000 0.000000 0.000000 0.009615 0.020414
# 6 0.000000 0.000000 0.000000 0.000000 0.020414 -0.019209
#
#
# Mechanical properties :
#
#
# Convention : Reuss Voigt Hill
#
# Bulk Modulus (GPa) = 100.10570 111.53883 105.82227
# Shear Modulus (GPa) = 3347.79025 17.15578 1682.47302
#
# Velocity S-wave (km/s) = 35.96008 2.57423 25.49268
# Velocity P-wave (km/s) = 41.98615 7.20547 30.12271
#
# Compressibility (1/GPa) = 0.00998944
#
# Stress axis : x y z
#
# Youngs Moduli (GPa) = -923.21256 -923.21256 160.44616
#
# Poissons Ratio (x) = 7.86696 0.44602
# Poissons Ratio (y) = 7.86696 0.44602
# Poissons Ratio (z) = -2.56639 -2.56639
#
# Static dielectric constant tensor:
#      x y z
#    x 2.145500 0.000000 0.000000 
#    y 0.000000 2.145500 0.000000 
#    z 0.000000 0.000000 2.013050 
# 
# From -- ./inp_files/1429.got.cif
#   From: 2010.05.17/outbox.cif.g08.bks.cpg/sg165_1_cif.got.tgz:1429.got - 2010.05.20 11:02:39.
