data_PCOD9578587
_publ_section_title
;
Structure prediction by ZEFSAII (Michael W. Deem and Ramdas Pophale) SiO2 
 PCOD9578587
Probable space group: P -3 M 1
;
_chemical_formula_sum "Si O2"
_cell_formula_units_Z 72
_cell_length_a 12.701905
_cell_length_b 12.701905
_cell_length_c 31.731211
_cell_angle_alpha 90.000000
_cell_angle_beta 90.000000
_cell_angle_gamma 120.000000
_cell_volume 4433.584592
_symmetry_space_group_name_H-M "P -3 M 1"
_symmetry_group_IT_number 164
_symmetry_cell_setting 'hexagonal'
loop_
_space_group_symop_operation_xyz
x,y,z
-y,x-y,z
-x+y,-x,z
x-y,-y,-z
-x,-x+y,-z
y,x,-z
-x,-y,-z
y,-x+y,-z
x-y,x,-z
-x+y,y,z
x,x-y,z
-y,-x,z
loop_
_atom_site_type_symbol
_atom_site_label
_atom_site_fract_x
_atom_site_fract_y
_atom_site_fract_z
Si Si1 0.416444 0.082970 0.164018
Si Si2 0.747768 0.747730 0.407642
Si Si3 0.583562 0.916953 0.081970
Si Si4 0.917241 0.333577 0.327050
Si Si5 0.000000 0.749277 0.500000
Si Si6 0.250301 0.250301 0.000000
Si Si7 0.750397 0.749952 0.245806
O O1 0.547390 0.094780 0.170592
O O2 0.429908 0.214954 0.158534
O O3 0.331407 0.021569 0.204470
O O4 0.357467 0.001324 0.122679
O O5 0.747700 0.873850 0.402637
O O6 0.677711 0.656277 0.369902
O O7 0.696073 0.693403 0.454274
O O8 0.886434 0.772867 0.406120
O O9 0.451769 0.903537 0.075970
O O10 0.572308 0.786154 0.088247
O O11 0.666374 0.976949 0.040918
O O12 0.919947 0.459974 0.324144
O O13 0.778792 0.221208 0.326841
O O14 0.982611 0.312384 0.287227
O O15 0.881527 0.763053 0.501441
O O16 0.237914 0.118957 0.006043
O O17 0.890291 0.780581 0.246671
O O18 0.743300 0.871650 0.245154
#
# Coordination Sequence:
#
# PCOD9578587 Si02
#       7
#    12  12  12  12   6   6  12
#     4  10  20  34  53  76 102 132 165 200 236 277
#     4   9  16  27  46  71  97 122 150 189 237 286
#     4  10  20  34  52  74 101 133 168 205 246 292
#     4  10  20  33  49  68  92 124 161 199 236 276
#     4   8  13  22  39  66  96 122 148 182 230 284
#     4  10  20  34  52  74 100 130 166 208 254 300
#     4  10  20  34  53  76 100 124 152 191 239 288
#
# _framework density 16.23968
#
# number of rings (size 3 to 8) (size 9 to 14) (size 15 to 20)
#    0.000    2.333    0.000    3.250    0.000    1.333 
#    0.000    3.750    0.000   17.667    0.000    0.000 
#    0.000    0.000    0.000    0.000    0.000    0.000 
#
# Total GULP energy -401491.173998 kJ/mol
# GULP energy per Si atom -5576.266306 kJ/mol
# Density = 1.620272 g / cm^3
# Si number density = 16.239680 Si / 1000 Ang^3
#
#
#
# Elastic Constant Matrix: (Units=GPa)
#
#
# Indices 1 2 3 4 5 6 
#
# 1 115.6342 81.3903 93.1742 1.2593 0.0000 0.0000
# 2 81.3903 115.6342 93.1742 -1.2593 0.0000 0.0000
# 3 93.1742 93.1742 167.5983 0.0000 0.0000 0.0000
# 4 1.2593 -1.2593 0.0000 20.9974 0.0000 0.0000
# 5 0.0000 0.0000 0.0000 0.0000 20.9974 1.2593
# 6 0.0000 0.0000 0.0000 0.0000 1.2593 17.1220
#
#
#
# Elastic Compliance Matrix: (Units=1/GPa)
#
#
# Indices 1 2 3 4 5 6 
#
# 1 0.020018 -0.009314 -0.005951 -0.001759 0.000000 0.000000
# 2 -0.009314 0.020018 -0.005951 0.001759 0.000000 0.000000
# 3 -0.005951 -0.005951 0.012583 0.000000 0.000000 0.000000
# 4 -0.001759 0.001759 0.000000 0.047836 0.000000 0.000000
# 5 0.000000 0.000000 0.000000 0.000000 0.047836 -0.003518
# 6 0.000000 0.000000 0.000000 0.000000 -0.003518 0.058663
#
#
# Mechanical properties :
#
#
# Convention : Reuss Voigt Hill
#
# Bulk Modulus (GPa) = 98.15503 103.81603 100.98553
# Shear Modulus (GPa) = 19.78010 20.56523 20.17266
#
# Velocity S-wave (km/s) = 3.49379 3.56245 3.52829
# Velocity P-wave (km/s) = 8.76630 8.99931 8.88357
#
# Compressibility (1/GPa) = 0.01018797
#
# Stress axis : x y z
#
# Youngs Moduli (GPa) = 49.95597 49.95597 79.47295
#
# Poissons Ratio (x) = 0.46529 0.47291
# Poissons Ratio (y) = 0.46529 0.47291
# Poissons Ratio (z) = 0.29726 0.29726
#
# Static dielectric constant tensor:
#      x y z
#    x 1.510330 0.000000 0.000000 
#    y 0.000000 1.510330 0.000000 
#    z 0.000000 0.000000 1.556400 
# 
# From -- ./inp_files/5581.got.cif
#   From: 2010.05.17/outbox.cif.g08.bks.cpg/sg164_3_cif.got.tgz:5581.got - 2010.05.20 10:58:56.
