data_PCOD9578641
_publ_section_title
;
Structure prediction by ZEFSAII (Michael W. Deem and Ramdas Pophale) SiO2 
 PCOD9578641
Probable space group: P -3 M 1
;
_chemical_formula_sum "Si O2"
_cell_formula_units_Z 60
_cell_length_a 12.794511
_cell_length_b 12.794511
_cell_length_c 26.266708
_cell_angle_alpha 90.000000
_cell_angle_beta 90.000000
_cell_angle_gamma 120.000000
_cell_volume 3723.776972
_symmetry_space_group_name_H-M "P -3 M 1"
_symmetry_group_IT_number 164
_symmetry_cell_setting 'hexagonal'
loop_
_space_group_symop_operation_xyz
x,y,z
-y,x-y,z
-x+y,-x,z
x-y,-y,-z
-x,-x+y,-z
y,x,-z
-x,-y,-z
y,-x+y,-z
x-y,x,-z
-x+y,y,z
x,x-y,z
-y,-x,z
loop_
_atom_site_type_symbol
_atom_site_label
_atom_site_fract_x
_atom_site_fract_y
_atom_site_fract_z
Si Si1 0.332769 0.417850 0.545849
Si Si2 0.666372 0.581489 0.339436
Si Si3 0.084665 0.418381 0.049177
Si Si4 0.247870 0.999378 0.146875
Si Si5 0.084675 0.417767 0.243798
O O1 0.339717 0.339717 0.500000
O O2 0.213577 0.427153 0.542003
O O3 0.449762 0.550239 0.540986
O O4 0.336091 0.374094 0.603190
O O5 0.793580 0.587160 0.331742
O O6 0.557296 0.442705 0.336980
O O7 0.639800 0.652015 0.295852
O O8 0.214797 0.429593 0.041349
O O9 0.098904 0.549452 0.058019
O O10 0.023886 0.332361 0.097692
O O11 0.000000 0.361097 0.000000
O O12 0.108604 0.891397 0.147515
O O13 0.309843 0.982245 0.197064
O O14 0.256454 0.128227 0.145335
O O15 0.218668 0.437335 0.246409
O O16 0.088978 0.544489 0.235860
#
# Coordination Sequence:
#
# PCOD9578641 Si02
#       5
#    12  12  12  12  12
#     4   9  17  29  46  68  93 122 156 194 237 283
#     4   9  17  30  48  69  93 122 157 197 239 283
#     4  10  20  34  53  76 103 135 169 205 245 290
#     4  10  20  34  52  73  97 126 162 203 244 285
#     4  10  20  33  50  72  99 129 159 193 235 285
#
# _framework density 16.112673999999998
#
# number of rings (size 3 to 8) (size 9 to 14) (size 15 to 20)
#    0.000    2.400    0.000    2.800    0.000    2.400 
#    0.000    2.000    0.000   11.800    0.000    0.000 
#    0.000    0.000    0.000    0.000    0.000    0.000 
#
# Total GULP energy -334582.153998 kJ/mol
# GULP energy per Si atom -5576.369233 kJ/mol
# Density = 1.607600 g / cm^3
# Si number density = 16.112674 Si / 1000 Ang^3
#
#
#
# Elastic Constant Matrix: (Units=GPa)
#
#
# Indices 1 2 3 4 5 6 
#
# 1 107.8909 68.3776 82.7243 0.7877 0.0000 0.0000
# 2 68.3776 107.8909 82.7243 -0.7877 0.0000 0.0000
# 3 82.7243 82.7243 149.2848 0.0000 0.0000 0.0000
# 4 0.7877 -0.7877 0.0000 25.5967 0.0000 0.0000
# 5 0.0000 0.0000 0.0000 0.0000 25.5967 0.7877
# 6 0.0000 0.0000 0.0000 0.0000 0.7877 19.7567
#
#
#
# Elastic Compliance Matrix: (Units=1/GPa)
#
#
# Indices 1 2 3 4 5 6 
#
# 1 0.018581 -0.006758 -0.006551 -0.000780 0.000000 0.000000
# 2 -0.006758 0.018581 -0.006551 0.000780 0.000000 0.000000
# 3 -0.006551 -0.006551 0.013959 0.000000 0.000000 0.000000
# 4 -0.000780 0.000780 0.000000 0.039115 0.000000 0.000000
# 5 0.000000 0.000000 0.000000 0.000000 0.039115 -0.001560
# 6 0.000000 0.000000 0.000000 0.000000 -0.001560 0.050678
#
#
# Mechanical properties :
#
#
# Convention : Reuss Voigt Hill
#
# Bulk Modulus (GPa) = 87.72761 92.52435 90.12598
# Shear Modulus (GPa) = 22.36638 22.93940 22.65289
#
# Velocity S-wave (km/s) = 3.72979 3.77727 3.75361
# Velocity P-wave (km/s) = 8.55062 8.75053 8.65115
#
# Compressibility (1/GPa) = 0.01139892
#
# Stress axis : x y z
#
# Youngs Moduli (GPa) = 53.81971 53.81971 71.63829
#
# Poissons Ratio (x) = 0.36374 0.46931
# Poissons Ratio (y) = 0.36374 0.46931
# Poissons Ratio (z) = 0.35258 0.35258
#
# Static dielectric constant tensor:
#      x y z
#    x 1.507230 0.000000 0.000000 
#    y 0.000000 1.507230 0.000000 
#    z 0.000000 0.000000 1.543660 
# 
# From -- ./inp_files/5187.got.cif
#   From: 2010.05.17/outbox.cif.g08.bks.cpg/sg164_3_cif.got.tgz:5187.got - 2010.05.20 10:58:56.
