data_PCOD9578563
_publ_section_title
;
Structure prediction by ZEFSAII (Michael W. Deem and Ramdas Pophale) SiO2 
 PCOD9578563
Probable space group: P -3 M 1
;
_chemical_formula_sum "Si O2"
_cell_formula_units_Z 84
_cell_length_a 32.203216
_cell_length_b 32.203216
_cell_length_c 5.162880
_cell_angle_alpha 90.000000
_cell_angle_beta 90.000000
_cell_angle_gamma 120.000000
_cell_volume 4636.829776
_symmetry_space_group_name_H-M "P -3 M 1"
_symmetry_group_IT_number 164
_symmetry_cell_setting 'hexagonal'
loop_
_space_group_symop_operation_xyz
x,y,z
-y,x-y,z
-x+y,-x,z
x-y,-y,-z
-x,-x+y,-z
y,x,-z
-x,-y,-z
y,-x+y,-z
x-y,x,-z
-x+y,y,z
x,x-y,z
-y,-x,z
loop_
_atom_site_type_symbol
_atom_site_label
_atom_site_fract_x
_atom_site_fract_y
_atom_site_fract_z
Si Si1 0.643650 0.612382 0.743243
Si Si2 0.871234 0.435617 0.348214
Si Si3 0.697512 0.749419 0.410823
Si Si4 0.260434 0.427840 0.813581
Si Si5 0.113229 0.322368 0.930662
Si Si6 0.806288 0.403144 0.856702
Si Si7 0.304444 0.786338 0.189392
Si Si8 0.531628 0.648442 0.492899
O O1 0.612771 0.612771 0.500000
O O2 0.697601 0.654543 0.683575
O O3 0.641758 0.561819 0.733226
O O4 0.624822 0.624822 0.000000
O O5 0.829472 0.414736 0.569299
O O6 0.896407 0.403098 0.387066
O O7 0.849537 0.424769 0.061888
O O8 0.739801 0.739801 0.500000
O O9 0.683611 0.769717 0.660205
O O10 0.705434 0.782579 0.163353
O O11 0.211833 0.423665 0.678905
O O12 0.238618 0.379853 0.986793
O O13 0.306273 0.430904 0.666250
O O14 0.283505 0.477199 0.971307
O O15 0.154189 0.308377 0.903519
O O16 0.777666 0.346649 0.905245
O O17 0.261003 0.738998 0.305429
O O18 0.328919 0.829534 0.388177
#
# Coordination Sequence:
#
# PCOD9578563 Si02
#       8
#    12   6  12  12  12   6  12  12
#     4  11  24  37  57  80 107 142 181 224 272 330
#     4  10  22  36  62  79 100 142 170 212 260 328
#     4  11  21  37  56  77 112 153 192 224 279 352
#     4  10  20  32  54  83 110 140 174 224 280 335
#     4  11  22  35  53  84 115 145 184 243 293 325
#     4  10  20  38  54  81 110 136 172 204 252 316
#     4  10  21  35  57  83 108 139 175 212 260 322
#     4  11  21  38  58  77 110 138 181 218 272 326
#
# _framework density 18.115824
#
# number of rings (size 3 to 8) (size 9 to 14) (size 15 to 20)
#    0.000    1.429    2.857    3.857    2.000    0.000 
#    0.429    0.714    0.000    0.000    0.000    0.000 
#    0.000    0.000    0.000    0.000    0.000    0.000 
#
# Total GULP energy -468305.576533 kJ/mol
# GULP energy per Si atom -5575.066387 kJ/mol
# Density = 1.807459 g / cm^3
# Si number density = 18.115824 Si / 1000 Ang^3
#
#
#
# Elastic Constant Matrix: (Units=GPa)
#
#
# Indices 1 2 3 4 5 6 
#
# 1 76.9192 4.8730 25.5947 -6.3650 0.0000 0.0000
# 2 4.8730 76.9192 25.5947 6.3650 0.0000 0.0000
# 3 25.5947 25.5947 66.0466 0.0000 0.0000 0.0000
# 4 -6.3650 6.3650 0.0000 25.0368 0.0000 0.0000
# 5 0.0000 0.0000 0.0000 0.0000 25.0368 -6.3650
# 6 0.0000 0.0000 0.0000 0.0000 -6.3650 36.0231
#
#
#
# Elastic Compliance Matrix: (Units=1/GPa)
#
#
# Indices 1 2 3 4 5 6 
#
# 1 0.015337 0.000804 -0.006255 0.003695 0.000000 0.000000
# 2 0.000804 0.015337 -0.006255 -0.003695 0.000000 0.000000
# 3 -0.006255 -0.006255 0.019989 0.000000 0.000000 0.000000
# 4 0.003695 -0.003695 0.000000 0.041820 0.000000 0.000000
# 5 0.000000 0.000000 0.000000 0.000000 0.041820 0.007389
# 6 0.000000 0.000000 0.000000 0.000000 0.007389 0.029066
#
#
# Mechanical properties :
#
#
# Convention : Reuss Voigt Hill
#
# Bulk Modulus (GPa) = 36.69668 36.89000 36.79334
# Shear Modulus (GPa) = 25.52809 28.14084 26.83447
#
# Velocity S-wave (km/s) = 3.75795 3.94558 3.85291
# Velocity P-wave (km/s) = 6.25542 6.41595 6.33619
#
# Compressibility (1/GPa) = 0.02725043
#
# Stress axis : x y z
#
# Youngs Moduli (GPa) = 65.20277 65.20277 50.02817
#
# Poissons Ratio (x) = -0.05242 0.31292
# Poissons Ratio (y) = -0.05242 0.31292
# Poissons Ratio (z) = 0.40784 0.40784
#
# Static dielectric constant tensor:
#      x y z
#    x 1.683920 0.000000 0.000000 
#    y 0.000000 1.683920 0.000000 
#    z 0.000000 0.000000 1.673500 
# 
# From -- ./inp_files/869.got.cif
#   From: 2010.05.17/outbox.cif.g08.bks.cpg/sg164_1_cif.got.tgz:869.got - 2010.05.20 10:58:56.
