data_PCOD9578903
_publ_section_title
;
Structure prediction by ZEFSAII (Michael W. Deem and Ramdas Pophale) SiO2 
 PCOD9578903
Probable space group: P -3 C 1
;
_chemical_formula_sum "Si O2"
_cell_formula_units_Z 54
_cell_length_a 11.909704
_cell_length_b 11.909704
_cell_length_c 22.920896
_cell_angle_alpha 90.000000
_cell_angle_beta 90.000000
_cell_angle_gamma 120.000000
_cell_volume 2815.555924
_symmetry_space_group_name_H-M "P -3 C 1"
_symmetry_group_IT_number 165
_symmetry_cell_setting 'hexagonal'
loop_
_space_group_symop_operation_xyz
x,y,z
-y,x-y,z
-x+y,-x,z
x-y,-y,1/2-z
-x,-x+y,1/2-z
y,x,1/2-z
-x,-y,-z
y,-x+y,-z
x-y,x,-z
-x+y,y,1/2+z
x,x-y,1/2+z
-y,-x,1/2+z
loop_
_atom_site_type_symbol
_atom_site_label
_atom_site_fract_x
_atom_site_fract_y
_atom_site_fract_z
Si Si1 0.590121 0.922961 0.068152
Si Si2 0.934955 0.602995 0.951970
Si Si3 0.374167 0.433068 0.312299
Si Si4 0.711187 0.093370 0.662148
Si Si5 0.000000 0.850428 0.750000
O O1 0.601578 0.796860 0.063069
O O2 0.448392 0.903267 0.054297
O O3 0.623718 0.973301 0.133588
O O4 0.675142 0.022700 0.017574
O O5 0.048365 0.688182 0.905419
O O6 0.373304 0.373304 0.250000
O O7 0.244988 0.440185 0.324227
O O8 0.507567 0.570318 0.315793
O O9 0.774097 0.018161 0.695839
O O10 0.880476 0.880476 0.750000
#
# Coordination Sequence:
#
# PCOD9578903 Si02
#       5
#    12  12  12  12   6
#     4  10  22  39  61  91 119 163 201 263 308 374
#     4  10  22  40  64  89 123 160 212 258 317 374
#     4  11  24  39  66  91 128 162 210 265 313 378
#     4  11  23  42  62  96 124 168 214 261 320 368
#     4  10  24  40  62  92 136 176 206 252 316 398
#
# _framework density 19.17916
#
# number of rings (size 3 to 8) (size 9 to 14) (size 15 to 20)
#    0.222    1.333    1.111    2.889    6.222    0.000 
#    0.000    4.444    0.000    1.778    0.000    0.000 
#    0.000    0.000    0.000    0.000    0.000    0.000 
#
# Total GULP energy -301267.860101 kJ/mol
# GULP energy per Si atom -5579.034446 kJ/mol
# Density = 1.913551 g / cm^3
# Si number density = 19.179160 Si / 1000 Ang^3
#
#
#
# Elastic Constant Matrix: (Units=GPa)
#
#
# Indices 1 2 3 4 5 6 
#
# 1 187.8781 -48.5240 64.7736 50.3593 0.0000 0.0000
# 2 -48.5240 187.8781 64.7736 -50.3593 0.0000 0.0000
# 3 64.7736 64.7736 169.5109 0.0000 0.0000 0.0000
# 4 50.3593 -50.3593 0.0000 20.2333 0.0000 0.0000
# 5 0.0000 0.0000 0.0000 0.0000 20.2333 50.3593
# 6 0.0000 0.0000 0.0000 0.0000 50.3593 118.2010
#
#
#
# Elastic Compliance Matrix: (Units=1/GPa)
#
#
# Indices 1 2 3 4 5 6 
#
# 1 -0.029449 0.040579 -0.004253 0.174295 0.000000 0.000000
# 2 0.040579 -0.029449 -0.004253 -0.174295 0.000000 0.000000
# 3 -0.004253 -0.004253 0.009150 0.000000 0.000000 0.000000
# 4 0.174295 -0.174295 0.000000 -0.818194 0.000000 0.000000
# 5 0.000000 0.000000 0.000000 0.000000 -0.818194 0.348590
# 6 0.000000 0.000000 0.000000 0.000000 0.348590 -0.140056
#
#
# Mechanical properties :
#
#
# Convention : Reuss Voigt Hill
#
# Bulk Modulus (GPa) = 69.45773 78.59039 74.02406
# Shear Modulus (GPa) = -2.65176 62.68312 30.01568
#
# Velocity S-wave (km/s) = -1.17713 5.72310 3.96032
# Velocity P-wave (km/s) = 5.86910 9.20531 7.71959
#
# Compressibility (1/GPa) = 0.01439725
#
# Stress axis : x y z
#
# Youngs Moduli (GPa) = -33.95673 -33.95673 109.29557
#
# Poissons Ratio (x) = 1.37792 0.46481
# Poissons Ratio (y) = 1.37792 0.46481
# Poissons Ratio (z) = -0.14441 -0.14441
#
# Static dielectric constant tensor:
#      x y z
#    x 1.698660 0.000000 0.000000 
#    y 0.000000 1.698660 0.000000 
#    z 0.000000 0.000000 1.675130 
# 
# From -- ./inp_files/2870.got.cif
#   From: 2010.05.17/outbox.cif.g08.bks.cpg/sg165_2_cif.got.tgz:2870.got - 2010.05.20 11:02:39.
