data_PCOD9578491
_publ_section_title
;
Structure prediction by ZEFSAII (Michael W. Deem and Ramdas Pophale) SiO2 
 PCOD9578491
Probable space group: P -3 M 1
;
_chemical_formula_sum "Si O2"
_cell_formula_units_Z 84
_cell_length_a 19.729630
_cell_length_b 19.729630
_cell_length_c 13.419027
_cell_angle_alpha 90.000000
_cell_angle_beta 90.000000
_cell_angle_gamma 120.000000
_cell_volume 4523.655669
_symmetry_space_group_name_H-M "P -3 M 1"
_symmetry_group_IT_number 164
_symmetry_cell_setting 'hexagonal'
loop_
_space_group_symop_operation_xyz
x,y,z
-y,x-y,z
-x+y,-x,z
x-y,-y,-z
-x,-x+y,-z
y,x,-z
-x,-y,-z
y,-x+y,-z
x-y,x,-z
-x+y,y,z
x,x-y,z
-y,-x,z
loop_
_atom_site_type_symbol
_atom_site_label
_atom_site_fract_x
_atom_site_fract_y
_atom_site_fract_z
Si Si1 0.084577 0.326518 0.196449
Si Si2 0.156109 0.999507 0.879884
Si Si3 0.694885 0.046942 0.593776
Si Si4 0.619389 0.537287 0.302131
Si Si5 0.332924 0.507742 0.886502
Si Si6 0.511156 0.177681 0.494609
Si Si7 0.541141 0.926528 0.075541
O O1 0.169196 0.338392 0.166774
O O2 0.019725 0.242079 0.154757
O O3 0.077013 0.321742 0.315996
O O4 0.075120 0.397912 0.153245
O O5 0.144288 0.072144 0.847619
O O6 0.083767 0.916234 0.846975
O O7 0.156354 0.000000 0.000000
O O8 0.686369 0.118207 0.551007
O O9 0.703158 0.000000 0.500000
O O10 0.614020 0.984876 0.646598
O O11 0.528739 0.471262 0.297227
O O12 0.655143 0.546782 0.192753
O O13 0.659983 0.504450 0.377614
O O14 0.251753 0.503506 0.869281
O O15 0.405567 0.594434 0.866601
O O16 0.341197 0.487223 0.999685
O O17 0.582503 0.165005 0.525429
O O18 0.530946 0.265473 0.511544
O O19 0.463284 0.926567 0.116044
O O20 0.582600 0.000000 0.000000
#
# Coordination Sequence:
#
# PCOD9578491 Si02
#       7
#    12  12  12  12  12  12  12
#     4  11  22  37  57  82 112 145 186 233 279 327
#     4   9  18  34  58  88 119 147 174 211 269 341
#     4  10  21  37  53  71  98 137 182 225 271 321
#     4   9  18  32  51  73  98 131 170 214 265 323
#     4  10  19  32  51  76 105 135 169 210 260 314
#     4  10  19  32  51  75 101 129 168 221 280 334
#     4  10  21  36  54  77 109 150 190 224 261 313
#
# _framework density 18.569051999999999
#
# number of rings (size 3 to 8) (size 9 to 14) (size 15 to 20)
#    0.000    2.143    0.000    3.429    0.000    4.571 
#    0.000    9.286    0.000    0.286    0.000    0.000 
#    0.000    2.857    0.000    0.429    0.000    0.000 
#
# Total GULP energy -468579.264524 kJ/mol
# GULP energy per Si atom -5578.324578 kJ/mol
# Density = 1.852679 g / cm^3
# Si number density = 18.569052 Si / 1000 Ang^3
#
#
#
# Elastic Constant Matrix: (Units=GPa)
#
#
# Indices 1 2 3 4 5 6 
#
# 1 66.3021 30.1168 25.2382 0.7782 0.0000 0.0000
# 2 30.1168 66.3021 25.2382 -0.7782 0.0000 0.0000
# 3 25.2382 25.2382 74.5894 0.0000 0.0000 0.0000
# 4 0.7782 -0.7782 0.0000 19.6173 0.0000 0.0000
# 5 0.0000 0.0000 0.0000 0.0000 19.6173 0.7782
# 6 0.0000 0.0000 0.0000 0.0000 0.7782 18.0927
#
#
#
# Elastic Compliance Matrix: (Units=1/GPa)
#
#
# Indices 1 2 3 4 5 6 
#
# 1 0.020143 -0.007539 -0.004265 -0.001098 0.000000 0.000000
# 2 -0.007539 0.020143 -0.004265 0.001098 0.000000 0.000000
# 3 -0.004265 -0.004265 0.016293 0.000000 0.000000 0.000000
# 4 -0.001098 0.001098 0.000000 0.051063 0.000000 0.000000
# 5 0.000000 0.000000 0.000000 0.000000 0.051063 -0.002196
# 6 0.000000 0.000000 0.000000 0.000000 -0.002196 0.055365
#
#
# Mechanical properties :
#
#
# Convention : Reuss Voigt Hill
#
# Bulk Modulus (GPa) = 40.91325 40.93110 40.92217
# Shear Modulus (GPa) = 19.65757 19.90549 19.78153
#
# Velocity S-wave (km/s) = 3.25717 3.27765 3.26743
# Velocity P-wave (km/s) = 6.01884 6.03444 6.02665
#
# Compressibility (1/GPa) = 0.02444196
#
# Stress axis : x y z
#
# Youngs Moduli (GPa) = 49.64409 49.64409 61.37699
#
# Poissons Ratio (x) = 0.37428 0.26176
# Poissons Ratio (y) = 0.37428 0.26176
# Poissons Ratio (z) = 0.21172 0.21172
#
# Static dielectric constant tensor:
#      x y z
#    x 1.642960 0.000000 0.000000 
#    y 0.000000 1.642960 0.000000 
#    z 0.000000 0.000000 1.658780 
# 
# From -- ./inp_files/2900.got.cif
#   From: 2010.05.17/outbox.cif.g08.bks.cpg/sg164_2_cif.got.tgz:2900.got - 2010.05.20 10:58:56.
