data_PCOD9578219
_publ_section_title
;
Structure prediction by ZEFSAII (Michael W. Deem and Ramdas Pophale) SiO2 
 PCOD9578219
Probable space group: P -3 1 C
;
_chemical_formula_sum "Si O2"
_cell_formula_units_Z 60
_cell_length_a 17.059918
_cell_length_b 17.059918
_cell_length_c 11.427134
_cell_angle_alpha 90.000000
_cell_angle_beta 90.000000
_cell_angle_gamma 120.000000
_cell_volume 2880.194592
_symmetry_space_group_name_H-M "P -3 1 C"
_symmetry_group_IT_number 163
_symmetry_cell_setting 'hexagonal'
loop_
_space_group_symop_operation_xyz
x,y,z
-y,x-y,z
-x+y,-x,z
-y,-x,1/2-z
-x+y,y,1/2-z
x,x-y,1/2-z
-x,-y,-z
y,-x+y,-z
x-y,x,-z
y,x,1/2+z
x-y,-y,1/2+z
-x,-x+y,1/2+z
loop_
_atom_site_type_symbol
_atom_site_label
_atom_site_fract_x
_atom_site_fract_y
_atom_site_fract_z
Si Si1 0.768519 0.150182 0.009180
Si Si2 0.695548 0.540338 0.828699
Si Si3 0.946246 0.718035 0.801341
Si Si4 0.606351 0.393650 0.250000
Si Si5 0.298350 0.149175 0.250000
Si Si6 0.892192 0.434603 0.494179
O O1 0.833332 0.240949 0.939069
O O2 0.771478 0.069895 0.939543
O O3 0.800252 0.159010 0.139439
O O4 0.668195 0.132238 0.996996
O O5 0.754890 0.509779 0.750000
O O6 0.694456 0.621197 0.754744
O O7 0.607028 0.462698 0.891185
O O8 0.865145 0.730290 0.750000
O O9 0.042846 0.800931 0.774358
O O10 0.569875 0.284938 0.250000
O O11 0.566115 0.413253 0.367954
O O12 0.000000 0.500000 0.500000
#
# Coordination Sequence:
#
# PCOD9578219 Si02
#       6
#    12  12  12   6   6  12
#     4  10  25  41  66  98 132 176 230 275 349 411
#     4   9  22  46  65  93 141 177 229 287 345 413
#     4   9  23  45  65  99 134 171 229 281 336 428
#     4  10  26  47  64  94 150 184 230 284 367 430
#     4  12  24  39  76  94 138 188 208 280 367 408
#     4  12  25  40  69 103 135 178 241 295 338 416
#
# _framework density 20.831925999999999
#
# number of rings (size 3 to 8) (size 9 to 14) (size 15 to 20)
#    0.200    2.000    0.000    2.400   12.600    6.400 
#    1.800    0.000    0.000    1.200    0.000    0.000 
#    0.000    0.000    0.000    0.000    0.000    0.000 
#
# Total GULP energy -334931.090456 kJ/mol
# GULP energy per Si atom -5582.184841 kJ/mol
# Density = 2.078451 g / cm^3
# Si number density = 20.831926 Si / 1000 Ang^3
#
#
#
# Elastic Constant Matrix: (Units=GPa)
#
#
# Indices 1 2 3 4 5 6 
#
# 1 91.3189 53.5961 66.5517 -0.0002 12.2357 0.0000
# 2 53.5961 91.3189 66.5517 0.0002 -12.2357 0.0000
# 3 66.5517 66.5517 173.0944 0.0000 0.0000 0.0000
# 4 -0.0002 0.0002 0.0000 20.4436 0.0000 -12.2357
# 5 12.2357 -12.2357 0.0000 0.0000 20.4436 -0.0002
# 6 0.0000 0.0000 0.0000 -12.2357 -0.0002 18.8614
#
#
#
# Elastic Compliance Matrix: (Units=1/GPa)
#
#
# Indices 1 2 3 4 5 6 
#
# 1 0.027001 -0.016333 -0.004102 0.000000 -0.025936 0.000000
# 2 -0.016333 0.027001 -0.004102 0.000000 0.025936 0.000000
# 3 -0.004102 -0.004102 0.008931 0.000000 0.000000 0.000000
# 4 0.000000 0.000000 0.000000 0.079961 0.000000 0.051872
# 5 -0.025936 0.025936 0.000000 0.000000 0.079961 0.000001
# 6 0.000000 0.000000 0.000000 0.051872 0.000001 0.086669
#
#
# Mechanical properties :
#
#
# Convention : Reuss Voigt Hill
#
# Bulk Modulus (GPa) = 72.14736 81.01457 76.58097
# Shear Modulus (GPa) = 13.76588 23.21857 18.49222
#
# Velocity S-wave (km/s) = 2.57340 3.34213 2.98264
# Velocity P-wave (km/s) = 6.59834 7.33943 6.97873
#
# Compressibility (1/GPa) = 0.01386052
#
# Stress axis : x y z
#
# Youngs Moduli (GPa) = 37.03554 37.03554 111.96724
#
# Poissons Ratio (x) = 0.60491 0.45925
# Poissons Ratio (y) = 0.60491 0.45925
# Poissons Ratio (z) = 0.15191 0.15191
#
# Static dielectric constant tensor:
#      x y z
#    x 1.704560 0.000000 0.000000 
#    y 0.000000 1.704560 0.000000 
#    z 0.000000 0.000000 1.790390 
# 
# From -- ./inp_files/1785.got.cif
#   From: 2010.05.17/outbox.cif.g08.bks.cpg/sg163_1_cif.got.tgz:1785.got - 2010.05.20 10:56:03.
