data_PCOD9578668
_publ_section_title
;
Structure prediction by ZEFSAII (Michael W. Deem and Ramdas Pophale) SiO2 
 PCOD9578668
Probable space group: P -3 M 1
;
_chemical_formula_sum "Si O2"
_cell_formula_units_Z 66
_cell_length_a 12.638955
_cell_length_b 12.638955
_cell_length_c 28.795065
_cell_angle_alpha 90.000000
_cell_angle_beta 90.000000
_cell_angle_gamma 120.000000
_cell_volume 3983.556948
_symmetry_space_group_name_H-M "P -3 M 1"
_symmetry_group_IT_number 164
_symmetry_cell_setting 'hexagonal'
loop_
_space_group_symop_operation_xyz
x,y,z
-y,x-y,z
-x+y,-x,z
x-y,-y,-z
-x,-x+y,-z
y,x,-z
-x,-y,-z
y,-x+y,-z
x-y,x,-z
-x+y,y,z
x,x-y,z
-y,-x,z
loop_
_atom_site_type_symbol
_atom_site_label
_atom_site_fract_x
_atom_site_fract_y
_atom_site_fract_z
Si Si1 0.000356 0.748744 0.363320
Si Si2 0.667183 0.082463 0.090933
Si Si3 0.251775 0.999884 0.181855
Si Si4 0.000000 0.747944 0.000000
Si Si5 0.584912 0.917852 0.273052
Si Si6 0.081636 0.415127 0.454344
O O1 0.111021 0.888980 0.361803
O O2 0.017492 0.683497 0.318356
O O3 0.019807 0.689667 0.409665
O O4 0.871418 0.742836 0.363183
O O5 0.537241 0.074482 0.090975
O O6 0.776914 0.223087 0.090828
O O7 0.686688 0.020993 0.136607
O O8 0.686324 0.020569 0.045309
O O9 0.239900 0.119950 0.187985
O O10 0.312278 0.977384 0.227074
O O11 0.118999 0.881002 0.175734
O O12 0.880367 0.760734 0.994332
O O13 0.462076 0.924151 0.272605
O O14 0.555040 0.777520 0.274509
O O15 0.214204 0.428407 0.460219
O O16 0.093619 0.546810 0.447231
O O17 0.000000 0.355934 0.500000
#
# Coordination Sequence:
#
# PCOD9578668 Si02
#       6
#    12  12  12   6  12  12
#     4  10  20  34  53  76 102 132 167 209 255 301
#     4  10  20  34  52  74 102 136 172 209 250 298
#     4  10  20  34  54  78 104 134 168 209 254 300
#     4  10  20  34  54  78 104 134 168 210 256 302
#     4  10  20  34  53  76 103 135 170 209 252 300
#     4  10  20  34  53  76 103 135 170 208 250 298
#
# _framework density 16.568107999999999
#
# number of rings (size 3 to 8) (size 9 to 14) (size 15 to 20)
#    0.000    2.000    0.000    4.000    0.000    0.000 
#    0.000    5.455    0.000   16.727    0.000    0.000 
#    0.000    0.000    0.000    0.000    0.000    0.000 
#
# Total GULP energy -368534.547366 kJ/mol
# GULP energy per Si atom -5583.856778 kJ/mol
# Density = 1.653040 g / cm^3
# Si number density = 16.568108 Si / 1000 Ang^3
#
#
#
# Elastic Constant Matrix: (Units=GPa)
#
#
# Indices 1 2 3 4 5 6 
#
# 1 149.5271 111.1667 104.3919 1.8624 0.0000 0.0000
# 2 111.1667 149.5271 104.3919 -1.8624 0.0000 0.0000
# 3 104.3919 104.3919 168.7973 0.0000 0.0000 0.0000
# 4 1.8624 -1.8624 0.0000 20.4314 0.0000 0.0000
# 5 0.0000 0.0000 0.0000 0.0000 20.4314 1.8624
# 6 0.0000 0.0000 0.0000 0.0000 1.8624 19.1802
#
#
#
# Elastic Compliance Matrix: (Units=1/GPa)
#
#
# Indices 1 2 3 4 5 6 
#
# 1 0.016951 -0.009350 -0.004700 -0.002397 0.000000 0.000000
# 2 -0.009350 0.016951 -0.004700 0.002397 0.000000 0.000000
# 3 -0.004700 -0.004700 0.011738 0.000000 0.000000 0.000000
# 4 -0.002397 0.002397 0.000000 0.049381 0.000000 0.000000
# 5 0.000000 0.000000 0.000000 0.000000 0.049381 -0.004795
# 6 0.000000 0.000000 0.000000 0.000000 -0.004795 0.052603
#
#
# Mechanical properties :
#
#
# Convention : Reuss Voigt Hill
#
# Bulk Modulus (GPa) = 122.89162 123.08361 122.98762
# Shear Modulus (GPa) = 21.07747 21.86867 21.47307
#
# Velocity S-wave (km/s) = 3.57062 3.63702 3.60397
# Velocity P-wave (km/s) = 9.55687 9.59625 9.57658
#
# Compressibility (1/GPa) = 0.00813725
#
# Stress axis : x y z
#
# Youngs Moduli (GPa) = 58.99404 58.99404 85.19210
#
# Poissons Ratio (x) = 0.55162 0.40044
# Poissons Ratio (y) = 0.55162 0.40044
# Poissons Ratio (z) = 0.27730 0.27730
#
# Static dielectric constant tensor:
#      x y z
#    x 1.523240 0.000000 0.000000 
#    y 0.000000 1.523240 0.000000 
#    z 0.000000 0.000000 1.540410 
# 
# From -- ./inp_files/5413.got.cif
#   From: 2010.05.17/outbox.cif.g08.bks.cpg/sg164_3_cif.got.tgz:5413.got - 2010.05.20 10:58:56.
