data_PCOD9578615
_publ_section_title
;
Structure prediction by ZEFSAII (Michael W. Deem and Ramdas Pophale) SiO2 
 PCOD9578615
Probable space group: P -3 M 1
;
_chemical_formula_sum "Si O2"
_cell_formula_units_Z 60
_cell_length_a 18.107114
_cell_length_b 18.107114
_cell_length_c 12.754898
_cell_angle_alpha 90.000000
_cell_angle_beta 90.000000
_cell_angle_gamma 120.000000
_cell_volume 3621.646798
_symmetry_space_group_name_H-M "P -3 M 1"
_symmetry_group_IT_number 164
_symmetry_cell_setting 'hexagonal'
loop_
_space_group_symop_operation_xyz
x,y,z
-y,x-y,z
-x+y,-x,z
x-y,-y,-z
-x,-x+y,-z
y,x,-z
-x,-y,-z
y,-x+y,-z
x-y,x,-z
-x+y,y,z
x,x-y,z
-y,-x,z
loop_
_atom_site_type_symbol
_atom_site_label
_atom_site_fract_x
_atom_site_fract_y
_atom_site_fract_z
Si Si1 0.363006 0.265943 0.623428
Si Si2 0.839982 0.506959 0.194186
Si Si3 0.636994 0.902937 0.623429
Si Si4 0.268270 0.903004 0.000001
Si Si5 0.160019 0.666978 0.194187
O O1 0.335739 0.167870 0.645681
O O2 0.291389 0.291389 0.645122
O O3 0.384524 0.281264 0.500000
O O4 0.443800 0.322035 0.696920
O O5 0.740651 0.481301 0.190881
O O6 0.850297 0.425149 0.181825
O O7 0.878238 0.556200 0.303079
O O8 0.885362 0.574897 0.101297
O O9 0.664259 0.832130 0.645683
O O10 0.168831 0.831170 0.000003
O O11 0.310466 0.885363 0.101299
O O12 0.290316 0.000000 0.000000
O O13 0.149703 0.574852 0.181828
O O14 0.259350 0.740650 0.190879
#
# Coordination Sequence:
#
# PCOD9578615 Si02
#       5
#    12  12  12  12  12
#     4   9  18  32  49  69  93 122 156 194 237 282
#     4  10  20  33  49  70  97 128 160 193 230 272
#     4   9  18  32  49  69  93 122 156 194 237 282
#     4  10  21  35  51  72  97 125 156 192 235 279
#     4  10  20  33  49  70  97 128 160 193 230 272
#
# _framework density 16.567049000000001
#
# number of rings (size 3 to 8) (size 9 to 14) (size 15 to 20)
#    0.000    2.400    0.000    2.200    0.000    4.800 
#    0.000    4.000    0.000    3.000    0.000    2.800 
#    0.000    9.600    0.000    0.400    0.000    0.800 
#
# Total GULP energy -334620.622688 kJ/mol
# GULP energy per Si atom -5577.010378 kJ/mol
# Density = 1.652934 g / cm^3
# Si number density = 16.567049 Si / 1000 Ang^3
#
#
#
# Elastic Constant Matrix: (Units=GPa)
#
#
# Indices 1 2 3 4 5 6 
#
# 1 100.9749 87.9948 40.2000 -0.0002 0.0000 0.0000
# 2 87.9948 100.9749 40.2000 0.0002 0.0000 0.0000
# 3 40.2000 40.2000 50.8529 0.0000 0.0000 0.0000
# 4 -0.0002 0.0002 0.0000 17.0058 0.0000 0.0000
# 5 0.0000 0.0000 0.0000 0.0000 17.0058 -0.0002
# 6 0.0000 0.0000 0.0000 0.0000 -0.0002 6.4900
#
#
#
# Elastic Compliance Matrix: (Units=1/GPa)
#
#
# Indices 1 2 3 4 5 6 
#
# 1 0.042508 -0.034534 -0.006303 0.000001 0.000000 0.000000
# 2 -0.034534 0.042508 -0.006303 -0.000001 0.000000 0.000000
# 3 -0.006303 -0.006303 0.029630 0.000000 0.000000 0.000000
# 4 0.000001 -0.000001 0.000000 0.058803 0.000000 0.000000
# 5 0.000000 0.000000 0.000000 0.000000 0.058803 0.000002
# 6 0.000000 0.000000 0.000000 0.000000 0.000002 0.154083
#
#
# Mechanical properties :
#
#
# Convention : Reuss Voigt Hill
#
# Bulk Modulus (GPa) = 49.10534 65.51027 57.30781
# Shear Modulus (GPa) = 10.25843 13.72751 11.99297
#
# Velocity S-wave (km/s) = 2.49109 2.88167 2.69347
# Velocity P-wave (km/s) = 6.16269 7.12042 6.65880
#
# Compressibility (1/GPa) = 0.02036438
#
# Stress axis : x y z
#
# Youngs Moduli (GPa) = 23.52524 23.52524 33.74924
#
# Poissons Ratio (x) = 0.81242 0.21273
# Poissons Ratio (y) = 0.81242 0.21273
# Poissons Ratio (z) = 0.14829 0.14829
#
# Static dielectric constant tensor:
#      x y z
#    x 1.540310 0.000000 0.000000 
#    y 0.000000 1.540310 0.000000 
#    z 0.000000 0.000000 1.574450 
# 
# From -- ./inp_files/2707.got.cif
#   From: 2010.05.17/outbox.cif.g08.bks.cpg/sg164_2_cif.got.tgz:2707.got - 2010.05.20 10:58:56.
