data_PCOD9578847
_publ_section_title
;
Structure prediction by ZEFSAII (Michael W. Deem and Ramdas Pophale) SiO2 
 PCOD9578847
Probable space group: P -3 C 1
;
_chemical_formula_sum "Si O2"
_cell_formula_units_Z 36
_cell_length_a 19.602703
_cell_length_b 19.602703
_cell_length_c 5.176602
_cell_angle_alpha 90.000000
_cell_angle_beta 90.000000
_cell_angle_gamma 120.000000
_cell_volume 1722.690772
_symmetry_space_group_name_H-M "P -3 C 1"
_symmetry_group_IT_number 165
_symmetry_cell_setting 'hexagonal'
loop_
_space_group_symop_operation_xyz
x,y,z
-y,x-y,z
-x+y,-x,z
x-y,-y,1/2-z
-x,-x+y,1/2-z
y,x,1/2-z
-x,-y,-z
y,-x+y,-z
x-y,x,-z
-x+y,y,1/2+z
x,x-y,1/2+z
-y,-x,1/2+z
loop_
_atom_site_type_symbol
_atom_site_label
_atom_site_fract_x
_atom_site_fract_y
_atom_site_fract_z
Si Si1 0.348230 0.563961 0.346936
Si Si2 0.387447 0.950003 0.005023
Si Si3 0.407232 0.229511 0.724731
O O1 0.381631 0.619865 0.596059
O O2 0.394588 0.515607 0.377919
O O3 0.256132 0.494661 0.326844
O O4 0.304179 0.897741 0.156653
O O5 0.441598 0.000000 0.250000
O O6 0.391639 0.000000 0.750000
O O7 0.370296 0.207267 0.443003
#
# Coordination Sequence:
#
# PCOD9578847 Si02
#       3
#    12  12  12
#     4  11  22  36  57  80 103 140 184 225 276 334
#     4  11  22  36  57  84 108 133 171 221 277 331
#     4  10  20  38  58  76 105 137 171 213 269 325
#
# _framework density 20.897542999999999
#
# number of rings (size 3 to 8) (size 9 to 14) (size 15 to 20)
#    0.000    1.333    0.000   10.000    0.000    4.000 
#    0.000    0.000    0.000  106.667    0.000    0.000 
#    0.000    0.000    0.000    0.000    0.000    0.000 
#
# Total GULP energy -200526.392926 kJ/mol
# GULP energy per Si atom -5570.177581 kJ/mol
# Density = 2.084998 g / cm^3
# Si number density = 20.897543 Si / 1000 Ang^3
#
#
#
# Elastic Constant Matrix: (Units=GPa)
#
#
# Indices 1 2 3 4 5 6 
#
# 1 71.6606 29.0673 17.0279 9.5753 0.0000 0.0000
# 2 29.0673 71.6606 17.0279 -9.5753 0.0000 0.0000
# 3 17.0279 17.0279 189.4017 0.0000 0.0000 0.0000
# 4 9.5753 -9.5753 0.0000 25.9000 0.0000 0.0000
# 5 0.0000 0.0000 0.0000 0.0000 25.9000 9.5753
# 6 0.0000 0.0000 0.0000 0.0000 9.5753 21.2966
#
#
#
# Elastic Compliance Matrix: (Units=1/GPa)
#
#
# Indices 1 2 3 4 5 6 
#
# 1 0.019199 -0.008960 -0.000921 -0.010410 0.000000 0.000000
# 2 -0.008960 0.019199 -0.000921 0.010410 0.000000 0.000000
# 3 -0.000921 -0.000921 0.005445 0.000000 0.000000 0.000000
# 4 -0.010410 0.010410 0.000000 0.046307 0.000000 0.000000
# 5 0.000000 0.000000 0.000000 0.000000 0.046307 -0.020820
# 6 0.000000 0.000000 0.000000 0.000000 -0.020820 0.056317
#
#
# Mechanical properties :
#
#
# Convention : Reuss Voigt Hill
#
# Bulk Modulus (GPa) = 44.96175 50.99659 47.97917
# Shear Modulus (GPa) = 22.54386 32.59263 27.56824
#
# Velocity S-wave (km/s) = 3.28804 3.95351 3.63603
# Velocity P-wave (km/s) = 5.99808 6.73026 6.37469
#
# Compressibility (1/GPa) = 0.02224113
#
# Stress axis : x y z
#
# Youngs Moduli (GPa) = 52.08684 52.08684 183.64463
#
# Poissons Ratio (x) = 0.46669 0.16905
# Poissons Ratio (y) = 0.46669 0.16905
# Poissons Ratio (z) = 0.04795 0.04795
#
# Static dielectric constant tensor:
#      x y z
#    x 1.831500 0.000000 0.000000 
#    y 0.000000 1.831500 0.000000 
#    z 0.000000 0.000000 1.997300 
# 
# From -- ./inp_files/76.got.cif
#   From: 2010.05.17/outbox.cif.g08.bks.cpg/sg165_1_cif.got.tgz:76.got - 2010.05.20 11:02:39.
