data_PCOD9578222
_publ_section_title
;
Structure prediction by ZEFSAII (Michael W. Deem and Ramdas Pophale) SiO2 
 PCOD9578222
Probable space group: P -3 1 C
;
_chemical_formula_sum "Si O2"
_cell_formula_units_Z 66
_cell_length_a 20.484773
_cell_length_b 20.484773
_cell_length_c 9.351954
_cell_angle_alpha 90.000000
_cell_angle_beta 90.000000
_cell_angle_gamma 120.000000
_cell_volume 3398.562845
_symmetry_space_group_name_H-M "P -3 1 C"
_symmetry_group_IT_number 163
_symmetry_cell_setting 'hexagonal'
loop_
_space_group_symop_operation_xyz
x,y,z
-y,x-y,z
-x+y,-x,z
-y,-x,1/2-z
-x+y,y,1/2-z
x,x-y,1/2-z
-x,-y,-z
y,-x+y,-z
x-y,x,-z
y,x,1/2+z
x-y,-y,1/2+z
-x,-x+y,1/2+z
loop_
_atom_site_type_symbol
_atom_site_label
_atom_site_fract_x
_atom_site_fract_y
_atom_site_fract_z
Si Si1 0.896138 0.240897 0.667250
Si Si2 0.500479 0.205555 0.522195
Si Si3 0.333619 0.288744 0.148771
Si Si4 0.404953 0.202477 0.250000
Si Si5 0.539200 0.978450 0.119460
Si Si6 0.557583 0.184781 0.902998
O O1 0.834756 0.165245 0.750000
O O2 0.851031 0.286232 0.631985
O O3 0.931004 0.245560 0.505735
O O4 0.966536 0.277094 0.775081
O O5 0.456469 0.210890 0.384851
O O6 0.563391 0.182432 0.492190
O O7 0.544890 0.290653 0.578425
O O8 0.353364 0.240843 0.259354
O O9 0.406563 0.372075 0.128037
O O10 0.487921 0.975842 0.250000
O O11 0.520522 0.893532 0.086602
O O12 0.500000 0.000000 0.000000
O O13 0.594694 0.189387 0.750000
#
# Coordination Sequence:
#
# PCOD9578222 Si02
#       6
#    12  12  12   6  12  12
#     4  11  24  43  68  97 133 175 219 278 335 410
#     4  11  23  41  61  88 133 175 235 284 347 399
#     4  11  24  42  67  94 134 176 219 280 343 400
#     4  10  26  42  58  94 128 178 222 282 338 410
#     4  11  22  35  56  88 120 164 224 279 333 394
#     4  11  22  37  59  86 119 171 229 282 336 395
#
# _framework density 19.419974
#
# number of rings (size 3 to 8) (size 9 to 14) (size 15 to 20)
#    0.000    1.091    0.000    8.545   10.182    0.727 
#    0.000    0.000    0.000    0.000    0.000    0.000 
#    0.909    1.455    0.000    0.000    0.000    0.000 
#
# Total GULP energy -368080.358981 kJ/mol
# GULP energy per Si atom -5576.975136 kJ/mol
# Density = 1.937577 g / cm^3
# Si number density = 19.419974 Si / 1000 Ang^3
#
#
#
# Elastic Constant Matrix: (Units=GPa)
#
#
# Indices 1 2 3 4 5 6 
#
# 1 113.2633 49.0616 35.4050 0.0000 -0.8254 0.0000
# 2 49.0616 113.2633 35.4050 0.0000 0.8254 0.0000
# 3 35.4050 35.4050 85.2730 0.0000 0.0000 0.0000
# 4 0.0000 0.0000 0.0000 34.0463 0.0000 0.8254
# 5 -0.8254 0.8254 0.0000 0.0000 34.0463 0.0000
# 6 0.0000 0.0000 0.0000 0.8254 0.0000 32.1008
#
#
#
# Elastic Compliance Matrix: (Units=1/GPa)
#
#
# Indices 1 2 3 4 5 6 
#
# 1 0.011554 -0.004031 -0.003124 0.000000 0.000378 0.000000
# 2 -0.004031 0.011554 -0.003124 0.000000 -0.000378 0.000000
# 3 -0.003124 -0.003124 0.014321 0.000000 0.000000 0.000000
# 4 0.000000 0.000000 0.000000 0.029390 0.000000 -0.000756
# 5 0.000378 -0.000378 0.000000 0.000000 0.029390 0.000000
# 6 0.000000 0.000000 0.000000 -0.000756 0.000000 0.031171
#
#
# Mechanical properties :
#
#
# Convention : Reuss Voigt Hill
#
# Bulk Modulus (GPa) = 59.26718 61.28253 60.27485
# Shear Modulus (GPa) = 32.56016 32.83389 32.69703
#
# Velocity S-wave (km/s) = 4.09911 4.11631 4.10772
# Velocity P-wave (km/s) = 7.27932 7.36321 7.32139
#
# Compressibility (1/GPa) = 0.01687274
#
# Stress axis : x y z
#
# Youngs Moduli (GPa) = 86.54752 86.54752 69.82851
#
# Poissons Ratio (x) = 0.34890 0.21811
# Poissons Ratio (y) = 0.34890 0.21811
# Poissons Ratio (z) = 0.27033 0.27033
#
# Static dielectric constant tensor:
#      x y z
#    x 1.705420 0.000000 0.000000 
#    y 0.000000 1.705420 0.000000 
#    z 0.000000 0.000000 1.751410 
# 
# From -- ./inp_files/1158.got.cif
#   From: 2010.05.17/outbox.cif.g08.bks.cpg/sg163_1_cif.got.tgz:1158.got - 2010.05.20 10:56:03.
