data_PCOD9578487
_publ_section_title
;
Structure prediction by ZEFSAII (Michael W. Deem and Ramdas Pophale) SiO2 
 PCOD9578487
Probable space group: P -3 M 1
;
_chemical_formula_sum "Si O2"
_cell_formula_units_Z 84
_cell_length_a 30.248606
_cell_length_b 30.248606
_cell_length_c 5.442423
_cell_angle_alpha 90.000000
_cell_angle_beta 90.000000
_cell_angle_gamma 120.000000
_cell_volume 4312.545153
_symmetry_space_group_name_H-M "P -3 M 1"
_symmetry_group_IT_number 164
_symmetry_cell_setting 'hexagonal'
loop_
_space_group_symop_operation_xyz
x,y,z
-y,x-y,z
-x+y,-x,z
x-y,-y,-z
-x,-x+y,-z
y,x,-z
-x,-y,-z
y,-x+y,-z
x-y,x,-z
-x+y,y,z
x,x-y,z
-y,-x,z
loop_
_atom_site_type_symbol
_atom_site_label
_atom_site_fract_x
_atom_site_fract_y
_atom_site_fract_z
Si Si1 0.136253 0.372408 0.252204
Si Si2 0.097229 0.668900 0.543560
Si Si3 0.570807 0.044957 0.198069
Si Si4 0.941748 0.160013 0.511500
Si Si5 0.275306 0.058579 0.013184
Si Si6 0.139192 0.618181 0.165061
Si Si7 0.715104 0.188039 0.067555
O O1 0.179509 0.359018 0.348947
O O2 0.096593 0.378609 0.430320
O O3 0.102571 0.332687 0.040844
O O4 0.168502 0.428500 0.136483
O O5 0.048849 0.620019 0.665482
O O6 0.113463 0.639247 0.351200
O O7 0.144404 0.695213 0.729906
O O8 0.520562 0.041123 0.330557
O O9 0.594678 0.098100 0.052717
O O10 0.549756 0.000000 0.000000
O O11 0.898579 0.101422 0.494582
O O12 0.936272 0.181916 0.774529
O O13 0.000000 0.172653 0.500000
O O14 0.934780 0.189143 0.275612
O O15 0.263213 0.000000 0.000000
O O16 0.148117 0.574059 0.267941
O O17 0.188219 0.667099 0.054399
O O18 0.758268 0.241733 0.165685
#
# Coordination Sequence:
#
# PCOD9578487 Si02
#       7
#    12  12  12  12  12  12  12
#     4  10  20  34  54  77 103 142 183 224 277 337
#     4  10  19  32  50  76 105 135 178 218 266 325
#     4   9  18  33  52  73 102 139 180 221 266 324
#     4  10  20  36  59  86 115 151 196 244 292 344
#     4  10  22  38  57  83 115 151 199 245 291 340
#     4   9  18  33  53  76  98 127 170 215 263 315
#     4   9  19  34  52  76 102 130 170 216 265 324
#
# _framework density 19.478055000000001
#
# number of rings (size 3 to 8) (size 9 to 14) (size 15 to 20)
#    0.000    2.429    0.000    2.143    2.000    1.714 
#    0.000   10.000    0.000    0.429    0.000    1.000 
#    0.000    3.429    0.000    0.000    0.000    0.571 
#
# Total GULP energy -467647.401783 kJ/mol
# GULP energy per Si atom -5567.230974 kJ/mol
# Density = 1.943372 g / cm^3
# Si number density = 19.478055 Si / 1000 Ang^3
#
#
#
# Elastic Constant Matrix: (Units=GPa)
#
#
# Indices 1 2 3 4 5 6 
#
# 1 82.9095 55.4865 11.1137 1.3604 0.0000 0.0000
# 2 55.4865 82.9095 11.1137 -1.3604 0.0000 0.0000
# 3 11.1137 11.1137 49.8569 0.0000 0.0000 0.0000
# 4 1.3604 -1.3604 0.0000 21.7908 0.0000 0.0000
# 5 0.0000 0.0000 0.0000 0.0000 21.7908 1.3604
# 6 0.0000 0.0000 0.0000 0.0000 1.3604 13.7115
#
#
#
# Elastic Compliance Matrix: (Units=1/GPa)
#
#
# Indices 1 2 3 4 5 6 
#
# 1 0.022093 -0.014600 -0.001670 -0.002291 0.000000 0.000000
# 2 -0.014600 0.022093 -0.001670 0.002291 0.000000 0.000000
# 3 -0.001670 -0.001670 0.020802 0.000000 0.000000 0.000000
# 4 -0.002291 0.002291 0.000000 0.046177 0.000000 0.000000
# 5 0.000000 0.000000 0.000000 0.000000 0.046177 -0.004581
# 6 0.000000 0.000000 0.000000 0.000000 -0.004581 0.073386
#
#
# Mechanical properties :
#
#
# Convention : Reuss Voigt Hill
#
# Bulk Modulus (GPa) = 34.35473 41.23372 37.79422
# Shear Modulus (GPa) = 18.09544 20.65610 19.37577
#
# Velocity S-wave (km/s) = 3.05128 3.26003 3.15739
# Velocity P-wave (km/s) = 5.48541 5.94859 5.72169
#
# Compressibility (1/GPa) = 0.02910807
#
# Stress axis : x y z
#
# Youngs Moduli (GPa) = 45.26219 45.26219 48.07200
#
# Poissons Ratio (x) = 0.66081 0.08030
# Poissons Ratio (y) = 0.66081 0.08030
# Poissons Ratio (z) = 0.07561 0.07561
#
# Static dielectric constant tensor:
#      x y z
#    x 1.722460 0.000000 0.000000 
#    y 0.000000 1.722460 0.000000 
#    z 0.000000 0.000000 1.783600 
# 
# From -- ./inp_files/854.got.cif
#   From: 2010.05.17/outbox.cif.g08.bks.cpg/sg164_1_cif.got.tgz:854.got - 2010.05.20 10:58:56.
