data_PCOD9578449
_publ_section_title
;
Structure prediction by ZEFSAII (Michael W. Deem and Ramdas Pophale) SiO2 
 PCOD9578449
Probable space group: P -3 M 1
;
_chemical_formula_sum "Si O2"
_cell_formula_units_Z 96
_cell_length_a 18.213806
_cell_length_b 18.213806
_cell_length_c 21.447265
_cell_angle_alpha 90.000000
_cell_angle_beta 90.000000
_cell_angle_gamma 120.000000
_cell_volume 6161.748422
_symmetry_space_group_name_H-M "P -3 M 1"
_symmetry_group_IT_number 164
_symmetry_cell_setting 'hexagonal'
loop_
_space_group_symop_operation_xyz
x,y,z
-y,x-y,z
-x+y,-x,z
x-y,-y,-z
-x,-x+y,-z
y,x,-z
-x,-y,-z
y,-x+y,-z
x-y,x,-z
-x+y,y,z
x,x-y,z
-y,-x,z
loop_
_atom_site_type_symbol
_atom_site_label
_atom_site_fract_x
_atom_site_fract_y
_atom_site_fract_z
Si Si1 0.826854 0.331231 0.003500
Si Si2 0.370203 0.913974 0.864988
Si Si3 0.168168 0.000111 0.761834
Si Si4 0.173536 0.173832 0.425924
Si Si5 0.000170 0.835239 0.911360
Si Si6 0.306865 0.954186 0.063494
Si Si7 0.841670 0.508550 0.272676
Si Si8 0.246368 0.315901 0.671777
O O1 0.857253 0.428627 0.990978
O O2 0.726521 0.273480 0.002489
O O3 0.863703 0.295314 0.951212
O O4 0.855493 0.325780 0.074301
O O5 0.467069 0.934138 0.865897
O O6 0.332114 0.869231 0.799325
O O7 0.363933 0.997375 0.878336
O O8 0.074749 0.925252 0.742291
O O9 0.234501 0.978179 0.730932
O O10 0.181498 0.090749 0.743049
O O11 0.170091 0.997230 0.836434
O O12 0.188292 0.188292 0.500000
O O13 0.089359 0.178718 0.410212
O O14 0.256981 0.238746 0.386924
O O15 0.157733 0.078867 0.413514
O O16 0.932091 0.864182 0.926551
O O17 0.965143 0.739975 0.934248
O O18 0.094314 0.905687 0.932478
O O19 0.356076 0.000000 0.000000
O O20 0.747079 0.494157 0.281390
O O21 0.843582 0.421791 0.282959
O O22 0.907060 0.587753 0.315848
O O23 0.161245 0.322489 0.668805
#
# Coordination Sequence:
#
# PCOD9578449 Si02
#       8
#    12  12  12  12  12  12  12  12
#     4  10  19  31  47  66  87 109 136 171 213 263
#     4   9  18  31  47  66  86 107 132 170 219 268
#     4   9  16  26  41  61  86 114 143 175 212 257
#     4   9  16  26  42  66  97 131 163 191 217 248
#     4  10  20  32  44  58  78 107 144 184 221 256
#     4  10  20  32  46  61  81 107 137 169 210 262
#     4  10  19  31  47  66  88 113 143 180 224 271
#     4   9  17  27  40  61  88 118 149 180 215 254
#
# _framework density 15.579993999999999
#
# number of rings (size 3 to 8) (size 9 to 14) (size 15 to 20)
#    0.000    2.500    0.000    2.875    0.000    7.000 
#    0.000    2.500    0.000    1.125    0.000    0.000 
#    0.000    0.000    0.000    3.000    0.000    0.000 
#
# Total GULP energy -534496.057227 kJ/mol
# GULP energy per Si atom -5567.667263 kJ/mol
# Density = 1.554453 g / cm^3
# Si number density = 15.579994 Si / 1000 Ang^3
#
#
#
# Elastic Constant Matrix: (Units=GPa)
#
#
# Indices 1 2 3 4 5 6 
#
# 1 81.8726 47.0837 31.7013 0.1693 0.0000 0.0000
# 2 47.0837 81.8726 31.7013 -0.1693 0.0000 0.0000
# 3 31.7013 31.7013 63.6705 0.0000 0.0000 0.0000
# 4 0.1693 -0.1693 0.0000 17.1518 0.0000 0.0000
# 5 0.0000 0.0000 0.0000 0.0000 17.1518 0.1693
# 6 0.0000 0.0000 0.0000 0.0000 0.1693 17.3945
#
#
#
# Elastic Compliance Matrix: (Units=1/GPa)
#
#
# Indices 1 2 3 4 5 6 
#
# 1 0.019508 -0.009240 -0.005112 -0.000284 0.000000 0.000000
# 2 -0.009240 0.019508 -0.005112 0.000284 0.000000 0.000000
# 3 -0.005112 -0.005112 0.020797 0.000000 0.000000 0.000000
# 4 -0.000284 0.000284 0.000000 0.058309 0.000000 0.000000
# 5 0.000000 0.000000 0.000000 0.000000 0.058309 -0.000567
# 6 0.000000 0.000000 0.000000 0.000000 -0.000567 0.057495
#
#
# Mechanical properties :
#
#
# Convention : Reuss Voigt Hill
#
# Bulk Modulus (GPa) = 47.88528 49.82091 48.85310
# Shear Modulus (GPa) = 17.86894 18.13490 18.00192
#
# Velocity S-wave (km/s) = 3.39029 3.41543 3.40288
# Velocity P-wave (km/s) = 6.79170 6.89931 6.84572
#
# Compressibility (1/GPa) = 0.02088324
#
# Stress axis : x y z
#
# Youngs Moduli (GPa) = 51.26143 51.26143 48.08430
#
# Poissons Ratio (x) = 0.47364 0.24583
# Poissons Ratio (y) = 0.47364 0.24583
# Poissons Ratio (z) = 0.26207 0.26207
#
# Static dielectric constant tensor:
#      x y z
#    x 1.534170 0.000000 0.000000 
#    y 0.000000 1.534170 0.000000 
#    z 0.000000 0.000000 1.532180 
# 
# From -- ./inp_files/5109.got.cif
#   From: 2010.05.17/outbox.cif.g08.bks.cpg/sg164_3_cif.got.tgz:5109.got - 2010.05.20 10:58:56.
