data_PCOD9578543
_publ_section_title
;
Structure prediction by ZEFSAII (Michael W. Deem and Ramdas Pophale) SiO2 
 PCOD9578543
Probable space group: P -3 M 1
;
_chemical_formula_sum "Si O2"
_cell_formula_units_Z 66
_cell_length_a 12.760277
_cell_length_b 12.760277
_cell_length_c 28.875518
_cell_angle_alpha 90.000000
_cell_angle_beta 90.000000
_cell_angle_gamma 120.000000
_cell_volume 4071.745451
_symmetry_space_group_name_H-M "P -3 M 1"
_symmetry_group_IT_number 164
_symmetry_cell_setting 'hexagonal'
loop_
_space_group_symop_operation_xyz
x,y,z
-y,x-y,z
-x+y,-x,z
x-y,-y,-z
-x,-x+y,-z
y,x,-z
-x,-y,-z
y,-x+y,-z
x-y,x,-z
-x+y,y,z
x,x-y,z
-y,-x,z
loop_
_atom_site_type_symbol
_atom_site_label
_atom_site_fract_x
_atom_site_fract_y
_atom_site_fract_z
Si Si1 0.582229 0.666134 0.366075
Si Si2 0.582106 0.915152 0.191231
Si Si3 0.333815 0.915520 0.085732
Si Si4 0.248877 0.000000 0.000000
Si Si5 0.582538 0.916510 0.544702
Si Si6 0.333267 0.417955 0.722475
O O1 0.589335 0.794668 0.368142
O O2 0.442593 0.557408 0.366869
O O3 0.646633 0.643259 0.409706
O O4 0.640846 0.649063 0.319433
O O5 0.443278 0.886555 0.194045
O O6 0.586781 0.793391 0.200051
O O7 0.624032 0.956491 0.138486
O O8 0.655340 0.016072 0.229438
O O9 0.458134 0.916267 0.078548
O O10 0.221169 0.778832 0.082578
O O11 0.315044 0.991314 0.046005
O O12 0.237397 0.118699 0.001540
O O13 0.442787 0.885573 0.544435
O O14 0.589471 0.794736 0.544121
O O15 0.645089 0.000000 0.500000
O O16 0.205951 0.411901 0.717520
O O17 0.443199 0.556802 0.721338
#
# Coordination Sequence:
#
# PCOD9578543 Si02
#       6
#    12  12  12   6  12  12
#     4  10  20  34  54  78 102 128 160 203 251 295
#     4   9  17  30  50  74  97 121 151 192 241 289
#     4   9  17  30  49  72  95 119 150 192 242 290
#     4  10  20  32  46  64  90 126 164 198 230 272
#     4  10  20  34  54  78 104 134 167 205 246 289
#     4  10  20  33  50  71  97 129 162 197 235 279
#
# _framework density 16.209264000000001
#
# number of rings (size 3 to 8) (size 9 to 14) (size 15 to 20)
#    0.000    2.364    0.000    2.909    0.000    2.182 
#    0.000    5.455    0.000   10.909    0.000    0.000 
#    0.000    0.000    0.000    0.000    0.000    0.000 
#
# Total GULP energy -368163.216816 kJ/mol
# GULP energy per Si atom -5578.230558 kJ/mol
# Density = 1.617237 g / cm^3
# Si number density = 16.209264 Si / 1000 Ang^3
#
#
#
# Elastic Constant Matrix: (Units=GPa)
#
#
# Indices 1 2 3 4 5 6 
#
# 1 108.2164 72.6964 73.7649 1.1832 0.0000 0.0000
# 2 72.6964 108.2164 73.7649 -1.1832 0.0000 0.0000
# 3 73.7649 73.7649 140.7461 0.0000 0.0000 0.0000
# 4 1.1832 -1.1832 0.0000 16.5753 0.0000 0.0000
# 5 0.0000 0.0000 0.0000 0.0000 16.5753 1.1832
# 6 0.0000 0.0000 0.0000 0.0000 1.1832 17.7600
#
#
#
# Elastic Compliance Matrix: (Units=1/GPa)
#
#
# Indices 1 2 3 4 5 6 
#
# 1 0.018970 -0.009317 -0.005059 -0.002019 0.000000 0.000000
# 2 -0.009317 0.018970 -0.005059 0.002019 0.000000 0.000000
# 3 -0.005059 -0.005059 0.012408 0.000000 0.000000 0.000000
# 4 -0.002019 0.002019 0.000000 0.060619 0.000000 0.000000
# 5 0.000000 0.000000 0.000000 0.000000 0.060619 -0.004039
# 6 0.000000 0.000000 0.000000 0.000000 -0.004039 0.056575
#
#
# Mechanical properties :
#
#
# Convention : Reuss Voigt Hill
#
# Bulk Modulus (GPa) = 87.12668 88.62568 87.87618
# Shear Modulus (GPa) = 18.45977 19.31232 18.88604
#
# Velocity S-wave (km/s) = 3.37833 3.45546 3.41712
# Velocity P-wave (km/s) = 8.31176 8.40922 8.36063
#
# Compressibility (1/GPa) = 0.01147754
#
# Stress axis : x y z
#
# Youngs Moduli (GPa) = 52.71363 52.71363 80.59274
#
# Poissons Ratio (x) = 0.49115 0.40774
# Poissons Ratio (y) = 0.49115 0.40774
# Poissons Ratio (z) = 0.26669 0.26669
#
# Static dielectric constant tensor:
#      x y z
#    x 1.509020 0.000000 0.000000 
#    y 0.000000 1.509020 0.000000 
#    z 0.000000 0.000000 1.554670 
# 
# From -- ./inp_files/5400.got.cif
#   From: 2010.05.17/outbox.cif.g08.bks.cpg/sg164_3_cif.got.tgz:5400.got - 2010.05.20 10:58:56.
