data_PCOD9578578
_publ_section_title
;
Structure prediction by ZEFSAII (Michael W. Deem and Ramdas Pophale) SiO2 
 PCOD9578578
Probable space group: P -3 M 1
;
_chemical_formula_sum "Si O2"
_cell_formula_units_Z 60
_cell_length_a 12.645786
_cell_length_b 12.645786
_cell_length_c 26.923431
_cell_angle_alpha 90.000000
_cell_angle_beta 90.000000
_cell_angle_gamma 120.000000
_cell_volume 3728.659208
_symmetry_space_group_name_H-M "P -3 M 1"
_symmetry_group_IT_number 164
_symmetry_cell_setting 'hexagonal'
loop_
_space_group_symop_operation_xyz
x,y,z
-y,x-y,z
-x+y,-x,z
x-y,-y,-z
-x,-x+y,-z
y,x,-z
-x,-y,-z
y,-x+y,-z
x-y,x,-z
-x+y,y,z
x,x-y,z
-y,-x,z
loop_
_atom_site_type_symbol
_atom_site_label
_atom_site_fract_x
_atom_site_fract_y
_atom_site_fract_z
Si Si1 0.253082 0.999842 0.446670
Si Si2 0.333863 0.415294 0.241940
Si Si3 0.081876 0.666332 0.048503
Si Si4 0.584592 0.918124 0.854757
Si Si5 0.746741 0.000018 0.662227
O O1 0.240640 0.120320 0.445896
O O2 0.306254 0.998081 0.392605
O O3 0.312503 0.000000 0.500000
O O4 0.119471 0.880530 0.447665
O O5 0.209232 0.418464 0.235646
O O6 0.448776 0.551225 0.243996
O O7 0.355227 0.349032 0.195292
O O8 0.322974 0.343517 0.292717
O O9 0.111749 0.555875 0.048649
O O10 0.204927 0.795074 0.047743
O O11 0.002890 0.649259 0.097658
O O12 0.000000 0.646535 0.000000
O O13 0.444677 0.889354 0.855581
O O14 0.589883 0.794942 0.856616
O O15 0.747065 0.873533 0.667735
O O16 0.885544 0.114457 0.663529
#
# Coordination Sequence:
#
# PCOD9578578 Si02
#       5
#    12  12  12  12  12
#     4   8  12  18  31  54  84 115 144 175 215 266
#     4  10  20  33  49  67  89 119 155 194 231 270
#     4  10  20  34  54  78 104 134 167 203 238 273
#     4  10  20  34  53  75  98 123 152 190 235 282
#     4   9  16  26  42  65  92 119 146 180 226 279
#
# _framework density 16.091576
#
# number of rings (size 3 to 8) (size 9 to 14) (size 15 to 20)
#    0.000    2.600    0.000    2.800    0.000    2.400 
#    0.000    4.000    0.000    9.800    0.000    0.000 
#    0.000    0.000    0.000    0.000    0.000    0.000 
#
# Total GULP energy -334155.543684 kJ/mol
# GULP energy per Si atom -5569.259061 kJ/mol
# Density = 1.605495 g / cm^3
# Si number density = 16.091576 Si / 1000 Ang^3
#
#
#
# Elastic Constant Matrix: (Units=GPa)
#
#
# Indices 1 2 3 4 5 6 
#
# 1 83.0294 57.7258 71.5320 0.1990 0.0000 0.0000
# 2 57.7258 83.0294 71.5320 -0.1990 0.0000 0.0000
# 3 71.5320 71.5320 190.5450 0.0000 0.0000 0.0000
# 4 0.1990 -0.1990 0.0000 19.8803 0.0000 0.0000
# 5 0.0000 0.0000 0.0000 0.0000 19.8803 0.1990
# 6 0.0000 0.0000 0.0000 0.0000 0.1990 12.6518
#
#
#
# Elastic Compliance Matrix: (Units=1/GPa)
#
#
# Indices 1 2 3 4 5 6 
#
# 1 0.025507 -0.014019 -0.004313 -0.000396 0.000000 0.000000
# 2 -0.014019 0.025507 -0.004313 0.000396 0.000000 0.000000
# 3 -0.004313 -0.004313 0.008486 0.000000 0.000000 0.000000
# 4 -0.000396 0.000396 0.000000 0.050309 0.000000 0.000000
# 5 0.000000 0.000000 0.000000 0.000000 0.050309 -0.000791
# 6 0.000000 0.000000 0.000000 0.000000 -0.000791 0.079053
#
#
# Mechanical properties :
#
#
# Convention : Reuss Voigt Hill
#
# Bulk Modulus (GPa) = 70.36632 84.24261 77.30447
# Shear Modulus (GPa) = 17.28926 20.87009 19.07968
#
# Velocity S-wave (km/s) = 3.28140 3.60524 3.44713
# Velocity P-wave (km/s) = 7.62761 8.35440 7.99926
#
# Compressibility (1/GPa) = 0.01421134
#
# Stress axis : x y z
#
# Youngs Moduli (GPa) = 39.20475 39.20475 117.83971
#
# Poissons Ratio (x) = 0.54962 0.50820
# Poissons Ratio (y) = 0.54962 0.50820
# Poissons Ratio (z) = 0.16908 0.16908
#
# Static dielectric constant tensor:
#      x y z
#    x 1.502550 0.000000 0.000000 
#    y 0.000000 1.502550 0.000000 
#    z 0.000000 0.000000 1.582190 
# 
# From -- ./inp_files/5169.got.cif
#   From: 2010.05.17/outbox.cif.g08.bks.cpg/sg164_3_cif.got.tgz:5169.got - 2010.05.20 10:58:56.
