data_PCOD9578467
_publ_section_title
;
Structure prediction by ZEFSAII (Michael W. Deem and Ramdas Pophale) SiO2 
 PCOD9578467
Probable space group: P -3 M 1
;
_chemical_formula_sum "Si O2"
_cell_formula_units_Z 72
_cell_length_a 17.605896
_cell_length_b 17.605896
_cell_length_c 15.798979
_cell_angle_alpha 90.000000
_cell_angle_beta 90.000000
_cell_angle_gamma 120.000000
_cell_volume 4241.074659
_symmetry_space_group_name_H-M "P -3 M 1"
_symmetry_group_IT_number 164
_symmetry_cell_setting 'hexagonal'
loop_
_space_group_symop_operation_xyz
x,y,z
-y,x-y,z
-x+y,-x,z
x-y,-y,-z
-x,-x+y,-z
y,x,-z
-x,-y,-z
y,-x+y,-z
x-y,x,-z
-x+y,y,z
x,x-y,z
-y,-x,z
loop_
_atom_site_type_symbol
_atom_site_label
_atom_site_fract_x
_atom_site_fract_y
_atom_site_fract_z
Si Si1 0.727514 0.631749 0.989133
Si Si2 0.098689 0.374067 0.199830
Si Si3 0.178449 0.001516 0.249522
Si Si4 0.705088 0.763938 0.583176
Si Si5 0.026566 0.425638 0.689932
Si Si6 0.155565 0.665676 0.850579
O O1 0.827534 0.655067 0.993569
O O2 0.694452 0.592898 0.895401
O O3 0.713813 0.713813 0.000000
O O4 0.676015 0.565071 0.064793
O O5 0.193010 0.386019 0.221419
O O6 0.031615 0.268234 0.199465
O O7 0.064518 0.415785 0.269011
O O8 0.185277 0.092639 0.220573
O O9 0.220494 0.019117 0.343526
O O10 0.078654 0.921347 0.249129
O O11 0.740477 0.740477 0.500000
O O12 0.684347 0.842174 0.567984
O O13 0.621685 0.676315 0.619972
O O14 0.023932 0.511966 0.662266
O O15 0.092967 0.452362 0.769453
O O16 0.177863 0.588932 0.862937
O O17 0.242256 0.757745 0.835267
#
# Coordination Sequence:
#
# PCOD9578467 Si02
#       6
#    12  12  12  12  12  12
#     4  10  19  31  48  71 100 136 175 213 250 290
#     4   9  18  32  47  70 101 134 170 209 249 289
#     4   9  17  29  48  73 102 134 168 204 244 288
#     4  10  20  34  53  77 105 133 162 199 244 297
#     4  10  20  34  55  78 100 129 166 208 252 302
#     4  10  20  33  51  75 103 132 163 204 255 304
#
# _framework density 16.976828000000001
#
# number of rings (size 3 to 8) (size 9 to 14) (size 15 to 20)
#    0.000    2.333    1.667    1.333    0.000    3.333 
#    0.000    0.000    0.000    3.500    0.000    1.167 
#    0.000    0.000    0.000    0.000    0.000    0.000 
#
# Total GULP energy -401389.633464 kJ/mol
# GULP energy per Si atom -5574.856020 kJ/mol
# Density = 1.693819 g / cm^3
# Si number density = 16.976828 Si / 1000 Ang^3
#
#
#
# Elastic Constant Matrix: (Units=GPa)
#
#
# Indices 1 2 3 4 5 6 
#
# 1 53.5934 18.7146 9.8091 -6.8097 0.0000 0.0000
# 2 18.7146 53.5934 9.8091 6.8097 0.0000 0.0000
# 3 9.8091 9.8091 51.4415 0.0000 0.0000 0.0000
# 4 -6.8097 6.8097 0.0000 19.2112 0.0000 0.0000
# 5 0.0000 0.0000 0.0000 0.0000 19.2112 -6.8097
# 6 0.0000 0.0000 0.0000 0.0000 -6.8097 17.4394
#
#
#
# Elastic Compliance Matrix: (Units=1/GPa)
#
#
# Indices 1 2 3 4 5 6 
#
# 1 0.023930 -0.009346 -0.002781 0.011795 0.000000 0.000000
# 2 -0.009346 0.023930 -0.002781 -0.011795 0.000000 0.000000
# 3 -0.002781 -0.002781 0.020500 0.000000 0.000000 0.000000
# 4 0.011795 -0.011795 0.000000 0.060415 0.000000 0.000000
# 5 0.000000 0.000000 0.000000 0.000000 0.060415 0.023591
# 6 0.000000 0.000000 0.000000 0.000000 0.023591 0.066553
#
#
# Mechanical properties :
#
#
# Convention : Reuss Voigt Hill
#
# Bulk Modulus (GPa) = 25.94392 26.14376 26.04384
# Shear Modulus (GPa) = 16.75556 19.19208 17.97382
#
# Velocity S-wave (km/s) = 3.14501 3.36592 3.25734
# Velocity P-wave (km/s) = 5.33884 5.52621 5.43333
#
# Compressibility (1/GPa) = 0.03854468
#
# Stress axis : x y z
#
# Youngs Moduli (GPa) = 41.78792 41.78792 48.78020
#
# Poissons Ratio (x) = 0.39055 0.13566
# Poissons Ratio (y) = 0.39055 0.13566
# Poissons Ratio (z) = 0.11621 0.11621
#
# Static dielectric constant tensor:
#      x y z
#    x 1.571340 0.000000 0.000000 
#    y 0.000000 1.571340 0.000000 
#    z 0.000000 0.000000 1.581290 
# 
# From -- ./inp_files/4087.got.cif
#   From: 2010.05.17/outbox.cif.g08.bks.cpg/sg164_3_cif.got.tgz:4087.got - 2010.05.20 10:58:56.
