data_PCOD9578669
_publ_section_title
;
Structure prediction by ZEFSAII (Michael W. Deem and Ramdas Pophale) SiO2 
 PCOD9578669
Probable space group: P -3 M 1
;
_chemical_formula_sum "Si O2"
_cell_formula_units_Z 48
_cell_length_a 18.783063
_cell_length_b 18.783063
_cell_length_c 9.184813
_cell_angle_alpha 90.000000
_cell_angle_beta 90.000000
_cell_angle_gamma 120.000000
_cell_volume 2806.297961
_symmetry_space_group_name_H-M "P -3 M 1"
_symmetry_group_IT_number 164
_symmetry_cell_setting 'hexagonal'
loop_
_space_group_symop_operation_xyz
x,y,z
-y,x-y,z
-x+y,-x,z
x-y,-y,-z
-x,-x+y,-z
y,x,-z
-x,-y,-z
y,-x+y,-z
x-y,x,-z
-x+y,y,z
x,x-y,z
-y,-x,z
loop_
_atom_site_type_symbol
_atom_site_label
_atom_site_fract_x
_atom_site_fract_y
_atom_site_fract_z
Si Si1 0.375267 0.470172 0.056058
Si Si2 0.252814 0.338758 0.570891
Si Si3 0.916059 0.674839 0.087467
Si Si4 0.163441 0.665328 0.377945
O O1 0.434370 0.565631 0.017692
O O2 0.289178 0.416822 0.978475
O O3 0.424700 0.424700 0.000000
O O4 0.357894 0.468176 0.228326
O O5 0.274687 0.274687 0.500000
O O6 0.160307 0.320613 0.543587
O O7 0.263653 0.335071 0.743138
O O8 0.311669 0.428466 0.500285
O O9 0.855157 0.710313 0.072330
O O10 0.000000 0.728118 0.000000
O O11 0.172323 0.586162 0.415041
O O12 0.253045 0.746955 0.355129
#
# Coordination Sequence:
#
# PCOD9578669 Si02
#       4
#    12  12  12  12
#     4   9  17  29  47  71  98 130 166 205 248 291
#     4  10  21  35  53  78 104 133 169 210 257 308
#     4  10  20  34  53  76 101 131 168 207 252 304
#     4  10  20  34  52  74 103 139 178 217 257 303
#
# _framework density 17.104385000000001
#
# number of rings (size 3 to 8) (size 9 to 14) (size 15 to 20)
#    0.000    2.250    0.000    4.000    0.000    4.500 
#    0.000    0.000    0.000    1.000    0.000    0.000 
#    0.000    0.000    0.000    0.000    0.000    0.000 
#
# Total GULP energy -267293.235029 kJ/mol
# GULP energy per Si atom -5568.609063 kJ/mol
# Density = 1.706545 g / cm^3
# Si number density = 17.104385 Si / 1000 Ang^3
#
#
#
# Elastic Constant Matrix: (Units=GPa)
#
#
# Indices 1 2 3 4 5 6 
#
# 1 94.4141 61.9059 73.1120 -6.2762 0.0000 0.0000
# 2 61.9059 94.4141 73.1120 6.2762 0.0000 0.0000
# 3 73.1120 73.1120 120.9293 0.0000 0.0000 0.0000
# 4 -6.2762 6.2762 0.0000 22.4189 0.0000 0.0000
# 5 0.0000 0.0000 0.0000 0.0000 22.4189 -6.2762
# 6 0.0000 0.0000 0.0000 0.0000 -6.2762 16.2541
#
#
#
# Elastic Compliance Matrix: (Units=1/GPa)
#
#
# Indices 1 2 3 4 5 6 
#
# 1 0.024607 -0.009883 -0.008902 0.009656 0.000000 0.000000
# 2 -0.009883 0.024607 -0.008902 -0.009656 0.000000 0.000000
# 3 -0.008902 -0.008902 0.019033 0.000000 0.000000 0.000000
# 4 0.009656 -0.009656 0.000000 0.050011 0.000000 0.000000
# 5 0.000000 0.000000 0.000000 0.000000 0.050011 0.019311
# 6 0.000000 0.000000 0.000000 0.000000 0.019311 0.068980
#
#
# Mechanical properties :
#
#
# Convention : Reuss Voigt Hill
#
# Bulk Modulus (GPa) = 77.67796 80.66860 79.17328
# Shear Modulus (GPa) = 16.83984 18.99355 17.91669
#
# Velocity S-wave (km/s) = 3.14113 3.33596 3.24001
# Velocity P-wave (km/s) = 7.65952 7.88055 7.77082
#
# Compressibility (1/GPa) = 0.01287366
#
# Stress axis : x y z
#
# Youngs Moduli (GPa) = 40.63880 40.63880 52.53923
#
# Poissons Ratio (x) = 0.40162 0.46771
# Poissons Ratio (y) = 0.40162 0.46771
# Poissons Ratio (z) = 0.36177 0.36177
#
# Static dielectric constant tensor:
#      x y z
#    x 0.130660 0.000000 0.000000 
#    y 0.000000 0.130660 0.000000 
#    z 0.000000 0.000000 1.577750 
# 
# From -- ./inp_files/1253.got.cif
#   From: 2010.05.17/outbox.cif.g08.bks.cpg/sg164_1_cif.got.tgz:1253.got - 2010.05.20 10:58:56.
