data_PCOD9578376
_publ_section_title
;
Structure prediction by ZEFSAII (Michael W. Deem and Ramdas Pophale) SiO2 
 PCOD9578376
Probable space group: P -3 M 1
;
_chemical_formula_sum "Si O2"
_cell_formula_units_Z 96
_cell_length_a 17.734077
_cell_length_b 17.734077
_cell_length_c 20.520766
_cell_angle_alpha 90.000000
_cell_angle_beta 90.000000
_cell_angle_gamma 120.000000
_cell_volume 5589.093557
_symmetry_space_group_name_H-M "P -3 M 1"
_symmetry_group_IT_number 164
_symmetry_cell_setting 'hexagonal'
loop_
_space_group_symop_operation_xyz
x,y,z
-y,x-y,z
-x+y,-x,z
x-y,-y,-z
-x,-x+y,-z
y,x,-z
-x,-y,-z
y,-x+y,-z
x-y,x,-z
-x+y,y,z
x,x-y,z
-y,-x,z
loop_
_atom_site_type_symbol
_atom_site_label
_atom_site_fract_x
_atom_site_fract_y
_atom_site_fract_z
Si Si1 0.949874 0.721715 0.430295
Si Si2 0.666839 0.496220 0.587276
Si Si3 0.511737 0.666765 0.862083
Si Si4 0.408916 0.417874 0.229400
Si Si5 0.913279 0.375543 0.454946
Si Si6 0.626823 0.727002 0.992048
Si Si7 0.079594 0.331179 0.329439
Si Si8 0.333053 0.840920 0.120152
O O1 0.867441 0.734881 0.432678
O O2 0.917303 0.618889 0.418911
O O3 0.000000 0.749166 0.500000
O O4 0.015129 0.769162 0.370573
O O5 0.730301 0.460602 0.606742
O O6 0.569413 0.430588 0.609421
O O7 0.664989 0.503623 0.509544
O O8 0.707917 0.591132 0.617184
O O9 0.506308 0.753154 0.848211
O O10 0.416281 0.583720 0.873771
O O11 0.555140 0.639795 0.804438
O O12 0.571003 0.686172 0.926493
O O13 0.493911 0.506090 0.256007
O O14 0.329651 0.361669 0.278222
O O15 0.368167 0.451066 0.173411
O O16 0.908410 0.454205 0.419659
O O17 0.000000 0.421430 0.500000
O O18 0.659602 0.829801 0.990736
O O19 0.700091 0.700091 0.000000
O O20 0.561890 0.687430 0.053438
O O21 0.163381 0.326761 0.303662
O O22 0.409197 0.818393 0.109062
O O23 0.244685 0.755315 0.141956
#
# Coordination Sequence:
#
# PCOD9578376 Si02
#       8
#    12  12  12  12  12  12  12  12
#     4  11  21  36  58  82 104 130 165 209 265 325
#     4  10  18  29  46  71 102 133 164 198 238 289
#     4  10  20  34  54  80 111 146 184 225 269 315
#     4  10  21  35  53  75 105 146 186 223 257 301
#     4   9  16  27  47  74 101 129 160 196 237 287
#     4  10  19  32  53  81 113 146 183 230 279 325
#     4  11  22  36  54  76 103 133 171 214 261 316
#     4  10  19  31  49  75 110 148 185 224 270 319
#
# _framework density 17.176309
#
# number of rings (size 3 to 8) (size 9 to 14) (size 15 to 20)
#    0.000    1.875    3.750    2.250    0.000    1.500 
#    0.000    1.250    0.000    6.625    0.000    0.875 
#    0.000    1.000    0.000    0.000    0.000    0.000 
#
# Total GULP energy -535055.909653 kJ/mol
# GULP energy per Si atom -5573.499059 kJ/mol
# Density = 1.713721 g / cm^3
# Si number density = 17.176309 Si / 1000 Ang^3
#
#
#
# Elastic Constant Matrix: (Units=GPa)
#
#
# Indices 1 2 3 4 5 6 
#
# 1 109.5305 62.6115 32.3079 -2.0431 0.0000 0.0000
# 2 62.6115 109.5305 32.3079 2.0431 0.0000 0.0000
# 3 32.3079 32.3079 55.1637 0.0000 0.0000 0.0000
# 4 -2.0431 2.0431 0.0000 19.5004 0.0000 0.0000
# 5 0.0000 0.0000 0.0000 0.0000 19.5004 -2.0431
# 6 0.0000 0.0000 0.0000 0.0000 -2.0431 23.4595
#
#
#
# Elastic Compliance Matrix: (Units=1/GPa)
#
#
# Indices 1 2 3 4 5 6 
#
# 1 0.014478 -0.007032 -0.004361 0.002254 0.000000 0.000000
# 2 -0.007032 0.014478 -0.004361 -0.002254 0.000000 0.000000
# 3 -0.004361 -0.004361 0.023236 0.000000 0.000000 0.000000
# 4 0.002254 -0.002254 0.000000 0.051753 0.000000 0.000000
# 5 0.000000 0.000000 0.000000 0.000000 0.051753 0.004507
# 6 0.000000 0.000000 0.000000 0.000000 0.004507 0.043019
#
#
# Mechanical properties :
#
#
# Convention : Reuss Voigt Hill
#
# Bulk Modulus (GPa) = 48.34567 58.74212 53.54389
# Shear Modulus (GPa) = 21.08641 22.29190 21.68915
#
# Velocity S-wave (km/s) = 3.50758 3.60645 3.55736
# Velocity P-wave (km/s) = 6.67922 7.18441 6.93641
#
# Compressibility (1/GPa) = 0.02068438
#
# Stress axis : x y z
#
# Youngs Moduli (GPa) = 69.07105 69.07105 43.03648
#
# Poissons Ratio (x) = 0.48569 0.18768
# Poissons Ratio (y) = 0.48569 0.18768
# Poissons Ratio (z) = 0.30122 0.30122
#
# Static dielectric constant tensor:
#      x y z
#    x 1.607430 0.000000 0.000000 
#    y 0.000000 1.607430 0.000000 
#    z 0.000000 0.000000 1.589160 
# 
# From -- ./inp_files/4802.got.cif
#   From: 2010.05.17/outbox.cif.g08.bks.cpg/sg164_3_cif.got.tgz:4802.got - 2010.05.20 10:58:56.
