data_PCOD9578167
_publ_section_title
;
Structure prediction by ZEFSAII (Michael W. Deem and Ramdas Pophale) SiO2 
 PCOD9578167
Probable space group: P -3 1 C
;
_chemical_formula_sum "Si O2"
_cell_formula_units_Z 58
_cell_length_a 13.591664
_cell_length_b 13.591664
_cell_length_c 16.663826
_cell_angle_alpha 90.000000
_cell_angle_beta 90.000000
_cell_angle_gamma 120.000000
_cell_volume 2665.941489
_symmetry_space_group_name_H-M "P -3 1 C"
_symmetry_group_IT_number 163
_symmetry_cell_setting 'hexagonal'
loop_
_space_group_symop_operation_xyz
x,y,z
-y,x-y,z
-x+y,-x,z
-y,-x,1/2-z
-x+y,y,1/2-z
x,x-y,1/2-z
-x,-y,-z
y,-x+y,-z
x-y,x,-z
y,x,1/2+z
x-y,-y,1/2+z
-x,-x+y,1/2+z
loop_
_atom_site_type_symbol
_atom_site_label
_atom_site_fract_x
_atom_site_fract_y
_atom_site_fract_z
Si Si1 0.333333 0.666667 0.154259
Si Si2 0.770830 0.214526 0.938634
Si Si3 0.199210 0.272544 0.176423
Si Si4 0.039584 0.826973 0.453851
Si Si5 0.172867 0.345733 0.750000
Si Si6 0.523674 0.231230 0.116855
O O1 0.333334 0.666667 0.250000
O O2 0.312704 0.763411 0.115450
O O3 0.888927 0.260779 0.889375
O O4 0.735468 0.081679 0.947951
O O5 0.787772 0.271926 0.024846
O O6 0.160180 0.320359 0.250000
O O7 0.082889 0.186806 0.129192
O O8 0.269957 0.217719 0.208066
O O9 0.913883 0.791463 0.477759
O O10 0.257926 0.425280 0.819356
O O11 0.631605 0.213842 0.129575
#
# Coordination Sequence:
#
# PCOD9578167 Si02
#       6
#     4  12  12  12   6  12
#     4  12  21  45  72  94 149 187 222 291 339 411
#     4  10  22  42  68 102 132 186 228 275 352 415
#     4  10  26  40  64  97 138 179 230 287 339 415
#     4  10  23  43  68  95 131 180 229 292 348 416
#     4  12  24  46  68 100 138 184 222 306 344 404
#     4  10  21  43  75 102 135 178 225 287 352 425
#
# _framework density 21.755917
#
# number of rings (size 3 to 8) (size 9 to 14) (size 15 to 20)
#    1.655    0.000    2.069    2.690    5.793    0.000 
#    0.621   10.345    0.000    0.000    0.000    0.000 
#    0.000    0.000    0.000    0.000    0.000    0.000 
#
# Total GULP energy -323335.340082 kJ/mol
# GULP energy per Si atom -5574.747243 kJ/mol
# Density = 2.170640 g / cm^3
# Si number density = 21.755917 Si / 1000 Ang^3
#
#
#
# Elastic Constant Matrix: (Units=GPa)
#
#
# Indices 1 2 3 4 5 6 
#
# 1 52.4218 13.0106 21.7756 -0.0004 -3.4587 0.0001
# 2 13.0106 52.4222 21.7757 0.0003 3.4587 0.0001
# 3 21.7756 21.7757 144.1120 0.0000 0.0000 0.0001
# 4 -0.0004 0.0003 0.0000 34.3209 0.0000 3.4587
# 5 -3.4587 3.4587 0.0000 0.0000 34.3209 -0.0003
# 6 0.0001 0.0001 0.0001 3.4587 -0.0003 19.7058
#
#
#
# Elastic Compliance Matrix: (Units=1/GPa)
#
#
# Indices 1 2 3 4 5 6 
#
# 1 0.021411 -0.004419 -0.002567 0.000000 0.002603 0.000000
# 2 -0.004419 0.021411 -0.002567 0.000000 -0.002603 0.000000
# 3 -0.002567 -0.002567 0.007715 0.000000 0.000000 0.000000
# 4 0.000000 0.000000 0.000000 0.029661 0.000000 -0.005206
# 5 0.002603 -0.002603 0.000000 0.000000 0.029661 0.000001
# 6 0.000000 0.000000 0.000000 -0.005206 0.000001 0.051660
#
#
# Mechanical properties :
#
#
# Convention : Reuss Voigt Hill
#
# Bulk Modulus (GPa) = 31.81819 40.23108 36.02463
# Shear Modulus (GPa) = 26.16368 30.49581 28.32975
#
# Velocity S-wave (km/s) = 3.47162 3.74802 3.61246
# Velocity P-wave (km/s) = 5.54313 6.10429 5.83047
#
# Compressibility (1/GPa) = 0.03142857
#
# Stress axis : x y z
#
# Youngs Moduli (GPa) = 46.70476 46.70511 129.61843
#
# Poissons Ratio (x) = 0.20640 0.33279
# Poissons Ratio (y) = 0.20640 0.33279
# Poissons Ratio (z) = 0.11991 0.11991
#
# Static dielectric constant tensor:
#      x y z
#    x 1.819040 0.000000 0.000000 
#    y 0.000000 1.819040 0.000000 
#    z 0.000000 0.000000 1.843080 
# 
# From -- ./inp_files/2412.got.cif
#   From: 2010.05.17/outbox.cif.g08.bks.cpg/sg163_2_cif.got.tgz:2412.got - 2010.05.20 10:56:03.
