data_PCOD9578896
_publ_section_title
;
Structure prediction by ZEFSAII (Michael W. Deem and Ramdas Pophale) SiO2 
 PCOD9578896
Probable space group: P -3 C 1
;
_chemical_formula_sum "Si O2"
_cell_formula_units_Z 54
_cell_length_a 15.723852
_cell_length_b 15.723852
_cell_length_c 11.647737
_cell_angle_alpha 90.000000
_cell_angle_beta 90.000000
_cell_angle_gamma 120.000000
_cell_volume 2493.963438
_symmetry_space_group_name_H-M "P -3 C 1"
_symmetry_group_IT_number 165
_symmetry_cell_setting 'hexagonal'
loop_
_space_group_symop_operation_xyz
x,y,z
-y,x-y,z
-x+y,-x,z
x-y,-y,1/2-z
-x,-x+y,1/2-z
y,x,1/2-z
-x,-y,-z
y,-x+y,-z
x-y,x,-z
-x+y,y,1/2+z
x,x-y,1/2+z
-y,-x,1/2+z
loop_
_atom_site_type_symbol
_atom_site_label
_atom_site_fract_x
_atom_site_fract_y
_atom_site_fract_z
Si Si1 0.963728 0.345424 0.997074
Si Si2 0.377102 0.899678 0.187964
Si Si3 0.306969 0.104606 0.190032
Si Si4 0.708349 0.000000 0.250000
Si Si5 0.374525 0.789319 0.530186
O O1 0.920148 0.239500 0.058843
O O2 0.061177 0.421021 0.065505
O O3 0.976850 0.335094 0.863342
O O4 0.886855 0.383251 0.019721
O O5 0.275677 0.861677 0.254485
O O6 0.411026 0.821500 0.162234
O O7 0.455728 0.000000 0.250000
O O8 0.280356 0.187441 0.214637
O O9 0.234353 0.000000 0.250000
O O10 0.265160 0.701271 0.503335
#
# Coordination Sequence:
#
# PCOD9578896 Si02
#       5
#    12  12  12   6  12
#     4  10  23  41  65  93 129 168 225 259 328 402
#     4   9  20  44  64  84 132 176 215 265 328 389
#     4   9  23  44  65  94 130 169 213 274 323 394
#     4  12  24  36  76  92 126 174 218 260 338 400
#     4  10  22  36  62  91 135 166 215 281 316 371
#
# _framework density 21.652282
#
# number of rings (size 3 to 8) (size 9 to 14) (size 15 to 20)
#    0.444    2.222    0.000    2.000   10.889    0.000 
#    0.667    6.667    0.000    1.333    0.000    0.000 
#    0.000    0.000    0.000    0.000    0.000    0.000 
#
# Total GULP energy -300696.038658 kJ/mol
# GULP energy per Si atom -5568.445160 kJ/mol
# Density = 2.160300 g / cm^3
# Si number density = 21.652282 Si / 1000 Ang^3
#
#
#
# Elastic Constant Matrix: (Units=GPa)
#
#
# Indices 1 2 3 4 5 6 
#
# 1 79.0283 32.6190 31.0270 8.0855 0.0000 0.0000
# 2 32.6190 79.0283 31.0270 -8.0855 0.0000 0.0000
# 3 31.0270 31.0270 125.9533 0.0000 0.0000 0.0000
# 4 8.0855 -8.0855 0.0000 19.4734 0.0000 0.0000
# 5 0.0000 0.0000 0.0000 0.0000 19.4734 8.0855
# 6 0.0000 0.0000 0.0000 0.0000 8.0855 23.2046
#
#
#
# Elastic Compliance Matrix: (Units=1/GPa)
#
#
# Indices 1 2 3 4 5 6 
#
# 1 0.017785 -0.007407 -0.002556 -0.010460 0.000000 0.000000
# 2 -0.007407 0.017785 -0.002556 0.010460 0.000000 0.000000
# 3 -0.002556 -0.002556 0.009199 0.000000 0.000000 0.000000
# 4 -0.010460 0.010460 0.000000 0.060038 0.000000 0.000000
# 5 0.000000 0.000000 0.000000 0.000000 0.060038 -0.020920
# 6 0.000000 0.000000 0.000000 0.000000 -0.020920 0.050384
#
#
# Mechanical properties :
#
#
# Convention : Reuss Voigt Hill
#
# Bulk Modulus (GPa) = 50.68784 52.59509 51.64146
# Shear Modulus (GPa) = 20.25557 25.05275 22.65416
#
# Velocity S-wave (km/s) = 3.06190 3.40523 3.23812
# Velocity P-wave (km/s) = 5.99676 6.30907 6.15489
#
# Compressibility (1/GPa) = 0.01972860
#
# Stress axis : x y z
#
# Youngs Moduli (GPa) = 56.22755 56.22755 108.70847
#
# Poissons Ratio (x) = 0.41649 0.27790
# Poissons Ratio (y) = 0.41649 0.27790
# Poissons Ratio (z) = 0.14374 0.14374
#
# Static dielectric constant tensor:
#      x y z
#    x 1.824970 0.000000 0.000000 
#    y 0.000000 1.824970 0.000000 
#    z 0.000000 0.000000 1.866160 
# 
# From -- ./inp_files/1111.got.cif
#   From: 2010.05.17/outbox.cif.g08.bks.cpg/sg165_1_cif.got.tgz:1111.got - 2010.05.20 11:02:39.
