data_PCOD9578500
_publ_section_title
;
Structure prediction by ZEFSAII (Michael W. Deem and Ramdas Pophale) SiO2 
 PCOD9578500
Probable space group: P -3 M 1
;
_chemical_formula_sum "Si O2"
_cell_formula_units_Z 84
_cell_length_a 17.993441
_cell_length_b 17.993441
_cell_length_c 18.467252
_cell_angle_alpha 90.000000
_cell_angle_beta 90.000000
_cell_angle_gamma 120.000000
_cell_volume 5177.991767
_symmetry_space_group_name_H-M "P -3 M 1"
_symmetry_group_IT_number 164
_symmetry_cell_setting 'hexagonal'
loop_
_space_group_symop_operation_xyz
x,y,z
-y,x-y,z
-x+y,-x,z
x-y,-y,-z
-x,-x+y,-z
y,x,-z
-x,-y,-z
y,-x+y,-z
x-y,x,-z
-x+y,y,z
x,x-y,z
-y,-x,z
loop_
_atom_site_type_symbol
_atom_site_label
_atom_site_fract_x
_atom_site_fract_y
_atom_site_fract_z
Si Si1 0.089322 0.742866 0.966232
Si Si2 0.842023 0.507978 0.636600
Si Si3 0.084440 0.749534 0.793517
Si Si4 0.000608 0.825669 0.696149
Si Si5 0.666804 0.510403 0.922709
Si Si6 0.610686 0.562286 0.780678
Si Si7 0.241755 0.309039 0.435316
O O1 0.163465 0.836536 0.988670
O O2 0.085758 0.740516 0.879878
O O3 0.116329 0.678438 0.003063
O O4 0.000000 0.720805 0.000000
O O5 0.744647 0.489293 0.636075
O O6 0.846678 0.423339 0.615979
O O7 0.881905 0.535264 0.717049
O O8 0.897754 0.592599 0.588195
O O9 0.181981 0.818020 0.769994
O O10 0.028153 0.791073 0.765843
O O11 0.035069 0.653010 0.764192
O O12 0.917334 0.834667 0.709122
O O13 0.976030 0.755222 0.632767
O O14 0.083007 0.916994 0.675788
O O15 0.751413 0.502825 0.911960
O O16 0.582538 0.417463 0.923876
O O17 0.655978 0.562556 0.856210
O O18 0.512607 0.487394 0.786398
O O19 0.279630 0.279630 0.500000
O O20 0.151120 0.302240 0.455588
#
# Coordination Sequence:
#
# PCOD9578500 Si02
#       7
#    12  12  12  12  12  12  12
#     4  10  20  33  49  70  96 130 169 210 254 302
#     4  10  20  34  53  79 110 142 174 211 258 308
#     4  10  20  34  50  73 101 132 172 214 253 299
#     4  10  20  34  54  77 104 135 169 211 261 315
#     4  10  20  32  50  75 105 136 168 211 263 317
#     4  10  19  32  53  78 103 134 171 214 261 311
#     4  10  20  34  54  80 110 140 171 208 250 301
#
# _framework density 16.222505000000002
#
# number of rings (size 3 to 8) (size 9 to 14) (size 15 to 20)
#    0.000    2.000    2.857    1.286    0.000    2.286 
#    0.000    1.429    0.000    2.714    0.000    0.000 
#    0.000    0.000    0.000    0.000    0.000    0.000 
#
# Total GULP energy -468161.464657 kJ/mol
# GULP energy per Si atom -5573.350770 kJ/mol
# Density = 1.618558 g / cm^3
# Si number density = 16.222505 Si / 1000 Ang^3
#
#
#
# Elastic Constant Matrix: (Units=GPa)
#
#
# Indices 1 2 3 4 5 6 
#
# 1 106.8008 65.2198 40.5721 0.0031 0.0000 0.0000
# 2 65.2198 106.8008 40.5721 -0.0031 0.0000 0.0000
# 3 40.5721 40.5721 63.7130 0.0000 0.0000 0.0000
# 4 0.0031 -0.0031 0.0000 24.0234 0.0000 0.0000
# 5 0.0000 0.0000 0.0000 0.0000 24.0234 0.0031
# 6 0.0000 0.0000 0.0000 0.0000 0.0031 20.7905
#
#
#
# Elastic Compliance Matrix: (Units=1/GPa)
#
#
# Indices 1 2 3 4 5 6 
#
# 1 0.016179 -0.007870 -0.005291 -0.000003 0.000000 0.000000
# 2 -0.007870 0.016179 -0.005291 0.000003 0.000000 0.000000
# 3 -0.005291 -0.005291 0.022434 0.000000 0.000000 0.000000
# 4 -0.000003 0.000003 0.000000 0.041626 0.000000 0.000000
# 5 0.000000 0.000000 0.000000 0.000000 0.041626 -0.000006
# 6 0.000000 0.000000 0.000000 0.000000 -0.000006 0.048099
#
#
# Mechanical properties :
#
#
# Convention : Reuss Voigt Hill
#
# Bulk Modulus (GPa) = 55.90449 63.33808 59.62128
# Shear Modulus (GPa) = 21.83292 22.49749 22.16520
#
# Velocity S-wave (km/s) = 3.67255 3.72803 3.70039
# Velocity P-wave (km/s) = 7.24703 7.59335 7.42221
#
# Compressibility (1/GPa) = 0.01788765
#
# Stress axis : x y z
#
# Youngs Moduli (GPa) = 61.80726 61.80726 44.57457
#
# Poissons Ratio (x) = 0.48643 0.23586
# Poissons Ratio (y) = 0.48643 0.23586
# Poissons Ratio (z) = 0.32704 0.32704
#
# Static dielectric constant tensor:
#      x y z
#    x 1.541140 0.000000 0.000000 
#    y 0.000000 1.541140 0.000000 
#    z 0.000000 0.000000 1.534170 
# 
# From -- ./inp_files/3615.got.cif
#   From: 2010.05.17/outbox.cif.g08.bks.cpg/sg164_2_cif.got.tgz:3615.got - 2010.05.20 10:58:56.
