data_PCOD9578956
_publ_section_title
;
Structure prediction by ZEFSAII (Michael W. Deem and Ramdas Pophale) SiO2 
 PCOD9578956
Probable space group: P -3 C 1
;
_chemical_formula_sum "Si O2"
_cell_formula_units_Z 74
_cell_length_a 11.376900
_cell_length_b 11.376900
_cell_length_c 30.428513
_cell_angle_alpha 90.000000
_cell_angle_beta 90.000000
_cell_angle_gamma 120.000000
_cell_volume 3410.823470
_symmetry_space_group_name_H-M "P -3 C 1"
_symmetry_group_IT_number 165
_symmetry_cell_setting 'hexagonal'
loop_
_space_group_symop_operation_xyz
x,y,z
-y,x-y,z
-x+y,-x,z
x-y,-y,1/2-z
-x,-x+y,1/2-z
y,x,1/2-z
-x,-y,-z
y,-x+y,-z
x-y,x,-z
-x+y,y,1/2+z
x,x-y,1/2+z
-y,-x,1/2+z
loop_
_atom_site_type_symbol
_atom_site_label
_atom_site_fract_x
_atom_site_fract_y
_atom_site_fract_z
Si Si1 0.951019 0.577977 0.879797
Si Si2 0.289875 0.177636 0.478574
Si Si3 0.333334 0.666668 0.413966
Si Si4 0.171425 0.365607 0.321780
Si Si5 0.612286 0.086140 0.534773
Si Si6 0.359824 0.076315 0.878467
Si Si7 0.155193 0.000000 0.250000
Si Si8 0.666668 0.333334 0.690847
O O1 0.924328 0.425708 0.876415
O O2 0.831109 0.603651 0.863757
O O3 0.088611 0.685654 0.856200
O O4 0.979531 0.615200 0.931039
O O5 0.200535 0.223989 0.507168
O O6 0.433044 0.258430 0.504029
O O7 0.303376 0.233825 0.428583
O O8 0.413609 0.817041 0.433549
O O9 0.333334 0.666667 0.362171
O O10 0.252941 0.303231 0.348029
O O11 0.273487 0.507901 0.297268
O O12 0.051654 0.258913 0.290181
O O13 0.500000 0.000000 0.500000
O O14 0.125325 0.125325 0.250000
#
# Coordination Sequence:
#
# PCOD9578956 Si02
#       8
#    12  12   4  12  12  12   6   4
#     4  12  25  44  69 105 147 198 255 312 378 438
#     4  12  25  41  56  91 140 198 264 323 367 424
#     4  12  24  39  66  96 145 200 259 318 372 444
#     4  12  24  51  80 113 149 191 242 309 383 472
#     4  12  23  38  60  92 138 197 258 308 367 421
#     4  12  26  43  72 104 151 199 258 316 376 444
#     4  10  26  54  82 114 150 186 236 290 382 480
#     4  12  24  45  81 114 148 197 247 315 384 450
#
# _framework density 21.695640000000001
#
# number of rings (size 3 to 8) (size 9 to 14) (size 15 to 20)
#    0.162    0.000    6.486    3.405    0.000    0.000 
#    2.432    0.000    0.000    0.000    0.000    0.000 
#    0.000    0.000    0.000    0.000    0.000    0.000 
#
# Total GULP energy -412431.521638 kJ/mol
# GULP energy per Si atom -5573.398941 kJ/mol
# Density = 2.164626 g / cm^3
# Si number density = 21.695640 Si / 1000 Ang^3
#
#
#
# Elastic Constant Matrix: (Units=GPa)
#
#
# Indices 1 2 3 4 5 6 
#
# 1 113.7840 37.6436 37.7843 -5.3133 0.0000 0.0000
# 2 37.6436 113.7839 37.7843 5.3136 0.0000 0.0000
# 3 37.7843 37.7843 84.4138 0.0000 0.0000 0.0000
# 4 -5.3133 5.3136 0.0000 33.8790 0.0000 0.0000
# 5 0.0000 0.0000 0.0000 0.0000 33.8789 -5.3133
# 6 0.0000 0.0000 0.0000 0.0000 -5.3133 38.0699
#
#
#
# Elastic Compliance Matrix: (Units=1/GPa)
#
#
# Indices 1 2 3 4 5 6 
#
# 1 0.010965 -0.002462 -0.003806 0.002106 0.000000 0.000000
# 2 -0.002462 0.010965 -0.003806 -0.002106 0.000000 0.000000
# 3 -0.003806 -0.003806 0.015254 0.000000 0.000000 0.000000
# 4 0.002106 -0.002106 0.000000 0.030177 0.000000 0.000000
# 5 0.000000 0.000000 0.000000 0.000000 0.030177 0.004212
# 6 0.000000 0.000000 0.000000 0.000000 0.004212 0.026855
#
#
# Mechanical properties :
#
#
# Convention : Reuss Voigt Hill
#
# Bulk Modulus (GPa) = 58.70025 59.82289 59.26157
# Shear Modulus (GPa) = 33.28408 34.41686 33.85047
#
# Velocity S-wave (km/s) = 3.92106 3.98722 3.95428
# Velocity P-wave (km/s) = 6.90033 6.98790 6.94425
#
# Compressibility (1/GPa) = 0.01703570
#
# Stress axis : x y z
#
# Youngs Moduli (GPa) = 91.19605 91.19589 65.55787
#
# Poissons Ratio (x) = 0.22454 0.24952
# Poissons Ratio (y) = 0.22454 0.24952
# Poissons Ratio (z) = 0.34710 0.34710
#
# Static dielectric constant tensor:
#      x y z
#    x 1.783820 0.000000 0.000000 
#    y 0.000000 1.783820 0.000000 
#    z 0.000000 0.000000 2.024270 
# 
# From -- ./inp_files/3349.got.cif
#   From: 2010.05.17/outbox.cif.g08.bks.cpg/sg165_2_cif.got.tgz:3349.got - 2010.05.20 11:02:39.
