data_PCOD9578523
_publ_section_title
;
Structure prediction by ZEFSAII (Michael W. Deem and Ramdas Pophale) SiO2 
 PCOD9578523
Probable space group: P -3 M 1
;
_chemical_formula_sum "Si O2"
_cell_formula_units_Z 60
_cell_length_a 18.036140
_cell_length_b 18.036140
_cell_length_c 11.258305
_cell_angle_alpha 90.000000
_cell_angle_beta 90.000000
_cell_angle_gamma 120.000000
_cell_volume 3171.690761
_symmetry_space_group_name_H-M "P -3 M 1"
_symmetry_group_IT_number 164
_symmetry_cell_setting 'hexagonal'
loop_
_space_group_symop_operation_xyz
x,y,z
-y,x-y,z
-x+y,-x,z
x-y,-y,-z
-x,-x+y,-z
y,x,-z
-x,-y,-z
y,-x+y,-z
x-y,x,-z
-x+y,y,z
x,x-y,z
-y,-x,z
loop_
_atom_site_type_symbol
_atom_site_label
_atom_site_fract_x
_atom_site_fract_y
_atom_site_fract_z
Si Si1 0.610023 0.805012 0.269167
Si Si2 0.618131 0.550371 0.095263
Si Si3 0.898855 0.101146 0.851881
Si Si4 0.927035 0.546824 0.706101
Si Si5 0.401500 0.200750 0.194373
Si Si6 0.202024 0.101012 0.138971
Si Si7 0.823137 0.646274 0.448942
Si Si8 0.000000 0.314959 0.500000
O O1 0.706553 0.853277 0.216608
O O2 0.561031 0.854908 0.231952
O O3 0.611806 0.805903 0.414491
O O4 0.545882 0.454119 0.057490
O O5 0.583924 0.573692 0.212412
O O6 0.709631 0.563680 0.127387
O O7 0.615739 0.615739 0.000000
O O8 0.000703 0.149601 0.825715
O O9 0.893415 0.106586 0.995189
O O10 0.897824 0.448912 0.678586
O O11 0.956992 0.608665 0.593612
O O12 0.298085 0.149043 0.188421
O O13 0.419005 0.209503 0.337138
O O14 0.771527 0.697310 0.442138
#
# Coordination Sequence:
#
# PCOD9578523 Si02
#       8
#     6  12   6  12   6   6   6   6
#     4  10  22  37  56  85 123 152 197 249 296 363
#     4  10  23  40  60  90 120 154 200 252 299 359
#     4  10  21  40  54  88 120 153 200 251 302 342
#     4  10  20  36  59  84 115 155 195 246 298 350
#     4  12  22  39  64  89 117 161 206 241 298 371
#     4  10  23  34  62  84 116 158 199 250 298 360
#     4  10  22  36  58  87 116 156 203 241 298 347
#     4  10  19  38  58  87 116 152 202 247 290 354
#
# _framework density 18.917354
#
# number of rings (size 3 to 8) (size 9 to 14) (size 15 to 20)
#    0.000    1.800    2.000    1.700    8.400    0.800 
#    1.200    0.000    0.000    0.200    0.000    0.000 
#    0.000    0.000    0.000    0.000    0.000    0.000 
#
# Total GULP energy -334413.508714 kJ/mol
# GULP energy per Si atom -5573.558479 kJ/mol
# Density = 1.887430 g / cm^3
# Si number density = 18.917354 Si / 1000 Ang^3
#
#
#
# Elastic Constant Matrix: (Units=GPa)
#
#
# Indices 1 2 3 4 5 6 
#
# 1 178.2042 28.2576 22.4495 -22.6279 0.0000 0.0000
# 2 28.2576 178.2042 22.4495 22.6279 0.0000 0.0000
# 3 22.4495 22.4495 57.4795 0.0000 0.0000 0.0000
# 4 -22.6279 22.6279 0.0000 38.7373 0.0000 0.0000
# 5 0.0000 0.0000 0.0000 0.0000 38.7373 -22.6279
# 6 0.0000 0.0000 0.0000 0.0000 -22.6279 74.9733
#
#
#
# Elastic Compliance Matrix: (Units=1/GPa)
#
#
# Indices 1 2 3 4 5 6 
#
# 1 0.006695 -0.001402 -0.002067 0.004729 0.000000 0.000000
# 2 -0.001402 0.006695 -0.002067 -0.004729 0.000000 0.000000
# 3 -0.002067 -0.002067 0.019012 0.000000 0.000000 0.000000
# 4 0.004729 -0.004729 0.000000 0.031340 0.000000 0.000000
# 5 0.000000 0.000000 0.000000 0.000000 0.031340 0.009459
# 6 0.000000 0.000000 0.000000 0.000000 0.009459 0.016193
#
#
# Mechanical properties :
#
#
# Convention : Reuss Voigt Hill
#
# Bulk Modulus (GPa) = 46.88381 62.24457 54.56419
# Shear Modulus (GPa) = 38.62274 53.20503 45.91389
#
# Velocity S-wave (km/s) = 4.52337 5.30905 4.93188
# Velocity P-wave (km/s) = 7.21931 8.39978 7.83182
#
# Compressibility (1/GPa) = 0.02132932
#
# Stress axis : x y z
#
# Youngs Moduli (GPa) = 149.37046 149.37046 52.59741
#
# Poissons Ratio (x) = 0.20937 0.10873
# Poissons Ratio (y) = 0.20937 0.10873
# Poissons Ratio (z) = 0.30879 0.30879
#
# Static dielectric constant tensor:
#      x y z
#    x 1.715960 0.000000 0.000000 
#    y 0.000000 1.715960 0.000000 
#    z 0.000000 0.000000 1.777420 
# 
# From -- ./inp_files/2795.got.cif
#   From: 2010.05.17/outbox.cif.g08.bks.cpg/sg164_2_cif.got.tgz:2795.got - 2010.05.20 10:58:56.
