data_PCOD9578081
_publ_section_title
;
Structure prediction by ZEFSAII (Michael W. Deem and Ramdas Pophale) SiO2 
 PCOD9578081
Probable space group: P -3 1 C
;
_chemical_formula_sum "Si O2"
_cell_formula_units_Z 46
_cell_length_a 19.633196
_cell_length_b 19.633196
_cell_length_c 8.979994
_cell_angle_alpha 90.000000
_cell_angle_beta 90.000000
_cell_angle_gamma 120.000000
_cell_volume 2997.703553
_symmetry_space_group_name_H-M "P -3 1 C"
_symmetry_group_IT_number 163
_symmetry_cell_setting 'hexagonal'
loop_
_space_group_symop_operation_xyz
x,y,z
-y,x-y,z
-x+y,-x,z
-y,-x,1/2-z
-x+y,y,1/2-z
x,x-y,1/2-z
-x,-y,-z
y,-x+y,-z
x-y,x,-z
y,x,1/2+z
x-y,-y,1/2+z
-x,-x+y,1/2+z
loop_
_atom_site_type_symbol
_atom_site_label
_atom_site_fract_x
_atom_site_fract_y
_atom_site_fract_z
Si Si1 0.439397 0.346289 0.439141
Si Si2 0.468974 0.234487 0.250000
Si Si3 0.666667 0.333333 0.923457
Si Si4 0.171582 0.618402 0.533643
Si Si5 0.935863 0.548465 0.778207
O O1 0.427139 0.265547 0.366168
O O2 0.529906 0.417603 0.417057
O O3 0.429544 0.344668 0.618210
O O4 0.389156 0.378515 0.354206
O O5 0.519828 0.205612 0.343485
O O6 0.666668 0.333334 0.750000
O O7 0.612170 0.245559 0.977236
O O8 0.134118 0.643342 0.399557
O O9 0.952430 0.476215 0.750000
#
# Coordination Sequence:
#
# PCOD9578081 Si02
#       5
#    12   6   4  12  12
#     4  11  21  35  51  66  89 118 156 195 246 308
#     4  12  22  30  46  68  90 114 146 198 244 294
#     4  12  21  31  44  67  96 118 149 202 264 304
#     4  11  22  32  46  67  93 118 153 195 252 304
#     4  10  20  36  51  65  85 123 158 189 238 313
#
# _framework density 15.345079999999999
#
# number of rings (size 3 to 8) (size 9 to 14) (size 15 to 20)
#    0.000    1.043    2.609    9.391    0.000    0.000 
#    0.000    0.000    0.000    0.000    0.000    0.000 
#    0.000    0.000    0.000    0.000    0.000    0.000 
#
# Total GULP energy -256480.424529 kJ/mol
# GULP energy per Si atom -5575.661403 kJ/mol
# Density = 1.531015 g / cm^3
# Si number density = 15.345080 Si / 1000 Ang^3
#
#
#
# Elastic Constant Matrix: (Units=GPa)
#
#
# Indices 1 2 3 4 5 6 
#
# 1 43.2378 10.6066 33.3580 0.0001 5.2444 0.0000
# 2 10.6066 43.2383 33.3580 -0.0005 -5.2446 0.0003
# 3 33.3580 33.3580 118.0081 0.0000 0.0000 -0.0002
# 4 0.0001 -0.0005 0.0000 31.4810 0.0004 -5.2446
# 5 5.2444 -5.2446 0.0000 0.0004 31.4809 -0.0002
# 6 0.0000 0.0003 -0.0002 -5.2446 -0.0002 16.3159
#
#
#
# Elastic Compliance Matrix: (Units=1/GPa)
#
#
# Indices 1 2 3 4 5 6 
#
# 1 0.030481 -0.001898 -0.008080 0.000000 -0.005394 0.000000
# 2 -0.001898 0.030481 -0.008080 0.000000 0.005394 0.000000
# 3 -0.008080 -0.008080 0.013042 0.000000 0.000000 0.000000
# 4 0.000000 0.000000 0.000000 0.033563 0.000000 0.010788
# 5 -0.005394 0.005394 0.000000 0.000000 0.033563 0.000000
# 6 0.000000 0.000000 0.000000 0.010788 0.000000 0.064758
#
#
# Mechanical properties :
#
#
# Convention : Reuss Voigt Hill
#
# Bulk Modulus (GPa) = 26.39282 39.90326 33.14804
# Shear Modulus (GPa) = 19.63619 24.33299 21.98459
#
# Velocity S-wave (km/s) = 3.58109 3.98643 3.78918
# Velocity P-wave (km/s) = 5.85968 6.87381 6.38690
#
# Compressibility (1/GPa) = 0.03788909
#
# Stress axis : x y z
#
# Youngs Moduli (GPa) = 32.80693 32.80743 76.67616
#
# Poissons Ratio (x) = 0.06227 0.61953
# Poissons Ratio (y) = 0.06227 0.61952
# Poissons Ratio (z) = 0.26507 0.26507
#
# Static dielectric constant tensor:
#      x y z
#    x 1.448380 0.000010 0.000000 
#    y 0.000010 1.448390 -0.000010 
#    z 0.000000 -0.000010 1.621270 
# 
# From -- ./inp_files/911.got.cif
#   From: 2010.05.17/outbox.cif.g08.bks.cpg/sg163_1_cif.got.tgz:911.got - 2010.05.20 10:56:03.
