data_PCOD9578311
_publ_section_title
;
Structure prediction by ZEFSAII (Michael W. Deem and Ramdas Pophale) SiO2 
 PCOD9578311
Probable space group: P -3 M 1
;
_chemical_formula_sum "Si O2"
_cell_formula_units_Z 36
_cell_length_a 20.801734
_cell_length_b 20.801734
_cell_length_c 5.482942
_cell_angle_alpha 90.000000
_cell_angle_beta 90.000000
_cell_angle_gamma 120.000000
_cell_volume 2054.676059
_symmetry_space_group_name_H-M "P -3 M 1"
_symmetry_group_IT_number 164
_symmetry_cell_setting 'hexagonal'
loop_
_space_group_symop_operation_xyz
x,y,z
-y,x-y,z
-x+y,-x,z
x-y,-y,-z
-x,-x+y,-z
y,x,-z
-x,-y,-z
y,-x+y,-z
x-y,x,-z
-x+y,y,z
x,x-y,z
-y,-x,z
loop_
_atom_site_type_symbol
_atom_site_label
_atom_site_fract_x
_atom_site_fract_y
_atom_site_fract_z
Si Si1 0.328186 0.915738 0.250000
Si Si2 0.085933 0.466219 0.750000
Si Si3 0.755993 0.953536 0.250000
O O1 0.335728 0.880540 0.500505
O O2 0.255608 0.923399 0.249999
O O3 0.399218 0.999891 0.250000
O O4 0.335729 0.880540 0.999495
O O5 0.086669 0.543335 0.749998
O O6 0.770284 0.885142 0.249999
O O7 0.787118 0.000000 0.500000
O O8 0.787118 0.000000 0.000000
#
# Coordination Sequence:
#
# PCOD9578311 Si02
#       3
#    12  12  12
#     4  10  16  29  44  70 105 131 175 189 238 304
#     4  10  16  25  46  72 110 143 159 183 226 294
#     4  12  23  40  59  78 101 136 178 230 286 356
#
# _framework density 17.521011999999999
#
# number of rings (size 3 to 8) (size 9 to 14) (size 15 to 20)
#    0.000    1.333    6.667    6.000    0.000    0.000 
#    0.000    0.000    0.000    6.667    0.000    0.000 
#    0.000    0.000    0.000   45.000    0.000    0.000 
#
# Total GULP energy -200710.955608 kJ/mol
# GULP energy per Si atom -5575.304322 kJ/mol
# Density = 1.748113 g / cm^3
# Si number density = 17.521012 Si / 1000 Ang^3
#
#
#
# Elastic Constant Matrix: (Units=GPa)
#
#
# Indices 1 2 3 4 5 6 
#
# 1 42.4597 45.0612 40.8784 -0.0004 0.0000 0.0000
# 2 45.0612 42.4597 40.8784 0.0004 0.0000 0.0000
# 3 40.8784 40.8784 220.8456 0.0000 0.0000 0.0000
# 4 -0.0004 0.0004 0.0000 10.6389 0.0000 0.0000
# 5 0.0000 0.0000 0.0000 0.0000 10.6389 -0.0004
# 6 0.0000 0.0000 0.0000 0.0000 -0.0004 -1.3007
#
#
#
# Elastic Compliance Matrix: (Units=1/GPa)
#
#
# Indices 1 2 3 4 5 6 
#
# 1 -0.185295 0.199110 -0.002557 -0.000015 0.000000 0.000000
# 2 0.199110 -0.185295 -0.002557 0.000015 0.000000 0.000000
# 3 -0.002557 -0.002557 0.005475 0.000000 0.000000 0.000000
# 4 -0.000015 0.000015 0.000000 0.093995 0.000000 0.000000
# 5 0.000000 0.000000 0.000000 0.000000 0.093995 -0.000030
# 6 0.000000 0.000000 0.000000 0.000000 -0.000030 -0.768809
#
#
# Mechanical properties :
#
#
# Convention : Reuss Voigt Hill
#
# Bulk Modulus (GPa) = 43.71503 62.15566 52.93534
# Shear Modulus (GPa) = -3.76988 15.92524 6.07768
#
# Velocity S-wave (km/s) = -1.46844 3.01810 1.86449
# Velocity P-wave (km/s) = 4.70416 6.90632 5.90874
#
# Compressibility (1/GPa) = 0.02287543
#
# Stress axis : x y z
#
# Youngs Moduli (GPa) = -5.39680 -5.39680 182.65950
#
# Poissons Ratio (x) = 1.07455 0.46707
# Poissons Ratio (y) = 1.07455 0.46707
# Poissons Ratio (z) = -0.01380 -0.01380
#
# Static dielectric constant tensor:
#      x y z
#    x 1.564170 0.000000 0.000000 
#    y 0.000000 1.564170 0.000000 
#    z 0.000000 0.000000 1.733330 
# 
# From -- ./inp_files/285.got.cif
#   From: 2010.05.17/outbox.cif.g08.bks.cpg/sg164_1_cif.got.tgz:285.got - 2010.05.20 10:58:56.
