data_PCOD9578254
_publ_section_title
;
Structure prediction by ZEFSAII (Michael W. Deem and Ramdas Pophale) SiO2 
 PCOD9578254
Probable space group: P -3 1 C
;
_chemical_formula_sum "Si O2"
_cell_formula_units_Z 52
_cell_length_a 11.905656
_cell_length_b 11.905656
_cell_length_c 19.360652
_cell_angle_alpha 90.000000
_cell_angle_beta 90.000000
_cell_angle_gamma 120.000000
_cell_volume 2376.606444
_symmetry_space_group_name_H-M "P -3 1 C"
_symmetry_group_IT_number 163
_symmetry_cell_setting 'hexagonal'
loop_
_space_group_symop_operation_xyz
x,y,z
-y,x-y,z
-x+y,-x,z
-y,-x,1/2-z
-x+y,y,1/2-z
x,x-y,1/2-z
-x,-y,-z
y,-x+y,-z
x-y,x,-z
y,x,1/2+z
x-y,-y,1/2+z
-x,-x+y,1/2+z
loop_
_atom_site_type_symbol
_atom_site_label
_atom_site_fract_x
_atom_site_fract_y
_atom_site_fract_z
Si Si1 0.023925 0.724373 0.722004
Si Si2 0.333335 0.666668 0.166490
Si Si3 0.429293 0.077397 0.414711
Si Si4 0.867796 0.237408 0.646890
Si Si5 0.395708 0.312505 0.461618
O O1 0.137420 0.862581 0.750000
O O2 0.075156 0.659795 0.667246
O O3 0.908669 0.723420 0.675910
O O4 0.956916 0.636166 0.788214
O O5 0.333334 0.666667 0.250000
O O6 0.273124 0.754470 0.141709
O O7 0.399444 0.186024 0.441693
O O8 0.567159 0.099879 0.438119
O O9 0.328476 0.949143 0.457203
O O10 0.961929 0.284842 0.581272
#
# Coordination Sequence:
#
# PCOD9578254 Si02
#       5
#    12   4  12  12  12
#     4  11  22  42  64  96 138 181 230 280 354 422
#     4  12  21  39  69 108 132 174 241 299 364 411
#     4  11  24  42  66  95 132 180 223 292 353 425
#     4  11  24  41  69 101 137 182 233 299 351 427
#     4  11  24  44  67  98 138 178 238 291 362 434
#
# _framework density 21.879939
#
# number of rings (size 3 to 8) (size 9 to 14) (size 15 to 20)
#    0.000    0.923    4.615    3.231    0.000    1.846 
#    5.538    0.000    0.000    1.846    0.000    0.000 
#    0.000    0.000    0.000    0.000    0.000    0.000 
#
# Total GULP energy -290664.668959 kJ/mol
# GULP energy per Si atom -5589.705172 kJ/mol
# Density = 2.183014 g / cm^3
# Si number density = 21.879939 Si / 1000 Ang^3
#
#
#
# Elastic Constant Matrix: (Units=GPa)
#
#
# Indices 1 2 3 4 5 6 
#
# 1 102.4685 44.9325 25.5571 0.0001 -11.0924 0.0003
# 2 44.9325 102.4692 25.5571 -0.0005 11.0920 0.0002
# 3 25.5571 25.5571 117.5285 0.0000 -0.0001 0.0000
# 4 0.0001 -0.0005 0.0000 -17.2076 -0.0004 11.0922
# 5 -11.0924 11.0920 -0.0001 -0.0004 -17.2071 0.0003
# 6 0.0003 0.0002 0.0000 11.0922 0.0003 28.7682
#
#
#
# Elastic Compliance Matrix: (Units=1/GPa)
#
#
# Indices 1 2 3 4 5 6 
#
# 1 0.010629 -0.003291 -0.001596 0.000000 -0.008974 0.000000
# 2 -0.003291 0.010629 -0.001596 -0.000001 0.008973 0.000000
# 3 -0.001596 -0.001596 0.009203 0.000000 0.000000 0.000000
# 4 0.000000 -0.000001 0.000000 -0.046545 0.000001 0.017947
# 5 -0.008974 0.008973 0.000000 0.000001 -0.046546 0.000000
# 6 0.000000 0.000000 0.000000 0.017947 0.000000 0.027841
#
#
# Mechanical properties :
#
#
# Convention : Reuss Voigt Hill
#
# Bulk Modulus (GPa) = 57.15849 57.17326 57.16588
# Shear Modulus (GPa) = -312.62732 13.96533 -149.33099
#
# Velocity S-wave (km/s) = -11.96634 2.52914 -8.27033
# Velocity P-wave (km/s) = 12.83526 5.89202 8.06313
#
# Compressibility (1/GPa) = 0.01749521
#
# Stress axis : x y z
#
# Youngs Moduli (GPa) = 94.08274 94.08295 108.66605
#
# Poissons Ratio (x) = 0.30967 0.17338
# Poissons Ratio (y) = 0.30967 0.17338
# Poissons Ratio (z) = 0.15012 0.15012
#
# Static dielectric constant tensor:
#      x y z
#    x 1.795840 0.000000 0.000000 
#    y 0.000000 1.795840 0.000000 
#    z 0.000000 0.000000 1.820310 
# 
# From -- ./inp_files/3496.got.cif
#   From: 2010.05.17/outbox.cif.g08.bks.cpg/sg163_2_cif.got.tgz:3496.got - 2010.05.20 10:56:03.
