data_PCOD9578048
_publ_section_title
;
Structure prediction by ZEFSAII (Michael W. Deem and Ramdas Pophale) SiO2 
 PCOD9578048
Probable space group: P -3 1 C
;
_chemical_formula_sum "Si O2"
_cell_formula_units_Z 40
_cell_length_a 12.253958
_cell_length_b 12.253958
_cell_length_c 14.582993
_cell_angle_alpha 90.000000
_cell_angle_beta 90.000000
_cell_angle_gamma 120.000000
_cell_volume 1896.400556
_symmetry_space_group_name_H-M "P -3 1 C"
_symmetry_group_IT_number 163
_symmetry_cell_setting 'hexagonal'
loop_
_space_group_symop_operation_xyz
x,y,z
-y,x-y,z
-x+y,-x,z
-y,-x,1/2-z
-x+y,y,1/2-z
x,x-y,1/2-z
-x,-y,-z
y,-x+y,-z
x-y,x,-z
y,x,1/2+z
x-y,-y,1/2+z
-x,-x+y,1/2+z
loop_
_atom_site_type_symbol
_atom_site_label
_atom_site_fract_x
_atom_site_fract_y
_atom_site_fract_z
Si Si1 0.016750 0.262661 0.197865
Si Si2 0.333335 0.666668 0.359775
Si Si3 0.076749 0.317350 0.881397
Si Si4 0.587083 0.787589 0.444594
O O1 0.118397 0.236794 0.250000
O O2 0.235125 0.093054 0.146280
O O3 0.094738 0.369729 0.124247
O O4 0.955292 0.302312 0.280302
O O5 0.333334 0.666667 0.250000
O O6 0.459398 0.678052 0.402191
O O7 0.944418 0.246408 0.934778
O O8 0.173502 0.420455 0.951887
#
# Coordination Sequence:
#
# PCOD9578048 Si02
#       4
#    12   4  12  12
#     4   9  19  37  60  91 137 163 201 266 336 404
#     4  12  27  45  66  88 131 181 237 279 306 382
#     4  10  19  37  60  93 128 160 211 258 331 394
#     4  11  22  41  64  94 127 175 219 268 328 387
#
# _framework density 21.092592
#
# number of rings (size 3 to 8) (size 9 to 14) (size 15 to 20)
#    0.000    1.800    3.000    2.700    0.000    1.200 
#   46.800    6.000    0.000    0.000    0.000    0.000 
#    0.000    0.000    0.000    0.000    0.000    0.000 
#
# Total GULP energy -222672.225209 kJ/mol
# GULP energy per Si atom -5566.805630 kJ/mol
# Density = 2.104458 g / cm^3
# Si number density = 21.092592 Si / 1000 Ang^3
#
#
#
# Elastic Constant Matrix: (Units=GPa)
#
#
# Indices 1 2 3 4 5 6 
#
# 1 42.1073 11.5284 31.2309 0.0002 -5.5319 -0.0006
# 2 11.5284 42.1061 31.2300 0.0001 5.5320 -0.0006
# 3 31.2309 31.2300 120.2421 -0.0002 -0.0002 -0.0007
# 4 0.0002 0.0001 -0.0002 12.9181 -0.0004 5.5319
# 5 -5.5319 5.5320 -0.0002 -0.0004 12.9187 0.0000
# 6 -0.0006 -0.0006 -0.0007 5.5319 0.0000 15.2892
#
#
#
# Elastic Compliance Matrix: (Units=1/GPa)
#
#
# Indices 1 2 3 4 5 6 
#
# 1 0.032714 -0.005985 -0.006942 0.000000 0.016571 0.000001
# 2 -0.005985 0.032715 -0.006942 -0.000001 -0.016572 0.000001
# 3 -0.006942 -0.006942 0.011923 0.000000 0.000000 0.000000
# 4 0.000000 -0.000001 0.000000 0.091604 0.000003 -0.033144
# 5 0.016571 -0.016572 0.000000 0.000003 0.091599 -0.000001
# 6 0.000001 0.000001 0.000000 -0.033144 -0.000001 0.077398
#
#
# Mechanical properties :
#
#
# Convention : Reuss Voigt Hill
#
# Bulk Modulus (GPa) = 26.58735 39.15934 32.87335
# Shear Modulus (GPa) = 12.81301 16.92295 14.86798
#
# Velocity S-wave (km/s) = 2.46735 2.83559 2.65786
# Velocity P-wave (km/s) = 4.55517 5.41540 5.00380
#
# Compressibility (1/GPa) = 0.03761187
#
# Stress axis : x y z
#
# Youngs Moduli (GPa) = 30.56838 30.56748 83.87261
#
# Poissons Ratio (x) = 0.18294 0.58227
# Poissons Ratio (y) = 0.18294 0.58228
# Poissons Ratio (z) = 0.21222 0.21221
#
# Static dielectric constant tensor:
#      x y z
#    x 1.792010 0.000000 0.000000 
#    y 0.000000 1.792010 0.000000 
#    z 0.000000 0.000000 1.811910 
# 
# From -- ./inp_files/2879.got.cif
#   From: 2010.05.17/outbox.cif.g08.bks.cpg/sg163_2_cif.got.tgz:2879.got - 2010.05.20 10:56:03.
