data_PCOD9578851
_publ_section_title
;
Structure prediction by ZEFSAII (Michael W. Deem and Ramdas Pophale) SiO2 
 PCOD9578851
Probable space group: P -3 C 1
;
_chemical_formula_sum "Si O2"
_cell_formula_units_Z 48
_cell_length_a 14.015823
_cell_length_b 14.015823
_cell_length_c 13.832449
_cell_angle_alpha 90.000000
_cell_angle_beta 90.000000
_cell_angle_gamma 120.000000
_cell_volume 2353.243772
_symmetry_space_group_name_H-M "P -3 C 1"
_symmetry_group_IT_number 165
_symmetry_cell_setting 'hexagonal'
loop_
_space_group_symop_operation_xyz
x,y,z
-y,x-y,z
-x+y,-x,z
x-y,-y,1/2-z
-x,-x+y,1/2-z
y,x,1/2-z
-x,-y,-z
y,-x+y,-z
x-y,x,-z
-x+y,y,1/2+z
x,x-y,1/2+z
-y,-x,1/2+z
loop_
_atom_site_type_symbol
_atom_site_label
_atom_site_fract_x
_atom_site_fract_y
_atom_site_fract_z
Si Si1 0.081816 0.356171 0.414787
Si Si2 0.181226 0.762760 0.587812
Si Si3 0.121917 0.744882 0.282800
Si Si4 0.464522 0.884199 0.445802
O O1 0.128117 0.355827 0.521205
O O2 0.139646 0.317311 0.338375
O O3 0.136924 0.488486 0.398382
O O4 0.951083 0.291698 0.403929
O O5 0.240674 0.802058 0.690178
O O6 0.191042 0.668228 0.527845
O O7 0.109817 0.653668 0.360245
O O8 0.000000 0.708072 0.250000
O O9 0.500000 0.000000 0.500000
#
# Coordination Sequence:
#
# PCOD9578851 Si02
#       4
#    12  12  12  12
#     4  10  21  39  63  88 122 160 206 250 310 369
#     4  10  20  38  63  87 118 162 201 253 305 372
#     4  11  22  37  63  89 120 163 207 246 307 373
#     4   9  20  38  60  84 120 157 199 252 306 359
#
# _framework density 20.397376999999999
#
# number of rings (size 3 to 8) (size 9 to 14) (size 15 to 20)
#    0.000    2.000    0.000    5.250    0.000    6.000 
#   12.000    0.000   16.500   15.000    0.000    0.000 
#    0.000    0.000    0.000    0.000    0.000    0.000 
#
# Total GULP energy -267583.114391 kJ/mol
# GULP energy per Si atom -5574.648216 kJ/mol
# Density = 2.035095 g / cm^3
# Si number density = 20.397377 Si / 1000 Ang^3
#
#
#
# Elastic Constant Matrix: (Units=GPa)
#
#
# Indices 1 2 3 4 5 6 
#
# 1 86.8067 37.4521 30.3956 6.7803 0.0000 0.0000
# 2 37.4521 86.8067 30.3956 -6.7803 0.0000 0.0000
# 3 30.3956 30.3956 124.4655 0.0000 0.0000 0.0000
# 4 6.7803 -6.7803 0.0000 24.7975 0.0000 0.0000
# 5 0.0000 0.0000 0.0000 0.0000 24.7975 6.7803
# 6 0.0000 0.0000 0.0000 0.0000 6.7803 24.6773
#
#
#
# Elastic Compliance Matrix: (Units=1/GPa)
#
#
# Indices 1 2 3 4 5 6 
#
# 1 0.015524 -0.006384 -0.002232 -0.005990 0.000000 0.000000
# 2 -0.006384 0.015524 -0.002232 0.005990 0.000000 0.000000
# 3 -0.002232 -0.002232 0.009125 0.000000 0.000000 0.000000
# 4 -0.005990 0.005990 0.000000 0.043602 0.000000 0.000000
# 5 0.000000 0.000000 0.000000 0.000000 0.043602 -0.011980
# 6 0.000000 0.000000 0.000000 0.000000 -0.011980 0.043815
#
#
# Mechanical properties :
#
#
# Convention : Reuss Voigt Hill
#
# Bulk Modulus (GPa) = 54.12460 54.95172 54.53816
# Shear Modulus (GPa) = 25.11993 28.17682 26.64838
#
# Velocity S-wave (km/s) = 3.51312 3.72074 3.61842
# Velocity P-wave (km/s) = 6.56115 6.74223 6.65231
#
# Compressibility (1/GPa) = 0.01847589
#
# Stress axis : x y z
#
# Youngs Moduli (GPa) = 64.41842 64.41842 109.59505
#
# Poissons Ratio (x) = 0.41124 0.24462
# Poissons Ratio (y) = 0.41124 0.24462
# Poissons Ratio (z) = 0.14378 0.14378
#
# Static dielectric constant tensor:
#      x y z
#    x 1.762250 0.000000 0.000000 
#    y 0.000000 1.762250 0.000000 
#    z 0.000000 0.000000 1.780170 
# 
# From -- ./inp_files/1020.got.cif
#   From: 2010.05.17/outbox.cif.g08.bks.cpg/sg165_1_cif.got.tgz:1020.got - 2010.05.20 11:02:39.
