data_PCOD9578900
_publ_section_title
;
Structure prediction by ZEFSAII (Michael W. Deem and Ramdas Pophale) SiO2 
 PCOD9578900
Probable space group: P -3 C 1
;
_chemical_formula_sum "Si O2"
_cell_formula_units_Z 44
_cell_length_a 9.299200
_cell_length_b 9.299200
_cell_length_c 28.693249
_cell_angle_alpha 90.000000
_cell_angle_beta 90.000000
_cell_angle_gamma 120.000000
_cell_volume 2148.827411
_symmetry_space_group_name_H-M "P -3 C 1"
_symmetry_group_IT_number 165
_symmetry_cell_setting 'hexagonal'
loop_
_space_group_symop_operation_xyz
x,y,z
-y,x-y,z
-x+y,-x,z
x-y,-y,1/2-z
-x,-x+y,1/2-z
y,x,1/2-z
-x,-y,-z
y,-x+y,-z
x-y,x,-z
-x+y,y,1/2+z
x,x-y,1/2+z
-y,-x,1/2+z
loop_
_atom_site_type_symbol
_atom_site_label
_atom_site_fract_x
_atom_site_fract_y
_atom_site_fract_z
Si Si1 0.831436 0.026494 0.392885
Si Si2 0.670678 0.009878 0.483479
Si Si3 0.352613 0.349920 0.305775
Si Si4 0.333334 0.666668 0.810784
Si Si5 0.666667 0.333334 0.801245
O O1 0.700622 0.032046 0.427504
O O2 0.021857 0.165004 0.402712
O O3 0.802203 0.041939 0.338769
O O4 0.837722 0.171421 0.503049
O O5 0.500000 0.000000 0.500000
O O6 0.322139 0.322139 0.250000
O O7 0.325392 0.497254 0.323514
O O8 0.540973 0.395077 0.315047
O O9 0.333334 0.666667 0.754611
#
# Coordination Sequence:
#
# PCOD9578900 Si02
#       5
#    12  12  12   4   4
#     4  10  23  41  67  94 133 181 217 282 344 403
#     4  12  24  46  73 101 135 174 223 283 347 416
#     4  10  22  38  63  96 135 179 226 277 338 401
#     4   9  21  39  60  87 130 173 220 285 327 381
#     4   9  21  39  60  87 130 173 220 285 327 381
#
# _framework density 20.476282000000001
#
# number of rings (size 3 to 8) (size 9 to 14) (size 15 to 20)
#    0.545    1.091    2.727    0.818    3.818    5.455 
#    0.000    0.000    0.000    0.000    0.000    0.000 
#    0.000    0.000    0.000    0.000    0.000    0.000 
#
# Total GULP energy -245090.806906 kJ/mol
# GULP energy per Si atom -5570.245612 kJ/mol
# Density = 2.042968 g / cm^3
# Si number density = 20.476282 Si / 1000 Ang^3
#
#
#
# Elastic Constant Matrix: (Units=GPa)
#
#
# Indices 1 2 3 4 5 6 
#
# 1 78.0526 25.9095 28.0492 -1.0422 0.0000 0.0000
# 2 25.9095 78.0503 28.0494 1.0417 0.0000 0.0000
# 3 28.0492 28.0494 93.8463 0.0002 0.0000 0.0000
# 4 -1.0422 1.0417 0.0002 28.2553 0.0000 0.0000
# 5 0.0000 0.0000 0.0000 0.0000 28.2557 -1.0418
# 6 0.0000 0.0000 0.0000 0.0000 -1.0418 26.0708
#
#
#
# Elastic Compliance Matrix: (Units=1/GPa)
#
#
# Indices 1 2 3 4 5 6 
#
# 1 0.015337 -0.003869 -0.003428 0.000708 0.000000 0.000000
# 2 -0.003869 0.015338 -0.003428 -0.000708 0.000000 0.000000
# 3 -0.003428 -0.003428 0.012705 0.000000 0.000000 0.000000
# 4 0.000708 -0.000708 0.000000 0.035444 0.000000 0.000000
# 5 0.000000 0.000000 0.000000 0.000000 0.035443 0.001416
# 6 0.000000 0.000000 0.000000 0.000000 0.001416 0.038414
#
#
# Mechanical properties :
#
#
# Convention : Reuss Voigt Hill
#
# Bulk Modulus (GPa) = 45.59785 45.99615 45.79700
# Shear Modulus (GPa) = 27.55722 27.71243 27.63482
#
# Velocity S-wave (km/s) = 3.67251 3.68284 3.67768
# Velocity P-wave (km/s) = 6.34823 6.37152 6.35989
#
# Compressibility (1/GPa) = 0.02193086
#
# Stress axis : x y z
#
# Youngs Moduli (GPa) = 65.19995 65.19765 78.71054
#
# Poissons Ratio (x) = 0.25225 0.26980
# Poissons Ratio (y) = 0.25226 0.26981
# Poissons Ratio (z) = 0.22349 0.22349
#
# Static dielectric constant tensor:
#      x y z
#    x 1.753690 0.000000 0.000000 
#    y 0.000000 1.753690 0.000000 
#    z 0.000000 0.000000 1.738650 
# 
# From -- ./inp_files/3265.got.cif
#   From: 2010.05.17/outbox.cif.g08.bks.cpg/sg165_2_cif.got.tgz:3265.got - 2010.05.20 11:02:39.
