data_PCOD9578257
_publ_section_title
;
Structure prediction by ZEFSAII (Michael W. Deem and Ramdas Pophale) SiO2 
 PCOD9578257
Probable space group: P -3 1 C
;
_chemical_formula_sum "Si O2"
_cell_formula_units_Z 66
_cell_length_a 21.264168
_cell_length_b 21.264168
_cell_length_c 7.103779
_cell_angle_alpha 90.000000
_cell_angle_beta 90.000000
_cell_angle_gamma 120.000000
_cell_volume 2781.742100
_symmetry_space_group_name_H-M "P -3 1 C"
_symmetry_group_IT_number 163
_symmetry_cell_setting 'hexagonal'
loop_
_space_group_symop_operation_xyz
x,y,z
-y,x-y,z
-x+y,-x,z
-y,-x,1/2-z
-x+y,y,1/2-z
x,x-y,1/2-z
-x,-y,-z
y,-x+y,-z
x-y,x,-z
y,x,1/2+z
x-y,-y,1/2+z
-x,-x+y,1/2+z
loop_
_atom_site_type_symbol
_atom_site_label
_atom_site_fract_x
_atom_site_fract_y
_atom_site_fract_z
Si Si1 0.151352 0.999849 0.494438
Si Si2 0.387865 0.143575 0.125482
Si Si3 0.208524 0.417047 0.250000
Si Si4 0.395632 0.461906 0.745680
Si Si5 0.338879 0.419781 0.332453
Si Si6 0.251008 0.246585 0.257067
O O1 0.149222 0.074583 0.488805
O O2 0.167269 0.993947 0.243159
O O3 0.231659 0.999333 0.488675
O O4 0.430931 0.215466 0.250000
O O5 0.432687 0.101491 0.100687
O O6 0.315080 0.087689 0.231121
O O7 0.370710 0.172335 0.935560
O O8 0.294521 0.459167 0.273486
O O9 0.453790 0.546211 0.750000
O O10 0.351374 0.434379 0.553317
O O11 0.438117 0.417321 0.761635
O O12 0.287401 0.334380 0.275105
#
# Coordination Sequence:
#
# PCOD9578257 Si02
#       6
#    12  12   6  12  12  12
#     4  12  25  40  57  81 119 176 240 304 361 418
#     4  11  22  43  67 102 140 176 231 289 352 427
#     4  12  24  38  70 100 146 184 224 290 356 416
#     4  11  23  44  71 106 147 188 231 289 357 435
#     4  11  23  39  64 104 141 180 232 289 352 435
#     4  11  24  39  61  90 125 169 230 287 362 417
#
# _framework density 23.726139
#
# number of rings (size 3 to 8) (size 9 to 14) (size 15 to 20)
#    0.000    0.727    1.818    8.364    5.091    0.000 
#    0.000    1.818    0.000    0.364    0.000    0.000 
#    0.909    0.000    0.000    0.000    0.000    0.000 
#
# Total GULP energy -368050.574536 kJ/mol
# GULP energy per Si atom -5576.523857 kJ/mol
# Density = 2.367214 g / cm^3
# Si number density = 23.726139 Si / 1000 Ang^3
#
#
#
# Elastic Constant Matrix: (Units=GPa)
#
#
# Indices 1 2 3 4 5 6 
#
# 1 108.3366 71.1987 43.5558 0.0002 1.2676 0.0000
# 2 71.1987 108.3366 43.5558 -0.0002 -1.2676 0.0000
# 3 43.5558 43.5558 146.3386 0.0000 0.0000 0.0000
# 4 0.0002 -0.0002 0.0000 5.2465 0.0000 -1.2676
# 5 1.2676 -1.2676 0.0000 0.0000 5.2465 0.0002
# 6 0.0000 0.0000 0.0000 -1.2676 0.0002 18.5689
#
#
#
# Elastic Compliance Matrix: (Units=1/GPa)
#
#
# Indices 1 2 3 4 5 6 
#
# 1 0.016944 -0.010434 -0.001938 -0.000001 -0.006615 0.000000
# 2 -0.010434 0.016944 -0.001938 0.000001 0.006615 0.000000
# 3 -0.001938 -0.001938 0.007987 0.000000 0.000000 0.000000
# 4 -0.000001 0.000001 0.000000 0.193798 0.000000 0.013229
# 5 -0.006615 0.006615 0.000000 0.000000 0.193798 -0.000002
# 6 0.000000 0.000000 0.000000 0.013229 -0.000002 0.054756
#
#
# Mechanical properties :
#
#
# Convention : Reuss Voigt Hill
#
# Bulk Modulus (GPa) = 75.43470 75.51472 75.47471
# Shear Modulus (GPa) = 9.66620 19.45917 14.56269
#
# Velocity S-wave (km/s) = 2.02062 2.86695 2.48015
# Velocity P-wave (km/s) = 6.10793 6.54644 6.33099
#
# Compressibility (1/GPa) = 0.01325650
#
# Stress axis : x y z
#
# Youngs Moduli (GPa) = 59.01739 59.01739 125.20513
#
# Poissons Ratio (x) = 0.61579 0.24260
# Poissons Ratio (y) = 0.61579 0.24260
# Poissons Ratio (z) = 0.11435 0.11435
#
# Static dielectric constant tensor:
#      x y z
#    x 1.833860 0.000000 0.000000 
#    y 0.000000 1.833860 0.000000 
#    z 0.000000 0.000000 2.716520 
# 
# From -- ./inp_files/1137.got.cif
#   From: 2010.05.17/outbox.cif.g08.bks.cpg/sg163_1_cif.got.tgz:1137.got - 2010.05.20 10:56:03.
