data_PCOD9578633
_publ_section_title
;
Structure prediction by ZEFSAII (Michael W. Deem and Ramdas Pophale) SiO2 
 PCOD9578633
Probable space group: P -3 M 1
;
_chemical_formula_sum "Si O2"
_cell_formula_units_Z 48
_cell_length_a 12.714602
_cell_length_b 12.714602
_cell_length_c 20.963872
_cell_angle_alpha 90.000000
_cell_angle_beta 90.000000
_cell_angle_gamma 120.000000
_cell_volume 2934.997066
_symmetry_space_group_name_H-M "P -3 M 1"
_symmetry_group_IT_number 164
_symmetry_cell_setting 'hexagonal'
loop_
_space_group_symop_operation_xyz
x,y,z
-y,x-y,z
-x+y,-x,z
x-y,-y,-z
-x,-x+y,-z
y,x,-z
-x,-y,-z
y,-x+y,-z
x-y,x,-z
-x+y,y,z
x,x-y,z
-y,-x,z
loop_
_atom_site_type_symbol
_atom_site_label
_atom_site_fract_x
_atom_site_fract_y
_atom_site_fract_z
Si Si1 0.582764 0.666419 0.192677
Si Si2 0.333606 0.416839 0.684940
Si Si3 0.333788 0.916974 0.438189
Si Si4 0.751373 0.000154 0.072462
O O1 0.580861 0.790431 0.203689
O O2 0.447248 0.552752 0.190495
O O3 0.650927 0.641850 0.250324
O O4 0.651922 0.680296 0.126299
O O5 0.205332 0.410663 0.681609
O O6 0.443686 0.556315 0.683410
O O7 0.355415 0.351392 0.624884
O O8 0.443303 0.886606 0.438127
O O9 0.205230 0.794771 0.439440
O O10 0.354635 0.000000 0.500000
O O11 0.872033 0.127968 0.084307
O O12 0.782069 0.891035 0.074982
O O13 0.708498 0.000000 0.000000
#
# Coordination Sequence:
#
# PCOD9578633 Si02
#       4
#    12  12  12  12
#     4  10  20  33  50  71  97 129 163 201 243 290
#     4  10  20  34  53  75  99 127 160 201 246 292
#     4  10  20  34  54  78 104 134 167 204 243 286
#     4   9  17  30  49  72  97 126 161 201 244 290
#
# _framework density 16.354358999999999
#
# number of rings (size 3 to 8) (size 9 to 14) (size 15 to 20)
#    0.000    2.250    0.000    3.250    0.000    1.500 
#    0.000    5.000    0.000   11.500    0.000    0.000 
#    0.000    0.000    0.000    0.000    0.000    0.000 
#
# Total GULP energy -267836.985402 kJ/mol
# GULP energy per Si atom -5579.937196 kJ/mol
# Density = 1.631714 g / cm^3
# Si number density = 16.354359 Si / 1000 Ang^3
#
#
#
# Elastic Constant Matrix: (Units=GPa)
#
#
# Indices 1 2 3 4 5 6 
#
# 1 121.0016 84.7526 79.1953 2.8979 0.0000 0.0000
# 2 84.7526 121.0016 79.1953 -2.8979 0.0000 0.0000
# 3 79.1953 79.1953 140.8749 0.0000 0.0000 0.0000
# 4 2.8979 -2.8979 0.0000 21.3073 0.0000 0.0000
# 5 0.0000 0.0000 0.0000 0.0000 21.3073 2.8979
# 6 0.0000 0.0000 0.0000 0.0000 2.8979 18.1245
#
#
#
# Elastic Compliance Matrix: (Units=1/GPa)
#
#
# Indices 1 2 3 4 5 6 
#
# 1 0.018384 -0.009816 -0.004817 -0.003835 0.000000 0.000000
# 2 -0.009816 0.018384 -0.004817 0.003835 0.000000 0.000000
# 3 -0.004817 -0.004817 0.012514 0.000000 0.000000 0.000000
# 4 -0.003835 0.003835 0.000000 0.047975 0.000000 0.000000
# 5 0.000000 0.000000 0.000000 0.000000 0.047975 -0.007671
# 6 0.000000 0.000000 0.000000 0.000000 -0.007671 0.056400
#
#
# Mechanical properties :
#
#
# Convention : Reuss Voigt Hill
#
# Bulk Modulus (GPa) = 96.30709 96.57386 96.44047
# Shear Modulus (GPa) = 20.49233 21.46350 20.97791
#
# Velocity S-wave (km/s) = 3.54364 3.62664 3.58538
# Velocity P-wave (km/s) = 8.70395 8.75875 8.73139
#
# Compressibility (1/GPa) = 0.01038345
#
# Stress axis : x y z
#
# Youngs Moduli (GPa) = 54.39471 54.39471 79.91005
#
# Poissons Ratio (x) = 0.53394 0.38490
# Poissons Ratio (y) = 0.53394 0.38490
# Poissons Ratio (z) = 0.26200 0.26200
#
# Static dielectric constant tensor:
#      x y z
#    x 1.516010 0.000000 0.000000 
#    y 0.000000 1.516010 0.000000 
#    z 0.000000 0.000000 1.547720 
# 
# From -- ./inp_files/4363.got.cif
#   From: 2010.05.17/outbox.cif.g08.bks.cpg/sg164_3_cif.got.tgz:4363.got - 2010.05.20 10:58:56.
