data_PCOD9578964
_publ_section_title
;
Structure prediction by ZEFSAII (Michael W. Deem and Ramdas Pophale) SiO2 
 PCOD9578964
Probable space group: P -3 C 1
;
_chemical_formula_sum "Si O2"
_cell_formula_units_Z 48
_cell_length_a 12.747032
_cell_length_b 12.747032
_cell_length_c 16.061331
_cell_angle_alpha 90.000000
_cell_angle_beta 90.000000
_cell_angle_gamma 120.000000
_cell_volume 2260.113847
_symmetry_space_group_name_H-M "P -3 C 1"
_symmetry_group_IT_number 165
_symmetry_cell_setting 'hexagonal'
loop_
_space_group_symop_operation_xyz
x,y,z
-y,x-y,z
-x+y,-x,z
x-y,-y,1/2-z
-x,-x+y,1/2-z
y,x,1/2-z
-x,-y,-z
y,-x+y,-z
x-y,x,-z
-x+y,y,1/2+z
x,x-y,1/2+z
-y,-x,1/2+z
loop_
_atom_site_type_symbol
_atom_site_label
_atom_site_fract_x
_atom_site_fract_y
_atom_site_fract_z
Si Si1 0.479056 0.075045 0.068968
Si Si2 0.333334 0.666668 0.443289
Si Si3 0.000000 0.000000 0.649077
Si Si4 0.666666 0.333333 0.760065
Si Si5 0.445215 0.323841 0.209109
Si Si6 0.787762 0.733227 0.156414
O O1 0.543345 0.213010 0.033752
O O2 0.561650 0.086071 0.149216
O O3 0.339201 0.012632 0.095954
O O4 0.500000 0.000000 0.000000
O O5 0.333334 0.666667 0.341910
O O6 0.135678 0.106102 0.625703
O O7 0.000000 0.000000 0.750000
O O8 0.782024 0.319049 0.776747
O O9 0.345284 0.345284 0.250000
O O10 0.368850 0.196109 0.163821
O O11 0.751288 0.751288 0.250000
#
# Coordination Sequence:
#
# PCOD9578964 Si02
#       6
#    12   4   4   4  12  12
#     4  11  22  41  65  89 128 177 213 263 336 396
#     4   9  18  45  55  83 130 165 199 275 328 375
#     4   9  21  39  63 103 134 166 220 278 334 405
#     4   9  18  33  58  83 127 159 199 260 328 366
#     4  11  20  38  63  90 126 165 211 270 326 380
#     4  11  21  42  67  95 132 172 218 273 339 396
#
# _framework density 21.237867999999999
#
# number of rings (size 3 to 8) (size 9 to 14) (size 15 to 20)
#    0.000    1.500    7.500    3.000    0.000    0.000 
#    9.000    0.000    0.000    1.500    0.000    0.000 
#    0.000    0.000    0.000    0.000    0.000    0.000 
#
# Total GULP energy -267488.245534 kJ/mol
# GULP energy per Si atom -5572.671782 kJ/mol
# Density = 2.118953 g / cm^3
# Si number density = 21.237868 Si / 1000 Ang^3
#
#
#
# Elastic Constant Matrix: (Units=GPa)
#
#
# Indices 1 2 3 4 5 6 
#
# 1 115.3510 43.4460 21.1378 -4.1717 0.0000 0.0000
# 2 43.4460 115.3509 21.1375 4.1717 0.0000 0.0000
# 3 21.1378 21.1375 15.3590 0.0000 0.0000 0.0000
# 4 -4.1717 4.1717 0.0000 19.0539 0.0000 0.0000
# 5 0.0000 0.0000 0.0000 0.0000 19.0545 -4.1713
# 6 0.0000 0.0000 0.0000 0.0000 -4.1713 35.9522
#
#
#
# Elastic Compliance Matrix: (Units=1/GPa)
#
#
# Indices 1 2 3 4 5 6 
#
# 1 0.012104 -0.002166 -0.013678 0.003124 0.000000 0.000000
# 2 -0.002166 0.012104 -0.013678 -0.003124 0.000000 0.000000
# 3 -0.013678 -0.013678 0.102757 0.000000 0.000000 0.000000
# 4 0.003124 -0.003124 0.000000 0.053851 0.000000 0.000000
# 5 0.000000 0.000000 0.000000 0.000000 0.053849 0.006248
# 6 0.000000 0.000000 0.000000 0.000000 0.006248 0.028540
#
#
# Mechanical properties :
#
#
# Convention : Reuss Voigt Hill
#
# Bulk Modulus (GPa) = 14.72276 46.38928 30.55602
# Shear Modulus (GPa) = 14.49744 25.50143 19.99944
#
# Velocity S-wave (km/s) = 2.61554 3.46895 3.07202
# Velocity P-wave (km/s) = 4.00859 6.15913 5.19633
#
# Compressibility (1/GPa) = 0.06792204
#
# Stress axis : x y z
#
# Youngs Moduli (GPa) = 82.61511 82.61597 9.73171
#
# Poissons Ratio (x) = 0.17890 0.13311
# Poissons Ratio (y) = 0.17890 0.13311
# Poissons Ratio (z) = 1.13004 1.13001
#
# Static dielectric constant tensor:
#      x y z
#    x 1.907410 0.000000 0.000000 
#    y 0.000000 1.907400 0.000000 
#    z 0.000000 0.000000 1.849730 
# 
# From -- ./inp_files/2555.got.cif
#   From: 2010.05.17/outbox.cif.g08.bks.cpg/sg165_2_cif.got.tgz:2555.got - 2010.05.20 11:02:39.
