data_PCOD9578493
_publ_section_title
;
Structure prediction by ZEFSAII (Michael W. Deem and Ramdas Pophale) SiO2 
 PCOD9578493
Probable space group: P -3 M 1
;
_chemical_formula_sum "Si O2"
_cell_formula_units_Z 60
_cell_length_a 15.424161
_cell_length_b 15.424161
_cell_length_c 12.871424
_cell_angle_alpha 90.000000
_cell_angle_beta 90.000000
_cell_angle_gamma 120.000000
_cell_volume 2651.919447
_symmetry_space_group_name_H-M "P -3 M 1"
_symmetry_group_IT_number 164
_symmetry_cell_setting 'hexagonal'
loop_
_space_group_symop_operation_xyz
x,y,z
-y,x-y,z
-x+y,-x,z
x-y,-y,-z
-x,-x+y,-z
y,x,-z
-x,-y,-z
y,-x+y,-z
x-y,x,-z
-x+y,y,z
x,x-y,z
-y,-x,z
loop_
_atom_site_type_symbol
_atom_site_label
_atom_site_fract_x
_atom_site_fract_y
_atom_site_fract_z
Si Si1 0.040280 0.764240 0.106927
Si Si2 0.147273 0.481009 0.402765
Si Si3 0.999310 0.185966 0.663959
Si Si4 0.666943 0.129924 0.138992
Si Si5 0.668493 0.591774 0.369603
O O1 0.162337 0.837664 0.105116
O O2 0.008519 0.795523 0.213335
O O3 0.973495 0.641190 0.111446
O O4 0.000000 0.785184 0.000000
O O5 0.221973 0.443946 0.367170
O O6 0.192529 0.596265 0.377419
O O7 0.129849 0.466470 0.526740
O O8 0.036324 0.422396 0.358011
O O9 0.070067 0.140133 0.649715
O O10 0.053960 0.295661 0.616488
O O11 0.889996 0.110005 0.622617
O O12 0.564719 0.129437 0.107915
O O13 0.769970 0.230031 0.102751
O O14 0.673240 0.132520 0.264641
#
# Coordination Sequence:
#
# PCOD9578493 Si02
#       5
#    12  12  12  12  12
#     4  10  20  36  58  83 114 150 187 231 282 335
#     4  11  21  34  52  74 100 130 170 217 267 321
#     4  10  19  32  51  75 103 135 173 216 264 319
#     4  11  22  38  60  86 117 152 192 236 284 338
#     4  10  20  35  52  74 103 139 175 216 269 323
#
# _framework density 22.625122000000001
#
# number of rings (size 3 to 8) (size 9 to 14) (size 15 to 20)
#    0.000    1.600    0.000    8.400    0.000    1.200 
#    0.000    2.000    0.000    8.200    0.000    7.000 
#    0.000    0.000    0.000    0.000    0.000    0.000 
#
# Total GULP energy -334557.743701 kJ/mol
# GULP energy per Si atom -5575.962395 kJ/mol
# Density = 2.257363 g / cm^3
# Si number density = 22.625122 Si / 1000 Ang^3
#
#
#
# Elastic Constant Matrix: (Units=GPa)
#
#
# Indices 1 2 3 4 5 6 
#
# 1 134.7228 87.1446 -4.7016 -0.8097 0.0000 0.0000
# 2 87.1446 134.7228 -4.7016 0.8097 0.0000 0.0000
# 3 -4.7016 -4.7016 52.3664 0.0000 0.0000 0.0000
# 4 -0.8097 0.8097 0.0000 -5.2264 0.0000 0.0000
# 5 0.0000 0.0000 0.0000 0.0000 -5.2264 -0.8097
# 6 0.0000 0.0000 0.0000 0.0000 -0.8097 23.7891
#
#
#
# Elastic Compliance Matrix: (Units=1/GPa)
#
#
# Indices 1 2 3 4 5 6 
#
# 1 0.012716 -0.008192 0.000406 -0.003239 0.000000 0.000000
# 2 -0.008192 0.012716 0.000406 0.003239 0.000000 0.000000
# 3 0.000406 0.000406 0.019169 0.000000 0.000000 0.000000
# 4 -0.003239 0.003239 0.000000 -0.190334 0.000000 0.000000
# 5 0.000000 0.000000 0.000000 0.000000 -0.190334 -0.006478
# 6 0.000000 0.000000 0.000000 0.000000 -0.006478 0.041816
#
#
# Mechanical properties :
#
#
# Convention : Reuss Voigt Hill
#
# Bulk Modulus (GPa) = 33.50890 53.03278 43.27084
# Shear Modulus (GPa) = -18.54973 18.93866 0.19446
#
# Velocity S-wave (km/s) = -2.86645 2.89634 0.29349
# Velocity P-wave (km/s) = 1.97161 5.88861 4.39107
#
# Compressibility (1/GPa) = 0.02984282
#
# Stress axis : x y z
#
# Youngs Moduli (GPa) = 78.64053 78.64053 52.16718
#
# Poissons Ratio (x) = 0.64420 -0.02119
# Poissons Ratio (y) = 0.64420 -0.02119
# Poissons Ratio (z) = -0.03194 -0.03194
#
# Static dielectric constant tensor:
#      x y z
#    x 1.884920 0.000000 0.000000 
#    y 0.000000 1.884920 0.000000 
#    z 0.000000 0.000000 1.813710 
# 
# From -- ./inp_files/3333.got.cif
#   From: 2010.05.17/outbox.cif.g08.bks.cpg/sg164_2_cif.got.tgz:3333.got - 2010.05.20 10:58:56.
