data_PCOD9578975
_publ_section_title
;
Structure prediction by ZEFSAII (Michael W. Deem and Ramdas Pophale) SiO2 
 PCOD9578975
Probable space group: P -3 C 1
;
_chemical_formula_sum "Si O2"
_cell_formula_units_Z 72
_cell_length_a 14.543752
_cell_length_b 14.543752
_cell_length_c 18.144770
_cell_angle_alpha 90.000000
_cell_angle_beta 90.000000
_cell_angle_gamma 120.000000
_cell_volume 3323.801044
_symmetry_space_group_name_H-M "P -3 C 1"
_symmetry_group_IT_number 165
_symmetry_cell_setting 'hexagonal'
loop_
_space_group_symop_operation_xyz
x,y,z
-y,x-y,z
-x+y,-x,z
x-y,-y,1/2-z
-x,-x+y,1/2-z
y,x,1/2-z
-x,-y,-z
y,-x+y,-z
x-y,x,-z
-x+y,y,1/2+z
x,x-y,1/2+z
-y,-x,1/2+z
loop_
_atom_site_type_symbol
_atom_site_label
_atom_site_fract_x
_atom_site_fract_y
_atom_site_fract_z
Si Si1 0.424699 0.549929 0.260288
Si Si2 0.862878 0.485423 0.894622
Si Si3 0.286734 0.278332 0.662266
Si Si4 0.774872 0.237164 0.145087
Si Si5 0.538444 0.832765 0.017240
Si Si6 0.213547 0.183032 0.522270
O O1 0.491431 0.491431 0.250000
O O2 0.411274 0.582579 0.178080
O O3 0.481251 0.659724 0.303744
O O4 0.327185 0.478121 0.313118
O O5 0.882811 0.415816 0.955327
O O6 0.778266 0.515446 0.926881
O O7 0.958772 0.599444 0.865902
O O8 0.272679 0.272679 0.750000
O O9 0.342002 0.208805 0.646461
O O10 0.196394 0.227893 0.600658
O O11 0.772726 0.271736 0.061724
O O12 0.663787 0.920326 0.006925
O O13 0.126946 0.190393 0.472098
#
# Coordination Sequence:
#
# PCOD9578975 Si02
#       6
#    12  12  12  12  12  12
#     4  12  24  42  68  97 138 196 237 290 357 427
#     4  12  22  44  69 104 145 188 236 291 361 437
#     4  11  23  47  69  98 145 188 232 304 361 427
#     4  11  23  43  62  98 140 182 235 293 350 420
#     4  11  26  41  74 106 147 188 241 297 360 450
#     4  11  25  48  76 106 142 193 250 310 370 429
#
# _framework density 21.661946
#
# number of rings (size 3 to 8) (size 9 to 14) (size 15 to 20)
#    0.000    0.667    5.000    2.833    0.000    5.333 
#    0.000    0.833    0.000    0.000    0.000    0.000 
#    0.000    0.000    0.000    0.000    0.000    0.000 
#
# Total GULP energy -401212.472308 kJ/mol
# GULP energy per Si atom -5572.395449 kJ/mol
# Density = 2.161264 g / cm^3
# Si number density = 21.661946 Si / 1000 Ang^3
#
#
#
# Elastic Constant Matrix: (Units=GPa)
#
#
# Indices 1 2 3 4 5 6 
#
# 1 84.0784 28.2023 43.2070 1.0148 0.0000 0.0000
# 2 28.2023 84.0784 43.2070 -1.0148 0.0000 0.0000
# 3 43.2070 43.2070 172.7122 0.0000 0.0000 0.0000
# 4 1.0148 -1.0148 0.0000 27.0178 0.0000 0.0000
# 5 0.0000 0.0000 0.0000 0.0000 27.0178 1.0148
# 6 0.0000 0.0000 0.0000 0.0000 1.0148 27.9381
#
#
#
# Elastic Compliance Matrix: (Units=1/GPa)
#
#
# Indices 1 2 3 4 5 6 
#
# 1 0.014476 -0.003446 -0.002759 -0.000673 0.000000 0.000000
# 2 -0.003446 0.014476 -0.002759 0.000673 0.000000 0.000000
# 3 -0.002759 -0.002759 0.007171 0.000000 0.000000 0.000000
# 4 -0.000673 0.000673 0.000000 0.037063 0.000000 0.000000
# 5 0.000000 0.000000 0.000000 0.000000 0.037063 -0.001346
# 6 0.000000 0.000000 0.000000 0.000000 -0.001346 0.035842
#
#
# Mechanical properties :
#
#
# Convention : Reuss Voigt Hill
#
# Bulk Modulus (GPa) = 54.96602 63.34462 59.15532
# Shear Modulus (GPa) = 29.39735 31.47825 30.43780
#
# Velocity S-wave (km/s) = 3.68788 3.81617 3.75257
# Velocity P-wave (km/s) = 6.60026 6.98021 6.79289
#
# Compressibility (1/GPa) = 0.01819306
#
# Stress axis : x y z
#
# Youngs Moduli (GPa) = 69.08210 69.08210 139.45909
#
# Poissons Ratio (x) = 0.23803 0.38481
# Poissons Ratio (y) = 0.23803 0.38481
# Poissons Ratio (z) = 0.19062 0.19062
#
# Static dielectric constant tensor:
#      x y z
#    x 1.853800 0.000000 0.000000 
#    y 0.000000 1.853800 0.000000 
#    z 0.000000 0.000000 1.971390 
# 
# From -- ./inp_files/2266.got.cif
#   From: 2010.05.17/outbox.cif.g08.bks.cpg/sg165_2_cif.got.tgz:2266.got - 2010.05.20 11:02:39.
