data_PCOD9578385
_publ_section_title
;
Structure prediction by ZEFSAII (Michael W. Deem and Ramdas Pophale) SiO2 
 PCOD9578385
Probable space group: P -3 M 1
;
_chemical_formula_sum "Si O2"
_cell_formula_units_Z 84
_cell_length_a 21.427476
_cell_length_b 21.427476
_cell_length_c 12.147068
_cell_angle_alpha 90.000000
_cell_angle_beta 90.000000
_cell_angle_gamma 120.000000
_cell_volume 4829.966617
_symmetry_space_group_name_H-M "P -3 M 1"
_symmetry_group_IT_number 164
_symmetry_cell_setting 'hexagonal'
loop_
_space_group_symop_operation_xyz
x,y,z
-y,x-y,z
-x+y,-x,z
x-y,-y,-z
-x,-x+y,-z
y,x,-z
-x,-y,-z
y,-x+y,-z
x-y,x,-z
-x+y,y,z
x,x-y,z
-y,-x,z
loop_
_atom_site_type_symbol
_atom_site_label
_atom_site_fract_x
_atom_site_fract_y
_atom_site_fract_z
Si Si1 0.939784 0.205636 0.408431
Si Si2 0.747184 0.111242 0.966449
Si Si3 0.286241 0.850804 0.547066
Si Si4 0.406243 0.953970 0.704467
Si Si5 0.520526 0.186222 0.909947
Si Si6 0.491422 0.123535 0.664094
Si Si7 0.685471 0.714452 0.819692
O O1 0.877876 0.122125 0.399883
O O2 0.899917 0.249113 0.447369
O O3 0.968760 0.240081 0.287245
O O4 0.000000 0.220686 0.500000
O O5 0.819431 0.180570 0.927742
O O6 0.688784 0.137419 0.980046
O O7 0.720510 0.048746 0.876543
O O8 0.759536 0.082778 0.082040
O O9 0.227324 0.772677 0.593069
O O10 0.361257 0.894298 0.612236
O O11 0.303999 0.844343 0.421812
O O12 0.472638 0.945275 0.747398
O O13 0.344875 0.949075 0.785200
O O14 0.443064 0.036497 0.661300
O O15 0.591066 0.182132 0.941571
O O16 0.536166 0.268083 0.912124
O O17 0.498053 0.153849 0.786640
O O18 0.571361 0.142722 0.630390
#
# Coordination Sequence:
#
# PCOD9578385 Si02
#       7
#    12  12  12  12  12  12  12
#     4  10  21  35  55  82 112 142 171 208 260 321
#     4  10  21  35  55  78 106 144 182 223 268 318
#     4  10  19  30  46  70 101 138 175 217 269 326
#     4  10  19  32  50  73  99 132 176 227 279 328
#     4  10  20  33  49  73 104 141 182 228 279 329
#     4  10  18  30  48  72  99 131 176 225 277 329
#     4  10  20  36  54  80 112 140 178 224 269 315
#
# _framework density 17.391424000000001
#
# number of rings (size 3 to 8) (size 9 to 14) (size 15 to 20)
#    0.000    2.000    1.429    3.571    0.000    2.857 
#    0.000    1.429    0.000    3.286    0.000    1.000 
#    0.000    0.000    0.000    7.286    0.000    0.000 
#
# Total GULP energy -468181.171414 kJ/mol
# GULP energy per Si atom -5573.585374 kJ/mol
# Density = 1.735184 g / cm^3
# Si number density = 17.391424 Si / 1000 Ang^3
#
#
#
# Elastic Constant Matrix: (Units=GPa)
#
#
# Indices 1 2 3 4 5 6 
#
# 1 75.4387 32.2289 31.5407 3.7388 0.0000 0.0000
# 2 32.2289 75.4387 31.5407 -3.7388 0.0000 0.0000
# 3 31.5407 31.5407 75.4493 0.0000 0.0000 0.0000
# 4 3.7388 -3.7388 0.0000 11.8330 0.0000 0.0000
# 5 0.0000 0.0000 0.0000 0.0000 11.8330 3.7388
# 6 0.0000 0.0000 0.0000 0.0000 3.7388 21.6049
#
#
#
# Elastic Compliance Matrix: (Units=1/GPa)
#
#
# Indices 1 2 3 4 5 6 
#
# 1 0.018391 -0.006090 -0.005142 -0.007735 0.000000 0.000000
# 2 -0.006090 0.018391 -0.005142 0.007735 0.000000 0.000000
# 3 -0.005142 -0.005142 0.017553 0.000000 0.000000 0.000000
# 4 -0.007735 0.007735 0.000000 0.089397 0.000000 0.000000
# 5 0.000000 0.000000 0.000000 0.000000 0.089397 -0.015470
# 6 0.000000 0.000000 0.000000 0.000000 -0.015470 0.048963
#
#
# Mechanical properties :
#
#
# Convention : Reuss Voigt Hill
#
# Bulk Modulus (GPa) = 46.32669 46.32746 46.32708
# Shear Modulus (GPa) = 15.52616 17.78861 16.65739
#
# Velocity S-wave (km/s) = 2.99113 3.20165 3.09818
# Velocity P-wave (km/s) = 6.21487 6.35322 6.28443
#
# Compressibility (1/GPa) = 0.02158583
#
# Stress axis : x y z
#
# Youngs Moduli (GPa) = 54.37432 54.37432 56.96993
#
# Poissons Ratio (x) = 0.33117 0.29295
# Poissons Ratio (y) = 0.33117 0.29295
# Poissons Ratio (z) = 0.27960 0.27960
#
# Static dielectric constant tensor:
#      x y z
#    x 1.592880 0.000000 0.000000 
#    y 0.000000 1.592880 0.000000 
#    z 0.000000 0.000000 1.609040 
# 
# From -- ./inp_files/2917.got.cif
#   From: 2010.05.17/outbox.cif.g08.bks.cpg/sg164_2_cif.got.tgz:2917.got - 2010.05.20 10:58:56.
