data_PCOD9578848
_publ_section_title
;
Structure prediction by ZEFSAII (Michael W. Deem and Ramdas Pophale) SiO2 
 PCOD9578848
Probable space group: P -3 C 1
;
_chemical_formula_sum "Si O2"
_cell_formula_units_Z 96
_cell_length_a 14.315501
_cell_length_b 14.315501
_cell_length_c 29.525411
_cell_angle_alpha 90.000000
_cell_angle_beta 90.000000
_cell_angle_gamma 120.000000
_cell_volume 5240.101349
_symmetry_space_group_name_H-M "P -3 C 1"
_symmetry_group_IT_number 165
_symmetry_cell_setting 'hexagonal'
loop_
_space_group_symop_operation_xyz
x,y,z
-y,x-y,z
-x+y,-x,z
x-y,-y,1/2-z
-x,-x+y,1/2-z
y,x,1/2-z
-x,-y,-z
y,-x+y,-z
x-y,x,-z
-x+y,y,1/2+z
x,x-y,1/2+z
-y,-x,1/2+z
loop_
_atom_site_type_symbol
_atom_site_label
_atom_site_fract_x
_atom_site_fract_y
_atom_site_fract_z
Si Si1 0.957635 0.338882 0.829260
Si Si2 0.552936 0.846376 0.268673
Si Si3 0.611506 0.043365 0.526649
Si Si4 0.768112 0.468817 0.467468
Si Si5 0.553418 0.575779 0.129217
Si Si6 0.779663 0.812383 0.020075
Si Si7 0.831779 0.180622 0.397134
Si Si8 0.896010 0.521482 0.718240
O O1 0.898657 0.315946 0.780939
O O2 0.943734 0.431515 0.855405
O O3 0.910391 0.233932 0.860309
O O4 0.078620 0.383443 0.811537
O O5 0.568813 0.745483 0.266211
O O6 0.433650 0.826240 0.277826
O O7 0.689909 0.168924 0.513648
O O8 0.500000 0.000000 0.500000
O O9 0.582514 0.027242 0.579259
O O10 0.674688 0.980709 0.511567
O O11 0.639192 0.416529 0.462528
O O12 0.820684 0.562932 0.431121
O O13 0.588736 0.701979 0.126998
O O14 0.621512 0.558027 0.167654
O O15 0.750230 0.834058 0.071132
O O16 0.882493 0.796096 0.010695
O O17 0.000000 0.560124 0.750000
#
# Coordination Sequence:
#
# PCOD9578848 Si02
#       8
#    12  12  12  12  12  12  12  12
#     4  10  20  38  58  92 121 161 205 264 309 381
#     4  10  21  38  62  86 128 163 199 252 329 374
#     4  11  22  40  62  90 129 172 207 261 326 383
#     4  10  21  37  58  90 125 160 209 256 310 384
#     4  10  22  37  58  90 129 158 215 255 311 392
#     4  11  24  43  64  87 121 170 218 272 318 368
#     4  11  20  39  61  92 120 161 214 266 312 369
#     4  11  20  42  60  93 128 163 205 257 317 392
#
# _framework density 18.320256000000001
#
# number of rings (size 3 to 8) (size 9 to 14) (size 15 to 20)
#    0.250    1.250    3.750    4.125    0.000    0.000 
#    9.750    0.000    0.000    0.000    0.000    0.000 
#    8.750    0.000    0.000    0.000    0.000    0.000 
#
# Total GULP energy -534501.507851 kJ/mol
# GULP energy per Si atom -5567.724040 kJ/mol
# Density = 1.827856 g / cm^3
# Si number density = 18.320256 Si / 1000 Ang^3
#
#
#
# Elastic Constant Matrix: (Units=GPa)
#
#
# Indices 1 2 3 4 5 6 
#
# 1 64.9196 27.9402 33.0885 10.8629 0.0000 0.0000
# 2 27.9402 64.9196 33.0885 -10.8629 0.0000 0.0000
# 3 33.0885 33.0885 87.4408 0.0000 0.0000 0.0000
# 4 10.8629 -10.8629 0.0000 22.9915 0.0000 0.0000
# 5 0.0000 0.0000 0.0000 0.0000 22.9915 10.8629
# 6 0.0000 0.0000 0.0000 0.0000 10.8629 18.4897
#
#
#
# Elastic Compliance Matrix: (Units=1/GPa)
#
#
# Indices 1 2 3 4 5 6 
#
# 1 0.026089 -0.011344 -0.005580 -0.017686 0.000000 0.000000
# 2 -0.011344 0.026089 -0.005580 0.017686 0.000000 0.000000
# 3 -0.005580 -0.005580 0.015659 0.000000 0.000000 0.000000
# 4 -0.017686 0.017686 0.000000 0.060207 0.000000 0.000000
# 5 0.000000 0.000000 0.000000 0.000000 0.060207 -0.035372
# 6 0.000000 0.000000 0.000000 0.000000 -0.035372 0.074866
#
#
# Mechanical properties :
#
#
# Convention : Reuss Voigt Hill
#
# Bulk Modulus (GPa) = 43.80051 45.05716 44.42883
# Shear Modulus (GPa) = 15.83607 21.10537 18.47072
#
# Velocity S-wave (km/s) = 2.94326 3.39783 3.17868
# Velocity P-wave (km/s) = 5.95907 6.32781 6.14621
#
# Compressibility (1/GPa) = 0.02283079
#
# Stress axis : x y z
#
# Youngs Moduli (GPa) = 38.33004 38.33004 63.86002
#
# Poissons Ratio (x) = 0.43481 0.35633
# Poissons Ratio (y) = 0.43481 0.35633
# Poissons Ratio (z) = 0.21388 0.21388
#
# Static dielectric constant tensor:
#      x y z
#    x 1.664690 0.000000 0.000000 
#    y 0.000000 1.664690 0.000000 
#    z 0.000000 0.000000 1.612730 
# 
# From -- ./inp_files/3202.got.cif
#   From: 2010.05.17/outbox.cif.g08.bks.cpg/sg165_2_cif.got.tgz:3202.got - 2010.05.20 11:02:39.
