data_PCOD9578745
_publ_section_title
;
Structure prediction by ZEFSAII (Michael W. Deem and Ramdas Pophale) SiO2 
 PCOD9578745
Probable space group: P -3 M 1
;
_chemical_formula_sum "Si O2"
_cell_formula_units_Z 96
_cell_length_a 17.461172
_cell_length_b 17.461172
_cell_length_c 28.324064
_cell_angle_alpha 90.000000
_cell_angle_beta 90.000000
_cell_angle_gamma 120.000000
_cell_volume 7478.818255
_symmetry_space_group_name_H-M "P -3 M 1"
_symmetry_group_IT_number 164
_symmetry_cell_setting 'hexagonal'
loop_
_space_group_symop_operation_xyz
x,y,z
-y,x-y,z
-x+y,-x,z
x-y,-y,-z
-x,-x+y,-z
y,x,-z
-x,-y,-z
y,-x+y,-z
x-y,x,-z
-x+y,y,z
x,x-y,z
-y,-x,z
loop_
_atom_site_type_symbol
_atom_site_label
_atom_site_fract_x
_atom_site_fract_y
_atom_site_fract_z
Si Si1 0.512438 0.667005 0.488911
Si Si2 0.333055 0.485380 0.199396
Si Si3 0.426987 0.391466 0.890284
Si Si4 0.757008 0.063000 0.456639
Si Si5 0.272428 0.367613 0.018178
Si Si6 0.368362 0.093852 0.603271
Si Si7 0.151904 0.666493 0.307607
Si Si8 0.154987 0.667773 0.926612
O O1 0.484620 0.742310 0.491310
O O2 0.429563 0.570438 0.496028
O O3 0.592301 0.695656 0.526030
O O4 0.557611 0.677490 0.437672
O O5 0.240676 0.481351 0.189904
O O6 0.413257 0.586744 0.196624
O O7 0.352888 0.431723 0.160159
O O8 0.332568 0.456535 0.253487
O O9 0.523996 0.476005 0.899966
O O10 0.401751 0.320221 0.931703
O O11 0.360085 0.429498 0.894074
O O12 0.854692 0.145309 0.450022
O O13 0.751528 0.000000 0.500000
O O14 0.713290 0.999493 0.412122
O O15 0.170839 0.341677 0.020497
O O16 0.291041 0.291041 0.000000
O O17 0.318822 0.445118 0.978990
O O18 0.344530 0.172265 0.601880
O O19 0.411588 0.097412 0.653520
O O20 0.147796 0.573898 0.316541
O O21 0.253197 0.746804 0.311714
O O22 0.173653 0.586827 0.926790
O O23 0.241283 0.758718 0.912865
#
# Coordination Sequence:
#
# PCOD9578745 Si02
#       8
#    12  12  12  12  12  12  12  12
#     4   9  16  24  35  53  77 103 127 149 173 203
#     4   9  16  25  37  54  77 103 128 152 179 213
#     4   9  16  25  37  53  74  99 125 153 185 220
#     4   9  17  28  41  56  75  99 124 151 184 218
#     4   9  16  25  37  53  73  97 124 152 183 221
#     4   9  17  27  39  55  74  97 122 149 182 216
#     4   9  16  25  38  57  80 104 127 150 177 211
#     4   9  16  25  37  53  73  97 124 154 187 221
#
# _framework density 12.836252999999999
#
# number of rings (size 3 to 8) (size 9 to 14) (size 15 to 20)
#    0.000    3.000    0.000    2.750    0.000    5.250 
#    0.000    1.250    0.000    7.125    0.000    0.000 
#    0.000    0.000    0.000    1.250    0.000    4.000 
#
# Total GULP energy -534439.261969 kJ/mol
# GULP energy per Si atom -5567.075646 kJ/mol
# Density = 1.280704 g / cm^3
# Si number density = 12.836253 Si / 1000 Ang^3
#
#
#
# Elastic Constant Matrix: (Units=GPa)
#
#
# Indices 1 2 3 4 5 6 
#
# 1 84.8400 56.1273 52.8729 -2.1848 0.0000 0.0000
# 2 56.1273 84.8400 52.8729 2.1848 0.0000 0.0000
# 3 52.8729 52.8729 87.2962 0.0000 0.0000 0.0000
# 4 -2.1848 2.1848 0.0000 16.8694 0.0000 0.0000
# 5 0.0000 0.0000 0.0000 0.0000 16.8694 -2.1848
# 6 0.0000 0.0000 0.0000 0.0000 -2.1848 14.3563
#
#
#
# Elastic Compliance Matrix: (Units=1/GPa)
#
#
# Indices 1 2 3 4 5 6 
#
# 1 0.024264 -0.011264 -0.007874 0.004601 0.000000 0.000000
# 2 -0.011264 0.024264 -0.007874 -0.004601 0.000000 0.000000
# 3 -0.007874 -0.007874 0.020993 0.000000 0.000000 0.000000
# 4 0.004601 -0.004601 0.000000 0.060471 0.000000 0.000000
# 5 0.000000 0.000000 0.000000 0.000000 0.060471 0.009203
# 6 0.000000 0.000000 0.000000 0.000000 0.009203 0.071056
#
#
# Mechanical properties :
#
#
# Convention : Reuss Voigt Hill
#
# Bulk Modulus (GPa) = 64.52336 64.52472 64.52404
# Shear Modulus (GPa) = 15.59042 15.95922 15.77482
#
# Velocity S-wave (km/s) = 3.48884 3.52986 3.50941
# Velocity P-wave (km/s) = 8.16119 8.18474 8.17297
#
# Compressibility (1/GPa) = 0.01549826
#
# Stress axis : x y z
#
# Youngs Moduli (GPa) = 41.21283 41.21283 47.63391
#
# Poissons Ratio (x) = 0.46421 0.37507
# Poissons Ratio (y) = 0.46421 0.37507
# Poissons Ratio (z) = 0.32451 0.32451
#
# Static dielectric constant tensor:
#      x y z
#    x 1.411020 0.000000 0.000000 
#    y 0.000000 1.411020 0.000000 
#    z 0.000000 0.000000 1.413600 
# 
# From -- ./inp_files/5125.got.cif
#   From: 2010.05.17/outbox.cif.g08.bks.cpg/sg164_3_cif.got.tgz:5125.got - 2010.05.20 10:58:56.
