data_PCOD9578166
_publ_section_title
;
Structure prediction by ZEFSAII (Michael W. Deem and Ramdas Pophale) SiO2 
 PCOD9578166
Probable space group: P -3 1 C
;
_chemical_formula_sum "Si O2"
_cell_formula_units_Z 58
_cell_length_a 14.842975
_cell_length_b 14.842975
_cell_length_c 13.620631
_cell_angle_alpha 90.000000
_cell_angle_beta 90.000000
_cell_angle_gamma 120.000000
_cell_volume 2598.781528
_symmetry_space_group_name_H-M "P -3 1 C"
_symmetry_group_IT_number 163
_symmetry_cell_setting 'hexagonal'
loop_
_space_group_symop_operation_xyz
x,y,z
-y,x-y,z
-x+y,-x,z
-y,-x,1/2-z
-x+y,y,1/2-z
x,x-y,1/2-z
-x,-y,-z
y,-x+y,-z
x-y,x,-z
y,x,1/2+z
x-y,-y,1/2+z
-x,-x+y,1/2+z
loop_
_atom_site_type_symbol
_atom_site_label
_atom_site_fract_x
_atom_site_fract_y
_atom_site_fract_z
Si Si1 0.137810 0.912352 0.037510
Si Si2 0.606640 0.597040 0.734569
Si Si3 0.503720 0.630043 0.544506
Si Si4 0.396168 0.054582 0.441439
Si Si5 0.304937 0.152469 0.750000
Si Si6 0.333335 0.666668 0.870313
O O1 0.111625 0.872736 0.149478
O O2 0.231241 0.899117 0.992434
O O3 0.035363 0.853383 0.971436
O O4 0.524268 0.475733 0.750000
O O5 0.570080 0.627086 0.636289
O O6 0.594224 0.660389 0.824735
O O7 0.724824 0.626282 0.732478
O O8 0.588734 0.660442 0.458789
O O9 0.412219 0.512835 0.518860
O O10 0.442210 0.685551 0.584182
O O11 0.333334 0.666667 0.750000
#
# Coordination Sequence:
#
# PCOD9578166 Si02
#       6
#    12  12  12  12   6   4
#     4  12  27  47  72 103 139 181 244 304 362 431
#     4  10  21  43  67  99 139 180 234 287 344 425
#     4  10  23  40  66 101 143 181 232 285 348 423
#     4  10  21  43  69  95 137 188 224 285 351 423
#     4  12  24  44  74 104 138 196 238 286 374 426
#     4  12  24  39  63 105 139 173 232 294 342 417
#
# _framework density 22.318151
#
# number of rings (size 3 to 8) (size 9 to 14) (size 15 to 20)
#    0.000    1.241    4.138    2.069    2.897    0.828 
#    0.621    0.000    0.000    0.000    0.000    0.000 
#    0.000    0.000    0.000    0.000    0.000    0.000 
#
# Total GULP energy -324105.869721 kJ/mol
# GULP energy per Si atom -5588.032237 kJ/mol
# Density = 2.226735 g / cm^3
# Si number density = 22.318151 Si / 1000 Ang^3
#
#
#
# Elastic Constant Matrix: (Units=GPa)
#
#
# Indices 1 2 3 4 5 6 
#
# 1 102.6180 30.4469 27.9527 0.0000 -3.6707 0.0001
# 2 30.4469 102.6184 27.9527 0.0001 3.6708 0.0002
# 3 27.9527 27.9527 115.5850 0.0001 0.0001 0.0000
# 4 0.0000 0.0001 0.0001 27.1728 0.0001 3.6708
# 5 -3.6707 3.6708 0.0001 0.0001 27.1728 0.0001
# 6 0.0001 0.0002 0.0000 3.6708 0.0001 36.0857
#
#
#
# Elastic Compliance Matrix: (Units=1/GPa)
#
#
# Indices 1 2 3 4 5 6 
#
# 1 0.011207 -0.002842 -0.002023 0.000000 0.001898 0.000000
# 2 -0.002842 0.011207 -0.002023 0.000000 -0.001898 0.000000
# 3 -0.002023 -0.002023 0.009630 0.000000 0.000000 0.000000
# 4 0.000000 0.000000 0.000000 0.037314 0.000000 -0.003796
# 5 0.001898 -0.001898 0.000000 0.000000 0.037314 0.000000
# 6 0.000000 0.000000 0.000000 -0.003796 0.000000 0.028098
#
#
# Mechanical properties :
#
#
# Convention : Reuss Voigt Hill
#
# Bulk Modulus (GPa) = 54.73969 54.83624 54.78797
# Shear Modulus (GPa) = 32.33401 33.71753 33.02577
#
# Velocity S-wave (km/s) = 3.81041 3.89108 3.85095
# Velocity P-wave (km/s) = 6.62866 6.69409 6.66146
#
# Compressibility (1/GPa) = 0.01826828
#
# Stress axis : x y z
#
# Youngs Moduli (GPa) = 89.22971 89.23002 103.84104
#
# Poissons Ratio (x) = 0.25359 0.21007
# Poissons Ratio (y) = 0.25359 0.21007
# Poissons Ratio (z) = 0.18051 0.18051
#
# Static dielectric constant tensor:
#      x y z
#    x 1.862290 0.000000 0.000000 
#    y 0.000000 1.862290 0.000000 
#    z 0.000000 0.000000 1.824630 
# 
# From -- ./inp_files/2425.got.cif
#   From: 2010.05.17/outbox.cif.g08.bks.cpg/sg163_2_cif.got.tgz:2425.got - 2010.05.20 10:56:03.
