data_PCOD9578810
_publ_section_title
;
Structure prediction by ZEFSAII (Michael W. Deem and Ramdas Pophale) SiO2 
 PCOD9578810
Probable space group: P -3 C 1
;
_chemical_formula_sum "Si O2"
_cell_formula_units_Z 56
_cell_length_a 12.647069
_cell_length_b 12.647069
_cell_length_c 23.133414
_cell_angle_alpha 90.000000
_cell_angle_beta 90.000000
_cell_angle_gamma 120.000000
_cell_volume 3204.425195
_symmetry_space_group_name_H-M "P -3 C 1"
_symmetry_group_IT_number 165
_symmetry_cell_setting 'hexagonal'
loop_
_space_group_symop_operation_xyz
x,y,z
-y,x-y,z
-x+y,-x,z
x-y,-y,1/2-z
-x,-x+y,1/2-z
y,x,1/2-z
-x,-y,-z
y,-x+y,-z
x-y,x,-z
-x+y,y,1/2+z
x,x-y,1/2+z
-y,-x,1/2+z
loop_
_atom_site_type_symbol
_atom_site_label
_atom_site_fract_x
_atom_site_fract_y
_atom_site_fract_z
Si Si1 0.666667 0.333334 0.807719
Si Si2 0.867879 0.540453 0.521139
Si Si3 0.670522 0.131823 0.729747
Si Si4 0.666668 0.333334 0.443697
Si Si5 0.661492 0.587893 0.564467
Si Si6 0.076888 0.410458 0.808502
O O1 0.675707 0.219420 0.782129
O O2 0.666668 0.333334 0.875670
O O3 0.781711 0.452335 0.470048
O O4 0.783488 0.579258 0.556102
O O5 0.904881 0.454580 0.557336
O O6 0.984943 0.646272 0.488606
O O7 0.796234 0.207954 0.696487
O O8 0.551485 0.109491 0.694424
O O9 0.642670 0.000000 0.750000
O O10 0.658595 0.637308 0.628323
O O11 0.000000 0.350687 0.750000
#
# Coordination Sequence:
#
# PCOD9578810 Si02
#       6
#     4  12  12   4  12  12
#     4   9  18  30  49  74 118 132 171 226 245 319
#     4   9  20  33  54  74 102 142 172 214 264 301
#     4   9  19  32  48  77 105 142 169 203 274 306
#     4   9  18  30  49  80 100 138 168 217 254 304
#     4  10  19  36  51  77 106 136 178 214 259 325
#     4  10  20  33  52  77 106 137 169 214 262 314
#
# _framework density 17.475833999999999
#
# number of rings (size 3 to 8) (size 9 to 14) (size 15 to 20)
#    0.000    2.571    0.000    2.143    9.000    0.000 
#    3.857    0.000    0.000    0.857    0.000    0.000 
#    0.000    0.000    0.000    0.000    0.000    0.000 
#
# Total GULP energy -312096.362773 kJ/mol
# GULP energy per Si atom -5573.149335 kJ/mol
# Density = 1.743606 g / cm^3
# Si number density = 17.475834 Si / 1000 Ang^3
#
#
#
# Elastic Constant Matrix: (Units=GPa)
#
#
# Indices 1 2 3 4 5 6 
#
# 1 48.9334 11.6887 12.5846 -3.1695 0.0000 0.0000
# 2 11.6887 48.9334 12.5855 3.1697 0.0000 0.0000
# 3 12.5846 12.5855 122.7491 -0.0005 0.0000 0.0000
# 4 -3.1695 3.1697 -0.0005 3.9239 0.0000 0.0000
# 5 0.0000 0.0000 0.0000 0.0000 3.9234 -3.1702
# 6 0.0000 0.0000 0.0000 0.0000 -3.1702 18.6213
#
#
#
# Elastic Compliance Matrix: (Units=1/GPa)
#
#
# Indices 1 2 3 4 5 6 
#
# 1 0.024179 -0.006950 -0.001766 0.025145 0.000000 0.000000
# 2 -0.006950 0.024179 -0.001767 -0.025146 0.000000 0.000000
# 3 -0.001766 -0.001767 0.008509 0.000002 0.000000 0.000000
# 4 0.025145 -0.025146 0.000002 0.295472 0.000000 0.000000
# 5 0.000000 0.000000 0.000000 0.000000 0.295532 0.050313
# 6 0.000000 0.000000 0.000000 0.000000 0.050313 0.062267
#
#
# Mechanical properties :
#
#
# Convention : Reuss Voigt Hill
#
# Bulk Modulus (GPa) = 27.85416 32.70371 30.27893
# Shear Modulus (GPa) = 6.72882 17.54420 12.13651
#
# Velocity S-wave (km/s) = 1.96436 3.17189 2.63815
# Velocity P-wave (km/s) = 4.59546 5.67176 5.16174
#
# Compressibility (1/GPa) = 0.03590129
#
# Stress axis : x y z
#
# Youngs Moduli (GPa) = 41.35815 41.35762 117.52389
#
# Poissons Ratio (x) = 0.28744 0.20757
# Poissons Ratio (y) = 0.28744 0.20763
# Poissons Ratio (z) = 0.07305 0.07307
#
# Static dielectric constant tensor:
#      x y z
#    x 1.611050 0.000000 0.000000 
#    y 0.000000 1.611040 0.000000 
#    z 0.000000 0.000000 1.608110 
# 
# From -- ./inp_files/2888.got.cif
#   From: 2010.05.17/outbox.cif.g08.bks.cpg/sg165_2_cif.got.tgz:2888.got - 2010.05.20 11:02:39.
