data_PCOD9578389
_publ_section_title
;
Structure prediction by ZEFSAII (Michael W. Deem and Ramdas Pophale) SiO2 
 PCOD9578389
Probable space group: P -3 M 1
;
_chemical_formula_sum "Si O2"
_cell_formula_units_Z 36
_cell_length_a 20.607237
_cell_length_b 20.607237
_cell_length_c 5.333910
_cell_angle_alpha 90.000000
_cell_angle_beta 90.000000
_cell_angle_gamma 120.000000
_cell_volume 1961.624364
_symmetry_space_group_name_H-M "P -3 M 1"
_symmetry_group_IT_number 164
_symmetry_cell_setting 'hexagonal'
loop_
_space_group_symop_operation_xyz
x,y,z
-y,x-y,z
-x+y,-x,z
x-y,-y,-z
-x,-x+y,-z
y,x,-z
-x,-y,-z
y,-x+y,-z
x-y,x,-z
-x+y,y,z
x,x-y,z
-y,-x,z
loop_
_atom_site_type_symbol
_atom_site_label
_atom_site_fract_x
_atom_site_fract_y
_atom_site_fract_z
Si Si1 0.132605 0.422752 0.749957
Si Si2 0.046655 0.797797 0.749997
Si Si3 0.511485 0.334439 0.750043
O O1 0.211280 0.422559 0.749955
O O2 0.069535 0.336238 0.749974
O O3 0.134391 0.466034 0.498588
O O4 0.134394 0.466040 0.001315
O O5 0.122938 0.877063 0.750008
O O6 0.000000 0.788473 0.500000
O O7 0.000000 0.788464 0.000000
O O8 0.517980 0.258990 0.750042
O O9 0.593019 0.406982 0.750032
#
# Coordination Sequence:
#
# PCOD9578389 Si02
#       3
#    12  12  12
#     4   9  19  33  51  76 105 142 184 227 269 313
#     4  11  22  39  64  89 112 139 176 218 260 313
#     4  10  18  30  49  75 108 145 189 237 285 324
#
# _framework density 18.352135000000001
#
# number of rings (size 3 to 8) (size 9 to 14) (size 15 to 20)
#    0.000    2.000    0.000    4.333    0.000    5.333 
#    0.000    3.333    0.000   26.667    0.000    0.000 
#    0.000    0.000    0.000    0.000    0.000    0.000 
#
# Total GULP energy -201040.460039 kJ/mol
# GULP energy per Si atom -5584.457223 kJ/mol
# Density = 1.831036 g / cm^3
# Si number density = 18.352135 Si / 1000 Ang^3
#
#
#
# Elastic Constant Matrix: (Units=GPa)
#
#
# Indices 1 2 3 4 5 6 
#
# 1 91.0501 45.0691 70.4701 -0.0065 0.0000 0.0000
# 2 45.0691 91.0501 70.4701 0.0065 0.0000 0.0000
# 3 70.4701 70.4701 214.8001 0.0000 0.0000 0.0000
# 4 -0.0065 0.0065 0.0000 2.9996 0.0000 0.0000
# 5 0.0000 0.0000 0.0000 0.0000 2.9996 -0.0065
# 6 0.0000 0.0000 0.0000 0.0000 -0.0065 22.9905
#
#
#
# Elastic Compliance Matrix: (Units=1/GPa)
#
#
# Indices 1 2 3 4 5 6 
#
# 1 0.016437 -0.005311 -0.003650 0.000047 0.000000 0.000000
# 2 -0.005311 0.016437 -0.003650 -0.000047 0.000000 0.000000
# 3 -0.003650 -0.003650 0.007050 0.000000 0.000000 0.000000
# 4 0.000047 -0.000047 0.000000 0.333381 0.000000 0.000000
# 5 0.000000 0.000000 0.000000 0.000000 0.333381 0.000094
# 6 0.000000 0.000000 0.000000 0.000000 0.000094 0.043496
#
#
# Mechanical properties :
#
#
# Convention : Reuss Voigt Hill
#
# Bulk Modulus (GPa) = 68.01870 85.43544 76.72707
# Shear Modulus (GPa) = 6.40774 19.85733 13.13253
#
# Velocity S-wave (km/s) = 1.87060 3.29297 2.67795
# Velocity P-wave (km/s) = 6.46599 7.81746 7.17362
#
# Compressibility (1/GPa) = 0.01470184
#
# Stress axis : x y z
#
# Youngs Moduli (GPa) = 60.83834 60.83834 141.83418
#
# Poissons Ratio (x) = 0.32312 0.51771
# Poissons Ratio (y) = 0.32312 0.51771
# Poissons Ratio (z) = 0.22207 0.22207
#
# Static dielectric constant tensor:
#      x y z
#    x 1.605850 0.000000 0.000000 
#    y 0.000000 1.605850 0.000000 
#    z 0.000000 0.000000 1.616070 
# 
# From -- ./inp_files/278.got.cif
#   From: 2010.05.17/outbox.cif.g08.bks.cpg/sg164_1_cif.got.tgz:278.got - 2010.05.20 10:58:56.
