data_PCOD9578499
_publ_section_title
;
Structure prediction by ZEFSAII (Michael W. Deem and Ramdas Pophale) SiO2 
 PCOD9578499
Probable space group: P -3 M 1
;
_chemical_formula_sum "Si O2"
_cell_formula_units_Z 84
_cell_length_a 18.080809
_cell_length_b 18.080809
_cell_length_c 15.149922
_cell_angle_alpha 90.000000
_cell_angle_beta 90.000000
_cell_angle_gamma 120.000000
_cell_volume 4289.204426
_symmetry_space_group_name_H-M "P -3 M 1"
_symmetry_group_IT_number 164
_symmetry_cell_setting 'hexagonal'
loop_
_space_group_symop_operation_xyz
x,y,z
-y,x-y,z
-x+y,-x,z
x-y,-y,-z
-x,-x+y,-z
y,x,-z
-x,-y,-z
y,-x+y,-z
x-y,x,-z
-x+y,y,z
x,x-y,z
-y,-x,z
loop_
_atom_site_type_symbol
_atom_site_label
_atom_site_fract_x
_atom_site_fract_y
_atom_site_fract_z
Si Si1 0.411119 0.412697 0.400272
Si Si2 0.334477 0.839861 0.885208
Si Si3 0.900807 0.271963 0.277763
Si Si4 0.462015 0.090530 0.914052
Si Si5 0.333279 0.497379 0.280466
Si Si6 0.222451 0.277091 0.083138
Si Si7 0.173277 0.998006 0.262442
O O1 0.382316 0.382316 0.500000
O O2 0.498858 0.501143 0.405002
O O3 0.424126 0.344175 0.347896
O O4 0.351722 0.433264 0.336930
O O5 0.423567 0.847133 0.856824
O O6 0.257299 0.742702 0.881503
O O7 0.307189 0.891968 0.818162
O O8 0.345930 0.867860 0.988493
O O9 0.810918 0.189083 0.291790
O O10 0.968957 0.239349 0.295586
O O11 0.524352 0.048704 0.910085
O O12 0.488646 0.147155 0.825077
O O13 0.359898 0.044123 0.905786
O O14 0.241154 0.482307 0.300532
O O15 0.407445 0.592556 0.304081
O O16 0.154807 0.309614 0.070813
O O17 0.188375 0.210394 0.162636
O O18 0.226966 0.226966 0.000000
O O19 0.157630 0.078815 0.268511
O O20 0.090276 0.909725 0.295991
#
# Coordination Sequence:
#
# PCOD9578499 Si02
#       7
#    12  12  12  12  12  12  12
#     4  10  22  40  60  83 114 150 187 232 285 336
#     4  10  19  32  52  79 115 156 195 231 271 324
#     4  10  21  37  58  84 112 145 187 235 284 337
#     4  10  21  34  51  79 114 154 194 231 273 327
#     4  10  20  35  56  82 112 145 184 227 273 327
#     4  11  21  33  50  72 102 142 190 240 286 331
#     4  10  21  37  57  80 107 140 179 227 285 347
#
# _framework density 19.584050999999999
#
# number of rings (size 3 to 8) (size 9 to 14) (size 15 to 20)
#    0.000    1.857    0.000    4.286    0.000    3.714 
#    0.000    5.000    0.000    2.857    0.000    0.000 
#    0.000    2.857    0.000    0.000    0.000    0.000 
#
# Total GULP energy -467920.585892 kJ/mol
# GULP energy per Si atom -5570.483165 kJ/mol
# Density = 1.953948 g / cm^3
# Si number density = 19.584051 Si / 1000 Ang^3
#
#
#
# Elastic Constant Matrix: (Units=GPa)
#
#
# Indices 1 2 3 4 5 6 
#
# 1 -5.8503 123.4973 30.6822 -25.5823 0.0000 0.0000
# 2 123.4973 -5.8503 30.6822 25.5823 0.0000 0.0000
# 3 30.6822 30.6822 75.5327 0.0000 0.0000 0.0000
# 4 -25.5823 25.5823 0.0000 -24.5038 0.0000 0.0000
# 5 0.0000 0.0000 0.0000 0.0000 -24.5038 -25.5823
# 6 0.0000 0.0000 0.0000 0.0000 -25.5823 -64.6738
#
#
#
# Elastic Compliance Matrix: (Units=1/GPa)
#
#
# Indices 1 2 3 4 5 6 
#
# 1 -0.001192 0.011977 -0.004381 0.013749 0.000000 0.000000
# 2 0.011977 -0.001192 -0.004381 -0.013749 0.000000 0.000000
# 3 -0.004381 -0.004381 0.016799 0.000000 0.000000 0.000000
# 4 0.013749 -0.013749 0.000000 -0.069519 0.000000 0.000000
# 5 0.000000 0.000000 0.000000 0.000000 -0.069519 0.027499
# 6 0.000000 0.000000 0.000000 0.000000 0.027499 -0.026340
#
#
# Mechanical properties :
#
#
# Convention : Reuss Voigt Hill
#
# Bulk Modulus (GPa) = 47.97388 48.17283 48.07335
# Shear Modulus (GPa) = -33.23444 -30.80493 -32.01969
#
# Velocity S-wave (km/s) = -4.12395 -3.97036 -4.04788
# Velocity P-wave (km/s) = 1.36879 1.90606 1.65931
#
# Compressibility (1/GPa) = 0.02084468
#
# Stress axis : x y z
#
# Youngs Moduli (GPa) = -838.69434 -838.69434 59.52895
#
# Poissons Ratio (x) = 10.04544 0.26080
# Poissons Ratio (y) = 10.04544 0.26080
# Poissons Ratio (z) = -3.67435 -3.67435
#
# Static dielectric constant tensor:
#      x y z
#    x 1.771510 0.000000 0.000000 
#    y 0.000000 1.771510 0.000000 
#    z 0.000000 0.000000 1.671420 
# 
# From -- ./inp_files/3619.got.cif
#   From: 2010.05.17/outbox.cif.g08.bks.cpg/sg164_2_cif.got.tgz:3619.got - 2010.05.20 10:58:56.
