data_PCOD9578203
_publ_section_title
;
Structure prediction by ZEFSAII (Michael W. Deem and Ramdas Pophale) SiO2 
 PCOD9578203
Probable space group: P -3 1 C
;
_chemical_formula_sum "Si O2"
_cell_formula_units_Z 42
_cell_length_a 15.737322
_cell_length_b 15.737322
_cell_length_c 9.192794
_cell_angle_alpha 90.000000
_cell_angle_beta 90.000000
_cell_angle_gamma 120.000000
_cell_volume 1971.695394
_symmetry_space_group_name_H-M "P -3 1 C"
_symmetry_group_IT_number 163
_symmetry_cell_setting 'hexagonal'
loop_
_space_group_symop_operation_xyz
x,y,z
-y,x-y,z
-x+y,-x,z
-y,-x,1/2-z
-x+y,y,1/2-z
x,x-y,1/2-z
-x,-y,-z
y,-x+y,-z
x-y,x,-z
y,x,1/2+z
x-y,-y,1/2+z
-x,-x+y,1/2+z
loop_
_atom_site_type_symbol
_atom_site_label
_atom_site_fract_x
_atom_site_fract_y
_atom_site_fract_z
Si Si1 0.124884 0.213981 0.575382
Si Si2 0.190580 0.742697 0.584874
Si Si3 0.478575 0.875615 0.991145
Si Si4 0.500659 0.001318 0.250000
O O1 0.099570 0.199139 0.750000
O O2 0.022898 0.176098 0.485282
O O3 0.200080 0.331480 0.553552
O O4 0.230252 0.769749 0.750000
O O5 0.139392 0.628002 0.548064
O O6 0.060621 0.596325 0.850013
O O7 0.215903 0.708617 0.003879
O O8 0.516813 0.934823 0.137349
#
# Coordination Sequence:
#
# PCOD9578203 Si02
#       4
#    12  12  12   6
#     4  11  26  45  68  98 129 171 220 274 331 386
#     4  11  23  40  70  98 131 175 217 263 328 388
#     4  11  23  42  63  95 134 168 216 261 326 384
#     4  10  24  38  66  90 134 170 208 270 320 376
#
# _framework density 21.301466000000001
#
# number of rings (size 3 to 8) (size 9 to 14) (size 15 to 20)
#    0.000    1.143    2.857    1.714    8.000    1.143 
#    5.143    0.000    0.000    0.000    0.000    0.000 
#    0.000    0.000    0.000    0.000    0.000    0.000 
#
# Total GULP energy -234117.477564 kJ/mol
# GULP energy per Si atom -5574.225656 kJ/mol
# Density = 2.125298 g / cm^3
# Si number density = 21.301466 Si / 1000 Ang^3
#
#
#
# Elastic Constant Matrix: (Units=GPa)
#
#
# Indices 1 2 3 4 5 6 
#
# 1 119.4159 51.1414 37.8832 -0.0001 8.7040 0.0000
# 2 51.1414 119.4159 37.8832 0.0001 -8.7040 0.0000
# 3 37.8832 37.8832 113.4806 0.0000 0.0000 0.0000
# 4 -0.0001 0.0001 0.0000 17.4604 0.0000 -8.7040
# 5 8.7040 -8.7040 0.0000 0.0000 17.4604 -0.0001
# 6 0.0000 0.0000 0.0000 -8.7040 -0.0001 34.1373
#
#
#
# Elastic Compliance Matrix: (Units=1/GPa)
#
#
# Indices 1 2 3 4 5 6 
#
# 1 0.011832 -0.004948 -0.002298 0.000000 -0.008365 0.000000
# 2 -0.004948 0.011832 -0.002298 0.000000 0.008365 0.000000
# 3 -0.002298 -0.002298 0.010346 0.000000 0.000000 0.000000
# 4 0.000000 0.000000 0.000000 0.065612 0.000000 0.016729
# 5 -0.008365 0.008365 0.000000 0.000000 0.065612 0.000000
# 6 0.000000 0.000000 0.000000 0.016729 0.000000 0.033559
#
#
# Mechanical properties :
#
#
# Convention : Reuss Voigt Hill
#
# Bulk Modulus (GPa) = 67.01476 67.34756 67.18116
# Shear Modulus (GPa) = 22.43622 28.83860 25.63741
#
# Velocity S-wave (km/s) = 3.24893 3.68344 3.47299
# Velocity P-wave (km/s) = 6.75297 7.05516 6.90572
#
# Compressibility (1/GPa) = 0.01492209
#
# Stress axis : x y z
#
# Youngs Moduli (GPa) = 84.51849 84.51849 96.65183
#
# Poissons Ratio (x) = 0.41817 0.22211
# Poissons Ratio (y) = 0.41817 0.22211
# Poissons Ratio (z) = 0.19423 0.19423
#
# Static dielectric constant tensor:
#      x y z
#    x 1.617960 0.000000 0.000000 
#    y 0.000000 1.617960 0.000000 
#    z 0.000000 0.000000 1.694580 
# 
# From -- ./inp_files/1493.got.cif
#   From: 2010.05.17/outbox.cif.g08.bks.cpg/sg163_1_cif.got.tgz:1493.got - 2010.05.20 10:56:03.
