data_PCOD9578581
_publ_section_title
;
Structure prediction by ZEFSAII (Michael W. Deem and Ramdas Pophale) SiO2 
 PCOD9578581
Probable space group: P -3 M 1
;
_chemical_formula_sum "Si O2"
_cell_formula_units_Z 66
_cell_length_a 12.887829
_cell_length_b 12.887829
_cell_length_c 29.262759
_cell_angle_alpha 90.000000
_cell_angle_beta 90.000000
_cell_angle_gamma 120.000000
_cell_volume 4209.256900
_symmetry_space_group_name_H-M "P -3 M 1"
_symmetry_group_IT_number 164
_symmetry_cell_setting 'hexagonal'
loop_
_space_group_symop_operation_xyz
x,y,z
-y,x-y,z
-x+y,-x,z
x-y,-y,-z
-x,-x+y,-z
y,x,-z
-x,-y,-z
y,-x+y,-z
x-y,x,-z
-x+y,y,z
x,x-y,z
-y,-x,z
loop_
_atom_site_type_symbol
_atom_site_label
_atom_site_fract_x
_atom_site_fract_y
_atom_site_fract_z
Si Si1 0.248700 0.999871 0.899592
Si Si2 0.579994 0.913672 0.644274
Si Si3 0.246558 0.999891 0.728245
Si Si4 0.000000 0.246792 0.000000
Si Si5 0.420247 0.332689 0.459247
Si Si6 0.666812 0.086389 0.185618
O O1 0.111464 0.888537 0.897772
O O2 0.318709 0.975992 0.859754
O O3 0.250063 0.125032 0.893538
O O4 0.298890 0.997568 0.950352
O O5 0.458398 0.916796 0.652842
O O6 0.552855 0.776428 0.646639
O O7 0.679838 0.986189 0.682009
O O8 0.622121 0.957506 0.592439
O O9 0.109054 0.890947 0.728675
O O10 0.310887 0.976094 0.770816
O O11 0.252247 0.126124 0.731541
O O12 0.116589 0.233177 0.001569
O O13 0.345225 0.345225 0.500000
O O14 0.424307 0.212154 0.464391
O O15 0.553609 0.446392 0.462467
O O16 0.540742 0.081483 0.187818
O O17 0.776264 0.223737 0.185354
#
# Coordination Sequence:
#
# PCOD9578581 Si02
#       6
#    12  12  12   6  12  12
#     4   9  16  27  46  71  97 122 149 185 228 272
#     4   9  17  30  49  71  93 119 153 192 229 264
#     4  10  20  33  50  71  94 118 144 179 225 276
#     4   8  13  22  39  66  96 122 148 180 222 268
#     4   9  17  29  46  68  93 122 156 193 230 266
#     4  10  20  33  49  68  90 118 153 192 229 264
#
# _framework density 15.679726
#
# number of rings (size 3 to 8) (size 9 to 14) (size 15 to 20)
#    0.000    2.727    0.000    2.091    0.000    3.636 
#    0.000    4.091    0.000    6.727    0.000    0.000 
#    0.000    0.000    0.000    0.000    0.000    0.000 
#
# Total GULP energy -367599.467945 kJ/mol
# GULP energy per Si atom -5569.688908 kJ/mol
# Density = 1.564404 g / cm^3
# Si number density = 15.679726 Si / 1000 Ang^3
#
#
#
# Elastic Constant Matrix: (Units=GPa)
#
#
# Indices 1 2 3 4 5 6 
#
# 1 79.7567 54.7316 73.0785 -3.8337 0.0000 0.0000
# 2 54.7316 79.7567 73.0785 3.8337 0.0000 0.0000
# 3 73.0785 73.0785 165.5587 0.0000 0.0000 0.0000
# 4 -3.8337 3.8337 0.0000 18.0882 0.0000 0.0000
# 5 0.0000 0.0000 0.0000 0.0000 18.0882 -3.8337
# 6 0.0000 0.0000 0.0000 0.0000 -3.8337 12.5126
#
#
#
# Elastic Compliance Matrix: (Units=1/GPa)
#
#
# Indices 1 2 3 4 5 6 
#
# 1 0.028513 -0.014222 -0.006308 0.009057 0.000000 0.000000
# 2 -0.014222 0.028513 -0.006308 -0.009057 0.000000 0.000000
# 3 -0.006308 -0.006308 0.011609 0.000000 0.000000 0.000000
# 4 0.009057 -0.009057 0.000000 0.059124 0.000000 0.000000
# 5 0.000000 0.000000 0.000000 0.000000 0.059124 0.018115
# 6 0.000000 0.000000 0.000000 0.000000 0.018115 0.085470
#
#
# Mechanical properties :
#
#
# Convention : Reuss Voigt Hill
#
# Bulk Modulus (GPa) = 66.85125 80.76100 73.80613
# Shear Modulus (GPa) = 15.10503 18.01670 16.56086
#
# Velocity S-wave (km/s) = 3.10715 3.39343 3.25344
# Velocity P-wave (km/s) = 7.45658 8.18366 7.82856
#
# Compressibility (1/GPa) = 0.01495858
#
# Stress axis : x y z
#
# Youngs Moduli (GPa) = 35.07170 35.07170 86.13964
#
# Poissons Ratio (x) = 0.49879 0.54338
# Poissons Ratio (y) = 0.49879 0.54338
# Poissons Ratio (z) = 0.22124 0.22124
#
# Static dielectric constant tensor:
#      x y z
#    x 1.489470 0.000000 0.000000 
#    y 0.000000 1.489470 0.000000 
#    z 0.000000 0.000000 1.565140 
# 
# From -- ./inp_files/5496.got.cif
#   From: 2010.05.17/outbox.cif.g08.bks.cpg/sg164_3_cif.got.tgz:5496.got - 2010.05.20 10:58:56.
