data_PCOD9578069
_publ_section_title
;
Structure prediction by ZEFSAII (Michael W. Deem and Ramdas Pophale) SiO2 
 PCOD9578069
Probable space group: P -3 1 C
;
_chemical_formula_sum "Si O2"
_cell_formula_units_Z 60
_cell_length_a 12.636621
_cell_length_b 12.636621
_cell_length_c 26.180587
_cell_angle_alpha 90.000000
_cell_angle_beta 90.000000
_cell_angle_gamma 120.000000
_cell_volume 3620.528178
_symmetry_space_group_name_H-M "P -3 1 C"
_symmetry_group_IT_number 163
_symmetry_cell_setting 'hexagonal'
loop_
_space_group_symop_operation_xyz
x,y,z
-y,x-y,z
-x+y,-x,z
-y,-x,1/2-z
-x+y,y,1/2-z
x,x-y,1/2-z
-x,-y,-z
y,-x+y,-z
x-y,x,-z
y,x,1/2+z
x-y,-y,1/2+z
-x,-x+y,1/2+z
loop_
_atom_site_type_symbol
_atom_site_label
_atom_site_fract_x
_atom_site_fract_y
_atom_site_fract_z
Si Si1 0.999556 0.748456 0.150332
Si Si2 0.333520 0.918478 0.550258
Si Si3 0.000444 0.748900 0.849668
Si Si4 0.584958 0.918478 0.550258
Si Si5 0.585182 0.666903 0.750000
O O1 0.889443 0.778887 0.151560
O O2 0.980568 0.670045 0.099358
O O3 0.980748 0.665486 0.199776
O O4 0.128937 0.871063 0.150902
O O5 0.310523 0.980568 0.599358
O O6 0.453186 0.906372 0.558081
O O7 0.214103 0.785897 0.543892
O O8 0.355966 1.000000 0.500000
O O9 0.019252 0.684737 0.800224
O O10 0.461524 0.538477 0.750000
O O11 0.556236 0.778118 0.750000
#
# Coordination Sequence:
#
# PCOD9578069 Si02
#       5
#    12  12  12  12  12
#     4  10  20  34  53  76 102 132 167 208 253 299
#     4  10  20  34  53  76 103 135 170 209 252 300
#     4  10  20  34  53  76 102 132 167 208 253 299
#     4  10  20  34  53  76 103 135 170 209 252 300
#     4  10  20  34  54  78 104 134 168 208 252 300
#
# _framework density 16.572167
#
# number of rings (size 3 to 8) (size 9 to 14) (size 15 to 20)
#    0.000    2.000    0.000    4.000    0.000    0.000 
#    0.000    6.000    0.000   20.000    0.000    0.000 
#    0.000    0.000    0.000    0.000    0.000    0.000 
#
# Total GULP energy -335037.397722 kJ/mol
# GULP energy per Si atom -5583.956629 kJ/mol
# Density = 1.653445 g / cm^3
# Si number density = 16.572167 Si / 1000 Ang^3
#
#
#
# Elastic Constant Matrix: (Units=GPa)
#
#
# Indices 1 2 3 4 5 6 
#
# 1 151.0172 112.7659 104.6126 0.0000 0.0000 0.0000
# 2 112.7659 151.0172 104.6126 0.0000 0.0000 0.0000
# 3 104.6126 104.6126 167.4034 0.0000 0.0000 0.0000
# 4 0.0000 0.0000 0.0000 21.8844 0.0000 0.0000
# 5 0.0000 0.0000 0.0000 0.0000 21.8844 0.0000
# 6 0.0000 0.0000 0.0000 0.0000 0.0000 19.1256
#
#
#
# Elastic Compliance Matrix: (Units=1/GPa)
#
#
# Indices 1 2 3 4 5 6 
#
# 1 0.016830 -0.009313 -0.004697 0.000000 0.000000 0.000000
# 2 -0.009313 0.016830 -0.004697 0.000000 0.000000 0.000000
# 3 -0.004697 -0.004697 0.011844 0.000000 0.000000 0.000000
# 4 0.000000 0.000000 0.000000 0.045695 0.000000 0.000000
# 5 0.000000 0.000000 0.000000 0.000000 0.045695 0.000000
# 6 0.000000 0.000000 0.000000 0.000000 0.000000 0.052286
#
#
# Mechanical properties :
#
#
# Convention : Reuss Voigt Hill
#
# Bulk Modulus (GPa) = 123.62973 123.71335 123.67154
# Shear Modulus (GPa) = 21.80634 22.40866 22.10750
#
# Velocity S-wave (km/s) = 3.63139 3.68120 3.65638
# Velocity P-wave (km/s) = 9.60965 9.63751 9.62359
#
# Compressibility (1/GPa) = 0.00808867
#
# Stress axis : x y z
#
# Youngs Moduli (GPa) = 59.41823 59.41823 84.42769
#
# Poissons Ratio (x) = 0.55337 0.39659
# Poissons Ratio (y) = 0.55337 0.39659
# Poissons Ratio (z) = 0.27911 0.27911
#
# Static dielectric constant tensor:
#      x y z
#    x 1.523160 0.000000 0.000000 
#    y 0.000000 1.523160 0.000000 
#    z 0.000000 0.000000 1.542340 
# 
# From -- ./inp_files/4090.got.cif
#   From: 2010.05.17/outbox.cif.g08.bks.cpg/sg163_3_cif.got.tgz:4090.got - 2010.05.20 10:56:03.
