data_PCOD9578314
_publ_section_title
;
Structure prediction by ZEFSAII (Michael W. Deem and Ramdas Pophale) SiO2 
 PCOD9578314
Probable space group: P -3 M 1
;
_chemical_formula_sum "Si O2"
_cell_formula_units_Z 90
_cell_length_a 20.404834
_cell_length_b 20.404834
_cell_length_c 14.824291
_cell_angle_alpha 90.000000
_cell_angle_beta 90.000000
_cell_angle_gamma 120.000000
_cell_volume 5345.282900
_symmetry_space_group_name_H-M "P -3 M 1"
_symmetry_group_IT_number 164
_symmetry_cell_setting 'hexagonal'
loop_
_space_group_symop_operation_xyz
x,y,z
-y,x-y,z
-x+y,-x,z
x-y,-y,-z
-x,-x+y,-z
y,x,-z
-x,-y,-z
y,-x+y,-z
x-y,x,-z
-x+y,y,z
x,x-y,z
-y,-x,z
loop_
_atom_site_type_symbol
_atom_site_label
_atom_site_fract_x
_atom_site_fract_y
_atom_site_fract_z
Si Si1 0.000000 0.852812 0.500000
Si Si2 0.268229 0.207682 0.340480
Si Si3 0.401540 0.276383 0.484871
Si Si4 0.378438 0.914325 0.832365
Si Si5 0.334503 0.511991 0.655795
Si Si6 0.252437 0.905866 0.319682
Si Si7 0.333440 0.511464 0.006112
Si Si8 0.377214 0.468008 0.194682
O O1 0.026098 0.823462 0.584370
O O2 0.930977 0.861953 0.531109
O O3 0.266054 0.133027 0.296319
O O4 0.342750 0.246608 0.402573
O O5 0.259347 0.273299 0.289862
O O6 0.419323 0.209662 0.508040
O O7 0.475601 0.342645 0.437650
O O8 0.364474 0.283282 0.576603
O O9 0.454123 0.908246 0.833818
O O10 0.335250 0.870850 0.742232
O O11 0.409795 0.002952 0.826463
O O12 0.335742 0.875015 0.924184
O O13 0.255689 0.511378 0.654514
O O14 0.403765 0.596236 0.665438
O O15 0.165922 0.834079 0.316390
O O16 0.308754 0.886346 0.264420
O O17 0.255825 0.511649 0.004957
O O18 0.403685 0.596316 0.992550
O O19 0.347274 0.484530 0.102288
O O20 0.451427 0.548574 0.224225
#
# Coordination Sequence:
#
# PCOD9578314 Si02
#       8
#     6  12  12  12  12  12  12  12
#     4  10  17  26  42  66  93 120 152 194 250 310
#     4  10  18  30  48  68  94 128 165 210 261 305
#     4   9  18  30  45  66  94 129 168 206 245 295
#     4   9  18  32  50  70  94 124 158 199 250 309
#     4  10  19  31  47  69  96 126 163 209 260 307
#     4  11  20  33  52  74 101 137 180 219 255 304
#     4  10  19  33  53  77 102 128 160 201 251 305
#     4  10  21  35  51  72 101 136 173 211 252 297
#
# _framework density 16.837275000000002
#
# number of rings (size 3 to 8) (size 9 to 14) (size 15 to 20)
#    0.000    2.133    1.333    2.733    0.000    2.133 
#    0.000    2.000    0.000    4.533    0.000    0.000 
#    0.000    0.000    0.000    0.000    0.000    5.600 
#
# Total GULP energy -501025.778448 kJ/mol
# GULP energy per Si atom -5566.953094 kJ/mol
# Density = 1.679895 g / cm^3
# Si number density = 16.837275 Si / 1000 Ang^3
#
#
#
# Elastic Constant Matrix: (Units=GPa)
#
#
# Indices 1 2 3 4 5 6 
#
# 1 61.1830 10.4953 20.3161 -2.6739 0.0000 0.0000
# 2 10.4953 61.1830 20.3161 2.6739 0.0000 0.0000
# 3 20.3161 20.3161 41.9206 0.0000 0.0000 0.0000
# 4 -2.6739 2.6739 0.0000 19.4470 0.0000 0.0000
# 5 0.0000 0.0000 0.0000 0.0000 19.4470 -2.6739
# 6 0.0000 0.0000 0.0000 0.0000 -2.6739 25.3438
#
#
#
# Elastic Compliance Matrix: (Units=1/GPa)
#
#
# Indices 1 2 3 4 5 6 
#
# 1 0.019627 -0.000392 -0.009322 0.002753 0.000000 0.000000
# 2 -0.000392 0.019627 -0.009322 -0.002753 0.000000 0.000000
# 3 -0.009322 -0.009322 0.032890 0.000000 0.000000 0.000000
# 4 0.002753 -0.002753 0.000000 0.052179 0.000000 0.000000
# 5 0.000000 0.000000 0.000000 0.000000 0.052179 0.005505
# 6 0.000000 0.000000 0.000000 0.000000 0.005505 0.040038
#
#
# Mechanical properties :
#
#
# Convention : Reuss Voigt Hill
#
# Bulk Modulus (GPa) = 29.34899 29.61576 29.48237
# Shear Modulus (GPa) = 18.79906 20.39152 19.59529
#
# Velocity S-wave (km/s) = 3.34505 3.48385 3.41516
# Velocity P-wave (km/s) = 5.69104 5.81468 5.75320
#
# Compressibility (1/GPa) = 0.03407273
#
# Stress axis : x y z
#
# Youngs Moduli (GPa) = 50.94916 50.94916 30.40404
#
# Poissons Ratio (x) = 0.01996 0.28343
# Poissons Ratio (y) = 0.01996 0.28343
# Poissons Ratio (z) = 0.47496 0.47496
#
# Static dielectric constant tensor:
#      x y z
#    x 1.605080 0.000000 0.000000 
#    y 0.000000 1.605080 0.000000 
#    z 0.000000 0.000000 1.569650 
# 
# From -- ./inp_files/3732.got.cif
#   From: 2010.05.17/outbox.cif.g08.bks.cpg/sg164_2_cif.got.tgz:3732.got - 2010.05.20 10:58:56.
