data_PCOD9578698
_publ_section_title
;
Structure prediction by ZEFSAII (Michael W. Deem and Ramdas Pophale) SiO2 
 PCOD9578698
Probable space group: P -3 M 1
;
_chemical_formula_sum "Si O2"
_cell_formula_units_Z 84
_cell_length_a 17.749157
_cell_length_b 17.749157
_cell_length_c 15.126879
_cell_angle_alpha 90.000000
_cell_angle_beta 90.000000
_cell_angle_gamma 120.000000
_cell_volume 4127.009101
_symmetry_space_group_name_H-M "P -3 M 1"
_symmetry_group_IT_number 164
_symmetry_cell_setting 'hexagonal'
loop_
_space_group_symop_operation_xyz
x,y,z
-y,x-y,z
-x+y,-x,z
x-y,-y,-z
-x,-x+y,-z
y,x,-z
-x,-y,-z
y,-x+y,-z
x-y,x,-z
-x+y,y,z
x,x-y,z
-y,-x,z
loop_
_atom_site_type_symbol
_atom_site_label
_atom_site_fract_x
_atom_site_fract_y
_atom_site_fract_z
Si Si1 0.509383 0.664001 0.329831
Si Si2 0.929885 0.245901 0.576716
Si Si3 0.939615 0.228060 0.276146
Si Si4 0.664451 0.152508 0.241512
Si Si5 0.694586 0.561197 0.864866
Si Si6 0.031910 0.797958 0.101832
Si Si7 0.835461 0.336348 0.045482
O O1 0.501917 0.750959 0.327172
O O2 0.418991 0.581010 0.352667
O O3 0.584885 0.684395 0.399151
O O4 0.537603 0.651556 0.231022
O O5 0.844474 0.155527 0.554926
O O6 0.000000 0.278544 0.500000
O O7 0.973985 0.237415 0.666454
O O8 0.861617 0.138384 0.312657
O O9 0.905053 0.297421 0.283407
O O10 0.958691 0.208886 0.176498
O O11 0.574433 0.148865 0.271635
O O12 0.746577 0.253424 0.242527
O O13 0.647838 0.119132 0.139524
O O14 0.762181 0.524362 0.863837
O O15 0.750642 0.663242 0.879909
O O16 0.640209 0.527621 0.954556
O O17 0.099007 0.900994 0.115547
O O18 0.000000 0.783294 0.000000
O O19 0.790025 0.395013 0.048492
O O20 0.765294 0.234707 0.043723
#
# Coordination Sequence:
#
# PCOD9578698 Si02
#       7
#    12  12  12  12  12  12  12
#     4  10  20  36  60  92 130 169 206 244 290 348
#     4  11  24  45  71  96 120 152 195 248 311 373
#     4  11  22  39  63  90 120 158 202 250 311 377
#     4   9  18  32  52  82 122 170 219 261 299 344
#     4   9  17  30  48  74 112 157 206 252 294 346
#     4  11  21  36  57  83 117 162 210 253 305 371
#     4   9  15  24  40  66 105 155 209 257 293 324
#
# _framework density 20.353724
#
# number of rings (size 3 to 8) (size 9 to 14) (size 15 to 20)
#    0.000    2.000    1.429    3.000    0.000    4.286 
#    0.000    1.429    0.000   11.571    0.000    2.000 
#    0.000    0.000    0.000    0.000    0.000    0.000 
#
# Total GULP energy -468064.536724 kJ/mol
# GULP energy per Si atom -5572.196866 kJ/mol
# Density = 2.030740 g / cm^3
# Si number density = 20.353724 Si / 1000 Ang^3
#
#
#
# Elastic Constant Matrix: (Units=GPa)
#
#
# Indices 1 2 3 4 5 6 
#
# 1 50.5240 27.0866 13.9155 -6.7866 0.0000 0.0000
# 2 27.0866 50.5240 13.9155 6.7866 0.0000 0.0000
# 3 13.9155 13.9155 54.6063 0.0000 0.0000 0.0000
# 4 -6.7866 6.7866 0.0000 10.5759 0.0000 0.0000
# 5 0.0000 0.0000 0.0000 0.0000 10.5759 -6.7866
# 6 0.0000 0.0000 0.0000 0.0000 -6.7866 11.7187
#
#
#
# Elastic Compliance Matrix: (Units=1/GPa)
#
#
# Indices 1 2 3 4 5 6 
#
# 1 0.041040 -0.026860 -0.003614 0.043571 0.000000 0.000000
# 2 -0.026860 0.041040 -0.003614 -0.043571 0.000000 0.000000
# 3 -0.003614 -0.003614 0.020155 0.000000 0.000000 0.000000
# 4 0.043571 -0.043571 0.000000 0.150473 0.000000 0.000000
# 5 0.000000 0.000000 0.000000 0.000000 0.150473 0.087143
# 6 0.000000 0.000000 0.000000 0.000000 0.087143 0.135800
#
#
# Mechanical properties :
#
#
# Convention : Reuss Voigt Hill
#
# Bulk Modulus (GPa) = 29.35889 29.49885 29.42887
# Shear Modulus (GPa) = 8.08394 13.28988 10.68691
#
# Velocity S-wave (km/s) = 1.99508 2.55805 2.29390
# Velocity P-wave (km/s) = 4.44553 4.82176 4.63747
#
# Compressibility (1/GPa) = 0.03406123
#
# Stress axis : x y z
#
# Youngs Moduli (GPa) = 24.36623 24.36623 49.61621
#
# Poissons Ratio (x) = 0.65447 0.17930
# Poissons Ratio (y) = 0.65447 0.17930
# Poissons Ratio (z) = 0.08805 0.08805
#
# Static dielectric constant tensor:
#      x y z
#    x 1.757510 0.000000 0.000000 
#    y 0.000000 1.757510 0.000000 
#    z 0.000000 0.000000 1.752020 
# 
# From -- ./inp_files/3609.got.cif
#   From: 2010.05.17/outbox.cif.g08.bks.cpg/sg164_2_cif.got.tgz:3609.got - 2010.05.20 10:58:56.
