data_PCOD9578451
_publ_section_title
;
Structure prediction by ZEFSAII (Michael W. Deem and Ramdas Pophale) SiO2 
 PCOD9578451
Probable space group: P -3 M 1
;
_chemical_formula_sum "Si O2"
_cell_formula_units_Z 96
_cell_length_a 18.173644
_cell_length_b 18.173644
_cell_length_c 22.458781
_cell_angle_alpha 90.000000
_cell_angle_beta 90.000000
_cell_angle_gamma 120.000000
_cell_volume 6423.930666
_symmetry_space_group_name_H-M "P -3 M 1"
_symmetry_group_IT_number 164
_symmetry_cell_setting 'hexagonal'
loop_
_space_group_symop_operation_xyz
x,y,z
-y,x-y,z
-x+y,-x,z
x-y,-y,-z
-x,-x+y,-z
y,x,-z
-x,-y,-z
y,-x+y,-z
x-y,x,-z
-x+y,y,z
x,x-y,z
-y,-x,z
loop_
_atom_site_type_symbol
_atom_site_label
_atom_site_fract_x
_atom_site_fract_y
_atom_site_fract_z
Si Si1 0.841355 0.332352 0.650953
Si Si2 0.265933 0.363959 0.242214
Si Si3 0.841355 0.332352 0.349047
Si Si4 0.840126 0.333347 0.000001
Si Si5 0.410831 0.000000 0.432051
Si Si6 0.734068 0.636043 0.242215
Si Si7 0.904099 0.640042 0.103305
Si Si8 0.735942 0.095903 0.896696
O O1 0.832925 0.416463 0.651653
O O2 0.751343 0.248658 0.637628
O O3 0.873512 0.317469 0.714487
O O4 0.914811 0.347640 0.603800
O O5 0.166560 0.333119 0.252158
O O6 0.295113 0.295114 0.254431
O O7 0.283460 0.387364 0.172410
O O8 0.832925 0.416463 0.348346
O O9 0.751343 0.248658 0.362372
O O10 0.873512 0.317468 0.285513
O O11 0.914811 0.347641 0.396201
O O12 0.847202 0.423601 0.000002
O O13 0.742380 0.257621 0.000000
O O14 0.883183 0.318954 0.941978
O O15 0.883182 0.318950 0.058023
O O16 0.500000 0.999999 0.433473
O O17 0.384133 0.000000 0.500000
O O18 0.833442 0.666884 0.252159
O O19 0.716542 0.612639 0.172411
O O20 0.833435 0.666870 0.092320
O O21 0.000001 0.713940 0.093701
O O22 0.833433 0.166568 0.907682
#
# Coordination Sequence:
#
# PCOD9578451 Si02
#       8
#    12  12  12  12  12  12  12  12
#     4  10  19  31  47  68  94 123 155 190 230 274
#     4   9  17  30  48  69  92 120 153 190 230 273
#     4  10  19  31  47  68  94 123 155 190 230 274
#     4  10  20  33  46  63  88 120 155 192 232 273
#     4   9  18  32  48  66  90 119 150 186 226 267
#     4   9  17  30  48  69  92 120 153 190 230 273
#     4   9  18  31  47  67  91 119 152 188 229 273
#     4   9  18  31  47  67  91 119 152 188 229 273
#
# _framework density 14.944122
#
# number of rings (size 3 to 8) (size 9 to 14) (size 15 to 20)
#    0.000    2.625    1.250    0.750    0.000    2.500 
#    0.000    2.500    0.000    5.000    0.000    3.500 
#    0.000    3.000    0.000    0.250    0.000   11.375 
#
# Total GULP energy -534582.839279 kJ/mol
# GULP energy per Si atom -5568.571242 kJ/mol
# Density = 1.491011 g / cm^3
# Si number density = 14.944122 Si / 1000 Ang^3
#
#
#
# Elastic Constant Matrix: (Units=GPa)
#
#
# Indices 1 2 3 4 5 6 
#
# 1 101.4226 78.1842 61.2768 0.0002 0.0000 0.0000
# 2 78.1842 101.4226 61.2768 -0.0002 0.0000 0.0000
# 3 61.2768 61.2768 80.3323 0.0000 0.0000 0.0000
# 4 0.0002 -0.0002 0.0000 18.1713 0.0000 0.0000
# 5 0.0000 0.0000 0.0000 0.0000 18.1713 0.0002
# 6 0.0000 0.0000 0.0000 0.0000 0.0002 11.6192
#
#
#
# Elastic Compliance Matrix: (Units=1/GPa)
#
#
# Indices 1 2 3 4 5 6 
#
# 1 0.027322 -0.015711 -0.008857 -0.000001 0.000000 0.000000
# 2 -0.015711 0.027322 -0.008857 0.000001 0.000000 0.000000
# 3 -0.008857 -0.008857 0.025960 0.000000 0.000000 0.000000
# 4 -0.000001 0.000001 0.000000 0.055032 0.000000 0.000000
# 5 0.000000 0.000000 0.000000 0.000000 0.055032 -0.000001
# 6 0.000000 0.000000 0.000000 0.000000 -0.000001 0.086064
#
#
# Mechanical properties :
#
#
# Convention : Reuss Voigt Hill
#
# Bulk Modulus (GPa) = 72.70102 76.07254 74.38678
# Shear Modulus (GPa) = 14.36098 15.08833 14.72466
#
# Velocity S-wave (km/s) = 3.10333 3.18095 3.14238
# Velocity P-wave (km/s) = 7.84825 8.03159 7.94045
#
# Compressibility (1/GPa) = 0.01375497
#
# Stress axis : x y z
#
# Youngs Moduli (GPa) = 36.60095 36.60095 38.52054
#
# Poissons Ratio (x) = 0.57502 0.34117
# Poissons Ratio (y) = 0.57502 0.34117
# Poissons Ratio (z) = 0.32417 0.32417
#
# Static dielectric constant tensor:
#      x y z
#    x 1.480910 0.000000 0.000000 
#    y 0.000000 1.480910 0.000000 
#    z 0.000000 0.000000 1.505860 
# 
# From -- ./inp_files/4753.got.cif
#   From: 2010.05.17/outbox.cif.g08.bks.cpg/sg164_3_cif.got.tgz:4753.got - 2010.05.20 10:58:56.
