data_PCOD9578973
_publ_section_title
;
Structure prediction by ZEFSAII (Michael W. Deem and Ramdas Pophale) SiO2 
 PCOD9578973
Probable space group: P -3 C 1
;
_chemical_formula_sum "Si O2"
_cell_formula_units_Z 44
_cell_length_a 12.580064
_cell_length_b 12.580064
_cell_length_c 15.778786
_cell_angle_alpha 90.000000
_cell_angle_beta 90.000000
_cell_angle_gamma 120.000000
_cell_volume 2162.568730
_symmetry_space_group_name_H-M "P -3 C 1"
_symmetry_group_IT_number 165
_symmetry_cell_setting 'hexagonal'
loop_
_space_group_symop_operation_xyz
x,y,z
-y,x-y,z
-x+y,-x,z
x-y,-y,1/2-z
-x,-x+y,1/2-z
y,x,1/2-z
-x,-y,-z
y,-x+y,-z
x-y,x,-z
-x+y,y,1/2+z
x,x-y,1/2+z
-y,-x,1/2+z
loop_
_atom_site_type_symbol
_atom_site_label
_atom_site_fract_x
_atom_site_fract_y
_atom_site_fract_z
Si Si1 0.666666 0.333334 0.851636
Si Si2 0.000000 0.251403 0.750000
Si Si3 0.748599 0.748599 0.250000
Si Si4 0.666668 0.333335 0.148371
Si Si5 0.353313 0.919880 0.905866
Si Si6 0.353314 0.433429 0.594131
O O1 0.666668 0.333334 0.750004
O O2 0.780822 0.462105 0.882811
O O3 0.982044 0.314300 0.666732
O O4 0.120082 0.240166 0.750003
O O5 0.685708 0.667744 0.333269
O O6 0.681293 0.219184 0.117196
O O7 0.500000 0.999993 0.908933
O O8 0.304323 0.920467 0.999998
#
# Coordination Sequence:
#
# PCOD9578973 Si02
#       6
#     4   6   6   4  12  12
#     4  12  22  38  67 102 142 182 224 272 337 417
#     4  12  26  44  64  88 122 168 222 280 342 410
#     4  12  26  44  64  88 122 168 222 280 342 410
#     4  12  22  38  67 102 142 182 224 272 337 417
#     4  11  23  40  65  98 134 172 216 270 335 408
#     4  11  23  40  65  98 134 172 216 270 335 408
#
# _framework density 20.346173
#
# number of rings (size 3 to 8) (size 9 to 14) (size 15 to 20)
#    0.000    0.545    0.000   10.909    0.000    6.545 
#    0.000    0.000    0.000    3.273    0.000    0.000 
#    0.000    0.000    0.000    0.000    0.000    0.000 
#
# Total GULP energy -246233.414147 kJ/mol
# GULP energy per Si atom -5596.213958 kJ/mol
# Density = 2.029986 g / cm^3
# Si number density = 20.346173 Si / 1000 Ang^3
#
#
#
# Elastic Constant Matrix: (Units=GPa)
#
#
# Indices 1 2 3 4 5 6 
#
# 1 121.0403 42.1496 82.1658 0.0065 0.0000 0.0000
# 2 42.1496 121.0411 82.1661 -0.0052 0.0000 0.0000
# 3 82.1658 82.1661 242.0449 -0.0019 0.0000 0.0000
# 4 0.0065 -0.0052 -0.0019 -12.0630 0.0000 0.0000
# 5 0.0000 0.0000 0.0000 0.0000 -12.0730 0.0041
# 6 0.0000 0.0000 0.0000 0.0000 0.0041 39.4462
#
#
#
# Elastic Compliance Matrix: (Units=1/GPa)
#
#
# Indices 1 2 3 4 5 6 
#
# 1 0.010993 -0.001683 -0.003161 0.000007 0.000000 0.000000
# 2 -0.001683 0.010993 -0.003161 -0.000005 0.000000 0.000000
# 3 -0.003161 -0.003161 0.006277 -0.000001 0.000000 0.000000
# 4 0.000007 -0.000005 -0.000001 -0.082898 0.000000 0.000000
# 5 0.000000 0.000000 0.000000 0.000000 -0.082830 0.000009
# 6 0.000000 0.000000 0.000000 0.000000 0.000009 0.025351
#
#
# Mechanical properties :
#
#
# Convention : Reuss Voigt Hill
#
# Bulk Modulus (GPa) = 81.59311 99.67658 90.63484
# Shear Modulus (GPa) = -54.33581 21.57171 -16.38205
#
# Velocity S-wave (km/s) = -5.17336 3.25966 -2.84062
# Velocity P-wave (km/s) = 2.12241 7.95386 5.82102
#
# Compressibility (1/GPa) = 0.01225594
#
# Stress axis : x y z
#
# Youngs Moduli (GPa) = 90.96571 90.96630 159.30420
#
# Poissons Ratio (x) = 0.15306 0.50350
# Poissons Ratio (y) = 0.15306 0.50350
# Poissons Ratio (z) = 0.28751 0.28751
#
# Static dielectric constant tensor:
#      x y z
#    x 1.697750 0.000000 0.000000 
#    y 0.000000 1.697750 0.000000 
#    z 0.000000 0.000000 1.765640 
# 
# From -- ./inp_files/2126.got.cif
#   From: 2010.05.17/outbox.cif.g08.bks.cpg/sg165_2_cif.got.tgz:2126.got - 2010.05.20 11:02:39.
