data_PCOD9578789
_publ_section_title
;
Structure prediction by ZEFSAII (Michael W. Deem and Ramdas Pophale) SiO2 
 PCOD9578789
Probable space group: P -3 C 1
;
_chemical_formula_sum "Si O2"
_cell_formula_units_Z 78
_cell_length_a 22.063447
_cell_length_b 22.063447
_cell_length_c 8.810087
_cell_angle_alpha 90.000000
_cell_angle_beta 90.000000
_cell_angle_gamma 120.000000
_cell_volume 3714.133898
_symmetry_space_group_name_H-M "P -3 C 1"
_symmetry_group_IT_number 165
_symmetry_cell_setting 'hexagonal'
loop_
_space_group_symop_operation_xyz
x,y,z
-y,x-y,z
-x+y,-x,z
x-y,-y,1/2-z
-x,-x+y,1/2-z
y,x,1/2-z
-x,-y,-z
y,-x+y,-z
x-y,x,-z
-x+y,y,1/2+z
x,x-y,1/2+z
-y,-x,1/2+z
loop_
_atom_site_type_symbol
_atom_site_label
_atom_site_fract_x
_atom_site_fract_y
_atom_site_fract_z
Si Si1 0.314908 0.152565 0.281622
Si Si2 0.201930 0.649382 0.367338
Si Si3 0.257974 0.257974 0.750000
Si Si4 0.884026 0.019590 0.080538
Si Si5 0.538596 0.319777 0.488323
Si Si6 0.016236 0.269950 0.586042
Si Si7 0.585654 0.760783 0.977853
O O1 0.256828 0.072684 0.252944
O O2 0.290265 0.193392 0.392422
O O3 0.379437 0.148964 0.360287
O O4 0.351908 0.202396 0.139730
O O5 0.213054 0.661963 0.188477
O O6 0.274994 0.701017 0.453413
O O7 0.180925 0.571683 0.415873
O O8 0.155873 0.683217 0.426282
O O9 0.292387 0.286993 0.582229
O O10 0.814952 0.027125 0.083927
O O11 0.893300 0.000000 0.250000
O O12 0.867080 0.953309 0.977202
O O13 0.457842 0.260424 0.514172
O O14 0.000000 0.293155 0.750000
#
# Coordination Sequence:
#
# PCOD9578789 Si02
#       7
#    12  12   6  12  12  12  12
#     4  12  22  44  62  92 125 163 222 267 331 392
#     4  10  19  31  51  84 128 169 201 238 310 379
#     4  12  26  40  70  90 124 170 210 290 332 388
#     4  11  24  39  58  82 116 155 195 244 316 405
#     4  10  19  31  51  85 127 173 201 242 309 385
#     4  11  26  42  64  93 119 159 208 273 337 396
#     4  10  21  38  60  84 134 169 205 266 315 391
#
# _framework density 21.000857
#
# number of rings (size 3 to 8) (size 9 to 14) (size 15 to 20)
#    0.923    0.308    3.077    3.692    8.615    0.000 
#    0.000    0.000    0.000    0.000    0.000    1.077 
#    4.615    0.000    0.000    0.000    0.000    0.000 
#
# Total GULP energy -434705.573661 kJ/mol
# GULP energy per Si atom -5573.148380 kJ/mol
# Density = 2.095306 g / cm^3
# Si number density = 21.000857 Si / 1000 Ang^3
#
#
#
# Elastic Constant Matrix: (Units=GPa)
#
#
# Indices 1 2 3 4 5 6 
#
# 1 73.5219 19.9080 12.1626 1.7036 0.0000 0.0000
# 2 19.9080 73.5219 12.1626 -1.7036 0.0000 0.0000
# 3 12.1626 12.1626 148.8116 0.0000 0.0000 0.0000
# 4 1.7036 -1.7036 0.0000 28.8131 0.0000 0.0000
# 5 0.0000 0.0000 0.0000 0.0000 28.8131 1.7036
# 6 0.0000 0.0000 0.0000 0.0000 1.7036 26.8070
#
#
#
# Elastic Compliance Matrix: (Units=1/GPa)
#
#
# Indices 1 2 3 4 5 6 
#
# 1 0.014829 -0.003893 -0.000894 -0.001107 0.000000 0.000000
# 2 -0.003893 0.014829 -0.000894 0.001107 0.000000 0.000000
# 3 -0.000894 -0.000894 0.006866 0.000000 0.000000 0.000000
# 4 -0.001107 0.001107 0.000000 0.034837 0.000000 0.000000
# 5 0.000000 0.000000 0.000000 0.000000 0.034837 -0.002214
# 6 0.000000 0.000000 0.000000 0.000000 -0.002214 0.037444
#
#
# Mechanical properties :
#
#
# Convention : Reuss Voigt Hill
#
# Bulk Modulus (GPa) = 39.74149 42.70243 41.22196
# Shear Modulus (GPa) = 30.60117 33.66143 32.13130
#
# Velocity S-wave (km/s) = 3.82139 4.00792 3.91576
# Velocity P-wave (km/s) = 6.19964 6.46496 6.33369
#
# Compressibility (1/GPa) = 0.02516262
#
# Stress axis : x y z
#
# Youngs Moduli (GPa) = 67.43508 67.43508 145.64499
#
# Poissons Ratio (x) = 0.26253 0.13018
# Poissons Ratio (y) = 0.26253 0.13018
# Poissons Ratio (z) = 0.06027 0.06027
#
# Static dielectric constant tensor:
#      x y z
#    x 1.784110 0.000000 0.000000 
#    y 0.000000 1.784110 0.000000 
#    z 0.000000 0.000000 1.829610 
# 
# From -- ./inp_files/804.got.cif
#   From: 2010.05.17/outbox.cif.g08.bks.cpg/sg165_1_cif.got.tgz:804.got - 2010.05.20 11:02:39.
