data_PCOD9578987
_publ_section_title
;
Structure prediction by ZEFSAII (Michael W. Deem and Ramdas Pophale) SiO2 
 PCOD9578987
Probable space group: P -3 C 1
;
_chemical_formula_sum "Si O2"
_cell_formula_units_Z 36
_cell_length_a 20.010518
_cell_length_b 20.010518
_cell_length_c 5.339027
_cell_angle_alpha 90.000000
_cell_angle_beta 90.000000
_cell_angle_gamma 120.000000
_cell_volume 1851.439014
_symmetry_space_group_name_H-M "P -3 C 1"
_symmetry_group_IT_number 165
_symmetry_cell_setting 'hexagonal'
loop_
_space_group_symop_operation_xyz
x,y,z
-y,x-y,z
-x+y,-x,z
x-y,-y,1/2-z
-x,-x+y,1/2-z
y,x,1/2-z
-x,-y,-z
y,-x+y,-z
x-y,x,-z
-x+y,y,1/2+z
x,x-y,1/2+z
-y,-x,1/2+z
loop_
_atom_site_type_symbol
_atom_site_label
_atom_site_fract_x
_atom_site_fract_y
_atom_site_fract_z
Si Si1 0.000000 0.563930 0.250000
Si Si2 0.160401 0.600881 0.748596
Si Si3 0.838725 0.242167 0.365714
Si Si4 0.000000 0.344669 0.250000
O O1 0.922709 0.479763 0.224298
O O2 0.990617 0.604952 0.498257
O O3 0.200097 0.584774 0.516285
O O4 0.155787 0.675527 0.677541
O O5 0.814479 0.216664 0.650538
O O6 0.925015 0.263114 0.300857
#
# Coordination Sequence:
#
# PCOD9578987 Si02
#       4
#     6  12  12   6
#     4  12  19  36  64  98 102 142 206 255 280 319
#     4  12  20  35  58  86 113 139 194 248 295 328
#     4  12  25  39  56  88 119 147 191 248 297 342
#     4  12  23  40  64  90 114 150 196 243 288 349
#
# _framework density 19.444334000000001
#
# number of rings (size 3 to 8) (size 9 to 14) (size 15 to 20)
#    0.000    0.000    6.667    6.000    0.000    0.000 
#    0.000    0.000    0.000   13.333    0.000    0.000 
#    0.000    0.000    0.000   10.000    0.000    0.000 
#
# Total GULP energy -201131.143477 kJ/mol
# GULP energy per Si atom -5586.976208 kJ/mol
# Density = 1.940008 g / cm^3
# Si number density = 19.444334 Si / 1000 Ang^3
#
#
#
# Elastic Constant Matrix: (Units=GPa)
#
#
# Indices 1 2 3 4 5 6 
#
# 1 35.6466 1.3339 -6.3116 -2.7651 0.0000 0.0000
# 2 1.3339 35.6466 -6.3116 2.7651 0.0000 0.0000
# 3 -6.3116 -6.3116 117.6088 0.0000 0.0000 0.0000
# 4 -2.7651 2.7651 0.0000 24.8225 0.0000 0.0000
# 5 0.0000 0.0000 0.0000 0.0000 24.8225 -2.7651
# 6 0.0000 0.0000 0.0000 0.0000 -2.7651 17.1564
#
#
#
# Elastic Compliance Matrix: (Units=1/GPa)
#
#
# Indices 1 2 3 4 5 6 
#
# 1 0.028611 -0.001065 0.001478 0.003306 0.000000 0.000000
# 2 -0.001065 0.028611 0.001478 -0.003306 0.000000 0.000000
# 3 0.001478 0.001478 0.008661 0.000000 0.000000 0.000000
# 4 0.003306 -0.003306 0.000000 0.041023 0.000000 0.000000
# 5 0.000000 0.000000 0.000000 0.000000 0.041023 0.006612
# 6 0.000000 0.000000 0.000000 0.000000 0.006612 0.059353
#
#
# Mechanical properties :
#
#
# Convention : Reuss Voigt Hill
#
# Bulk Modulus (GPa) = 14.35415 18.48038 16.41727
# Shear Modulus (GPa) = 22.05348 26.70636 24.37992
#
# Velocity S-wave (km/s) = 3.37142 3.71007 3.54479
# Velocity P-wave (km/s) = 4.74905 5.27993 5.02151
#
# Compressibility (1/GPa) = 0.06966624
#
# Stress axis : x y z
#
# Youngs Moduli (GPa) = 34.95138 34.95138 115.45431
#
# Poissons Ratio (x) = 0.03723 -0.17067
# Poissons Ratio (y) = 0.03723 -0.17067
# Poissons Ratio (z) = -0.05167 -0.05167
#
# Static dielectric constant tensor:
#      x y z
#    x 1.737190 0.000000 0.000000 
#    y 0.000000 1.737190 0.000000 
#    z 0.000000 0.000000 1.843900 
# 
# From -- ./inp_files/79.got.cif
#   From: 2010.05.17/outbox.cif.g08.bks.cpg/sg165_1_cif.got.tgz:79.got - 2010.05.20 11:02:39.
