data_PCOD9578136
_publ_section_title
;
Structure prediction by ZEFSAII (Michael W. Deem and Ramdas Pophale) SiO2 
 PCOD9578136
Probable space group: P -3 1 C
;
_chemical_formula_sum "Si O2"
_cell_formula_units_Z 46
_cell_length_a 11.585044
_cell_length_b 11.585044
_cell_length_c 23.840661
_cell_angle_alpha 90.000000
_cell_angle_beta 90.000000
_cell_angle_gamma 120.000000
_cell_volume 2771.049599
_symmetry_space_group_name_H-M "P -3 1 C"
_symmetry_group_IT_number 163
_symmetry_cell_setting 'hexagonal'
loop_
_space_group_symop_operation_xyz
x,y,z
-y,x-y,z
-x+y,-x,z
-y,-x,1/2-z
-x+y,y,1/2-z
x,x-y,1/2-z
-x,-y,-z
y,-x+y,-z
x-y,x,-z
y,x,1/2+z
x-y,-y,1/2+z
-x,-x+y,1/2+z
loop_
_atom_site_type_symbol
_atom_site_label
_atom_site_fract_x
_atom_site_fract_y
_atom_site_fract_z
Si Si1 0.000246 0.726765 0.566194
Si Si2 0.333335 0.666668 0.182716
Si Si3 0.420857 0.841713 0.750000
Si Si4 0.273235 0.273481 0.933806
Si Si5 0.971528 0.485764 0.858865
O O1 0.000000 0.695703 0.500000
O O2 0.868250 0.736500 0.576907
O O3 0.997834 0.612055 0.603921
O O4 0.132157 0.867844 0.577016
O O5 0.333334 0.666667 0.250000
O O6 0.182019 0.591010 0.160686
O O7 0.261351 0.738650 0.750000
O O8 0.466417 0.932833 0.804874
O O9 0.387946 0.385779 0.896079
#
# Coordination Sequence:
#
# PCOD9578136 Si02
#       5
#    12   4   6  12  12
#     4  10  21  37  59  87 120 159 198 243 293 352
#     4  12  24  39  63  90 108 165 195 253 293 355
#     4  10  24  40  60  88 110 150 190 246 306 340
#     4  10  21  37  59  87 120 159 198 243 293 352
#     4  12  21  40  61  84 122 149 207 238 302 359
#
# _framework density 16.600207999999999
#
# number of rings (size 3 to 8) (size 9 to 14) (size 15 to 20)
#    0.261    1.043    3.913    2.870    0.000    2.087 
#    1.565    0.000    0.000    0.000    0.000    0.000 
#    0.000    0.000    0.000    0.000    0.000    0.000 
#
# Total GULP energy -256871.168861 kJ/mol
# GULP energy per Si atom -5584.155845 kJ/mol
# Density = 1.656243 g / cm^3
# Si number density = 16.600208 Si / 1000 Ang^3
#
#
#
# Elastic Constant Matrix: (Units=GPa)
#
#
# Indices 1 2 3 4 5 6 
#
# 1 166.9699 95.6475 112.5323 -0.0001 0.0000 -0.0001
# 2 95.6475 166.9698 112.5323 -0.0001 -0.0002 0.0000
# 3 112.5323 112.5323 136.0743 0.0000 0.0000 0.0000
# 4 -0.0001 -0.0001 0.0000 32.8374 0.0000 -0.0001
# 5 0.0000 -0.0002 0.0000 0.0000 32.8373 0.0000
# 6 -0.0001 0.0000 0.0000 -0.0001 0.0000 35.6612
#
#
#
# Elastic Compliance Matrix: (Units=1/GPa)
#
#
# Indices 1 2 3 4 5 6 
#
# 1 0.013547 -0.000474 -0.010812 0.000000 0.000000 0.000000
# 2 -0.000474 0.013547 -0.010812 0.000000 0.000000 0.000000
# 3 -0.010812 -0.010812 0.025231 0.000000 0.000000 0.000000
# 4 0.000000 0.000000 0.000000 0.030453 0.000000 0.000000
# 5 0.000000 0.000000 0.000000 0.000000 0.030453 0.000000
# 6 0.000000 0.000000 0.000000 0.000000 0.000000 0.028042
#
#
# Mechanical properties :
#
#
# Convention : Reuss Voigt Hill
#
# Bulk Modulus (GPa) = 122.97772 123.49313 123.23543
# Shear Modulus (GPa) = 26.57057 30.22064 28.39561
#
# Velocity S-wave (km/s) = 4.00511 4.27136 4.14038
# Velocity P-wave (km/s) = 9.77910 9.94384 9.86181
#
# Compressibility (1/GPa) = 0.00813155
#
# Stress axis : x y z
#
# Youngs Moduli (GPa) = 73.81616 73.81611 39.63334
#
# Poissons Ratio (x) = 0.03496 0.42850
# Poissons Ratio (y) = 0.03496 0.42850
# Poissons Ratio (z) = 0.79808 0.79808
#
# Static dielectric constant tensor:
#      x y z
#    x 1.529750 0.000000 0.000000 
#    y 0.000000 1.529750 0.000000 
#    z 0.000000 0.000000 1.528840 
# 
# From -- ./inp_files/3811.got.cif
#   From: 2010.05.17/outbox.cif.g08.bks.cpg/sg163_2_cif.got.tgz:3811.got - 2010.05.20 10:56:03.
