data_PCOD9578885
_publ_section_title
;
Structure prediction by ZEFSAII (Michael W. Deem and Ramdas Pophale) SiO2 
 PCOD9578885
Probable space group: P -3 C 1
;
_chemical_formula_sum "Si O2"
_cell_formula_units_Z 66
_cell_length_a 9.579156
_cell_length_b 9.579156
_cell_length_c 32.179739
_cell_angle_alpha 90.000000
_cell_angle_beta 90.000000
_cell_angle_gamma 120.000000
_cell_volume 2557.217342
_symmetry_space_group_name_H-M "P -3 C 1"
_symmetry_group_IT_number 165
_symmetry_cell_setting 'hexagonal'
loop_
_space_group_symop_operation_xyz
x,y,z
-y,x-y,z
-x+y,-x,z
x-y,-y,1/2-z
-x,-x+y,1/2-z
y,x,1/2-z
-x,-y,-z
y,-x+y,-z
x-y,x,-z
-x+y,y,1/2+z
x,x-y,1/2+z
-y,-x,1/2+z
loop_
_atom_site_type_symbol
_atom_site_label
_atom_site_fract_x
_atom_site_fract_y
_atom_site_fract_z
Si Si1 0.500000 0.500000 0.750000
Si Si2 0.885298 0.262509 0.088620
Si Si3 0.266371 0.893678 0.677991
Si Si4 0.733629 0.106322 0.677991
Si Si5 0.377211 0.262509 0.411380
Si Si6 0.378362 0.262067 0.500000
O O1 0.528799 0.641041 0.718148
O O2 0.471201 0.358959 0.718148
O O3 0.863665 0.324628 0.133204
O O4 0.070183 0.302766 0.088619
O O5 0.767417 0.070183 0.088619
O O6 0.858663 0.324780 0.044364
O O7 0.226185 0.923055 0.820478
O O8 0.324628 0.863665 0.633204
O O9 0.076945 0.773815 0.679522
O O10 0.466117 0.324780 0.455636
O O11 0.234144 0.303426 0.500000
#
# Coordination Sequence:
#
# PCOD9578885 Si02
#       6
#     6  12  12  12  12  12
#     4  12  24  36  50  78 108 140 176 232 288 326
#     4   8  13  22  42  71 107 137 171 208 260 316
#     4  10  21  40  62  86 109 144 185 232 276 329
#     4  10  21  40  62  86 109 144 185 232 276 329
#     4   8  13  22  42  71 107 137 171 208 260 316
#     4   8  11  16  32  67 106 140 162 200 253 315
#
# _framework density 25.809305999999999
#
# number of rings (size 3 to 8) (size 9 to 14) (size 15 to 20)
#    0.000    2.909    0.000    2.000    0.000    5.818 
#    8.727    1.818    0.000    1.091    0.000    0.000 
#    0.000    0.000    0.000    0.000    0.000    0.364 
#
# Total GULP energy -368797.493371 kJ/mol
# GULP energy per Si atom -5587.840809 kJ/mol
# Density = 2.575056 g / cm^3
# Si number density = 25.809306 Si / 1000 Ang^3
#
#
#
# Elastic Constant Matrix: (Units=GPa)
#
#
# Indices 1 2 3 4 5 6 
#
# 1 98.6944 28.3072 47.8866 0.0000 0.0000 0.0000
# 2 28.3072 98.6944 47.8866 0.0000 0.0000 0.0000
# 3 47.8866 47.8866 363.9999 0.0000 0.0000 0.0000
# 4 0.0000 0.0000 0.0000 -49.3716 0.0000 0.0000
# 5 0.0000 0.0000 0.0000 0.0000 -49.3716 0.0000
# 6 0.0000 0.0000 0.0000 0.0000 0.0000 35.1936
#
#
#
# Elastic Compliance Matrix: (Units=1/GPa)
#
#
# Indices 1 2 3 4 5 6 
#
# 1 0.011474 -0.002733 -0.001150 0.000000 0.000000 0.000000
# 2 -0.002733 0.011474 -0.001150 0.000000 0.000000 0.000000
# 3 -0.001150 -0.001150 0.003050 0.000000 0.000000 0.000000
# 4 0.000000 0.000000 0.000000 -0.020255 0.000000 0.000000
# 5 0.000000 0.000000 0.000000 0.000000 -0.020255 0.000000
# 6 0.000000 0.000000 0.000000 0.000000 0.000000 0.028414
#
#
# Mechanical properties :
#
#
# Convention : Reuss Voigt Hill
#
# Bulk Modulus (GPa) = 62.76584 89.94993 76.35789
# Shear Modulus (GPa) = 170.76652 16.44397 93.60524
#
# Velocity S-wave (km/s) = 8.14299 2.52689 6.02883
# Velocity P-wave (km/s) = 10.61993 6.59098 8.83810
#
# Compressibility (1/GPa) = 0.01593223
#
# Stress axis : x y z
#
# Youngs Moduli (GPa) = 87.15269 87.15269 327.88813
#
# Poissons Ratio (x) = 0.23819 0.37706
# Poissons Ratio (y) = 0.23819 0.37706
# Poissons Ratio (z) = 0.10022 0.10022
#
# Static dielectric constant tensor:
#      x y z
#    x 2.004990 0.000000 0.000000 
#    y 0.000000 2.004990 0.000000 
#    z 0.000000 0.000000 2.125070 
# 
# From -- ./inp_files/3303.got.cif
#   From: 2010.05.17/outbox.cif.g08.bks.cpg/sg165_2_cif.got.tgz:3303.got - 2010.05.20 11:02:39.
