data_PCOD9578826
_publ_section_title
;
Structure prediction by ZEFSAII (Michael W. Deem and Ramdas Pophale) SiO2 
 PCOD9578826
Probable space group: P -3 C 1
;
_chemical_formula_sum "Si O2"
_cell_formula_units_Z 90
_cell_length_a 25.085970
_cell_length_b 25.085970
_cell_length_c 10.091086
_cell_angle_alpha 90.000000
_cell_angle_beta 90.000000
_cell_angle_gamma 120.000000
_cell_volume 5499.590287
_symmetry_space_group_name_H-M "P -3 C 1"
_symmetry_group_IT_number 165
_symmetry_cell_setting 'hexagonal'
loop_
_space_group_symop_operation_xyz
x,y,z
-y,x-y,z
-x+y,-x,z
x-y,-y,1/2-z
-x,-x+y,1/2-z
y,x,1/2-z
-x,-y,-z
y,-x+y,-z
x-y,x,-z
-x+y,y,1/2+z
x,x-y,1/2+z
-y,-x,1/2+z
loop_
_atom_site_type_symbol
_atom_site_label
_atom_site_fract_x
_atom_site_fract_y
_atom_site_fract_z
Si Si1 0.424945 0.499595 0.245745
Si Si2 0.221989 0.000000 0.250000
Si Si3 0.933292 0.340553 0.539605
Si Si4 0.622032 0.547057 0.254597
Si Si5 0.759253 0.724814 0.537105
Si Si6 0.323331 0.105815 0.902024
Si Si7 0.139052 0.869656 0.341221
Si Si8 0.082653 0.657437 0.028990
O O1 0.464825 0.464825 0.250000
O O2 0.372654 0.462905 0.356137
O O3 0.429365 0.524614 0.759948
O O4 0.390559 0.486275 0.105440
O O5 0.244993 0.978455 0.121200
O O6 0.160299 0.939344 0.298031
O O7 0.908904 0.343987 0.394772
O O8 0.926193 0.274319 0.569576
O O9 0.008199 0.382456 0.538072
O O10 0.584894 0.584894 0.250000
O O11 0.664217 0.566234 0.125423
O O12 0.723757 0.755921 0.605236
O O13 0.828753 0.755657 0.588744
O O14 0.306220 0.138675 0.788486
O O15 0.390122 0.112726 0.898740
O O16 0.311835 0.125094 0.046353
#
# Coordination Sequence:
#
# PCOD9578826 Si02
#       8
#    12   6  12  12  12  12  12  12
#     4   9  15  25  35  56  85 117 159 199 225 246
#     4  10  22  34  50  74  96 120 152 202 256 302
#     4   9  17  25  42  60  83 122 158 196 234 264
#     4   9  16  23  38  57  85 121 157 197 224 244
#     4  10  20  33  52  69  97 122 160 200 247 299
#     4  10  21  32  51  70  96 123 157 201 251 295
#     4  11  20  36  50  72  95 124 151 202 247 310
#     4   9  17  27  39  59  87 117 155 197 231 261
#
# _framework density 16.364856
#
# number of rings (size 3 to 8) (size 9 to 14) (size 15 to 20)
#    0.000    2.400    1.333    2.000    6.533    5.333 
#    0.000    0.000    0.000    0.000    0.000    0.000 
#    5.333    9.600    0.000    0.000    0.000    0.000 
#
# Total GULP energy -501226.633134 kJ/mol
# GULP energy per Si atom -5569.184813 kJ/mol
# Density = 1.632761 g / cm^3
# Si number density = 16.364856 Si / 1000 Ang^3
#
#
#
# Elastic Constant Matrix: (Units=GPa)
#
#
# Indices 1 2 3 4 5 6 
#
# 1 49.5437 21.4537 16.3146 -1.2425 0.0000 0.0000
# 2 21.4537 49.5437 16.3146 1.2425 0.0000 0.0000
# 3 16.3146 16.3146 87.9383 0.0000 0.0000 0.0000
# 4 -1.2425 1.2425 0.0000 19.5948 0.0000 0.0000
# 5 0.0000 0.0000 0.0000 0.0000 19.5948 -1.2425
# 6 0.0000 0.0000 0.0000 0.0000 -1.2425 14.0450
#
#
#
# Elastic Compliance Matrix: (Units=1/GPa)
#
#
# Indices 1 2 3 4 5 6 
#
# 1 0.025599 -0.010201 -0.002857 0.002270 0.000000 0.000000
# 2 -0.010201 0.025599 -0.002857 -0.002270 0.000000 0.000000
# 3 -0.002857 -0.002857 0.012432 0.000000 0.000000 0.000000
# 4 0.002270 -0.002270 0.000000 0.051322 0.000000 0.000000
# 5 0.000000 0.000000 0.000000 0.000000 0.051322 0.004540
# 6 0.000000 0.000000 0.000000 0.000000 0.004540 0.071601
#
#
# Mechanical properties :
#
#
# Convention : Reuss Voigt Hill
#
# Bulk Modulus (GPa) = 31.44586 32.79907 32.12247
# Shear Modulus (GPa) = 17.83774 19.50979 18.67376
#
# Velocity S-wave (km/s) = 3.30510 3.45654 3.38167
# Velocity P-wave (km/s) = 5.81568 6.00134 5.90924
#
# Compressibility (1/GPa) = 0.03180068
#
# Stress axis : x y z
#
# Youngs Moduli (GPa) = 39.06362 39.06362 80.44039
#
# Poissons Ratio (x) = 0.39850 0.22979
# Poissons Ratio (y) = 0.39850 0.22979
# Poissons Ratio (z) = 0.11159 0.11159
#
# Static dielectric constant tensor:
#      x y z
#    x 1.551920 0.000000 0.000000 
#    y 0.000000 1.551920 0.000000 
#    z 0.000000 0.000000 1.604850 
# 
# From -- ./inp_files/832.got.cif
#   From: 2010.05.17/outbox.cif.g08.bks.cpg/sg165_1_cif.got.tgz:832.got - 2010.05.20 11:02:39.
