data_PCOD9578529
_publ_section_title
;
Structure prediction by ZEFSAII (Michael W. Deem and Ramdas Pophale) SiO2 
 PCOD9578529
Probable space group: P -3 M 1
;
_chemical_formula_sum "Si O2"
_cell_formula_units_Z 66
_cell_length_a 12.769018
_cell_length_b 12.769018
_cell_length_c 29.545897
_cell_angle_alpha 90.000000
_cell_angle_beta 90.000000
_cell_angle_gamma 120.000000
_cell_volume 4171.985685
_symmetry_space_group_name_H-M "P -3 M 1"
_symmetry_group_IT_number 164
_symmetry_cell_setting 'hexagonal'
loop_
_space_group_symop_operation_xyz
x,y,z
-y,x-y,z
-x+y,-x,z
x-y,-y,-z
-x,-x+y,-z
y,x,-z
-x,-y,-z
y,-x+y,-z
x-y,x,-z
-x+y,y,z
x,x-y,z
-y,-x,z
loop_
_atom_site_type_symbol
_atom_site_label
_atom_site_fract_x
_atom_site_fract_y
_atom_site_fract_z
Si Si1 0.915554 0.581987 0.956335
Si Si2 0.918159 0.584270 0.783960
Si Si3 0.750281 0.000000 0.500000
Si Si4 0.333659 0.417529 0.315430
Si Si5 0.999980 0.248762 0.869318
Si Si6 0.081870 0.415842 0.414515
O O1 0.785517 0.571034 0.963168
O O2 0.901300 0.450650 0.949278
O O3 0.975583 0.665498 0.912550
O O4 0.000000 0.640987 0.000000
O O5 0.781397 0.562793 0.785210
O O6 0.914608 0.457304 0.790250
O O7 0.971767 0.634538 0.733742
O O8 0.989284 0.676584 0.823985
O O9 0.761858 0.880929 0.502207
O O10 0.673370 0.989200 0.455350
O O11 0.211475 0.422949 0.315449
O O12 0.447330 0.552671 0.315494
O O13 0.337161 0.364466 0.364441
O O14 0.889539 0.110462 0.867949
O O15 0.126827 0.253654 0.872568
O O16 0.217639 0.435277 0.415411
O O17 0.086844 0.543422 0.420076
#
# Coordination Sequence:
#
# PCOD9578529 Si02
#       6
#    12  12   6  12  12  12
#     4  10  20  34  53  76 101 127 155 189 229 273
#     4   9  16  27  46  71  96 119 144 179 225 276
#     4  10  20  32  44  58  82 118 156 188 216 254
#     4   8  13  22  39  65  93 116 138 170 219 275
#     4  10  20  33  48  66  91 124 161 198 233 268
#     4   9  16  27  45  68  91 112 138 178 228 276
#
# _framework density 15.819806
#
# number of rings (size 3 to 8) (size 9 to 14) (size 15 to 20)
#    0.000    2.727    0.000    2.364    0.000    2.909 
#    0.000    2.727    0.000    7.273    0.000    2.545 
#    0.000    0.000    0.000    0.000    0.000    0.000 
#
# Total GULP energy -367419.305605 kJ/mol
# GULP energy per Si atom -5566.959176 kJ/mol
# Density = 1.578380 g / cm^3
# Si number density = 15.819806 Si / 1000 Ang^3
#
#
#
# Elastic Constant Matrix: (Units=GPa)
#
#
# Indices 1 2 3 4 5 6 
#
# 1 76.1580 43.6469 72.4462 -2.8835 0.0000 0.0000
# 2 43.6469 76.1580 72.4462 2.8835 0.0000 0.0000
# 3 72.4462 72.4462 171.4601 0.0000 0.0000 0.0000
# 4 -2.8835 2.8835 0.0000 20.8709 0.0000 0.0000
# 5 0.0000 0.0000 0.0000 0.0000 20.8709 -2.8835
# 6 0.0000 0.0000 0.0000 0.0000 -2.8835 16.2556
#
#
#
# Elastic Compliance Matrix: (Units=1/GPa)
#
#
# Indices 1 2 3 4 5 6 
#
# 1 0.024300 -0.007231 -0.007212 0.004356 0.000000 0.000000
# 2 -0.007231 0.024300 -0.007212 -0.004356 0.000000 0.000000
# 3 -0.007212 -0.007212 0.011927 0.000000 0.000000 0.000000
# 4 0.004356 -0.004356 0.000000 0.049117 0.000000 0.000000
# 5 0.000000 0.000000 0.000000 0.000000 0.049117 0.008713
# 6 0.000000 0.000000 0.000000 0.000000 0.008713 0.063063
#
#
# Mechanical properties :
#
#
# Convention : Reuss Voigt Hill
#
# Bulk Modulus (GPa) = 58.08280 77.87272 67.97776
# Shear Modulus (GPa) = 18.45868 20.61527 19.53697
#
# Velocity S-wave (km/s) = 3.41956 3.61381 3.51803
# Velocity P-wave (km/s) = 7.23783 8.16973 7.71786
#
# Compressibility (1/GPa) = 0.01721680
#
# Stress axis : x y z
#
# Youngs Moduli (GPa) = 41.15154 41.15154 83.84359
#
# Poissons Ratio (x) = 0.29757 0.60470
# Poissons Ratio (y) = 0.29757 0.60470
# Poissons Ratio (z) = 0.29680 0.29680
#
# Static dielectric constant tensor:
#      x y z
#    x 1.491650 0.000000 0.000000 
#    y 0.000000 1.491650 0.000000 
#    z 0.000000 0.000000 1.572910 
# 
# From -- ./inp_files/5504.got.cif
#   From: 2010.05.17/outbox.cif.g08.bks.cpg/sg164_3_cif.got.tgz:5504.got - 2010.05.20 10:58:56.
