data_PCOD9578561
_publ_section_title
;
Structure prediction by ZEFSAII (Michael W. Deem and Ramdas Pophale) SiO2 
 PCOD9578561
Probable space group: P -3 M 1
;
_chemical_formula_sum "Si O2"
_cell_formula_units_Z 78
_cell_length_a 17.450651
_cell_length_b 17.450651
_cell_length_c 18.523689
_cell_angle_alpha 90.000000
_cell_angle_beta 90.000000
_cell_angle_gamma 120.000000
_cell_volume 4885.189091
_symmetry_space_group_name_H-M "P -3 M 1"
_symmetry_group_IT_number 164
_symmetry_cell_setting 'hexagonal'
loop_
_space_group_symop_operation_xyz
x,y,z
-y,x-y,z
-x+y,-x,z
x-y,-y,-z
-x,-x+y,-z
y,x,-z
-x,-y,-z
y,-x+y,-z
x-y,x,-z
-x+y,y,z
x,x-y,z
-y,-x,z
loop_
_atom_site_type_symbol
_atom_site_label
_atom_site_fract_x
_atom_site_fract_y
_atom_site_fract_z
Si Si1 0.485730 0.150839 0.459078
Si Si2 0.000031 0.817656 0.793488
Si Si3 0.490620 0.156018 0.298313
Si Si4 0.183477 0.182903 0.370790
Si Si5 0.849536 0.335374 0.139282
Si Si6 0.696409 0.000000 0.500000
Si Si7 0.243459 0.303787 0.930028
O O1 0.576382 0.152764 0.479159
O O2 0.499564 0.249782 0.459058
O O3 0.461940 0.112624 0.376616
O O4 0.400717 0.085820 0.505259
O O5 0.082365 0.917636 0.798526
O O6 0.003249 0.787346 0.711614
O O7 0.013039 0.763959 0.857600
O O8 0.908675 0.817350 0.801970
O O9 0.596256 0.192512 0.296563
O O10 0.470273 0.235137 0.299237
O O11 0.457997 0.110914 0.220842
O O12 0.169413 0.084707 0.379140
O O13 0.252156 0.245279 0.430563
O O14 0.090379 0.180758 0.379504
O O15 0.845557 0.422779 0.121469
O O16 0.750582 0.249419 0.141553
O O17 0.906318 0.312536 0.085535
O O18 0.147893 0.295785 0.939614
O O19 0.267782 0.267782 0.000000
#
# Coordination Sequence:
#
# PCOD9578561 Si02
#       7
#    12  12  12  12  12   6  12
#     4  10  20  34  51  70  96 130 167 204 245 294
#     4   9  18  32  51  71  94 125 163 202 239 284
#     4   8  14  25  44  67  90 116 150 191 234 280
#     4  10  20  34  51  71  96 130 168 205 246 293
#     4   9  17  29  47  71  97 126 158 194 236 284
#     4  12  23  32  47  74 104 130 158 204 253 290
#     4  10  20  32  48  70  97 127 158 194 239 285
#
# _framework density 15.966628999999999
#
# number of rings (size 3 to 8) (size 9 to 14) (size 15 to 20)
#    0.000    2.462    0.000    2.846    2.154    4.000 
#    0.000    0.769    0.000    2.462    0.000    0.000 
#    0.000    0.000    0.000    0.615    0.000    0.000 
#
# Total GULP energy -434489.911357 kJ/mol
# GULP energy per Si atom -5570.383479 kJ/mol
# Density = 1.593029 g / cm^3
# Si number density = 15.966629 Si / 1000 Ang^3
#
#
#
# Elastic Constant Matrix: (Units=GPa)
#
#
# Indices 1 2 3 4 5 6 
#
# 1 72.0441 32.5372 43.3378 -3.3290 0.0000 0.0000
# 2 32.5372 72.0441 43.3378 3.3290 0.0000 0.0000
# 3 43.3378 43.3378 72.3266 0.0000 0.0000 0.0000
# 4 -3.3290 3.3290 0.0000 22.0118 0.0000 0.0000
# 5 0.0000 0.0000 0.0000 0.0000 22.0118 -3.3290
# 6 0.0000 0.0000 0.0000 0.0000 -3.3290 19.7535
#
#
#
# Elastic Compliance Matrix: (Units=1/GPa)
#
#
# Indices 1 2 3 4 5 6 
#
# 1 0.022484 -0.003490 -0.011382 0.003928 0.000000 0.000000
# 2 -0.003490 0.022484 -0.011382 -0.003928 0.000000 0.000000
# 3 -0.011382 -0.011382 0.027466 0.000000 0.000000 0.000000
# 4 0.003928 -0.003928 0.000000 0.046618 0.000000 0.000000
# 5 0.000000 0.000000 0.000000 0.000000 0.046618 0.007856
# 6 0.000000 0.000000 0.000000 0.000000 0.007856 0.051948
#
#
# Mechanical properties :
#
#
# Convention : Reuss Voigt Hill
#
# Bulk Modulus (GPa) = 50.17807 50.53779 50.35793
# Shear Modulus (GPa) = 18.06566 19.23557 18.65062
#
# Velocity S-wave (km/s) = 3.36737 3.47470 3.42146
# Velocity P-wave (km/s) = 6.82744 6.91512 6.87142
#
# Compressibility (1/GPa) = 0.01992902
#
# Stress axis : x y z
#
# Youngs Moduli (GPa) = 44.47516 44.47516 36.40883
#
# Poissons Ratio (x) = 0.15520 0.41439
# Poissons Ratio (y) = 0.15520 0.41439
# Poissons Ratio (z) = 0.50620 0.50620
#
# Static dielectric constant tensor:
#      x y z
#    x 1.524280 0.000000 0.000000 
#    y 0.000000 1.524280 0.000000 
#    z 0.000000 0.000000 1.557560 
# 
# From -- ./inp_files/4144.got.cif
#   From: 2010.05.17/outbox.cif.g08.bks.cpg/sg164_3_cif.got.tgz:4144.got - 2010.05.20 10:58:56.
