data_PCOD9578617
_publ_section_title
;
Structure prediction by ZEFSAII (Michael W. Deem and Ramdas Pophale) SiO2 
 PCOD9578617
Probable space group: P -3 M 1
;
_chemical_formula_sum "Si O2"
_cell_formula_units_Z 66
_cell_length_a 12.822396
_cell_length_b 12.822396
_cell_length_c 28.652716
_cell_angle_alpha 90.000000
_cell_angle_beta 90.000000
_cell_angle_gamma 120.000000
_cell_volume 4079.761708
_symmetry_space_group_name_H-M "P -3 M 1"
_symmetry_group_IT_number 164
_symmetry_cell_setting 'hexagonal'
loop_
_space_group_symop_operation_xyz
x,y,z
-y,x-y,z
-x+y,-x,z
x-y,-y,-z
-x,-x+y,-z
y,x,-z
-x,-y,-z
y,-x+y,-z
x-y,x,-z
-x+y,y,z
x,x-y,z
-y,-x,z
loop_
_atom_site_type_symbol
_atom_site_label
_atom_site_fract_x
_atom_site_fract_y
_atom_site_fract_z
Si Si1 0.000000 0.248264 0.000000
Si Si2 0.580951 0.666810 0.633004
Si Si3 0.333290 0.420576 0.174198
Si Si4 0.085125 0.666064 0.455540
Si Si5 0.418867 0.332844 0.088574
Si Si6 0.913482 0.333319 0.718212
O O1 0.979698 0.309765 0.045356
O O2 0.118229 0.236458 0.005716
O O3 0.586558 0.793279 0.627704
O O4 0.442791 0.557210 0.632375
O O5 0.647166 0.640101 0.590855
O O6 0.639407 0.656657 0.681290
O O7 0.206597 0.413193 0.165374
O O8 0.441424 0.558577 0.170079
O O9 0.360301 0.346071 0.136289
O O10 0.334561 0.383866 0.227948
O O11 0.116218 0.558109 0.456236
O O12 0.205807 0.794194 0.456710
O O13 0.000000 0.644333 0.500000
O O14 0.439713 0.219857 0.091203
O O15 0.544236 0.455765 0.081698
O O16 0.884938 0.442469 0.713079
O O17 0.793088 0.206913 0.709228
#
# Coordination Sequence:
#
# PCOD9578617 Si02
#       6
#     6  12  12  12  12  12
#     4  10  20  34  52  72  94 122 158 200 242 284
#     4  10  20  33  50  72  99 131 165 202 243 287
#     4   9  17  30  49  73  98 124 156 195 240 286
#     4  10  20  34  54  78 102 128 159 198 242 287
#     4  10  20  33  49  70  97 128 160 194 235 284
#     4   9  17  30  50  74  98 124 156 198 244 287
#
# _framework density 16.177413999999999
#
# number of rings (size 3 to 8) (size 9 to 14) (size 15 to 20)
#    0.000    2.364    0.000    2.909    0.000    2.182 
#    0.000    3.636    0.000   15.273    0.000    0.000 
#    0.000    0.000    0.000    0.000    0.000    0.000 
#
# Total GULP energy -368165.144946 kJ/mol
# GULP energy per Si atom -5578.259772 kJ/mol
# Density = 1.614059 g / cm^3
# Si number density = 16.177414 Si / 1000 Ang^3
#
#
#
# Elastic Constant Matrix: (Units=GPa)
#
#
# Indices 1 2 3 4 5 6 
#
# 1 113.4420 76.9723 79.1661 -1.3512 0.0000 0.0000
# 2 76.9723 113.4420 79.1661 1.3512 0.0000 0.0000
# 3 79.1661 79.1661 119.2730 0.0000 0.0000 0.0000
# 4 -1.3512 1.3512 0.0000 22.1153 0.0000 0.0000
# 5 0.0000 0.0000 0.0000 0.0000 22.1153 -1.3512
# 6 0.0000 0.0000 0.0000 0.0000 -1.3512 18.2348
#
#
#
# Elastic Compliance Matrix: (Units=1/GPa)
#
#
# Indices 1 2 3 4 5 6 
#
# 1 0.019632 -0.007912 -0.007779 0.001683 0.000000 0.000000
# 2 -0.007912 0.019632 -0.007779 -0.001683 0.000000 0.000000
# 3 -0.007779 -0.007779 0.018711 0.000000 0.000000 0.000000
# 4 0.001683 -0.001683 0.000000 0.045423 0.000000 0.000000
# 5 0.000000 0.000000 0.000000 0.000000 0.045423 0.003366
# 6 0.000000 0.000000 0.000000 0.000000 0.003366 0.055089
#
#
# Mechanical properties :
#
#
# Convention : Reuss Voigt Hill
#
# Bulk Modulus (GPa) = 90.62436 90.75179 90.68808
# Shear Modulus (GPa) = 19.64400 19.88327 19.76364
#
# Velocity S-wave (km/s) = 3.48844 3.50962 3.49905
# Velocity P-wave (km/s) = 8.50684 8.52308 8.51496
#
# Compressibility (1/GPa) = 0.01103456
#
# Stress axis : x y z
#
# Youngs Moduli (GPa) = 50.93608 50.93608 53.44527
#
# Poissons Ratio (x) = 0.40302 0.41576
# Poissons Ratio (y) = 0.40302 0.41576
# Poissons Ratio (z) = 0.39624 0.39624
#
# Static dielectric constant tensor:
#      x y z
#    x 1.509420 0.000000 0.000000 
#    y 0.000000 1.509420 0.000000 
#    z 0.000000 0.000000 1.545690 
# 
# From -- ./inp_files/5501.got.cif
#   From: 2010.05.17/outbox.cif.g08.bks.cpg/sg164_3_cif.got.tgz:5501.got - 2010.05.20 10:58:56.
