data_PCOD9578468
_publ_section_title
;
Structure prediction by ZEFSAII (Michael W. Deem and Ramdas Pophale) SiO2 
 PCOD9578468
Probable space group: P -3 M 1
;
_chemical_formula_sum "Si O2"
_cell_formula_units_Z 84
_cell_length_a 17.994598
_cell_length_b 17.994598
_cell_length_c 19.548639
_cell_angle_alpha 90.000000
_cell_angle_beta 90.000000
_cell_angle_gamma 120.000000
_cell_volume 5481.904384
_symmetry_space_group_name_H-M "P -3 M 1"
_symmetry_group_IT_number 164
_symmetry_cell_setting 'hexagonal'
loop_
_space_group_symop_operation_xyz
x,y,z
-y,x-y,z
-x+y,-x,z
x-y,-y,-z
-x,-x+y,-z
y,x,-z
-x,-y,-z
y,-x+y,-z
x-y,x,-z
-x+y,y,z
x,x-y,z
-y,-x,z
loop_
_atom_site_type_symbol
_atom_site_label
_atom_site_fract_x
_atom_site_fract_y
_atom_site_fract_z
Si Si1 0.354269 0.261988 0.802610
Si Si2 0.371149 0.270456 0.202511
Si Si3 0.332296 0.843681 0.316355
Si Si4 0.091581 0.736717 0.034050
Si Si5 0.159666 0.668497 0.666429
Si Si6 0.413606 0.406779 0.577613
Si Si7 0.666688 0.507815 0.075496
O O1 0.325635 0.162818 0.789134
O O2 0.289285 0.294980 0.783341
O O3 0.365816 0.274995 0.884427
O O4 0.289747 0.289747 0.000000
O O5 0.340900 0.170450 0.198391
O O6 0.443075 0.311367 0.261085
O O7 0.420205 0.313925 0.132345
O O8 0.419441 0.838882 0.314142
O O9 0.249348 0.750653 0.329302
O O10 0.316337 0.877654 0.244053
O O11 0.343635 0.912170 0.375380
O O12 0.164822 0.835179 0.018765
O O13 0.124315 0.678445 0.996931
O O14 0.169233 0.584617 0.670853
O O15 0.248973 0.751027 0.645860
O O16 0.082060 0.647893 0.615535
O O17 0.381889 0.381889 0.500000
O O18 0.506604 0.493397 0.574272
O O19 0.742507 0.485014 0.082856
O O20 0.575181 0.424820 0.084283
#
# Coordination Sequence:
#
# PCOD9578468 Si02
#       7
#    12  12  12  12  12  12  12
#     4  10  20  34  51  73  98 127 164 207 250 293
#     4  10  19  32  51  73  96 125 161 197 240 295
#     4  10  20  34  52  72  98 132 172 211 248 291
#     4  10  20  34  50  71  95 125 164 204 250 298
#     4  10  19  31  48  72 100 130 162 199 243 289
#     4   9  18  32  49  70  97 128 161 199 242 287
#     4  10  20  32  46  67  96 129 163 199 240 284
#
# _framework density 15.323143
#
# number of rings (size 3 to 8) (size 9 to 14) (size 15 to 20)
#    0.000    2.143    2.857    0.857    0.000    2.000 
#    0.000    1.429    0.000    3.857    0.000    0.000 
#    0.000    0.000    0.000    0.000    0.000   13.000 
#
# Total GULP energy -467959.155052 kJ/mol
# GULP energy per Si atom -5570.942322 kJ/mol
# Density = 1.528827 g / cm^3
# Si number density = 15.323143 Si / 1000 Ang^3
#
#
#
# Elastic Constant Matrix: (Units=GPa)
#
#
# Indices 1 2 3 4 5 6 
#
# 1 99.8392 71.8862 36.7077 -1.8628 0.0000 0.0000
# 2 71.8862 99.8392 36.7077 1.8628 0.0000 0.0000
# 3 36.7077 36.7077 77.9182 0.0000 0.0000 0.0000
# 4 -1.8628 1.8628 0.0000 13.4826 0.0000 0.0000
# 5 0.0000 0.0000 0.0000 0.0000 13.4826 -1.8628
# 6 0.0000 0.0000 0.0000 0.0000 -1.8628 13.9765
#
#
#
# Elastic Compliance Matrix: (Units=1/GPa)
#
#
# Indices 1 2 3 4 5 6 
#
# 1 0.021869 -0.014577 -0.003435 0.005035 0.000000 0.000000
# 2 -0.014577 0.021869 -0.003435 -0.005035 0.000000 0.000000
# 3 -0.003435 -0.003435 0.016071 0.000000 0.000000 0.000000
# 4 0.005035 -0.005035 0.000000 0.075561 0.000000 0.000000
# 5 0.000000 0.000000 0.000000 0.000000 0.075561 0.010071
# 6 0.000000 0.000000 0.000000 0.000000 0.010071 0.072891
#
#
# Mechanical properties :
#
#
# Convention : Reuss Voigt Hill
#
# Bulk Modulus (GPa) = 59.12448 63.13332 61.12890
# Shear Modulus (GPa) = 15.04420 17.00799 16.02610
#
# Velocity S-wave (km/s) = 3.13676 3.33521 3.23751
# Velocity P-wave (km/s) = 7.19638 7.49148 7.34541
#
# Compressibility (1/GPa) = 0.01691347
#
# Stress axis : x y z
#
# Youngs Moduli (GPa) = 45.72746 45.72746 62.22509
#
# Poissons Ratio (x) = 0.66656 0.21376
# Poissons Ratio (y) = 0.66656 0.21376
# Poissons Ratio (z) = 0.15708 0.15708
#
# Static dielectric constant tensor:
#      x y z
#    x 1.500840 0.000000 0.000000 
#    y 0.000000 1.500840 0.000000 
#    z 0.000000 0.000000 1.538070 
# 
# From -- ./inp_files/3552.got.cif
#   From: 2010.05.17/outbox.cif.g08.bks.cpg/sg164_2_cif.got.tgz:3552.got - 2010.05.20 10:58:56.
