data_PCOD9578013
_publ_section_title
;
Structure prediction by ZEFSAII (Michael W. Deem and Ramdas Pophale) SiO2 
 PCOD9578013
Probable space group: P -3 1 C
;
_chemical_formula_sum "Si O2"
_cell_formula_units_Z 60
_cell_length_a 29.417916
_cell_length_b 29.417916
_cell_length_c 5.022015
_cell_angle_alpha 90.000000
_cell_angle_beta 90.000000
_cell_angle_gamma 120.000000
_cell_volume 3763.851188
_symmetry_space_group_name_H-M "P -3 1 C"
_symmetry_group_IT_number 163
_symmetry_cell_setting 'hexagonal'
loop_
_space_group_symop_operation_xyz
x,y,z
-y,x-y,z
-x+y,-x,z
-y,-x,1/2-z
-x+y,y,1/2-z
x,x-y,1/2-z
-x,-y,-z
y,-x+y,-z
x-y,x,-z
y,x,1/2+z
x-y,-y,1/2+z
-x,-x+y,1/2+z
loop_
_atom_site_type_symbol
_atom_site_label
_atom_site_fract_x
_atom_site_fract_y
_atom_site_fract_z
Si Si1 0.402593 0.254957 0.757537
Si Si2 0.139883 0.540161 0.007238
Si Si3 0.032025 0.585273 0.262671
Si Si4 0.471798 0.289687 0.252983
Si Si5 0.695515 0.032409 0.764757
O O1 0.392365 0.196183 0.750000
O O2 0.449597 0.289406 0.547077
O O3 0.352592 0.260957 0.701224
O O4 0.423391 0.274822 0.053726
O O5 0.125899 0.562950 0.750000
O O6 0.174827 0.517635 0.875121
O O7 0.164364 0.582182 0.250000
O O8 0.087049 0.493405 0.137667
O O9 0.035318 0.641699 0.264761
O O10 0.986396 0.548794 0.469669
O O11 0.484274 0.242137 0.250000
O O12 0.688347 0.989886 0.547932
#
# Coordination Sequence:
#
# PCOD9578013 Si02
#       5
#    12  12  12  12  12
#     4  10  19  33  54  74  93 122 161 198 226 265
#     4  12  24  35  52  72  96 119 152 184 218 279
#     4  10  21  33  48  65  98 133 154 176 209 266
#     4  10  21  37  55  72  93 114 147 192 239 274
#     4  10  19  30  49  70  99 131 155 186 231 276
#
# _framework density 15.941119
#
# number of rings (size 3 to 8) (size 9 to 14) (size 15 to 20)
#    0.000    1.600    2.000    3.600    5.600    2.400 
#    0.000    0.000    0.000    0.400    0.000    4.200 
#    0.000    0.000    0.000    0.000    0.000    0.000 
#
# Total GULP energy -334881.482603 kJ/mol
# GULP energy per Si atom -5581.358043 kJ/mol
# Density = 1.590484 g / cm^3
# Si number density = 15.941119 Si / 1000 Ang^3
#
#
#
# Elastic Constant Matrix: (Units=GPa)
#
#
# Indices 1 2 3 4 5 6 
#
# 1 49.5510 26.2108 17.0554 0.0002 -1.7139 0.0000
# 2 26.2108 49.5510 17.0554 -0.0002 1.7139 0.0000
# 3 17.0554 17.0554 80.8388 0.0000 0.0000 0.0000
# 4 0.0002 -0.0002 0.0000 17.5285 0.0000 1.7139
# 5 -1.7139 1.7139 0.0000 0.0000 17.5285 0.0002
# 6 0.0000 0.0000 0.0000 1.7139 0.0002 11.6701
#
#
#
# Elastic Compliance Matrix: (Units=1/GPa)
#
#
# Indices 1 2 3 4 5 6 
#
# 1 0.029027 -0.014442 -0.003077 0.000000 0.004250 0.000000
# 2 -0.014442 0.029027 -0.003077 0.000000 -0.004250 0.000000
# 3 -0.003077 -0.003077 0.013669 0.000000 0.000000 0.000000
# 4 0.000000 0.000000 0.000000 0.057881 0.000000 -0.008500
# 5 0.004250 -0.004250 0.000000 0.000000 0.057881 -0.000001
# 6 0.000000 0.000000 0.000000 -0.008500 -0.000001 0.086937
#
#
# Mechanical properties :
#
#
# Convention : Reuss Voigt Hill
#
# Bulk Modulus (GPa) = 32.75497 33.39824 33.07661
# Shear Modulus (GPa) = 15.34729 17.32004 16.33366
#
# Velocity S-wave (km/s) = 3.10618 3.29979 3.20445
# Velocity P-wave (km/s) = 5.78417 5.95941 5.87244
#
# Compressibility (1/GPa) = 0.03052972
#
# Stress axis : x y z
#
# Youngs Moduli (GPa) = 34.45103 34.45103 73.15975
#
# Poissons Ratio (x) = 0.49754 0.22512
# Poissons Ratio (y) = 0.49754 0.22512
# Poissons Ratio (z) = 0.10601 0.10601
#
# Static dielectric constant tensor:
#      x y z
#    x 1.542820 0.000000 0.000000 
#    y 0.000000 1.542820 0.000000 
#    z 0.000000 0.000000 1.557600 
# 
# From -- ./inp_files/365.got.cif
#   From: 2010.05.17/outbox.cif.g08.bks.cpg/sg163_1_cif.got.tgz:365.got - 2010.05.20 10:56:03.
