data_PCOD9578684
_publ_section_title
;
Structure prediction by ZEFSAII (Michael W. Deem and Ramdas Pophale) SiO2 
 PCOD9578684
Probable space group: P -3 M 1
;
_chemical_formula_sum "Si O2"
_cell_formula_units_Z 84
_cell_length_a 22.121847
_cell_length_b 22.121847
_cell_length_c 9.608697
_cell_angle_alpha 90.000000
_cell_angle_beta 90.000000
_cell_angle_gamma 120.000000
_cell_volume 4072.282509
_symmetry_space_group_name_H-M "P -3 M 1"
_symmetry_group_IT_number 164
_symmetry_cell_setting 'hexagonal'
loop_
_space_group_symop_operation_xyz
x,y,z
-y,x-y,z
-x+y,-x,z
x-y,-y,-z
-x,-x+y,-z
y,x,-z
-x,-y,-z
y,-x+y,-z
x-y,x,-z
-x+y,y,z
x,x-y,z
-y,-x,z
loop_
_atom_site_type_symbol
_atom_site_label
_atom_site_fract_x
_atom_site_fract_y
_atom_site_fract_z
Si Si1 0.374264 0.118850 0.498782
Si Si2 0.463073 0.667778 0.816077
Si Si3 0.333194 0.801625 0.149944
Si Si4 0.079072 0.297487 0.201612
Si Si5 0.226282 0.183782 0.358730
Si Si6 0.463291 0.396163 0.356155
Si Si7 0.042638 0.633991 0.136206
O O1 0.402321 0.201161 0.482932
O O2 0.337794 0.098337 0.649308
O O3 0.309362 0.078476 0.391643
O O4 0.429149 0.093054 0.472498
O O5 0.490003 0.745002 0.764873
O O6 0.383751 0.616250 0.771601
O O7 0.507109 0.635661 0.757302
O O8 0.463727 0.668620 0.982306
O O9 0.393138 0.786275 0.202844
O O10 0.256417 0.743584 0.202107
O O11 0.356789 0.881956 0.167278
O O12 0.147564 0.295127 0.153513
O O13 0.057479 0.344756 0.112662
O O14 0.013672 0.221635 0.236768
O O15 0.188386 0.188386 0.500000
O O16 0.211376 0.105688 0.333803
O O17 0.528942 0.471059 0.398016
O O18 0.403860 0.401154 0.271677
O O19 0.000000 0.589597 0.000000
#
# Coordination Sequence:
#
# PCOD9578684 Si02
#       7
#    12  12  12  12  12  12  12
#     4   9  18  35  58  81 110 145 185 230 284 344
#     4   9  17  29  47  71 100 135 176 226 280 336
#     4  10  20  35  54  75 102 141 191 240 289 340
#     4  10  21  39  61  84 116 151 186 229 279 342
#     4   9  16  30  56  86 114 144 180 224 275 336
#     4  11  21  33  52  78 113 147 187 238 288 343
#     4  12  23  37  54  79 114 153 194 235 286 340
#
# _framework density 20.627254000000001
#
# number of rings (size 3 to 8) (size 9 to 14) (size 15 to 20)
#    0.000    2.000    2.857    2.857    0.000    1.714 
#    0.000    3.571    0.000    2.857    0.000    0.000 
#    0.000    0.571    0.000    0.000    0.000    0.000 
#
# Total GULP energy -468723.288241 kJ/mol
# GULP energy per Si atom -5580.039146 kJ/mol
# Density = 2.058031 g / cm^3
# Si number density = 20.627254 Si / 1000 Ang^3
#
#
#
# Elastic Constant Matrix: (Units=GPa)
#
#
# Indices 1 2 3 4 5 6 
#
# 1 66.3250 119.8898 14.5773 -0.2916 0.0000 0.0000
# 2 119.8898 66.3250 14.5773 0.2916 0.0000 0.0000
# 3 14.5773 14.5773 12.9218 0.0000 0.0000 0.0000
# 4 -0.2916 0.2916 0.0000 17.3933 0.0000 0.0000
# 5 0.0000 0.0000 0.0000 0.0000 17.3933 -0.2916
# 6 0.0000 0.0000 0.0000 0.0000 -0.2916 -26.7824
#
#
#
# Elastic Compliance Matrix: (Units=1/GPa)
#
#
# Indices 1 2 3 4 5 6 
#
# 1 -0.006072 0.012594 -0.007358 -0.000313 0.000000 0.000000
# 2 0.012594 -0.006072 -0.007358 0.000313 0.000000 0.000000
# 3 -0.007358 -0.007358 0.093989 0.000000 0.000000 0.000000
# 4 -0.000313 0.000313 0.000000 0.057483 0.000000 0.000000
# 5 0.000000 0.000000 0.000000 0.000000 0.057483 -0.000626
# 6 0.000000 0.000000 0.000000 0.000000 -0.000626 -0.037331
#
#
# Mechanical properties :
#
#
# Convention : Reuss Voigt Hill
#
# Bulk Modulus (GPa) = 12.88618 49.29561 31.09089
# Shear Modulus (GPa) = 26.37255 1.36931 13.87093
#
# Velocity S-wave (km/s) = 3.57953 0.81564 2.59599
# Velocity P-wave (km/s) = 4.83164 4.98369 4.90826
#
# Compressibility (1/GPa) = 0.07760252
#
# Stress axis : x y z
#
# Youngs Moduli (GPa) = -164.69766 -164.69766 10.63955
#
# Poissons Ratio (x) = 2.07417 0.07828
# Poissons Ratio (y) = 2.07417 0.07828
# Poissons Ratio (z) = -1.21179 -1.21179
#
# Static dielectric constant tensor:
#      x y z
#    x 1.766160 0.000000 0.000000 
#    y 0.000000 1.766160 0.000000 
#    z 0.000000 0.000000 1.728630 
# 
# From -- ./inp_files/2905.got.cif
#   From: 2010.05.17/outbox.cif.g08.bks.cpg/sg164_2_cif.got.tgz:2905.got - 2010.05.20 10:58:56.
