data_PCOD9578446
_publ_section_title
;
Structure prediction by ZEFSAII (Michael W. Deem and Ramdas Pophale) SiO2 
 PCOD9578446
Probable space group: P -3 M 1
;
_chemical_formula_sum "Si O2"
_cell_formula_units_Z 78
_cell_length_a 17.526879
_cell_length_b 17.526879
_cell_length_c 18.663867
_cell_angle_alpha 90.000000
_cell_angle_beta 90.000000
_cell_angle_gamma 120.000000
_cell_volume 4965.253653
_symmetry_space_group_name_H-M "P -3 M 1"
_symmetry_group_IT_number 164
_symmetry_cell_setting 'hexagonal'
loop_
_space_group_symop_operation_xyz
x,y,z
-y,x-y,z
-x+y,-x,z
x-y,-y,-z
-x,-x+y,-z
y,x,-z
-x,-y,-z
y,-x+y,-z
x-y,x,-z
-x+y,y,z
x,x-y,z
-y,-x,z
loop_
_atom_site_type_symbol
_atom_site_label
_atom_site_fract_x
_atom_site_fract_y
_atom_site_fract_z
Si Si1 0.728273 0.095982 0.026590
Si Si2 0.820185 0.000000 0.500000
Si Si3 0.155675 0.667706 0.111839
Si Si4 0.390980 0.961513 0.835998
Si Si5 0.488735 0.155246 0.465153
Si Si6 0.430194 0.390895 0.325283
Si Si7 0.348919 0.262150 0.592590
O O1 0.830055 0.169946 0.028834
O O2 0.682031 0.083588 0.103161
O O3 0.682340 0.128185 0.967746
O O4 0.707254 0.000000 0.000000
O O5 0.828380 0.914190 0.515237
O O6 0.751041 0.974203 0.434816
O O7 0.176188 0.588094 0.111662
O O8 0.240765 0.759236 0.134162
O O9 0.067400 0.635701 0.158575
O O10 0.473357 0.946713 0.851607
O O11 0.359196 0.930743 0.755402
O O12 0.573410 0.146820 0.484154
O O13 0.511896 0.255948 0.464111
O O14 0.412115 0.105752 0.523585
O O15 0.455980 0.112104 0.387121
O O16 0.506462 0.493539 0.326733
O O17 0.336004 0.376201 0.348029
O O18 0.359797 0.179899 0.615052
#
# Coordination Sequence:
#
# PCOD9578446 Si02
#       7
#    12   6  12  12  12  12  12
#     4   9  17  30  48  69  91 117 151 191 230 272
#     4  10  19  32  49  70  92 112 140 182 235 284
#     4   9  16  27  45  67  92 120 151 185 220 262
#     4   9  18  30  44  65  94 126 154 184 223 267
#     4  10  19  31  47  66  89 118 153 193 233 273
#     4  10  19  31  46  65  93 125 155 189 230 271
#     4  10  19  31  49  69  89 116 153 194 231 276
#
# _framework density 15.709168
#
# number of rings (size 3 to 8) (size 9 to 14) (size 15 to 20)
#    0.000    2.462    1.538    1.308    0.000    4.308 
#    0.000    0.000    0.000    0.769    0.000    0.000 
#    0.000    1.231    0.000    0.000    0.000    0.000 
#
# Total GULP energy -434712.748109 kJ/mol
# GULP energy per Si atom -5573.240360 kJ/mol
# Density = 1.567341 g / cm^3
# Si number density = 15.709168 Si / 1000 Ang^3
#
#
#
# Elastic Constant Matrix: (Units=GPa)
#
#
# Indices 1 2 3 4 5 6 
#
# 1 61.7918 24.5044 14.6363 3.1240 0.0000 0.0000
# 2 24.5044 61.7918 14.6363 -3.1240 0.0000 0.0000
# 3 14.6363 14.6363 55.1157 0.0000 0.0000 0.0000
# 4 3.1240 -3.1240 0.0000 13.2115 0.0000 0.0000
# 5 0.0000 0.0000 0.0000 0.0000 13.2115 3.1240
# 6 0.0000 0.0000 0.0000 0.0000 3.1240 18.6437
#
#
#
# Elastic Compliance Matrix: (Units=1/GPa)
#
#
# Indices 1 2 3 4 5 6 
#
# 1 0.020330 -0.007595 -0.003382 -0.006603 0.000000 0.000000
# 2 -0.007595 0.020330 -0.003382 0.006603 0.000000 0.000000
# 3 -0.003382 -0.003382 0.019940 0.000000 0.000000 0.000000
# 4 -0.006603 0.006603 0.000000 0.078814 0.000000 0.000000
# 5 0.000000 0.000000 0.000000 0.000000 0.078814 -0.013206
# 6 0.000000 0.000000 0.000000 0.000000 -0.013206 0.055850
#
#
# Mechanical properties :
#
#
# Convention : Reuss Voigt Hill
#
# Bulk Modulus (GPa) = 31.36509 31.80591 31.58550
# Shear Modulus (GPa) = 15.95283 17.34151 16.64717
#
# Velocity S-wave (km/s) = 3.19017 3.32612 3.25885
# Velocity P-wave (km/s) = 5.79474 5.91958 5.85749
#
# Compressibility (1/GPa) = 0.03188258
#
# Stress axis : x y z
#
# Youngs Moduli (GPa) = 49.18797 49.18797 50.15085
#
# Poissons Ratio (x) = 0.37358 0.16961
# Poissons Ratio (y) = 0.37358 0.16961
# Poissons Ratio (z) = 0.16635 0.16635
#
# Static dielectric constant tensor:
#      x y z
#    x 1.518680 0.000000 0.000000 
#    y 0.000000 1.518680 0.000000 
#    z 0.000000 0.000000 1.512530 
# 
# From -- ./inp_files/3537.got.cif
#   From: 2010.05.17/outbox.cif.g08.bks.cpg/sg164_2_cif.got.tgz:3537.got - 2010.05.20 10:58:56.
