data_PCOD9578422
_publ_section_title
;
Structure prediction by ZEFSAII (Michael W. Deem and Ramdas Pophale) SiO2 
 PCOD9578422
Probable space group: P -3 M 1
;
_chemical_formula_sum "Si O2"
_cell_formula_units_Z 66
_cell_length_a 17.729953
_cell_length_b 17.729953
_cell_length_c 15.968001
_cell_angle_alpha 90.000000
_cell_angle_beta 90.000000
_cell_angle_gamma 120.000000
_cell_volume 4347.067176
_symmetry_space_group_name_H-M "P -3 M 1"
_symmetry_group_IT_number 164
_symmetry_cell_setting 'hexagonal'
loop_
_space_group_symop_operation_xyz
x,y,z
-y,x-y,z
-x+y,-x,z
x-y,-y,-z
-x,-x+y,-z
y,x,-z
-x,-y,-z
y,-x+y,-z
x-y,x,-z
-x+y,y,z
x,x-y,z
-y,-x,z
loop_
_atom_site_type_symbol
_atom_site_label
_atom_site_fract_x
_atom_site_fract_y
_atom_site_fract_z
Si Si1 0.488514 0.155182 0.394896
Si Si2 0.410680 0.998638 0.097389
Si Si3 0.270024 0.364365 0.765673
Si Si4 0.656143 0.000000 0.500000
Si Si5 0.666539 0.509580 0.776513
Si Si6 0.246838 0.928279 0.330456
O O1 0.585247 0.170493 0.389841
O O2 0.488398 0.244199 0.416272
O O3 0.438143 0.121597 0.306281
O O4 0.431602 0.078490 0.460541
O O5 0.510975 0.021949 0.103838
O O6 0.355141 0.904372 0.141848
O O7 0.393083 0.063230 0.152668
O O8 0.390607 0.000000 0.000000
O O9 0.176336 0.352671 0.781423
O O10 0.264851 0.277707 0.727282
O O11 0.685735 0.960197 0.424950
O O12 0.747075 0.494149 0.791288
O O13 0.579366 0.420635 0.754228
O O14 0.695236 0.582190 0.703986
O O15 0.147247 0.852754 0.323030
#
# Coordination Sequence:
#
# PCOD9578422 Si02
#       6
#    12  12  12   6  12  12
#     4  10  19  30  44  63  89 120 153 187 222 259
#     4   9  17  29  45  66  93 122 149 180 219 259
#     4   9  18  31  48  68  88 115 150 184 219 261
#     4  10  19  30  46  66  87 116 152 186 221 262
#     4   9  17  29  45  65  89 118 150 182 217 257
#     4   9  18  32  48  66  89 115 145 182 223 264
#
# _framework density 15.182651
#
# number of rings (size 3 to 8) (size 9 to 14) (size 15 to 20)
#    0.000    2.727    0.000    1.727    0.000    6.545 
#    0.000    0.000    0.000    2.909    0.000    0.636 
#    0.000    0.727    0.000    0.000    0.000    0.000 
#
# Total GULP energy -367795.060212 kJ/mol
# GULP energy per Si atom -5572.652427 kJ/mol
# Density = 1.514809 g / cm^3
# Si number density = 15.182651 Si / 1000 Ang^3
#
#
#
# Elastic Constant Matrix: (Units=GPa)
#
#
# Indices 1 2 3 4 5 6 
#
# 1 97.8360 60.3069 49.8706 -3.0417 0.0000 0.0000
# 2 60.3069 97.8360 49.8706 3.0417 0.0000 0.0000
# 3 49.8706 49.8706 111.5580 0.0000 0.0000 0.0000
# 4 -3.0417 3.0417 0.0000 12.7882 0.0000 0.0000
# 5 0.0000 0.0000 0.0000 0.0000 12.7882 -3.0417
# 6 0.0000 0.0000 0.0000 0.0000 -3.0417 18.7646
#
#
#
# Elastic Compliance Matrix: (Units=1/GPa)
#
#
# Indices 1 2 3 4 5 6 
#
# 1 0.018260 -0.009454 -0.003937 0.006592 0.000000 0.000000
# 2 -0.009454 0.018260 -0.003937 -0.006592 0.000000 0.000000
# 3 -0.003937 -0.003937 0.012484 0.000000 0.000000 0.000000
# 4 0.006592 -0.006592 0.000000 0.081333 0.000000 0.000000
# 5 0.000000 0.000000 0.000000 0.000000 0.081333 0.013184
# 6 0.000000 0.000000 0.000000 0.000000 0.013184 0.055429
#
#
# Mechanical properties :
#
#
# Convention : Reuss Voigt Hill
#
# Bulk Modulus (GPa) = 69.68970 69.70289 69.69629
# Shear Modulus (GPa) = 16.31120 18.68033 17.49576
#
# Velocity S-wave (km/s) = 3.28126 3.51147 3.39831
# Velocity P-wave (km/s) = 7.76891 7.90252 7.83600
#
# Compressibility (1/GPa) = 0.01434932
#
# Stress axis : x y z
#
# Youngs Moduli (GPa) = 54.76322 54.76322 80.10449
#
# Poissons Ratio (x) = 0.51774 0.31535
# Poissons Ratio (y) = 0.51774 0.31535
# Poissons Ratio (z) = 0.21559 0.21559
#
# Static dielectric constant tensor:
#      x y z
#    x 1.492760 0.000000 0.000000 
#    y 0.000000 1.492760 0.000000 
#    z 0.000000 0.000000 1.493330 
# 
# From -- ./inp_files/3458.got.cif
#   From: 2010.05.17/outbox.cif.g08.bks.cpg/sg164_2_cif.got.tgz:3458.got - 2010.05.20 10:58:56.
