data_PCOD9578514
_publ_section_title
;
Structure prediction by ZEFSAII (Michael W. Deem and Ramdas Pophale) SiO2 
 PCOD9578514
Probable space group: P -3 M 1
;
_chemical_formula_sum "Si O2"
_cell_formula_units_Z 84
_cell_length_a 18.714428
_cell_length_b 18.714428
_cell_length_c 14.731137
_cell_angle_alpha 90.000000
_cell_angle_beta 90.000000
_cell_angle_gamma 120.000000
_cell_volume 4468.070482
_symmetry_space_group_name_H-M "P -3 M 1"
_symmetry_group_IT_number 164
_symmetry_cell_setting 'hexagonal'
loop_
_space_group_symop_operation_xyz
x,y,z
-y,x-y,z
-x+y,-x,z
x-y,-y,-z
-x,-x+y,-z
y,x,-z
-x,-y,-z
y,-x+y,-z
x-y,x,-z
-x+y,y,z
x,x-y,z
-y,-x,z
loop_
_atom_site_type_symbol
_atom_site_label
_atom_site_fract_x
_atom_site_fract_y
_atom_site_fract_z
Si Si1 0.667930 0.748158 0.269133
Si Si2 0.665315 0.162938 0.043122
Si Si3 0.163267 0.500296 0.367603
Si Si4 0.501347 0.335162 0.246199
Si Si5 0.249243 0.921479 0.059341
Si Si6 0.795613 0.751372 0.412055
Si Si7 0.696247 0.136805 0.437108
O O1 0.668704 0.834352 0.273575
O O2 0.579034 0.681441 0.308521
O O3 0.678290 0.732857 0.164641
O O4 0.740856 0.757128 0.333048
O O5 0.580978 0.161955 0.019325
O O6 0.742660 0.257341 0.044332
O O7 0.655051 0.127870 0.146353
O O8 0.691229 0.111937 0.977326
O O9 0.253546 0.507091 0.366013
O O10 0.169687 0.584844 0.336409
O O11 0.129902 0.481773 0.471352
O O12 0.486049 0.243025 0.247339
O O13 0.598229 0.401772 0.249796
O O14 0.462496 0.346725 0.338647
O O15 0.156257 0.843744 0.050460
O O16 0.266688 0.000000 0.000000
O O17 0.806099 0.806099 0.500000
O O18 0.882721 0.765442 0.378172
O O19 0.744310 0.657411 0.448505
O O20 0.766792 0.233209 0.432845
#
# Coordination Sequence:
#
# PCOD9578514 Si02
#       7
#    12  12  12  12  12  12  12
#     4  10  22  41  60  84 119 152 183 231 293 344
#     4   9  18  33  54  81 115 157 202 248 293 336
#     4  10  19  34  55  81 116 160 208 247 281 325
#     4   9  16  27  45  72 108 149 195 244 290 329
#     4  10  23  41  63  87 114 146 187 239 291 347
#     4  11  21  37  63  89 112 148 188 223 275 345
#     4   9  18  30  48  77 113 150 190 234 281 332
#
# _framework density 18.800062
#
# number of rings (size 3 to 8) (size 9 to 14) (size 15 to 20)
#    0.000    2.286    1.429    1.286    2.000    2.571 
#    0.000    3.571    0.000    4.429    0.000    0.000 
#    0.000    0.000    0.000    0.429    0.000    0.000 
#
# Total GULP energy -468411.383619 kJ/mol
# GULP energy per Si atom -5576.325995 kJ/mol
# Density = 1.875727 g / cm^3
# Si number density = 18.800062 Si / 1000 Ang^3
#
#
#
# Elastic Constant Matrix: (Units=GPa)
#
#
# Indices 1 2 3 4 5 6 
#
# 1 54.3539 16.4217 48.8344 -3.7517 0.0000 0.0000
# 2 16.4217 54.3539 48.8344 3.7517 0.0000 0.0000
# 3 48.8344 48.8344 136.2460 0.0000 0.0000 0.0000
# 4 -3.7517 3.7517 0.0000 19.9254 0.0000 0.0000
# 5 0.0000 0.0000 0.0000 0.0000 19.9254 -3.7517
# 6 0.0000 0.0000 0.0000 0.0000 -3.7517 18.9661
#
#
#
# Elastic Compliance Matrix: (Units=1/GPa)
#
#
# Indices 1 2 3 4 5 6 
#
# 1 0.027670 0.000287 -0.010021 0.005156 0.000000 0.000000
# 2 0.000287 0.027670 -0.010021 -0.005156 0.000000 0.000000
# 3 -0.010021 -0.010021 0.014523 0.000000 0.000000 0.000000
# 4 0.005156 -0.005156 0.000000 0.052129 0.000000 0.000000
# 5 0.000000 0.000000 0.000000 0.000000 0.052129 0.010312
# 6 0.000000 0.000000 0.000000 0.000000 0.010312 0.054765
#
#
# Mechanical properties :
#
#
# Convention : Reuss Voigt Hill
#
# Bulk Modulus (GPa) = 32.94327 52.57056 42.75692
# Shear Modulus (GPa) = 17.95245 20.48758 19.22001
#
# Velocity S-wave (km/s) = 3.09352 3.30473 3.20087
# Velocity P-wave (km/s) = 5.50644 6.52575 6.03764
#
# Compressibility (1/GPa) = 0.03035521
#
# Stress axis : x y z
#
# Youngs Moduli (GPa) = 36.13996 36.13996 68.85553
#
# Poissons Ratio (x) = -0.01039 0.68999
# Poissons Ratio (y) = -0.01039 0.68999
# Poissons Ratio (z) = 0.36215 0.36215
#
# Static dielectric constant tensor:
#      x y z
#    x 1.653590 0.000000 0.000000 
#    y 0.000000 1.653590 0.000000 
#    z 0.000000 0.000000 1.685140 
# 
# From -- ./inp_files/3594.got.cif
#   From: 2010.05.17/outbox.cif.g08.bks.cpg/sg164_2_cif.got.tgz:3594.got - 2010.05.20 10:58:56.
