data_PCOD9578782
_publ_section_title
;
Structure prediction by ZEFSAII (Michael W. Deem and Ramdas Pophale) SiO2 
 PCOD9578782
Probable space group: P -3 C 1
;
_chemical_formula_sum "Si O2"
_cell_formula_units_Z 72
_cell_length_a 22.182155
_cell_length_b 22.182155
_cell_length_c 9.278738
_cell_angle_alpha 90.000000
_cell_angle_beta 90.000000
_cell_angle_gamma 120.000000
_cell_volume 3953.912142
_symmetry_space_group_name_H-M "P -3 C 1"
_symmetry_group_IT_number 165
_symmetry_cell_setting 'hexagonal'
loop_
_space_group_symop_operation_xyz
x,y,z
-y,x-y,z
-x+y,-x,z
x-y,-y,1/2-z
-x,-x+y,1/2-z
y,x,1/2-z
-x,-y,-z
y,-x+y,-z
x-y,x,-z
-x+y,y,1/2+z
x,x-y,1/2+z
-y,-x,1/2+z
loop_
_atom_site_type_symbol
_atom_site_label
_atom_site_fract_x
_atom_site_fract_y
_atom_site_fract_z
Si Si1 0.238964 0.992241 0.417329
Si Si2 0.940950 0.418200 0.133808
Si Si3 0.133283 0.736255 0.856045
Si Si4 0.043039 0.603451 0.379556
Si Si5 0.135966 0.020392 0.920931
Si Si6 0.623287 0.870884 0.519578
O O1 0.269098 0.939804 0.402946
O O2 0.220621 0.000000 0.250000
O O3 0.174709 0.962690 0.526786
O O4 0.296751 0.066327 0.480566
O O5 0.877165 0.340396 0.128215
O O6 0.923215 0.479116 0.163655
O O7 0.000000 0.428882 0.250000
O O8 0.982104 0.429630 0.986534
O O9 0.144151 0.751969 0.687456
O O10 0.193266 0.800881 0.940346
O O11 0.096624 0.675696 0.451205
O O12 0.000000 0.611625 0.250000
O O13 0.121225 0.000000 0.750000
O O14 0.084090 0.957318 0.026214
#
# Coordination Sequence:
#
# PCOD9578782 Si02
#       6
#    12  12  12  12  12  12
#     4  10  21  40  58  79 112 150 187 232 288 340
#     4  10  18  39  61  84 117 157 191 250 298 340
#     4  11  22  37  57  84 123 156 188 239 290 344
#     4  10  21  34  62  90 114 149 204 244 292 353
#     4  12  25  41  59  78 102 136 183 234 283 339
#     4  11  23  37  56  87 122 155 192 237 291 347
#
# _framework density 18.209811999999999
#
# number of rings (size 3 to 8) (size 9 to 14) (size 15 to 20)
#    0.000    1.333    3.333    3.167    2.333    4.667 
#    0.000    0.000    0.000    0.667    0.000    0.000 
#    0.000    0.000    0.000    0.000    0.000    0.000 
#
# Total GULP energy -401598.116440 kJ/mol
# GULP energy per Si atom -5577.751617 kJ/mol
# Density = 1.816837 g / cm^3
# Si number density = 18.209812 Si / 1000 Ang^3
#
#
#
# Elastic Constant Matrix: (Units=GPa)
#
#
# Indices 1 2 3 4 5 6 
#
# 1 68.5540 39.3155 21.1728 -8.3000 0.0000 0.0000
# 2 39.3155 68.5540 21.1728 8.3000 0.0000 0.0000
# 3 21.1728 21.1728 77.1504 0.0000 0.0000 0.0000
# 4 -8.3000 8.3000 0.0000 25.4344 0.0000 0.0000
# 5 0.0000 0.0000 0.0000 0.0000 25.4344 -8.3000
# 6 0.0000 0.0000 0.0000 0.0000 -8.3000 14.6193
#
#
#
# Elastic Compliance Matrix: (Units=1/GPa)
#
#
# Indices 1 2 3 4 5 6 
#
# 1 0.026184 -0.015795 -0.002851 0.013699 0.000000 0.000000
# 2 -0.015795 0.026184 -0.002851 -0.013699 0.000000 0.000000
# 3 -0.002851 -0.002851 0.014527 0.000000 0.000000 0.000000
# 4 0.013699 -0.013699 0.000000 0.048258 0.000000 0.000000
# 5 0.000000 0.000000 0.000000 0.000000 0.048258 0.027398
# 6 0.000000 0.000000 0.000000 0.000000 0.027398 0.083958
#
#
# Mechanical properties :
#
#
# Convention : Reuss Voigt Hill
#
# Bulk Modulus (GPa) = 41.83929 41.95340 41.89635
# Shear Modulus (GPa) = 16.75998 21.93744 19.34871
#
# Velocity S-wave (km/s) = 3.03707 3.47465 3.26320
# Velocity P-wave (km/s) = 5.94344 6.25991 6.10373
#
# Compressibility (1/GPa) = 0.02390098
#
# Stress axis : x y z
#
# Youngs Moduli (GPa) = 38.19077 38.19077 68.83870
#
# Poissons Ratio (x) = 0.60321 0.19628
# Poissons Ratio (y) = 0.60321 0.19628
# Poissons Ratio (z) = 0.10889 0.10889
#
# Static dielectric constant tensor:
#      x y z
#    x 1.734180 0.000000 0.000000 
#    y 0.000000 1.734180 0.000000 
#    z 0.000000 0.000000 1.722940 
# 
# From -- ./inp_files/781.got.cif
#   From: 2010.05.17/outbox.cif.g08.bks.cpg/sg165_1_cif.got.tgz:781.got - 2010.05.20 11:02:39.
