data_PCOD9578934
_publ_section_title
;
Structure prediction by ZEFSAII (Michael W. Deem and Ramdas Pophale) SiO2 
 PCOD9578934
Probable space group: P -3 C 1
;
_chemical_formula_sum "Si O2"
_cell_formula_units_Z 70
_cell_length_a 15.003206
_cell_length_b 15.003206
_cell_length_c 18.343214
_cell_angle_alpha 90.000000
_cell_angle_beta 90.000000
_cell_angle_gamma 120.000000
_cell_volume 3575.808144
_symmetry_space_group_name_H-M "P -3 C 1"
_symmetry_group_IT_number 165
_symmetry_cell_setting 'hexagonal'
loop_
_space_group_symop_operation_xyz
x,y,z
-y,x-y,z
-x+y,-x,z
x-y,-y,1/2-z
-x,-x+y,1/2-z
y,x,1/2-z
-x,-y,-z
y,-x+y,-z
x-y,x,-z
-x+y,y,1/2+z
x,x-y,1/2+z
-y,-x,1/2+z
loop_
_atom_site_type_symbol
_atom_site_label
_atom_site_fract_x
_atom_site_fract_y
_atom_site_fract_z
Si Si1 0.202967 0.892616 0.737783
Si Si2 0.102945 0.470491 0.386345
Si Si3 0.300314 0.443848 0.375737
Si Si4 0.301903 0.007645 0.492503
Si Si5 0.126241 0.234049 0.097804
Si Si6 0.000000 0.000000 0.661187
Si Si7 0.000000 0.671885 0.750000
O O1 0.281734 0.893562 0.796740
O O2 0.215482 0.898444 0.651185
O O3 0.096925 0.787570 0.747367
O O4 0.205208 0.000000 0.750000
O O5 0.212379 0.475250 0.378027
O O6 0.122200 0.584920 0.383362
O O7 0.028467 0.404309 0.319198
O O8 0.055889 0.409862 0.462227
O O9 0.281583 0.368491 0.444070
O O10 0.282488 0.055959 0.420593
O O11 0.186993 0.944315 0.524610
O O12 0.060706 0.118120 0.129309
O O13 0.000000 0.000000 0.750000
#
# Coordination Sequence:
#
# PCOD9578934 Si02
#       7
#    12  12  12  12  12   4   6
#     4  11  23  40  63  93 134 173 227 271 326 410
#     4  11  24  44  68  96 132 168 227 282 338 408
#     4  11  25  43  68  97 123 179 220 284 346 394
#     4  12  23  42  68  96 136 175 220 276 339 403
#     4  12  25  41  62 101 142 181 227 269 328 409
#     4  12  30  37  65 103 150 196 227 262 321 412
#     4  10  24  40  64  96 126 182 224 272 336 396
#
# _framework density 19.575994000000001
#
# number of rings (size 3 to 8) (size 9 to 14) (size 15 to 20)
#    0.000    0.686    5.143    2.400    4.800    0.686 
#    0.514    0.000    0.000    0.000    0.000    0.000 
#    0.000    0.000    0.000    0.000    0.000    0.000 
#
# Total GULP energy -389974.450769 kJ/mol
# GULP energy per Si atom -5571.063582 kJ/mol
# Density = 1.953144 g / cm^3
# Si number density = 19.575994 Si / 1000 Ang^3
#
#
#
# Elastic Constant Matrix: (Units=GPa)
#
#
# Indices 1 2 3 4 5 6 
#
# 1 108.3091 53.7275 44.3658 8.5466 0.0000 0.0000
# 2 53.7275 108.3091 44.3658 -8.5466 0.0000 0.0000
# 3 44.3658 44.3658 106.2965 0.0000 0.0000 0.0000
# 4 8.5466 -8.5466 0.0000 27.8032 0.0000 0.0000
# 5 0.0000 0.0000 0.0000 0.0000 27.8032 8.5466
# 6 0.0000 0.0000 0.0000 0.0000 8.5466 27.2908
#
#
#
# Elastic Compliance Matrix: (Units=1/GPa)
#
#
# Indices 1 2 3 4 5 6 
#
# 1 0.014136 -0.006136 -0.003339 -0.006232 0.000000 0.000000
# 2 -0.006136 0.014136 -0.003339 0.006232 0.000000 0.000000
# 3 -0.003339 -0.003339 0.012195 0.000000 0.000000 0.000000
# 4 -0.006232 0.006232 0.000000 0.039798 0.000000 0.000000
# 5 0.000000 0.000000 0.000000 0.000000 0.039798 -0.012464
# 6 0.000000 0.000000 0.000000 0.000000 -0.012464 0.040546
#
#
# Mechanical properties :
#
#
# Convention : Reuss Voigt Hill
#
# Bulk Modulus (GPa) = 67.39117 67.53698 67.46408
# Shear Modulus (GPa) = 26.15272 28.60984 27.38128
#
# Velocity S-wave (km/s) = 3.65904 3.82707 3.74400
# Velocity P-wave (km/s) = 7.23544 7.35550 7.29572
#
# Compressibility (1/GPa) = 0.01483874
#
# Stress axis : x y z
#
# Youngs Moduli (GPa) = 70.73971 70.73971 82.00178
#
# Poissons Ratio (x) = 0.43409 0.27380
# Poissons Ratio (y) = 0.43409 0.27380
# Poissons Ratio (z) = 0.23620 0.23620
#
# Static dielectric constant tensor:
#      x y z
#    x 1.708340 0.000000 0.000000 
#    y 0.000000 1.708340 0.000000 
#    z 0.000000 0.000000 1.771370 
# 
# From -- ./inp_files/2302.got.cif
#   From: 2010.05.17/outbox.cif.g08.bks.cpg/sg165_2_cif.got.tgz:2302.got - 2010.05.20 11:02:39.
