data_PCOD9578454
_publ_section_title
;
Structure prediction by ZEFSAII (Michael W. Deem and Ramdas Pophale) SiO2 
 PCOD9578454
Probable space group: P -3 M 1
;
_chemical_formula_sum "Si O2"
_cell_formula_units_Z 48
_cell_length_a 19.300339
_cell_length_b 19.300339
_cell_length_c 9.095464
_cell_angle_alpha 90.000000
_cell_angle_beta 90.000000
_cell_angle_gamma 120.000000
_cell_volume 2934.170628
_symmetry_space_group_name_H-M "P -3 M 1"
_symmetry_group_IT_number 164
_symmetry_cell_setting 'hexagonal'
loop_
_space_group_symop_operation_xyz
x,y,z
-y,x-y,z
-x+y,-x,z
x-y,-y,-z
-x,-x+y,-z
y,x,-z
-x,-y,-z
y,-x+y,-z
x-y,x,-z
-x+y,y,z
x,x-y,z
-y,-x,z
loop_
_atom_site_type_symbol
_atom_site_label
_atom_site_fract_x
_atom_site_fract_y
_atom_site_fract_z
Si Si1 0.619304 0.080397 0.403041
Si Si2 0.090345 0.338693 0.161442
Si Si3 0.492932 0.665623 0.305456
Si Si4 0.664650 0.912165 0.808579
O O1 0.537081 0.074161 0.346269
O O2 0.658162 0.151594 0.521932
O O3 0.683299 0.093660 0.279298
O O4 0.592032 0.000000 0.500000
O O5 0.161522 0.323044 0.207362
O O6 0.111668 0.424344 0.226630
O O7 0.003863 0.269594 0.213983
O O8 0.093150 0.347029 0.984831
O O9 0.477131 0.738565 0.277838
O O10 0.418414 0.581587 0.257540
O O11 0.679951 0.839976 0.764597
#
# Coordination Sequence:
#
# PCOD9578454 Si02
#       4
#    12  12  12  12
#     4  10  19  31  47  71  99 126 160 199 237 278
#     4   9  19  33  50  72  99 125 156 200 245 287
#     4  10  19  32  49  70  97 129 163 198 236 281
#     4  10  19  33  52  73  95 126 163 199 240 288
#
# _framework density 16.358968000000001
#
# number of rings (size 3 to 8) (size 9 to 14) (size 15 to 20)
#    0.000    2.250    2.500    1.000    0.000    1.000 
#    0.000    2.500    0.000    1.000    0.000    3.500 
#    0.000    1.000    0.000    0.000    0.000    0.000 
#
# Total GULP energy -267351.914018 kJ/mol
# GULP energy per Si atom -5569.831542 kJ/mol
# Density = 1.632173 g / cm^3
# Si number density = 16.358968 Si / 1000 Ang^3
#
#
#
# Elastic Constant Matrix: (Units=GPa)
#
#
# Indices 1 2 3 4 5 6 
#
# 1 113.5278 76.8419 26.6754 -1.8068 0.0000 0.0000
# 2 76.8419 113.5278 26.6754 1.8068 0.0000 0.0000
# 3 26.6754 26.6754 15.2379 0.0000 0.0000 0.0000
# 4 -1.8068 1.8068 0.0000 22.9532 0.0000 0.0000
# 5 0.0000 0.0000 0.0000 0.0000 22.9532 -1.8068
# 6 0.0000 0.0000 0.0000 0.0000 -1.8068 18.3430
#
#
#
# Elastic Compliance Matrix: (Units=1/GPa)
#
#
# Indices 1 2 3 4 5 6 
#
# 1 0.018892 -0.008580 -0.018052 0.002162 0.000000 0.000000
# 2 -0.008580 0.018892 -0.018052 -0.002162 0.000000 0.000000
# 3 -0.018052 -0.018052 0.128829 0.000000 0.000000 0.000000
# 4 0.002162 -0.002162 0.000000 0.043907 0.000000 0.000000
# 5 0.000000 0.000000 0.000000 0.000000 0.043907 0.004325
# 6 0.000000 0.000000 0.000000 0.000000 0.004325 0.054943
#
#
# Mechanical properties :
#
#
# Convention : Reuss Voigt Hill
#
# Bulk Modulus (GPa) = 12.94583 55.85322 34.39952
# Shear Modulus (GPa) = 11.77894 20.32328 16.05111
#
# Velocity S-wave (km/s) = 2.68625 3.52850 3.13578
# Velocity P-wave (km/s) = 4.18951 7.12859 5.84674
#
# Compressibility (1/GPa) = 0.07724496
#
# Stress axis : x y z
#
# Youngs Moduli (GPa) = 52.93325 52.93325 7.76220
#
# Poissons Ratio (x) = 0.45415 0.14012
# Poissons Ratio (y) = 0.45415 0.14012
# Poissons Ratio (z) = 0.95556 0.95556
#
# Static dielectric constant tensor:
#      x y z
#    x 1.560130 0.000000 0.000000 
#    y 0.000000 1.560130 0.000000 
#    z 0.000000 0.000000 1.544140 
# 
# From -- ./inp_files/1251.got.cif
#   From: 2010.05.17/outbox.cif.g08.bks.cpg/sg164_1_cif.got.tgz:1251.got - 2010.05.20 10:58:56.
