data_PCOD9578061
_publ_section_title
;
Structure prediction by ZEFSAII (Michael W. Deem and Ramdas Pophale) SiO2 
 PCOD9578061
Probable space group: P -3 1 C
;
_chemical_formula_sum "Si O2"
_cell_formula_units_Z 60
_cell_length_a 12.901090
_cell_length_b 12.901090
_cell_length_c 25.949034
_cell_angle_alpha 90.000000
_cell_angle_beta 90.000000
_cell_angle_gamma 120.000000
_cell_volume 3740.284493
_symmetry_space_group_name_H-M "P -3 1 C"
_symmetry_group_IT_number 163
_symmetry_cell_setting 'hexagonal'
loop_
_space_group_symop_operation_xyz
x,y,z
-y,x-y,z
-x+y,-x,z
-y,-x,1/2-z
-x+y,y,1/2-z
x,x-y,1/2-z
-x,-y,-z
y,-x+y,-z
x-y,x,-z
y,x,1/2+z
x-y,-y,1/2+z
-x,-x+y,1/2+z
loop_
_atom_site_type_symbol
_atom_site_label
_atom_site_fract_x
_atom_site_fract_y
_atom_site_fract_z
Si Si1 0.000000 0.246622 0.000000
Si Si2 0.577999 0.666636 0.809263
Si Si3 0.666636 0.577999 0.190737
Si Si4 0.579663 0.912459 0.402940
Si Si5 0.912459 0.332797 0.902940
O O1 0.976038 0.306572 0.950439
O O2 0.117324 0.234649 0.992372
O O3 0.023962 0.330535 0.049561
O O4 0.440501 0.559499 0.813562
O O5 0.585934 0.792967 0.819171
O O6 0.615480 0.665829 0.750000
O O7 0.651398 0.638040 0.850828
O O8 0.638040 0.651398 0.149172
O O9 0.455083 0.910166 0.088638
O O10 0.558433 0.779216 0.398774
#
# Coordination Sequence:
#
# PCOD9578061 Si02
#       5
#    12  12  12  12  12
#     4  10  20  34  52  72  94 122 158 200 244 288
#     4   9  17  30  49  72  96 122 154 193 235 277
#     4   9  17  30  49  72  96 122 154 193 235 277
#     4  10  20  33  49  70  97 128 160 194 234 282
#     4  10  20  33  49  70  97 128 160 194 234 282
#
# _framework density 16.041561000000002
#
# number of rings (size 3 to 8) (size 9 to 14) (size 15 to 20)
#    0.000    2.400    0.000    2.800    0.000    2.400 
#    0.000    0.000    0.000   16.000    0.000    0.000 
#    0.000    0.000    0.000    0.000    0.000    0.000 
#
# Total GULP energy -334621.367756 kJ/mol
# GULP energy per Si atom -5577.022796 kJ/mol
# Density = 1.600505 g / cm^3
# Si number density = 16.041561 Si / 1000 Ang^3
#
#
#
# Elastic Constant Matrix: (Units=GPa)
#
#
# Indices 1 2 3 4 5 6 
#
# 1 115.1017 76.5095 88.2032 0.0000 0.0000 0.0000
# 2 76.5095 115.1017 88.2032 0.0000 0.0000 0.0000
# 3 88.2032 88.2032 123.7322 0.0000 0.0000 0.0000
# 4 0.0000 0.0000 0.0000 27.3678 0.0000 0.0000
# 5 0.0000 0.0000 0.0000 0.0000 27.3678 0.0000
# 6 0.0000 0.0000 0.0000 0.0000 0.0000 19.2961
#
#
#
# Elastic Compliance Matrix: (Units=1/GPa)
#
#
# Indices 1 2 3 4 5 6 
#
# 1 0.020548 -0.005364 -0.010824 0.000000 0.000000 0.000000
# 2 -0.005364 0.020548 -0.010824 0.000000 0.000000 0.000000
# 3 -0.010824 -0.010824 0.023514 0.000000 0.000000 0.000000
# 4 0.000000 0.000000 0.000000 0.036539 0.000000 0.000000
# 5 0.000000 0.000000 0.000000 0.000000 0.036539 0.000000
# 6 0.000000 0.000000 0.000000 0.000000 0.000000 0.051824
#
#
# Mechanical properties :
#
#
# Convention : Reuss Voigt Hill
#
# Bulk Modulus (GPa) = 94.46559 95.52971 94.99765
# Shear Modulus (GPa) = 20.23762 21.54101 20.88932
#
# Velocity S-wave (km/s) = 3.55572 3.66843 3.61252
# Velocity P-wave (km/s) = 8.71053 8.81044 8.76063
#
# Compressibility (1/GPa) = 0.01058587
#
# Stress axis : x y z
#
# Youngs Moduli (GPa) = 48.66665 48.66665 42.52808
#
# Poissons Ratio (x) = 0.26105 0.46032
# Poissons Ratio (y) = 0.26105 0.46032
# Poissons Ratio (z) = 0.52677 0.52677
#
# Static dielectric constant tensor:
#      x y z
#    x 1.507720 0.000000 0.000000 
#    y 0.000000 1.507720 0.000000 
#    z 0.000000 0.000000 1.526130 
# 
# From -- ./inp_files/3572.got.cif
#   From: 2010.05.17/outbox.cif.g08.bks.cpg/sg163_2_cif.got.tgz:3572.got - 2010.05.20 10:56:03.
