data_PCOD9578598
_publ_section_title
;
Structure prediction by ZEFSAII (Michael W. Deem and Ramdas Pophale) SiO2 
 PCOD9578598
Probable space group: P -3 M 1
;
_chemical_formula_sum "Si O2"
_cell_formula_units_Z 60
_cell_length_a 12.799930
_cell_length_b 12.799930
_cell_length_c 26.266278
_cell_angle_alpha 90.000000
_cell_angle_beta 90.000000
_cell_angle_gamma 120.000000
_cell_volume 3726.870973
_symmetry_space_group_name_H-M "P -3 M 1"
_symmetry_group_IT_number 164
_symmetry_cell_setting 'hexagonal'
loop_
_space_group_symop_operation_xyz
x,y,z
-y,x-y,z
-x+y,-x,z
x-y,-y,-z
-x,-x+y,-z
y,x,-z
-x,-y,-z
y,-x+y,-z
x-y,x,-z
-x+y,y,z
x,x-y,z
-y,-x,z
loop_
_atom_site_type_symbol
_atom_site_label
_atom_site_fract_x
_atom_site_fract_y
_atom_site_fract_z
Si Si1 0.333451 0.915035 0.160723
Si Si2 0.000624 0.752448 0.743895
Si Si3 0.084414 0.418414 0.451465
Si Si4 0.333219 0.915118 0.646296
Si Si5 0.914492 0.332529 0.953700
O O1 0.459463 0.918925 0.169267
O O2 0.223322 0.776679 0.162055
O O3 0.306716 0.984844 0.204520
O O4 0.334264 0.961790 0.103478
O O5 0.876769 0.753538 0.735331
O O6 0.028496 0.689562 0.696909
O O7 0.112791 0.887210 0.748208
O O8 0.205463 0.410926 0.451773
O O9 0.115183 0.557592 0.453483
O O10 0.000000 0.352997 0.500000
O O11 0.005333 0.360659 0.400873
O O12 0.449249 0.898497 0.652282
O O13 0.213232 0.786769 0.636756
O O14 0.896545 0.448273 0.956501
O O15 0.787812 0.212189 0.959002
O O16 0.000000 0.343726 0.000000
#
# Coordination Sequence:
#
# PCOD9578598 Si02
#       5
#    12  12  12  12  12
#     4   9  17  30  48  69  91 117 152 194 238 279
#     4  10  20  33  49  69  95 127 160 193 231 278
#     4  10  20  34  53  76 102 131 163 200 240 282
#     4  10  20  34  53  75  99 127 159 197 239 283
#     4   9  17  29  46  67  91 119 151 189 232 279
#
# _framework density 16.099295999999999
#
# number of rings (size 3 to 8) (size 9 to 14) (size 15 to 20)
#    0.000    2.400    0.000    2.800    0.000    2.400 
#    0.000    2.000    0.000   11.800    0.000    0.000 
#    0.000    0.000    0.000    0.000    0.000    0.000 
#
# Total GULP energy -334582.948354 kJ/mol
# GULP energy per Si atom -5576.382473 kJ/mol
# Density = 1.606265 g / cm^3
# Si number density = 16.099296 Si / 1000 Ang^3
#
#
#
# Elastic Constant Matrix: (Units=GPa)
#
#
# Indices 1 2 3 4 5 6 
#
# 1 12.8249 160.3348 80.9619 -10.4966 0.0000 0.0000
# 2 160.3348 12.8249 80.9619 10.4966 0.0000 0.0000
# 3 80.9619 80.9619 145.4887 0.0000 0.0000 0.0000
# 4 -10.4966 10.4966 0.0000 24.9390 0.0000 0.0000
# 5 0.0000 0.0000 0.0000 0.0000 24.9390 -10.4966
# 6 0.0000 0.0000 0.0000 0.0000 -10.4966 -73.7549
#
#
#
# Elastic Compliance Matrix: (Units=1/GPa)
#
#
# Indices 1 2 3 4 5 6 
#
# 1 0.002822 0.009218 -0.006700 -0.002692 0.000000 0.000000
# 2 0.009218 0.002822 -0.006700 0.002692 0.000000 0.000000
# 3 -0.006700 -0.006700 0.014331 0.000000 0.000000 0.000000
# 4 -0.002692 0.002692 0.000000 0.037832 0.000000 0.000000
# 5 0.000000 0.000000 0.000000 0.000000 0.037832 -0.005384
# 6 0.000000 0.000000 0.000000 0.000000 -0.005384 -0.012792
#
#
# Mechanical properties :
#
#
# Convention : Reuss Voigt Hill
#
# Bulk Modulus (GPa) = 86.12988 90.62840 88.37914
# Shear Modulus (GPa) = 52.58640 -14.85006 18.86817
#
# Velocity S-wave (km/s) = 5.72142 -3.04041 3.42714
# Velocity P-wave (km/s) = 9.86213 6.64004 8.40689
#
# Compressibility (1/GPa) = 0.01161037
#
# Stress axis : x y z
#
# Youngs Moduli (GPa) = 354.32148 354.32148 69.78011
#
# Poissons Ratio (x) = -3.26627 0.46756
# Poissons Ratio (y) = -3.26627 0.46756
# Poissons Ratio (z) = 2.37411 2.37411
#
# Static dielectric constant tensor:
#      x y z
#    x 1.508180 0.000000 0.000000 
#    y 0.000000 1.508180 0.000000 
#    z 0.000000 0.000000 1.542430 
# 
# From -- ./inp_files/5159.got.cif
#   From: 2010.05.17/outbox.cif.g08.bks.cpg/sg164_3_cif.got.tgz:5159.got - 2010.05.20 10:58:56.
