data_PCOD9578930
_publ_section_title
;
Structure prediction by ZEFSAII (Michael W. Deem and Ramdas Pophale) SiO2 
 PCOD9578930
Probable space group: P -3 C 1
;
_chemical_formula_sum "Si O2"
_cell_formula_units_Z 36
_cell_length_a 10.813540
_cell_length_b 10.813540
_cell_length_c 15.750727
_cell_angle_alpha 90.000000
_cell_angle_beta 90.000000
_cell_angle_gamma 120.000000
_cell_volume 1595.023250
_symmetry_space_group_name_H-M "P -3 C 1"
_symmetry_group_IT_number 165
_symmetry_cell_setting 'hexagonal'
loop_
_space_group_symop_operation_xyz
x,y,z
-y,x-y,z
-x+y,-x,z
x-y,-y,1/2-z
-x,-x+y,1/2-z
y,x,1/2-z
-x,-y,-z
y,-x+y,-z
x-y,x,-z
-x+y,y,1/2+z
x,x-y,1/2+z
-y,-x,1/2+z
loop_
_atom_site_type_symbol
_atom_site_label
_atom_site_fract_x
_atom_site_fract_y
_atom_site_fract_z
Si Si1 0.605782 0.044874 0.580194
Si Si2 0.292383 0.128265 0.313515
Si Si3 0.722426 0.123858 0.152527
O O1 0.508563 0.064876 0.648787
O O2 0.756736 0.193841 0.580664
O O3 0.500000 0.000000 0.500000
O O4 0.652620 0.934393 0.613550
O O5 0.412913 0.220226 0.244299
O O6 0.247717 0.238574 0.351685
O O7 0.182554 0.000000 0.250000
#
# Coordination Sequence:
#
# PCOD9578930 Si02
#       3
#    12  12  12
#     4  11  25  45  72 112 151 199 244 319 386 452
#     4   9  22  45  72 107 141 201 256 310 373 445
#     4  10  23  45  71 105 150 194 259 306 377 458
#
# _framework density 22.570205999999999
#
# number of rings (size 3 to 8) (size 9 to 14) (size 15 to 20)
#    0.000    2.000    0.000    0.667   18.667    0.000 
#   54.000    0.000    0.000    8.000    0.000    0.000 
#    0.000    0.000    0.000    0.000    0.000    0.000 
#
# Total GULP energy -200509.129154 kJ/mol
# GULP energy per Si atom -5569.698032 kJ/mol
# Density = 2.251883 g / cm^3
# Si number density = 22.570206 Si / 1000 Ang^3
#
#
#
# Elastic Constant Matrix: (Units=GPa)
#
#
# Indices 1 2 3 4 5 6 
#
# 1 137.8527 46.4331 36.6455 15.5152 0.0000 0.0000
# 2 46.4331 137.8527 36.6455 -15.5152 0.0000 0.0000
# 3 36.6455 36.6455 63.0746 0.0000 0.0000 0.0000
# 4 15.5152 -15.5152 0.0000 39.1320 0.0000 0.0000
# 5 0.0000 0.0000 0.0000 0.0000 39.1320 15.5152
# 6 0.0000 0.0000 0.0000 0.0000 15.5152 45.7098
#
#
#
# Elastic Compliance Matrix: (Units=1/GPa)
#
#
# Indices 1 2 3 4 5 6 
#
# 1 0.009848 -0.002791 -0.004100 -0.005011 0.000000 0.000000
# 2 -0.002791 0.009848 -0.004100 0.005011 0.000000 0.000000
# 3 -0.004100 -0.004100 0.020618 0.000000 0.000000 0.000000
# 4 -0.005011 0.005011 0.000000 0.029528 0.000000 0.000000
# 5 0.000000 0.000000 0.000000 0.000000 0.029528 -0.010023
# 6 0.000000 0.000000 0.000000 0.000000 -0.010023 0.025279
#
#
# Mechanical properties :
#
#
# Convention : Reuss Voigt Hill
#
# Bulk Modulus (GPa) = 54.54869 64.24757 59.39813
# Shear Modulus (GPa) = 32.73448 39.39848 36.06648
#
# Velocity S-wave (km/s) = 3.81246 4.18257 4.00180
# Velocity P-wave (km/s) = 6.60309 7.20088 6.90845
#
# Compressibility (1/GPa) = 0.01833225
#
# Stress axis : x y z
#
# Youngs Moduli (GPa) = 101.54087 101.54087 48.50058
#
# Poissons Ratio (x) = 0.28343 0.19885
# Poissons Ratio (y) = 0.28343 0.19885
# Poissons Ratio (z) = 0.41632 0.41632
#
# Static dielectric constant tensor:
#      x y z
#    x 1.905190 0.000000 0.000000 
#    y 0.000000 1.905190 0.000000 
#    z 0.000000 0.000000 1.948390 
# 
# From -- ./inp_files/1980.got.cif
#   From: 2010.05.17/outbox.cif.g08.bks.cpg/sg165_1_cif.got.tgz:1980.got - 2010.05.20 11:02:39.
