data_PCOD9578423
_publ_section_title
;
Structure prediction by ZEFSAII (Michael W. Deem and Ramdas Pophale) SiO2 
 PCOD9578423
Probable space group: P -3 M 1
;
_chemical_formula_sum "Si O2"
_cell_formula_units_Z 96
_cell_length_a 18.622600
_cell_length_b 18.622600
_cell_length_c 19.953897
_cell_angle_alpha 90.000000
_cell_angle_beta 90.000000
_cell_angle_gamma 120.000000
_cell_volume 5992.927004
_symmetry_space_group_name_H-M "P -3 M 1"
_symmetry_group_IT_number 164
_symmetry_cell_setting 'hexagonal'
loop_
_space_group_symop_operation_xyz
x,y,z
-y,x-y,z
-x+y,-x,z
x-y,-y,-z
-x,-x+y,-z
y,x,-z
-x,-y,-z
y,-x+y,-z
x-y,x,-z
-x+y,y,z
x,x-y,z
-y,-x,z
loop_
_atom_site_type_symbol
_atom_site_label
_atom_site_fract_x
_atom_site_fract_y
_atom_site_fract_z
Si Si1 0.749266 0.662478 0.816119
Si Si2 0.730247 0.102289 0.200664
Si Si3 0.620860 0.547948 0.598895
Si Si4 0.171000 0.503941 0.270321
Si Si5 0.667133 0.162363 0.076647
Si Si6 0.906069 0.367163 0.332166
Si Si7 0.832198 0.331021 0.475258
Si Si8 0.649605 0.742276 0.024589
O O1 0.846844 0.693688 0.802358
O O2 0.708243 0.718838 0.800198
O O3 0.698097 0.578334 0.773459
O O4 0.736299 0.643481 0.895315
O O5 0.825237 0.174764 0.195469
O O6 0.681921 0.114988 0.138437
O O7 0.689560 0.115226 0.267553
O O8 0.526191 0.473810 0.589466
O O9 0.664609 0.516671 0.651356
O O10 0.609830 0.615673 0.638821
O O11 0.660747 0.564075 0.525849
O O12 0.267019 0.534037 0.260187
O O13 0.149750 0.574875 0.252213
O O14 0.578234 0.156468 0.078171
O O15 0.741877 0.258124 0.080197
O O16 0.683443 0.122105 0.010858
O O17 0.909561 0.454781 0.316145
O O18 0.848051 0.328567 0.396738
O O19 0.826328 0.413164 0.486102
O O20 0.748240 0.251760 0.495509
O O21 0.672784 0.836392 0.005632
O O22 0.714179 0.714179 0.000000
#
# Coordination Sequence:
#
# PCOD9578423 Si02
#       8
#    12  12  12  12  12  12  12  12
#     4  10  21  36  53  75 103 131 162 203 255 304
#     4  11  21  35  55  77  99 129 171 210 251 302
#     4   9  17  29  46  65  90 126 165 206 247 290
#     4  10  19  31  48  71 100 133 169 205 243 289
#     4  10  21  35  52  76 106 139 174 210 248 288
#     4  10  19  32  48  70  98 130 168 210 253 292
#     4  10  19  30  44  64  93 129 169 210 250 290
#     4  10  20  36  55  78 102 132 169 208 253 303
#
# _framework density 16.018884
#
# number of rings (size 3 to 8) (size 9 to 14) (size 15 to 20)
#    0.000    2.000    2.500    1.875    0.000    2.750 
#    0.000    1.250    0.000    5.875    0.000    0.000 
#    0.000    0.000    0.000    0.000    0.000    4.625 
#
# Total GULP energy -534833.406189 kJ/mol
# GULP energy per Si atom -5571.181314 kJ/mol
# Density = 1.598242 g / cm^3
# Si number density = 16.018884 Si / 1000 Ang^3
#
#
#
# Elastic Constant Matrix: (Units=GPa)
#
#
# Indices 1 2 3 4 5 6 
#
# 1 80.9659 50.9486 19.9362 0.9642 0.0000 0.0000
# 2 50.9486 80.9659 19.9362 -0.9642 0.0000 0.0000
# 3 19.9362 19.9362 47.7891 0.0000 0.0000 0.0000
# 4 0.9642 -0.9642 0.0000 14.1053 0.0000 0.0000
# 5 0.0000 0.0000 0.0000 0.0000 14.1053 0.9642
# 6 0.0000 0.0000 0.0000 0.0000 0.9642 15.0087
#
#
#
# Elastic Compliance Matrix: (Units=1/GPa)
#
#
# Indices 1 2 3 4 5 6 
#
# 1 0.021068 -0.012393 -0.003619 -0.002287 0.000000 0.000000
# 2 -0.012393 0.021068 -0.003619 0.002287 0.000000 0.000000
# 3 -0.003619 -0.003619 0.023945 0.000000 0.000000 0.000000
# 4 -0.002287 0.002287 0.000000 0.071208 0.000000 0.000000
# 5 0.000000 0.000000 0.000000 0.000000 0.071208 -0.004575
# 6 0.000000 0.000000 0.000000 0.000000 -0.004575 0.066922
#
#
# Mechanical properties :
#
#
# Convention : Reuss Voigt Hill
#
# Bulk Modulus (GPa) = 37.28767 43.48478 40.38622
# Shear Modulus (GPa) = 15.45025 16.57051 16.01038
#
# Velocity S-wave (km/s) = 3.10901 3.21975 3.16487
# Velocity P-wave (km/s) = 6.01796 6.40526 6.21462
#
# Compressibility (1/GPa) = 0.02681852
#
# Stress axis : x y z
#
# Youngs Moduli (GPa) = 47.46596 47.46596 41.76321
#
# Poissons Ratio (x) = 0.58826 0.15113
# Poissons Ratio (y) = 0.58826 0.15113
# Poissons Ratio (z) = 0.17177 0.17177
#
# Static dielectric constant tensor:
#      x y z
#    x 1.546070 0.000000 0.000000 
#    y 0.000000 1.546070 0.000000 
#    z 0.000000 0.000000 1.557020 
# 
# From -- ./inp_files/4742.got.cif
#   From: 2010.05.17/outbox.cif.g08.bks.cpg/sg164_3_cif.got.tgz:4742.got - 2010.05.20 10:58:56.
