data_PCOD9578612
_publ_section_title
;
Structure prediction by ZEFSAII (Michael W. Deem and Ramdas Pophale) SiO2 
 PCOD9578612
Probable space group: P -3 M 1
;
_chemical_formula_sum "Si O2"
_cell_formula_units_Z 60
_cell_length_a 12.856895
_cell_length_b 12.856895
_cell_length_c 26.109004
_cell_angle_alpha 90.000000
_cell_angle_beta 90.000000
_cell_angle_gamma 120.000000
_cell_volume 3737.602664
_symmetry_space_group_name_H-M "P -3 M 1"
_symmetry_group_IT_number 164
_symmetry_cell_setting 'hexagonal'
loop_
_space_group_symop_operation_xyz
x,y,z
-y,x-y,z
-x+y,-x,z
x-y,-y,-z
-x,-x+y,-z
y,x,-z
-x,-y,-z
y,-x+y,-z
x-y,x,-z
-x+y,y,z
x,x-y,z
-y,-x,z
loop_
_atom_site_type_symbol
_atom_site_label
_atom_site_fract_x
_atom_site_fract_y
_atom_site_fract_z
Si Si1 0.913372 0.332758 0.243672
Si Si2 0.913606 0.333387 0.951183
Si Si3 0.247178 0.246998 0.853584
Si Si4 0.419887 0.086268 0.661295
Si Si5 0.580889 0.667183 0.454341
O O1 0.910530 0.455265 0.235401
O O2 0.779798 0.220203 0.248464
O O3 0.975672 0.305973 0.196012
O O4 0.989159 0.349351 0.295097
O O5 0.900295 0.450148 0.942213
O O6 0.784153 0.215848 0.960319
O O7 0.971824 0.305949 0.902179
O O8 0.000000 0.361730 0.000000
O O9 0.118737 0.237473 0.862485
O O10 0.231994 0.115997 0.845615
O O11 0.558027 0.116054 0.663931
O O12 0.414071 0.207036 0.669176
O O13 0.376281 0.040140 0.603482
O O14 0.658939 0.658939 0.500000
O O15 0.572760 0.786380 0.458621
O O16 0.448751 0.551250 0.459324
#
# Coordination Sequence:
#
# PCOD9578612 Si02
#       5
#    12  12  12  12  12
#     4  10  20  33  49  70  97 127 157 190 231 280
#     4  10  20  34  52  74 100 129 161 197 238 284
#     4  10  20  34  52  73  97 126 161 200 239 278
#     4   9  17  30  48  69  92 119 153 193 235 277
#     4   9  17  29  46  68  93 121 153 190 232 277
#
# _framework density 16.053072
#
# number of rings (size 3 to 8) (size 9 to 14) (size 15 to 20)
#    0.000    2.400    0.000    2.800    0.000    2.400 
#    0.000    0.000    0.000   19.000    0.000    0.000 
#    0.000    0.000    0.000    0.000    0.000    0.000 
#
# Total GULP energy -334577.786153 kJ/mol
# GULP energy per Si atom -5576.296436 kJ/mol
# Density = 1.601653 g / cm^3
# Si number density = 16.053072 Si / 1000 Ang^3
#
#
#
# Elastic Constant Matrix: (Units=GPa)
#
#
# Indices 1 2 3 4 5 6 
#
# 1 112.4315 70.3025 86.9242 -4.2565 0.0000 0.0000
# 2 70.3025 112.4315 86.9242 4.2565 0.0000 0.0000
# 3 86.9242 86.9242 135.0082 0.0000 0.0000 0.0000
# 4 -4.2565 4.2565 0.0000 27.6824 0.0000 0.0000
# 5 0.0000 0.0000 0.0000 0.0000 27.6824 -4.2565
# 6 0.0000 0.0000 0.0000 0.0000 -4.2565 21.0645
#
#
#
# Elastic Compliance Matrix: (Units=1/GPa)
#
#
# Indices 1 2 3 4 5 6 
#
# 1 0.019311 -0.005187 -0.009093 0.003767 0.000000 0.000000
# 2 -0.005187 0.019311 -0.009093 -0.003767 0.000000 0.000000
# 3 -0.009093 -0.009093 0.019117 0.000000 0.000000 0.000000
# 4 0.003767 -0.003767 0.000000 0.037282 0.000000 0.000000
# 5 0.000000 0.000000 0.000000 0.000000 0.037282 0.007534
# 6 0.000000 0.000000 0.000000 0.000000 0.007534 0.048996
#
#
# Mechanical properties :
#
#
# Convention : Reuss Voigt Hill
#
# Bulk Modulus (GPa) = 90.99120 94.24142 92.61631
# Shear Modulus (GPa) = 21.57870 23.00053 22.28961
#
# Velocity S-wave (km/s) = 3.67032 3.78932 3.73029
# Velocity P-wave (km/s) = 8.64675 8.83056 8.73914
#
# Compressibility (1/GPa) = 0.01099007
#
# Stress axis : x y z
#
# Youngs Moduli (GPa) = 51.78454 51.78454 52.31071
#
# Poissons Ratio (x) = 0.26861 0.47569
# Poissons Ratio (y) = 0.26861 0.47569
# Poissons Ratio (z) = 0.47090 0.47090
#
# Static dielectric constant tensor:
#      x y z
#    x 1.506820 0.000000 0.000000 
#    y 0.000000 1.506820 0.000000 
#    z 0.000000 0.000000 1.533440 
# 
# From -- ./inp_files/5189.got.cif
#   From: 2010.05.17/outbox.cif.g08.bks.cpg/sg164_3_cif.got.tgz:5189.got - 2010.05.20 10:58:56.
