data_PCOD9578252
_publ_section_title
;
Structure prediction by ZEFSAII (Michael W. Deem and Ramdas Pophale) SiO2 
 PCOD9578252
Probable space group: P -3 1 C
;
_chemical_formula_sum "Si O2"
_cell_formula_units_Z 60
_cell_length_a 14.767825
_cell_length_b 14.767825
_cell_length_c 14.655734
_cell_angle_alpha 90.000000
_cell_angle_beta 90.000000
_cell_angle_gamma 120.000000
_cell_volume 2768.033107
_symmetry_space_group_name_H-M "P -3 1 C"
_symmetry_group_IT_number 163
_symmetry_cell_setting 'hexagonal'
loop_
_space_group_symop_operation_xyz
x,y,z
-y,x-y,z
-x+y,-x,z
-y,-x,1/2-z
-x+y,y,1/2-z
x,x-y,1/2-z
-x,-y,-z
y,-x+y,-z
x-y,x,-z
y,x,1/2+z
x-y,-y,1/2+z
-x,-x+y,1/2+z
loop_
_atom_site_type_symbol
_atom_site_label
_atom_site_fract_x
_atom_site_fract_y
_atom_site_fract_z
Si Si1 0.849981 0.255484 0.474471
Si Si2 0.263550 0.844763 0.343769
Si Si3 0.965502 0.506229 0.145634
Si Si4 0.663345 0.967471 0.907288
Si Si5 0.994897 0.201597 0.763193
O O1 0.781716 0.231233 0.568011
O O2 0.883542 0.355349 0.409559
O O3 0.784627 0.150915 0.417669
O O4 0.957706 0.267918 0.512083
O O5 0.222325 0.777676 0.250000
O O6 0.388310 0.921522 0.349790
O O7 0.223865 0.930795 0.341667
O O8 0.932758 0.466379 0.250000
O O9 0.974395 0.415603 0.094506
O O10 0.726991 0.012957 0.815544
O O11 0.112718 0.225436 0.750000
O O12 0.921409 0.078592 0.750000
#
# Coordination Sequence:
#
# PCOD9578252 Si02
#       5
#    12  12  12  12  12
#     4  12  25  45  70 109 147 194 251 314 392 468
#     4  11  22  44  72 104 143 194 251 308 386 468
#     4  12  25  47  76 105 146 197 260 314 393 471
#     4  12  26  43  76 102 146 198 247 316 380 467
#     4  11  22  41  70 105 142 190 246 305 379 465
#
# _framework density 21.67604
#
# number of rings (size 3 to 8) (size 9 to 14) (size 15 to 20)
#    0.000    0.400    8.000    2.000    0.000    0.000 
#    1.200    0.000    0.000    3.200    0.000    0.000 
#    0.000    0.000    0.000    0.000    0.000    0.000 
#
# Total GULP energy -334572.140875 kJ/mol
# GULP energy per Si atom -5576.202348 kJ/mol
# Density = 2.162670 g / cm^3
# Si number density = 21.676040 Si / 1000 Ang^3
#
#
#
# Elastic Constant Matrix: (Units=GPa)
#
#
# Indices 1 2 3 4 5 6 
#
# 1 66.6227 123.4618 46.2126 0.0009 -9.8863 0.0000
# 2 123.4618 66.6227 46.2126 -0.0009 9.8863 0.0000
# 3 46.2126 46.2126 127.0522 0.0000 0.0000 0.0000
# 4 0.0009 -0.0009 0.0000 41.9647 0.0000 9.8863
# 5 -9.8863 9.8863 0.0000 0.0000 41.9647 0.0009
# 6 0.0000 0.0000 0.0000 9.8863 0.0009 -28.4195
#
#
#
# Elastic Compliance Matrix: (Units=1/GPa)
#
#
# Indices 1 2 3 4 5 6 
#
# 1 -0.004935 0.011326 -0.002325 0.000000 -0.003831 0.000000
# 2 0.011326 -0.004935 -0.002325 0.000000 0.003831 0.000000
# 3 -0.002325 -0.002325 0.009562 0.000000 0.000000 0.000000
# 4 0.000000 0.000000 0.000000 0.022025 0.000000 0.007662
# 5 -0.003831 0.003831 0.000000 0.000000 0.022025 0.000001
# 6 0.000000 0.000000 0.000000 0.007662 0.000001 -0.032522
#
#
# Mechanical properties :
#
#
# Convention : Reuss Voigt Hill
#
# Bulk Modulus (GPa) = 76.65444 76.89685 76.77564
# Shear Modulus (GPa) = 2257.87626 14.06268 1135.96947
#
# Velocity S-wave (km/s) = 32.30956 2.54985 22.91734
# Velocity P-wave (km/s) = 37.77985 6.64993 27.12507
#
# Compressibility (1/GPa) = 0.01304556
#
# Stress axis : x y z
#
# Youngs Moduli (GPa) = -202.63884 -202.63884 104.58216
#
# Poissons Ratio (x) = 2.29509 0.24312
# Poissons Ratio (y) = 2.29509 0.24312
# Poissons Ratio (z) = -0.47106 -0.47106
#
# Static dielectric constant tensor:
#      x y z
#    x 1.801160 0.000000 0.000000 
#    y 0.000000 1.801160 0.000000 
#    z 0.000000 0.000000 1.920260 
# 
# From -- ./inp_files/2393.got.cif
#   From: 2010.05.17/outbox.cif.g08.bks.cpg/sg163_2_cif.got.tgz:2393.got - 2010.05.20 10:56:03.
