data_PCOD9578771
_publ_section_title
;
Structure prediction by ZEFSAII (Michael W. Deem and Ramdas Pophale) SiO2 
 PCOD9578771
Probable space group: P -3 C 1
;
_chemical_formula_sum "Si O2"
_cell_formula_units_Z 40
_cell_length_a 11.647696
_cell_length_b 11.647696
_cell_length_c 13.437107
_cell_angle_alpha 90.000000
_cell_angle_beta 90.000000
_cell_angle_gamma 120.000000
_cell_volume 1578.761262
_symmetry_space_group_name_H-M "P -3 C 1"
_symmetry_group_IT_number 165
_symmetry_cell_setting 'hexagonal'
loop_
_space_group_symop_operation_xyz
x,y,z
-y,x-y,z
-x+y,-x,z
x-y,-y,1/2-z
-x,-x+y,1/2-z
y,x,1/2-z
-x,-y,-z
y,-x+y,-z
x-y,x,-z
-x+y,y,1/2+z
x,x-y,1/2+z
-y,-x,1/2+z
loop_
_atom_site_type_symbol
_atom_site_label
_atom_site_fract_x
_atom_site_fract_y
_atom_site_fract_z
Si Si1 0.703790 0.848942 0.355543
Si Si2 0.728297 0.613378 0.367105
Si Si3 0.424459 0.392116 0.368403
Si Si4 0.000000 0.000000 0.617662
O O1 0.736260 0.745751 0.408611
O O2 0.637618 0.771838 0.251638
O O3 0.613156 0.902155 0.404084
O O4 0.854854 0.970681 0.347218
O O5 0.574542 0.506323 0.383364
O O6 0.837329 0.578255 0.403434
O O7 0.398187 0.398187 0.250000
O O8 0.000000 0.000000 0.500000
#
# Coordination Sequence:
#
# PCOD9578771 Si02
#       4
#    12  12  12   4
#     4  10  20  34  54  83 119 146 191 251 296 357
#     4  10  19  31  53  86 121 148 176 230 332 380
#     4  10  18  30  49  83 119 148 173 218 306 399
#     4  12  24  40  62  82 108 168 226 257 274 315
#
# _framework density 25.336321000000002
#
# number of rings (size 3 to 8) (size 9 to 14) (size 15 to 20)
#    0.000    1.800    6.000    0.600    4.200    0.000 
#    1.800    0.000    0.000    1.800    0.000    0.000 
#    0.000    0.000    0.000    0.000    0.000    0.000 
#
# Total GULP energy -223054.948542 kJ/mol
# GULP energy per Si atom -5576.373714 kJ/mol
# Density = 2.527865 g / cm^3
# Si number density = 25.336321 Si / 1000 Ang^3
#
#
#
# Elastic Constant Matrix: (Units=GPa)
#
#
# Indices 1 2 3 4 5 6 
#
# 1 184.5399 100.8125 15.0527 4.2565 0.0000 0.0000
# 2 100.8125 184.5399 15.0527 -4.2565 0.0000 0.0000
# 3 15.0527 15.0527 97.7490 0.0000 0.0000 0.0000
# 4 4.2565 -4.2565 0.0000 24.4902 0.0000 0.0000
# 5 0.0000 0.0000 0.0000 0.0000 24.4902 4.2565
# 6 0.0000 0.0000 0.0000 0.0000 4.2565 41.8637
#
#
#
# Elastic Compliance Matrix: (Units=1/GPa)
#
#
# Indices 1 2 3 4 5 6 
#
# 1 0.007860 -0.004298 -0.000549 -0.002113 0.000000 0.000000
# 2 -0.004298 0.007860 -0.000549 0.002113 0.000000 0.000000
# 3 -0.000549 -0.000549 0.010399 0.000000 0.000000 0.000000
# 4 -0.002113 0.002113 0.000000 0.041567 0.000000 0.000000
# 5 0.000000 0.000000 0.000000 0.000000 0.041567 -0.004226
# 6 0.000000 0.000000 0.000000 0.000000 -0.004226 0.024317
#
#
# Mechanical properties :
#
#
# Convention : Reuss Voigt Hill
#
# Bulk Modulus (GPa) = 65.23338 80.96271 73.09804
# Shear Modulus (GPa) = 33.45121 40.56289 37.00705
#
# Velocity S-wave (km/s) = 3.63752 4.00556 3.82597
# Velocity P-wave (km/s) = 6.59128 7.30871 6.95925
#
# Compressibility (1/GPa) = 0.01532958
#
# Stress axis : x y z
#
# Youngs Moduli (GPa) = 127.22088 127.22088 96.16096
#
# Poissons Ratio (x) = 0.54680 0.05275
# Poissons Ratio (y) = 0.54680 0.05275
# Poissons Ratio (z) = 0.06979 0.06979
#
# Static dielectric constant tensor:
#      x y z
#    x 2.054000 0.000000 0.000000 
#    y 0.000000 2.054000 0.000000 
#    z 0.000000 0.000000 2.147590 
# 
# From -- ./inp_files/2034.got.cif
#   From: 2010.05.17/outbox.cif.g08.bks.cpg/sg165_2_cif.got.tgz:2034.got - 2010.05.20 11:02:39.
