data_PCOD9578796
_publ_section_title
;
Structure prediction by ZEFSAII (Michael W. Deem and Ramdas Pophale) SiO2 
 PCOD9578796
Probable space group: P -3 C 1
;
_chemical_formula_sum "Si O2"
_cell_formula_units_Z 78
_cell_length_a 24.248840
_cell_length_b 24.248840
_cell_length_c 7.995331
_cell_angle_alpha 90.000000
_cell_angle_beta 90.000000
_cell_angle_gamma 120.000000
_cell_volume 4071.449154
_symmetry_space_group_name_H-M "P -3 C 1"
_symmetry_group_IT_number 165
_symmetry_cell_setting 'hexagonal'
loop_
_space_group_symop_operation_xyz
x,y,z
-y,x-y,z
-x+y,-x,z
x-y,-y,1/2-z
-x,-x+y,1/2-z
y,x,1/2-z
-x,-y,-z
y,-x+y,-z
x-y,x,-z
-x+y,y,1/2+z
x,x-y,1/2+z
-y,-x,1/2+z
loop_
_atom_site_type_symbol
_atom_site_label
_atom_site_fract_x
_atom_site_fract_y
_atom_site_fract_z
Si Si1 0.950937 0.211617 0.406442
Si Si2 0.584686 0.710588 0.694421
Si Si3 0.039272 0.910236 0.580096
Si Si4 0.202599 0.553816 0.753508
Si Si5 0.218765 0.536142 0.141405
Si Si6 0.000000 0.708811 0.250000
Si Si7 0.398427 0.164133 0.430173
O O1 0.933650 0.138269 0.422868
O O2 0.890363 0.220156 0.369243
O O3 0.000000 0.240731 0.250000
O O4 0.977723 0.244424 0.588477
O O5 0.511411 0.655205 0.681563
O O6 0.641135 0.695920 0.681046
O O7 0.597555 0.767971 0.572211
O O8 0.592633 0.739225 0.882094
O O9 0.000000 0.897814 0.750000
O O10 0.982672 0.889348 0.445222
O O11 0.265628 0.558301 0.671548
O O12 0.199558 0.617507 0.734157
O O13 0.209489 0.544421 0.947740
O O14 0.176737 0.460603 0.175741
#
# Coordination Sequence:
#
# PCOD9578796 Si02
#       7
#    12  12  12  12  12   6  12
#     4  10  24  39  61  89 115 150 197 240 283 345
#     4   9  20  35  57  81 111 148 185 234 286 334
#     4  11  25  41  62  88 121 155 190 235 289 351
#     4  10  19  33  52  81 113 148 190 226 285 342
#     4  10  19  33  53  80 115 149 186 234 282 338
#     4  10  22  38  60  82 120 150 190 248 282 334
#     4   9  20  36  56  82 112 144 189 234 283 338
#
# _framework density 19.157796999999999
#
# number of rings (size 3 to 8) (size 9 to 14) (size 15 to 20)
#    0.000    2.154    0.000    1.846    6.462    3.692 
#    0.000    0.000    1.692    2.769    0.000    0.000 
#    0.000    0.000    0.000    0.000    0.000    0.000 
#
# Total GULP energy -435165.285967 kJ/mol
# GULP energy per Si atom -5579.042128 kJ/mol
# Density = 1.911419 g / cm^3
# Si number density = 19.157797 Si / 1000 Ang^3
#
#
#
# Elastic Constant Matrix: (Units=GPa)
#
#
# Indices 1 2 3 4 5 6 
#
# 1 81.0720 44.8687 2.9640 5.1279 0.0000 0.0000
# 2 44.8687 81.0720 2.9640 -5.1279 0.0000 0.0000
# 3 2.9640 2.9640 38.6424 0.0000 0.0000 0.0000
# 4 5.1279 -5.1279 0.0000 13.1210 0.0000 0.0000
# 5 0.0000 0.0000 0.0000 0.0000 13.1210 5.1279
# 6 0.0000 0.0000 0.0000 0.0000 5.1279 18.1017
#
#
#
# Elastic Compliance Matrix: (Units=1/GPa)
#
#
# Indices 1 2 3 4 5 6 
#
# 1 0.019515 -0.011546 -0.000611 -0.012139 0.000000 0.000000
# 2 -0.011546 0.019515 -0.000611 0.012139 0.000000 0.000000
# 3 -0.000611 -0.000611 0.025972 0.000000 0.000000 0.000000
# 4 -0.012139 0.012139 0.000000 0.085702 0.000000 0.000000
# 5 0.000000 0.000000 0.000000 0.000000 0.085702 -0.024278
# 6 0.000000 0.000000 0.000000 0.000000 -0.024278 0.062121
#
#
# Mechanical properties :
#
#
# Convention : Reuss Voigt Hill
#
# Bulk Modulus (GPa) = 25.33883 33.59774 29.46829
# Shear Modulus (GPa) = 14.82724 18.86806 16.84765
#
# Velocity S-wave (km/s) = 2.78502 3.14168 2.96871
# Velocity P-wave (km/s) = 4.85766 5.54397 5.21213
#
# Compressibility (1/GPa) = 0.03946512
#
# Stress axis : x y z
#
# Youngs Moduli (GPa) = 51.24333 51.24333 38.50293
#
# Poissons Ratio (x) = 0.59164 0.02353
# Poissons Ratio (y) = 0.59164 0.02353
# Poissons Ratio (z) = 0.03132 0.03132
#
# Static dielectric constant tensor:
#      x y z
#    x 1.690680 0.000000 0.000000 
#    y 0.000000 1.690680 0.000000 
#    z 0.000000 0.000000 1.711440 
# 
# From -- ./inp_files/803.got.cif
#   From: 2010.05.17/outbox.cif.g08.bks.cpg/sg165_1_cif.got.tgz:803.got - 2010.05.20 11:02:39.
