data_PCOD9578773
_publ_section_title
;
Structure prediction by ZEFSAII (Michael W. Deem and Ramdas Pophale) SiO2 
 PCOD9578773
Probable space group: P -3 C 1
;
_chemical_formula_sum "Si O2"
_cell_formula_units_Z 48
_cell_length_a 13.268296
_cell_length_b 13.268296
_cell_length_c 14.035690
_cell_angle_alpha 90.000000
_cell_angle_beta 90.000000
_cell_angle_gamma 120.000000
_cell_volume 2139.906029
_symmetry_space_group_name_H-M "P -3 C 1"
_symmetry_group_IT_number 165
_symmetry_cell_setting 'hexagonal'
loop_
_space_group_symop_operation_xyz
x,y,z
-y,x-y,z
-x+y,-x,z
x-y,-y,1/2-z
-x,-x+y,1/2-z
y,x,1/2-z
-x,-y,-z
y,-x+y,-z
x-y,x,-z
-x+y,y,1/2+z
x,x-y,1/2+z
-y,-x,1/2+z
loop_
_atom_site_type_symbol
_atom_site_label
_atom_site_fract_x
_atom_site_fract_y
_atom_site_fract_z
Si Si1 0.437550 0.320289 0.159955
Si Si2 0.760005 0.771070 0.990108
Si Si3 0.202372 0.535643 0.643822
Si Si4 0.880726 0.347494 0.072123
O O1 0.314355 0.263912 0.107059
O O2 0.452276 0.330304 0.273340
O O3 0.526767 0.444337 0.112904
O O4 0.482358 0.230703 0.129709
O O5 0.687214 0.667821 0.066087
O O6 0.776128 0.893768 0.022313
O O7 0.333553 0.557980 0.655122
O O8 0.161189 0.496779 0.537120
#
# Coordination Sequence:
#
# PCOD9578773 Si02
#       4
#    12  12  12  12
#     4  11  19  36  63  97 133 167 201 259 335 402
#     4  10  24  41  64  85 119 172 231 273 309 366
#     4  10  18  31  60  99 142 166 190 248 336 420
#     4  11  19  36  63  97 133 167 201 259 335 402
#
# _framework density 22.430890999999999
#
# number of rings (size 3 to 8) (size 9 to 14) (size 15 to 20)
#    0.500    1.000    5.000    1.500    0.000    1.000 
#    0.000    0.000    0.000   41.500    0.000    0.000 
#    0.000    0.000    0.000    0.000    0.000    0.000 
#
# Total GULP energy -268590.731216 kJ/mol
# GULP energy per Si atom -5595.640234 kJ/mol
# Density = 2.237984 g / cm^3
# Si number density = 22.430891 Si / 1000 Ang^3
#
#
#
# Elastic Constant Matrix: (Units=GPa)
#
#
# Indices 1 2 3 4 5 6 
#
# 1 132.4855 47.0963 32.4911 -6.5604 0.0000 0.0000
# 2 47.0963 132.4855 32.4911 6.5604 0.0000 0.0000
# 3 32.4911 32.4911 131.3391 0.0000 0.0000 0.0000
# 4 -6.5604 6.5604 0.0000 24.6433 0.0000 0.0000
# 5 0.0000 0.0000 0.0000 0.0000 24.6433 -6.5604
# 6 0.0000 0.0000 0.0000 0.0000 -6.5604 42.6946
#
#
#
# Elastic Compliance Matrix: (Units=1/GPa)
#
#
# Indices 1 2 3 4 5 6 
#
# 1 0.009163 -0.003047 -0.001513 0.003251 0.000000 0.000000
# 2 -0.003047 0.009163 -0.001513 -0.003251 0.000000 0.000000
# 3 -0.001513 -0.001513 0.008362 0.000000 0.000000 0.000000
# 4 0.003251 -0.003251 0.000000 0.042310 0.000000 0.000000
# 5 0.000000 0.000000 0.000000 0.000000 0.042310 0.006501
# 6 0.000000 0.000000 0.000000 0.000000 0.006501 0.024421
#
#
# Mechanical properties :
#
#
# Convention : Reuss Voigt Hill
#
# Bulk Modulus (GPa) = 68.76425 68.94080 68.85252
# Shear Modulus (GPa) = 32.73887 37.34500 35.04194
#
# Velocity S-wave (km/s) = 3.82454 4.08473 3.95678
# Velocity P-wave (km/s) = 7.08699 7.28342 7.18588
#
# Compressibility (1/GPa) = 0.01454244
#
# Stress axis : x y z
#
# Youngs Moduli (GPa) = 109.13126 109.13126 119.58210
#
# Poissons Ratio (x) = 0.33256 0.18093
# Poissons Ratio (y) = 0.33256 0.18093
# Poissons Ratio (z) = 0.16511 0.16511
#
# Static dielectric constant tensor:
#      x y z
#    x 1.878280 0.000000 0.000000 
#    y 0.000000 1.878280 0.000000 
#    z 0.000000 0.000000 1.777190 
# 
# From -- ./inp_files/1536.got.cif
#   From: 2010.05.17/outbox.cif.g08.bks.cpg/sg165_1_cif.got.tgz:1536.got - 2010.05.20 11:02:39.
