data_PCOD9578666
_publ_section_title
;
Structure prediction by ZEFSAII (Michael W. Deem and Ramdas Pophale) SiO2 
 PCOD9578666
Probable space group: P -3 M 1
;
_chemical_formula_sum "Si O2"
_cell_formula_units_Z 84
_cell_length_a 17.453939
_cell_length_b 17.453939
_cell_length_c 16.521486
_cell_angle_alpha 90.000000
_cell_angle_beta 90.000000
_cell_angle_gamma 120.000000
_cell_volume 4358.797027
_symmetry_space_group_name_H-M "P -3 M 1"
_symmetry_group_IT_number 164
_symmetry_cell_setting 'hexagonal'
loop_
_space_group_symop_operation_xyz
x,y,z
-y,x-y,z
-x+y,-x,z
x-y,-y,-z
-x,-x+y,-z
y,x,-z
-x,-y,-z
y,-x+y,-z
x-y,x,-z
-x+y,y,z
x,x-y,z
-y,-x,z
loop_
_atom_site_type_symbol
_atom_site_label
_atom_site_fract_x
_atom_site_fract_y
_atom_site_fract_z
Si Si1 0.490055 0.332522 0.655716
Si Si2 0.938144 0.240334 0.924373
Si Si3 0.000093 0.180261 0.403058
Si Si4 0.334195 0.971612 0.665987
Si Si5 0.667223 0.157291 0.461659
Si Si6 0.334015 0.845207 0.988548
Si Si7 0.277265 0.901558 0.832054
O O1 0.477782 0.238891 0.681883
O O2 0.588849 0.411152 0.672088
O O3 0.418528 0.354597 0.690641
O O4 0.475827 0.328869 0.558246
O O5 0.857954 0.142046 0.909784
O O6 0.005034 0.288948 0.851514
O O7 0.894839 0.299536 0.952108
O O8 0.000000 0.246189 0.000000
O O9 0.916585 0.083416 0.386438
O O10 0.987928 0.254036 0.357282
O O11 0.000000 0.195574 0.500000
O O12 0.092324 0.184648 0.383358
O O13 0.353773 0.929085 0.588232
O O14 0.307625 0.904923 0.740806
O O15 0.590132 0.180264 0.447038
O O16 0.762417 0.237584 0.436420
O O17 0.428813 0.857626 0.008407
O O18 0.257796 0.742205 0.988619
O O19 0.332930 0.883800 0.899618
O O20 0.177498 0.822503 0.843393
#
# Coordination Sequence:
#
# PCOD9578666 Si02
#       7
#    12  12  12  12  12  12  12
#     4  10  21  37  56  77 102 136 179 227 279 330
#     4   9  18  34  57  81 105 134 170 212 257 306
#     4  10  20  34  52  74 101 135 177 227 282 335
#     4  12  22  34  53  78 107 139 181 227 265 313
#     4  10  20  35  54  76 104 138 178 226 278 327
#     4   9  18  34  57  84 111 140 174 212 255 304
#     4  10  22  37  52  75 109 145 175 207 254 310
#
# _framework density 19.271372
#
# number of rings (size 3 to 8) (size 9 to 14) (size 15 to 20)
#    0.000    2.000    0.000    5.286    0.000   10.000 
#    0.000    0.000    0.000    4.286    0.000    2.000 
#    0.000    0.000    0.000    0.000    0.000    0.000 
#
# Total GULP energy -469152.409921 kJ/mol
# GULP energy per Si atom -5585.147737 kJ/mol
# Density = 1.922751 g / cm^3
# Si number density = 19.271372 Si / 1000 Ang^3
#
#
#
# Elastic Constant Matrix: (Units=GPa)
#
#
# Indices 1 2 3 4 5 6 
#
# 1 59.2837 22.3495 -2.6787 -6.9209 0.0000 0.0000
# 2 22.3495 59.2837 -2.6787 6.9209 0.0000 0.0000
# 3 -2.6787 -2.6787 12.6116 0.0000 0.0000 0.0000
# 4 -6.9209 6.9209 0.0000 10.5024 0.0000 0.0000
# 5 0.0000 0.0000 0.0000 0.0000 10.5024 -6.9209
# 6 0.0000 0.0000 0.0000 0.0000 -6.9209 18.4671
#
#
#
# Elastic Compliance Matrix: (Units=1/GPa)
#
#
# Indices 1 2 3 4 5 6 
#
# 1 0.024189 -0.011766 0.002639 0.023693 0.000000 0.000000
# 2 -0.011766 0.024189 0.002639 -0.023693 0.000000 0.000000
# 3 0.002639 0.002639 0.080413 0.000000 0.000000 0.000000
# 4 0.023693 -0.023693 0.000000 0.126444 0.000000 0.000000
# 5 0.000000 0.000000 0.000000 0.000000 0.126444 0.047387
# 6 0.000000 0.000000 0.000000 0.000000 0.047387 0.071909
#
#
# Mechanical properties :
#
#
# Convention : Reuss Voigt Hill
#
# Bulk Modulus (GPa) = 8.63454 18.35148 13.49301
# Shear Modulus (GPa) = 9.89768 15.50683 12.70225
#
# Velocity S-wave (km/s) = 2.26872 2.83972 2.57013
# Velocity P-wave (km/s) = 3.36943 4.50504 3.97796
#
# Compressibility (1/GPa) = 0.11581386
#
# Stress axis : x y z
#
# Youngs Moduli (GPa) = 41.34131 41.34131 12.43578
#
# Poissons Ratio (x) = 0.48641 -0.03281
# Poissons Ratio (y) = 0.48641 -0.03281
# Poissons Ratio (z) = -0.10909 -0.10909
#
# Static dielectric constant tensor:
#      x y z
#    x 1.660640 0.000000 0.000000 
#    y 0.000000 1.660640 0.000000 
#    z 0.000000 0.000000 1.681990 
# 
# From -- ./inp_files/3579.got.cif
#   From: 2010.05.17/outbox.cif.g08.bks.cpg/sg164_2_cif.got.tgz:3579.got - 2010.05.20 10:58:56.
