data_PCOD9578364
_publ_section_title
;
Structure prediction by ZEFSAII (Michael W. Deem and Ramdas Pophale) SiO2 
 PCOD9578364
Probable space group: P -3 M 1
;
_chemical_formula_sum "Si O2"
_cell_formula_units_Z 66
_cell_length_a 17.483315
_cell_length_b 17.483315
_cell_length_c 18.292504
_cell_angle_alpha 90.000000
_cell_angle_beta 90.000000
_cell_angle_gamma 120.000000
_cell_volume 4842.296242
_symmetry_space_group_name_H-M "P -3 M 1"
_symmetry_group_IT_number 164
_symmetry_cell_setting 'hexagonal'
loop_
_space_group_symop_operation_xyz
x,y,z
-y,x-y,z
-x+y,-x,z
x-y,-y,-z
-x,-x+y,-z
y,x,-z
-x,-y,-z
y,-x+y,-z
x-y,x,-z
-x+y,y,z
x,x-y,z
-y,-x,z
loop_
_atom_site_type_symbol
_atom_site_label
_atom_site_fract_x
_atom_site_fract_y
_atom_site_fract_z
Si Si1 0.300836 0.059220 0.928270
Si Si2 0.487644 0.153554 0.682902
Si Si3 0.705694 0.760226 0.356123
Si Si4 0.816157 0.816157 0.500000
Si Si5 0.333986 0.844575 0.141647
Si Si6 0.816813 0.999414 0.786230
O O1 0.295936 0.147968 0.942350
O O2 0.399691 0.091479 0.900418
O O3 0.234717 0.009565 0.861134
O O4 0.274831 0.000000 0.000000
O O5 0.574014 0.148028 0.663463
O O6 0.502297 0.251149 0.666782
O O7 0.396403 0.080891 0.646316
O O8 0.474562 0.141610 0.770851
O O9 0.702350 0.851175 0.353927
O O10 0.760356 0.766445 0.428066
O O11 0.757796 0.762860 0.283003
O O12 0.912592 0.825184 0.497371
O O13 0.427943 0.855886 0.121771
O O14 0.255427 0.744574 0.127772
O O15 0.821049 0.910525 0.784564
O O16 0.915132 0.084869 0.781446
#
# Coordination Sequence:
#
# PCOD9578364 Si02
#       6
#    12  12  12   6  12  12
#     4  10  19  30  42  59  84 113 143 176 214 252
#     4   9  15  26  44  66  88 111 137 169 210 258
#     4   9  17  29  43  62  87 112 139 174 215 249
#     4  10  19  30  45  64  88 118 150 182 213 248
#     4   9  16  27  44  64  85 108 136 171 212 258
#     4  10  18  29  43  59  80 110 147 182 213 249
#
# _framework density 13.629897
#
# number of rings (size 3 to 8) (size 9 to 14) (size 15 to 20)
#    0.000    2.545    1.818    1.727    0.000    1.818 
#    0.000    2.273    0.000    2.909    0.000    0.000 
#    0.000    0.000    0.000    8.000    0.000    0.000 
#
# Total GULP energy -367688.024177 kJ/mol
# GULP energy per Si atom -5571.030669 kJ/mol
# Density = 1.359887 g / cm^3
# Si number density = 13.629897 Si / 1000 Ang^3
#
#
#
# Elastic Constant Matrix: (Units=GPa)
#
#
# Indices 1 2 3 4 5 6 
#
# 1 92.8768 50.2095 51.3312 2.4984 0.0000 0.0000
# 2 50.2095 92.8768 51.3312 -2.4984 0.0000 0.0000
# 3 51.3312 51.3312 80.3422 0.0000 0.0000 0.0000
# 4 2.4984 -2.4984 0.0000 18.9771 0.0000 0.0000
# 5 0.0000 0.0000 0.0000 0.0000 18.9771 2.4984
# 6 0.0000 0.0000 0.0000 0.0000 2.4984 21.3336
#
#
#
# Elastic Compliance Matrix: (Units=1/GPa)
#
#
# Indices 1 2 3 4 5 6 
#
# 1 0.018354 -0.005450 -0.008245 -0.003134 0.000000 0.000000
# 2 -0.005450 0.018354 -0.008245 0.003134 0.000000 0.000000
# 3 -0.008245 -0.008245 0.022982 0.000000 0.000000 0.000000
# 4 -0.003134 0.003134 0.000000 0.053520 0.000000 0.000000
# 5 0.000000 0.000000 0.000000 0.000000 0.053520 -0.006268
# 6 0.000000 0.000000 0.000000 0.000000 -0.006268 0.047608
#
#
# Mechanical properties :
#
#
# Convention : Reuss Voigt Hill
#
# Bulk Modulus (GPa) = 63.24371 63.53773 63.39072
# Shear Modulus (GPa) = 18.97620 19.40583 19.19101
#
# Velocity S-wave (km/s) = 3.73533 3.77738 3.75642
# Velocity P-wave (km/s) = 8.06877 8.10817 8.08850
#
# Compressibility (1/GPa) = 0.01581185
#
# Stress axis : x y z
#
# Youngs Moduli (GPa) = 54.48352 54.48352 43.51274
#
# Poissons Ratio (x) = 0.29694 0.35874
# Poissons Ratio (y) = 0.29694 0.35874
# Poissons Ratio (z) = 0.44919 0.44919
#
# Static dielectric constant tensor:
#      x y z
#    x 1.434260 0.000000 0.000000 
#    y 0.000000 1.434260 0.000000 
#    z 0.000000 0.000000 1.437000 
# 
# From -- ./inp_files/3472.got.cif
#   From: 2010.05.17/outbox.cif.g08.bks.cpg/sg164_2_cif.got.tgz:3472.got - 2010.05.20 10:58:56.
