data_PCOD9578551
_publ_section_title
;
Structure prediction by ZEFSAII (Michael W. Deem and Ramdas Pophale) SiO2 
 PCOD9578551
Probable space group: P -3 M 1
;
_chemical_formula_sum "Si O2"
_cell_formula_units_Z 72
_cell_length_a 12.847766
_cell_length_b 12.847766
_cell_length_c 31.158917
_cell_angle_alpha 90.000000
_cell_angle_beta 90.000000
_cell_angle_gamma 120.000000
_cell_volume 4454.184704
_symmetry_space_group_name_H-M "P -3 M 1"
_symmetry_group_IT_number 164
_symmetry_cell_setting 'hexagonal'
loop_
_space_group_symop_operation_xyz
x,y,z
-y,x-y,z
-x+y,-x,z
x-y,-y,-z
-x,-x+y,-z
y,x,-z
-x,-y,-z
y,-x+y,-z
x-y,x,-z
-x+y,y,z
x,x-y,z
-y,-x,z
loop_
_atom_site_type_symbol
_atom_site_label
_atom_site_fract_x
_atom_site_fract_y
_atom_site_fract_z
Si Si1 0.247499 0.247499 0.500000
Si Si2 0.420044 0.086545 0.421758
Si Si3 0.247011 0.247011 0.000000
Si Si4 0.580295 0.913609 0.676663
Si Si5 0.246535 0.999922 0.754878
Si Si6 0.666434 0.086320 0.163708
Si Si7 0.419699 0.086350 0.918137
O O1 0.235985 0.117993 0.501734
O O2 0.313562 0.323214 0.542396
O O3 0.542188 0.084375 0.428425
O O4 0.444854 0.222427 0.425854
O O5 0.379729 0.048626 0.372558
O O6 0.304985 0.333193 0.040970
O O7 0.234329 0.117165 0.007696
O O8 0.458902 0.917804 0.684035
O O9 0.553109 0.776555 0.681136
O O10 0.681177 0.989964 0.711432
O O11 0.253504 0.126752 0.759178
O O12 0.307883 0.972000 0.794893
O O13 0.108427 0.891574 0.753644
O O14 0.550714 0.101428 0.170952
O O15 0.784847 0.215154 0.156172
O O16 0.638090 0.999652 0.122894
O O17 0.549394 0.098788 0.925931
O O18 0.432448 0.216224 0.910529
#
# Coordination Sequence:
#
# PCOD9578551 Si02
#       7
#     6  12   6  12  12  12  12
#     4  10  20  32  46  66  94 128 162 194 230 276
#     4   9  17  30  49  72  95 120 153 195 241 285
#     4  10  20  34  52  74 100 130 166 208 252 294
#     4   9  17  30  50  74  97 121 152 194 242 287
#     4  10  20  33  49  70  97 129 163 197 233 276
#     4  10  20  34  53  76 100 126 158 199 245 289
#     4  10  20  34  52  74 101 133 167 201 239 287
#
# _framework density 16.164574000000002
#
# number of rings (size 3 to 8) (size 9 to 14) (size 15 to 20)
#    0.000    2.333    0.000    3.000    0.000    2.000 
#    0.000    1.667    0.000   16.667    0.000    0.000 
#    0.000    0.000    0.000    0.000    0.000    0.000 
#
# Total GULP energy -401641.031997 kJ/mol
# GULP energy per Si atom -5578.347667 kJ/mol
# Density = 1.612778 g / cm^3
# Si number density = 16.164574 Si / 1000 Ang^3
#
#
#
# Elastic Constant Matrix: (Units=GPa)
#
#
# Indices 1 2 3 4 5 6 
#
# 1 119.7359 78.7698 83.7201 3.3771 0.0000 0.0000
# 2 78.7698 119.7359 83.7201 -3.3771 0.0000 0.0000
# 3 83.7201 83.7201 118.1121 0.0000 0.0000 0.0000
# 4 3.3771 -3.3771 0.0000 24.7253 0.0000 0.0000
# 5 0.0000 0.0000 0.0000 0.0000 24.7253 3.3771
# 6 0.0000 0.0000 0.0000 0.0000 3.3771 20.4831
#
#
#
# Elastic Compliance Matrix: (Units=1/GPa)
#
#
# Indices 1 2 3 4 5 6 
#
# 1 0.018750 -0.006222 -0.008880 -0.003411 0.000000 0.000000
# 2 -0.006222 0.018750 -0.008880 0.003411 0.000000 0.000000
# 3 -0.008880 -0.008880 0.021055 0.000000 0.000000 0.000000
# 4 -0.003411 0.003411 0.000000 0.041376 0.000000 0.000000
# 5 0.000000 0.000000 0.000000 0.000000 0.041376 -0.006822
# 6 0.000000 0.000000 0.000000 0.000000 -0.006822 0.049946
#
#
# Mechanical properties :
#
#
# Convention : Reuss Voigt Hill
#
# Bulk Modulus (GPa) = 94.42025 94.44487 94.43256
# Shear Modulus (GPa) = 20.59735 21.41165 21.00450
#
# Velocity S-wave (km/s) = 3.57351 3.64346 3.60865
# Velocity P-wave (km/s) = 8.69283 8.73233 8.71260
#
# Compressibility (1/GPa) = 0.01059095
#
# Stress axis : x y z
#
# Youngs Moduli (GPa) = 53.33217 53.33217 47.49398
#
# Poissons Ratio (x) = 0.33185 0.42175
# Poissons Ratio (y) = 0.33185 0.42175
# Poissons Ratio (z) = 0.47359 0.47359
#
# Static dielectric constant tensor:
#      x y z
#    x 1.510520 0.000000 0.000000 
#    y 0.000000 1.510520 0.000000 
#    z 0.000000 0.000000 1.535430 
# 
# From -- ./inp_files/5560.got.cif
#   From: 2010.05.17/outbox.cif.g08.bks.cpg/sg164_3_cif.got.tgz:5560.got - 2010.05.20 10:58:56.
