data_PCOD9578091
_publ_section_title
;
Structure prediction by ZEFSAII (Michael W. Deem and Ramdas Pophale) SiO2 
 PCOD9578091
Probable space group: P -3 1 C
;
_chemical_formula_sum "Si O2"
_cell_formula_units_Z 78
_cell_length_a 24.973889
_cell_length_b 24.973889
_cell_length_c 7.869717
_cell_angle_alpha 90.000000
_cell_angle_beta 90.000000
_cell_angle_gamma 120.000000
_cell_volume 4250.716111
_symmetry_space_group_name_H-M "P -3 1 C"
_symmetry_group_IT_number 163
_symmetry_cell_setting 'hexagonal'
loop_
_space_group_symop_operation_xyz
x,y,z
-y,x-y,z
-x+y,-x,z
-y,-x,1/2-z
-x+y,y,1/2-z
x,x-y,1/2-z
-x,-y,-z
y,-x+y,-z
x-y,x,-z
y,x,1/2+z
x-y,-y,1/2+z
-x,-x+y,1/2+z
loop_
_atom_site_type_symbol
_atom_site_label
_atom_site_fract_x
_atom_site_fract_y
_atom_site_fract_z
Si Si1 0.417995 0.467929 0.315365
Si Si2 0.252943 0.171362 0.603687
Si Si3 0.626813 0.913263 0.651354
Si Si4 0.644787 0.698978 0.247692
Si Si5 0.706989 0.853495 0.750000
Si Si6 0.511943 0.601539 0.793128
Si Si7 0.982559 0.098083 0.907947
O O1 0.463785 0.536215 0.250000
O O2 0.354499 0.426101 0.210409
O O3 0.406381 0.476027 0.510051
O O4 0.456303 0.431439 0.309832
O O5 0.254210 0.127105 0.750000
O O6 0.311949 0.238933 0.644996
O O7 0.257598 0.147602 0.418172
O O8 0.182925 0.159908 0.609589
O O9 0.637111 0.924207 0.447993
O O10 0.662488 0.879143 0.701374
O O11 0.556223 0.881025 0.719741
O O12 0.661689 0.980381 0.738456
O O13 0.439354 0.560647 0.750000
O O14 0.946361 0.053640 0.750000
O O15 0.051977 0.113734 0.942672
#
# Coordination Sequence:
#
# PCOD9578091 Si02
#       7
#    12  12  12  12   6  12  12
#     4   9  16  26  47  74 104 141 169 207 244 296
#     4  11  25  40  60  83 109 142 182 234 279 360
#     4  10  21  34  53  77 104 147 179 224 271 323
#     4  10  20  37  53  76 112 141 185 223 272 329
#     4  12  24  36  58  76 114 144 186 220 280 330
#     4   9  16  27  45  71 105 132 173 208 243 295
#     4  11  26  44  65  83 105 130 173 240 311 373
#
# _framework density 18.349848000000001
#
# number of rings (size 3 to 8) (size 9 to 14) (size 15 to 20)
#    0.000    1.846    1.538    3.385    4.308    4.923 
#    0.000    0.000    0.000    0.000    0.000    0.000 
#    0.769    0.000    0.000    0.462    3.077    0.000 
#
# Total GULP energy -434439.240221 kJ/mol
# GULP energy per Si atom -5569.733849 kJ/mol
# Density = 1.830808 g / cm^3
# Si number density = 18.349848 Si / 1000 Ang^3
#
#
#
# Elastic Constant Matrix: (Units=GPa)
#
#
# Indices 1 2 3 4 5 6 
#
# 1 81.8281 18.0195 13.0260 0.0001 -3.2849 0.0000
# 2 18.0195 81.8281 13.0260 -0.0001 3.2849 0.0000
# 3 13.0260 13.0260 69.1136 0.0000 0.0000 0.0000
# 4 0.0001 -0.0001 0.0000 20.9759 0.0000 3.2849
# 5 -3.2849 3.2849 0.0000 0.0000 20.9759 0.0001
# 6 0.0000 0.0000 0.0000 3.2849 0.0001 31.9043
#
#
#
# Elastic Compliance Matrix: (Units=1/GPa)
#
#
# Indices 1 2 3 4 5 6 
#
# 1 0.013231 -0.002698 -0.001985 0.000000 0.002495 0.000000
# 2 -0.002698 0.013231 -0.001985 0.000000 -0.002495 0.000000
# 3 -0.001985 -0.001985 0.015217 0.000000 0.000000 0.000000
# 4 0.000000 0.000000 0.000000 0.048455 0.000000 -0.004989
# 5 0.002495 -0.002495 0.000000 0.000000 0.048455 0.000000
# 6 0.000000 0.000000 0.000000 -0.004989 0.000000 0.031857
#
#
# Mechanical properties :
#
#
# Convention : Reuss Voigt Hill
#
# Bulk Modulus (GPa) = 35.28231 35.65700 35.46966
# Shear Modulus (GPa) = 25.87580 27.35111 26.61346
#
# Velocity S-wave (km/s) = 3.75925 3.86493 3.81246
# Velocity P-wave (km/s) = 6.17349 6.27622 6.22507
#
# Compressibility (1/GPa) = 0.02834282
#
# Stress axis : x y z
#
# Youngs Moduli (GPa) = 75.58026 75.58026 65.71489
#
# Poissons Ratio (x) = 0.20389 0.13046
# Poissons Ratio (y) = 0.20389 0.13046
# Poissons Ratio (z) = 0.15004 0.15004
#
# Static dielectric constant tensor:
#      x y z
#    x 1.680710 0.000000 0.000000 
#    y 0.000000 1.680710 0.000000 
#    z 0.000000 0.000000 1.747950 
# 
# From -- ./inp_files/1313.got.cif
#   From: 2010.05.17/outbox.cif.g08.bks.cpg/sg163_1_cif.got.tgz:1313.got - 2010.05.20 10:56:03.
