data_PCOD9578944
_publ_section_title
;
Structure prediction by ZEFSAII (Michael W. Deem and Ramdas Pophale) SiO2 
 PCOD9578944
Probable space group: P -3 C 1
;
_chemical_formula_sum "Si O2"
_cell_formula_units_Z 60
_cell_length_a 14.062798
_cell_length_b 14.062798
_cell_length_c 14.733030
_cell_angle_alpha 90.000000
_cell_angle_beta 90.000000
_cell_angle_gamma 120.000000
_cell_volume 2523.284279
_symmetry_space_group_name_H-M "P -3 C 1"
_symmetry_group_IT_number 165
_symmetry_cell_setting 'hexagonal'
loop_
_space_group_symop_operation_xyz
x,y,z
-y,x-y,z
-x+y,-x,z
x-y,-y,1/2-z
-x,-x+y,1/2-z
y,x,1/2-z
-x,-y,-z
y,-x+y,-z
x-y,x,-z
-x+y,y,1/2+z
x,x-y,1/2+z
-y,-x,1/2+z
loop_
_atom_site_type_symbol
_atom_site_label
_atom_site_fract_x
_atom_site_fract_y
_atom_site_fract_z
Si Si1 0.863973 0.327305 0.679222
Si Si2 0.835273 0.783879 0.516370
Si Si3 0.456929 0.169809 0.479376
Si Si4 0.122840 0.241052 0.786719
Si Si5 0.118453 0.500792 0.632353
O O1 0.799233 0.296086 0.584219
O O2 0.855650 0.219164 0.726493
O O3 0.837347 0.379990 0.765035
O O4 0.991228 0.408066 0.648504
O O5 0.818551 0.881868 0.549880
O O6 0.737681 0.667865 0.487280
O O7 0.890370 0.763041 0.604554
O O8 0.458855 0.269419 0.423649
O O9 0.529167 0.129989 0.426836
O O10 0.209010 0.209010 0.750000
O O11 0.000000 0.158854 0.750000
#
# Coordination Sequence:
#
# PCOD9578944 Si02
#       5
#    12  12  12  12  12
#     4  10  24  45  70 101 150 188 240 317 368 442
#     4  11  24  41  67 104 147 194 246 302 365 449
#     4  11  24  42  73 104 135 198 252 307 381 450
#     4  11  21  37  62  94 138 193 233 289 356 432
#     4  11  23  46  72  99 150 187 246 320 371 437
#
# _framework density 23.778532999999999
#
# number of rings (size 3 to 8) (size 9 to 14) (size 15 to 20)
#    0.000    1.200    2.000    5.000    2.800    1.600 
#    0.000    6.000    0.000    0.000    0.000    0.000 
#    0.000    0.000    0.000    0.000    0.000    0.000 
#
# Total GULP energy -335057.358227 kJ/mol
# GULP energy per Si atom -5584.289304 kJ/mol
# Density = 2.372441 g / cm^3
# Si number density = 23.778533 Si / 1000 Ang^3
#
#
#
# Elastic Constant Matrix: (Units=GPa)
#
#
# Indices 1 2 3 4 5 6 
#
# 1 77.9874 44.1108 25.2597 -8.4602 0.0000 0.0000
# 2 44.1108 77.9874 25.2597 8.4602 0.0000 0.0000
# 3 25.2597 25.2597 154.7258 0.0000 0.0000 0.0000
# 4 -8.4602 8.4602 0.0000 26.0754 0.0000 0.0000
# 5 0.0000 0.0000 0.0000 0.0000 26.0754 -8.4602
# 6 0.0000 0.0000 0.0000 0.0000 -8.4602 16.9383
#
#
#
# Elastic Compliance Matrix: (Units=1/GPa)
#
#
# Indices 1 2 3 4 5 6 
#
# 1 0.022006 -0.013222 -0.001434 0.011430 0.000000 0.000000
# 2 -0.013222 0.022006 -0.001434 -0.011430 0.000000 0.000000
# 3 -0.001434 -0.001434 0.006931 0.000000 0.000000 0.000000
# 4 0.011430 -0.011430 0.000000 0.045767 0.000000 0.000000
# 5 0.000000 0.000000 0.000000 0.000000 0.045767 0.022859
# 6 0.000000 0.000000 0.000000 0.000000 0.022859 0.070455
#
#
# Mechanical properties :
#
#
# Convention : Reuss Voigt Hill
#
# Bulk Modulus (GPa) = 53.29816 55.55119 54.42468
# Shear Modulus (GPa) = 19.89133 28.22251 24.05692
#
# Velocity S-wave (km/s) = 2.89541 3.44886 3.18419
# Velocity P-wave (km/s) = 5.80008 6.26675 6.03793
#
# Compressibility (1/GPa) = 0.01876237
#
# Stress axis : x y z
#
# Youngs Moduli (GPa) = 45.44312 45.44312 144.27437
#
# Poissons Ratio (x) = 0.60085 0.20688
# Poissons Ratio (y) = 0.60085 0.20688
# Poissons Ratio (z) = 0.06516 0.06516
#
# Static dielectric constant tensor:
#      x y z
#    x 2.065760 0.000000 0.000000 
#    y 0.000000 2.065760 0.000000 
#    z 0.000000 0.000000 2.104590 
# 
# From -- ./inp_files/1685.got.cif
#   From: 2010.05.17/outbox.cif.g08.bks.cpg/sg165_1_cif.got.tgz:1685.got - 2010.05.20 11:02:39.
