data_PCOD9578206
_publ_section_title
;
Structure prediction by ZEFSAII (Michael W. Deem and Ramdas Pophale) SiO2 
 PCOD9578206
Probable space group: P -3 1 C
;
_chemical_formula_sum "Si O2"
_cell_formula_units_Z 48
_cell_length_a 11.213013
_cell_length_b 11.213013
_cell_length_c 20.010781
_cell_angle_alpha 90.000000
_cell_angle_beta 90.000000
_cell_angle_gamma 120.000000
_cell_volume 2178.910150
_symmetry_space_group_name_H-M "P -3 1 C"
_symmetry_group_IT_number 163
_symmetry_cell_setting 'hexagonal'
loop_
_space_group_symop_operation_xyz
x,y,z
-y,x-y,z
-x+y,-x,z
-y,-x,1/2-z
-x+y,y,1/2-z
x,x-y,1/2-z
-x,-y,-z
y,-x+y,-z
x-y,x,-z
y,x,1/2+z
x-y,-y,1/2+z
-x,-x+y,1/2+z
loop_
_atom_site_type_symbol
_atom_site_label
_atom_site_fract_x
_atom_site_fract_y
_atom_site_fract_z
Si Si1 0.751116 0.043425 0.616171
Si Si2 0.704521 0.741295 0.595938
Si Si3 0.333146 0.383874 0.755474
Si Si4 0.518133 0.169071 0.985360
O O1 0.653903 0.092978 0.581571
O O2 0.899933 0.149568 0.584761
O O3 0.720885 0.892130 0.597510
O O4 0.722948 0.033548 0.695915
O O5 0.671400 0.678745 0.670172
O O6 0.578106 0.657268 0.545745
O O7 0.478258 0.521743 0.750000
O O8 0.208300 0.416600 0.750000
O O9 0.677957 0.212483 0.988282
#
# Coordination Sequence:
#
# PCOD9578206 Si02
#       4
#    12  12  12  12
#     4  11  24  44  68 104 140 187 233 291 350 422
#     4  11  24  43  71 100 143 185 236 288 350 424
#     4  10  24  40  68 100 140 185 234 290 348 423
#     4  10  26  43  69 106 141 184 232 291 352 416
#
# _framework density 22.02936
#
# number of rings (size 3 to 8) (size 9 to 14) (size 15 to 20)
#    0.500    1.000    0.000    3.000   10.500    2.000 
#    0.000    5.000    0.000    0.000    0.000    0.000 
#    0.000    0.000    0.000    0.000    0.000    0.000 
#
# Total GULP energy -268062.473938 kJ/mol
# GULP energy per Si atom -5584.634874 kJ/mol
# Density = 2.197922 g / cm^3
# Si number density = 22.029360 Si / 1000 Ang^3
#
#
#
# Elastic Constant Matrix: (Units=GPa)
#
#
# Indices 1 2 3 4 5 6 
#
# 1 110.0605 32.2937 31.6525 0.0006 -0.0304 0.0000
# 2 32.2937 110.0605 31.6525 -0.0006 0.0304 0.0000
# 3 31.6525 31.6525 119.5232 0.0000 0.0000 0.0000
# 4 0.0006 -0.0006 0.0000 30.7742 0.0000 0.0304
# 5 -0.0304 0.0304 0.0000 0.0000 30.7742 0.0006
# 6 0.0000 0.0000 0.0000 0.0304 0.0006 38.8834
#
#
#
# Elastic Compliance Matrix: (Units=1/GPa)
#
#
# Indices 1 2 3 4 5 6 
#
# 1 0.010411 -0.002448 -0.002109 0.000000 0.000013 0.000000
# 2 -0.002448 0.010411 -0.002109 0.000000 -0.000013 0.000000
# 3 -0.002109 -0.002109 0.009483 0.000000 0.000000 0.000000
# 4 0.000000 0.000000 0.000000 0.032495 0.000000 -0.000025
# 5 0.000013 -0.000013 0.000000 0.000000 0.032495 0.000000
# 6 0.000000 0.000000 0.000000 -0.000025 0.000000 0.025718
#
#
# Mechanical properties :
#
#
# Convention : Reuss Voigt Hill
#
# Bulk Modulus (GPa) = 58.91453 58.98240 58.94847
# Shear Modulus (GPa) = 35.71397 36.35608 36.03502
#
# Velocity S-wave (km/s) = 4.03078 4.06685 4.04886
# Velocity P-wave (km/s) = 6.96165 6.99178 6.97673
#
# Compressibility (1/GPa) = 0.01697374
#
# Stress axis : x y z
#
# Youngs Moduli (GPa) = 96.05499 96.05499 105.44732
#
# Poissons Ratio (x) = 0.23517 0.22235
# Poissons Ratio (y) = 0.23517 0.22235
# Poissons Ratio (z) = 0.20255 0.20255
#
# Static dielectric constant tensor:
#      x y z
#    x 1.809620 0.000000 0.000000 
#    y 0.000000 1.809620 0.000000 
#    z 0.000000 0.000000 1.809460 
# 
# From -- ./inp_files/3424.got.cif
#   From: 2010.05.17/outbox.cif.g08.bks.cpg/sg163_2_cif.got.tgz:3424.got - 2010.05.20 10:56:03.
