data_PCOD9578616
_publ_section_title
;
Structure prediction by ZEFSAII (Michael W. Deem and Ramdas Pophale) SiO2 
 PCOD9578616
Probable space group: P -3 M 1
;
_chemical_formula_sum "Si O2"
_cell_formula_units_Z 54
_cell_length_a 12.943988
_cell_length_b 12.943988
_cell_length_c 23.237778
_cell_angle_alpha 90.000000
_cell_angle_beta 90.000000
_cell_angle_gamma 120.000000
_cell_volume 3371.797105
_symmetry_space_group_name_H-M "P -3 M 1"
_symmetry_group_IT_number 164
_symmetry_cell_setting 'hexagonal'
loop_
_space_group_symop_operation_xyz
x,y,z
-y,x-y,z
-x+y,-x,z
x-y,-y,-z
-x,-x+y,-z
y,x,-z
-x,-y,-z
y,-x+y,-z
x-y,x,-z
-x+y,y,z
x,x-y,z
-y,-x,z
loop_
_atom_site_type_symbol
_atom_site_label
_atom_site_fract_x
_atom_site_fract_y
_atom_site_fract_z
Si Si1 0.666769 0.576200 0.789220
Si Si2 0.421680 0.088380 0.446564
Si Si3 0.754281 0.754281 0.000000
Si Si4 0.333110 0.422637 0.344247
Si Si5 0.578574 0.911440 0.892400
O O1 0.793297 0.586594 0.801671
O O2 0.561319 0.438682 0.794517
O O3 0.666559 0.610774 0.722565
O O4 0.635563 0.649739 0.834178
O O5 0.558489 0.116978 0.446328
O O6 0.415791 0.207896 0.451460
O O7 0.358509 0.000000 0.500000
O O8 0.361018 0.015707 0.388360
O O9 0.694859 0.669693 0.055103
O O10 0.883145 0.766290 0.991007
O O11 0.208006 0.416012 0.356430
O O12 0.441183 0.558818 0.351247
O O13 0.454653 0.909305 0.902686
O O14 0.557155 0.778578 0.887384
#
# Coordination Sequence:
#
# PCOD9578616 Si02
#       5
#    12  12   6  12  12
#     4   9  17  30  49  73  98 124 156 194 235 277
#     4  10  20  33  50  72  97 125 157 195 238 283
#     4  10  20  34  52  72  94 122 158 200 242 284
#     4   9  17  30  50  74  98 124 155 193 235 278
#     4  10  20  33  49  70  97 128 160 194 235 284
#
# _framework density 16.015198999999999
#
# number of rings (size 3 to 8) (size 9 to 14) (size 15 to 20)
#    0.000    2.444    0.000    2.667    0.000    2.667 
#    0.000    2.222    0.000   14.222    0.000    0.000 
#    0.000    0.000    0.000    0.000    0.000    0.000 
#
# Total GULP energy -301168.995694 kJ/mol
# GULP energy per Si atom -5577.203624 kJ/mol
# Density = 1.597875 g / cm^3
# Si number density = 16.015199 Si / 1000 Ang^3
#
#
#
# Elastic Constant Matrix: (Units=GPa)
#
#
# Indices 1 2 3 4 5 6 
#
# 1 119.1135 81.4760 81.0352 -1.8446 0.0000 0.0000
# 2 81.4760 119.1135 81.0352 1.8446 0.0000 0.0000
# 3 81.0352 81.0352 102.5995 0.0000 0.0000 0.0000
# 4 -1.8446 1.8446 0.0000 24.4116 0.0000 0.0000
# 5 0.0000 0.0000 0.0000 0.0000 24.4116 -1.8446
# 6 0.0000 0.0000 0.0000 0.0000 -1.8446 18.8188
#
#
#
# Elastic Compliance Matrix: (Units=1/GPa)
#
#
# Indices 1 2 3 4 5 6 
#
# 1 0.020272 -0.006495 -0.010882 0.002023 0.000000 0.000000
# 2 -0.006495 0.020272 -0.010882 -0.002023 0.000000 0.000000
# 3 -0.010882 -0.010882 0.026936 0.000000 0.000000 0.000000
# 4 0.002023 -0.002023 0.000000 0.041270 0.000000 0.000000
# 5 0.000000 0.000000 0.000000 0.000000 0.041270 0.004045
# 6 0.000000 0.000000 0.000000 0.000000 0.004045 0.053535
#
#
# Mechanical properties :
#
#
# Convention : Reuss Voigt Hill
#
# Bulk Modulus (GPa) = 91.20862 91.99103 91.59982
# Shear Modulus (GPa) = 18.95904 20.01373 19.48638
#
# Velocity S-wave (km/s) = 3.44439 3.53890 3.49197
# Velocity P-wave (km/s) = 8.53776 8.61760 8.57777
#
# Compressibility (1/GPa) = 0.01096388
#
# Stress axis : x y z
#
# Youngs Moduli (GPa) = 49.32813 49.32813 37.12549
#
# Poissons Ratio (x) = 0.32039 0.40399
# Poissons Ratio (y) = 0.32039 0.40399
# Poissons Ratio (z) = 0.53677 0.53677
#
# Static dielectric constant tensor:
#      x y z
#    x 1.505480 0.000000 0.000000 
#    y 0.000000 1.505480 0.000000 
#    z 0.000000 0.000000 1.536130 
# 
# From -- ./inp_files/4835.got.cif
#   From: 2010.05.17/outbox.cif.g08.bks.cpg/sg164_3_cif.got.tgz:4835.got - 2010.05.20 10:58:56.
