data_PCOD9578610
_publ_section_title
;
Structure prediction by ZEFSAII (Michael W. Deem and Ramdas Pophale) SiO2 
 PCOD9578610
Probable space group: P -3 M 1
;
_chemical_formula_sum "Si O2"
_cell_formula_units_Z 66
_cell_length_a 12.949653
_cell_length_b 12.949653
_cell_length_c 29.105502
_cell_angle_alpha 90.000000
_cell_angle_beta 90.000000
_cell_angle_gamma 120.000000
_cell_volume 4226.900145
_symmetry_space_group_name_H-M "P -3 M 1"
_symmetry_group_IT_number 164
_symmetry_cell_setting 'hexagonal'
loop_
_space_group_symop_operation_xyz
x,y,z
-y,x-y,z
-x+y,-x,z
x-y,-y,-z
-x,-x+y,-z
y,x,-z
-x,-y,-z
y,-x+y,-z
x-y,x,-z
-x+y,y,z
x,x-y,z
-y,-x,z
loop_
_atom_site_type_symbol
_atom_site_label
_atom_site_fract_x
_atom_site_fract_y
_atom_site_fract_z
Si Si1 0.422057 0.333002 0.713197
Si Si2 0.246463 0.000000 0.000000
Si Si3 0.755140 0.000574 0.370559
Si Si4 0.666316 0.578438 0.817800
Si Si5 0.578625 0.666545 0.543247
Si Si6 0.752424 0.753072 0.899666
O O1 0.453495 0.226748 0.710394
O O2 0.540505 0.459496 0.705194
O O3 0.322040 0.303528 0.675268
O O4 0.379064 0.330993 0.765443
O O5 0.299931 0.998237 0.049739
O O6 0.233020 0.116510 0.000860
O O7 0.887903 0.112097 0.365518
O O8 0.693954 0.030072 0.412802
O O9 0.757926 0.878963 0.378842
O O10 0.779381 0.558761 0.822393
O O11 0.545618 0.454383 0.823296
O O12 0.680373 0.670015 0.857302
O O13 0.636730 0.636730 0.500000
O O14 0.568137 0.784069 0.534669
O O15 0.448840 0.551161 0.551176
O O16 0.885065 0.770130 0.897626
O O17 0.759581 0.879791 0.896246
#
# Coordination Sequence:
#
# PCOD9578610 Si02
#       6
#    12   6  12  12  12  12
#     4   9  17  30  48  68  88 112 145 185 226 264
#     4   8  13  22  37  58  84 112 142 176 216 262
#     4  10  20  33  49  70  97 127 155 183 220 269
#     4   9  17  29  45  64  86 113 145 181 220 262
#     4  10  20  34  52  73  97 125 158 196 235 273
#     4   9  16  26  42  64  88 113 142 179 223 268
#
# _framework density 15.614279
#
# number of rings (size 3 to 8) (size 9 to 14) (size 15 to 20)
#    0.000    2.727    0.000    2.091    0.000    3.636 
#    0.000    0.455    0.000   11.636    0.000    0.000 
#    0.000    0.000    0.000    0.000    0.000    0.000 
#
# Total GULP energy -367529.792430 kJ/mol
# GULP energy per Si atom -5568.633219 kJ/mol
# Density = 1.557874 g / cm^3
# Si number density = 15.614279 Si / 1000 Ang^3
#
#
#
# Elastic Constant Matrix: (Units=GPa)
#
#
# Indices 1 2 3 4 5 6 
#
# 1 79.2975 49.8155 74.0885 -1.2245 0.0000 0.0000
# 2 49.8155 79.2975 74.0885 1.2245 0.0000 0.0000
# 3 74.0885 74.0885 141.2426 0.0000 0.0000 0.0000
# 4 -1.2245 1.2245 0.0000 23.9166 0.0000 0.0000
# 5 0.0000 0.0000 0.0000 0.0000 23.9166 -1.2245
# 6 0.0000 0.0000 0.0000 0.0000 -1.2245 14.7410
#
#
#
# Elastic Compliance Matrix: (Units=1/GPa)
#
#
# Indices 1 2 3 4 5 6 
#
# 1 0.026762 -0.007302 -0.010208 0.001744 0.000000 0.000000
# 2 -0.007302 0.026762 -0.010208 -0.001744 0.000000 0.000000
# 3 -0.010208 -0.010208 0.017789 0.000000 0.000000 0.000000
# 4 0.001744 -0.001744 0.000000 0.041991 0.000000 0.000000
# 5 0.000000 0.000000 0.000000 0.000000 0.041991 0.003488
# 6 0.000000 0.000000 0.000000 0.000000 0.003488 0.068128
#
#
# Mechanical properties :
#
#
# Convention : Reuss Voigt Hill
#
# Bulk Modulus (GPa) = 62.97966 77.31359 70.14663
# Shear Modulus (GPa) = 17.59637 19.30450 18.45044
#
# Velocity S-wave (km/s) = 3.36064 3.51997 3.44123
# Velocity P-wave (km/s) = 7.44854 8.13280 7.79818
#
# Compressibility (1/GPa) = 0.01587814
#
# Stress axis : x y z
#
# Youngs Moduli (GPa) = 37.36638 37.36638 56.21471
#
# Poissons Ratio (x) = 0.27284 0.57383
# Poissons Ratio (y) = 0.27284 0.57383
# Poissons Ratio (z) = 0.38143 0.38143
#
# Static dielectric constant tensor:
#      x y z
#    x 1.489570 0.000000 0.000000 
#    y 0.000000 1.489570 0.000000 
#    z 0.000000 0.000000 1.545710 
# 
# From -- ./inp_files/5438.got.cif
#   From: 2010.05.17/outbox.cif.g08.bks.cpg/sg164_3_cif.got.tgz:5438.got - 2010.05.20 10:58:56.
