data_PCOD9578470
_publ_section_title
;
Structure prediction by ZEFSAII (Michael W. Deem and Ramdas Pophale) SiO2 
 PCOD9578470
Probable space group: P -3 M 1
;
_chemical_formula_sum "Si O2"
_cell_formula_units_Z 72
_cell_length_a 23.919799
_cell_length_b 23.919799
_cell_length_c 8.808435
_cell_angle_alpha 90.000000
_cell_angle_beta 90.000000
_cell_angle_gamma 120.000000
_cell_volume 4364.599891
_symmetry_space_group_name_H-M "P -3 M 1"
_symmetry_group_IT_number 164
_symmetry_cell_setting 'hexagonal'
loop_
_space_group_symop_operation_xyz
x,y,z
-y,x-y,z
-x+y,-x,z
x-y,-y,-z
-x,-x+y,-z
y,x,-z
-x,-y,-z
y,-x+y,-z
x-y,x,-z
-x+y,y,z
x,x-y,z
-y,-x,z
loop_
_atom_site_type_symbol
_atom_site_label
_atom_site_fract_x
_atom_site_fract_y
_atom_site_fract_z
Si Si1 0.248617 0.989242 0.178823
Si Si2 0.131368 0.000040 0.682055
Si Si3 0.064395 0.366769 0.600692
Si Si4 0.742510 0.131030 0.700818
Si Si5 0.086214 0.606682 0.156581
Si Si6 0.597761 0.069187 0.194539
O O1 0.244367 0.921429 0.216776
O O2 0.185668 0.991221 0.233481
O O3 0.309592 0.041973 0.276918
O O4 0.258353 0.000000 0.000000
O O5 0.067348 0.932653 0.720914
O O6 0.141861 0.000000 0.500000
O O7 0.121232 0.060616 0.714629
O O8 0.115997 0.373416 0.477442
O O9 0.088084 0.433179 0.688836
O O10 0.000000 0.347558 0.500000
O O11 0.797935 0.202066 0.739171
O O12 0.672260 0.117997 0.749671
O O13 0.106464 0.553232 0.194415
O O14 0.008922 0.570954 0.182831
O O15 0.095160 0.619960 0.975846
O O16 0.542873 0.085745 0.241744
#
# Coordination Sequence:
#
# PCOD9578470 Si02
#       6
#    12  12  12  12  12  12
#     4  11  22  36  54  74 103 136 175 215 268 326
#     4  10  21  38  58  76  94 122 166 219 271 323
#     4  10  19  31  48  73 106 138 168 205 247 307
#     4  11  22  35  51  76 110 145 179 217 262 313
#     4   9  17  31  54  80 107 136 169 208 253 306
#     4   9  16  29  52  81 108 133 161 204 259 308
#
# _framework density 16.496357
#
# number of rings (size 3 to 8) (size 9 to 14) (size 15 to 20)
#    0.000    2.000    3.333    4.167    0.000    5.000 
#    0.000    2.500    0.000    1.333    0.000    0.000 
#    0.000    1.333    0.000    0.000    0.000    0.000 
#
# Total GULP energy -401643.134525 kJ/mol
# GULP energy per Si atom -5578.376868 kJ/mol
# Density = 1.645881 g / cm^3
# Si number density = 16.496357 Si / 1000 Ang^3
#
#
#
# Elastic Constant Matrix: (Units=GPa)
#
#
# Indices 1 2 3 4 5 6 
#
# 1 74.8597 57.5057 47.1317 -1.2216 0.0000 0.0000
# 2 57.5057 74.8597 47.1317 1.2216 0.0000 0.0000
# 3 47.1317 47.1317 88.4284 0.0000 0.0000 0.0000
# 4 -1.2216 1.2216 0.0000 7.6800 0.0000 0.0000
# 5 0.0000 0.0000 0.0000 0.0000 7.6800 -1.2216
# 6 0.0000 0.0000 0.0000 0.0000 -1.2216 8.6770
#
#
#
# Elastic Compliance Matrix: (Units=1/GPa)
#
#
# Indices 1 2 3 4 5 6 
#
# 1 0.035560 -0.023383 -0.006490 0.009376 0.000000 0.000000
# 2 -0.023383 0.035560 -0.006490 -0.009376 0.000000 0.000000
# 3 -0.006490 -0.006490 0.018227 0.000000 0.000000 0.000000
# 4 0.009376 -0.009376 0.000000 0.133191 0.000000 0.000000
# 5 0.000000 0.000000 0.000000 0.000000 0.133191 0.018751
# 6 0.000000 0.000000 0.000000 0.000000 0.018751 0.117887
#
#
# Mechanical properties :
#
#
# Convention : Reuss Voigt Hill
#
# Bulk Modulus (GPa) = 60.16853 60.18732 60.17792
# Shear Modulus (GPa) = 9.05989 10.56599 9.81294
#
# Velocity S-wave (km/s) = 2.34606 2.53356 2.44161
# Velocity P-wave (km/s) = 6.62508 6.71737 6.67138
#
# Compressibility (1/GPa) = 0.01661998
#
# Stress axis : x y z
#
# Youngs Moduli (GPa) = 28.12135 28.12135 54.86375
#
# Poissons Ratio (x) = 0.65757 0.35607
# Poissons Ratio (y) = 0.65757 0.35607
# Poissons Ratio (z) = 0.18251 0.18251
#
# Static dielectric constant tensor:
#      x y z
#    x 1.546720 0.000000 0.000000 
#    y 0.000000 1.546720 0.000000 
#    z 0.000000 0.000000 1.571680 
# 
# From -- ./inp_files/1955.got.cif
#   From: 2010.05.17/outbox.cif.g08.bks.cpg/sg164_1_cif.got.tgz:1955.got - 2010.05.20 10:58:56.
