data_PCOD9578908
_publ_section_title
;
Structure prediction by ZEFSAII (Michael W. Deem and Ramdas Pophale) SiO2 
 PCOD9578908
Probable space group: P -3 C 1
;
_chemical_formula_sum "Si O2"
_cell_formula_units_Z 60
_cell_length_a 15.851405
_cell_length_b 15.851405
_cell_length_c 15.365592
_cell_angle_alpha 90.000000
_cell_angle_beta 90.000000
_cell_angle_gamma 120.000000
_cell_volume 3343.608753
_symmetry_space_group_name_H-M "P -3 C 1"
_symmetry_group_IT_number 165
_symmetry_cell_setting 'hexagonal'
loop_
_space_group_symop_operation_xyz
x,y,z
-y,x-y,z
-x+y,-x,z
x-y,-y,1/2-z
-x,-x+y,1/2-z
y,x,1/2-z
-x,-y,-z
y,-x+y,-z
x-y,x,-z
-x+y,y,1/2+z
x,x-y,1/2+z
-y,-x,1/2+z
loop_
_atom_site_type_symbol
_atom_site_label
_atom_site_fract_x
_atom_site_fract_y
_atom_site_fract_z
Si Si1 0.739274 0.124207 0.052786
Si Si2 0.568347 0.113516 0.520408
Si Si3 0.594019 0.113906 0.723518
Si Si4 0.374719 0.106940 0.929578
Si Si5 0.746019 0.185362 0.248780
O O1 0.764131 0.156449 0.153049
O O2 0.685368 0.007438 0.050333
O O3 0.660607 0.155541 0.020583
O O4 0.831677 0.175596 0.990694
O O5 0.606016 0.122689 0.618944
O O6 0.657072 0.145554 0.454525
O O7 0.500000 0.000000 0.500000
O O8 0.524307 0.157222 0.747062
O O9 0.700469 0.179565 0.763542
O O10 0.540857 0.000000 0.750000
O O11 0.369857 0.126122 0.828215
#
# Coordination Sequence:
#
# PCOD9578908 Si02
#       5
#    12  12  12  12  12
#     4  10  22  40  57  86 114 155 200 251 303 356
#     4   9  19  36  56  79 115 152 194 246 296 350
#     4  11  22  38  58  85 124 161 209 258 307 367
#     4  11  22  37  61  81 119 156 200 250 300 361
#     4  11  23  37  57  87 123 161 203 255 312 362
#
# _framework density 17.944683000000001
#
# number of rings (size 3 to 8) (size 9 to 14) (size 15 to 20)
#    0.000    1.600    2.000    4.600    8.400    0.000 
#    1.200    0.000    0.000    0.400    0.000    0.000 
#    0.000    0.000    0.000    0.000    0.000    0.000 
#
# Total GULP energy -334829.932461 kJ/mol
# GULP energy per Si atom -5580.498874 kJ/mol
# Density = 1.790384 g / cm^3
# Si number density = 17.944683 Si / 1000 Ang^3
#
#
#
# Elastic Constant Matrix: (Units=GPa)
#
#
# Indices 1 2 3 4 5 6 
#
# 1 84.3343 39.6663 26.5937 1.4570 0.0000 0.0000
# 2 39.6663 84.3343 26.5937 -1.4570 0.0000 0.0000
# 3 26.5937 26.5937 86.7191 0.0000 0.0000 0.0000
# 4 1.4570 -1.4570 0.0000 26.1957 0.0000 0.0000
# 5 0.0000 0.0000 0.0000 0.0000 26.1957 1.4570
# 6 0.0000 0.0000 0.0000 0.0000 1.4570 22.3340
#
#
#
# Elastic Compliance Matrix: (Units=1/GPa)
#
#
# Indices 1 2 3 4 5 6 
#
# 1 0.015877 -0.006592 -0.002848 -0.001250 0.000000 0.000000
# 2 -0.006592 0.015877 -0.002848 0.001250 0.000000 0.000000
# 3 -0.002848 -0.002848 0.013278 0.000000 0.000000 0.000000
# 4 -0.001250 0.001250 0.000000 0.038313 0.000000 0.000000
# 5 0.000000 0.000000 0.000000 0.000000 0.038313 -0.002499
# 6 0.000000 0.000000 0.000000 0.000000 -0.002499 0.044938
#
#
# Mechanical properties :
#
#
# Convention : Reuss Voigt Hill
#
# Bulk Modulus (GPa) = 48.87769 49.01054 48.94412
# Shear Modulus (GPa) = 25.25371 25.78066 25.51719
#
# Velocity S-wave (km/s) = 3.75548 3.79446 3.77502
# Velocity P-wave (km/s) = 6.78984 6.82412 6.80700
#
# Compressibility (1/GPa) = 0.02045923
#
# Stress axis : x y z
#
# Youngs Moduli (GPa) = 62.98251 62.98251 75.31236
#
# Poissons Ratio (x) = 0.41515 0.21446
# Poissons Ratio (y) = 0.41515 0.21446
# Poissons Ratio (z) = 0.17935 0.17935
#
# Static dielectric constant tensor:
#      x y z
#    x 1.635570 0.000000 0.000000 
#    y 0.000000 1.635570 0.000000 
#    z 0.000000 0.000000 1.662100 
# 
# From -- ./inp_files/1670.got.cif
#   From: 2010.05.17/outbox.cif.g08.bks.cpg/sg165_1_cif.got.tgz:1670.got - 2010.05.20 11:02:39.
