data_PCOD9578829
_publ_section_title
;
Structure prediction by ZEFSAII (Michael W. Deem and Ramdas Pophale) SiO2 
 PCOD9578829
Probable space group: P -3 C 1
;
_chemical_formula_sum "Si O2"
_cell_formula_units_Z 78
_cell_length_a 23.868146
_cell_length_b 23.868146
_cell_length_c 8.830858
_cell_angle_alpha 90.000000
_cell_angle_beta 90.000000
_cell_angle_gamma 120.000000
_cell_volume 4356.832910
_symmetry_space_group_name_H-M "P -3 C 1"
_symmetry_group_IT_number 165
_symmetry_cell_setting 'hexagonal'
loop_
_space_group_symop_operation_xyz
x,y,z
-y,x-y,z
-x+y,-x,z
x-y,-y,1/2-z
-x,-x+y,1/2-z
y,x,1/2-z
-x,-y,-z
y,-x+y,-z
x-y,x,-z
-x+y,y,1/2+z
x,x-y,1/2+z
-y,-x,1/2+z
loop_
_atom_site_type_symbol
_atom_site_label
_atom_site_fract_x
_atom_site_fract_y
_atom_site_fract_z
Si Si1 0.777259 0.942433 0.854227
Si Si2 0.219411 0.677715 0.194471
Si Si3 0.068972 0.813967 0.180813
Si Si4 0.395871 0.161071 0.753409
Si Si5 0.284032 0.407980 0.590672
Si Si6 0.000000 0.694736 0.750000
Si Si7 0.792701 0.347623 0.451706
O O1 0.759043 0.873366 0.789606
O O2 0.830759 0.000000 0.750000
O O3 0.717456 0.956333 0.842586
O O4 0.787671 0.942855 0.031476
O O5 0.172481 0.708170 0.184695
O O6 0.196925 0.612827 0.100999
O O7 0.289850 0.731716 0.135598
O O8 0.222481 0.663244 0.370620
O O9 0.108351 0.776146 0.160845
O O10 0.000000 0.766335 0.250000
O O11 0.400032 0.229571 0.788043
O O12 0.390261 0.140730 0.575854
O O13 0.312847 0.362912 0.642887
O O14 0.336508 0.483738 0.581696
#
# Coordination Sequence:
#
# PCOD9578829 Si02
#       7
#    12  12  12  12  12   6  12
#     4  10  22  36  55  84 115 141 183 220 272 317
#     4  10  20  34  54  76 111 139 180 230 273 332
#     4  12  21  35  59  84 114 147 179 227 269 321
#     4  10  20  35  54  82 108 141 182 222 274 321
#     4  10  20  35  57  78 110 142 181 226 270 327
#     4  10  20  36  56  78 112 140 180 226 268 316
#     4  10  20  34  53  80 104 143 182 223 280 327
#
# _framework density 17.902913000000002
#
# number of rings (size 3 to 8) (size 9 to 14) (size 15 to 20)
#    0.462    1.231    1.538    4.000    0.000    1.231 
#    0.000    0.000    1.692    2.154    0.000    2.154 
#    0.000    0.000    0.000    0.000    0.000    0.000 
#
# Total GULP energy -434745.846352 kJ/mol
# GULP energy per Si atom -5573.664697 kJ/mol
# Density = 1.786217 g / cm^3
# Si number density = 17.902913 Si / 1000 Ang^3
#
#
#
# Elastic Constant Matrix: (Units=GPa)
#
#
# Indices 1 2 3 4 5 6 
#
# 1 60.8551 53.3413 9.9001 -1.4399 0.0000 0.0000
# 2 53.3413 60.8551 9.9001 1.4399 0.0000 0.0000
# 3 9.9001 9.9001 43.2010 0.0000 0.0000 0.0000
# 4 -1.4399 1.4399 0.0000 10.7539 0.0000 0.0000
# 5 0.0000 0.0000 0.0000 0.0000 10.7539 -1.4399
# 6 0.0000 0.0000 0.0000 0.0000 -1.4399 3.7569
#
#
#
# Elastic Compliance Matrix: (Units=1/GPa)
#
#
# Indices 1 2 3 4 5 6 
#
# 1 0.074703 -0.065584 -0.002090 0.018784 0.000000 0.000000
# 2 -0.065584 0.074703 -0.002090 -0.018784 0.000000 0.000000
# 3 -0.002090 -0.002090 0.024105 0.000000 0.000000 0.000000
# 4 0.018784 -0.018784 0.000000 0.098019 0.000000 0.000000
# 5 0.000000 0.000000 0.000000 0.000000 0.098019 0.037568
# 6 0.000000 0.000000 0.000000 0.000000 0.037568 0.280575
#
#
# Mechanical properties :
#
#
# Convention : Reuss Voigt Hill
#
# Bulk Modulus (GPa) = 29.42508 34.57714 32.00111
# Shear Modulus (GPa) = 6.24234 11.17093 8.70663
#
# Velocity S-wave (km/s) = 1.86932 2.50065 2.20767
# Velocity P-wave (km/s) = 4.59682 5.26244 4.94085
#
# Compressibility (1/GPa) = 0.03398462
#
# Stress axis : x y z
#
# Youngs Moduli (GPa) = 13.38628 13.38628 41.48446
#
# Poissons Ratio (x) = 0.87793 0.08669
# Poissons Ratio (y) = 0.87793 0.08669
# Poissons Ratio (z) = 0.02797 0.02797
#
# Static dielectric constant tensor:
#      x y z
#    x 1.615940 0.000000 0.000000 
#    y 0.000000 1.615940 0.000000 
#    z 0.000000 0.000000 1.647350 
# 
# From -- ./inp_files/818.got.cif
#   From: 2010.05.17/outbox.cif.g08.bks.cpg/sg165_1_cif.got.tgz:818.got - 2010.05.20 11:02:39.
