data_PCOD9578359
_publ_section_title
;
Structure prediction by ZEFSAII (Michael W. Deem and Ramdas Pophale) SiO2 
 PCOD9578359
Probable space group: P -3 M 1
;
_chemical_formula_sum "Si O2"
_cell_formula_units_Z 78
_cell_length_a 17.920996
_cell_length_b 17.920996
_cell_length_c 16.187337
_cell_angle_alpha 90.000000
_cell_angle_beta 90.000000
_cell_angle_gamma 120.000000
_cell_volume 4502.257454
_symmetry_space_group_name_H-M "P -3 M 1"
_symmetry_group_IT_number 164
_symmetry_cell_setting 'hexagonal'
loop_
_space_group_symop_operation_xyz
x,y,z
-y,x-y,z
-x+y,-x,z
x-y,-y,-z
-x,-x+y,-z
y,x,-z
-x,-y,-z
y,-x+y,-z
x-y,x,-z
-x+y,y,z
x,x-y,z
-y,-x,z
loop_
_atom_site_type_symbol
_atom_site_label
_atom_site_fract_x
_atom_site_fract_y
_atom_site_fract_z
Si Si1 0.328034 0.076623 0.334112
Si Si2 0.649738 0.649738 0.500000
Si Si3 0.841310 0.332000 0.224173
Si Si4 0.157248 0.490561 0.399863
Si Si5 0.163332 0.496298 0.117639
Si Si6 0.640847 0.733930 0.246027
Si Si7 0.452775 0.371935 0.050693
O O1 0.306285 0.153143 0.331551
O O2 0.320018 0.037670 0.424981
O O3 0.425938 0.116920 0.300658
O O4 0.275074 0.996416 0.273085
O O5 0.562171 0.642721 0.465262
O O6 0.850291 0.425145 0.231973
O O7 0.741875 0.258126 0.219076
O O8 0.887244 0.328190 0.139041
O O9 0.246801 0.493602 0.422791
O O10 0.171232 0.585616 0.388119
O O11 0.122758 0.432806 0.316853
O O12 0.257126 0.514252 0.143886
O O13 0.149085 0.574543 0.141709
O O14 0.095189 0.408880 0.162883
O O15 0.154696 0.487073 0.018957
O O16 0.665059 0.832530 0.239850
O O17 0.529702 0.470299 0.065456
O O18 0.379547 0.379547 0.000000
#
# Coordination Sequence:
#
# PCOD9578359 Si02
#       7
#    12   6  12  12  12  12  12
#     4  10  21  37  57  77  97 125 161 201 248 306
#     4  10  21  36  52  72  95 122 160 204 253 302
#     4  10  20  33  49  71 102 141 182 220 256 296
#     4  10  19  31  47  68  95 126 160 198 242 293
#     4  10  18  28  44  69 103 143 185 225 263 303
#     4   9  19  33  50  73 100 129 160 198 247 301
#     4   9  17  28  43  64  93 134 184 233 271 299
#
# _framework density 17.324642999999998
#
# number of rings (size 3 to 8) (size 9 to 14) (size 15 to 20)
#    0.000    2.308    0.000    3.000    0.000    5.538 
#    0.000    3.077    0.000    2.154    0.000    0.538 
#    0.000    0.000    0.000    0.000    0.000   32.000 
#
# Total GULP energy -434729.321305 kJ/mol
# GULP energy per Si atom -5573.452837 kJ/mol
# Density = 1.728521 g / cm^3
# Si number density = 17.324643 Si / 1000 Ang^3
#
#
#
# Elastic Constant Matrix: (Units=GPa)
#
#
# Indices 1 2 3 4 5 6 
#
# 1 85.1399 54.6030 29.7160 1.1178 0.0000 0.0000
# 2 54.6030 85.1399 29.7160 -1.1178 0.0000 0.0000
# 3 29.7160 29.7160 83.6781 0.0000 0.0000 0.0000
# 4 1.1178 -1.1178 0.0000 19.8085 0.0000 0.0000
# 5 0.0000 0.0000 0.0000 0.0000 19.8085 1.1178
# 6 0.0000 0.0000 0.0000 0.0000 1.1178 15.2684
#
#
#
# Elastic Compliance Matrix: (Units=1/GPa)
#
#
# Indices 1 2 3 4 5 6 
#
# 1 0.020656 -0.012227 -0.002993 -0.001856 0.000000 0.000000
# 2 -0.012227 0.020656 -0.002993 0.001856 0.000000 0.000000
# 3 -0.002993 -0.002993 0.014077 0.000000 0.000000 0.000000
# 4 -0.001856 0.001856 0.000000 0.050693 0.000000 0.000000
# 5 0.000000 0.000000 0.000000 0.000000 0.050693 -0.003711
# 6 0.000000 0.000000 0.000000 0.000000 -0.003711 0.065766
#
#
# Mechanical properties :
#
#
# Convention : Reuss Voigt Hill
#
# Bulk Modulus (GPa) = 52.73906 53.55867 53.14886
# Shear Modulus (GPa) = 18.84737 20.30526 19.57631
#
# Velocity S-wave (km/s) = 3.30190 3.42723 3.36515
# Velocity P-wave (km/s) = 6.71152 6.82957 6.77080
#
# Compressibility (1/GPa) = 0.01896128
#
# Stress axis : x y z
#
# Youngs Moduli (GPa) = 48.41180 48.41180 71.04004
#
# Poissons Ratio (x) = 0.59193 0.21265
# Poissons Ratio (y) = 0.59193 0.21265
# Poissons Ratio (z) = 0.14491 0.14491
#
# Static dielectric constant tensor:
#      x y z
#    x 1.590830 0.000000 0.000000 
#    y 0.000000 1.590830 0.000000 
#    z 0.000000 0.000000 1.625660 
# 
# From -- ./inp_files/3517.got.cif
#   From: 2010.05.17/outbox.cif.g08.bks.cpg/sg164_2_cif.got.tgz:3517.got - 2010.05.20 10:58:56.
