data_PCOD9578497
_publ_section_title
;
Structure prediction by ZEFSAII (Michael W. Deem and Ramdas Pophale) SiO2 
 PCOD9578497
Probable space group: P -3 M 1
;
_chemical_formula_sum "Si O2"
_cell_formula_units_Z 60
_cell_length_a 16.771046
_cell_length_b 16.771046
_cell_length_c 12.349422
_cell_angle_alpha 90.000000
_cell_angle_beta 90.000000
_cell_angle_gamma 120.000000
_cell_volume 3008.136667
_symmetry_space_group_name_H-M "P -3 M 1"
_symmetry_group_IT_number 164
_symmetry_cell_setting 'hexagonal'
loop_
_space_group_symop_operation_xyz
x,y,z
-y,x-y,z
-x+y,-x,z
x-y,-y,-z
-x,-x+y,-z
y,x,-z
-x,-y,-z
y,-x+y,-z
x-y,x,-z
-x+y,y,z
x,x-y,z
-y,-x,z
loop_
_atom_site_type_symbol
_atom_site_label
_atom_site_fract_x
_atom_site_fract_y
_atom_site_fract_z
Si Si1 0.954800 0.349546 0.735085
Si Si2 0.231941 0.947288 0.602163
Si Si3 0.851652 0.335537 0.516124
Si Si4 0.334053 0.843712 0.813303
Si Si5 0.386067 0.282634 0.966678
O O1 0.898281 0.357005 0.635212
O O2 0.900568 0.322214 0.847364
O O3 0.981634 0.274014 0.694764
O O4 0.055616 0.435675 0.759974
O O5 0.136058 0.863943 0.639758
O O6 0.293267 0.904098 0.552662
O O7 0.221480 0.000000 0.500000
O O8 0.860154 0.430077 0.473251
O O9 0.745898 0.254103 0.522485
O O10 0.402589 0.805177 0.797646
O O11 0.231781 0.768220 0.774295
O O12 0.325240 0.861844 0.940078
O O13 0.349272 0.174636 0.966887
O O14 0.311507 0.311507 0.000000
#
# Coordination Sequence:
#
# PCOD9578497 Si02
#       5
#    12  12  12  12  12
#     4  10  19  32  52  74  99 128 166 206 241 284
#     4   9  19  34  52  74  98 127 163 201 242 289
#     4  10  20  33  49  71 100 133 167 203 243 286
#     4  10  20  33  49  71 100 133 167 203 243 286
#     4   9  19  34  52  74  98 127 163 201 242 289
#
# _framework density 19.945902
#
# number of rings (size 3 to 8) (size 9 to 14) (size 15 to 20)
#    0.000    2.400    0.000    2.200    0.000   10.400 
#    0.000    0.000    0.000    5.200    0.000    1.400 
#    0.000    0.000    0.000    0.000    0.000    0.000 
#
# Total GULP energy -334744.921692 kJ/mol
# GULP energy per Si atom -5579.082028 kJ/mol
# Density = 1.990050 g / cm^3
# Si number density = 19.945902 Si / 1000 Ang^3
#
#
#
# Elastic Constant Matrix: (Units=GPa)
#
#
# Indices 1 2 3 4 5 6 
#
# 1 42.8283 16.1232 -0.4203 0.4012 0.0000 0.0000
# 2 16.1232 42.8283 -0.4203 -0.4012 0.0000 0.0000
# 3 -0.4203 -0.4203 89.2604 0.0000 0.0000 0.0000
# 4 0.4012 -0.4012 0.0000 8.0187 0.0000 0.0000
# 5 0.0000 0.0000 0.0000 0.0000 8.0187 0.4012
# 6 0.0000 0.0000 0.0000 0.0000 0.4012 13.3526
#
#
#
# Elastic Compliance Matrix: (Units=1/GPa)
#
#
# Indices 1 2 3 4 5 6 
#
# 1 0.027233 -0.010269 0.000080 -0.001877 0.000000 0.000000
# 2 -0.010269 0.027233 0.000080 0.001877 0.000000 0.000000
# 3 0.000080 0.000080 0.011204 0.000000 0.000000 0.000000
# 4 -0.001877 0.001877 0.000000 0.124896 0.000000 0.000000
# 5 0.000000 0.000000 0.000000 0.000000 0.124896 -0.003753
# 6 0.000000 0.000000 0.000000 0.000000 -0.003753 0.075005
#
#
# Mechanical properties :
#
#
# Convention : Reuss Voigt Hill
#
# Bulk Modulus (GPa) = 22.00128 22.83136 22.41632
# Shear Modulus (GPa) = 11.74161 16.52031 14.13096
#
# Velocity S-wave (km/s) = 2.42889 2.88107 2.66459
# Velocity P-wave (km/s) = 4.34976 4.74751 4.55298
#
# Compressibility (1/GPa) = 0.04545191
#
# Stress axis : x y z
#
# Youngs Moduli (GPa) = 36.71974 36.71974 89.25440
#
# Poissons Ratio (x) = 0.37708 -0.00713
# Poissons Ratio (y) = 0.37708 -0.00713
# Poissons Ratio (z) = -0.00293 -0.00293
#
# Static dielectric constant tensor:
#      x y z
#    x 1.702380 0.000000 0.000000 
#    y 0.000000 1.702380 0.000000 
#    z 0.000000 0.000000 1.755320 
# 
# From -- ./inp_files/2714.got.cif
#   From: 2010.05.17/outbox.cif.g08.bks.cpg/sg164_2_cif.got.tgz:2714.got - 2010.05.20 10:58:56.
