data_PCOD9578535
_publ_section_title
;
Structure prediction by ZEFSAII (Michael W. Deem and Ramdas Pophale) SiO2 
 PCOD9578535
Probable space group: P -3 M 1
;
_chemical_formula_sum "Si O2"
_cell_formula_units_Z 72
_cell_length_a 13.074282
_cell_length_b 13.074282
_cell_length_c 31.267076
_cell_angle_alpha 90.000000
_cell_angle_beta 90.000000
_cell_angle_gamma 120.000000
_cell_volume 4628.642056
_symmetry_space_group_name_H-M "P -3 M 1"
_symmetry_group_IT_number 164
_symmetry_cell_setting 'hexagonal'
loop_
_space_group_symop_operation_xyz
x,y,z
-y,x-y,z
-x+y,-x,z
x-y,-y,-z
-x,-x+y,-z
y,x,-z
-x,-y,-z
y,-x+y,-z
x-y,x,-z
-x+y,y,z
x,x-y,z
-y,-x,z
loop_
_atom_site_type_symbol
_atom_site_label
_atom_site_fract_x
_atom_site_fract_y
_atom_site_fract_z
Si Si1 0.909468 0.575799 0.076369
Si Si2 0.243610 0.000000 0.000000
Si Si3 0.909045 0.332698 0.173626
Si Si4 0.908664 0.574948 0.655383
Si Si5 0.243394 0.000000 0.500000
Si Si6 0.667211 0.090543 0.421021
Si Si7 0.332866 0.423974 0.246926
O O1 0.773963 0.547925 0.074548
O O2 0.914518 0.457259 0.068135
O O3 0.951959 0.616584 0.125011
O O4 0.980832 0.675157 0.041319
O O5 0.232291 0.116146 0.995338
O O6 0.888732 0.444366 0.177099
O O7 0.786884 0.213117 0.179215
O O8 0.999564 0.346935 0.210470
O O9 0.792275 0.584549 0.647223
O O10 0.876058 0.438029 0.652717
O O11 0.949708 0.614774 0.704193
O O12 0.010895 0.644784 0.621062
O O13 0.231041 0.115521 0.508084
O O14 0.331365 0.030517 0.459886
O O15 0.547135 0.094269 0.429408
O O16 0.778103 0.221898 0.415459
O O17 0.213559 0.427118 0.241430
O O18 0.444763 0.555238 0.242608
#
# Coordination Sequence:
#
# PCOD9578535 Si02
#       7
#    12   6  12  12   6  12  12
#     4   9  17  30  48  68  89 114 146 185 227 269
#     4  10  20  32  46  64  88 118 150 184 222 268
#     4   9  17  29  46  68  92 118 148 183 224 269
#     4   9  17  30  48  69  91 117 151 189 227 265
#     4  10  20  34  52  72  94 122 158 198 234 270
#     4  10  20  33  49  70  97 126 154 186 228 278
#     4   9  17  29  46  67  91 119 150 185 223 263
#
# _framework density 15.555318
#
# number of rings (size 3 to 8) (size 9 to 14) (size 15 to 20)
#    0.000    2.667    0.000    2.000    0.000    4.000 
#    0.000    0.000    0.000    8.333    0.000    0.000 
#    0.000    0.000    0.000    0.000    0.000    0.000 
#
# Total GULP energy -401210.240757 kJ/mol
# GULP energy per Si atom -5572.364455 kJ/mol
# Density = 1.551991 g / cm^3
# Si number density = 15.555318 Si / 1000 Ang^3
#
#
#
# Elastic Constant Matrix: (Units=GPa)
#
#
# Indices 1 2 3 4 5 6 
#
# 1 92.9130 55.9063 79.5869 0.9967 0.0000 0.0000
# 2 55.9063 92.9130 79.5869 -0.9967 0.0000 0.0000
# 3 79.5869 79.5869 131.9699 0.0000 0.0000 0.0000
# 4 0.9967 -0.9967 0.0000 26.5690 0.0000 0.0000
# 5 0.0000 0.0000 0.0000 0.0000 26.5690 0.9967
# 6 0.0000 0.0000 0.0000 0.0000 0.9967 18.5033
#
#
#
# Elastic Compliance Matrix: (Units=1/GPa)
#
#
# Indices 1 2 3 4 5 6 
#
# 1 0.023003 -0.004074 -0.011416 -0.001016 0.000000 0.000000
# 2 -0.004074 0.023003 -0.011416 0.001016 0.000000 0.000000
# 3 -0.011416 -0.011416 0.021347 0.000000 0.000000 0.000000
# 4 -0.001016 0.001016 0.000000 0.037714 0.000000 0.000000
# 5 0.000000 0.000000 0.000000 0.000000 0.037714 -0.002032
# 6 0.000000 0.000000 0.000000 0.000000 -0.002032 0.054154
#
#
# Mechanical properties :
#
#
# Convention : Reuss Voigt Hill
#
# Bulk Modulus (GPa) = 73.84183 83.10621 78.47402
# Shear Modulus (GPa) = 19.58783 21.17597 20.38190
#
# Velocity S-wave (km/s) = 3.55242 3.69363 3.62371
# Velocity P-wave (km/s) = 8.02495 8.46952 8.25023
#
# Compressibility (1/GPa) = 0.01354246
#
# Stress axis : x y z
#
# Youngs Moduli (GPa) = 43.47191 43.47191 46.84559
#
# Poissons Ratio (x) = 0.17708 0.53479
# Poissons Ratio (y) = 0.17708 0.53479
# Poissons Ratio (z) = 0.49627 0.49627
#
# Static dielectric constant tensor:
#      x y z
#    x 1.489770 0.000000 0.000000 
#    y 0.000000 1.489770 0.000000 
#    z 0.000000 0.000000 1.523900 
# 
# From -- ./inp_files/5569.got.cif
#   From: 2010.05.17/outbox.cif.g08.bks.cpg/sg164_3_cif.got.tgz:5569.got - 2010.05.20 10:58:56.
