data_PCOD9578805
_publ_section_title
;
Structure prediction by ZEFSAII (Michael W. Deem and Ramdas Pophale) SiO2 
 PCOD9578805
Probable space group: P -3 C 1
;
_chemical_formula_sum "Si O2"
_cell_formula_units_Z 76
_cell_length_a 17.062803
_cell_length_b 17.062803
_cell_length_c 15.917595
_cell_angle_alpha 90.000000
_cell_angle_beta 90.000000
_cell_angle_gamma 120.000000
_cell_volume 4013.366631
_symmetry_space_group_name_H-M "P -3 C 1"
_symmetry_group_IT_number 165
_symmetry_cell_setting 'hexagonal'
loop_
_space_group_symop_operation_xyz
x,y,z
-y,x-y,z
-x+y,-x,z
x-y,-y,1/2-z
-x,-x+y,1/2-z
y,x,1/2-z
-x,-y,-z
y,-x+y,-z
x-y,x,-z
-x+y,y,1/2+z
x,x-y,1/2+z
-y,-x,1/2+z
loop_
_atom_site_type_symbol
_atom_site_label
_atom_site_fract_x
_atom_site_fract_y
_atom_site_fract_z
Si Si1 0.858443 0.367449 0.238074
Si Si2 0.967438 0.377160 0.574586
Si Si3 0.820037 0.916382 0.052930
Si Si4 0.696312 0.925549 0.184510
Si Si5 0.000000 0.000000 0.153098
Si Si6 0.018577 0.583004 0.612761
Si Si7 0.295780 0.475551 0.298405
O O1 0.893474 0.360437 0.329736
O O2 0.857034 0.461013 0.237937
O O3 0.762430 0.286929 0.209149
O O4 0.932078 0.373638 0.170753
O O5 0.976540 0.370167 0.475290
O O6 0.864830 0.317055 0.609064
O O7 0.022898 0.344517 0.631110
O O8 0.004722 0.483339 0.593107
O O9 0.734739 0.886141 0.113875
O O10 0.901242 0.941411 0.116500
O O11 0.832724 0.846793 0.991544
O O12 0.615671 0.855551 0.244005
O O13 0.769910 0.000000 0.250000
O O14 0.000000 0.000000 0.250000
#
# Coordination Sequence:
#
# PCOD9578805 Si02
#       7
#    12  12  12  12   4  12  12
#     4  10  19  36  57  83 111 145 181 231 278 335
#     4   9  18  36  57  78 102 149 189 221 268 338
#     4   9  19  34  52  80 110 140 183 228 278 326
#     4  10  19  35  56  78 108 148 182 223 272 335
#     4   9  16  32  58  75 100 149 175 219 283 335
#     4   9  18  36  59  75 107 151 188 215 277 338
#     4  10  20  35  57  83 112 142 184 228 281 320
#
# _framework density 18.936719
#
# number of rings (size 3 to 8) (size 9 to 14) (size 15 to 20)
#    0.000    2.526    1.579    1.421    0.000    1.263 
#    8.526    0.000   10.421    0.000    0.000    0.000 
#    0.000    0.000    0.000    0.000    0.000    0.000 
#
# Total GULP energy -423139.380124 kJ/mol
# GULP energy per Si atom -5567.623423 kJ/mol
# Density = 1.889362 g / cm^3
# Si number density = 18.936719 Si / 1000 Ang^3
#
#
#
# Elastic Constant Matrix: (Units=GPa)
#
#
# Indices 1 2 3 4 5 6 
#
# 1 36.8868 -5.1200 12.8883 -6.9608 0.0000 0.0000
# 2 -5.1200 36.8868 12.8883 6.9608 0.0000 0.0000
# 3 12.8883 12.8883 119.8925 0.0000 0.0000 0.0000
# 4 -6.9608 6.9608 0.0000 -3.8385 0.0000 0.0000
# 5 0.0000 0.0000 0.0000 0.0000 -3.8385 -6.9608
# 6 0.0000 0.0000 0.0000 0.0000 -6.9608 21.0034
#
#
#
# Elastic Compliance Matrix: (Units=1/GPa)
#
#
# Indices 1 2 3 4 5 6 
#
# 1 0.024678 0.009809 -0.003707 -0.026964 0.000000 0.000000
# 2 0.009809 0.024678 -0.003707 0.026964 0.000000 0.000000
# 3 -0.003707 -0.003707 0.009138 0.000000 0.000000 0.000000
# 4 -0.026964 0.026964 0.000000 -0.162724 0.000000 0.000000
# 5 0.000000 0.000000 0.000000 0.000000 -0.162724 -0.053929
# 6 0.000000 0.000000 0.000000 0.000000 -0.053929 0.029739
#
#
# Mechanical properties :
#
#
# Convention : Reuss Voigt Hill
#
# Bulk Modulus (GPa) = 15.80187 26.10881 20.95534
# Shear Modulus (GPa) = -22.63385 14.19926 -4.21729
#
# Velocity S-wave (km/s) = -3.46097 2.74127 -1.49395
# Velocity P-wave (km/s) = 2.75833 4.88229 2.84854
#
# Compressibility (1/GPa) = 0.06328365
#
# Stress axis : x y z
#
# Youngs Moduli (GPa) = 40.52117 40.52117 109.43455
#
# Poissons Ratio (x) = -0.39748 0.40571
# Poissons Ratio (y) = -0.39748 0.40571
# Poissons Ratio (z) = 0.15023 0.15023
#
# Static dielectric constant tensor:
#      x y z
#    x 1.677650 0.000000 0.000000 
#    y 0.000000 1.677650 0.000000 
#    z 0.000000 0.000000 1.660450 
# 
# From -- ./inp_files/1837.got.cif
#   From: 2010.05.17/outbox.cif.g08.bks.cpg/sg165_1_cif.got.tgz:1837.got - 2010.05.20 11:02:39.
