data_PCOD9578849
_publ_section_title
;
Structure prediction by ZEFSAII (Michael W. Deem and Ramdas Pophale) SiO2 
 PCOD9578849
Probable space group: P -3 C 1
;
_chemical_formula_sum "Si O2"
_cell_formula_units_Z 60
_cell_length_a 15.383518
_cell_length_b 15.383518
_cell_length_c 13.285725
_cell_angle_alpha 90.000000
_cell_angle_beta 90.000000
_cell_angle_gamma 120.000000
_cell_volume 2722.871953
_symmetry_space_group_name_H-M "P -3 C 1"
_symmetry_group_IT_number 165
_symmetry_cell_setting 'hexagonal'
loop_
_space_group_symop_operation_xyz
x,y,z
-y,x-y,z
-x+y,-x,z
x-y,-y,1/2-z
-x,-x+y,1/2-z
y,x,1/2-z
-x,-y,-z
y,-x+y,-z
x-y,x,-z
-x+y,y,1/2+z
x,x-y,1/2+z
-y,-x,1/2+z
loop_
_atom_site_type_symbol
_atom_site_label
_atom_site_fract_x
_atom_site_fract_y
_atom_site_fract_z
Si Si1 0.590779 0.708480 0.770800
Si Si2 0.477323 0.316637 0.446235
Si Si3 0.742521 0.002102 0.528033
Si Si4 0.138342 0.652806 0.491715
Si Si5 0.086286 0.208001 0.830606
O O1 0.650933 0.650933 0.750000
O O2 0.527391 0.695130 0.673235
O O3 0.680027 0.822169 0.784185
O O4 0.533138 0.661372 0.872906
O O5 0.365253 0.266286 0.494179
O O6 0.542852 0.432948 0.473591
O O7 0.526220 0.254278 0.486925
O O8 0.820761 0.022182 0.619027
O O9 0.624725 0.921823 0.543909
O O10 0.782782 0.970460 0.429994
O O11 0.000000 0.133861 0.750000
#
# Coordination Sequence:
#
# PCOD9578849 Si02
#       5
#    12  12  12  12  12
#     4  10  20  38  61  89 134 180 221 290 353 411
#     4  12  22  42  63  97 137 183 235 293 357 422
#     4  11  20  40  68  98 133 184 236 280 369 431
#     4  11  25  40  67  97 140 186 233 299 351 437
#     4  10  20  40  69  98 140 182 228 300 349 427
#
# _framework density 22.035557000000001
#
# number of rings (size 3 to 8) (size 9 to 14) (size 15 to 20)
#    0.000    1.200   10.000    1.000    0.000    1.600 
#    0.000    4.000    0.000    0.400    0.000    0.000 
#    0.000    0.000    0.000    0.000    0.000    0.000 
#
# Total GULP energy -334741.774187 kJ/mol
# GULP energy per Si atom -5579.029570 kJ/mol
# Density = 2.198540 g / cm^3
# Si number density = 22.035557 Si / 1000 Ang^3
#
#
#
# Elastic Constant Matrix: (Units=GPa)
#
#
# Indices 1 2 3 4 5 6 
#
# 1 75.2828 24.7412 32.8038 -1.3791 0.0000 0.0000
# 2 24.7412 75.2828 32.8038 1.3791 0.0000 0.0000
# 3 32.8038 32.8038 110.8826 0.0000 0.0000 0.0000
# 4 -1.3791 1.3791 0.0000 39.9036 0.0000 0.0000
# 5 0.0000 0.0000 0.0000 0.0000 39.9036 -1.3791
# 6 0.0000 0.0000 0.0000 0.0000 -1.3791 25.2708
#
#
#
# Elastic Compliance Matrix: (Units=1/GPa)
#
#
# Indices 1 2 3 4 5 6 
#
# 1 0.016114 -0.003709 -0.003670 0.000685 0.000000 0.000000
# 2 -0.003709 0.016114 -0.003670 -0.000685 0.000000 0.000000
# 3 -0.003670 -0.003670 0.011190 0.000000 0.000000 0.000000
# 4 0.000685 -0.000685 0.000000 0.025108 0.000000 0.000000
# 5 0.000000 0.000000 0.000000 0.000000 0.025108 0.001370
# 6 0.000000 0.000000 0.000000 0.000000 0.001370 0.039646
#
#
# Mechanical properties :
#
#
# Convention : Reuss Voigt Hill
#
# Bulk Modulus (GPa) = 46.90430 49.12731 48.01581
# Shear Modulus (GPa) = 30.77231 32.42224 31.59728
#
# Velocity S-wave (km/s) = 3.74101 3.83999 3.79082
# Velocity P-wave (km/s) = 6.32394 6.48103 6.40296
#
# Compressibility (1/GPa) = 0.02132000
#
# Stress axis : x y z
#
# Youngs Moduli (GPa) = 62.05824 62.05824 89.36598
#
# Poissons Ratio (x) = 0.23018 0.32796
# Poissons Ratio (y) = 0.23018 0.32796
# Poissons Ratio (z) = 0.22774 0.22774
#
# Static dielectric constant tensor:
#      x y z
#    x 1.847640 0.000000 0.000000 
#    y 0.000000 1.847640 0.000000 
#    z 0.000000 0.000000 1.734280 
# 
# From -- ./inp_files/1676.got.cif
#   From: 2010.05.17/outbox.cif.g08.bks.cpg/sg165_1_cif.got.tgz:1676.got - 2010.05.20 11:02:39.
