data_PCOD9578157
_publ_section_title
;
Structure prediction by ZEFSAII (Michael W. Deem and Ramdas Pophale) SiO2 
 PCOD9578157
Probable space group: P -3 1 C
;
_chemical_formula_sum "Si O2"
_cell_formula_units_Z 84
_cell_length_a 14.244257
_cell_length_b 14.244257
_cell_length_c 22.702556
_cell_angle_alpha 90.000000
_cell_angle_beta 90.000000
_cell_angle_gamma 120.000000
_cell_volume 3989.192454
_symmetry_space_group_name_H-M "P -3 1 C"
_symmetry_group_IT_number 163
_symmetry_cell_setting 'hexagonal'
loop_
_space_group_symop_operation_xyz
x,y,z
-y,x-y,z
-x+y,-x,z
-y,-x,1/2-z
-x+y,y,1/2-z
x,x-y,1/2-z
-x,-y,-z
y,-x+y,-z
x-y,x,-z
y,x,1/2+z
x-y,-y,1/2+z
-x,-x+y,1/2+z
loop_
_atom_site_type_symbol
_atom_site_label
_atom_site_fract_x
_atom_site_fract_y
_atom_site_fract_z
Si Si1 0.581343 0.802436 0.052142
Si Si2 0.285666 0.837391 0.690546
Si Si3 0.113815 0.891115 0.525957
Si Si4 0.549919 0.423927 0.989889
Si Si5 0.712881 0.720847 0.376442
Si Si6 0.624172 0.484348 0.380445
Si Si7 0.778602 0.995767 0.753435
O O1 0.654064 0.865667 0.107655
O O2 0.659291 0.861552 0.996296
O O3 0.540529 0.677967 0.045634
O O4 0.478681 0.817505 0.045187
O O5 0.236241 0.763760 0.750000
O O6 0.407439 0.871020 0.668669
O O7 0.217256 0.747005 0.641422
O O8 0.263976 0.939344 0.700205
O O9 0.019963 0.849827 0.475591
O O10 0.055898 0.821241 0.583746
O O11 0.569484 0.393673 0.055663
O O12 0.500000 0.500000 0.000000
O O13 0.627268 0.597244 0.392459
O O14 0.736596 0.721290 0.308697
O O15 0.881535 0.118466 0.750000
O O16 0.822874 0.911437 0.750000
#
# Coordination Sequence:
#
# PCOD9578157 Si02
#       7
#    12  12  12  12  12  12  12
#     4  11  23  41  60  94 135 171 228 271 323 423
#     4  11  24  41  70 103 140 175 231 295 358 422
#     4  10  21  40  63  94 131 170 220 275 336 422
#     4  12  23  39  65  95 134 180 217 273 340 405
#     4  11  23  43  65  92 135 179 227 282 345 406
#     4  12  22  42  66 101 135 176 223 280 360 413
#     4  11  25  45  68 100 137 182 233 292 350 422
#
# _framework density 21.056894
#
# number of rings (size 3 to 8) (size 9 to 14) (size 15 to 20)
#    0.000    0.857    5.714    3.000    0.000    3.429 
#    0.000    0.000    0.000    0.000    0.000    0.000 
#    0.000    0.000    0.000    0.000    0.000    0.000 
#
# Total GULP energy -468134.762256 kJ/mol
# GULP energy per Si atom -5573.032884 kJ/mol
# Density = 2.100897 g / cm^3
# Si number density = 21.056894 Si / 1000 Ang^3
#
#
#
# Elastic Constant Matrix: (Units=GPa)
#
#
# Indices 1 2 3 4 5 6 
#
# 1 85.2298 34.1879 19.2781 -0.0001 3.5799 0.0000
# 2 34.1879 85.2298 19.2781 0.0001 -3.5799 0.0000
# 3 19.2781 19.2781 57.3635 0.0000 0.0000 0.0000
# 4 -0.0001 0.0001 0.0000 21.9735 0.0000 -3.5799
# 5 3.5799 -3.5799 0.0000 0.0000 21.9735 -0.0001
# 6 0.0000 0.0000 0.0000 -3.5799 -0.0001 25.5210
#
#
#
# Elastic Compliance Matrix: (Units=1/GPa)
#
#
# Indices 1 2 3 4 5 6 
#
# 1 0.014722 -0.005328 -0.003157 0.000000 -0.003267 0.000000
# 2 -0.005328 0.014722 -0.003157 0.000000 0.003267 0.000000
# 3 -0.003157 -0.003157 0.019554 0.000000 0.000000 0.000000
# 4 0.000000 0.000000 0.000000 0.046574 0.000000 0.006533
# 5 -0.003267 0.003267 0.000000 0.000000 0.046574 0.000000
# 6 0.000000 0.000000 0.000000 0.006533 0.000000 0.040100
#
#
# Mechanical properties :
#
#
# Convention : Reuss Voigt Hill
#
# Bulk Modulus (GPa) = 38.88963 41.47903 40.18433
# Shear Modulus (GPa) = 23.35356 24.23218 23.79287
#
# Velocity S-wave (km/s) = 3.33388 3.39602 3.36509
# Velocity P-wave (km/s) = 5.77309 5.92609 5.85009
#
# Compressibility (1/GPa) = 0.02571380
#
# Stress axis : x y z
#
# Youngs Moduli (GPa) = 67.92757 67.92757 51.13925
#
# Poissons Ratio (x) = 0.36194 0.16143
# Poissons Ratio (y) = 0.36194 0.16143
# Poissons Ratio (z) = 0.21443 0.21443
#
# Static dielectric constant tensor:
#      x y z
#    x 1.839410 0.000000 0.000000 
#    y 0.000000 1.839410 0.000000 
#    z 0.000000 0.000000 1.823470 
# 
# From -- ./inp_files/3922.got.cif
#   From: 2010.05.17/outbox.cif.g08.bks.cpg/sg163_2_cif.got.tgz:3922.got - 2010.05.20 10:56:03.
