data_PCOD9578022
_publ_section_title
;
Structure prediction by ZEFSAII (Michael W. Deem and Ramdas Pophale) SiO2 
 PCOD9578022
Probable space group: P -3 1 C
;
_chemical_formula_sum "Si O2"
_cell_formula_units_Z 84
_cell_length_a 17.541150
_cell_length_b 17.541150
_cell_length_c 18.700675
_cell_angle_alpha 90.000000
_cell_angle_beta 90.000000
_cell_angle_gamma 120.000000
_cell_volume 4983.150904
_symmetry_space_group_name_H-M "P -3 1 C"
_symmetry_group_IT_number 163
_symmetry_cell_setting 'hexagonal'
loop_
_space_group_symop_operation_xyz
x,y,z
-y,x-y,z
-x+y,-x,z
-y,-x,1/2-z
-x+y,y,1/2-z
x,x-y,1/2-z
-x,-y,-z
y,-x+y,-z
x-y,x,-z
y,x,1/2+z
x-y,-y,1/2+z
-x,-x+y,1/2+z
loop_
_atom_site_type_symbol
_atom_site_label
_atom_site_fract_x
_atom_site_fract_y
_atom_site_fract_z
Si Si1 0.260545 0.914597 0.596905
Si Si2 0.510861 0.666823 0.471737
Si Si3 0.179718 1.000000 0.500000
Si Si4 0.345948 0.260545 0.096905
Si Si5 0.044452 0.610977 0.169770
Si Si6 0.955548 0.389023 0.669770
Si Si7 0.155962 0.489140 0.028263
O O1 0.304850 0.892697 0.529713
O O2 0.222654 0.974841 0.565736
O O3 0.177419 0.822581 0.620991
O O4 0.336244 0.964874 0.654423
O O5 0.544720 0.658873 0.393627
O O6 0.485445 0.742722 0.471373
O O7 0.427303 0.572697 0.489801
O O8 0.085771 0.914229 0.485074
O O9 0.247813 0.025159 0.434264
O O10 0.371369 0.336244 0.154423
O O11 0.412153 0.304850 0.029713
O O12 0.079564 0.639446 0.250000
O O13 0.016083 0.508042 0.163774
O O14 0.885848 0.341127 0.606373
#
# Coordination Sequence:
#
# PCOD9578022 Si02
#       7
#    12  12  12  12  12  12  12
#     4  10  19  32  53  75  98 128 169 215 255 297
#     4  10  19  32  50  73 100 131 166 206 249 297
#     4  10  19  32  51  76 102 128 160 202 253 302
#     4  10  19  32  53  75  98 128 169 215 255 297
#     4  10  20  33  49  71 102 137 168 202 247 297
#     4  10  20  33  49  71 102 137 168 202 247 297
#     4  10  19  32  50  73 100 131 166 206 249 297
#
# _framework density 16.856805000000001
#
# number of rings (size 3 to 8) (size 9 to 14) (size 15 to 20)
#    0.000    2.000    2.857    1.286    0.000    3.429 
#    0.000    0.000    0.000    2.286    0.000    0.000 
#    0.000    2.286    0.000    0.000    0.000    0.000 
#
# Total GULP energy -468501.250528 kJ/mol
# GULP energy per Si atom -5577.395840 kJ/mol
# Density = 1.681844 g / cm^3
# Si number density = 16.856805 Si / 1000 Ang^3
#
#
#
# Elastic Constant Matrix: (Units=GPa)
#
#
# Indices 1 2 3 4 5 6 
#
# 1 73.8408 27.9006 7.3676 0.0000 0.0000 0.0000
# 2 27.9006 73.8408 7.3676 0.0000 0.0000 0.0000
# 3 7.3676 7.3676 37.9144 0.0000 0.0000 0.0000
# 4 0.0000 0.0000 0.0000 17.1723 0.0000 0.0000
# 5 0.0000 0.0000 0.0000 0.0000 17.1723 0.0000
# 6 0.0000 0.0000 0.0000 0.0000 0.0000 22.9701
#
#
#
# Elastic Compliance Matrix: (Units=1/GPa)
#
#
# Indices 1 2 3 4 5 6 
#
# 1 0.015940 -0.005827 -0.001965 0.000000 0.000000 0.000000
# 2 -0.005827 0.015940 -0.001965 0.000000 0.000000 0.000000
# 3 -0.001965 -0.001965 0.027139 0.000000 0.000000 0.000000
# 4 0.000000 0.000000 0.000000 0.058233 0.000000 0.000000
# 5 0.000000 0.000000 0.000000 0.000000 0.058233 0.000000
# 6 0.000000 0.000000 0.000000 0.000000 0.000000 0.043535
#
#
# Mechanical properties :
#
#
# Convention : Reuss Voigt Hill
#
# Bulk Modulus (GPa) = 25.31334 30.09638 27.70486
# Shear Modulus (GPa) = 19.86456 20.99363 20.42909
#
# Velocity S-wave (km/s) = 3.43655 3.53286 3.48504
# Velocity P-wave (km/s) = 5.54940 5.87660 5.71534
#
# Compressibility (1/GPa) = 0.03950486
#
# Stress axis : x y z
#
# Youngs Moduli (GPa) = 62.73345 62.73345 36.84741
#
# Poissons Ratio (x) = 0.36555 0.07241
# Poissons Ratio (y) = 0.36555 0.07241
# Poissons Ratio (z) = 0.12329 0.12329
#
# Static dielectric constant tensor:
#      x y z
#    x 1.569820 0.000000 0.000000 
#    y 0.000000 1.569820 0.000000 
#    z 0.000000 0.000000 1.546590 
# 
# From -- ./inp_files/2680.got.cif
#   From: 2010.05.17/outbox.cif.g08.bks.cpg/sg163_2_cif.got.tgz:2680.got - 2010.05.20 10:56:03.
