data_PCOD9578073
_publ_section_title
;
Structure prediction by ZEFSAII (Michael W. Deem and Ramdas Pophale) SiO2 
 PCOD9578073
Probable space group: P -3 1 C
;
_chemical_formula_sum "Si O2"
_cell_formula_units_Z 66
_cell_length_a 11.225674
_cell_length_b 11.225674
_cell_length_c 29.674880
_cell_angle_alpha 90.000000
_cell_angle_beta 90.000000
_cell_angle_gamma 120.000000
_cell_volume 3238.504128
_symmetry_space_group_name_H-M "P -3 1 C"
_symmetry_group_IT_number 163
_symmetry_cell_setting 'hexagonal'
loop_
_space_group_symop_operation_xyz
x,y,z
-y,x-y,z
-x+y,-x,z
-y,-x,1/2-z
-x+y,y,1/2-z
x,x-y,1/2-z
-x,-y,-z
y,-x+y,-z
x-y,x,-z
y,x,1/2+z
x-y,-y,1/2+z
-x,-x+y,1/2+z
loop_
_atom_site_type_symbol
_atom_site_label
_atom_site_fract_x
_atom_site_fract_y
_atom_site_fract_z
Si Si1 0.167619 0.832382 0.250000
Si Si2 0.279811 0.285520 0.999631
Si Si3 0.063060 0.650240 0.094283
Si Si4 0.323214 0.940139 0.097067
Si Si5 0.619222 0.035504 0.192236
Si Si6 0.079380 0.361383 0.691099
O O1 0.106740 0.700010 0.215968
O O2 0.036417 0.775251 0.283278
O O3 0.362494 0.363653 0.044516
O O4 0.130766 0.269485 0.001954
O O5 0.341222 0.352768 0.951499
O O6 0.172072 0.810030 0.099621
O O7 0.122249 0.546995 0.099024
O O8 0.968855 0.604581 0.138250
O O9 0.342683 0.041939 0.137873
O O10 0.492342 0.060049 0.202526
O O11 0.769016 0.162402 0.203779
#
# Coordination Sequence:
#
# PCOD9578073 Si02
#       6
#     6  12  12  12  12  12
#     4  12  24  44  62  96 124 166 212 262 320 374
#     4  10  20  34  56  84 120 160 204 256 314 380
#     4  10  20  37  59  89 123 162 206 258 315 379
#     4  10  20  37  59  89 123 162 206 258 315 379
#     4  11  24  45  68  96 128 169 216 265 320 381
#     4  11  24  45  68  96 128 169 216 265 320 381
#
# _framework density 20.379778000000002
#
# number of rings (size 3 to 8) (size 9 to 14) (size 15 to 20)
#    0.000    1.455    1.818    3.636    0.000    0.000 
#    8.727    1.818    0.000   11.636    0.000    0.000 
#    0.000    0.000    0.000    0.000    0.000    0.000 
#
# Total GULP energy -367629.077620 kJ/mol
# GULP energy per Si atom -5570.137540 kJ/mol
# Density = 2.033339 g / cm^3
# Si number density = 20.379778 Si / 1000 Ang^3
#
#
#
# Elastic Constant Matrix: (Units=GPa)
#
#
# Indices 1 2 3 4 5 6 
#
# 1 86.5654 41.8149 23.3885 0.0002 1.9110 0.0000
# 2 41.8149 86.5654 23.3885 -0.0002 -1.9110 0.0000
# 3 23.3885 23.3885 153.8232 0.0000 0.0000 0.0000
# 4 0.0002 -0.0002 0.0000 50.7005 0.0000 -1.9110
# 5 1.9110 -1.9110 0.0000 0.0000 50.7005 0.0002
# 6 0.0000 0.0000 0.0000 -1.9110 0.0002 22.3752
#
#
#
# Elastic Compliance Matrix: (Units=1/GPa)
#
#
# Indices 1 2 3 4 5 6 
#
# 1 0.015332 -0.007086 -0.001254 0.000000 -0.000845 0.000000
# 2 -0.007086 0.015332 -0.001254 0.000000 0.000845 0.000000
# 3 -0.001254 -0.001254 0.006882 0.000000 0.000000 0.000000
# 4 0.000000 0.000000 0.000000 0.019787 0.000000 0.001690
# 5 -0.000845 0.000845 0.000000 0.000000 0.019787 0.000000
# 6 0.000000 0.000000 0.000000 0.001690 0.000000 0.044837
#
#
# Mechanical properties :
#
#
# Convention : Reuss Voigt Hill
#
# Bulk Modulus (GPa) = 54.46806 56.01531 55.24169
# Shear Modulus (GPa) = 33.95234 40.64604 37.29919
#
# Velocity S-wave (km/s) = 4.08607 4.47075 4.28273
# Velocity P-wave (km/s) = 7.00327 7.36176 7.18475
#
# Compressibility (1/GPa) = 0.01835938
#
# Stress axis : x y z
#
# Youngs Moduli (GPa) = 65.22199 65.22199 145.30123
#
# Poissons Ratio (x) = 0.46217 0.18218
# Poissons Ratio (y) = 0.46217 0.18218
# Poissons Ratio (z) = 0.08178 0.08178
#
# Static dielectric constant tensor:
#      x y z
#    x 1.710990 0.000000 0.000000 
#    y 0.000000 1.710990 0.000000 
#    z 0.000000 0.000000 1.830520 
# 
# From -- ./inp_files/4343.got.cif
#   From: 2010.05.17/outbox.cif.g08.bks.cpg/sg163_3_cif.got.tgz:4343.got - 2010.05.20 10:56:03.
