data_PCOD9578575
_publ_section_title
;
Structure prediction by ZEFSAII (Michael W. Deem and Ramdas Pophale) SiO2 
 PCOD9578575
Probable space group: P -3 M 1
;
_chemical_formula_sum "Si O2"
_cell_formula_units_Z 66
_cell_length_a 12.814353
_cell_length_b 12.814353
_cell_length_c 29.044920
_cell_angle_alpha 90.000000
_cell_angle_beta 90.000000
_cell_angle_gamma 120.000000
_cell_volume 4130.419698
_symmetry_space_group_name_H-M "P -3 M 1"
_symmetry_group_IT_number 164
_symmetry_cell_setting 'hexagonal'
loop_
_space_group_symop_operation_xyz
x,y,z
-y,x-y,z
-x+y,-x,z
x-y,-y,-z
-x,-x+y,-z
y,x,-z
-x,-y,-z
y,-x+y,-z
x-y,x,-z
-x+y,y,z
x,x-y,z
-y,-x,z
loop_
_atom_site_type_symbol
_atom_site_label
_atom_site_fract_x
_atom_site_fract_y
_atom_site_fract_z
Si Si1 0.914514 0.581334 0.187492
Si Si2 0.248374 0.000000 0.000000
Si Si3 0.749768 0.999992 0.898953
Si Si4 0.000053 0.752273 0.275423
Si Si5 0.246445 0.999622 0.553068
Si Si6 0.913468 0.333313 0.637006
O O1 0.776458 0.552915 0.186057
O O2 0.920337 0.460169 0.190333
O O3 0.978506 0.657519 0.141714
O O4 0.975178 0.666453 0.231611
O O5 0.303466 0.002475 0.049982
O O6 0.117337 0.882664 0.001501
O O7 0.874888 0.125113 0.893318
O O8 0.774447 0.887224 0.897022
O O9 0.118195 0.881806 0.267770
O O10 0.023651 0.694384 0.320476
O O11 0.883242 0.766484 0.281828
O O12 0.217865 0.108932 0.557336
O O13 0.349215 0.026467 0.589863
O O14 0.283392 0.000000 0.500000
O O15 0.126414 0.873587 0.562380
O O16 0.921325 0.460663 0.641842
O O17 0.774982 0.225019 0.636399
#
# Coordination Sequence:
#
# PCOD9578575 Si02
#       6
#    12   6  12  12  12  12
#     4  10  20  33  48  66  91 125 162 195 227 269
#     4   8  13  22  39  66  96 122 148 182 232 288
#     4   9  16  27  46  71  97 122 150 190 239 287
#     4  10  20  34  54  78 100 120 146 188 241 290
#     4   9  17  30  50  75 100 126 158 200 249 294
#     4  10  20  33  49  69  96 131 167 198 228 270
#
# _framework density 15.979006999999999
#
# number of rings (size 3 to 8) (size 9 to 14) (size 15 to 20)
#    0.000    2.545    0.000    2.636    0.000    2.545 
#    0.000    4.091    0.000    8.000    0.000    0.000 
#    0.000    0.000    0.000    0.000    0.000    0.000 
#
# Total GULP energy -367826.924259 kJ/mol
# GULP energy per Si atom -5573.135216 kJ/mol
# Density = 1.594264 g / cm^3
# Si number density = 15.979007 Si / 1000 Ang^3
#
#
#
# Elastic Constant Matrix: (Units=GPa)
#
#
# Indices 1 2 3 4 5 6 
#
# 1 101.0289 69.7339 75.9644 0.8166 0.0000 0.0000
# 2 69.7339 101.0289 75.9644 -0.8166 0.0000 0.0000
# 3 75.9644 75.9644 133.8900 0.0000 0.0000 0.0000
# 4 0.8166 -0.8166 0.0000 14.1340 0.0000 0.0000
# 5 0.0000 0.0000 0.0000 0.0000 14.1340 0.8166
# 6 0.0000 0.0000 0.0000 0.0000 0.8166 15.6475
#
#
#
# Elastic Compliance Matrix: (Units=1/GPa)
#
#
# Indices 1 2 3 4 5 6 
#
# 1 0.021938 -0.010113 -0.006709 -0.001852 0.000000 0.000000
# 2 -0.010113 0.021938 -0.006709 0.001852 0.000000 0.000000
# 3 -0.006709 -0.006709 0.015082 0.000000 0.000000 0.000000
# 4 -0.001852 0.001852 0.000000 0.070965 0.000000 0.000000
# 5 0.000000 0.000000 0.000000 0.000000 0.070965 -0.003704
# 6 0.000000 0.000000 0.000000 0.000000 -0.003704 0.064101
#
#
# Mechanical properties :
#
#
# Convention : Reuss Voigt Hill
#
# Bulk Modulus (GPa) = 84.06453 86.58589 85.32521
# Shear Modulus (GPa) = 15.82190 16.40211 16.11200
#
# Velocity S-wave (km/s) = 3.15011 3.20735 3.17886
# Velocity P-wave (km/s) = 8.12124 8.24748 8.18460
#
# Compressibility (1/GPa) = 0.01189562
#
# Stress axis : x y z
#
# Youngs Moduli (GPa) = 45.58295 45.58295 66.30392
#
# Poissons Ratio (x) = 0.46096 0.44485
# Poissons Ratio (y) = 0.46096 0.44485
# Poissons Ratio (z) = 0.30583 0.30583
#
# Static dielectric constant tensor:
#      x y z
#    x 1.500580 0.000000 0.000000 
#    y 0.000000 1.500580 0.000000 
#    z 0.000000 0.000000 1.560630 
# 
# From -- ./inp_files/5404.got.cif
#   From: 2010.05.17/outbox.cif.g08.bks.cpg/sg164_3_cif.got.tgz:5404.got - 2010.05.20 10:58:56.
