data_PCOD9578427
_publ_section_title
;
Structure prediction by ZEFSAII (Michael W. Deem and Ramdas Pophale) SiO2 
 PCOD9578427
Probable space group: P -3 M 1
;
_chemical_formula_sum "Si O2"
_cell_formula_units_Z 96
_cell_length_a 18.235142
_cell_length_b 18.235142
_cell_length_c 21.166955
_cell_angle_alpha 90.000000
_cell_angle_beta 90.000000
_cell_angle_gamma 120.000000
_cell_volume 6095.471673
_symmetry_space_group_name_H-M "P -3 M 1"
_symmetry_group_IT_number 164
_symmetry_cell_setting 'hexagonal'
loop_
_space_group_symop_operation_xyz
x,y,z
-y,x-y,z
-x+y,-x,z
x-y,-y,-z
-x,-x+y,-z
y,x,-z
-x,-y,-z
y,-x+y,-z
x-y,x,-z
-x+y,y,z
x,x-y,z
-y,-x,z
loop_
_atom_site_type_symbol
_atom_site_label
_atom_site_fract_x
_atom_site_fract_y
_atom_site_fract_z
Si Si1 0.158195 0.665763 0.638915
Si Si2 0.733226 0.637769 0.247598
Si Si3 0.362996 0.459496 1.000000
Si Si4 0.665755 0.160554 0.500000
Si Si5 0.164539 0.668721 0.862991
Si Si6 0.504183 0.668721 0.137009
Si Si7 0.158194 0.492431 0.361086
Si Si8 0.637768 0.904544 0.247599
O O1 0.157772 0.578886 0.653300
O O2 0.255234 0.744766 0.637596
O O3 0.111041 0.689117 0.691716
O O4 0.119184 0.656835 0.568506
O O5 0.831227 0.662454 0.248043
O O6 0.690282 0.578227 0.186654
O O7 0.713803 0.713803 0.247370
O O8 0.452679 0.547322 1.000000
O O9 0.320661 0.461916 0.065423
O O10 0.384554 0.384554 0.000000
O O11 0.320661 0.461916 0.934577
O O12 0.593634 0.187268 0.500000
O O13 0.757411 0.242590 0.500000
O O14 0.656835 0.119183 0.568505
O O15 0.148542 0.574271 0.855088
O O16 0.262798 0.737203 0.851765
O O17 0.474404 0.737202 0.148234
O O18 0.425730 0.574271 0.144912
O O19 0.578226 0.690282 0.186654
O O20 0.255233 0.510466 0.362405
O O21 0.157773 0.578887 0.346701
O O22 0.111039 0.421924 0.308285
O O23 0.662453 0.831227 0.248045
#
# Coordination Sequence:
#
# PCOD9578427 Si02
#       8
#    12  12  12  12  12  12  12  12
#     4   9  16  26  42  65  94 127 160 189 215 246
#     4  10  21  35  50  67  87 113 144 182 228 275
#     4   9  17  28  42  60  84 119 163 205 235 254
#     4   8  13  22  37  59  88 123 160 192 217 242
#     4  10  19  30  45  66  94 127 160 190 219 255
#     4  10  19  30  45  66  94 127 160 190 219 255
#     4   9  16  26  42  65  94 127 160 189 215 246
#     4  10  21  35  50  67  87 113 144 182 228 275
#
# _framework density 15.749396000000001
#
# number of rings (size 3 to 8) (size 9 to 14) (size 15 to 20)
#    0.000    2.625    0.000    2.500    0.000    5.000 
#    0.000    4.375    0.000    2.500    0.000    0.000 
#    0.000    0.000    0.000    0.000    0.000   40.750 
#
# Total GULP energy -534802.729260 kJ/mol
# GULP energy per Si atom -5570.861763 kJ/mol
# Density = 1.571355 g / cm^3
# Si number density = 15.749396 Si / 1000 Ang^3
#
#
#
# Elastic Constant Matrix: (Units=GPa)
#
#
# Indices 1 2 3 4 5 6 
#
# 1 62.4364 48.3607 35.4596 -0.0001 0.0000 0.0000
# 2 48.3607 62.4364 35.4596 0.0001 0.0000 0.0000
# 3 35.4596 35.4596 105.4903 0.0000 0.0000 0.0000
# 4 -0.0001 0.0001 0.0000 7.6661 0.0000 0.0000
# 5 0.0000 0.0000 0.0000 0.0000 7.6661 -0.0001
# 6 0.0000 0.0000 0.0000 0.0000 -0.0001 7.0378
#
#
#
# Elastic Compliance Matrix: (Units=1/GPa)
#
#
# Indices 1 2 3 4 5 6 
#
# 1 0.041272 -0.029772 -0.003866 0.000001 0.000000 0.000000
# 2 -0.029772 0.041272 -0.003866 -0.000001 0.000000 0.000000
# 3 -0.003866 -0.003866 0.012078 0.000000 0.000000 0.000000
# 4 0.000001 -0.000001 0.000000 0.130444 0.000000 0.000000
# 5 0.000000 0.000000 0.000000 0.000000 0.130444 0.000002
# 6 0.000000 0.000000 0.000000 0.000000 0.000002 0.142089
#
#
# Mechanical properties :
#
#
# Convention : Reuss Voigt Hill
#
# Bulk Modulus (GPa) = 50.97972 52.10255 51.54114
# Shear Modulus (GPa) = 8.63342 11.87956 10.25649
#
# Velocity S-wave (km/s) = 2.34385 2.74941 2.55469
# Velocity P-wave (km/s) = 6.30591 6.57519 6.44195
#
# Compressibility (1/GPa) = 0.01961564
#
# Stress axis : x y z
#
# Youngs Moduli (GPa) = 24.22938 24.22938 82.79322
#
# Poissons Ratio (x) = 0.72137 0.32004
# Poissons Ratio (y) = 0.72137 0.32004
# Poissons Ratio (z) = 0.09366 0.09366
#
# Static dielectric constant tensor:
#      x y z
#    x 1.509340 0.000000 0.000000 
#    y 0.000000 1.509340 0.000000 
#    z 0.000000 0.000000 1.570080 
# 
# From -- ./inp_files/4762.got.cif
#   From: 2010.05.17/outbox.cif.g08.bks.cpg/sg164_3_cif.got.tgz:4762.got - 2010.05.20 10:58:56.
