data_PCOD9578584
_publ_section_title
;
Structure prediction by ZEFSAII (Michael W. Deem and Ramdas Pophale) SiO2 
 PCOD9578584
Probable space group: P -3 M 1
;
_chemical_formula_sum "Si O2"
_cell_formula_units_Z 60
_cell_length_a 13.029450
_cell_length_b 13.029450
_cell_length_c 25.924769
_cell_angle_alpha 90.000000
_cell_angle_beta 90.000000
_cell_angle_gamma 120.000000
_cell_volume 3811.515536
_symmetry_space_group_name_H-M "P -3 M 1"
_symmetry_group_IT_number 164
_symmetry_cell_setting 'hexagonal'
loop_
_space_group_symop_operation_xyz
x,y,z
-y,x-y,z
-x+y,-x,z
x-y,-y,-z
-x,-x+y,-z
y,x,-z
-x,-y,-z
y,-x+y,-z
x-y,x,-z
-x+y,y,z
x,x-y,z
-y,-x,z
loop_
_atom_site_type_symbol
_atom_site_label
_atom_site_fract_x
_atom_site_fract_y
_atom_site_fract_z
Si Si1 0.576872 0.666879 0.850134
Si Si2 0.090620 0.667073 0.454996
Si Si3 0.000127 0.756084 0.755147
Si Si4 0.241383 0.240974 0.939568
Si Si5 0.333581 0.423779 0.337925
O O1 0.547096 0.773548 0.850571
O O2 0.458949 0.541052 0.845767
O O3 0.666481 0.693792 0.802631
O O4 0.650312 0.680078 0.902120
O O5 0.114553 0.557277 0.458563
O O6 0.211165 0.788836 0.461739
O O7 0.046405 0.663436 0.396487
O O8 0.000000 0.649525 0.500000
O O9 0.113227 0.886774 0.749516
O O10 0.881226 0.762452 0.764420
O O11 0.978884 0.677478 0.704097
O O12 0.251196 0.125598 0.927257
O O13 0.105725 0.211450 0.932306
O O14 0.270008 0.270008 0.000000
O O15 0.227062 0.454124 0.336576
O O16 0.458452 0.541549 0.327189
#
# Coordination Sequence:
#
# PCOD9578584 Si02
#       5
#    12  12  12  12  12
#     4  10  20  33  49  68  92 123 157 192 229 272
#     4   9  17  29  46  67  91 120 154 192 231 272
#     4  10  20  33  50  71  94 120 150 187 231 277
#     4   9  17  30  50  75 100 126 157 194 234 274
#     4   9  17  30  48  69  92 120 154 190 229 273
#
# _framework density 15.741770000000001
#
# number of rings (size 3 to 8) (size 9 to 14) (size 15 to 20)
#    0.000    2.600    0.000    2.200    0.000    3.600 
#    0.000    2.000    0.000    5.000    0.000    0.000 
#    0.000    0.000    0.000    0.000    0.000    0.000 
#
# Total GULP energy -334473.102798 kJ/mol
# GULP energy per Si atom -5574.551713 kJ/mol
# Density = 1.570594 g / cm^3
# Si number density = 15.741770 Si / 1000 Ang^3
#
#
#
# Elastic Constant Matrix: (Units=GPa)
#
#
# Indices 1 2 3 4 5 6 
#
# 1 104.3468 71.5033 76.3014 3.7455 0.0000 0.0000
# 2 71.5033 104.3468 76.3014 -3.7455 0.0000 0.0000
# 3 76.3014 76.3014 107.0338 0.0000 0.0000 0.0000
# 4 3.7455 -3.7455 0.0000 22.9937 0.0000 0.0000
# 5 0.0000 0.0000 0.0000 0.0000 22.9937 3.7455
# 6 0.0000 0.0000 0.0000 0.0000 3.7455 16.4217
#
#
#
# Elastic Compliance Matrix: (Units=1/GPa)
#
#
# Indices 1 2 3 4 5 6 
#
# 1 0.023267 -0.008356 -0.010630 -0.005151 0.000000 0.000000
# 2 -0.008356 0.023267 -0.010630 0.005151 0.000000 0.000000
# 3 -0.010630 -0.010630 0.024498 0.000000 0.000000 0.000000
# 4 -0.005151 0.005151 0.000000 0.045168 0.000000 0.000000
# 5 0.000000 0.000000 0.000000 0.000000 0.045168 -0.010302
# 6 0.000000 0.000000 0.000000 0.000000 -0.010302 0.063245
#
#
# Mechanical properties :
#
#
# Convention : Reuss Voigt Hill
#
# Bulk Modulus (GPa) = 84.73520 84.88217 84.80869
# Shear Modulus (GPa) = 17.37458 18.58993 17.98226
#
# Velocity S-wave (km/s) = 3.32584 3.44019 3.38350
# Velocity P-wave (km/s) = 8.28815 8.35575 8.32202
#
# Compressibility (1/GPa) = 0.01180147
#
# Stress axis : x y z
#
# Youngs Moduli (GPa) = 42.97980 42.97980 40.81952
#
# Poissons Ratio (x) = 0.35912 0.43390
# Poissons Ratio (y) = 0.35912 0.43390
# Poissons Ratio (z) = 0.45686 0.45686
#
# Static dielectric constant tensor:
#      x y z
#    x 1.496540 0.000000 0.000000 
#    y 0.000000 1.496540 0.000000 
#    z 0.000000 0.000000 1.534580 
# 
# From -- ./inp_files/5172.got.cif
#   From: 2010.05.17/outbox.cif.g08.bks.cpg/sg164_3_cif.got.tgz:5172.got - 2010.05.20 10:58:56.
