data_PCOD9578542
_publ_section_title
;
Structure prediction by ZEFSAII (Michael W. Deem and Ramdas Pophale) SiO2 
 PCOD9578542
Probable space group: P -3 M 1
;
_chemical_formula_sum "Si O2"
_cell_formula_units_Z 54
_cell_length_a 12.838088
_cell_length_b 12.838088
_cell_length_c 23.542785
_cell_angle_alpha 90.000000
_cell_angle_beta 90.000000
_cell_angle_gamma 120.000000
_cell_volume 3360.385985
_symmetry_space_group_name_H-M "P -3 M 1"
_symmetry_group_IT_number 164
_symmetry_cell_setting 'hexagonal'
loop_
_space_group_symop_operation_xyz
x,y,z
-y,x-y,z
-x+y,-x,z
x-y,-y,-z
-x,-x+y,-z
y,x,-z
-x,-y,-z
y,-x+y,-z
x-y,x,-z
-x+y,y,z
x,x-y,z
-y,-x,z
loop_
_atom_site_type_symbol
_atom_site_label
_atom_site_fract_x
_atom_site_fract_y
_atom_site_fract_z
Si Si1 0.752595 0.752595 0.000000
Si Si2 0.666284 0.086540 0.896135
Si Si3 0.914071 0.333396 0.338242
Si Si4 0.419142 0.085175 0.554125
Si Si5 0.332999 0.419685 0.233898
O O1 0.676520 0.687517 0.056166
O O2 0.881992 0.763984 0.002881
O O3 0.541609 0.083217 0.905692
O O4 0.776884 0.223116 0.900428
O O5 0.667955 0.047689 0.831128
O O6 0.884902 0.442451 0.339695
O O7 0.793562 0.206439 0.343943
O O8 0.006729 0.359402 0.389580
O O9 0.983820 0.345890 0.279585
O O10 0.558090 0.116180 0.553562
O O11 0.411836 0.205918 0.552645
O O12 0.356113 0.000000 0.500000
O O13 0.206981 0.413962 0.245499
O O14 0.442141 0.557860 0.237852
#
# Coordination Sequence:
#
# PCOD9578542 Si02
#       5
#     6  12  12  12  12
#     4  10  20  32  46  64  90 126 164 198 230 272
#     4   9  17  30  49  72  95 119 150 192 242 290
#     4  10  20  33  50  71  97 129 162 197 235 277
#     4  10  20  34  54  78 102 128 159 198 241 284
#     4   9  17  30  50  74  97 121 151 192 241 289
#
# _framework density 16.069583000000002
#
# number of rings (size 3 to 8) (size 9 to 14) (size 15 to 20)
#    0.000    2.444    0.000    2.667    0.000    2.667 
#    0.000    4.444    0.000    8.889    0.000    0.000 
#    0.000    0.000    0.000    0.000    0.000    0.000 
#
# Total GULP energy -301166.033331 kJ/mol
# GULP energy per Si atom -5577.148765 kJ/mol
# Density = 1.603301 g / cm^3
# Si number density = 16.069583 Si / 1000 Ang^3
#
#
#
# Elastic Constant Matrix: (Units=GPa)
#
#
# Indices 1 2 3 4 5 6 
#
# 1 105.8304 71.0304 76.2761 1.2060 0.0000 0.0000
# 2 71.0304 105.8304 76.2761 -1.2060 0.0000 0.0000
# 3 76.2761 76.2761 132.9548 0.0000 0.0000 0.0000
# 4 1.2060 -1.2060 0.0000 18.8600 0.0000 0.0000
# 5 0.0000 0.0000 0.0000 0.0000 18.8600 1.2060
# 6 0.0000 0.0000 0.0000 0.0000 1.2060 17.4000
#
#
#
# Elastic Compliance Matrix: (Units=1/GPa)
#
#
# Indices 1 2 3 4 5 6 
#
# 1 0.020028 -0.008835 -0.006421 -0.001846 0.000000 0.000000
# 2 -0.008835 0.020028 -0.006421 0.001846 0.000000 0.000000
# 3 -0.006421 -0.006421 0.014889 0.000000 0.000000 0.000000
# 4 -0.001846 0.001846 0.000000 0.053258 0.000000 0.000000
# 5 0.000000 0.000000 0.000000 0.000000 0.053258 -0.003691
# 6 0.000000 0.000000 0.000000 0.000000 -0.003691 0.057727
#
#
# Mechanical properties :
#
#
# Convention : Reuss Voigt Hill
#
# Bulk Modulus (GPa) = 86.28423 87.97563 87.12993
# Shear Modulus (GPa) = 18.76812 19.09285 18.93049
#
# Velocity S-wave (km/s) = 3.42120 3.45067 3.43597
# Velocity P-wave (km/s) = 8.33168 8.41081 8.37134
#
# Compressibility (1/GPa) = 0.01158960
#
# Stress axis : x y z
#
# Youngs Moduli (GPa) = 49.92941 49.92941 67.16254
#
# Poissons Ratio (x) = 0.44114 0.43128
# Poissons Ratio (y) = 0.44114 0.43128
# Poissons Ratio (z) = 0.32062 0.32062
#
# Static dielectric constant tensor:
#      x y z
#    x 1.504750 0.000000 0.000000 
#    y 0.000000 1.504750 0.000000 
#    z 0.000000 0.000000 1.550060 
# 
# From -- ./inp_files/4851.got.cif
#   From: 2010.05.17/outbox.cif.g08.bks.cpg/sg164_3_cif.got.tgz:4851.got - 2010.05.20 10:58:56.
