data_PCOD9578452
_publ_section_title
;
Structure prediction by ZEFSAII (Michael W. Deem and Ramdas Pophale) SiO2 
 PCOD9578452
Probable space group: P -3 M 1
;
_chemical_formula_sum "Si O2"
_cell_formula_units_Z 72
_cell_length_a 22.784045
_cell_length_b 22.784045
_cell_length_c 8.857962
_cell_angle_alpha 90.000000
_cell_angle_beta 90.000000
_cell_angle_gamma 120.000000
_cell_volume 3982.227838
_symmetry_space_group_name_H-M "P -3 M 1"
_symmetry_group_IT_number 164
_symmetry_cell_setting 'hexagonal'
loop_
_space_group_symop_operation_xyz
x,y,z
-y,x-y,z
-x+y,-x,z
x-y,-y,-z
-x,-x+y,-z
y,x,-z
-x,-y,-z
y,-x+y,-z
x-y,x,-z
-x+y,y,z
x,x-y,z
-y,-x,z
loop_
_atom_site_type_symbol
_atom_site_label
_atom_site_fract_x
_atom_site_fract_y
_atom_site_fract_z
Si Si1 0.927623 0.719951 0.088408
Si Si2 0.297975 0.890166 0.107167
Si Si3 0.333773 0.800615 0.643523
Si Si4 0.200172 0.667326 0.304344
Si Si5 0.533371 0.931790 0.843450
Si Si6 0.673573 0.995836 0.676748
O O1 0.872537 0.745073 0.097309
O O2 0.951012 0.702382 0.246398
O O3 0.888592 0.646194 0.006540
O O4 0.000000 0.767839 0.000000
O O5 0.302233 0.829142 0.183040
O O6 0.290073 0.931184 0.245106
O O7 0.367015 0.928266 0.008225
O O8 0.386590 0.773179 0.635792
O O9 0.258724 0.741277 0.674283
O O10 0.336479 0.828910 0.473822
O O11 0.360112 0.856196 0.773279
O O12 0.186296 0.593148 0.261921
O O13 0.280097 0.719904 0.319099
O O14 0.477730 0.955460 0.843427
O O15 0.596709 0.969477 0.731324
O O16 0.681029 0.000000 0.500000
#
# Coordination Sequence:
#
# PCOD9578452 Si02
#       6
#    12  12  12  12  12  12
#     4   9  19  37  60  85 113 142 171 205 245 293
#     4  10  20  34  51  73 102 133 171 214 259 311
#     4   9  18  31  46  64  88 122 165 214 267 321
#     4  10  19  31  47  68  95 129 172 221 272 320
#     4  10  20  32  47  68  94 129 174 223 273 318
#     4  10  21  36  53  77 106 136 173 211 252 304
#
# _framework density 18.080331999999999
#
# number of rings (size 3 to 8) (size 9 to 14) (size 15 to 20)
#    0.000    2.333    0.000    3.833    0.000    7.000 
#    0.000    4.167    0.000    2.167    0.000    0.000 
#    0.000    0.667    0.000    0.000    0.000    0.000 
#
# Total GULP energy -400920.609969 kJ/mol
# GULP energy per Si atom -5568.341805 kJ/mol
# Density = 1.803918 g / cm^3
# Si number density = 18.080332 Si / 1000 Ang^3
#
#
#
# Elastic Constant Matrix: (Units=GPa)
#
#
# Indices 1 2 3 4 5 6 
#
# 1 67.6970 27.7403 32.8707 1.6343 0.0000 0.0000
# 2 27.7403 67.6970 32.8707 -1.6343 0.0000 0.0000
# 3 32.8707 32.8707 126.3455 0.0000 0.0000 0.0000
# 4 1.6343 -1.6343 0.0000 11.5982 0.0000 0.0000
# 5 0.0000 0.0000 0.0000 0.0000 11.5982 1.6343
# 6 0.0000 0.0000 0.0000 0.0000 1.6343 19.9783
#
#
#
# Elastic Compliance Matrix: (Units=1/GPa)
#
#
# Indices 1 2 3 4 5 6 
#
# 1 0.019042 -0.006277 -0.003321 -0.003568 0.000000 0.000000
# 2 -0.006277 0.019042 -0.003321 0.003568 0.000000 0.000000
# 3 -0.003321 -0.003321 0.009643 0.000000 0.000000 0.000000
# 4 -0.003568 0.003568 0.000000 0.087226 0.000000 0.000000
# 5 0.000000 0.000000 0.000000 0.000000 0.087226 -0.007136
# 6 0.000000 0.000000 0.000000 0.000000 -0.007136 0.050638
#
#
# Mechanical properties :
#
#
# Convention : Reuss Voigt Hill
#
# Bulk Modulus (GPa) = 45.68340 49.85587 47.76964
# Shear Modulus (GPa) = 16.34241 19.85211 18.09726
#
# Velocity S-wave (km/s) = 3.00972 3.31720 3.16719
# Velocity P-wave (km/s) = 6.11552 6.50432 6.31292
#
# Compressibility (1/GPa) = 0.02188979
#
# Stress axis : x y z
#
# Youngs Moduli (GPa) = 52.51427 52.51427 103.70268
#
# Poissons Ratio (x) = 0.32961 0.34442
# Poissons Ratio (y) = 0.32961 0.34442
# Poissons Ratio (z) = 0.17441 0.17441
#
# Static dielectric constant tensor:
#      x y z
#    x 1.660540 0.000000 0.000000 
#    y 0.000000 1.660540 0.000000 
#    z 0.000000 0.000000 1.634570 
# 
# From -- ./inp_files/1959.got.cif
#   From: 2010.05.17/outbox.cif.g08.bks.cpg/sg164_1_cif.got.tgz:1959.got - 2010.05.20 10:58:56.
