data_PCOD9578733
_publ_section_title
;
Structure prediction by ZEFSAII (Michael W. Deem and Ramdas Pophale) SiO2 
 PCOD9578733
Probable space group: P -3 M 1
;
_chemical_formula_sum "Si O2"
_cell_formula_units_Z 60
_cell_length_a 22.877924
_cell_length_b 22.877924
_cell_length_c 7.012968
_cell_angle_alpha 90.000000
_cell_angle_beta 90.000000
_cell_angle_gamma 120.000000
_cell_volume 3178.818375
_symmetry_space_group_name_H-M "P -3 M 1"
_symmetry_group_IT_number 164
_symmetry_cell_setting 'hexagonal'
loop_
_space_group_symop_operation_xyz
x,y,z
-y,x-y,z
-x+y,-x,z
x-y,-y,-z
-x,-x+y,-z
y,x,-z
-x,-y,-z
y,-x+y,-z
x-y,x,-z
-x+y,y,z
x,x-y,z
-y,-x,z
loop_
_atom_site_type_symbol
_atom_site_label
_atom_site_fract_x
_atom_site_fract_y
_atom_site_fract_z
Si Si1 0.812815 0.052460 0.869511
Si Si2 0.077128 0.383010 0.071880
Si Si3 0.923747 0.393892 0.582176
Si Si4 0.865628 0.595983 0.327234
Si Si5 0.947078 0.192464 0.377884
O O1 0.892117 0.107884 0.875257
O O2 0.764469 0.085026 0.857327
O O3 0.806290 0.032531 0.623564
O O4 0.803997 0.033985 0.124412
O O5 0.083363 0.436336 0.226203
O O6 0.126661 0.413367 0.895178
O O7 0.000000 0.347478 0.000000
O O8 0.907533 0.453767 0.606004
O O9 0.878316 0.335703 0.435187
O O10 0.000000 0.427979 0.500000
O O11 0.794947 0.589894 0.374472
O O12 0.921911 0.674199 0.375379
O O13 0.883065 0.116936 0.374129
#
# Coordination Sequence:
#
# PCOD9578733 Si02
#       5
#    12  12  12  12  12
#     4  11  20  33  53  77 109 146 190 242 297 350
#     4  11  20  35  58  85 122 153 194 238 293 360
#     4  11  23  38  59  90 125 160 191 231 296 367
#     4  11  22  38  60  89 120 153 198 248 297 351
#     4  11  21  34  53  77 105 143 192 246 302 354
#
# _framework density 18.874939999999999
#
# number of rings (size 3 to 8) (size 9 to 14) (size 15 to 20)
#    0.000    1.000    6.000    3.600    0.000    4.400 
#    0.000    0.000    0.000    8.400    0.000    1.400 
#    0.000    0.000    0.000    0.000    0.000    0.000 
#
# Total GULP energy -334628.274449 kJ/mol
# GULP energy per Si atom -5577.137907 kJ/mol
# Density = 1.883198 g / cm^3
# Si number density = 18.874940 Si / 1000 Ang^3
#
#
#
# Elastic Constant Matrix: (Units=GPa)
#
#
# Indices 1 2 3 4 5 6 
#
# 1 103.1760 53.2102 52.7568 0.2499 0.0000 0.0000
# 2 53.2102 103.1760 52.7568 -0.2499 0.0000 0.0000
# 3 52.7568 52.7568 137.7336 0.0000 0.0000 0.0000
# 4 0.2499 -0.2499 0.0000 33.0965 0.0000 0.0000
# 5 0.0000 0.0000 0.0000 0.0000 33.0965 0.2499
# 6 0.0000 0.0000 0.0000 0.0000 0.2499 24.9829
#
#
#
# Elastic Compliance Matrix: (Units=1/GPa)
#
#
# Indices 1 2 3 4 5 6 
#
# 1 0.014319 -0.005696 -0.003303 -0.000151 0.000000 0.000000
# 2 -0.005696 0.014319 -0.003303 0.000151 0.000000 0.000000
# 3 -0.003303 -0.003303 0.009791 0.000000 0.000000 0.000000
# 4 -0.000151 0.000151 0.000000 0.030217 0.000000 0.000000
# 5 0.000000 0.000000 0.000000 0.000000 0.030217 -0.000302
# 6 0.000000 0.000000 0.000000 0.000000 -0.000302 0.040030
#
#
# Mechanical properties :
#
#
# Convention : Reuss Voigt Hill
#
# Bulk Modulus (GPa) = 72.33324 73.50368 72.91846
# Shear Modulus (GPa) = 29.74333 30.59266 30.16799
#
# Velocity S-wave (km/s) = 3.97395 4.03029 4.00222
# Velocity P-wave (km/s) = 7.71116 7.79004 7.75070
#
# Compressibility (1/GPa) = 0.01382490
#
# Stress axis : x y z
#
# Youngs Moduli (GPa) = 69.83717 69.83717 102.13874
#
# Poissons Ratio (x) = 0.39780 0.33735
# Poissons Ratio (y) = 0.39780 0.33735
# Poissons Ratio (z) = 0.23066 0.23066
#
# Static dielectric constant tensor:
#      x y z
#    x 1.602500 0.000000 0.000000 
#    y 0.000000 1.602500 0.000000 
#    z 0.000000 0.000000 2.114510 
# 
# From -- ./inp_files/682.got.cif
#   From: 2010.05.17/outbox.cif.g08.bks.cpg/sg164_1_cif.got.tgz:682.got - 2010.05.20 10:58:56.
