data_PCOD9578080
_publ_section_title
;
Structure prediction by ZEFSAII (Michael W. Deem and Ramdas Pophale) SiO2 
 PCOD9578080
Probable space group: P -3 1 C
;
_chemical_formula_sum "Si O2"
_cell_formula_units_Z 52
_cell_length_a 13.838333
_cell_length_b 13.838333
_cell_length_c 13.744797
_cell_angle_alpha 90.000000
_cell_angle_beta 90.000000
_cell_angle_gamma 120.000000
_cell_volume 2279.483831
_symmetry_space_group_name_H-M "P -3 1 C"
_symmetry_group_IT_number 163
_symmetry_cell_setting 'hexagonal'
loop_
_space_group_symop_operation_xyz
x,y,z
-y,x-y,z
-x+y,-x,z
-y,-x,1/2-z
-x+y,y,1/2-z
x,x-y,1/2-z
-x,-y,-z
y,-x+y,-z
x-y,x,-z
y,x,1/2+z
x-y,-y,1/2+z
-x,-x+y,1/2+z
loop_
_atom_site_type_symbol
_atom_site_label
_atom_site_fract_x
_atom_site_fract_y
_atom_site_fract_z
Si Si1 0.288436 0.970651 0.685033
Si Si2 0.883464 0.393346 0.029047
Si Si3 0.178943 0.361005 0.413882
Si Si4 0.666666 0.333333 0.130009
Si Si5 0.276467 0.206044 0.113239
O O1 0.334328 0.911701 0.616066
O O2 0.279719 0.932124 0.795288
O O3 0.160539 0.919792 0.645805
O O4 0.362288 0.102871 0.670224
O O5 0.787196 0.409523 0.078371
O O6 0.841269 0.304571 0.938817
O O7 0.000000 0.500000 0.000000
O O8 0.228953 0.339682 0.512113
O O9 0.059608 0.249044 0.398748
O O10 0.666668 0.333334 0.250000
#
# Coordination Sequence:
#
# PCOD9578080 Si02
#       5
#    12  12  12   4  12
#     4  10  22  39  65  92 140 181 236 284 358 427
#     4  11  25  44  70  96 144 186 234 298 368 416
#     4  11  20  39  65  93 139 180 234 282 361 426
#     4  12  30  42  72 114 142 179 259 306 351 441
#     4  10  20  35  63  96 129 183 228 281 341 427
#
# _framework density 22.812180999999999
#
# number of rings (size 3 to 8) (size 9 to 14) (size 15 to 20)
#    0.000    1.385    4.615    2.077    9.692    0.000 
#    1.385    1.154    0.000    0.000    0.000    6.462 
#    0.000    0.000    0.000    0.000    0.000    0.000 
#
# Total GULP energy -289981.111384 kJ/mol
# GULP energy per Si atom -5576.559834 kJ/mol
# Density = 2.276026 g / cm^3
# Si number density = 22.812181 Si / 1000 Ang^3
#
#
#
# Elastic Constant Matrix: (Units=GPa)
#
#
# Indices 1 2 3 4 5 6 
#
# 1 80.5542 8.7433 16.7221 -0.0001 -0.2331 -0.0001
# 2 8.7433 80.5541 16.7221 0.0000 0.2331 -0.0001
# 3 16.7221 16.7221 73.5145 0.0000 0.0000 0.0000
# 4 -0.0001 0.0000 0.0000 27.7549 0.0000 0.2331
# 5 -0.2331 0.2331 0.0000 0.0000 27.7550 0.0000
# 6 -0.0001 -0.0001 0.0000 0.2331 0.0000 35.9055
#
#
#
# Elastic Compliance Matrix: (Units=1/GPa)
#
#
# Indices 1 2 3 4 5 6 
#
# 1 0.013084 -0.000842 -0.002785 0.000000 0.000117 0.000000
# 2 -0.000842 0.013084 -0.002785 0.000000 -0.000117 0.000000
# 3 -0.002785 -0.002785 0.014870 0.000000 0.000000 0.000000
# 4 0.000000 0.000000 0.000000 0.036032 0.000000 -0.000234
# 5 0.000117 -0.000117 0.000000 0.000000 0.036032 0.000000
# 6 0.000000 0.000000 0.000000 -0.000234 0.000000 0.027852
#
#
# Mechanical properties :
#
#
# Convention : Reuss Voigt Hill
#
# Bulk Modulus (GPa) = 35.44306 35.44422 35.44364
# Shear Modulus (GPa) = 30.64093 31.11209 30.87651
#
# Velocity S-wave (km/s) = 3.66892 3.69702 3.68300
# Velocity P-wave (km/s) = 5.78953 5.81336 5.80145
#
# Compressibility (1/GPa) = 0.02821426
#
# Stress axis : x y z
#
# Youngs Moduli (GPa) = 76.43039 76.43023 67.25158
#
# Poissons Ratio (x) = 0.06439 0.18726
# Poissons Ratio (y) = 0.06439 0.18726
# Poissons Ratio (z) = 0.21282 0.21282
#
# Static dielectric constant tensor:
#      x y z
#    x 1.911950 0.000000 0.000000 
#    y 0.000000 1.911950 0.000000 
#    z 0.000000 0.000000 1.869380 
# 
# From -- ./inp_files/2305.got.cif
#   From: 2010.05.17/outbox.cif.g08.bks.cpg/sg163_2_cif.got.tgz:2305.got - 2010.05.20 10:56:03.
