data_PCOD9578572
_publ_section_title
;
Structure prediction by ZEFSAII (Michael W. Deem and Ramdas Pophale) SiO2 
 PCOD9578572
Probable space group: P -3 M 1
;
_chemical_formula_sum "Si O2"
_cell_formula_units_Z 72
_cell_length_a 12.729266
_cell_length_b 12.729266
_cell_length_c 31.654176
_cell_angle_alpha 90.000000
_cell_angle_beta 90.000000
_cell_angle_gamma 120.000000
_cell_volume 4441.895819
_symmetry_space_group_name_H-M "P -3 M 1"
_symmetry_group_IT_number 164
_symmetry_cell_setting 'hexagonal'
loop_
_space_group_symop_operation_xyz
x,y,z
-y,x-y,z
-x+y,-x,z
x-y,-y,-z
-x,-x+y,-z
y,x,-z
-x,-y,-z
y,-x+y,-z
x-y,x,-z
-x+y,y,z
x,x-y,z
-y,-x,z
loop_
_atom_site_type_symbol
_atom_site_label
_atom_site_fract_x
_atom_site_fract_y
_atom_site_fract_z
Si Si1 0.416966 0.083657 0.163715
Si Si2 0.748200 0.748152 0.407406
Si Si3 0.583043 0.916359 0.081871
Si Si4 0.083787 0.417175 0.327184
Si Si5 0.000000 0.749800 0.500000
Si Si6 0.249675 0.249675 0.000000
Si Si7 0.750444 0.750278 0.245576
O O1 0.547923 0.095845 0.169894
O O2 0.429401 0.214701 0.157446
O O3 0.333360 0.023801 0.204670
O O4 0.356813 0.999940 0.122806
O O5 0.772338 0.886169 0.405705
O O6 0.657329 0.677365 0.369581
O O7 0.694076 0.696627 0.454168
O O8 0.874479 0.748957 0.402551
O O9 0.452062 0.904124 0.075650
O O10 0.570504 0.785252 0.088102
O O11 0.666661 0.976263 0.040930
O O12 0.222274 0.444548 0.328316
O O13 0.079365 0.539683 0.324304
O O14 0.021957 0.331963 0.286702
O O15 0.881785 0.763569 0.498646
O O16 0.237278 0.118639 0.006265
O O17 0.882116 0.764231 0.251632
O O18 0.761699 0.880850 0.239564
#
# Coordination Sequence:
#
# PCOD9578572 Si02
#       7
#    12  12  12  12   6   6  12
#     4  10  20  34  52  74 101 133 167 200 234 277
#     4   9  16  27  46  71  97 122 150 189 237 286
#     4  10  20  34  52  74 100 130 165 205 248 291
#     4  10  20  33  48  66  90 122 159 196 232 273
#     4   8  13  22  39  66  96 122 148 182 230 284
#     4  10  20  34  52  74 100 130 164 202 246 296
#     4  10  20  34  53  76 100 124 152 191 239 288
#
# _framework density 16.209295999999998
#
# number of rings (size 3 to 8) (size 9 to 14) (size 15 to 20)
#    0.000    2.333    0.000    3.250    0.000    1.333 
#    0.000    2.083    0.000   19.667    0.000    0.000 
#    0.000    0.000    0.000    0.000    0.000    0.000 
#
# Total GULP energy -401475.928873 kJ/mol
# GULP energy per Si atom -5576.054568 kJ/mol
# Density = 1.617240 g / cm^3
# Si number density = 16.209296 Si / 1000 Ang^3
#
#
#
# Elastic Constant Matrix: (Units=GPa)
#
#
# Indices 1 2 3 4 5 6 
#
# 1 116.0751 79.7957 95.9252 3.9284 0.0000 0.0000
# 2 79.7957 116.0751 95.9252 -3.9284 0.0000 0.0000
# 3 95.9252 95.9252 160.3511 0.0000 0.0000 0.0000
# 4 3.9284 -3.9284 0.0000 21.5729 0.0000 0.0000
# 5 0.0000 0.0000 0.0000 0.0000 21.5729 3.9284
# 6 0.0000 0.0000 0.0000 0.0000 3.9284 18.1397
#
#
#
# Elastic Compliance Matrix: (Units=1/GPa)
#
#
# Indices 1 2 3 4 5 6 
#
# 1 0.020513 -0.008183 -0.007376 -0.005225 0.000000 0.000000
# 2 -0.008183 0.020513 -0.007376 0.005225 0.000000 0.000000
# 3 -0.007376 -0.007376 0.015061 0.000000 0.000000 0.000000
# 4 -0.005225 0.005225 0.000000 0.048258 0.000000 0.000000
# 5 0.000000 0.000000 0.000000 0.000000 0.048258 -0.010451
# 6 0.000000 0.000000 0.000000 0.000000 -0.010451 0.057391
#
#
# Mechanical properties :
#
#
# Convention : Reuss Voigt Hill
#
# Bulk Modulus (GPa) = 97.87456 103.97705 100.92580
# Shear Modulus (GPa) = 19.28499 20.31410 19.79954
#
# Velocity S-wave (km/s) = 3.45302 3.54395 3.49878
# Velocity P-wave (km/s) = 8.74131 9.00177 8.87250
#
# Compressibility (1/GPa) = 0.01021716
#
# Stress axis : x y z
#
# Youngs Moduli (GPa) = 48.74996 48.74996 66.39478
#
# Poissons Ratio (x) = 0.39891 0.48974
# Poissons Ratio (y) = 0.39891 0.48974
# Poissons Ratio (z) = 0.35959 0.35959
#
# Static dielectric constant tensor:
#      x y z
#    x 1.510170 0.000000 0.000000 
#    y 0.000000 1.510170 0.000000 
#    z 0.000000 0.000000 1.550200 
# 
# From -- ./inp_files/5580.got.cif
#   From: 2010.05.17/outbox.cif.g08.bks.cpg/sg164_3_cif.got.tgz:5580.got - 2010.05.20 10:58:56.
