data_PCOD9578060
_publ_section_title
;
Structure prediction by ZEFSAII (Michael W. Deem and Ramdas Pophale) SiO2 
 PCOD9578060
Probable space group: P -3 1 C
;
_chemical_formula_sum "Si O2"
_cell_formula_units_Z 60
_cell_length_a 12.355691
_cell_length_b 12.355691
_cell_length_c 28.485305
_cell_angle_alpha 90.000000
_cell_angle_beta 90.000000
_cell_angle_gamma 120.000000
_cell_volume 3766.045675
_symmetry_space_group_name_H-M "P -3 1 C"
_symmetry_group_IT_number 163
_symmetry_cell_setting 'hexagonal'
loop_
_space_group_symop_operation_xyz
x,y,z
-y,x-y,z
-x+y,-x,z
-y,-x,1/2-z
-x+y,y,1/2-z
x,x-y,1/2-z
-x,-y,-z
y,-x+y,-z
x-y,x,-z
y,x,1/2+z
x-y,-y,1/2+z
-x,-x+y,1/2+z
loop_
_atom_site_type_symbol
_atom_site_label
_atom_site_fract_x
_atom_site_fract_y
_atom_site_fract_z
Si Si1 0.666667 0.333334 0.959312
Si Si2 0.376229 0.925268 0.934759
Si Si3 0.666667 0.333334 0.073183
Si Si4 0.739129 0.912202 0.098369
Si Si5 0.835049 0.920321 0.197728
Si Si6 0.579288 0.660792 0.044987
Si Si7 0.000000 0.000000 0.556446
O O1 0.547431 0.339074 0.943414
O O2 0.666668 0.333334 0.016069
O O3 0.319300 0.786056 0.914066
O O4 0.340804 0.018466 0.908846
O O5 0.524456 0.973976 0.939205
O O6 0.331810 0.923792 0.988551
O O7 0.748166 0.885734 0.153005
O O8 0.685748 0.783353 0.069509
O O9 0.878301 0.998498 0.077602
O O10 0.779182 0.889591 0.250000
O O11 0.930359 0.865824 0.194552
O O12 0.000000 0.000000 0.500000
#
# Coordination Sequence:
#
# PCOD9578060 Si02
#       7
#     4  12   4  12  12  12   4
#     4   9  15  36  45  66  91 148 199 205 222 288
#     4  10  22  33  49  71 103 151 181 208 241 310
#     4   9  21  33  48  63 105 146 188 204 231 303
#     4  12  20  33  53  78 103 135 172 222 266 309
#     4   8  16  34  53  74 102 131 166 211 269 331
#     4  10  20  33  49  70 103 146 186 207 244 306
#     4  12  24  30  43  83 121 129 147 222 286 308
#
# _framework density 15.931832
#
# number of rings (size 3 to 8) (size 9 to 14) (size 15 to 20)
#    0.400    1.600    4.000    1.200    5.600    0.000 
#    0.000    0.000    0.000    1.200    0.000    0.000 
#    0.000    0.400    0.000    0.000    0.000    0.000 
#
# Total GULP energy -334052.299451 kJ/mol
# GULP energy per Si atom -5567.538324 kJ/mol
# Density = 1.589557 g / cm^3
# Si number density = 15.931832 Si / 1000 Ang^3
#
#
#
# Elastic Constant Matrix: (Units=GPa)
#
#
# Indices 1 2 3 4 5 6 
#
# 1 54.6269 13.5384 28.0620 -0.0001 -1.5436 0.0000
# 2 13.5384 54.6272 28.0619 0.0000 1.5436 0.0003
# 3 28.0620 28.0619 89.1628 0.0000 0.0000 -0.0001
# 4 -0.0001 0.0000 0.0000 11.1790 -0.0001 1.5436
# 5 -1.5436 1.5436 0.0000 -0.0001 11.1792 0.0000
# 6 0.0000 0.0003 -0.0001 1.5436 0.0000 20.5445
#
#
#
# Elastic Compliance Matrix: (Units=1/GPa)
#
#
# Indices 1 2 3 4 5 6 
#
# 1 0.022197 -0.002396 -0.006232 0.000000 0.003396 0.000000
# 2 -0.002396 0.022197 -0.006232 0.000000 -0.003396 0.000000
# 3 -0.006232 -0.006232 0.015138 0.000000 0.000000 0.000000
# 4 0.000000 0.000000 0.000000 0.090391 0.000001 -0.006792
# 5 0.003396 -0.003396 0.000000 0.000001 0.090390 0.000000
# 6 0.000000 0.000000 0.000000 -0.006792 0.000000 0.049185
#
#
# Mechanical properties :
#
#
# Convention : Reuss Voigt Hill
#
# Bulk Modulus (GPa) = 33.54267 37.52683 35.53475
# Shear Modulus (GPa) = 15.19039 17.16419 16.17729
#
# Velocity S-wave (km/s) = 3.09117 3.28586 3.19000
# Velocity P-wave (km/s) = 5.81722 6.16455 5.99340
#
# Compressibility (1/GPa) = 0.02981277
#
# Stress axis : x y z
#
# Youngs Moduli (GPa) = 45.05096 45.05130 66.05811
#
# Poissons Ratio (x) = 0.10793 0.41168
# Poissons Ratio (y) = 0.10793 0.41167
# Poissons Ratio (z) = 0.28076 0.28076
#
# Static dielectric constant tensor:
#      x y z
#    x 1.561080 0.000000 0.000000 
#    y 0.000000 1.561080 0.000000 
#    z 0.000000 0.000000 1.516380 
# 
# From -- ./inp_files/4323.got.cif
#   From: 2010.05.17/outbox.cif.g08.bks.cpg/sg163_3_cif.got.tgz:4323.got - 2010.05.20 10:56:03.
