data_PCOD9578224
_publ_section_title
;
Structure prediction by ZEFSAII (Michael W. Deem and Ramdas Pophale) SiO2 
 PCOD9578224
Probable space group: P -3 1 C
;
_chemical_formula_sum "Si O2"
_cell_formula_units_Z 84
_cell_length_a 18.097655
_cell_length_b 18.097655
_cell_length_c 14.178167
_cell_angle_alpha 90.000000
_cell_angle_beta 90.000000
_cell_angle_gamma 120.000000
_cell_volume 4021.567189
_symmetry_space_group_name_H-M "P -3 1 C"
_symmetry_group_IT_number 163
_symmetry_cell_setting 'hexagonal'
loop_
_space_group_symop_operation_xyz
x,y,z
-y,x-y,z
-x+y,-x,z
-y,-x,1/2-z
-x+y,y,1/2-z
x,x-y,1/2-z
-x,-y,-z
y,-x+y,-z
x-y,x,-z
y,x,1/2+z
x-y,-y,1/2+z
-x,-x+y,1/2+z
loop_
_atom_site_type_symbol
_atom_site_label
_atom_site_fract_x
_atom_site_fract_y
_atom_site_fract_z
Si Si1 0.792625 0.207376 0.750000
Si Si2 0.538270 0.008825 0.348639
Si Si3 0.398679 0.536797 0.507028
Si Si4 0.211561 0.483466 0.453835
Si Si5 0.811836 0.765007 0.377381
Si Si6 0.054573 0.945428 0.750000
Si Si7 0.695246 0.701728 0.197356
Si Si8 0.299789 0.089401 0.018026
O O1 0.745722 0.216823 0.658254
O O2 0.750918 0.107601 0.779885
O O3 0.489246 0.978491 0.250000
O O4 0.530694 0.085623 0.397619
O O5 0.505331 0.933564 0.425426
O O6 0.632402 0.030763 0.319046
O O7 0.296813 0.494302 0.503154
O O8 0.439194 0.636067 0.480487
O O9 0.126777 0.397027 0.486398
O O10 0.904876 0.834962 0.341318
O O11 0.757866 0.719016 0.284808
O O12 0.830079 0.705743 0.444662
O O13 0.762391 0.804609 0.431302
O O14 0.953482 0.906964 0.750000
O O15 0.747615 0.728000 0.100470
#
# Coordination Sequence:
#
# PCOD9578224 Si02
#       8
#     6  12  12  12  12   6  12  12
#     4  12  24  41  74 106 142 184 230 290 358 425
#     4  11  25  45  73 101 139 189 230 285 364 424
#     4  11  26  45  71 103 144 180 237 291 347 437
#     4  12  25  46  70 105 142 183 231 294 354 421
#     4  12  27  43  70 100 136 183 241 286 351 420
#     4  10  26  45  64  90 136 180 226 290 338 405
#     4  12  24  46  68 105 139 183 233 292 347 419
#     4  12  27  44  71 101 139 186 233 295 350 414
#
# _framework density 20.88738
#
# number of rings (size 3 to 8) (size 9 to 14) (size 15 to 20)
#    0.143    0.286    5.714    2.000    5.000    0.000 
#    0.000    1.429    0.000    0.000    0.000    0.000 
#    0.000    0.000    0.000    0.000    0.000    0.000 
#
# Total GULP energy -469335.373073 kJ/mol
# GULP energy per Si atom -5587.325870 kJ/mol
# Density = 2.083984 g / cm^3
# Si number density = 20.887380 Si / 1000 Ang^3
#
#
#
# Elastic Constant Matrix: (Units=GPa)
#
#
# Indices 1 2 3 4 5 6 
#
# 1 57.3260 14.5505 17.0323 0.0001 -6.4157 0.0000
# 2 14.5505 57.3260 17.0323 -0.0001 6.4157 0.0000
# 3 17.0323 17.0323 95.6637 0.0000 0.0000 0.0000
# 4 0.0001 -0.0001 0.0000 22.2179 0.0000 6.4157
# 5 -6.4157 6.4157 0.0000 0.0000 22.2179 0.0001
# 6 0.0000 0.0000 0.0000 6.4157 0.0001 21.3877
#
#
#
# Elastic Compliance Matrix: (Units=1/GPa)
#
#
# Indices 1 2 3 4 5 6 
#
# 1 0.020395 -0.005200 -0.002705 0.000000 0.007391 0.000000
# 2 -0.005200 0.020395 -0.002705 0.000000 -0.007391 0.000000
# 3 -0.002705 -0.002705 0.011417 0.000000 0.000000 0.000000
# 4 0.000000 0.000000 0.000000 0.049277 0.000000 -0.014782
# 5 0.007391 -0.007391 0.000000 0.000000 0.049277 0.000000
# 6 0.000000 0.000000 0.000000 -0.014782 0.000000 0.051190
#
#
# Mechanical properties :
#
#
# Convention : Reuss Voigt Hill
#
# Bulk Modulus (GPa) = 32.27364 34.17175 33.22269
# Shear Modulus (GPa) = 21.41325 23.94473 22.67899
#
# Velocity S-wave (km/s) = 3.20531 3.38949 3.29868
# Velocity P-wave (km/s) = 5.40218 5.63149 5.51802
#
# Compressibility (1/GPa) = 0.03098504
#
# Stress axis : x y z
#
# Youngs Moduli (GPa) = 49.03184 49.03184 87.59154
#
# Poissons Ratio (x) = 0.25497 0.23697
# Poissons Ratio (y) = 0.25497 0.23697
# Poissons Ratio (z) = 0.13265 0.13265
#
# Static dielectric constant tensor:
#      x y z
#    x 1.785480 0.000000 0.000000 
#    y 0.000000 1.785480 0.000000 
#    z 0.000000 0.000000 1.753420 
# 
# From -- ./inp_files/2687.got.cif
#   From: 2010.05.17/outbox.cif.g08.bks.cpg/sg163_2_cif.got.tgz:2687.got - 2010.05.20 10:56:03.
