data_PCOD9578717
_publ_section_title
;
Structure prediction by ZEFSAII (Michael W. Deem and Ramdas Pophale) SiO2 
 PCOD9578717
Probable space group: P -3 M 1
;
_chemical_formula_sum "Si O2"
_cell_formula_units_Z 48
_cell_length_a 18.005398
_cell_length_b 18.005398
_cell_length_c 7.510424
_cell_angle_alpha 90.000000
_cell_angle_beta 90.000000
_cell_angle_gamma 120.000000
_cell_volume 2108.630766
_symmetry_space_group_name_H-M "P -3 M 1"
_symmetry_group_IT_number 164
_symmetry_cell_setting 'hexagonal'
loop_
_space_group_symop_operation_xyz
x,y,z
-y,x-y,z
-x+y,-x,z
x-y,-y,-z
-x,-x+y,-z
y,x,-z
-x,-y,-z
y,-x+y,-z
x-y,x,-z
-x+y,y,z
x,x-y,z
-y,-x,z
loop_
_atom_site_type_symbol
_atom_site_label
_atom_site_fract_x
_atom_site_fract_y
_atom_site_fract_z
Si Si1 0.643411 0.738073 0.724768
Si Si2 0.469032 0.102149 0.971054
Si Si3 0.829634 0.999167 0.283997
Si Si4 0.843734 0.334189 0.564271
O O1 0.665972 0.832986 0.665617
O O2 0.736628 0.751203 0.765006
O O3 0.584315 0.676878 0.568535
O O4 0.582527 0.709966 0.895047
O O5 0.568890 0.137779 0.017714
O O6 0.466371 0.126231 0.767692
O O7 0.421750 0.000000 0.000000
O O8 0.921127 0.078874 0.222709
O O9 0.831984 0.000000 0.500000
O O10 0.817972 0.908986 0.222634
O O11 0.842037 0.421019 0.524516
O O12 0.749324 0.250677 0.543336
#
# Coordination Sequence:
#
# PCOD9578717 Si02
#       4
#    12  12  12  12
#     4  10  21  37  60  91 123 157 202 254 306 360
#     4  10  22  38  57  83 118 161 204 249 305 366
#     4   9  18  33  56  86 120 160 204 251 306 367
#     4  10  21  38  62  91 125 165 208 254 304 363
#
# _framework density 22.763587000000001
#
# number of rings (size 3 to 8) (size 9 to 14) (size 15 to 20)
#    0.000    2.250    0.000    2.000    3.500    1.000 
#    0.000    5.000    0.000    9.500    0.000    0.000 
#    0.000    9.000    0.000    1.000    0.000    0.500 
#
# Total GULP energy -268261.305069 kJ/mol
# GULP energy per Si atom -5588.777189 kJ/mol
# Density = 2.271178 g / cm^3
# Si number density = 22.763587 Si / 1000 Ang^3
#
#
#
# Elastic Constant Matrix: (Units=GPa)
#
#
# Indices 1 2 3 4 5 6 
#
# 1 125.4170 95.6914 49.3821 4.5682 0.0000 0.0000
# 2 95.6914 125.4170 49.3821 -4.5682 0.0000 0.0000
# 3 49.3821 49.3821 87.9051 0.0000 0.0000 0.0000
# 4 4.5682 -4.5682 0.0000 7.9752 0.0000 0.0000
# 5 0.0000 0.0000 0.0000 0.0000 7.9752 4.5682
# 6 0.0000 0.0000 0.0000 0.0000 4.5682 14.8628
#
#
#
# Elastic Compliance Matrix: (Units=1/GPa)
#
#
# Indices 1 2 3 4 5 6 
#
# 1 0.023434 -0.017396 -0.003392 -0.023387 0.000000 0.000000
# 2 -0.017396 0.023434 -0.003392 0.023387 0.000000 0.000000
# 3 -0.003392 -0.003392 0.015187 0.000000 0.000000 0.000000
# 4 -0.023387 0.023387 0.000000 0.152181 0.000000 0.000000
# 5 0.000000 0.000000 0.000000 0.000000 0.152181 -0.046774
# 6 0.000000 0.000000 0.000000 0.000000 -0.046774 0.081659
#
#
# Mechanical properties :
#
#
# Convention : Reuss Voigt Hill
#
# Bulk Modulus (GPa) = 73.01948 80.85000 76.93474
# Shear Modulus (GPa) = 9.98008 15.78156 12.88082
#
# Velocity S-wave (km/s) = 2.09613 2.63588 2.38135
# Velocity P-wave (km/s) = 6.16484 6.69762 6.43675
#
# Compressibility (1/GPa) = 0.01369498
#
# Stress axis : x y z
#
# Youngs Moduli (GPa) = 42.67394 42.67394 65.84725
#
# Poissons Ratio (x) = 0.74235 0.22334
# Poissons Ratio (y) = 0.74235 0.22334
# Poissons Ratio (z) = 0.14474 0.14474
#
# Static dielectric constant tensor:
#      x y z
#    x 1.868390 0.000000 0.000000 
#    y 0.000000 1.868390 0.000000 
#    z 0.000000 0.000000 1.824370 
# 
# From -- ./inp_files/1229.got.cif
#   From: 2010.05.17/outbox.cif.g08.bks.cpg/sg164_1_cif.got.tgz:1229.got - 2010.05.20 10:58:56.
