data_PCOD9578227
_publ_section_title
;
Structure prediction by ZEFSAII (Michael W. Deem and Ramdas Pophale) SiO2 
 PCOD9578227
Probable space group: P -3 1 C
;
_chemical_formula_sum "Si O2"
_cell_formula_units_Z 52
_cell_length_a 15.969884
_cell_length_b 15.969884
_cell_length_c 13.214517
_cell_angle_alpha 90.000000
_cell_angle_beta 90.000000
_cell_angle_gamma 120.000000
_cell_volume 2918.673056
_symmetry_space_group_name_H-M "P -3 1 C"
_symmetry_group_IT_number 163
_symmetry_cell_setting 'hexagonal'
loop_
_space_group_symop_operation_xyz
x,y,z
-y,x-y,z
-x+y,-x,z
-y,-x,1/2-z
-x+y,y,1/2-z
x,x-y,1/2-z
-x,-y,-z
y,-x+y,-z
x-y,x,-z
y,x,1/2+z
x-y,-y,1/2+z
-x,-x+y,1/2+z
loop_
_atom_site_type_symbol
_atom_site_label
_atom_site_fract_x
_atom_site_fract_y
_atom_site_fract_z
Si Si1 0.376568 0.073671 0.432367
Si Si2 0.333334 0.666667 0.369868
Si Si3 0.877228 0.276129 0.009626
Si Si4 0.579944 0.459906 0.580221
Si Si5 0.439561 0.386206 0.284846
O O1 0.380289 0.168790 0.478045
O O2 0.474264 0.081096 0.480094
O O3 0.382217 0.059934 0.312247
O O4 0.285141 0.978197 0.476660
O O5 0.333334 0.666667 0.250000
O O6 0.343642 0.576257 0.404889
O O7 0.890701 0.319618 0.121629
O O8 0.876024 0.357356 0.935426
O O9 0.584877 0.532810 0.668749
O O10 0.549873 0.450128 0.250000
#
# Coordination Sequence:
#
# PCOD9578227 Si02
#       5
#    12   4  12  12  12
#     4  11  22  38  59  80 118 152 200 244 295 354
#     4  12  24  33  54  85 116 154 204 228 279 349
#     4  11  22  37  57  83 114 156 196 242 299 352
#     4  11  21  36  57  81 117 156 195 234 289 354
#     4  11  19  35  58  82 113 154 187 244 288 342
#
# _framework density 17.816316
#
# number of rings (size 3 to 8) (size 9 to 14) (size 15 to 20)
#    0.000    0.923    6.923    2.769    0.000    0.000 
#    0.000    3.462    0.000    0.462    0.000    0.000 
#    0.000    0.000    0.000    0.000    0.000    0.000 
#
# Total GULP energy -289512.641160 kJ/mol
# GULP energy per Si atom -5567.550792 kJ/mol
# Density = 1.777577 g / cm^3
# Si number density = 17.816316 Si / 1000 Ang^3
#
#
#
# Elastic Constant Matrix: (Units=GPa)
#
#
# Indices 1 2 3 4 5 6 
#
# 1 -281.4311 422.9499 8.5483 2.7380 -475.3411 -2.1929
# 2 422.9499 -281.4023 8.5461 -2.7620 475.3232 2.2122
# 3 8.5483 8.5461 57.2962 0.0087 0.0015 -0.0068
# 4 2.7380 -2.7620 0.0087 -575.8852 3.4868 470.6595
# 5 -475.3411 475.3232 0.0015 3.4868 -581.7823 -2.7925
# 6 -2.1929 2.2122 -0.0068 470.6595 -2.7925 -348.4809
#
#
#
# Elastic Compliance Matrix: (Units=1/GPa)
#
#
# Indices 1 2 3 4 5 6 
#
# 1 0.010508 -0.003313 -0.001073 -0.000002 -0.011292 0.000001
# 2 -0.003313 0.010508 -0.001073 0.000002 0.011292 -0.000001
# 3 -0.001073 -0.001073 0.017773 0.000000 0.000000 0.000000
# 4 -0.000002 0.000002 0.000000 0.016725 -0.000005 0.022589
# 5 -0.011292 0.011292 0.000000 -0.000005 0.016733 0.000002
# 6 0.000001 -0.000001 0.000000 0.022589 0.000002 0.027640
#
#
# Mechanical properties :
#
#
# Convention : Reuss Voigt Hill
#
# Bulk Modulus (GPa) = 35.88052 41.61683 38.74868
# Shear Modulus (GPa) = 41.63266 -364.26846 -161.31790
#
# Velocity S-wave (km/s) = 4.83926 -14.31439 -9.52584
# Velocity P-wave (km/s) = 7.16990 15.80483 9.95955
#
# Compressibility (1/GPa) = 0.02787028
#
# Stress axis : x y z
#
# Youngs Moduli (GPa) = 95.16407 95.16357 56.26390
#
# Poissons Ratio (x) = 0.31528 0.06039
# Poissons Ratio (y) = 0.31529 0.06039
# Poissons Ratio (z) = 0.10214 0.10214
#
# Static dielectric constant tensor:
#      x y z
#    x 1.681190 0.000000 0.000000 
#    y 0.000000 1.681190 0.000000 
#    z 0.000000 0.000000 1.655440 
# 
# From -- ./inp_files/2316.got.cif
#   From: 2010.05.17/outbox.cif.g08.bks.cpg/sg163_2_cif.got.tgz:2316.got - 2010.05.20 10:56:03.
