data_PCOD9578112
_publ_section_title
;
Structure prediction by ZEFSAII (Michael W. Deem and Ramdas Pophale) SiO2 
 PCOD9578112
Probable space group: P -3 1 C
;
_chemical_formula_sum "Si O2"
_cell_formula_units_Z 48
_cell_length_a 11.397449
_cell_length_b 11.397449
_cell_length_c 19.309410
_cell_angle_alpha 90.000000
_cell_angle_beta 90.000000
_cell_angle_gamma 120.000000
_cell_volume 2172.275734
_symmetry_space_group_name_H-M "P -3 1 C"
_symmetry_group_IT_number 163
_symmetry_cell_setting 'hexagonal'
loop_
_space_group_symop_operation_xyz
x,y,z
-y,x-y,z
-x+y,-x,z
-y,-x,1/2-z
-x+y,y,1/2-z
x,x-y,1/2-z
-x,-y,-z
y,-x+y,-z
x-y,x,-z
y,x,1/2+z
x-y,-y,1/2+z
-x,-x+y,1/2+z
loop_
_atom_site_type_symbol
_atom_site_label
_atom_site_fract_x
_atom_site_fract_y
_atom_site_fract_z
Si Si1 0.364932 0.531629 0.462358
Si Si2 0.163574 0.814299 0.673967
Si Si3 0.214923 0.263353 0.531493
Si Si4 0.515997 0.004918 0.326378
O O1 0.467257 0.691124 0.473344
O O2 0.344501 0.411369 0.513275
O O3 0.402765 0.504692 0.385981
O O4 0.141263 0.858738 0.750000
O O5 0.110064 0.849900 0.605644
O O6 0.325481 0.882231 0.670822
O O7 0.086281 0.651471 0.667810
O O8 0.243661 0.141474 0.524386
O O9 0.469837 0.939673 0.250000
#
# Coordination Sequence:
#
# PCOD9578112 Si02
#       4
#    12  12  12  12
#     4  10  24  40  61  99 132 168 217 272 340 394
#     4  10  22  39  64  96 133 174 220 269 327 391
#     4  12  25  44  70  95 131 174 229 275 329 399
#     4  10  20  39  64  96 135 176 219 270 329 394
#
# _framework density 22.096641999999999
#
# number of rings (size 3 to 8) (size 9 to 14) (size 15 to 20)
#    0.500    1.000    2.500    2.250    3.500    5.000 
#    0.000    1.250    0.000    0.000    0.000    0.000 
#    0.000    0.000    0.000    0.000    0.000    0.000 
#
# Total GULP energy -267535.439570 kJ/mol
# GULP energy per Si atom -5573.654991 kJ/mol
# Density = 2.204635 g / cm^3
# Si number density = 22.096642 Si / 1000 Ang^3
#
#
#
# Elastic Constant Matrix: (Units=GPa)
#
#
# Indices 1 2 3 4 5 6 
#
# 1 50.9406 32.1619 12.7195 0.0000 0.0192 0.0000
# 2 32.1619 50.9406 12.7195 0.0000 -0.0192 0.0000
# 3 12.7195 12.7195 127.6476 0.0000 0.0000 0.0000
# 4 0.0000 0.0000 0.0000 32.4515 0.0000 -0.0192
# 5 0.0192 -0.0192 0.0000 0.0000 32.4515 0.0000
# 6 0.0000 0.0000 0.0000 -0.0192 0.0000 9.3894
#
#
#
# Elastic Compliance Matrix: (Units=1/GPa)
#
#
# Indices 1 2 3 4 5 6 
#
# 1 0.032832 -0.020420 -0.001237 0.000000 -0.000032 0.000000
# 2 -0.020420 0.032832 -0.001237 0.000000 0.000032 0.000000
# 3 -0.001237 -0.001237 0.008081 0.000000 0.000000 0.000000
# 4 0.000000 0.000000 0.000000 0.030815 0.000000 0.000063
# 5 -0.000032 0.000032 0.000000 0.000000 0.030815 0.000000
# 6 0.000000 0.000000 0.000000 0.000063 0.000000 0.106504
#
#
# Mechanical properties :
#
#
# Convention : Reuss Voigt Hill
#
# Bulk Modulus (GPa) = 35.76888 38.30338 37.03613
# Shear Modulus (GPa) = 16.83590 26.32033 21.57811
#
# Velocity S-wave (km/s) = 2.76329 3.45504 3.12834
# Velocity P-wave (km/s) = 5.13844 5.76962 5.46316
#
# Compressibility (1/GPa) = 0.02795726
#
# Stress axis : x y z
#
# Youngs Moduli (GPa) = 30.45822 30.45822 123.75398
#
# Poissons Ratio (x) = 0.62195 0.15306
# Poissons Ratio (y) = 0.62195 0.15306
# Poissons Ratio (z) = 0.03767 0.03767
#
# Static dielectric constant tensor:
#      x y z
#    x 1.821170 0.000000 0.000000 
#    y 0.000000 1.821170 0.000000 
#    z 0.000000 0.000000 1.869350 
# 
# From -- ./inp_files/3422.got.cif
#   From: 2010.05.17/outbox.cif.g08.bks.cpg/sg163_2_cif.got.tgz:3422.got - 2010.05.20 10:56:03.
