data_PCOD9578742
_publ_section_title
;
Structure prediction by ZEFSAII (Michael W. Deem and Ramdas Pophale) SiO2 
 PCOD9578742
Probable space group: P -3 M 1
;
_chemical_formula_sum "Si O2"
_cell_formula_units_Z 52
_cell_length_a 24.743043
_cell_length_b 24.743043
_cell_length_c 8.530485
_cell_angle_alpha 90.000000
_cell_angle_beta 90.000000
_cell_angle_gamma 120.000000
_cell_volume 4522.833238
_symmetry_space_group_name_H-M "P -3 M 1"
_symmetry_group_IT_number 164
_symmetry_cell_setting 'hexagonal'
loop_
_space_group_symop_operation_xyz
x,y,z
-y,x-y,z
-x+y,-x,z
x-y,-y,-z
-x,-x+y,-z
y,x,-z
-x,-y,-z
y,-x+y,-z
x-y,x,-z
-x+y,y,z
x,x-y,z
-y,-x,z
loop_
_atom_site_type_symbol
_atom_site_label
_atom_site_fract_x
_atom_site_fract_y
_atom_site_fract_z
Si Si1 0.737070 0.474140 0.813509
Si Si2 0.863221 0.494895 0.690256
Si Si3 0.737070 0.474139 0.186490
Si Si4 0.333334 0.666667 0.687366
Si Si5 0.666667 0.333334 0.687369
Si Si6 0.505106 0.368327 0.309741
Si Si7 0.565584 0.565584 0.318698
O O1 0.807532 0.503740 0.752325
O O2 0.701836 0.403672 0.748136
O O3 0.736492 0.472983 1.000000
O O4 0.852593 0.426297 0.735174
O O5 0.863477 0.495967 0.499998
O O6 0.932313 0.546530 0.748277
O O7 0.701836 0.403671 0.251865
O O8 0.807532 0.503740 0.247672
O O9 0.333334 0.666667 0.499999
O O10 0.573704 0.426297 0.264822
O O11 0.453471 0.385784 0.251721
O O12 0.583800 0.583800 0.500000
O O13 0.500000 0.500001 0.321432
#
# Coordination Sequence:
#
# PCOD9578742 Si02
#       7
#     6  12   6   2   2  12  12
#     4  12  22  28  36  54  75  89 106 136 172 209
#     4   9  16  27  42  54  67  88 113 136 165 202
#     4  12  22  28  36  54  75  89 106 136 172 209
#     4  12  22  32  40  45  61  92 118 138 169 206
#     4  12  22  32  40  45  61  92 118 138 169 206
#     4   9  16  27  42  54  67  88 113 136 165 202
#     4   7  12  24  41  57  65  79 112 144 160 189
#
# _framework density 11.497218
#
# number of rings (size 3 to 8) (size 9 to 14) (size 15 to 20)
#    0.000    2.538    2.308    5.538    0.000    0.000 
#    0.000    1.154    0.000    4.154    0.000    0.000 
#    0.000    0.000    0.000    0.000    0.000    0.000 
#
# Total GULP energy -289479.605095 kJ/mol
# GULP energy per Si atom -5566.915483 kJ/mol
# Density = 1.147105 g / cm^3
# Si number density = 11.497218 Si / 1000 Ang^3
#
#
#
# Elastic Constant Matrix: (Units=GPa)
#
#
# Indices 1 2 3 4 5 6 
#
# 1 79.1852 45.5636 17.1683 0.0001 0.0000 0.0000
# 2 45.5636 79.1850 17.1684 0.0000 0.0000 0.0000
# 3 17.1683 17.1684 28.0872 -0.0002 0.0000 0.0000
# 4 0.0001 0.0000 -0.0002 -5.5522 0.0000 0.0000
# 5 0.0000 0.0000 0.0000 0.0000 -5.5526 -0.0002
# 6 0.0000 0.0000 0.0000 0.0000 -0.0002 16.8107
#
#
#
# Elastic Compliance Matrix: (Units=1/GPa)
#
#
# Indices 1 2 3 4 5 6 
#
# 1 0.019690 -0.010053 -0.005891 0.000001 0.000000 0.000000
# 2 -0.010053 0.019690 -0.005891 0.000000 0.000000 0.000000
# 3 -0.005891 -0.005891 0.042805 -0.000002 0.000000 0.000000
# 4 0.000001 0.000000 -0.000002 -0.180109 0.000000 0.000000
# 5 0.000000 0.000000 0.000000 0.000000 -0.180095 -0.000002
# 6 0.000000 0.000000 0.000000 0.000000 -0.000002 0.059486
#
#
# Mechanical properties :
#
#
# Convention : Reuss Voigt Hill
#
# Bulk Modulus (GPa) = 25.96302 38.47313 32.21808
# Shear Modulus (GPa) = -30.85940 8.24499 -11.30720
#
# Velocity S-wave (km/s) = -5.18643 2.68083 -3.13944
# Velocity P-wave (km/s) = 3.63790 6.56644 3.86547
#
# Compressibility (1/GPa) = 0.03851633
#
# Stress axis : x y z
#
# Youngs Moduli (GPa) = 50.78667 50.78651 23.36170
#
# Poissons Ratio (x) = 0.51054 0.13762
# Poissons Ratio (y) = 0.51054 0.13762
# Poissons Ratio (z) = 0.29918 0.29918
#
# Static dielectric constant tensor:
#      x y z
#    x 1.378820 0.000000 0.000000 
#    y 0.000000 1.378820 0.000000 
#    z 0.000000 0.000000 1.384320 
# 
# From -- ./inp_files/1847.got.cif
#   From: 2010.05.17/outbox.cif.g08.bks.cpg/sg164_1_cif.got.tgz:1847.got - 2010.05.20 10:58:56.
