data_PCOD9578877
_publ_section_title
;
Structure prediction by ZEFSAII (Michael W. Deem and Ramdas Pophale) SiO2 
 PCOD9578877
Probable space group: P -3 C 1
;
_chemical_formula_sum "Si O2"
_cell_formula_units_Z 60
_cell_length_a 14.148179
_cell_length_b 14.148179
_cell_length_c 16.936911
_cell_angle_alpha 90.000000
_cell_angle_beta 90.000000
_cell_angle_gamma 120.000000
_cell_volume 2936.066776
_symmetry_space_group_name_H-M "P -3 C 1"
_symmetry_group_IT_number 165
_symmetry_cell_setting 'hexagonal'
loop_
_space_group_symop_operation_xyz
x,y,z
-y,x-y,z
-x+y,-x,z
x-y,-y,1/2-z
-x,-x+y,1/2-z
y,x,1/2-z
-x,-y,-z
y,-x+y,-z
x-y,x,-z
-x+y,y,1/2+z
x,x-y,1/2+z
-y,-x,1/2+z
loop_
_atom_site_type_symbol
_atom_site_label
_atom_site_fract_x
_atom_site_fract_y
_atom_site_fract_z
Si Si1 0.997297 0.541718 0.656659
Si Si2 0.453392 0.786921 0.567386
Si Si3 0.032201 0.337834 0.836773
Si Si4 0.939380 0.767209 0.480161
Si Si5 0.248683 0.800528 0.417658
O O1 0.101215 0.638393 0.609629
O O2 0.000000 0.567074 0.750000
O O3 0.005028 0.432216 0.649955
O O4 0.883288 0.516759 0.617614
O O5 0.332794 0.767559 0.588720
O O6 0.478192 0.782081 0.474443
O O7 0.162321 0.405066 0.847221
O O8 0.000000 0.291767 0.750000
O O9 0.982930 0.241866 0.900712
O O10 0.855426 0.811200 0.471171
O O11 0.875456 0.654410 0.526757
#
# Coordination Sequence:
#
# PCOD9578877 Si02
#       5
#    12  12  12  12  12
#     4  11  24  41  63  92 131 169 214 269 336 399
#     4  10  23  41  64  93 125 171 216 273 322 391
#     4  10  23  41  61  88 129 167 206 269 328 390
#     4  10  21  38  63  89 120 160 210 263 317 381
#     4  11  22  38  64  93 122 170 216 265 321 395
#
# _framework density 20.435503000000001
#
# number of rings (size 3 to 8) (size 9 to 14) (size 15 to 20)
#    0.400    1.200    0.000    5.000    0.000    8.800 
#    1.200    3.000    0.000    0.000    0.000    0.000 
#    0.000    0.000    0.000    0.000    0.000    0.000 
#
# Total GULP energy -334342.344455 kJ/mol
# GULP energy per Si atom -5572.372408 kJ/mol
# Density = 2.038899 g / cm^3
# Si number density = 20.435503 Si / 1000 Ang^3
#
#
#
# Elastic Constant Matrix: (Units=GPa)
#
#
# Indices 1 2 3 4 5 6 
#
# 1 91.8495 40.2038 58.5093 -6.9781 0.0000 0.0000
# 2 40.2038 91.8495 58.5093 6.9781 0.0000 0.0000
# 3 58.5093 58.5093 95.1307 0.0000 0.0000 0.0000
# 4 -6.9781 6.9781 0.0000 25.2511 0.0000 0.0000
# 5 0.0000 0.0000 0.0000 0.0000 25.2511 -6.9781
# 6 0.0000 0.0000 0.0000 0.0000 -6.9781 25.8228
#
#
#
# Elastic Compliance Matrix: (Units=1/GPa)
#
#
# Indices 1 2 3 4 5 6 
#
# 1 0.018785 -0.002141 -0.010237 0.005783 0.000000 0.000000
# 2 -0.002141 0.018785 -0.010237 -0.005783 0.000000 0.000000
# 3 -0.010237 -0.010237 0.023104 0.000000 0.000000 0.000000
# 4 0.005783 -0.005783 0.000000 0.042798 0.000000 0.000000
# 5 0.000000 0.000000 0.000000 0.000000 0.042798 0.011565
# 6 0.000000 0.000000 0.000000 0.000000 0.011565 0.041851
#
#
# Mechanical properties :
#
#
# Convention : Reuss Voigt Hill
#
# Bulk Modulus (GPa) = 64.74636 65.91938 65.33287
# Shear Modulus (GPa) = 20.96464 23.37216 22.16840
#
# Velocity S-wave (km/s) = 3.20643 3.38554 3.29720
# Velocity P-wave (km/s) = 6.74243 6.89998 6.82166
#
# Compressibility (1/GPa) = 0.01544488
#
# Stress axis : x y z
#
# Youngs Moduli (GPa) = 53.23504 53.23504 43.28294
#
# Poissons Ratio (x) = 0.11396 0.44307
# Poissons Ratio (y) = 0.11396 0.44307
# Poissons Ratio (z) = 0.54495 0.54495
#
# Static dielectric constant tensor:
#      x y z
#    x 1.763200 0.000000 0.000000 
#    y 0.000000 1.763200 0.000000 
#    z 0.000000 0.000000 1.712570 
# 
# From -- ./inp_files/1653.got.cif
#   From: 2010.05.17/outbox.cif.g08.bks.cpg/sg165_1_cif.got.tgz:1653.got - 2010.05.20 11:02:39.
