data_PCOD9578043
_publ_section_title
;
Structure prediction by ZEFSAII (Michael W. Deem and Ramdas Pophale) SiO2 
 PCOD9578043
Probable space group: P -3 1 C
;
_chemical_formula_sum "Si O2"
_cell_formula_units_Z 84
_cell_length_a 15.079215
_cell_length_b 15.079215
_cell_length_c 25.669300
_cell_angle_alpha 90.000000
_cell_angle_beta 90.000000
_cell_angle_gamma 120.000000
_cell_volume 5054.778438
_symmetry_space_group_name_H-M "P -3 1 C"
_symmetry_group_IT_number 163
_symmetry_cell_setting 'hexagonal'
loop_
_space_group_symop_operation_xyz
x,y,z
-y,x-y,z
-x+y,-x,z
-y,-x,1/2-z
-x+y,y,1/2-z
x,x-y,1/2-z
-x,-y,-z
y,-x+y,-z
x-y,x,-z
y,x,1/2+z
x-y,-y,1/2+z
-x,-x+y,1/2+z
loop_
_atom_site_type_symbol
_atom_site_label
_atom_site_fract_x
_atom_site_fract_y
_atom_site_fract_z
Si Si1 0.643719 0.511872 0.861959
Si Si2 0.650844 0.440382 0.486138
Si Si3 0.493252 0.899031 0.623741
Si Si4 0.037545 0.667799 0.842909
Si Si5 0.856509 0.223031 0.306088
Si Si6 0.926339 0.649349 0.735520
Si Si7 0.533459 0.845259 0.404654
O O1 0.581024 0.564209 0.883747
O O2 0.672788 0.551504 0.802748
O O3 0.747171 0.544361 0.893076
O O4 0.563905 0.392053 0.869760
O O5 0.565086 0.320310 0.490023
O O6 0.634890 0.475717 0.430412
O O7 0.651711 0.503512 0.536037
O O8 0.395218 0.904145 0.644861
O O9 0.537184 0.853864 0.666388
O O10 0.120303 0.787602 0.839024
O O11 0.976386 0.634216 0.787920
O O12 0.949379 0.631213 0.886014
O O13 0.802427 0.197574 0.250000
O O14 0.975848 0.260490 0.295318
O O15 0.836614 0.673227 0.750000
#
# Coordination Sequence:
#
# PCOD9578043 Si02
#       7
#    12  12  12  12  12  12  12
#     4  10  20  33  53  78 111 142 182 223 283 327
#     4  10  20  35  55  76 115 149 188 226 274 319
#     4  10  21  35  55  78 113 149 187 227 274 334
#     4  10  21  35  57  81 109 146 192 222 288 340
#     4   9  20  36  54  80 111 145 184 235 275 337
#     4  10  19  36  56  78 109 148 179 234 283 339
#     4  11  19  35  53  79 113 145 185 234 276 334
#
# _framework density 16.617940000000001
#
# number of rings (size 3 to 8) (size 9 to 14) (size 15 to 20)
#    0.286    1.714    2.857    1.143    0.000   11.429 
#    3.429    0.000    0.000    7.714    0.000    0.000 
#    0.000    0.000    0.000   12.429    0.000    0.000 
#
# Total GULP energy -467871.121506 kJ/mol
# GULP energy per Si atom -5569.894304 kJ/mol
# Density = 1.658012 g / cm^3
# Si number density = 16.617940 Si / 1000 Ang^3
#
#
#
# Elastic Constant Matrix: (Units=GPa)
#
#
# Indices 1 2 3 4 5 6 
#
# 1 50.3346 23.3547 33.0512 0.0001 1.8935 0.0000
# 2 23.3547 50.3346 33.0512 -0.0001 -1.8935 0.0000
# 3 33.0512 33.0512 83.1689 0.0000 0.0000 0.0000
# 4 0.0001 -0.0001 0.0000 26.6511 0.0000 -1.8935
# 5 1.8935 -1.8935 0.0000 0.0000 26.6511 0.0001
# 6 0.0000 0.0000 0.0000 -1.8935 0.0001 13.4899
#
#
#
# Elastic Compliance Matrix: (Units=1/GPa)
#
#
# Indices 1 2 3 4 5 6 
#
# 1 0.029263 -0.008175 -0.008380 0.000000 -0.002660 0.000000
# 2 -0.008175 0.029263 -0.008380 0.000000 0.002660 0.000000
# 3 -0.008380 -0.008380 0.018684 0.000000 0.000000 0.000000
# 4 0.000000 0.000000 0.000000 0.037900 0.000000 0.005320
# 5 -0.002660 0.002660 0.000000 0.000000 0.037900 0.000000
# 6 0.000000 0.000000 0.000000 0.005320 0.000000 0.074876
#
#
# Mechanical properties :
#
#
# Convention : Reuss Voigt Hill
#
# Bulk Modulus (GPa) = 36.57774 40.30582 38.44178
# Shear Modulus (GPa) = 17.42945 19.65047 18.53996
#
# Velocity S-wave (km/s) = 3.24208 3.44246 3.34377
# Velocity P-wave (km/s) = 6.00613 6.33307 6.17176
#
# Compressibility (1/GPa) = 0.02733903
#
# Stress axis : x y z
#
# Youngs Moduli (GPa) = 34.17283 34.17283 53.52055
#
# Poissons Ratio (x) = 0.27936 0.44852
# Poissons Ratio (y) = 0.27936 0.44852
# Poissons Ratio (z) = 0.28638 0.28638
#
# Static dielectric constant tensor:
#      x y z
#    x 1.575300 0.000000 0.000000 
#    y 0.000000 1.575300 0.000000 
#    z 0.000000 0.000000 1.578050 
# 
# From -- ./inp_files/3924.got.cif
#   From: 2010.05.17/outbox.cif.g08.bks.cpg/sg163_2_cif.got.tgz:3924.got - 2010.05.20 10:56:03.
