data_PCOD9578480
_publ_section_title
;
Structure prediction by ZEFSAII (Michael W. Deem and Ramdas Pophale) SiO2 
 PCOD9578480
Probable space group: P -3 M 1
;
_chemical_formula_sum "Si O2"
_cell_formula_units_Z 90
_cell_length_a 18.410125
_cell_length_b 18.410125
_cell_length_c 18.038267
_cell_angle_alpha 90.000000
_cell_angle_beta 90.000000
_cell_angle_gamma 120.000000
_cell_volume 5294.670245
_symmetry_space_group_name_H-M "P -3 M 1"
_symmetry_group_IT_number 164
_symmetry_cell_setting 'hexagonal'
loop_
_space_group_symop_operation_xyz
x,y,z
-y,x-y,z
-x+y,-x,z
x-y,-y,-z
-x,-x+y,-z
y,x,-z
-x,-y,-z
y,-x+y,-z
x-y,x,-z
-x+y,y,z
x,x-y,z
-y,-x,z
loop_
_atom_site_type_symbol
_atom_site_label
_atom_site_fract_x
_atom_site_fract_y
_atom_site_fract_z
Si Si1 0.233189 0.937239 0.639080
Si Si2 0.173103 0.666818 0.339989
Si Si3 0.015177 0.429053 0.912598
Si Si4 0.578412 0.991025 0.588339
Si Si5 0.060872 0.291735 0.927777
Si Si6 0.299787 0.858457 0.176359
Si Si7 0.826510 0.000000 0.500000
Si Si8 0.039036 0.243920 0.213687
O O1 0.157145 0.842856 0.640239
O O2 0.321206 0.940798 0.624564
O O3 0.216614 0.984253 0.571074
O O4 0.231073 0.983054 0.714343
O O5 0.205460 0.602730 0.357833
O O6 0.239613 0.760387 0.363462
O O7 0.161450 0.667806 0.251651
O O8 0.083800 0.631137 0.377559
O O9 0.051017 0.525509 0.888325
O O10 0.065108 0.378481 0.901326
O O11 0.924258 0.373580 0.874794
O O12 0.000000 0.424671 0.000000
O O13 0.480350 0.960700 0.602694
O O14 0.591919 0.000000 0.500000
O O15 0.151402 0.302803 0.944659
O O16 0.017180 0.226635 0.860159
O O17 0.000000 0.258734 0.000000
O O18 0.229718 0.770282 0.141288
O O19 0.250585 0.906524 0.200799
O O20 0.917376 0.082624 0.509857
O O21 0.106479 0.212958 0.222906
#
# Coordination Sequence:
#
# PCOD9578480 Si02
#       8
#    12  12  12  12  12  12   6  12
#     4  11  21  34  54  79 105 138 182 226 265 320
#     4  10  19  31  51  78 109 139 169 208 259 319
#     4   9  18  31  48  73 106 140 176 217 261 314
#     4  10  21  37  54  76 106 139 174 217 265 310
#     4  10  20  35  56  80 106 142 188 234 282 337
#     4   9  17  29  50  76 103 137 171 210 256 310
#     4  10  21  34  51  74 104 140 176 218 267 320
#     4  10  19  33  53  78 108 138 175 223 275 323
#
# _framework density 16.998225999999999
#
# number of rings (size 3 to 8) (size 9 to 14) (size 15 to 20)
#    0.000    2.133    2.000    1.800    0.000    4.267 
#    0.000    0.000    0.000    6.667    0.000    2.800 
#    0.000    1.067    0.000    0.000    0.000    0.000 
#
# Total GULP energy -501469.906510 kJ/mol
# GULP energy per Si atom -5571.887850 kJ/mol
# Density = 1.695954 g / cm^3
# Si number density = 16.998226 Si / 1000 Ang^3
#
#
#
# Elastic Constant Matrix: (Units=GPa)
#
#
# Indices 1 2 3 4 5 6 
#
# 1 90.1745 62.9360 35.3424 1.3558 0.0000 0.0000
# 2 62.9360 90.1745 35.3424 -1.3558 0.0000 0.0000
# 3 35.3424 35.3424 83.3533 0.0000 0.0000 0.0000
# 4 1.3558 -1.3558 0.0000 19.0559 0.0000 0.0000
# 5 0.0000 0.0000 0.0000 0.0000 19.0559 1.3558
# 6 0.0000 0.0000 0.0000 0.0000 1.3558 13.6193
#
#
#
# Elastic Compliance Matrix: (Units=1/GPa)
#
#
# Indices 1 2 3 4 5 6 
#
# 1 0.022548 -0.014427 -0.003443 -0.002631 0.000000 0.000000
# 2 -0.014427 0.022548 -0.003443 0.002631 0.000000 0.000000
# 3 -0.003443 -0.003443 0.014917 0.000000 0.000000 0.000000
# 4 -0.002631 0.002631 0.000000 0.052851 0.000000 0.000000
# 5 0.000000 0.000000 0.000000 0.000000 0.052851 -0.005261
# 6 0.000000 0.000000 0.000000 0.000000 -0.005261 0.073949
#
#
# Mechanical properties :
#
#
# Convention : Reuss Voigt Hill
#
# Bulk Modulus (GPa) = 57.51882 58.99373 58.25628
# Shear Modulus (GPa) = 17.35588 19.01832 18.18710
#
# Velocity S-wave (km/s) = 3.19884 3.34854 3.27454
# Velocity P-wave (km/s) = 6.89601 7.05205 6.97447
#
# Compressibility (1/GPa) = 0.01738561
#
# Stress axis : x y z
#
# Youngs Moduli (GPa) = 44.35036 44.35036 67.03721
#
# Poissons Ratio (x) = 0.63984 0.23083
# Poissons Ratio (y) = 0.63984 0.23083
# Poissons Ratio (z) = 0.15271 0.15271
#
# Static dielectric constant tensor:
#      x y z
#    x 1.593140 0.000000 0.000000 
#    y 0.000000 1.593140 0.000000 
#    z 0.000000 0.000000 1.559050 
# 
# From -- ./inp_files/4245.got.cif
#   From: 2010.05.17/outbox.cif.g08.bks.cpg/sg164_3_cif.got.tgz:4245.got - 2010.05.20 10:58:56.
