data_PCOD9578340
_publ_section_title
;
Structure prediction by ZEFSAII (Michael W. Deem and Ramdas Pophale) SiO2 
 PCOD9578340
Probable space group: P -3 M 1
;
_chemical_formula_sum "Si O2"
_cell_formula_units_Z 60
_cell_length_a 27.772895
_cell_length_b 27.772895
_cell_length_c 5.446600
_cell_angle_alpha 90.000000
_cell_angle_beta 90.000000
_cell_angle_gamma 120.000000
_cell_volume 3638.299258
_symmetry_space_group_name_H-M "P -3 M 1"
_symmetry_group_IT_number 164
_symmetry_cell_setting 'hexagonal'
loop_
_space_group_symop_operation_xyz
x,y,z
-y,x-y,z
-x+y,-x,z
x-y,-y,-z
-x,-x+y,-z
y,x,-z
-x,-y,-z
y,-x+y,-z
x-y,x,-z
-x+y,y,z
x,x-y,z
-y,-x,z
loop_
_atom_site_type_symbol
_atom_site_label
_atom_site_fract_x
_atom_site_fract_y
_atom_site_fract_z
Si Si1 0.732117 0.670901 0.081174
Si Si2 0.311751 0.856024 0.357752
Si Si3 0.893239 0.674359 0.583372
Si Si4 0.426576 0.460889 0.247245
Si Si5 0.169144 0.448467 0.860914
O O1 0.758873 0.693306 0.349356
O O2 0.713222 0.605642 0.105856
O O3 0.684447 0.684447 0.000000
O O4 0.774726 0.694763 0.851876
O O5 0.260246 0.867691 0.393310
O O6 0.367430 0.912258 0.294777
O O7 0.313061 0.831796 0.622168
O O8 0.298494 0.818529 0.118390
O O9 0.842830 0.685659 0.539818
O O10 0.439195 0.439195 0.500000
O O11 0.475117 0.524884 0.217945
O O12 0.430785 0.430785 0.000000
O O13 0.214644 0.429287 0.829098
#
# Coordination Sequence:
#
# PCOD9578340 Si02
#       5
#    12  12  12  12  12
#     4  10  18  27  40  60  82 107 142 183 222 265
#     4  10  18  28  46  63  79 115 154 179 210 277
#     4  10  19  31  43  59  86 116 143 184 238 266
#     4  10  21  35  47  63  91 124 155 192 238 280
#     4  10  19  31  45  65  92 118 145 188 241 271
#
# _framework density 16.491220999999999
#
# number of rings (size 3 to 8) (size 9 to 14) (size 15 to 20)
#    0.000    2.000    0.000    7.800    0.000    9.600 
#    0.000    0.000    0.000    0.000    0.000    0.000 
#    0.000    0.000    0.000   27.000    0.000    0.000 
#
# Total GULP energy -334046.514676 kJ/mol
# GULP energy per Si atom -5567.441911 kJ/mol
# Density = 1.645369 g / cm^3
# Si number density = 16.491221 Si / 1000 Ang^3
#
#
#
# Elastic Constant Matrix: (Units=GPa)
#
#
# Indices 1 2 3 4 5 6 
#
# 1 45.2201 21.7530 18.3942 -5.8930 0.0000 0.0000
# 2 21.7530 45.2201 18.3942 5.8930 0.0000 0.0000
# 3 18.3942 18.3942 181.2694 0.0000 0.0000 0.0000
# 4 -5.8930 5.8930 0.0000 3.5290 0.0000 0.0000
# 5 0.0000 0.0000 0.0000 0.0000 3.5290 -5.8930
# 6 0.0000 0.0000 0.0000 0.0000 -5.8930 11.7335
#
#
#
# Elastic Compliance Matrix: (Units=1/GPa)
#
#
# Indices 1 2 3 4 5 6 
#
# 1 0.139957 -0.124144 -0.001605 0.441008 0.000000 0.000000
# 2 -0.124144 0.139957 -0.001605 -0.441008 0.000000 0.000000
# 3 -0.001605 -0.001605 0.005842 0.000000 0.000000 0.000000
# 4 0.441008 -0.441008 0.000000 1.756195 0.000000 0.000000
# 5 0.000000 0.000000 0.000000 0.000000 1.756195 0.882017
# 6 0.000000 0.000000 0.000000 0.000000 0.882017 0.528203
#
#
# Mechanical properties :
#
#
# Convention : Reuss Voigt Hill
#
# Bulk Modulus (GPa) = 32.20665 43.19917 37.70291
# Shear Modulus (GPa) = 1.08899 17.96953 9.52926
#
# Velocity S-wave (km/s) = 0.81350 3.30455 2.40644
# Velocity P-wave (km/s) = 4.52265 6.38844 5.53473
#
# Compressibility (1/GPa) = 0.03104948
#
# Stress axis : x y z
#
# Youngs Moduli (GPa) = 7.14505 7.14505 171.16544
#
# Poissons Ratio (x) = 0.88702 0.27465
# Poissons Ratio (y) = 0.88702 0.27465
# Poissons Ratio (z) = 0.01146 0.01146
#
# Static dielectric constant tensor:
#      x y z
#    x 1.559410 0.000000 0.000000 
#    y 0.000000 1.559410 0.000000 
#    z 0.000000 0.000000 1.751520 
# 
# From -- ./inp_files/700.got.cif
#   From: 2010.05.17/outbox.cif.g08.bks.cpg/sg164_1_cif.got.tgz:700.got - 2010.05.20 10:58:56.
