data_PCOD9578312
_publ_section_title
;
Structure prediction by ZEFSAII (Michael W. Deem and Ramdas Pophale) SiO2 
 PCOD9578312
Probable space group: P -3 M 1
;
_chemical_formula_sum "Si O2"
_cell_formula_units_Z 84
_cell_length_a 20.409367
_cell_length_b 20.409367
_cell_length_c 12.621101
_cell_angle_alpha 90.000000
_cell_angle_beta 90.000000
_cell_angle_gamma 120.000000
_cell_volume 4552.887763
_symmetry_space_group_name_H-M "P -3 M 1"
_symmetry_group_IT_number 164
_symmetry_cell_setting 'hexagonal'
loop_
_space_group_symop_operation_xyz
x,y,z
-y,x-y,z
-x+y,-x,z
x-y,-y,-z
-x,-x+y,-z
y,x,-z
-x,-y,-z
y,-x+y,-z
x-y,x,-z
-x+y,y,z
x,x-y,z
-y,-x,z
loop_
_atom_site_type_symbol
_atom_site_label
_atom_site_fract_x
_atom_site_fract_y
_atom_site_fract_z
Si Si1 0.706943 0.925182 0.870355
Si Si2 0.331648 0.818951 0.519827
Si Si3 0.903994 0.656821 0.891983
Si Si4 0.956006 0.552049 0.613133
Si Si5 0.587923 0.908888 0.718411
Si Si6 0.665984 0.180536 0.867749
Si Si7 0.811350 0.334239 0.122389
O O1 0.746521 0.873261 0.876868
O O2 0.654260 0.899613 0.767622
O O3 0.748186 0.016395 0.865550
O O4 0.657192 0.904662 0.978609
O O5 0.412417 0.824834 0.538496
O O6 0.265901 0.734100 0.505049
O O7 0.343040 0.870851 0.417191
O O8 0.313138 0.855597 0.620294
O O9 0.833074 0.666148 0.859460
O O10 0.883634 0.573492 0.849792
O O11 0.959012 0.479506 0.655871
O O12 0.000000 0.571888 0.500000
O O13 0.005643 0.624831 0.682332
O O14 0.528839 0.887482 0.814525
O O15 0.585303 0.170605 0.830342
O O16 0.737564 0.262437 0.835261
O O17 0.663219 0.182290 0.996239
O O18 0.781960 0.390980 0.153690
O O19 0.750437 0.249564 0.154958
#
# Coordination Sequence:
#
# PCOD9578312 Si02
#       7
#    12  12  12  12  12  12  12
#     4  10  19  32  50  72  96 125 161 206 259 308
#     4  10  19  31  48  69  95 126 161 201 245 292
#     4   9  18  34  51  67  95 133 173 209 249 307
#     4   8  16  30  44  61  87 121 155 188 231 284
#     4  11  18  28  45  67  93 122 155 193 243 296
#     4   9  16  27  42  63  92 129 171 213 252 288
#     4  10  17  24  36  58  89 121 152 190 236 285
#
# _framework density 18.449829000000001
#
# number of rings (size 3 to 8) (size 9 to 14) (size 15 to 20)
#    0.000    2.429    1.429    3.857    0.000    1.143 
#    0.000    5.714    0.000    0.286    0.000    2.000 
#    0.000    5.714    0.000    0.429    0.000   11.286 
#
# Total GULP energy -467872.347950 kJ/mol
# GULP energy per Si atom -5569.908904 kJ/mol
# Density = 1.840784 g / cm^3
# Si number density = 18.449829 Si / 1000 Ang^3
#
#
#
# Elastic Constant Matrix: (Units=GPa)
#
#
# Indices 1 2 3 4 5 6 
#
# 1 100.1183 57.1498 21.9956 -3.1437 0.0000 0.0000
# 2 57.1498 100.1183 21.9956 3.1437 0.0000 0.0000
# 3 21.9956 21.9956 27.7260 0.0000 0.0000 0.0000
# 4 -3.1437 3.1437 0.0000 16.6067 0.0000 0.0000
# 5 0.0000 0.0000 0.0000 0.0000 16.6067 -3.1437
# 6 0.0000 0.0000 0.0000 0.0000 -3.1437 21.4842
#
#
#
# Elastic Compliance Matrix: (Units=1/GPa)
#
#
# Indices 1 2 3 4 5 6 
#
# 1 0.016054 -0.007882 -0.006483 0.004531 0.000000 0.000000
# 2 -0.007882 0.016054 -0.006483 -0.004531 0.000000 0.000000
# 3 -0.006483 -0.006483 0.046353 0.000000 0.000000 0.000000
# 4 0.004531 -0.004531 0.000000 0.061932 0.000000 0.000000
# 5 0.000000 0.000000 0.000000 0.000000 0.061932 0.009062
# 6 0.000000 0.000000 0.000000 0.000000 0.009062 0.047872
#
#
# Mechanical properties :
#
#
# Convention : Reuss Voigt Hill
#
# Bulk Modulus (GPa) = 27.19951 47.80495 37.50223
# Shear Modulus (GPa) = 16.43932 19.39428 17.91680
#
# Velocity S-wave (km/s) = 2.98825 3.24572 3.11964
# Velocity P-wave (km/s) = 5.16533 6.32561 5.77468
#
# Compressibility (1/GPa) = 0.03676537
#
# Stress axis : x y z
#
# Youngs Moduli (GPa) = 62.28993 62.28993 21.57340
#
# Poissons Ratio (x) = 0.49097 0.13986
# Poissons Ratio (y) = 0.49097 0.13986
# Poissons Ratio (z) = 0.40383 0.40383
#
# Static dielectric constant tensor:
#      x y z
#    x 1.652370 0.000000 0.000000 
#    y 0.000000 1.652370 0.000000 
#    z 0.000000 0.000000 1.667090 
# 
# From -- ./inp_files/2867.got.cif
#   From: 2010.05.17/outbox.cif.g08.bks.cpg/sg164_2_cif.got.tgz:2867.got - 2010.05.20 10:58:56.
