data_PCOD9578078
_publ_section_title
;
Structure prediction by ZEFSAII (Michael W. Deem and Ramdas Pophale) SiO2 
 PCOD9578078
Probable space group: P -3 1 C
;
_chemical_formula_sum "Si O2"
_cell_formula_units_Z 64
_cell_length_a 14.040797
_cell_length_b 14.040797
_cell_length_c 19.552816
_cell_angle_alpha 90.000000
_cell_angle_beta 90.000000
_cell_angle_gamma 120.000000
_cell_volume 3338.285422
_symmetry_space_group_name_H-M "P -3 1 C"
_symmetry_group_IT_number 163
_symmetry_cell_setting 'hexagonal'
loop_
_space_group_symop_operation_xyz
x,y,z
-y,x-y,z
-x+y,-x,z
-y,-x,1/2-z
-x+y,y,1/2-z
x,x-y,1/2-z
-x,-y,-z
y,-x+y,-z
x-y,x,-z
y,x,1/2+z
x-y,-y,1/2+z
-x,-x+y,1/2+z
loop_
_atom_site_type_symbol
_atom_site_label
_atom_site_fract_x
_atom_site_fract_y
_atom_site_fract_z
Si Si1 0.419194 0.155370 0.374175
Si Si2 0.704379 0.009043 0.245965
Si Si3 0.163196 0.904644 0.002081
Si Si4 0.000000 0.000000 0.833211
Si Si5 0.249677 0.129322 0.850108
Si Si6 0.523833 0.395952 0.320174
O O1 0.344923 0.119491 0.441538
O O2 0.488779 0.286061 0.362895
O O3 0.500539 0.105581 0.366338
O O4 0.345473 0.110407 0.305849
O O5 0.678852 0.911360 0.192085
O O6 0.765994 0.981314 0.304325
O O7 0.615734 0.027884 0.287415
O O8 0.180152 0.873595 0.078562
O O9 0.032767 0.830722 0.992005
O O10 0.122375 0.032279 0.858573
O O11 0.000000 0.000000 0.750000
O O12 0.591175 0.408826 0.250000
#
# Coordination Sequence:
#
# PCOD9578078 Si02
#       6
#    12  12  12   4  12  12
#     4  11  23  41  64  97 131 165 221 285 347 389
#     4  10  20  35  58  87 126 160 223 274 329 382
#     4  12  24  40  60  93 146 188 216 254 325 420
#     4  12  21  30  58  92 136 183 235 254 307 381
#     4  11  23  34  55  91 133 183 218 265 315 404
#     4  10  21  36  66  89 120 160 219 292 335 376
#
# _framework density 19.171517000000001
#
# number of rings (size 3 to 8) (size 9 to 14) (size 15 to 20)
#    0.000    1.125    3.750    5.062    5.250    1.500 
#    0.000    3.750    0.000    0.000    0.000    0.000 
#  202.500    0.000    0.000    0.000    0.000    0.000 
#
# Total GULP energy -356538.293810 kJ/mol
# GULP energy per Si atom -5570.910841 kJ/mol
# Density = 1.912788 g / cm^3
# Si number density = 19.171517 Si / 1000 Ang^3
#
#
#
# Elastic Constant Matrix: (Units=GPa)
#
#
# Indices 1 2 3 4 5 6 
#
# 1 98.1837 50.6898 51.9232 0.0000 -3.5498 0.0000
# 2 50.6898 98.1837 51.9232 0.0000 3.5498 0.0000
# 3 51.9232 51.9232 148.1659 0.0000 0.0000 0.0000
# 4 0.0000 0.0000 0.0000 16.6897 0.0000 3.5498
# 5 -3.5498 3.5498 0.0000 0.0000 16.6897 0.0000
# 6 0.0000 0.0000 0.0000 3.5498 0.0000 23.7470
#
#
#
# Elastic Compliance Matrix: (Units=1/GPa)
#
#
# Indices 1 2 3 4 5 6 
#
# 1 0.015319 -0.006428 -0.003116 0.000000 0.004625 0.000000
# 2 -0.006428 0.015319 -0.003116 0.000000 -0.004625 0.000000
# 3 -0.003116 -0.003116 0.008933 0.000000 0.000000 0.000000
# 4 0.000000 0.000000 0.000000 0.061885 0.000000 -0.009251
# 5 0.004625 -0.004625 0.000000 0.000000 0.061885 0.000000
# 6 0.000000 0.000000 0.000000 -0.009251 0.000000 0.043494
#
#
# Mechanical properties :
#
#
# Convention : Reuss Voigt Hill
#
# Bulk Modulus (GPa) = 70.16866 72.62284 71.39575
# Shear Modulus (GPa) = 21.10575 24.09175 22.59875
#
# Velocity S-wave (km/s) = 3.32157 3.54876 3.43704
# Velocity P-wave (km/s) = 7.16871 7.39962 7.28508
#
# Compressibility (1/GPa) = 0.01425138
#
# Stress axis : x y z
#
# Youngs Moduli (GPa) = 65.28034 65.28034 111.94704
#
# Poissons Ratio (x) = 0.41964 0.34877
# Poissons Ratio (y) = 0.41964 0.34877
# Poissons Ratio (z) = 0.20338 0.20338
#
# Static dielectric constant tensor:
#      x y z
#    x 1.735720 0.000000 0.000000 
#    y 0.000000 1.735720 0.000000 
#    z 0.000000 0.000000 1.708460 
# 
# From -- ./inp_files/3603.got.cif
#   From: 2010.05.17/outbox.cif.g08.bks.cpg/sg163_2_cif.got.tgz:3603.got - 2010.05.20 10:56:03.
