data_PCOD9578275
_publ_section_title
;
Structure prediction by ZEFSAII (Michael W. Deem and Ramdas Pophale) SiO2 
 PCOD9578275
Probable space group: P -3 1 C
;
_chemical_formula_sum "Si O2"
_cell_formula_units_Z 48
_cell_length_a 17.901909
_cell_length_b 17.901909
_cell_length_c 8.536698
_cell_angle_alpha 90.000000
_cell_angle_beta 90.000000
_cell_angle_gamma 120.000000
_cell_volume 2369.295556
_symmetry_space_group_name_H-M "P -3 1 C"
_symmetry_group_IT_number 163
_symmetry_cell_setting 'hexagonal'
loop_
_space_group_symop_operation_xyz
x,y,z
-y,x-y,z
-x+y,-x,z
-y,-x,1/2-z
-x+y,y,1/2-z
x,x-y,1/2-z
-x,-y,-z
y,-x+y,-z
x-y,x,-z
y,x,1/2+z
x-y,-y,1/2+z
-x,-x+y,1/2+z
loop_
_atom_site_type_symbol
_atom_site_label
_atom_site_fract_x
_atom_site_fract_y
_atom_site_fract_z
Si Si1 0.341039 0.807027 0.854579
Si Si2 0.893681 0.650650 0.985690
Si Si3 0.570496 0.477546 0.928226
Si Si4 0.923770 0.267734 0.882629
O O1 0.276764 0.723237 0.750000
O O2 0.428259 0.856518 0.750000
O O3 0.288425 0.852760 0.908653
O O4 0.394213 0.817144 0.013341
O O5 0.981993 0.712799 0.071797
O O6 0.822624 0.678109 0.958420
O O7 0.914655 0.639998 0.804709
O O8 0.543098 0.456903 0.750000
O O9 0.660954 0.564360 0.952654
O O10 0.500000 0.500000 0.000000
#
# Coordination Sequence:
#
# PCOD9578275 Si02
#       4
#    12  12  12  12
#     4  12  26  42  65  98 136 185 232 281 345 405
#     4  11  26  43  69  99 134 175 226 286 337 415
#     4  12  22  41  70  97 135 183 231 283 341 415
#     4  11  24  45  67 101 134 174 228 279 349 403
#
# _framework density 20.259188000000002
#
# number of rings (size 3 to 8) (size 9 to 14) (size 15 to 20)
#    0.000    0.500    5.000    2.500    7.000    0.000 
#    0.000    0.000    5.500    0.500    0.000    0.000 
#    0.000    0.000    0.000    0.000    0.000    0.000 
#
# Total GULP energy -267291.899936 kJ/mol
# GULP energy per Si atom -5568.581249 kJ/mol
# Density = 2.021308 g / cm^3
# Si number density = 20.259188 Si / 1000 Ang^3
#
#
#
# Elastic Constant Matrix: (Units=GPa)
#
#
# Indices 1 2 3 4 5 6 
#
# 1 106.9125 74.6202 56.3267 0.0000 -8.8240 0.0000
# 2 74.6202 106.9125 56.3267 0.0000 8.8240 0.0000
# 3 56.3267 56.3267 103.9059 0.0000 0.0000 0.0000
# 4 0.0000 0.0000 0.0000 36.6730 0.0000 8.8240
# 5 -8.8240 8.8240 0.0000 0.0000 36.6730 0.0000
# 6 0.0000 0.0000 0.0000 8.8240 0.0000 16.1462
#
#
#
# Elastic Compliance Matrix: (Units=1/GPa)
#
#
# Indices 1 2 3 4 5 6 
#
# 1 0.021978 -0.013677 -0.004500 0.000000 0.008579 0.000000
# 2 -0.013677 0.021978 -0.004500 0.000000 -0.008579 0.000000
# 3 -0.004500 -0.004500 0.014503 0.000000 0.000000 0.000000
# 4 0.000000 0.000000 0.000000 0.031397 0.000000 -0.017158
# 5 0.008579 -0.008579 0.000000 0.000000 0.031397 0.000000
# 6 0.000000 0.000000 0.000000 -0.017158 0.000000 0.071311
#
#
# Mechanical properties :
#
#
# Convention : Reuss Voigt Hill
#
# Bulk Modulus (GPa) = 76.30515 76.91977 76.61246
# Shear Modulus (GPa) = 20.63663 26.59559 23.61611
#
# Velocity S-wave (km/s) = 3.19506 3.62714 3.41794
# Velocity P-wave (km/s) = 7.16641 7.45599 7.31264
#
# Compressibility (1/GPa) = 0.01310528
#
# Stress axis : x y z
#
# Youngs Moduli (GPa) = 45.49904 45.49904 68.95134
#
# Poissons Ratio (x) = 0.62230 0.31028
# Poissons Ratio (y) = 0.62230 0.31028
# Poissons Ratio (z) = 0.20475 0.20475
#
# Static dielectric constant tensor:
#      x y z
#    x 1.762870 0.000000 0.000000 
#    y 0.000000 1.762870 0.000000 
#    z 0.000000 0.000000 1.942180 
# 
# From -- ./inp_files/895.got.cif
#   From: 2010.05.17/outbox.cif.g08.bks.cpg/sg163_1_cif.got.tgz:895.got - 2010.05.20 10:56:03.
