data_PCOD9578443
_publ_section_title
;
Structure prediction by ZEFSAII (Michael W. Deem and Ramdas Pophale) SiO2 
 PCOD9578443
Probable space group: P -3 M 1
;
_chemical_formula_sum "Si O2"
_cell_formula_units_Z 84
_cell_length_a 21.111347
_cell_length_b 21.111347
_cell_length_c 11.661485
_cell_angle_alpha 90.000000
_cell_angle_beta 90.000000
_cell_angle_gamma 120.000000
_cell_volume 4501.076332
_symmetry_space_group_name_H-M "P -3 M 1"
_symmetry_group_IT_number 164
_symmetry_cell_setting 'hexagonal'
loop_
_space_group_symop_operation_xyz
x,y,z
-y,x-y,z
-x+y,-x,z
x-y,-y,-z
-x,-x+y,-z
y,x,-z
-x,-y,-z
y,-x+y,-z
x-y,x,-z
-x+y,y,z
x,x-y,z
-y,-x,z
loop_
_atom_site_type_symbol
_atom_site_label
_atom_site_fract_x
_atom_site_fract_y
_atom_site_fract_z
Si Si1 0.150768 0.150520 0.367338
Si Si2 0.404754 0.126994 0.691808
Si Si3 0.270790 0.981498 0.761270
Si Si4 0.484228 0.665799 0.122821
Si Si5 0.875392 0.276565 0.428522
Si Si6 0.127388 0.399812 0.934685
Si Si7 0.476743 0.809943 0.738470
O O1 0.175871 0.175871 0.500000
O O2 0.135758 0.067879 0.361029
O O3 0.213122 0.200533 0.276536
O O4 0.076842 0.153684 0.349404
O O5 0.393651 0.196826 0.696082
O O6 0.482966 0.153989 0.750483
O O7 0.397453 0.103132 0.559993
O O8 0.340635 0.061383 0.760982
O O9 0.280152 0.936138 0.656763
O O10 0.269074 0.940392 0.878868
O O11 0.473642 0.736821 0.105721
O O12 0.408925 0.591076 0.102609
O O13 0.550513 0.677709 0.038897
O O14 0.806032 0.193969 0.421095
O O15 0.845988 0.328291 0.379582
O O16 0.189982 0.379963 0.963354
O O17 0.157714 0.459215 0.831952
O O18 0.412907 0.825814 0.767244
O O19 0.447351 0.723676 0.733078
#
# Coordination Sequence:
#
# PCOD9578443 Si02
#       7
#    12  12  12  12  12  12  12
#     4  10  19  30  48  78 115 150 184 223 264 307
#     4  10  21  35  51  75 105 134 172 219 256 303
#     4  11  19  32  54  75 102 146 183 210 258 315
#     4  10  21  39  61  81 103 132 168 214 269 323
#     4   9  18  32  49  72 102 135 175 219 255 298
#     4   9  19  34  52  76 102 129 169 217 256 303
#     4   9  16  27  46  71  98 126 159 205 258 308
#
# _framework density 18.662203000000002
#
# number of rings (size 3 to 8) (size 9 to 14) (size 15 to 20)
#    0.000    2.286    0.000    4.714    0.000    4.000 
#    0.000    5.714    0.000    6.000    0.000    0.000 
#    0.000    0.000    0.000   10.857    0.000    4.000 
#
# Total GULP energy -468305.341632 kJ/mol
# GULP energy per Si atom -5575.063591 kJ/mol
# Density = 1.861973 g / cm^3
# Si number density = 18.662203 Si / 1000 Ang^3
#
#
#
# Elastic Constant Matrix: (Units=GPa)
#
#
# Indices 1 2 3 4 5 6 
#
# 1 62.2577 20.1038 27.9016 1.4619 0.0000 0.0000
# 2 20.1038 62.2577 27.9016 -1.4619 0.0000 0.0000
# 3 27.9016 27.9016 60.1993 0.0000 0.0000 0.0000
# 4 1.4619 -1.4619 0.0000 23.1481 0.0000 0.0000
# 5 0.0000 0.0000 0.0000 0.0000 23.1481 1.4619
# 6 0.0000 0.0000 0.0000 0.0000 1.4619 21.0770
#
#
#
# Elastic Compliance Matrix: (Units=1/GPa)
#
#
# Indices 1 2 3 4 5 6 
#
# 1 0.020763 -0.003064 -0.008204 -0.001505 0.000000 0.000000
# 2 -0.003064 0.020763 -0.008204 0.001505 0.000000 0.000000
# 3 -0.008204 -0.008204 0.024216 0.000000 0.000000 0.000000
# 4 -0.001505 0.001505 0.000000 0.043390 0.000000 0.000000
# 5 0.000000 0.000000 0.000000 0.000000 0.043390 -0.003009
# 6 0.000000 0.000000 0.000000 0.000000 -0.003009 0.047654
#
#
# Mechanical properties :
#
#
# Convention : Reuss Voigt Hill
#
# Bulk Modulus (GPa) = 37.31180 37.39210 37.35195
# Shear Modulus (GPa) = 20.15701 20.72848 20.44274
#
# Velocity S-wave (km/s) = 3.29005 3.33636 3.31329
# Velocity P-wave (km/s) = 5.87105 5.90944 5.89028
#
# Compressibility (1/GPa) = 0.02680117
#
# Stress axis : x y z
#
# Youngs Moduli (GPa) = 48.16157 48.16157 41.29482
#
# Poissons Ratio (x) = 0.14754 0.33877
# Poissons Ratio (y) = 0.14754 0.33877
# Poissons Ratio (z) = 0.39510 0.39510
#
# Static dielectric constant tensor:
#      x y z
#    x 1.634020 0.000000 0.000000 
#    y 0.000000 1.634020 0.000000 
#    z 0.000000 0.000000 1.695600 
# 
# From -- ./inp_files/2882.got.cif
#   From: 2010.05.17/outbox.cif.g08.bks.cpg/sg164_2_cif.got.tgz:2882.got - 2010.05.20 10:58:56.
