data_PCOD9578709
_publ_section_title
;
Structure prediction by ZEFSAII (Michael W. Deem and Ramdas Pophale) SiO2 
 PCOD9578709
Probable space group: P -3 M 1
;
_chemical_formula_sum "Si O2"
_cell_formula_units_Z 48
_cell_length_a 18.950466
_cell_length_b 18.950466
_cell_length_c 9.175473
_cell_angle_alpha 90.000000
_cell_angle_beta 90.000000
_cell_angle_gamma 120.000000
_cell_volume 2853.638010
_symmetry_space_group_name_H-M "P -3 M 1"
_symmetry_group_IT_number 164
_symmetry_cell_setting 'hexagonal'
loop_
_space_group_symop_operation_xyz
x,y,z
-y,x-y,z
-x+y,-x,z
x-y,-y,-z
-x,-x+y,-z
y,x,-z
-x,-y,-z
y,-x+y,-z
x-y,x,-z
-x+y,y,z
x,x-y,z
-y,-x,z
loop_
_atom_site_type_symbol
_atom_site_label
_atom_site_fract_x
_atom_site_fract_y
_atom_site_fract_z
Si Si1 0.083175 0.751370 0.923292
Si Si2 0.831783 0.334148 0.923180
Si Si3 0.331805 0.083175 0.423289
Si Si4 0.502365 0.168218 0.576813
O O1 0.158283 0.841718 0.954015
O O2 0.072621 0.741306 0.750002
O O3 0.110771 0.689654 0.987851
O O4 0.000000 0.732070 0.000000
O O5 0.840426 0.420213 0.963534
O O6 0.739061 0.260940 0.946182
O O7 0.848603 0.335447 0.749996
O O8 0.316564 0.158282 0.454012
O O9 0.421118 0.110772 0.487845
O O10 0.267931 0.000000 0.500000
O O11 0.579787 0.159574 0.536459
O O12 0.521880 0.260940 0.553812
#
# Coordination Sequence:
#
# PCOD9578709 Si02
#       4
#    12  12  12  12
#     4  10  21  36  54  76 100 128 163 202 247 298
#     4   9  17  30  49  73 102 137 175 212 248 286
#     4  10  21  36  54  76 100 128 163 202 247 298
#     4   9  17  30  49  73 102 137 175 212 248 286
#
# _framework density 16.820633999999998
#
# number of rings (size 3 to 8) (size 9 to 14) (size 15 to 20)
#    0.000    2.500    0.000    2.000    0.000    7.000 
#    0.000    0.000    0.000    3.500    0.000    0.000 
#    0.000    0.000    0.000    0.000    0.000    0.000 
#
# Total GULP energy -267848.232549 kJ/mol
# GULP energy per Si atom -5580.171511 kJ/mol
# Density = 1.678235 g / cm^3
# Si number density = 16.820634 Si / 1000 Ang^3
#
#
#
# Elastic Constant Matrix: (Units=GPa)
#
#
# Indices 1 2 3 4 5 6 
#
# 1 91.4058 74.3913 65.5642 -0.0004 0.0000 0.0000
# 2 74.3913 91.4058 65.5642 0.0004 0.0000 0.0000
# 3 65.5642 65.5642 67.0735 0.0000 0.0000 0.0000
# 4 -0.0004 0.0004 0.0000 24.6300 0.0000 0.0000
# 5 0.0000 0.0000 0.0000 0.0000 24.6300 -0.0004
# 6 0.0000 0.0000 0.0000 0.0000 -0.0004 8.5073
#
#
#
# Elastic Compliance Matrix: (Units=1/GPa)
#
#
# Indices 1 2 3 4 5 6 
#
# 1 0.042678 -0.016096 -0.025984 0.000001 0.000000 0.000000
# 2 -0.016096 0.042678 -0.025984 -0.000001 0.000000 0.000000
# 3 -0.025984 -0.025984 0.065707 0.000000 0.000000 0.000000
# 4 0.000001 -0.000001 0.000000 0.040601 0.000000 0.000000
# 5 0.000000 0.000000 0.000000 0.000000 0.040601 0.000002
# 6 0.000000 0.000000 0.000000 0.000000 0.000002 0.117547
#
#
# Mechanical properties :
#
#
# Convention : Reuss Voigt Hill
#
# Bulk Modulus (GPa) = 66.95259 73.43605 70.19432
# Shear Modulus (GPa) = 10.18502 14.51114 12.34808
#
# Velocity S-wave (km/s) = 2.46338 2.94036 2.71237
# Velocity P-wave (km/s) = 6.92685 7.43510 7.18547
#
# Compressibility (1/GPa) = 0.01493594
#
# Stress axis : x y z
#
# Youngs Moduli (GPa) = 23.43143 23.43143 15.21897
#
# Poissons Ratio (x) = 0.37714 0.39545
# Poissons Ratio (y) = 0.37714 0.39545
# Poissons Ratio (z) = 0.60884 0.60884
#
# Static dielectric constant tensor:
#      x y z
#    x 1.552950 0.000000 0.000000 
#    y 0.000000 1.552950 0.000000 
#    z 0.000000 0.000000 1.556230 
# 
# From -- ./inp_files/1223.got.cif
#   From: 2010.05.17/outbox.cif.g08.bks.cpg/sg164_1_cif.got.tgz:1223.got - 2010.05.20 10:58:56.
