data_PCOD9578187
_publ_section_title
;
Structure prediction by ZEFSAII (Michael W. Deem and Ramdas Pophale) SiO2 
 PCOD9578187
Probable space group: P -3 1 C
;
_chemical_formula_sum "Si O2"
_cell_formula_units_Z 30
_cell_length_a 12.982117
_cell_length_b 12.982117
_cell_length_c 10.257814
_cell_angle_alpha 90.000000
_cell_angle_beta 90.000000
_cell_angle_gamma 120.000000
_cell_volume 1497.188523
_symmetry_space_group_name_H-M "P -3 1 C"
_symmetry_group_IT_number 163
_symmetry_cell_setting 'hexagonal'
loop_
_space_group_symop_operation_xyz
x,y,z
-y,x-y,z
-x+y,-x,z
-y,-x,1/2-z
-x+y,y,1/2-z
x,x-y,1/2-z
-x,-y,-z
y,-x+y,-z
x-y,x,-z
y,x,1/2+z
x-y,-y,1/2+z
-x,-x+y,1/2+z
loop_
_atom_site_type_symbol
_atom_site_label
_atom_site_fract_x
_atom_site_fract_y
_atom_site_fract_z
Si Si1 0.265243 0.060829 0.990413
Si Si2 0.427825 0.439773 0.369669
Si Si3 0.208724 0.791277 0.250000
O O1 0.350098 0.049922 0.097397
O O2 0.109328 0.771570 0.143710
O O3 0.153645 0.930009 0.971050
O O4 0.518965 0.481036 0.250000
O O5 0.500000 0.500000 0.500000
O O6 0.330901 0.479725 0.331572
#
# Coordination Sequence:
#
# PCOD9578187 Si02
#       3
#    12  12   6
#     4  10  22  40  67 101 135 176 214 273 342 409
#     4  11  22  43  66  95 132 180 227 278 337 396
#     4  10  22  42  66 102 132 178 218 282 338 396
#
# _framework density 20.037555000000001
#
# number of rings (size 3 to 8) (size 9 to 14) (size 15 to 20)
#    0.000    1.600    4.000    0.400    0.000    6.400 
#    1.200    0.000    0.000    0.000    0.000    0.000 
#    0.000    0.000    0.000    0.000    0.000    0.000 
#
# Total GULP energy -167373.004905 kJ/mol
# GULP energy per Si atom -5579.100163 kJ/mol
# Density = 1.999195 g / cm^3
# Si number density = 20.037555 Si / 1000 Ang^3
#
#
#
# Elastic Constant Matrix: (Units=GPa)
#
#
# Indices 1 2 3 4 5 6 
#
# 1 117.1264 64.5284 59.7126 0.0000 15.4041 0.0000
# 2 64.5284 117.1264 59.7126 0.0000 -15.4041 0.0000
# 3 59.7126 59.7126 149.4800 0.0000 0.0000 0.0000
# 4 0.0000 0.0000 0.0000 46.2086 0.0000 -15.4041
# 5 15.4041 -15.4041 0.0000 0.0000 46.2086 0.0000
# 6 0.0000 0.0000 0.0000 -15.4041 0.0000 26.2990
#
#
#
# Elastic Compliance Matrix: (Units=1/GPa)
#
#
# Indices 1 2 3 4 5 6 
#
# 1 0.015545 -0.008080 -0.002982 0.000000 -0.007876 0.000000
# 2 -0.008080 0.015545 -0.002982 0.000000 0.007876 0.000000
# 3 -0.002982 -0.002982 0.009073 0.000000 0.000000 0.000000
# 4 0.000000 0.000000 0.000000 0.026892 0.000000 0.015751
# 5 -0.007876 0.007876 0.000000 0.000000 0.026892 0.000000
# 6 0.000000 0.000000 0.000000 0.015751 0.000000 0.047250
#
#
# Mechanical properties :
#
#
# Convention : Reuss Voigt Hill
#
# Bulk Modulus (GPa) = 82.81851 83.51554 83.16703
# Shear Modulus (GPa) = 28.84991 37.06182 32.95586
#
# Velocity S-wave (km/s) = 3.79858 4.30538 4.05990
# Velocity P-wave (km/s) = 7.78847 8.15384 7.97325
#
# Compressibility (1/GPa) = 0.01207460
#
# Stress axis : x y z
#
# Youngs Moduli (GPa) = 64.32785 64.32785 110.22317
#
# Poissons Ratio (x) = 0.51976 0.32871
# Poissons Ratio (y) = 0.51976 0.32871
# Poissons Ratio (z) = 0.19184 0.19184
#
# Static dielectric constant tensor:
#      x y z
#    x 1.736620 0.000000 0.000000 
#    y 0.000000 1.736620 0.000000 
#    z 0.000000 0.000000 1.709220 
# 
# From -- ./inp_files/681.got.cif
#   From: 2010.05.17/outbox.cif.g08.bks.cpg/sg163_1_cif.got.tgz:681.got - 2010.05.20 10:56:03.
