data_PCOD9578737
_publ_section_title
;
Structure prediction by ZEFSAII (Michael W. Deem and Ramdas Pophale) SiO2 
 PCOD9578737
Probable space group: P -3 M 1
;
_chemical_formula_sum "Si O2"
_cell_formula_units_Z 60
_cell_length_a 24.126080
_cell_length_b 24.126080
_cell_length_c 7.429977
_cell_angle_alpha 90.000000
_cell_angle_beta 90.000000
_cell_angle_gamma 120.000000
_cell_volume 3745.343272
_symmetry_space_group_name_H-M "P -3 M 1"
_symmetry_group_IT_number 164
_symmetry_cell_setting 'hexagonal'
loop_
_space_group_symop_operation_xyz
x,y,z
-y,x-y,z
-x+y,-x,z
x-y,-y,-z
-x,-x+y,-z
y,x,-z
-x,-y,-z
y,-x+y,-z
x-y,x,-z
-x+y,y,z
x,x-y,z
-y,-x,z
loop_
_atom_site_type_symbol
_atom_site_label
_atom_site_fract_x
_atom_site_fract_y
_atom_site_fract_z
Si Si1 0.132315 0.745544 0.739713
Si Si2 0.794766 0.723350 0.547201
Si Si3 0.912712 0.516091 0.327425
Si Si4 0.648053 0.716877 0.098781
Si Si5 0.469168 0.408471 0.754686
O O1 0.202695 0.797306 0.682584
O O2 0.085834 0.755230 0.604358
O O3 0.123051 0.675705 0.731094
O O4 0.117332 0.756923 0.941399
O O5 0.781735 0.781735 0.500000
O O6 0.868421 0.736842 0.544591
O O7 0.760299 0.690083 0.735377
O O8 0.883861 0.441931 0.282199
O O9 0.921625 0.522932 0.543199
O O10 0.983457 0.554011 0.241451
O O11 0.577725 0.660504 0.161094
O O12 0.682541 0.682541 0.000000
O O13 0.540478 0.459523 0.826164
#
# Coordination Sequence:
#
# PCOD9578737 Si02
#       5
#    12  12  12  12  12
#     4  11  22  34  51  75 102 137 175 210 256 306
#     4  11  22  38  55  76 106 138 172 212 258 309
#     4   9  16  30  49  69  98 132 168 206 243 291
#     4  12  20  31  52  75 111 137 168 203 251 314
#     4   9  17  28  47  74 102 133 165 200 248 296
#
# _framework density 16.019893
#
# number of rings (size 3 to 8) (size 9 to 14) (size 15 to 20)
#    0.000    1.600    6.000    1.800    0.000    1.200 
#    0.000    0.000    0.000    0.600    0.000    0.000 
#    0.000    2.400    0.000    0.000    0.000    0.000 
#
# Total GULP energy -334363.474979 kJ/mol
# GULP energy per Si atom -5572.724583 kJ/mol
# Density = 1.598343 g / cm^3
# Si number density = 16.019893 Si / 1000 Ang^3
#
#
#
# Elastic Constant Matrix: (Units=GPa)
#
#
# Indices 1 2 3 4 5 6 
#
# 1 69.4212 39.2263 23.6671 -3.5407 0.0000 0.0000
# 2 39.2263 69.4212 23.6671 3.5407 0.0000 0.0000
# 3 23.6671 23.6671 75.6280 0.0000 0.0000 0.0000
# 4 -3.5407 3.5407 0.0000 13.2474 0.0000 0.0000
# 5 0.0000 0.0000 0.0000 0.0000 13.2474 -3.5407
# 6 0.0000 0.0000 0.0000 0.0000 -3.5407 15.0974
#
#
#
# Elastic Compliance Matrix: (Units=1/GPa)
#
#
# Indices 1 2 3 4 5 6 
#
# 1 0.022995 -0.012338 -0.003335 0.009444 0.000000 0.000000
# 2 -0.012338 0.022995 -0.003335 -0.009444 0.000000 0.000000
# 3 -0.003335 -0.003335 0.015310 0.000000 0.000000 0.000000
# 4 0.009444 -0.009444 0.000000 0.080535 0.000000 0.000000
# 5 0.000000 0.000000 0.000000 0.000000 0.080535 0.018887
# 6 0.000000 0.000000 0.000000 0.000000 0.018887 0.070666
#
#
# Mechanical properties :
#
#
# Convention : Reuss Voigt Hill
#
# Bulk Modulus (GPa) = 42.94808 43.06572 43.00690
# Shear Modulus (GPa) = 14.75742 16.84576 15.80159
#
# Velocity S-wave (km/s) = 3.03841 3.24628 3.14406
# Velocity P-wave (km/s) = 6.25913 6.40251 6.33122
#
# Compressibility (1/GPa) = 0.02328393
#
# Stress axis : x y z
#
# Youngs Moduli (GPa) = 43.48774 43.48774 65.31704
#
# Poissons Ratio (x) = 0.53655 0.21783
# Poissons Ratio (y) = 0.53655 0.21783
# Poissons Ratio (z) = 0.14503 0.14503
#
# Static dielectric constant tensor:
#      x y z
#    x 1.543650 0.000000 0.000000 
#    y 0.000000 1.543650 0.000000 
#    z 0.000000 0.000000 1.581070 
# 
# From -- ./inp_files/690.got.cif
#   From: 2010.05.17/outbox.cif.g08.bks.cpg/sg164_1_cif.got.tgz:690.got - 2010.05.20 10:58:56.
