data_PCOD9578045
_publ_section_title
;
Structure prediction by ZEFSAII (Michael W. Deem and Ramdas Pophale) SiO2 
 PCOD9578045
Probable space group: P -3 1 C
;
_chemical_formula_sum "Si O2"
_cell_formula_units_Z 84
_cell_length_a 18.297492
_cell_length_b 18.297492
_cell_length_c 12.571275
_cell_angle_alpha 90.000000
_cell_angle_beta 90.000000
_cell_angle_gamma 120.000000
_cell_volume 3644.962717
_symmetry_space_group_name_H-M "P -3 1 C"
_symmetry_group_IT_number 163
_symmetry_cell_setting 'hexagonal'
loop_
_space_group_symop_operation_xyz
x,y,z
-y,x-y,z
-x+y,-x,z
-y,-x,1/2-z
-x+y,y,1/2-z
x,x-y,1/2-z
-x,-y,-z
y,-x+y,-z
x-y,x,-z
y,x,1/2+z
x-y,-y,1/2+z
-x,-x+y,1/2+z
loop_
_atom_site_type_symbol
_atom_site_label
_atom_site_fract_x
_atom_site_fract_y
_atom_site_fract_z
Si Si1 0.432700 0.599275 0.133218
Si Si2 0.813601 0.797722 0.243653
Si Si3 0.987760 0.431109 0.086914
Si Si4 0.747789 0.218744 0.623691
Si Si5 0.101859 0.757357 0.891962
Si Si6 0.145212 0.572606 0.750000
Si Si7 0.124750 0.855569 0.086125
Si Si8 0.761323 0.238678 0.250000
O O1 0.398322 0.601679 0.250000
O O2 0.518304 0.595563 0.147085
O O3 0.466567 0.688332 0.075819
O O4 0.350876 0.514727 0.090702
O O5 0.913789 0.827578 0.250000
O O6 0.762898 0.698853 0.220915
O O7 0.778737 0.832239 0.145859
O O8 0.777411 0.813746 0.351468
O O9 0.961368 0.334842 0.058340
O O10 0.914613 0.423545 0.161515
O O11 0.000000 0.500000 0.000000
O O12 0.764117 0.235884 0.750000
O O13 0.804261 0.175548 0.601176
O O14 0.188595 0.765332 0.854024
O O15 0.110092 0.836211 0.960437
O O16 0.201273 0.666679 0.711447
#
# Coordination Sequence:
#
# PCOD9578045 Si02
#       8
#    12  12  12  12  12   6  12   6
#     4  10  20  34  59  92 135 175 224 271 338 409
#     4  11  25  47  70 103 134 177 235 298 384 465
#     4  11  23  39  61  99 133 183 238 288 351 416
#     4  10  19  36  60  96 134 186 224 282 346 430
#     4  11  25  42  72 102 139 185 237 305 363 451
#     4  10  23  42  66  92 140 182 238 302 346 425
#     4  11  25  46  73 100 141 182 238 306 387 451
#     4  10  23  44  68 102 140 194 252 294 366 425
#
# _framework density 23.045504000000001
#
# number of rings (size 3 to 8) (size 9 to 14) (size 15 to 20)
#    0.000    1.429    2.857    2.143    4.000    5.714 
#    3.429    0.000    0.000    6.857    0.000    0.000 
#    0.000    0.000    0.000    0.000    0.000    0.000 
#
# Total GULP energy -467814.369875 kJ/mol
# GULP energy per Si atom -5569.218689 kJ/mol
# Density = 2.299305 g / cm^3
# Si number density = 23.045504 Si / 1000 Ang^3
#
#
#
# Elastic Constant Matrix: (Units=GPa)
#
#
# Indices 1 2 3 4 5 6 
#
# 1 131.5970 63.7570 15.2625 0.0000 4.5313 0.0000
# 2 63.7570 131.5970 15.2625 0.0000 -4.5313 0.0000
# 3 15.2625 15.2625 42.2366 0.0000 0.0000 0.0000
# 4 0.0000 0.0000 0.0000 19.2103 0.0000 -4.5313
# 5 4.5313 -4.5313 0.0000 0.0000 19.2103 0.0000
# 6 0.0000 0.0000 0.0000 -4.5313 0.0000 33.9200
#
#
#
# Elastic Compliance Matrix: (Units=1/GPa)
#
#
# Indices 1 2 3 4 5 6 
#
# 1 0.010323 -0.004897 -0.001960 0.000000 -0.003590 0.000000
# 2 -0.004897 0.010323 -0.001960 0.000000 0.003590 0.000000
# 3 -0.001960 -0.001960 0.025093 0.000000 0.000000 0.000000
# 4 0.000000 0.000000 0.000000 0.053749 0.000000 0.007180
# 5 -0.003590 0.003590 0.000000 0.000000 0.053749 0.000000
# 6 0.000000 0.000000 0.000000 0.007180 0.000000 0.030440
#
#
# Mechanical properties :
#
#
# Convention : Reuss Voigt Hill
#
# Bulk Modulus (GPa) = 35.58506 54.88832 45.23669
# Shear Modulus (GPa) = 23.73257 28.54469 26.13863
#
# Velocity S-wave (km/s) = 3.21255 3.52323 3.37147
# Velocity P-wave (km/s) = 5.40698 6.35766 5.90150
#
# Compressibility (1/GPa) = 0.02810168
#
# Stress axis : x y z
#
# Youngs Moduli (GPa) = 96.87385 96.87385 39.85171
#
# Poissons Ratio (x) = 0.47444 0.07813
# Poissons Ratio (y) = 0.47444 0.07813
# Poissons Ratio (z) = 0.18992 0.18992
#
# Static dielectric constant tensor:
#      x y z
#    x 1.997380 0.000000 0.000000 
#    y 0.000000 1.997380 0.000000 
#    z 0.000000 0.000000 1.939910 
# 
# From -- ./inp_files/2701.got.cif
#   From: 2010.05.17/outbox.cif.g08.bks.cpg/sg163_2_cif.got.tgz:2701.got - 2010.05.20 10:56:03.
