data_PCOD9578330
_publ_section_title
;
Structure prediction by ZEFSAII (Michael W. Deem and Ramdas Pophale) SiO2 
 PCOD9578330
Probable space group: P -3 M 1
;
_chemical_formula_sum "Si O2"
_cell_formula_units_Z 96
_cell_length_a 17.894462
_cell_length_b 17.894462
_cell_length_c 23.171774
_cell_angle_alpha 90.000000
_cell_angle_beta 90.000000
_cell_angle_gamma 120.000000
_cell_volume 6425.800046
_symmetry_space_group_name_H-M "P -3 M 1"
_symmetry_group_IT_number 164
_symmetry_cell_setting 'hexagonal'
loop_
_space_group_symop_operation_xyz
x,y,z
-y,x-y,z
-x+y,-x,z
x-y,-y,-z
-x,-x+y,-z
y,x,-z
-x,-y,-z
y,-x+y,-z
x-y,x,-z
-x+y,y,z
x,x-y,z
-y,-x,z
loop_
_atom_site_type_symbol
_atom_site_label
_atom_site_fract_x
_atom_site_fract_y
_atom_site_fract_z
Si Si1 0.844322 0.332184 0.650211
Si Si2 0.269975 0.371594 0.236311
Si Si3 0.844322 0.332184 0.349789
Si Si4 0.833250 0.330543 0.000000
Si Si5 0.409507 1.000000 0.434286
Si Si6 0.730026 0.628407 0.236311
Si Si7 0.896811 0.533752 0.122278
Si Si8 0.636941 0.103189 0.877722
O O1 0.838604 0.419302 0.653279
O O2 0.751004 0.248997 0.639013
O O3 0.879251 0.316054 0.710411
O O4 0.914306 0.345973 0.601362
O O5 0.168026 0.336051 0.242059
O O6 0.301665 0.301665 0.235749
O O7 0.302672 0.426819 0.177397
O O8 0.838604 0.419302 0.346720
O O9 0.751004 0.248997 0.360987
O O10 0.879250 0.316052 0.289589
O O11 0.914306 0.345973 0.398638
O O12 0.861364 0.430682 0.000000
O O13 0.730969 0.269032 1.000000
O O14 0.866782 0.316074 0.060669
O O15 0.866783 0.316075 0.939332
O O16 0.500000 1.000000 0.436212
O O17 0.381786 0.000000 0.500000
O O18 0.831976 0.663951 0.242058
O O19 0.697329 0.573181 0.177397
O O20 0.862552 0.431276 0.128755
O O21 1.000000 0.580555 0.120281
O O22 0.568724 0.137448 0.871246
#
# Coordination Sequence:
#
# PCOD9578330 Si02
#       8
#    12  12  12  12  12  12  12  12
#     4  10  19  31  48  70  96 125 158 194 231 271
#     4  10  19  31  48  69  91 117 149 188 231 276
#     4  10  19  31  48  70  96 125 158 194 231 271
#     4  10  18  27  37  53  80 115 151 185 219 258
#     4   9  18  32  48  66  92 125 156 188 228 271
#     4  10  19  31  48  69  91 117 149 188 231 276
#     4   9  17  28  43  61  83 113 149 186 226 270
#     4   9  17  28  43  61  83 113 149 186 226 270
#
# _framework density 14.939774
#
# number of rings (size 3 to 8) (size 9 to 14) (size 15 to 20)
#    0.000    2.375    1.250    2.250    0.000    3.000 
#    0.000    0.000    0.000    9.750    0.000    0.000 
#    0.000    0.000    0.000    0.000    0.000   37.375 
#
# Total GULP energy -534577.451176 kJ/mol
# GULP energy per Si atom -5568.515116 kJ/mol
# Density = 1.490577 g / cm^3
# Si number density = 14.939774 Si / 1000 Ang^3
#
#
#
# Elastic Constant Matrix: (Units=GPa)
#
#
# Indices 1 2 3 4 5 6 
#
# 1 75.6724 46.3124 45.4646 0.0000 0.0000 0.0000
# 2 46.3124 75.6724 45.4646 0.0000 0.0000 0.0000
# 3 45.4646 45.4646 140.0078 0.0000 0.0000 0.0000
# 4 0.0000 0.0000 0.0000 7.8621 0.0000 0.0000
# 5 0.0000 0.0000 0.0000 0.0000 7.8621 0.0000
# 6 0.0000 0.0000 0.0000 0.0000 0.0000 14.6800
#
#
#
# Elastic Compliance Matrix: (Units=1/GPa)
#
#
# Indices 1 2 3 4 5 6 
#
# 1 0.022438 -0.011622 -0.003512 0.000000 0.000000 0.000000
# 2 -0.011622 0.022438 -0.003512 0.000000 0.000000 0.000000
# 3 -0.003512 -0.003512 0.009423 0.000000 0.000000 0.000000
# 4 0.000000 0.000000 0.000000 0.127192 0.000000 0.000000
# 5 0.000000 0.000000 0.000000 0.000000 0.127192 0.000000
# 6 0.000000 0.000000 0.000000 0.000000 0.000000 0.068120
#
#
# Mechanical properties :
#
#
# Convention : Reuss Voigt Hill
#
# Bulk Modulus (GPa) = 58.80190 62.87067 60.83629
# Shear Modulus (GPa) = 11.91144 16.35491 14.13317
#
# Velocity S-wave (km/s) = 2.82671 3.31225 3.07906
# Velocity P-wave (km/s) = 7.07803 7.53672 7.31097
#
# Compressibility (1/GPa) = 0.01700625
#
# Stress axis : x y z
#
# Youngs Moduli (GPa) = 44.56746 44.56746 106.11781
#
# Poissons Ratio (x) = 0.51797 0.37271
# Poissons Ratio (y) = 0.51797 0.37271
# Poissons Ratio (z) = 0.15653 0.15653
#
# Static dielectric constant tensor:
#      x y z
#    x 1.483250 0.000000 0.000000 
#    y 0.000000 1.483250 0.000000 
#    z 0.000000 0.000000 1.513710 
# 
# From -- ./inp_files/4754.got.cif
#   From: 2010.05.17/outbox.cif.g08.bks.cpg/sg164_3_cif.got.tgz:4754.got - 2010.05.20 10:58:56.
