data_PCOD9578236
_publ_section_title
;
Structure prediction by ZEFSAII (Michael W. Deem and Ramdas Pophale) SiO2 
 PCOD9578236
Probable space group: P -3 1 C
;
_chemical_formula_sum "Si O2"
_cell_formula_units_Z 72
_cell_length_a 14.928348
_cell_length_b 14.928348
_cell_length_c 18.484623
_cell_angle_alpha 90.000000
_cell_angle_beta 90.000000
_cell_angle_gamma 120.000000
_cell_volume 3567.506147
_symmetry_space_group_name_H-M "P -3 1 C"
_symmetry_group_IT_number 163
_symmetry_cell_setting 'hexagonal'
loop_
_space_group_symop_operation_xyz
x,y,z
-y,x-y,z
-x+y,-x,z
-y,-x,1/2-z
-x+y,y,1/2-z
x,x-y,1/2-z
-x,-y,-z
y,-x+y,-z
x-y,x,-z
y,x,1/2+z
x-y,-y,1/2+z
-x,-x+y,1/2+z
loop_
_atom_site_type_symbol
_atom_site_label
_atom_site_fract_x
_atom_site_fract_y
_atom_site_fract_z
Si Si1 0.569698 0.532596 0.819494
Si Si2 0.691196 0.806325 0.322619
Si Si3 0.509261 0.634383 0.947494
Si Si4 0.704698 0.565188 0.062562
Si Si5 0.658278 0.078392 0.888820
Si Si6 0.059329 0.832862 0.027393
O O1 0.494869 0.505132 0.750000
O O2 0.689325 0.606309 0.801078
O O3 0.550349 0.588159 0.886746
O O4 0.529397 0.417468 0.850700
O O5 0.741762 0.870881 0.250000
O O6 0.630093 0.857578 0.359557
O O7 0.766732 0.811484 0.386511
O O8 0.393005 0.542430 0.963066
O O9 0.530690 0.743664 0.916590
O O10 0.563338 0.655180 0.025158
O O11 0.657254 0.611662 0.120589
O O12 0.760994 0.658425 0.005057
O O13 0.951268 0.806319 0.990373
#
# Coordination Sequence:
#
# PCOD9578236 Si02
#       6
#    12  12  12  12  12  12
#     4  11  23  41  60  94 133 176 217 275 354 430
#     4  12  23  41  66  98 135 179 227 294 364 424
#     4  11  23  37  67  94 131 179 230 282 351 419
#     4  11  20  40  64  98 131 172 236 293 334 423
#     4  11  22  39  61  91 136 172 224 281 348 418
#     4  12  24  44  72 101 134 184 245 301 362 426
#
# _framework density 20.182165000000001
#
# number of rings (size 3 to 8) (size 9 to 14) (size 15 to 20)
#    0.000    0.667    5.000    5.500    0.000    0.000 
#    1.000    5.000    0.000    0.000    0.000    0.000 
#    0.000    0.000    0.000    0.000    0.000    0.000 
#
# Total GULP energy -401627.027946 kJ/mol
# GULP energy per Si atom -5578.153166 kJ/mol
# Density = 2.013623 g / cm^3
# Si number density = 20.182165 Si / 1000 Ang^3
#
#
#
# Elastic Constant Matrix: (Units=GPa)
#
#
# Indices 1 2 3 4 5 6 
#
# 1 65.5195 12.2752 -2.1696 0.0001 -3.7424 0.0000
# 2 12.2752 65.5195 -2.1696 -0.0001 3.7424 0.0000
# 3 -2.1696 -2.1696 93.9563 0.0000 0.0000 0.0000
# 4 0.0001 -0.0001 0.0000 19.4213 0.0000 3.7424
# 5 -3.7424 3.7424 0.0000 0.0000 19.4213 0.0001
# 6 0.0000 0.0000 0.0000 3.7424 0.0001 26.6221
#
#
#
# Elastic Compliance Matrix: (Units=1/GPa)
#
#
# Indices 1 2 3 4 5 6 
#
# 1 0.016088 -0.003217 0.000297 0.000000 0.003720 0.000000
# 2 -0.003217 0.016088 0.000297 0.000000 -0.003720 0.000000
# 3 0.000297 0.000297 0.010657 0.000000 0.000000 0.000000
# 4 0.000000 0.000000 0.000000 0.052923 0.000000 -0.007440
# 5 0.003720 -0.003720 0.000000 0.000000 0.052923 0.000000
# 6 0.000000 0.000000 0.000000 -0.007440 0.000000 0.038609
#
#
# Mechanical properties :
#
#
# Convention : Reuss Voigt Hill
#
# Bulk Modulus (GPa) = 26.60447 26.76303 26.68375
# Shear Modulus (GPa) = 24.38297 27.56359 25.97328
#
# Velocity S-wave (km/s) = 3.47961 3.69960 3.59129
# Velocity P-wave (km/s) = 5.41797 5.61595 5.51785
#
# Compressibility (1/GPa) = 0.03758767
#
# Stress axis : x y z
#
# Youngs Moduli (GPa) = 62.15965 62.15965 93.83533
#
# Poissons Ratio (x) = 0.19995 -0.02789
# Poissons Ratio (y) = 0.19995 -0.02789
# Poissons Ratio (z) = -0.01847 -0.01847
#
# Static dielectric constant tensor:
#      x y z
#    x 1.751550 0.000000 0.000000 
#    y 0.000000 1.751550 0.000000 
#    z 0.000000 0.000000 1.762760 
# 
# From -- ./inp_files/3128.got.cif
#   From: 2010.05.17/outbox.cif.g08.bks.cpg/sg163_2_cif.got.tgz:3128.got - 2010.05.20 10:56:03.
