data_PCOD9578342
_publ_section_title
;
Structure prediction by ZEFSAII (Michael W. Deem and Ramdas Pophale) SiO2 
 PCOD9578342
Probable space group: P -3 M 1
;
_chemical_formula_sum "Si O2"
_cell_formula_units_Z 72
_cell_length_a 24.700781
_cell_length_b 24.700781
_cell_length_c 7.358348
_cell_angle_alpha 90.000000
_cell_angle_beta 90.000000
_cell_angle_gamma 120.000000
_cell_volume 3888.054333
_symmetry_space_group_name_H-M "P -3 M 1"
_symmetry_group_IT_number 164
_symmetry_cell_setting 'hexagonal'
loop_
_space_group_symop_operation_xyz
x,y,z
-y,x-y,z
-x+y,-x,z
x-y,-y,-z
-x,-x+y,-z
y,x,-z
-x,-y,-z
y,-x+y,-z
x-y,x,-z
-x+y,y,z
x,x-y,z
-y,-x,z
loop_
_atom_site_type_symbol
_atom_site_label
_atom_site_fract_x
_atom_site_fract_y
_atom_site_fract_z
Si Si1 0.854406 0.708811 0.217561
Si Si2 0.071455 0.928546 0.282853
Si Si3 0.291189 0.145595 0.782448
Si Si4 0.857091 0.928546 0.717147
Si Si5 0.927346 0.639688 0.221914
Si Si6 0.925462 0.520999 0.219408
Si Si7 0.287658 0.927345 0.221909
Si Si8 0.595538 0.520998 0.780598
O O1 0.891439 0.782878 0.251111
O O2 0.890532 0.673871 0.285326
O O3 0.850950 0.701900 0.000004
O O4 0.108561 0.891439 0.251107
O O5 0.067469 0.932532 0.500000
O O6 0.000000 0.890509 0.213829
O O7 0.326129 0.109468 0.714682
O O8 0.901950 0.568009 0.281330
O O9 0.000001 0.680355 0.274473
O O10 0.926293 0.639040 0.000003
O O11 0.900621 0.450311 0.285432
O O12 0.000001 0.558653 0.257293
O O13 0.919363 0.517441 0.000003
O O14 0.333939 0.901948 0.281322
O O15 0.549692 0.450309 0.714576
#
# Coordination Sequence:
#
# PCOD9578342 Si02
#       8
#     6   6   6   6  12  12  12  12
#     4  10  18  27  41  61  84 104 122 154 208 264
#     4  10  21  36  50  60  72  96 134 176 212 248
#     4  10  18  27  41  61  84 104 122 154 208 264
#     4  10  21  36  50  60  72  96 134 176 212 248
#     4   8  13  20  30  47  72  98 121 148 185 229
#     4   7   9  14  25  41  63  91 119 143 167 198
#     4   8  13  20  30  47  72  98 121 148 185 229
#     4   7   9  14  25  41  63  91 119 143 167 198
#
# _framework density 18.518260000000001
#
# number of rings (size 3 to 8) (size 9 to 14) (size 15 to 20)
#    0.000    3.667    0.000    4.167    0.000    2.667 
#    0.000    0.000    0.000    1.000    0.000    0.000 
#    1.667    1.333    5.000   12.333    0.000   10.000 
#
# Total GULP energy -400820.119242 kJ/mol
# GULP energy per Si atom -5566.946101 kJ/mol
# Density = 1.847611 g / cm^3
# Si number density = 18.518260 Si / 1000 Ang^3
#
#
#
# Elastic Constant Matrix: (Units=GPa)
#
#
# Indices 1 2 3 4 5 6 
#
# 1 160.1683 104.8412 4.2243 -0.0004 0.0000 0.0000
# 2 104.8412 160.1683 4.2243 0.0004 0.0000 0.0000
# 3 4.2243 4.2243 65.8288 0.0000 0.0000 0.0000
# 4 -0.0004 0.0004 0.0000 -4.9075 0.0000 0.0000
# 5 0.0000 0.0000 0.0000 0.0000 -4.9075 -0.0004
# 6 0.0000 0.0000 0.0000 0.0000 -0.0004 27.6635
#
#
#
# Elastic Compliance Matrix: (Units=1/GPa)
#
#
# Indices 1 2 3 4 5 6 
#
# 1 0.010928 -0.007147 -0.000243 -0.000001 0.000000 0.000000
# 2 -0.007147 0.010928 -0.000243 0.000001 0.000000 0.000000
# 3 -0.000243 -0.000243 0.015222 0.000000 0.000000 0.000000
# 4 -0.000001 0.000001 0.000000 -0.203771 0.000000 0.000000
# 5 0.000000 0.000000 0.000000 0.000000 -0.203771 -0.000003
# 6 0.000000 0.000000 0.000000 0.000000 -0.000003 0.036149
#
#
# Mechanical properties :
#
#
# Convention : Reuss Voigt Hill
#
# Bulk Modulus (GPa) = 45.84241 68.08277 56.96259
# Shear Modulus (GPa) = -16.03693 21.76142 2.86224
#
# Velocity S-wave (km/s) = -2.94599 3.43174 1.24458
# Velocity P-wave (km/s) = 3.63829 7.24896 5.73518
#
# Compressibility (1/GPa) = 0.02181386
#
# Stress axis : x y z
#
# Youngs Moduli (GPa) = 91.51003 91.51003 65.69414
#
# Poissons Ratio (x) = 0.65398 0.01594
# Poissons Ratio (y) = 0.65398 0.01594
# Poissons Ratio (z) = 0.02220 0.02220
#
# Static dielectric constant tensor:
#      x y z
#    x 1.646440 0.000000 0.000000 
#    y 0.000000 1.646440 0.000000 
#    z 0.000000 0.000000 1.714710 
# 
# From -- ./inp_files/3028.got.cif
#   From: 2010.05.17/outbox.cif.g08.bks.cpg/sg164_2_cif.got.tgz:3028.got - 2010.05.20 10:58:56.
