data_PCOD9578392
_publ_section_title
;
Structure prediction by ZEFSAII (Michael W. Deem and Ramdas Pophale) SiO2 
 PCOD9578392
Probable space group: P -3 M 1
;
_chemical_formula_sum "Si O2"
_cell_formula_units_Z 66
_cell_length_a 17.899609
_cell_length_b 17.899609
_cell_length_c 13.320548
_cell_angle_alpha 90.000000
_cell_angle_beta 90.000000
_cell_angle_gamma 120.000000
_cell_volume 3696.066804
_symmetry_space_group_name_H-M "P -3 M 1"
_symmetry_group_IT_number 164
_symmetry_cell_setting 'hexagonal'
loop_
_space_group_symop_operation_xyz
x,y,z
-y,x-y,z
-x+y,-x,z
x-y,-y,-z
-x,-x+y,-z
y,x,-z
-x,-y,-z
y,-x+y,-z
x-y,x,-z
-x+y,y,z
x,x-y,z
-y,-x,z
loop_
_atom_site_type_symbol
_atom_site_label
_atom_site_fract_x
_atom_site_fract_y
_atom_site_fract_z
Si Si1 0.487394 0.153584 0.394840
Si Si2 0.467977 0.103277 0.008924
Si Si3 0.269858 0.371596 0.797437
Si Si4 0.674803 0.000000 0.500000
Si Si5 0.667595 0.500879 0.783592
Si Si6 0.241683 0.930262 0.294818
O O1 0.580257 0.160514 0.403230
O O2 0.493754 0.246877 0.408319
O O3 0.443930 0.116797 0.285523
O O4 0.416945 0.082151 0.469552
O O5 0.566920 0.133840 0.037586
O O6 0.416984 0.120234 0.095044
O O7 0.470615 0.141767 0.899568
O O8 0.419293 0.000000 0.000000
O O9 0.172343 0.344686 0.774380
O O10 0.280962 0.288604 0.784772
O O11 0.711051 0.973237 0.404364
O O12 0.731711 0.463422 0.772705
O O13 0.570271 0.429729 0.760739
O O14 0.704078 0.584864 0.715686
O O15 0.142256 0.857745 0.279131
#
# Coordination Sequence:
#
# PCOD9578392 Si02
#       6
#    12  12  12   6  12  12
#     4  10  20  33  50  73 102 135 172 214 260 306
#     4  10  18  30  50  77 109 145 180 213 246 287
#     4  10  20  34  53  78 105 135 173 214 256 307
#     4  10  21  36  54  74  97 132 176 220 259 314
#     4  10  20  33  51  76 109 146 183 218 254 297
#     4  10  21  37  56  77 102 132 169 215 269 321
#
# _framework density 17.856821
#
# number of rings (size 3 to 8) (size 9 to 14) (size 15 to 20)
#    0.000    2.000    1.818    2.273    0.000    4.364 
#    0.000    0.000    0.000    8.364    0.000    0.636 
#    0.000    0.727    0.000    0.000    0.000    0.000 
#
# Total GULP energy -368042.623031 kJ/mol
# GULP energy per Si atom -5576.403379 kJ/mol
# Density = 1.781618 g / cm^3
# Si number density = 17.856821 Si / 1000 Ang^3
#
#
#
# Elastic Constant Matrix: (Units=GPa)
#
#
# Indices 1 2 3 4 5 6 
#
# 1 66.8423 31.2417 3.7928 2.2488 0.0000 0.0000
# 2 31.2417 66.8423 3.7928 -2.2488 0.0000 0.0000
# 3 3.7928 3.7928 39.4809 0.0000 0.0000 0.0000
# 4 2.2488 -2.2488 0.0000 -14.6600 0.0000 0.0000
# 5 0.0000 0.0000 0.0000 0.0000 -14.6600 2.2488
# 6 0.0000 0.0000 0.0000 0.0000 2.2488 17.8003
#
#
#
# Elastic Compliance Matrix: (Units=1/GPa)
#
#
# Indices 1 2 3 4 5 6 
#
# 1 0.018914 -0.008642 -0.000987 0.004227 0.000000 0.000000
# 2 -0.008642 0.018914 -0.000987 -0.004227 0.000000 0.000000
# 3 -0.000987 -0.000987 0.025518 0.000000 0.000000 0.000000
# 4 0.004227 -0.004227 0.000000 -0.066916 0.000000 0.000000
# 5 0.000000 0.000000 0.000000 0.000000 -0.066916 0.008454
# 6 0.000000 0.000000 0.000000 0.000000 0.008454 0.055111
#
#
# Mechanical properties :
#
#
# Convention : Reuss Voigt Hill
#
# Bulk Modulus (GPa) = 23.74477 27.86890 25.80684
# Shear Modulus (GPa) = 251.34541 6.65194 128.99867
#
# Velocity S-wave (km/s) = 11.87693 1.93216 8.50867
# Velocity P-wave (km/s) = 14.19184 4.54075 10.53629
#
# Compressibility (1/GPa) = 0.04211453
#
# Stress axis : x y z
#
# Youngs Moduli (GPa) = 52.87215 52.87215 39.18758
#
# Poissons Ratio (x) = 0.45692 0.03867
# Poissons Ratio (y) = 0.45692 0.03867
# Poissons Ratio (z) = 0.05217 0.05217
#
# Static dielectric constant tensor:
#      x y z
#    x 1.604910 0.000000 0.000000 
#    y 0.000000 1.604910 0.000000 
#    z 0.000000 0.000000 1.632560 
# 
# From -- ./inp_files/3457.got.cif
#   From: 2010.05.17/outbox.cif.g08.bks.cpg/sg164_2_cif.got.tgz:3457.got - 2010.05.20 10:58:56.
