data_PCOD9578134
_publ_section_title
;
Structure prediction by ZEFSAII (Michael W. Deem and Ramdas Pophale) SiO2 
 PCOD9578134
Probable space group: P -3 1 C
;
_chemical_formula_sum "Si O2"
_cell_formula_units_Z 64
_cell_length_a 15.290316
_cell_length_b 15.290316
_cell_length_c 16.851766
_cell_angle_alpha 90.000000
_cell_angle_beta 90.000000
_cell_angle_gamma 120.000000
_cell_volume 3411.999615
_symmetry_space_group_name_H-M "P -3 1 C"
_symmetry_group_IT_number 163
_symmetry_cell_setting 'hexagonal'
loop_
_space_group_symop_operation_xyz
x,y,z
-y,x-y,z
-x+y,-x,z
-y,-x,1/2-z
-x+y,y,1/2-z
x,x-y,1/2-z
-x,-y,-z
y,-x+y,-z
x-y,x,-z
y,x,1/2+z
x-y,-y,1/2+z
-x,-x+y,1/2+z
loop_
_atom_site_type_symbol
_atom_site_label
_atom_site_fract_x
_atom_site_fract_y
_atom_site_fract_z
Si Si1 0.946822 0.260100 0.262939
Si Si2 0.000000 0.000000 0.402821
Si Si3 0.077765 0.853396 0.122482
Si Si4 0.137996 0.473801 0.900655
Si Si5 0.270687 0.968388 0.017427
Si Si6 0.327617 0.451813 0.888377
O O1 0.855660 0.144341 0.250000
O O2 0.922496 0.315331 0.333004
O O3 0.936038 0.316238 0.186075
O O4 0.044265 0.258400 0.297714
O O5 0.058288 0.112405 0.370467
O O6 0.000000 0.000000 0.500000
O O7 0.190517 0.906106 0.086435
O O8 0.000477 0.781206 0.052522
O O9 0.251096 0.495558 0.884748
O O10 0.115137 0.564382 0.896954
O O11 0.101207 0.413297 0.982493
O O12 0.368918 0.073030 0.042620
#
# Coordination Sequence:
#
# PCOD9578134 Si02
#       6
#    12   4  12  12  12  12
#     4   9  22  37  56  83 119 156 198 245 296 364
#     4  12  21  30  61  83 118 171 199 239 280 360
#     4  11  21  37  55  87 124 163 205 234 299 366
#     4  10  21  37  59  86 111 153 198 255 309 365
#     4  11  20  36  59  84 121 156 199 247 301 366
#     4  11  21  38  59  85 116 151 202 259 313 361
#
# _framework density 18.75733
#
# number of rings (size 3 to 8) (size 9 to 14) (size 15 to 20)
#    0.000    1.500    3.750    1.500    5.250    0.750 
#    0.000    1.875    0.000    0.000    0.000    0.000 
#    0.000    0.000    0.000    0.000    0.000    0.000 
#
# Total GULP energy -356673.076911 kJ/mol
# GULP energy per Si atom -5573.016827 kJ/mol
# Density = 1.871464 g / cm^3
# Si number density = 18.757330 Si / 1000 Ang^3
#
#
#
# Elastic Constant Matrix: (Units=GPa)
#
#
# Indices 1 2 3 4 5 6 
#
# 1 91.6110 30.8071 32.4122 -0.0002 -8.8146 0.0000
# 2 30.8071 91.6110 32.4122 0.0002 8.8146 0.0000
# 3 32.4122 32.4122 43.2430 0.0000 0.0000 0.0000
# 4 -0.0002 0.0002 0.0000 -9.9891 0.0000 8.8146
# 5 -8.8146 8.8146 0.0000 0.0000 -9.9891 -0.0002
# 6 0.0000 0.0000 0.0000 8.8146 -0.0002 30.4019
#
#
#
# Elastic Compliance Matrix: (Units=1/GPa)
#
#
# Indices 1 2 3 4 5 6 
#
# 1 0.013320 0.000224 -0.010152 0.000000 -0.011556 0.000000
# 2 0.000224 0.013320 -0.010152 0.000000 0.011556 0.000000
# 3 -0.010152 -0.010152 0.038344 0.000000 0.000000 0.000000
# 4 0.000000 0.000000 0.000000 -0.079714 0.000000 0.023112
# 5 -0.011556 0.011556 0.000000 0.000000 -0.079714 -0.000001
# 6 0.000000 0.000000 0.000000 0.023112 -0.000001 0.026192
#
#
# Mechanical properties :
#
#
# Convention : Reuss Voigt Hill
#
# Bulk Modulus (GPa) = 40.28280 46.41423 43.34852
# Shear Modulus (GPa) = -252.29822 10.80697 -120.74562
#
# Velocity S-wave (km/s) = -11.61027 2.40291 -8.03195
# Velocity P-wave (km/s) = 12.57811 5.70061 7.92818
#
# Compressibility (1/GPa) = 0.02482449
#
# Stress axis : x y z
#
# Youngs Moduli (GPa) = 75.07370 75.07370 26.07965
#
# Poissons Ratio (x) = -0.01685 0.26477
# Poissons Ratio (y) = -0.01685 0.26477
# Poissons Ratio (z) = 0.76217 0.76217
#
# Static dielectric constant tensor:
#      x y z
#    x 1.711730 0.000000 0.000000 
#    y 0.000000 1.711730 0.000000 
#    z 0.000000 0.000000 1.315240 
# 
# From -- ./inp_files/3078.got.cif
#   From: 2010.05.17/outbox.cif.g08.bks.cpg/sg163_2_cif.got.tgz:3078.got - 2010.05.20 10:56:03.
