data_PCOD9578241
_publ_section_title
;
Structure prediction by ZEFSAII (Michael W. Deem and Ramdas Pophale) SiO2 
 PCOD9578241
Probable space group: P -3 1 C
;
_chemical_formula_sum "Si O2"
_cell_formula_units_Z 48
_cell_length_a 19.065115
_cell_length_b 19.065115
_cell_length_c 8.567621
_cell_angle_alpha 90.000000
_cell_angle_beta 90.000000
_cell_angle_gamma 120.000000
_cell_volume 2696.930389
_symmetry_space_group_name_H-M "P -3 1 C"
_symmetry_group_IT_number 163
_symmetry_cell_setting 'hexagonal'
loop_
_space_group_symop_operation_xyz
x,y,z
-y,x-y,z
-x+y,-x,z
-y,-x,1/2-z
-x+y,y,1/2-z
x,x-y,1/2-z
-x,-y,-z
y,-x+y,-z
x-y,x,-z
y,x,1/2+z
x-y,-y,1/2+z
-x,-x+y,1/2+z
loop_
_atom_site_type_symbol
_atom_site_label
_atom_site_fract_x
_atom_site_fract_y
_atom_site_fract_z
Si Si1 0.488078 0.822119 0.687015
Si Si2 0.488077 0.665959 0.187016
Si Si3 0.911325 0.667429 0.686799
Si Si4 0.667428 0.911326 0.813200
O O1 0.420577 0.841154 0.750000
O O2 0.468439 0.734220 0.750000
O O3 0.488675 0.821432 0.500000
O O4 0.577480 0.884060 0.750023
O O5 0.420578 0.579423 0.250000
O O6 0.468437 0.734219 0.250000
O O7 0.577480 0.693422 0.250025
O O8 0.843304 0.686607 0.750000
O O9 0.909899 0.666036 0.499999
O O10 0.000000 0.728818 0.749999
O O11 0.686605 0.843303 0.750000
#
# Coordination Sequence:
#
# PCOD9578241 Si02
#       4
#    12  12  12  12
#     4  11  21  35  53  78 110 149 191 234 276 322
#     4  11  21  35  53  78 110 149 191 234 276 322
#     4  11  22  39  60  85 112 144 181 224 273 328
#     4  11  22  39  60  85 112 144 181 224 273 328
#
# _framework density 17.798010999999999
#
# number of rings (size 3 to 8) (size 9 to 14) (size 15 to 20)
#    0.000    1.000    0.000   12.500    0.000    1.000 
#    0.000    5.000    0.000    0.500    0.000    3.500 
#    0.000    0.000    0.000    0.000    0.000    0.000 
#
# Total GULP energy -268503.858267 kJ/mol
# GULP energy per Si atom -5593.830381 kJ/mol
# Density = 1.775750 g / cm^3
# Si number density = 17.798011 Si / 1000 Ang^3
#
#
#
# Elastic Constant Matrix: (Units=GPa)
#
#
# Indices 1 2 3 4 5 6 
#
# 1 115.0283 106.3364 70.8239 0.0005 0.0002 0.0000
# 2 106.3364 115.0283 70.8239 -0.0005 -0.0002 0.0000
# 3 70.8239 70.8239 240.9944 0.0000 0.0000 0.0000
# 4 0.0005 -0.0005 0.0000 32.2098 0.0000 -0.0002
# 5 0.0002 -0.0002 0.0000 0.0000 32.2098 0.0005
# 6 0.0000 0.0000 0.0000 -0.0002 0.0005 4.3460
#
#
#
# Elastic Compliance Matrix: (Units=1/GPa)
#
#
# Indices 1 2 3 4 5 6 
#
# 1 0.060307 -0.054743 -0.001635 -0.000002 -0.000001 0.000000
# 2 -0.054743 0.060307 -0.001635 0.000002 0.000001 0.000000
# 3 -0.001635 -0.001635 0.005111 0.000000 0.000000 0.000000
# 4 -0.000002 0.000002 0.000000 0.031046 0.000000 0.000001
# 5 -0.000001 0.000001 0.000000 0.000000 0.031046 -0.000003
# 6 0.000000 0.000000 0.000000 0.000001 -0.000003 0.230099
#
#
# Mechanical properties :
#
#
# Convention : Reuss Voigt Hill
#
# Bulk Modulus (GPa) = 103.11818 107.44661 105.28239
# Shear Modulus (GPa) = 9.30796 28.62424 18.96610
#
# Velocity S-wave (km/s) = 2.28935 4.01469 3.26794
# Velocity P-wave (km/s) = 8.06548 9.05491 8.57448
#
# Compressibility (1/GPa) = 0.00969761
#
# Stress axis : x y z
#
# Youngs Moduli (GPa) = 16.58192 16.58192 195.67527
#
# Poissons Ratio (x) = 0.90774 0.31994
# Poissons Ratio (y) = 0.90774 0.31994
# Poissons Ratio (z) = 0.02711 0.02711
#
# Static dielectric constant tensor:
#      x y z
#    x 1.592780 0.000000 0.000000 
#    y 0.000000 1.592780 0.000000 
#    z 0.000000 0.000000 1.587240 
# 
# From -- ./inp_files/904.got.cif
#   From: 2010.05.17/outbox.cif.g08.bks.cpg/sg163_1_cif.got.tgz:904.got - 2010.05.20 10:56:03.
