data_PCOD9578727
_publ_section_title
;
Structure prediction by ZEFSAII (Michael W. Deem and Ramdas Pophale) SiO2 
 PCOD9578727
Probable space group: P -3 M 1
;
_chemical_formula_sum "Si O2"
_cell_formula_units_Z 34
_cell_length_a 11.297646
_cell_length_b 11.297646
_cell_length_c 15.873634
_cell_angle_alpha 90.000000
_cell_angle_beta 90.000000
_cell_angle_gamma 120.000000
_cell_volume 1754.619369
_symmetry_space_group_name_H-M "P -3 M 1"
_symmetry_group_IT_number 164
_symmetry_cell_setting 'hexagonal'
loop_
_space_group_symop_operation_xyz
x,y,z
-y,x-y,z
-x+y,-x,z
x-y,-y,-z
-x,-x+y,-z
y,x,-z
-x,-y,-z
y,-x+y,-z
x-y,x,-z
-x+y,y,z
x,x-y,z
-y,-x,z
loop_
_atom_site_type_symbol
_atom_site_label
_atom_site_fract_x
_atom_site_fract_y
_atom_site_fract_z
Si Si1 0.716006 0.716006 0.000000
Si Si2 0.038195 0.519098 0.718921
Si Si3 0.278294 0.278410 0.597619
Si Si4 0.475266 0.524735 0.107095
Si Si5 0.666668 0.333334 0.192536
Si Si6 0.666666 0.333333 0.990201
O O1 0.633733 0.615334 0.078475
O O2 0.863875 0.727749 0.990398
O O3 0.180719 0.590360 0.769844
O O4 0.025905 0.627221 0.660457
O O5 0.927649 0.463825 0.793834
O O6 0.319644 0.319644 0.500000
O O7 0.287257 0.143629 0.614788
O O8 0.123155 0.246310 0.605352
O O9 0.407754 0.592247 0.050397
O O10 0.666667 0.333334 0.091052
#
# Coordination Sequence:
#
# PCOD9578727 Si02
#       6
#     6   6  12   6   2   2
#     4  11  23  42  64  92 121 165 214 280 328 383
#     4  12  25  41  66 100 132 172 219 270 324 393
#     4  10  22  43  69  99 134 172 214 265 326 392
#     4  11  26  41  68  91 129 166 227 261 337 384
#     4  12  24  42  72  91 128 178 225 273 321 396
#     4  12  24  51  66  91 128 178 228 276 330 393
#
# _framework density 19.377421999999999
#
# number of rings (size 3 to 8) (size 9 to 14) (size 15 to 20)
#    0.000    1.059    3.529    3.176    4.941    1.412 
#    2.118    0.000    0.000    4.235    0.000    0.000 
#    0.000    0.000    0.000    0.000    0.000    0.000 
#
# Total GULP energy -189890.864110 kJ/mol
# GULP energy per Si atom -5585.025415 kJ/mol
# Density = 1.933332 g / cm^3
# Si number density = 19.377422 Si / 1000 Ang^3
#
#
#
# Elastic Constant Matrix: (Units=GPa)
#
#
# Indices 1 2 3 4 5 6 
#
# 1 112.9531 53.1948 66.3596 -1.7709 0.0000 0.0000
# 2 53.1948 112.9530 66.3596 1.7709 0.0000 0.0000
# 3 66.3596 66.3596 143.0491 0.0000 0.0000 0.0000
# 4 -1.7709 1.7709 0.0000 27.7131 0.0000 0.0000
# 5 0.0000 0.0000 0.0000 0.0000 27.7132 -1.7710
# 6 0.0000 0.0000 0.0000 0.0000 -1.7710 29.8792
#
#
#
# Elastic Compliance Matrix: (Units=1/GPa)
#
#
# Indices 1 2 3 4 5 6 
#
# 1 0.013180 -0.003618 -0.004436 0.001073 0.000000 0.000000
# 2 -0.003618 0.013180 -0.004436 -0.001073 0.000000 0.000000
# 3 -0.004436 -0.004436 0.011106 0.000000 0.000000 0.000000
# 4 0.001073 -0.001073 0.000000 0.036221 0.000000 0.000000
# 5 0.000000 0.000000 0.000000 0.000000 0.036221 0.002147
# 6 0.000000 0.000000 0.000000 0.000000 0.002147 0.033595
#
#
# Mechanical properties :
#
#
# Convention : Reuss Voigt Hill
#
# Bulk Modulus (GPa) = 80.08293 82.30923 81.19608
# Shear Modulus (GPa) = 28.96124 29.26385 29.11254
#
# Velocity S-wave (km/s) = 3.87018 3.89035 3.88028
# Velocity P-wave (km/s) = 7.83510 7.92142 7.87838
#
# Compressibility (1/GPa) = 0.01248706
#
# Stress axis : x y z
#
# Youngs Moduli (GPa) = 75.87335 75.87323 90.04094
#
# Poissons Ratio (x) = 0.27450 0.39940
# Poissons Ratio (y) = 0.27450 0.39940
# Poissons Ratio (z) = 0.33656 0.33656
#
# Static dielectric constant tensor:
#      x y z
#    x 1.700240 0.000000 0.000000 
#    y 0.000000 1.700240 0.000000 
#    z 0.000000 0.000000 1.666960 
# 
# From -- ./inp_files/3219.got.cif
#   From: 2010.05.17/outbox.cif.g08.bks.cpg/sg164_2_cif.got.tgz:3219.got - 2010.05.20 10:58:56.
