data_PCOD9578941
_publ_section_title
;
Structure prediction by ZEFSAII (Michael W. Deem and Ramdas Pophale) SiO2 
 PCOD9578941
Probable space group: P -3 C 1
;
_chemical_formula_sum "Si O2"
_cell_formula_units_Z 66
_cell_length_a 19.846060
_cell_length_b 19.846060
_cell_length_c 8.990191
_cell_angle_alpha 90.000000
_cell_angle_beta 90.000000
_cell_angle_gamma 120.000000
_cell_volume 3066.536585
_symmetry_space_group_name_H-M "P -3 C 1"
_symmetry_group_IT_number 165
_symmetry_cell_setting 'hexagonal'
loop_
_space_group_symop_operation_xyz
x,y,z
-y,x-y,z
-x+y,-x,z
x-y,-y,1/2-z
-x,-x+y,1/2-z
y,x,1/2-z
-x,-y,-z
y,-x+y,-z
x-y,x,-z
-x+y,y,1/2+z
x,x-y,1/2+z
-y,-x,1/2+z
loop_
_atom_site_type_symbol
_atom_site_label
_atom_site_fract_x
_atom_site_fract_y
_atom_site_fract_z
Si Si1 0.696600 0.000000 0.750000
Si Si2 0.819938 0.576008 0.315023
Si Si3 0.413238 0.503507 0.284026
Si Si4 0.110925 0.150023 0.413787
Si Si5 0.116867 0.466096 0.114834
Si Si6 0.142566 0.828097 0.925822
O O1 0.623261 0.950863 0.640851
O O2 0.708113 0.934904 0.832249
O O3 0.858958 0.523125 0.313214
O O4 0.729990 0.531989 0.361565
O O5 0.864772 0.653222 0.416190
O O6 0.825357 0.611895 0.152858
O O7 0.445622 0.445622 0.250000
O O8 0.480764 0.588791 0.239133
O O9 0.389015 0.496313 0.455849
O O10 0.124068 0.124068 0.250000
O O11 0.129999 0.105738 0.542205
O O12 0.158207 0.242976 0.429951
#
# Coordination Sequence:
#
# PCOD9578941 Si02
#       6
#     6  12  12  12  12  12
#     4  10  24  44  74 100 142 180 240 294 364 424
#     4  11  25  46  69 107 150 183 240 296 365 433
#     4  12  25  43  76 110 145 190 240 296 360 432
#     4  12  28  47  71  99 137 189 247 308 374 439
#     4  11  25  44  71 108 144 192 233 295 357 430
#     4  11  25  45  72 100 140 188 237 305 362 436
#
# _framework density 21.522651
#
# number of rings (size 3 to 8) (size 9 to 14) (size 15 to 20)
#    0.000    0.727    2.727    3.455   12.727    2.182 
#    1.091    0.000    0.000    0.000    0.000    0.000 
#    0.000    0.000    0.000    0.000    0.000    0.000 
#
# Total GULP energy -369268.474969 kJ/mol
# GULP energy per Si atom -5594.976893 kJ/mol
# Density = 2.147366 g / cm^3
# Si number density = 21.522651 Si / 1000 Ang^3
#
#
#
# Elastic Constant Matrix: (Units=GPa)
#
#
# Indices 1 2 3 4 5 6 
#
# 1 93.8282 35.7943 18.5546 -1.4399 0.0000 0.0000
# 2 35.7943 93.8282 18.5546 1.4399 0.0000 0.0000
# 3 18.5546 18.5546 88.8154 0.0000 0.0000 0.0000
# 4 -1.4399 1.4399 0.0000 8.0337 0.0000 0.0000
# 5 0.0000 0.0000 0.0000 0.0000 8.0337 -1.4399
# 6 0.0000 0.0000 0.0000 0.0000 -1.4399 29.0170
#
#
#
# Elastic Compliance Matrix: (Units=1/GPa)
#
#
# Indices 1 2 3 4 5 6 
#
# 1 0.012796 -0.004590 -0.001714 0.003116 0.000000 0.000000
# 2 -0.004590 0.012796 -0.001714 -0.003116 0.000000 0.000000
# 3 -0.001714 -0.001714 0.011976 0.000000 0.000000 0.000000
# 4 0.003116 -0.003116 0.000000 0.125593 0.000000 0.000000
# 5 0.000000 0.000000 0.000000 0.000000 0.125593 0.006232
# 6 0.000000 0.000000 0.000000 0.000000 0.006232 0.034772
#
#
# Mechanical properties :
#
#
# Convention : Reuss Voigt Hill
#
# Bulk Modulus (GPa) = 46.44767 46.91987 46.68377
# Shear Modulus (GPa) = 14.42005 22.58807 18.50406
#
# Velocity S-wave (km/s) = 2.59123 3.24312 2.93533
# Velocity P-wave (km/s) = 5.52995 5.98927 5.76418
#
# Compressibility (1/GPa) = 0.02152961
#
# Stress axis : x y z
#
# Youngs Moduli (GPa) = 78.15127 78.15127 83.50345
#
# Poissons Ratio (x) = 0.35873 0.14314
# Poissons Ratio (y) = 0.35873 0.14314
# Poissons Ratio (z) = 0.13397 0.13397
#
# Static dielectric constant tensor:
#      x y z
#    x 1.779770 0.000000 0.000000 
#    y 0.000000 1.779770 0.000000 
#    z 0.000000 0.000000 1.850110 
# 
# From -- ./inp_files/715.got.cif
#   From: 2010.05.17/outbox.cif.g08.bks.cpg/sg165_1_cif.got.tgz:715.got - 2010.05.20 11:02:39.
