data_PCOD9578775
_publ_section_title
;
Structure prediction by ZEFSAII (Michael W. Deem and Ramdas Pophale) SiO2 
 PCOD9578775
Probable space group: P -3 C 1
;
_chemical_formula_sum "Si O2"
_cell_formula_units_Z 84
_cell_length_a 15.910048
_cell_length_b 15.910048
_cell_length_c 16.414076
_cell_angle_alpha 90.000000
_cell_angle_beta 90.000000
_cell_angle_gamma 120.000000
_cell_volume 3598.239373
_symmetry_space_group_name_H-M "P -3 C 1"
_symmetry_group_IT_number 165
_symmetry_cell_setting 'hexagonal'
loop_
_space_group_symop_operation_xyz
x,y,z
-y,x-y,z
-x+y,-x,z
x-y,-y,1/2-z
-x,-x+y,1/2-z
y,x,1/2-z
-x,-y,-z
y,-x+y,-z
x-y,x,-z
-x+y,y,1/2+z
x,x-y,1/2+z
-y,-x,1/2+z
loop_
_atom_site_type_symbol
_atom_site_label
_atom_site_fract_x
_atom_site_fract_y
_atom_site_fract_z
Si Si1 0.503472 0.784476 0.286180
Si Si2 0.185332 0.272009 0.934867
Si Si3 0.719341 0.841533 0.101422
Si Si4 0.491502 0.175357 0.887799
Si Si5 0.504888 0.825848 0.933024
Si Si6 0.026228 0.523340 0.338822
Si Si7 0.831126 0.104783 0.229025
O O1 0.460496 0.766240 0.195236
O O2 0.458750 0.703311 0.355506
O O3 0.515326 0.884924 0.319182
O O4 0.614740 0.810238 0.274141
O O5 0.273802 0.253141 0.918145
O O6 0.228535 0.387311 0.939886
O O7 0.111867 0.233829 0.858650
O O8 0.141597 0.231926 0.023400
O O9 0.612954 0.830017 0.107915
O O10 0.769435 0.876666 0.189219
O O11 0.475518 0.068023 0.871359
O O12 0.539414 0.206448 0.977009
O O13 0.514853 0.927462 0.905480
O O14 0.000000 0.470512 0.250000
O O15 0.738606 0.000000 0.250000
#
# Coordination Sequence:
#
# PCOD9578775 Si02
#       7
#    12  12  12  12  12  12  12
#     4   9  19  36  55  83 116 157 198 245 310 369
#     4  10  21  34  54  86 114 149 199 244 304 344
#     4  10  19  33  53  77 110 144 186 240 284 348
#     4   9  19  35  57  83 116 152 201 244 304 367
#     4  10  21  35  57  90 119 155 204 261 307 365
#     4  10  20  37  59  86 121 161 203 255 313 375
#     4  10  18  32  55  77 106 147 195 236 282 349
#
# _framework density 23.344752
#
# number of rings (size 3 to 8) (size 9 to 14) (size 15 to 20)
#    0.000    2.286    0.000    3.857    0.000    9.143 
#    0.857    2.857    0.000    8.571    0.000    0.000 
#    1.429    0.000    0.000    0.000    0.000    0.000 
#
# Total GULP energy -468092.687716 kJ/mol
# GULP energy per Si atom -5572.531997 kJ/mol
# Density = 2.329162 g / cm^3
# Si number density = 23.344752 Si / 1000 Ang^3
#
#
#
# Elastic Constant Matrix: (Units=GPa)
#
#
# Indices 1 2 3 4 5 6 
#
# 1 40.1247 24.8411 45.9617 -27.1037 0.0000 0.0000
# 2 24.8411 40.1247 45.9617 27.1037 0.0000 0.0000
# 3 45.9617 45.9617 245.6746 0.0000 0.0000 0.0000
# 4 -27.1037 27.1037 0.0000 -32.8556 0.0000 0.0000
# 5 0.0000 0.0000 0.0000 0.0000 -32.8556 -27.1037
# 6 0.0000 0.0000 0.0000 0.0000 -27.1037 7.6418
#
#
#
# Elastic Compliance Matrix: (Units=1/GPa)
#
#
# Indices 1 2 3 4 5 6 
#
# 1 0.018800 0.002134 -0.003916 -0.013749 0.000000 0.000000
# 2 0.002134 0.018800 -0.003916 0.013749 0.000000 0.000000
# 3 -0.003916 -0.003916 0.005536 0.000000 0.000000 0.000000
# 4 -0.013749 0.013749 0.000000 -0.007753 0.000000 0.000000
# 5 0.000000 0.000000 0.000000 0.000000 -0.007753 -0.027497
# 6 0.000000 0.000000 0.000000 0.000000 -0.027497 0.033333
#
#
# Mechanical properties :
#
#
# Convention : Reuss Voigt Hill
#
# Bulk Modulus (GPa) = 31.50736 62.16146 46.83441
# Shear Modulus (GPa) = 60.28363 2.33006 31.30684
#
# Velocity S-wave (km/s) = 5.08717 1.00014 3.66603
# Velocity P-wave (km/s) = 6.93048 5.29331 6.16647
#
# Compressibility (1/GPa) = 0.03173862
#
# Stress axis : x y z
#
# Youngs Moduli (GPa) = 53.19049 53.19049 180.64092
#
# Poissons Ratio (x) = -0.11351 0.70748
# Poissons Ratio (y) = -0.11351 0.70748
# Poissons Ratio (z) = 0.20832 0.20832
#
# Static dielectric constant tensor:
#      x y z
#    x 1.877820 0.000000 0.000000 
#    y 0.000000 1.877820 0.000000 
#    z 0.000000 0.000000 1.982350 
# 
# From -- ./inp_files/1870.got.cif
#   From: 2010.05.17/outbox.cif.g08.bks.cpg/sg165_1_cif.got.tgz:1870.got - 2010.05.20 11:02:39.
