data_PCOD9578659
_publ_section_title
;
Structure prediction by ZEFSAII (Michael W. Deem and Ramdas Pophale) SiO2 
 PCOD9578659
Probable space group: P -3 M 1
;
_chemical_formula_sum "Si O2"
_cell_formula_units_Z 60
_cell_length_a 12.654720
_cell_length_b 12.654720
_cell_length_c 26.130046
_cell_angle_alpha 90.000000
_cell_angle_beta 90.000000
_cell_angle_gamma 120.000000
_cell_volume 3623.897344
_symmetry_space_group_name_H-M "P -3 M 1"
_symmetry_group_IT_number 164
_symmetry_cell_setting 'hexagonal'
loop_
_space_group_symop_operation_xyz
x,y,z
-y,x-y,z
-x+y,-x,z
x-y,-y,-z
-x,-x+y,-z
y,x,-z
-x,-y,-z
y,-x+y,-z
x-y,x,-z
-x+y,y,z
x,x-y,z
-y,-x,z
loop_
_atom_site_type_symbol
_atom_site_label
_atom_site_fract_x
_atom_site_fract_y
_atom_site_fract_z
Si Si1 0.748761 0.000119 0.650148
Si Si2 0.333230 0.917971 0.249569
Si Si3 0.917936 0.584157 0.149585
Si Si4 0.918125 0.584410 0.949987
Si Si5 0.333319 0.415279 0.550053
O O1 0.881624 0.118377 0.643591
O O2 0.687610 0.023620 0.699529
O O3 0.758736 0.879368 0.657513
O O4 0.667563 0.979325 0.599857
O O5 0.451337 0.902673 0.255277
O O6 0.212587 0.787414 0.241381
O O7 0.357117 0.004782 0.200944
O O8 0.795451 0.590901 0.148541
O O9 0.887603 0.443802 0.148120
O O10 0.002272 0.649053 0.100480
O O11 0.795111 0.590221 0.950737
O O12 0.888145 0.444073 0.949644
O O13 0.000000 0.646130 0.000000
O O14 0.354391 0.354391 0.500000
O O15 0.214016 0.428032 0.543481
O O16 0.453091 0.546910 0.556868
#
# Coordination Sequence:
#
# PCOD9578659 Si02
#       5
#    12  12  12  12  12
#     4  10  20  34  52  74 101 133 168 205 246 294
#     4  10  20  34  53  76 102 132 166 206 250 296
#     4  10  20  34  53  76 102 132 166 206 250 296
#     4  10  20  34  54  78 104 134 168 208 252 298
#     4  10  20  34  52  74 100 130 165 205 250 298
#
# _framework density 16.556761000000002
#
# number of rings (size 3 to 8) (size 9 to 14) (size 15 to 20)
#    0.000    2.000    0.000    4.000    0.000    0.000 
#    0.000    4.000    0.000   24.800    0.000    0.000 
#    0.000    0.000    0.000    0.000    0.000    0.000 
#
# Total GULP energy -335024.236014 kJ/mol
# GULP energy per Si atom -5583.737267 kJ/mol
# Density = 1.651908 g / cm^3
# Si number density = 16.556761 Si / 1000 Ang^3
#
#
#
# Elastic Constant Matrix: (Units=GPa)
#
#
# Indices 1 2 3 4 5 6 
#
# 1 146.7873 108.1464 105.4050 -3.0117 0.0000 0.0000
# 2 108.1464 146.7873 105.4050 3.0117 0.0000 0.0000
# 3 105.4050 105.4050 159.9641 0.0000 0.0000 0.0000
# 4 -3.0117 3.0117 0.0000 20.6245 0.0000 0.0000
# 5 0.0000 0.0000 0.0000 0.0000 20.6245 -3.0117
# 6 0.0000 0.0000 0.0000 0.0000 -3.0117 19.3205
#
#
#
# Elastic Compliance Matrix: (Units=1/GPa)
#
#
# Indices 1 2 3 4 5 6 
#
# 1 0.017550 -0.008932 -0.005679 0.003867 0.000000 0.000000
# 2 -0.008932 0.017550 -0.005679 -0.003867 0.000000 0.000000
# 3 -0.005679 -0.005679 0.013736 0.000000 0.000000 0.000000
# 4 0.003867 -0.003867 0.000000 0.049615 0.000000 0.000000
# 5 0.000000 0.000000 0.000000 0.000000 0.049615 0.007734
# 6 0.000000 0.000000 0.000000 0.000000 0.007734 0.052964
#
#
# Mechanical properties :
#
#
# Convention : Reuss Voigt Hill
#
# Bulk Modulus (GPa) = 121.11447 121.27239 121.19343
# Shear Modulus (GPa) = 20.46127 21.08605 20.77366
#
# Velocity S-wave (km/s) = 3.51924 3.57257 3.54601
# Velocity P-wave (km/s) = 9.47752 9.50911 9.49333
#
# Compressibility (1/GPa) = 0.00825665
#
# Stress axis : x y z
#
# Youngs Moduli (GPa) = 56.97853 56.97853 72.80261
#
# Poissons Ratio (x) = 0.50891 0.41346
# Poissons Ratio (y) = 0.50891 0.41346
# Poissons Ratio (z) = 0.32359 0.32359
#
# Static dielectric constant tensor:
#      x y z
#    x 1.523400 0.000000 0.000000 
#    y 0.000000 1.523400 0.000000 
#    z 0.000000 0.000000 1.537480 
# 
# From -- ./inp_files/5175.got.cif
#   From: 2010.05.17/outbox.cif.g08.bks.cpg/sg164_3_cif.got.tgz:5175.got - 2010.05.20 10:58:56.
