data_PCOD9578064
_publ_section_title
;
Structure prediction by ZEFSAII (Michael W. Deem and Ramdas Pophale) SiO2 
 PCOD9578064
Probable space group: P -3 1 C
;
_chemical_formula_sum "Si O2"
_cell_formula_units_Z 40
_cell_length_a 9.555876
_cell_length_b 9.555876
_cell_length_c 28.750775
_cell_angle_alpha 90.000000
_cell_angle_beta 90.000000
_cell_angle_gamma 120.000000
_cell_volume 2273.637370
_symmetry_space_group_name_H-M "P -3 1 C"
_symmetry_group_IT_number 163
_symmetry_cell_setting 'hexagonal'
loop_
_space_group_symop_operation_xyz
x,y,z
-y,x-y,z
-x+y,-x,z
-y,-x,1/2-z
-x+y,y,1/2-z
x,x-y,1/2-z
-x,-y,-z
y,-x+y,-z
x-y,x,-z
y,x,1/2+z
x-y,-y,1/2+z
-x,-x+y,1/2+z
loop_
_atom_site_type_symbol
_atom_site_label
_atom_site_fract_x
_atom_site_fract_y
_atom_site_fract_z
Si Si1 0.666668 0.333334 0.069328
Si Si2 0.555176 0.022209 0.601604
Si Si3 0.809210 0.087283 0.871620
Si Si4 0.000000 0.000000 0.195089
Si Si5 0.333334 0.666668 0.459699
Si Si6 0.000000 0.000000 0.943430
O O1 0.520825 0.359289 0.085925
O O2 0.666668 0.333334 0.014196
O O3 0.718706 0.083875 0.630296
O O4 0.414090 0.037888 0.626776
O O5 0.609714 0.154570 0.560094
O O6 0.853314 0.011387 0.828577
O O7 0.865766 0.034033 0.919070
O O8 0.000000 0.000000 0.250000
O O9 0.000000 0.000000 0.000000
#
# Coordination Sequence:
#
# PCOD9578064 Si02
#       6
#     4  12  12   4   4   4
#     4  12  18  27  48  75  97 134 187 219 237 276
#     4  10  20  33  50  71 104 138 168 216 261 296
#     4   9  20  37  53  76 106 138 172 211 262 312
#     4  10  20  40  64  80  97 130 170 208 259 332
#     4   9  21  33  42  66 106 146 175 204 249 300
#     4  10  20  34  52  74 109 154 194 220 247 296
#
# _framework density 17.592953000000001
#
# number of rings (size 3 to 8) (size 9 to 14) (size 15 to 20)
#    0.000    2.400    0.000    5.100    0.000    9.600 
#    0.000    1.500    0.000    0.000    0.000    0.000 
#    0.000    0.000    0.000    0.000    0.000    0.000 
#
# Total GULP energy -223078.818783 kJ/mol
# GULP energy per Si atom -5576.970470 kJ/mol
# Density = 1.755291 g / cm^3
# Si number density = 17.592953 Si / 1000 Ang^3
#
#
#
# Elastic Constant Matrix: (Units=GPa)
#
#
# Indices 1 2 3 4 5 6 
#
# 1 81.5212 -18.7722 14.8614 0.0001 -2.3404 -0.0038
# 2 -18.7722 81.5200 14.8610 -0.0006 2.3401 0.0028
# 3 14.8614 14.8610 106.0274 0.0004 0.0003 -0.0004
# 4 0.0001 -0.0006 0.0004 -4.0276 -0.0009 2.3398
# 5 -2.3404 2.3401 0.0003 -0.0009 -4.0265 -0.0004
# 6 -0.0038 0.0028 -0.0004 2.3398 -0.0004 50.1502
#
#
#
# Elastic Compliance Matrix: (Units=1/GPa)
#
#
# Indices 1 2 3 4 5 6 
#
# 1 0.013389 0.003681 -0.002393 0.000001 -0.005643 0.000001
# 2 0.003681 0.013389 -0.002393 -0.000004 0.005641 0.000000
# 3 -0.002393 -0.002393 0.010102 0.000001 0.000001 0.000000
# 4 0.000001 -0.000004 0.000001 -0.241735 0.000052 0.011278
# 5 -0.005643 0.005641 0.000001 0.000052 -0.241794 -0.000005
# 6 0.000001 0.000000 0.000000 0.011278 -0.000005 0.019414
#
#
# Mechanical properties :
#
#
# Convention : Reuss Voigt Hill
#
# Bulk Modulus (GPa) = 28.84187 32.32988 30.58588
# Shear Modulus (GPa) = -12.09278 25.62709 6.76716
#
# Velocity S-wave (km/s) = -2.62461 3.82077 1.96338
# Velocity P-wave (km/s) = 2.69162 6.15475 4.75004
#
# Compressibility (1/GPa) = 0.03467182
#
# Stress axis : x y z
#
# Youngs Moduli (GPa) = 74.69029 74.68894 98.98797
#
# Poissons Ratio (x) = -0.27495 0.23684
# Poissons Ratio (y) = -0.27495 0.23684
# Poissons Ratio (z) = 0.17870 0.17870
#
# Static dielectric constant tensor:
#      x y z
#    x 1.629190 0.000000 0.000000 
#    y 0.000000 1.629190 0.000000 
#    z 0.000000 0.000000 1.546070 
# 
# From -- ./inp_files/4287.got.cif
#   From: 2010.05.17/outbox.cif.g08.bks.cpg/sg163_3_cif.got.tgz:4287.got - 2010.05.20 10:56:03.
