data_PCOD9578998
_publ_section_title
;
Structure prediction by ZEFSAII (Michael W. Deem and Ramdas Pophale) SiO2 
 PCOD9578998
Probable space group: P -3 C 1
;
_chemical_formula_sum "Si O2"
_cell_formula_units_Z 40
_cell_length_a 11.289135
_cell_length_b 11.289135
_cell_length_c 15.422381
_cell_angle_alpha 90.000000
_cell_angle_beta 90.000000
_cell_angle_gamma 120.000000
_cell_volume 1702.171806
_symmetry_space_group_name_H-M "P -3 C 1"
_symmetry_group_IT_number 165
_symmetry_cell_setting 'hexagonal'
loop_
_space_group_symop_operation_xyz
x,y,z
-y,x-y,z
-x+y,-x,z
x-y,-y,1/2-z
-x,-x+y,1/2-z
y,x,1/2-z
-x,-y,-z
y,-x+y,-z
x-y,x,-z
-x+y,y,1/2+z
x,x-y,1/2+z
-y,-x,1/2+z
loop_
_atom_site_type_symbol
_atom_site_label
_atom_site_fract_x
_atom_site_fract_y
_atom_site_fract_z
Si Si1 0.609143 0.056218 0.661320
Si Si2 0.000000 0.000000 0.644537
Si Si3 0.835970 0.142416 0.915256
Si Si4 0.118081 0.395108 0.894743
O O1 0.767180 0.175505 0.672652
O O2 0.537078 0.118188 0.601922
O O3 0.526955 0.000000 0.750000
O O4 0.611190 0.925414 0.623733
O O5 0.039679 0.892362 0.606641
O O6 0.000000 0.000000 0.750000
O O7 0.960028 0.282791 0.878874
O O8 0.809916 0.157829 0.016150
#
# Coordination Sequence:
#
# PCOD9578998 Si02
#       4
#    12   4  12  12
#     4  12  29  48  75 109 156 205 251 325 391 457
#     4  12  24  43  80 121 157 185 250 333 394 443
#     4  12  24  46  80 109 147 198 254 318 384 469
#     4  12  27  50  75 110 155 197 261 313 390 470
#
# _framework density 23.499390999999999
#
# number of rings (size 3 to 8) (size 9 to 14) (size 15 to 20)
#    0.000    0.000    6.000    2.400    4.200    1.200 
#    1.800    0.000    0.000    0.000    0.000    0.000 
#    0.000    0.000    0.000    0.000    0.000    0.000 
#
# Total GULP energy -223662.092757 kJ/mol
# GULP energy per Si atom -5591.552319 kJ/mol
# Density = 2.344591 g / cm^3
# Si number density = 23.499391 Si / 1000 Ang^3
#
#
#
# Elastic Constant Matrix: (Units=GPa)
#
#
# Indices 1 2 3 4 5 6 
#
# 1 114.4178 27.2809 33.8026 8.2998 0.0000 0.0000
# 2 27.2809 114.4178 33.8026 -8.2998 0.0000 0.0000
# 3 33.8026 33.8026 86.8200 0.0000 0.0000 0.0000
# 4 8.2998 -8.2998 0.0000 30.4687 0.0000 0.0000
# 5 0.0000 0.0000 0.0000 0.0000 30.4687 8.2998
# 6 0.0000 0.0000 0.0000 0.0000 8.2998 43.5684
#
#
#
# Elastic Compliance Matrix: (Units=1/GPa)
#
#
# Indices 1 2 3 4 5 6 
#
# 1 0.010386 -0.001719 -0.003374 -0.003297 0.000000 0.000000
# 2 -0.001719 0.010386 -0.003374 0.003297 0.000000 0.000000
# 3 -0.003374 -0.003374 0.014146 0.000000 0.000000 0.000000
# 4 -0.003297 0.003297 0.000000 0.034617 0.000000 0.000000
# 5 0.000000 0.000000 0.000000 0.000000 0.034617 -0.006595
# 6 0.000000 0.000000 0.000000 0.000000 -0.006595 0.024209
#
#
# Mechanical properties :
#
#
# Convention : Reuss Voigt Hill
#
# Bulk Modulus (GPa) = 55.61062 56.15863 55.88463
# Shear Modulus (GPa) = 33.04932 35.61913 34.33422
#
# Velocity S-wave (km/s) = 3.75426 3.89748 3.82654
# Velocity P-wave (km/s) = 6.51987 6.64858 6.58454
#
# Compressibility (1/GPa) = 0.01798218
#
# Stress axis : x y z
#
# Youngs Moduli (GPa) = 96.28554 96.28554 70.69268
#
# Poissons Ratio (x) = 0.16547 0.23855
# Poissons Ratio (y) = 0.16547 0.23855
# Poissons Ratio (z) = 0.32492 0.32492
#
# Static dielectric constant tensor:
#      x y z
#    x 1.897800 0.000000 0.000000 
#    y 0.000000 1.897800 0.000000 
#    z 0.000000 0.000000 1.936900 
# 
# From -- ./inp_files/2049.got.cif
#   From: 2010.05.17/outbox.cif.g08.bks.cpg/sg165_2_cif.got.tgz:2049.got - 2010.05.20 11:02:39.
