data_PCOD9578320
_publ_section_title
;
Structure prediction by ZEFSAII (Michael W. Deem and Ramdas Pophale) SiO2 
 PCOD9578320
Probable space group: P -3 M 1
;
_chemical_formula_sum "Si O2"
_cell_formula_units_Z 96
_cell_length_a 18.159668
_cell_length_b 18.159668
_cell_length_c 24.454344
_cell_angle_alpha 90.000000
_cell_angle_beta 90.000000
_cell_angle_gamma 120.000000
_cell_volume 6983.971486
_symmetry_space_group_name_H-M "P -3 M 1"
_symmetry_group_IT_number 164
_symmetry_cell_setting 'hexagonal'
loop_
_space_group_symop_operation_xyz
x,y,z
-y,x-y,z
-x+y,-x,z
x-y,-y,-z
-x,-x+y,-z
y,x,-z
-x,-y,-z
y,-x+y,-z
x-y,x,-z
-x+y,y,z
x,x-y,z
-y,-x,z
loop_
_atom_site_type_symbol
_atom_site_label
_atom_site_fract_x
_atom_site_fract_y
_atom_site_fract_z
Si Si1 0.163354 0.667651 0.128447
Si Si2 0.492017 0.158527 0.139008
Si Si3 0.413213 0.005348 0.062618
Si Si4 0.427750 0.296601 0.750001
Si Si5 0.492017 0.158526 0.360992
Si Si6 0.586787 0.592135 0.562618
Si Si7 0.836647 0.504297 0.628449
Si Si8 0.948403 0.560238 0.250000
O O1 0.177397 0.588699 0.116312
O O2 0.244282 0.755719 0.110911
O O3 0.153041 0.672324 0.193777
O O4 0.077060 0.649075 0.098241
O O5 0.588392 0.176783 0.132121
O O6 0.489584 0.244792 0.138499
O O7 0.434471 0.092210 0.092363
O O8 0.459121 0.108797 0.196364
O O9 0.502856 0.005711 0.062794
O O10 0.385746 0.000000 0.000000
O O11 0.387688 0.193844 0.750000
O O12 0.480717 0.327677 0.693778
O O13 0.373934 0.345071 0.750001
O O14 0.588392 0.176783 0.367878
O O15 0.489585 0.244792 0.361500
O O16 0.459120 0.108796 0.303636
O O17 0.434470 0.092210 0.407637
O O18 0.614255 0.614255 0.500000
O O19 0.497144 0.502856 0.562793
O O20 0.649075 0.572016 0.598242
O O21 0.755719 0.511437 0.610914
O O22 0.822604 0.411302 0.616314
O O23 0.979815 0.489908 0.250000
#
# Coordination Sequence:
#
# PCOD9578320 Si02
#       8
#    12  12  12  12  12  12  12  12
#     4  10  18  28  43  63  86 112 144 180 216 257
#     4  10  19  30  46  65  87 115 151 191 225 259
#     4   9  18  31  44  58  81 115 149 180 220 263
#     4  10  18  27  44  66  87 114 146 175 213 263
#     4  10  19  30  46  65  87 115 151 191 225 259
#     4   9  18  31  44  58  81 115 149 180 220 263
#     4  10  18  28  43  63  86 112 144 180 216 257
#     4  10  17  29  46  64  89 118 144 177 227 273
#
# _framework density 13.745761
#
# number of rings (size 3 to 8) (size 9 to 14) (size 15 to 20)
#    0.000    2.250    2.500    2.000    0.000    1.000 
#    0.000    2.500    0.000    3.250    0.000    0.000 
#    0.000    0.000    0.000   10.500    0.000    7.750 
#
# Total GULP energy -534741.341771 kJ/mol
# GULP energy per Si atom -5570.222310 kJ/mol
# Density = 1.371447 g / cm^3
# Si number density = 13.745761 Si / 1000 Ang^3
#
#
#
# Elastic Constant Matrix: (Units=GPa)
#
#
# Indices 1 2 3 4 5 6 
#
# 1 94.2687 49.5978 36.8003 -0.0001 0.0000 0.0000
# 2 49.5978 94.2687 36.8003 0.0001 0.0000 0.0000
# 3 36.8003 36.8003 88.3455 0.0000 0.0000 0.0000
# 4 -0.0001 0.0001 0.0000 4.7695 0.0000 0.0000
# 5 0.0000 0.0000 0.0000 0.0000 4.7695 -0.0001
# 6 0.0000 0.0000 0.0000 0.0000 -0.0001 22.3355
#
#
#
# Elastic Compliance Matrix: (Units=1/GPa)
#
#
# Indices 1 2 3 4 5 6 
#
# 1 0.015610 -0.006776 -0.003680 0.000001 0.000000 0.000000
# 2 -0.006776 0.015610 -0.003680 -0.000001 0.000000 0.000000
# 3 -0.003680 -0.003680 0.014385 0.000000 0.000000 0.000000
# 4 0.000001 -0.000001 0.000000 0.209667 0.000000 0.000000
# 5 0.000000 0.000000 0.000000 0.000000 0.209667 0.000001
# 6 0.000000 0.000000 0.000000 0.000000 0.000001 0.044772
#
#
# Mechanical properties :
#
#
# Convention : Reuss Voigt Hill
#
# Bulk Modulus (GPa) = 57.69291 58.14217 57.91754
# Shear Modulus (GPa) = 9.19526 16.62051 12.90788
#
# Velocity S-wave (km/s) = 2.58922 3.48104 3.06771
# Velocity P-wave (km/s) = 7.14152 7.65160 7.40095
#
# Compressibility (1/GPa) = 0.01733315
#
# Stress axis : x y z
#
# Youngs Moduli (GPa) = 64.06311 64.06311 69.51884
#
# Poissons Ratio (x) = 0.43411 0.25579
# Poissons Ratio (y) = 0.43411 0.25579
# Poissons Ratio (z) = 0.23572 0.23572
#
# Static dielectric constant tensor:
#      x y z
#    x 1.437280 0.000000 0.000000 
#    y 0.000000 1.437280 0.000000 
#    z 0.000000 0.000000 1.469260 
# 
# From -- ./inp_files/5089.got.cif
#   From: 2010.05.17/outbox.cif.g08.bks.cpg/sg164_3_cif.got.tgz:5089.got - 2010.05.20 10:58:56.
