data_PCOD9578055
_publ_section_title
;
Structure prediction by ZEFSAII (Michael W. Deem and Ramdas Pophale) SiO2 
 PCOD9578055
Probable space group: P -3 1 C
;
_chemical_formula_sum "Si O2"
_cell_formula_units_Z 58
_cell_length_a 15.929042
_cell_length_b 15.929042
_cell_length_c 20.657325
_cell_angle_alpha 90.000000
_cell_angle_beta 90.000000
_cell_angle_gamma 120.000000
_cell_volume 4539.249232
_symmetry_space_group_name_H-M "P -3 1 C"
_symmetry_group_IT_number 163
_symmetry_cell_setting 'hexagonal'
loop_
_space_group_symop_operation_xyz
x,y,z
-y,x-y,z
-x+y,-x,z
-y,-x,1/2-z
-x+y,y,1/2-z
x,x-y,1/2-z
-x,-y,-z
y,-x+y,-z
x-y,x,-z
y,x,1/2+z
x-y,-y,1/2+z
-x,-x+y,1/2+z
loop_
_atom_site_type_symbol
_atom_site_label
_atom_site_fract_x
_atom_site_fract_y
_atom_site_fract_z
Si Si1 0.135582 0.567791 0.095515
Si Si2 0.396775 0.603226 0.750000
Si Si3 0.085584 0.542792 0.880989
Si Si4 0.889421 0.302967 0.011966
Si Si5 0.666668 0.333334 0.827109
Si Si6 0.413546 0.302967 0.011966
O O1 0.224881 0.612440 0.143935
O O2 0.030239 0.515119 0.128657
O O3 0.137887 0.649417 0.047889
O O4 0.137887 0.488470 0.047889
O O5 0.438057 0.719029 0.750000
O O6 0.428422 0.571579 0.814489
O O7 0.110560 0.636284 0.925238
O O8 0.110559 0.474275 0.925238
O O9 0.808755 0.191245 0.017754
O O10 0.000000 0.329508 0.000000
O O11 0.666668 0.333334 0.750000
#
# Coordination Sequence:
#
# PCOD9578055 Si02
#       6
#    12   6  12  12   4  12
#     4   9  18  30  42  61  84 113 137 179 200 248
#     4  10  20  28  40  62  84 112 140 166 214 242
#     4   9  18  29  42  60  86 112 138 171 214 243
#     4   9  16  28  46  62  80 108 143 175 211 243
#     4  12  21  27  42  66  87 115 149 154 222 240
#     4   9  16  28  46  62  80 108 143 175 211 243
#
# _framework density 12.777442000000001
#
# number of rings (size 3 to 8) (size 9 to 14) (size 15 to 20)
#    0.207    2.483    2.069    3.724    1.448    0.000 
#    1.241    0.000    0.000    0.414    0.000    0.000 
#    0.000    0.000    0.000    0.000    0.000   29.379 
#
# Total GULP energy -322941.924823 kJ/mol
# GULP energy per Si atom -5567.964221 kJ/mol
# Density = 1.274836 g / cm^3
# Si number density = 12.777442 Si / 1000 Ang^3
#
#
#
# Elastic Constant Matrix: (Units=GPa)
#
#
# Indices 1 2 3 4 5 6 
#
# 1 105.5922 60.8150 54.5137 0.0001 0.0000 0.0001
# 2 60.8150 105.5920 54.5135 0.0001 0.0001 0.0000
# 3 54.5137 54.5135 111.5297 0.0002 0.0001 0.0001
# 4 0.0001 0.0001 0.0002 16.9965 0.0000 0.0001
# 5 0.0000 0.0001 0.0001 0.0000 16.9965 0.0000
# 6 0.0001 0.0000 0.0001 0.0001 0.0000 22.3886
#
#
#
# Elastic Compliance Matrix: (Units=1/GPa)
#
#
# Indices 1 2 3 4 5 6 
#
# 1 0.015587 -0.006746 -0.004321 0.000000 0.000000 0.000000
# 2 -0.006746 0.015587 -0.004321 0.000000 0.000000 0.000000
# 3 -0.004321 -0.004321 0.013190 0.000000 0.000000 0.000000
# 4 0.000000 0.000000 0.000000 0.058836 0.000000 0.000000
# 5 0.000000 0.000000 0.000000 0.000000 0.058836 0.000000
# 6 0.000000 0.000000 0.000000 0.000000 0.000000 0.044666
#
#
# Mechanical properties :
#
#
# Convention : Reuss Voigt Hill
#
# Bulk Modulus (GPa) = 73.59964 73.59981 73.59972
# Shear Modulus (GPa) = 20.66064 21.46776 21.06420
#
# Velocity S-wave (km/s) = 4.02551 4.10339 4.06463
# Velocity P-wave (km/s) = 8.90688 8.95415 8.93055
#
# Compressibility (1/GPa) = 0.01358702
#
# Stress axis : x y z
#
# Youngs Moduli (GPa) = 64.15753 64.15750 75.81335
#
# Poissons Ratio (x) = 0.43282 0.32759
# Poissons Ratio (y) = 0.43282 0.32759
# Poissons Ratio (z) = 0.27723 0.27723
#
# Static dielectric constant tensor:
#      x y z
#    x 1.408750 0.000000 0.000000 
#    y 0.000000 1.408750 0.000000 
#    z 0.000000 0.000000 1.396800 
# 
# From -- ./inp_files/3578.got.cif
#   From: 2010.05.17/outbox.cif.g08.bks.cpg/sg163_2_cif.got.tgz:3578.got - 2010.05.20 10:56:03.
