data_PCOD9578846
_publ_section_title
;
Structure prediction by ZEFSAII (Michael W. Deem and Ramdas Pophale) SiO2 
 PCOD9578846
Probable space group: P -3 C 1
;
_chemical_formula_sum "Si O2"
_cell_formula_units_Z 58
_cell_length_a 13.545151
_cell_length_b 13.545151
_cell_length_c 14.576749
_cell_angle_alpha 90.000000
_cell_angle_beta 90.000000
_cell_angle_gamma 120.000000
_cell_volume 2316.109079
_symmetry_space_group_name_H-M "P -3 C 1"
_symmetry_group_IT_number 165
_symmetry_cell_setting 'hexagonal'
loop_
_space_group_symop_operation_xyz
x,y,z
-y,x-y,z
-x+y,-x,z
x-y,-y,1/2-z
-x,-x+y,1/2-z
y,x,1/2-z
-x,-y,-z
y,-x+y,-z
x-y,x,-z
-x+y,y,1/2+z
x,x-y,1/2+z
-y,-x,1/2+z
loop_
_atom_site_type_symbol
_atom_site_label
_atom_site_fract_x
_atom_site_fract_y
_atom_site_fract_z
Si Si1 0.516814 0.545658 0.893066
Si Si2 0.637611 0.637611 0.250000
Si Si3 0.962234 0.206385 0.391789
Si Si4 0.790760 0.188292 0.058502
Si Si5 0.537218 0.209974 0.899335
Si Si6 0.000000 0.000000 0.140267
O O1 0.415015 0.460541 0.827449
O O2 0.542412 0.673530 0.887442
O O3 0.632599 0.546456 0.860489
O O4 0.500000 0.500000 0.000000
O O5 0.756223 0.673954 0.303337
O O6 0.095136 0.302420 0.394407
O O7 0.900180 0.222385 0.478151
O O8 0.954232 0.084341 0.390508
O O9 0.799866 0.296660 0.005113
O O10 0.662370 0.226205 0.878351
O O11 0.000000 0.000000 0.250000
#
# Coordination Sequence:
#
# PCOD9578846 Si02
#       6
#    12   6  12  12  12   4
#     4  12  22  46  71 103 148 195 255 312 381 455
#     4  12  26  48  76 110 154 198 256 318 388 466
#     4  12  26  48  77 111 153 205 262 316 398 467
#     4  12  23  45  77 106 147 200 256 318 387 463
#     4  10  20  37  67  99 136 185 239 306 369 436
#     4  12  27  49  68 112 156 199 257 334 379 476
#
# _framework density 25.041998
#
# number of rings (size 3 to 8) (size 9 to 14) (size 15 to 20)
#    0.414    0.000    7.241    1.241    0.000    0.828 
#    9.310    0.000    0.000    0.000    0.000    0.000 
#    0.000    0.000    0.000    0.000    0.000    0.000 
#
# Total GULP energy -323632.068584 kJ/mol
# GULP energy per Si atom -5579.863251 kJ/mol
# Density = 2.498500 g / cm^3
# Si number density = 25.041998 Si / 1000 Ang^3
#
#
#
# Elastic Constant Matrix: (Units=GPa)
#
#
# Indices 1 2 3 4 5 6 
#
# 1 122.4883 34.0169 15.4725 -1.5178 0.0000 0.0000
# 2 34.0169 122.4883 15.4725 1.5178 0.0000 0.0000
# 3 15.4725 15.4725 82.9572 0.0000 0.0000 0.0000
# 4 -1.5178 1.5178 0.0000 23.3656 0.0000 0.0000
# 5 0.0000 0.0000 0.0000 0.0000 23.3656 -1.5178
# 6 0.0000 0.0000 0.0000 0.0000 -1.5178 44.2357
#
#
#
# Elastic Compliance Matrix: (Units=1/GPa)
#
#
# Indices 1 2 3 4 5 6 
#
# 1 0.008981 -0.002347 -0.001237 0.000736 0.000000 0.000000
# 2 -0.002347 0.008981 -0.001237 -0.000736 0.000000 0.000000
# 3 -0.001237 -0.001237 0.012516 0.000000 0.000000 0.000000
# 4 0.000736 -0.000736 0.000000 0.042894 0.000000 0.000000
# 5 0.000000 0.000000 0.000000 0.000000 0.042894 0.001472
# 6 0.000000 0.000000 0.000000 0.000000 0.001472 0.022657
#
#
# Mechanical properties :
#
#
# Convention : Reuss Voigt Hill
#
# Bulk Modulus (GPa) = 47.99621 50.87306 49.43464
# Shear Modulus (GPa) = 32.15207 35.72482 33.93845
#
# Velocity S-wave (km/s) = 3.58708 3.78113 3.68538
# Velocity P-wave (km/s) = 6.03026 6.27868 6.15572
#
# Compressibility (1/GPa) = 0.02083498
#
# Stress axis : x y z
#
# Youngs Moduli (GPa) = 111.34267 111.34267 79.89786
#
# Poissons Ratio (x) = 0.26133 0.09886
# Poissons Ratio (y) = 0.26133 0.09886
# Poissons Ratio (z) = 0.13777 0.13777
#
# Static dielectric constant tensor:
#      x y z
#    x 2.161250 0.000000 0.000000 
#    y 0.000000 2.161250 0.000000 
#    z 0.000000 0.000000 2.100440 
# 
# From -- ./inp_files/1715.got.cif
#   From: 2010.05.17/outbox.cif.g08.bks.cpg/sg165_1_cif.got.tgz:1715.got - 2010.05.20 11:02:39.
