data_PCOD9578363
_publ_section_title
;
Structure prediction by ZEFSAII (Michael W. Deem and Ramdas Pophale) SiO2 
 PCOD9578363
Probable space group: P -3 M 1
;
_chemical_formula_sum "Si O2"
_cell_formula_units_Z 84
_cell_length_a 22.657846
_cell_length_b 22.657846
_cell_length_c 12.584434
_cell_angle_alpha 90.000000
_cell_angle_beta 90.000000
_cell_angle_gamma 120.000000
_cell_volume 5595.018933
_symmetry_space_group_name_H-M "P -3 M 1"
_symmetry_group_IT_number 164
_symmetry_cell_setting 'hexagonal'
loop_
_space_group_symop_operation_xyz
x,y,z
-y,x-y,z
-x+y,-x,z
x-y,-y,-z
-x,-x+y,-z
y,x,-z
-x,-y,-z
y,-x+y,-z
x-y,x,-z
-x+y,y,z
x,x-y,z
-y,-x,z
loop_
_atom_site_type_symbol
_atom_site_label
_atom_site_fract_x
_atom_site_fract_y
_atom_site_fract_z
Si Si1 0.970154 0.553980 0.175056
Si Si2 0.782035 0.703296 0.710675
Si Si3 0.535070 0.595438 0.584266
Si Si4 0.791002 0.076365 0.292697
Si Si5 0.877815 0.257293 0.498607
Si Si6 0.860176 0.587343 0.129504
Si Si7 0.059588 0.357472 0.074887
O O1 0.978285 0.489143 0.148760
O O2 0.973983 0.564206 0.301801
O O3 0.894301 0.541131 0.151285
O O4 0.024291 0.623300 0.115492
O O5 0.859360 0.718720 0.702433
O O6 0.770077 0.767440 0.709988
O O7 0.741725 0.654453 0.610597
O O8 0.748583 0.667373 0.821811
O O9 0.564190 0.564190 0.500000
O O10 0.453890 0.546111 0.590460
O O11 0.561324 0.671334 0.544975
O O12 0.870612 0.129389 0.277285
O O13 0.769317 0.091401 0.407025
O O14 0.751933 0.097248 0.204393
O O15 0.798728 0.201273 0.508848
O O16 0.781289 0.562578 0.151259
O O17 0.878061 0.606050 0.006226
O O18 0.000000 0.299773 0.000000
#
# Coordination Sequence:
#
# PCOD9578363 Si02
#       7
#    12  12  12  12  12  12  12
#     4  10  19  30  48  72  97 126 159 201 244 285
#     4  11  20  31  48  73  98 124 159 205 243 282
#     4  10  18  28  45  69  98 126 154 188 235 294
#     4  10  18  31  48  69  94 128 161 192 238 295
#     4  10  19  30  49  70  97 128 158 198 242 285
#     4  10  19  31  48  66  92 128 164 196 235 290
#     4  10  18  31  46  66  98 125 158 196 244 293
#
# _framework density 15.013354
#
# number of rings (size 3 to 8) (size 9 to 14) (size 15 to 20)
#    0.000    1.857    4.286    2.571    0.000    2.571 
#    0.000    0.000    0.000    0.857    0.000    0.000 
#    0.000    4.000    0.000    2.714    0.000    1.143 
#
# Total GULP energy -467645.576366 kJ/mol
# GULP energy per Si atom -5567.209242 kJ/mol
# Density = 1.497918 g / cm^3
# Si number density = 15.013354 Si / 1000 Ang^3
#
#
#
# Elastic Constant Matrix: (Units=GPa)
#
#
# Indices 1 2 3 4 5 6 
#
# 1 62.8990 23.0519 16.3621 -0.2328 0.0000 0.0000
# 2 23.0519 62.8990 16.3621 0.2328 0.0000 0.0000
# 3 16.3621 16.3621 105.5784 0.0000 0.0000 0.0000
# 4 -0.2328 0.2328 0.0000 11.0601 0.0000 0.0000
# 5 0.0000 0.0000 0.0000 0.0000 11.0601 -0.2328
# 6 0.0000 0.0000 0.0000 0.0000 -0.2328 19.9235
#
#
#
# Elastic Compliance Matrix: (Units=1/GPa)
#
#
# Indices 1 2 3 4 5 6 
#
# 1 0.018733 -0.006369 -0.001916 0.000528 0.000000 0.000000
# 2 -0.006369 0.018733 -0.001916 -0.000528 0.000000 0.000000
# 3 -0.001916 -0.001916 0.010066 0.000000 0.000000 0.000000
# 4 0.000528 -0.000528 0.000000 0.090437 0.000000 0.000000
# 5 0.000000 0.000000 0.000000 0.000000 0.090437 0.001057
# 6 0.000000 0.000000 0.000000 0.000000 0.001057 0.050204
#
#
# Mechanical properties :
#
#
# Convention : Reuss Voigt Hill
#
# Bulk Modulus (GPa) = 36.86069 38.10317 37.48193
# Shear Modulus (GPa) = 16.23078 20.11542 18.17310
#
# Velocity S-wave (km/s) = 3.29156 3.66435 3.48294
# Velocity P-wave (km/s) = 6.24908 6.58315 6.41829
#
# Compressibility (1/GPa) = 0.02712918
#
# Stress axis : x y z
#
# Youngs Moduli (GPa) = 53.38142 53.38142 99.34881
#
# Poissons Ratio (x) = 0.33999 0.19037
# Poissons Ratio (y) = 0.33999 0.19037
# Poissons Ratio (z) = 0.10229 0.10229
#
# Static dielectric constant tensor:
#      x y z
#    x 1.507360 0.000000 0.000000 
#    y 0.000000 1.507360 0.000000 
#    z 0.000000 0.000000 1.534170 
# 
# From -- ./inp_files/3044.got.cif
#   From: 2010.05.17/outbox.cif.g08.bks.cpg/sg164_2_cif.got.tgz:3044.got - 2010.05.20 10:58:56.
