data_PCOD9578580
_publ_section_title
;
Structure prediction by ZEFSAII (Michael W. Deem and Ramdas Pophale) SiO2 
 PCOD9578580
Probable space group: P -3 M 1
;
_chemical_formula_sum "Si O2"
_cell_formula_units_Z 66
_cell_length_a 12.653518
_cell_length_b 12.653518
_cell_length_c 29.513363
_cell_angle_alpha 90.000000
_cell_angle_beta 90.000000
_cell_angle_gamma 120.000000
_cell_volume 4092.341856
_symmetry_space_group_name_H-M "P -3 M 1"
_symmetry_group_IT_number 164
_symmetry_cell_setting 'hexagonal'
loop_
_space_group_symop_operation_xyz
x,y,z
-y,x-y,z
-x+y,-x,z
x-y,-y,-z
-x,-x+y,-z
y,x,-z
-x,-y,-z
y,-x+y,-z
x-y,x,-z
-x+y,y,z
x,x-y,z
-y,-x,z
loop_
_atom_site_type_symbol
_atom_site_label
_atom_site_fract_x
_atom_site_fract_y
_atom_site_fract_z
Si Si1 0.251221 0.000260 0.176670
Si Si2 0.253005 0.252848 0.451362
Si Si3 0.917932 0.584346 0.264846
Si Si4 0.748652 0.000000 0.000000
Si Si5 0.253302 0.000024 0.648122
Si Si6 0.584443 0.917303 0.911297
O O1 0.128129 0.871871 0.175683
O O2 0.221847 0.110924 0.175786
O O3 0.327847 0.017458 0.222164
O O4 0.334873 0.019167 0.133068
O O5 0.312288 0.312288 0.500000
O O6 0.238469 0.119235 0.452246
O O7 0.307588 0.305489 0.401985
O O8 0.120283 0.240565 0.450685
O O9 0.778805 0.557609 0.265095
O O10 0.921063 0.460532 0.260956
O O11 0.979756 0.655784 0.311118
O O12 0.665375 0.977094 0.955959
O O13 0.761607 0.880804 0.006368
O O14 0.252209 0.126105 0.653268
O O15 0.114532 0.885469 0.649910
O O16 0.462239 0.924478 0.911822
O O17 0.553740 0.776870 0.910128
#
# Coordination Sequence:
#
# PCOD9578580 Si02
#       6
#    12  12  12   6  12  12
#     4  10  20  34  54  78 102 126 152 189 237 287
#     4   8  12  18  31  55  87 118 144 172 214 271
#     4  10  20  33  49  67  89 119 155 194 232 272
#     4  10  20  34  54  78 104 134 168 210 256 298
#     4   9  16  26  43  67  93 119 146 182 229 279
#     4  10  20  34  53  76 103 135 169 203 237 277
#
# _framework density 16.127685
#
# number of rings (size 3 to 8) (size 9 to 14) (size 15 to 20)
#    0.000    2.545    0.000    2.909    0.000    2.182 
#    0.000    5.455    0.000   11.818    0.000    0.000 
#    0.000    0.000    0.000    0.000    0.000    0.000 
#
# Total GULP energy -367682.743599 kJ/mol
# GULP energy per Si atom -5570.950661 kJ/mol
# Density = 1.609098 g / cm^3
# Si number density = 16.127685 Si / 1000 Ang^3
#
#
#
# Elastic Constant Matrix: (Units=GPa)
#
#
# Indices 1 2 3 4 5 6 
#
# 1 93.8838 66.8172 74.3088 -1.1020 0.0000 0.0000
# 2 66.8172 93.8838 74.3088 1.1020 0.0000 0.0000
# 3 74.3088 74.3088 182.9544 0.0000 0.0000 0.0000
# 4 -1.1020 1.1020 0.0000 8.0449 0.0000 0.0000
# 5 0.0000 0.0000 0.0000 0.0000 8.0449 -1.1020
# 6 0.0000 0.0000 0.0000 0.0000 -1.1020 13.5333
#
#
#
# Elastic Compliance Matrix: (Units=1/GPa)
#
#
# Indices 1 2 3 4 5 6 
#
# 1 0.023664 -0.013698 -0.004048 0.005118 0.000000 0.000000
# 2 -0.013698 0.023664 -0.004048 -0.005118 0.000000 0.000000
# 3 -0.004048 -0.004048 0.008754 0.000000 0.000000 0.000000
# 4 0.005118 -0.005118 0.000000 0.125705 0.000000 0.000000
# 5 0.000000 0.000000 0.000000 0.000000 0.125705 0.010236
# 6 0.000000 0.000000 0.000000 0.000000 0.010236 0.074725
#
#
# Mechanical properties :
#
#
# Convention : Reuss Voigt Hill
#
# Bulk Modulus (GPa) = 80.03223 89.06572 84.54897
# Shear Modulus (GPa) = 11.62870 16.27709 13.95290
#
# Velocity S-wave (km/s) = 2.68813 3.18034 2.94454
# Velocity P-wave (km/s) = 7.70497 8.29646 8.00618
#
# Compressibility (1/GPa) = 0.01249497
#
# Stress axis : x y z
#
# Youngs Moduli (GPa) = 42.25742 42.25742 114.23312
#
# Poissons Ratio (x) = 0.57885 0.46240
# Poissons Ratio (y) = 0.57885 0.46240
# Poissons Ratio (z) = 0.17105 0.17105
#
# Static dielectric constant tensor:
#      x y z
#    x 1.501930 0.000000 0.000000 
#    y 0.000000 1.501930 0.000000 
#    z 0.000000 0.000000 1.582150 
# 
# From -- ./inp_files/5459.got.cif
#   From: 2010.05.17/outbox.cif.g08.bks.cpg/sg164_3_cif.got.tgz:5459.got - 2010.05.20 10:58:56.
