data_PCOD9578624
_publ_section_title
;
Structure prediction by ZEFSAII (Michael W. Deem and Ramdas Pophale) SiO2 
 PCOD9578624
Probable space group: P -3 M 1
;
_chemical_formula_sum "Si O2"
_cell_formula_units_Z 84
_cell_length_a 19.129518
_cell_length_b 19.129518
_cell_length_c 13.629710
_cell_angle_alpha 90.000000
_cell_angle_beta 90.000000
_cell_angle_gamma 120.000000
_cell_volume 4319.418678
_symmetry_space_group_name_H-M "P -3 M 1"
_symmetry_group_IT_number 164
_symmetry_cell_setting 'hexagonal'
loop_
_space_group_symop_operation_xyz
x,y,z
-y,x-y,z
-x+y,-x,z
x-y,-y,-z
-x,-x+y,-z
y,x,-z
-x,-y,-z
y,-x+y,-z
x-y,x,-z
-x+y,y,z
x,x-y,z
-y,-x,z
loop_
_atom_site_type_symbol
_atom_site_label
_atom_site_fract_x
_atom_site_fract_y
_atom_site_fract_z
Si Si1 0.690746 0.032771 0.319219
Si Si2 0.489994 0.822908 0.177019
Si Si3 0.158877 0.158943 0.325089
Si Si4 0.681427 0.032816 0.895954
Si Si5 0.492940 0.667373 0.605940
Si Si6 0.525701 0.631157 0.391134
Si Si7 0.190168 0.021609 0.102344
O O1 0.661047 0.015982 0.205408
O O2 0.698068 0.117242 0.347447
O O3 0.768298 0.020732 0.335013
O O4 0.617502 0.964562 0.382876
O O5 0.422435 0.844869 0.147745
O O6 0.461027 0.730514 0.158516
O O7 0.505839 0.841210 0.293178
O O8 0.573764 0.879571 0.123251
O O9 0.087667 0.175334 0.361860
O O10 0.147962 0.148760 0.207015
O O11 0.150716 0.075358 0.364099
O O12 0.762044 0.027070 0.902871
O O13 0.637393 0.000000 0.000000
O O14 0.466477 0.733239 0.625334
O O15 0.422126 0.577874 0.636533
O O16 0.506249 0.662789 0.489499
O O17 0.465517 0.534484 0.389856
O O18 0.240044 0.120022 0.104996
O O19 0.143625 0.000000 0.000000
#
# Coordination Sequence:
#
# PCOD9578624 Si02
#       7
#    12  12  12  12  12  12  12
#     4  10  20  35  57  82 110 143 187 234 275 324
#     4  10  20  35  56  83 114 146 182 226 278 333
#     4  10  20  33  49  71 102 140 181 225 273 323
#     4   9  20  35  54  77 106 144 189 234 278 321
#     4  11  22  37  58  85 118 151 182 218 269 335
#     4   9  19  35  57  86 115 141 172 219 278 334
#     4   9  17  29  48  75 104 133 170 219 272 327
#
# _framework density 19.44706
#
# number of rings (size 3 to 8) (size 9 to 14) (size 15 to 20)
#    0.000    2.286    0.000    2.571    0.000   10.571 
#    0.000    1.429    0.000    2.286    0.000    2.000 
#    0.000    5.714    0.000    0.000    0.000    0.000 
#
# Total GULP energy -467667.570686 kJ/mol
# GULP energy per Si atom -5567.471080 kJ/mol
# Density = 1.940280 g / cm^3
# Si number density = 19.447060 Si / 1000 Ang^3
#
#
#
# Elastic Constant Matrix: (Units=GPa)
#
#
# Indices 1 2 3 4 5 6 
#
# 1 111.6421 63.5786 16.2482 1.5430 0.0000 0.0000
# 2 63.5786 111.6421 16.2482 -1.5430 0.0000 0.0000
# 3 16.2482 16.2482 37.6386 0.0000 0.0000 0.0000
# 4 1.5430 -1.5430 0.0000 11.1569 0.0000 0.0000
# 5 0.0000 0.0000 0.0000 0.0000 11.1569 1.5430
# 6 0.0000 0.0000 0.0000 0.0000 1.5430 24.0318
#
#
#
# Elastic Compliance Matrix: (Units=1/GPa)
#
#
# Indices 1 2 3 4 5 6 
#
# 1 0.013598 -0.007394 -0.002678 -0.002903 0.000000 0.000000
# 2 -0.007394 0.013598 -0.002678 0.002903 0.000000 0.000000
# 3 -0.002678 -0.002678 0.028881 0.000000 0.000000 0.000000
# 4 -0.002903 0.002903 0.000000 0.090433 0.000000 0.000000
# 5 0.000000 0.000000 0.000000 0.000000 0.090433 -0.005806
# 6 0.000000 0.000000 0.000000 0.000000 -0.005806 0.041984
#
#
# Mechanical properties :
#
#
# Convention : Reuss Voigt Hill
#
# Bulk Modulus (GPa) = 32.70562 50.34142 41.52352
# Shear Modulus (GPa) = 15.89216 20.25898 18.07557
#
# Velocity S-wave (km/s) = 2.86177 3.23112 3.05204
# Velocity P-wave (km/s) = 5.27010 6.31370 5.81535
#
# Compressibility (1/GPa) = 0.03057578
#
# Stress axis : x y z
#
# Youngs Moduli (GPa) = 73.54030 73.54030 34.62525
#
# Poissons Ratio (x) = 0.54377 0.09273
# Poissons Ratio (y) = 0.54377 0.09273
# Poissons Ratio (z) = 0.19695 0.19695
#
# Static dielectric constant tensor:
#      x y z
#    x 1.688570 0.000000 0.000000 
#    y 0.000000 1.688570 0.000000 
#    z 0.000000 0.000000 1.705090 
# 
# From -- ./inp_files/3617.got.cif
#   From: 2010.05.17/outbox.cif.g08.bks.cpg/sg164_2_cif.got.tgz:3617.got - 2010.05.20 10:58:56.
