data_PCOD9578758
_publ_section_title
;
Structure prediction by ZEFSAII (Michael W. Deem and Ramdas Pophale) SiO2 
 PCOD9578758
Probable space group: P -3 M 1
;
_chemical_formula_sum "Si O2"
_cell_formula_units_Z 66
_cell_length_a 12.000000
_cell_length_b 12.000000
_cell_length_c 30.000000
_cell_angle_alpha 90.000000
_cell_angle_beta 90.000000
_cell_angle_gamma 120.000000
_cell_volume 3741.229744
_symmetry_space_group_name_H-M "P -3 M 1"
_symmetry_group_IT_number 164
_symmetry_cell_setting 'hexagonal'
loop_
_space_group_symop_operation_xyz
x,y,z
-y,x-y,z
-x+y,-x,z
x-y,-y,-z
-x,-x+y,-z
y,x,-z
-x,-y,-z
y,-x+y,-z
x-y,x,-z
-x+y,y,z
x,x-y,z
-y,-x,z
loop_
_atom_site_type_symbol
_atom_site_label
_atom_site_fract_x
_atom_site_fract_y
_atom_site_fract_z
Si Si1 0.332189 0.932236 0.366739
Si Si2 0.594818 0.931170 0.090064
Si Si3 0.263984 0.003301 0.178976
Si Si4 0.000000 0.735422 0.000000
Si Si5 0.599039 0.933375 0.268529
Si Si6 0.403281 0.329819 0.455976
O O1 0.460539 0.921078 0.368944
O O2 0.208434 0.791567 0.369224
O O3 0.332825 0.987832 0.317640
O O4 0.333351 0.012102 0.409456
O O5 0.450445 0.900889 0.089515
O O6 0.598310 0.799155 0.090282
O O7 0.662389 0.004642 0.135468
O O8 0.665500 0.004348 0.045028
O O9 0.232584 0.116292 0.175366
O O10 0.332296 0.011655 0.225842
O O11 0.132613 0.867388 0.178985
O O12 0.874520 0.749039 0.997973
O O13 0.458917 0.917834 0.266083
O O14 0.586506 0.793253 0.266184
O O15 0.325178 0.325178 0.500000
O O16 0.437993 0.218997 0.458585
O O17 0.532793 0.467208 0.456013
#
# Coordination Sequence:
#
# PCOD9578758 Si02
#       6
#    12  12  12   6  12  12
#     4   9  17  30  50  75 100 126 157 195 238 283
#     4  10  20  34  53  76 101 129 162 202 247 292
#     4  10  20  33  50  71  97 130 166 204 243 286
#     4  10  20  34  54  78 104 134 166 200 236 280
#     4   9  17  30  50  75 100 126 158 198 242 285
#     4  10  20  33  50  71  95 124 158 197 239 283
#
# _framework density 17.641258000000001
#
# number of rings (size 3 to 8) (size 9 to 14) (size 15 to 20)
#    0.000    2.364    0.000    2.909    0.000    2.182 
#    0.000    5.455    0.000   10.909    0.000    0.000 
#    0.000    0.000    0.000    0.000    0.000    0.000 
#
# Total GULP energy -367634.692663 kJ/mol
# GULP energy per Si atom -5570.222616 kJ/mol
# Density = 1.760111 g / cm^3
# Si number density = 17.641258 Si / 1000 Ang^3
#
#
#
# Elastic Constant Matrix: (Units=GPa)
#
#
# Indices 1 2 3 4 5 6 
#
# 1 30.9078 -15.2907 33.9198 -1.0844 0.0000 0.0000
# 2 -15.2907 30.9078 33.9198 1.0844 0.0000 0.0000
# 3 33.9198 33.9198 172.5505 0.0000 0.0000 0.0000
# 4 -1.0844 1.0844 0.0000 19.0285 0.0000 0.0000
# 5 0.0000 0.0000 0.0000 0.0000 19.0285 -1.0844
# 6 0.0000 0.0000 0.0000 0.0000 -1.0844 23.0992
#
#
#
# Elastic Compliance Matrix: (Units=1/GPa)
#
#
# Indices 1 2 3 4 5 6 
#
# 1 0.230023 0.208319 -0.086169 0.001237 0.000000 0.000000
# 2 0.208319 0.230023 -0.086169 -0.001237 0.000000 0.000000
# 3 -0.086169 -0.086169 0.039673 0.000000 0.000000 0.000000
# 4 0.001237 -0.001237 0.000000 0.052694 0.000000 0.000000
# 5 0.000000 0.000000 0.000000 0.000000 0.052694 0.002474
# 6 0.000000 0.000000 0.000000 0.000000 0.002474 0.043408
#
#
# Mechanical properties :
#
#
# Convention : Reuss Voigt Hill
#
# Bulk Modulus (GPa) = 1.74922 37.71819 19.73371
# Shear Modulus (GPa) = 6.51795 24.35240 15.43517
#
# Velocity S-wave (km/s) = 1.92425 3.71944 2.96116
# Velocity P-wave (km/s) = 2.43530 6.31448 4.78557
#
# Compressibility (1/GPa) = 0.57168302
#
# Stress axis : x y z
#
# Youngs Moduli (GPa) = 4.34739 4.34739 25.20586
#
# Poissons Ratio (x) = -0.90565 2.17196
# Poissons Ratio (y) = -0.90565 2.17196
# Poissons Ratio (z) = 0.37461 0.37461
#
# Static dielectric constant tensor:
#      x y z
#    x 1.559910 0.000000 0.000000 
#    y 0.000000 1.559910 0.000000 
#    z 0.000000 0.000000 1.660830 
# 
# From -- ./inp_files/5435.got.cif
#   From: 2010.05.17/outbox.ucp.g08.bks.cvg/sg164_3_cif.got.tgz:5435.got - 2010.06.11 15:16:10.
