data_PCOD9578041
_publ_section_title
;
Structure prediction by ZEFSAII (Michael W. Deem and Ramdas Pophale) SiO2 
 PCOD9578041
Probable space group: P -3 1 C
;
_chemical_formula_sum "Si O2"
_cell_formula_units_Z 84
_cell_length_a 14.692516
_cell_length_b 14.692516
_cell_length_c 24.483360
_cell_angle_alpha 90.000000
_cell_angle_beta 90.000000
_cell_angle_gamma 120.000000
_cell_volume 4577.137876
_symmetry_space_group_name_H-M "P -3 1 C"
_symmetry_group_IT_number 163
_symmetry_cell_setting 'hexagonal'
loop_
_space_group_symop_operation_xyz
x,y,z
-y,x-y,z
-x+y,-x,z
-y,-x,1/2-z
-x+y,y,1/2-z
x,x-y,1/2-z
-x,-y,-z
y,-x+y,-z
x-y,x,-z
y,x,1/2+z
x-y,-y,1/2+z
-x,-x+y,1/2+z
loop_
_atom_site_type_symbol
_atom_site_label
_atom_site_fract_x
_atom_site_fract_y
_atom_site_fract_z
Si Si1 0.444863 0.149637 0.430107
Si Si2 0.075551 0.835177 0.498254
Si Si3 0.763728 0.171643 0.574991
Si Si4 0.377177 0.985589 0.344492
Si Si5 0.540252 0.622900 0.114361
Si Si6 0.115334 0.631183 0.963975
Si Si7 0.453210 0.119827 0.736666
O O1 0.329312 0.091661 0.457768
O O2 0.526735 0.125104 0.462148
O O3 0.486748 0.273019 0.433314
O O4 0.430043 0.100729 0.370100
O O5 0.128667 0.818916 0.445429
O O6 0.957524 0.806739 0.488441
O O7 0.729802 0.093246 0.625301
O O8 0.803101 0.292435 0.590570
O O9 0.679498 0.126312 0.524996
O O10 0.444930 0.934545 0.367793
O O11 0.361452 0.972246 0.280439
O O12 0.603590 0.593272 0.070198
O O13 0.584936 0.666871 0.174973
O O14 0.573451 0.146902 0.750000
O O15 0.446013 0.223007 0.750000
#
# Coordination Sequence:
#
# PCOD9578041 Si02
#       7
#    12  12  12  12  12  12  12
#     4  10  21  40  53  84 116 159 201 244 293 355
#     4  11  22  37  56  80 116 156 202 249 303 361
#     4  11  20  34  53  83 116 155 190 233 296 356
#     4  10  21  35  56  80 115 153 188 242 294 357
#     4  10  22  37  55  81 118 153 191 238 298 359
#     4  10  23  35  56  81 121 159 194 241 293 360
#     4  10  19  36  55  81 112 150 196 246 298 359
#
# _framework density 18.352079
#
# number of rings (size 3 to 8) (size 9 to 14) (size 15 to 20)
#    0.000    1.714    2.857    2.286    6.000    1.143 
#    0.857    0.714    0.000    0.000    0.000    2.000 
#    0.000    0.000    0.000    0.000    0.000    0.000 
#
# Total GULP energy -467907.672020 kJ/mol
# GULP energy per Si atom -5570.329429 kJ/mol
# Density = 1.831031 g / cm^3
# Si number density = 18.352079 Si / 1000 Ang^3
#
#
#
# Elastic Constant Matrix: (Units=GPa)
#
#
# Indices 1 2 3 4 5 6 
#
# 1 82.5827 31.3273 29.8458 0.0000 -0.6367 0.0000
# 2 31.3273 82.5827 29.8458 0.0000 0.6367 0.0000
# 3 29.8458 29.8458 114.8460 0.0000 0.0000 0.0000
# 4 0.0000 0.0000 0.0000 19.7905 0.0000 0.6367
# 5 -0.6367 0.6367 0.0000 0.0000 19.7905 0.0000
# 6 0.0000 0.0000 0.0000 0.6367 0.0000 25.6277
#
#
#
# Elastic Compliance Matrix: (Units=1/GPa)
#
#
# Indices 1 2 3 4 5 6 
#
# 1 0.014844 -0.004681 -0.002641 0.000000 0.000628 0.000000
# 2 -0.004681 0.014844 -0.002641 0.000000 -0.000628 0.000000
# 3 -0.002641 -0.002641 0.010080 0.000000 0.000000 0.000000
# 4 0.000000 0.000000 0.000000 0.050570 0.000000 -0.001256
# 5 0.000628 -0.000628 0.000000 0.000000 0.050570 0.000000
# 6 0.000000 0.000000 0.000000 -0.001256 0.000000 0.039051
#
#
# Mechanical properties :
#
#
# Convention : Reuss Voigt Hill
#
# Bulk Modulus (GPa) = 50.39973 51.33882 50.86928
# Shear Modulus (GPa) = 24.21303 25.64126 24.92714
#
# Velocity S-wave (km/s) = 3.63624 3.74195 3.68947
# Velocity P-wave (km/s) = 6.71952 6.83408 6.77705
#
# Compressibility (1/GPa) = 0.01984138
#
# Stress axis : x y z
#
# Youngs Moduli (GPa) = 67.36597 67.36597 99.20604
#
# Poissons Ratio (x) = 0.31537 0.26201
# Poissons Ratio (y) = 0.31537 0.26201
# Poissons Ratio (z) = 0.17792 0.17792
#
# Static dielectric constant tensor:
#      x y z
#    x 1.692710 0.000000 0.000000 
#    y 0.000000 1.692710 0.000000 
#    z 0.000000 0.000000 1.691150 
# 
# From -- ./inp_files/3918.got.cif
#   From: 2010.05.17/outbox.cif.g08.bks.cpg/sg163_2_cif.got.tgz:3918.got - 2010.05.20 10:56:03.
