data_PCOD9578897
_publ_section_title
;
Structure prediction by ZEFSAII (Michael W. Deem and Ramdas Pophale) SiO2 
 PCOD9578897
Probable space group: P -3 C 1
;
_chemical_formula_sum "Si O2"
_cell_formula_units_Z 90
_cell_length_a 19.580616
_cell_length_b 19.580616
_cell_length_c 14.932567
_cell_angle_alpha 90.000000
_cell_angle_beta 90.000000
_cell_angle_gamma 120.000000
_cell_volume 4958.128802
_symmetry_space_group_name_H-M "P -3 C 1"
_symmetry_group_IT_number 165
_symmetry_cell_setting 'hexagonal'
loop_
_space_group_symop_operation_xyz
x,y,z
-y,x-y,z
-x+y,-x,z
x-y,-y,1/2-z
-x,-x+y,1/2-z
y,x,1/2-z
-x,-y,-z
y,-x+y,-z
x-y,x,-z
-x+y,y,1/2+z
x,x-y,1/2+z
-y,-x,1/2+z
loop_
_atom_site_type_symbol
_atom_site_label
_atom_site_fract_x
_atom_site_fract_y
_atom_site_fract_z
Si Si1 0.385233 0.892915 0.792716
Si Si2 0.092870 0.539198 0.483813
Si Si3 0.884615 0.387104 0.336495
Si Si4 0.127916 0.727866 0.956011
Si Si5 0.285666 0.973117 0.149561
Si Si6 0.186013 0.857259 0.639743
Si Si7 0.312268 0.312268 0.250000
Si Si8 0.224507 0.468799 0.277044
O O1 0.449065 0.921011 0.712373
O O2 0.338454 0.941887 0.798065
O O3 0.318000 0.803412 0.773649
O O4 0.423632 0.893405 0.886344
O O5 0.137090 0.600927 0.563576
O O6 0.112931 0.470017 0.485270
O O7 0.000000 0.500000 0.500000
O O8 0.938872 0.346735 0.347444
O O9 0.816366 0.329582 0.268566
O O10 0.191613 0.754788 0.876031
O O11 0.048636 0.720712 0.914193
O O12 0.148361 0.779135 0.044924
O O13 0.195498 0.908470 0.125864
O O14 0.284535 0.000000 0.250000
O O15 0.239703 0.945481 0.682383
O O16 0.198016 0.804301 0.713209
#
# Coordination Sequence:
#
# PCOD9578897 Si02
#       8
#    12  12  12  12  12  12   6  12
#     4  11  22  38  57  86 118 163 206 257 310 355
#     4  12  22  32  61  90 109 151 210 259 307 366
#     4  11  22  39  58  85 120 159 215 258 312 360
#     4  12  22  39  61  91 118 157 209 253 320 378
#     4  11  21  40  65  88 122 165 199 253 312 374
#     4  10  23  38  62  90 126 160 192 250 319 366
#     4  10  22  38  56  90 132 150 190 260 308 360
#     4  10  23  40  56  80 125 166 204 266 312 363
#
# _framework density 18.152009
#
# number of rings (size 3 to 8) (size 9 to 14) (size 15 to 20)
#    0.000    1.067    5.333    3.200    4.667    1.067 
#    0.800    0.000    0.000    0.000    0.000    0.000 
#    0.667    1.067    0.000    0.000    0.000    0.000 
#
# Total GULP energy -501724.759844 kJ/mol
# GULP energy per Si atom -5574.719554 kJ/mol
# Density = 1.811069 g / cm^3
# Si number density = 18.152009 Si / 1000 Ang^3
#
#
#
# Elastic Constant Matrix: (Units=GPa)
#
#
# Indices 1 2 3 4 5 6 
#
# 1 36.8127 10.0279 -3.2374 6.1379 0.0000 0.0000
# 2 10.0279 36.8127 -3.2374 -6.1379 0.0000 0.0000
# 3 -3.2374 -3.2374 80.2371 0.0000 0.0000 0.0000
# 4 6.1379 -6.1379 0.0000 16.9419 0.0000 0.0000
# 5 0.0000 0.0000 0.0000 0.0000 16.9419 6.1379
# 6 0.0000 0.0000 0.0000 0.0000 6.1379 13.3924
#
#
#
# Elastic Compliance Matrix: (Units=1/GPa)
#
#
# Indices 1 2 3 4 5 6 
#
# 1 0.033118 -0.011650 0.000866 -0.016219 0.000000 0.000000
# 2 -0.011650 0.033118 0.000866 0.016219 0.000000 0.000000
# 3 0.000866 0.000866 0.012533 0.000000 0.000000 0.000000
# 4 -0.016219 0.016219 0.000000 0.070778 0.000000 0.000000
# 5 0.000000 0.000000 0.000000 0.000000 0.070778 -0.032439
# 6 0.000000 0.000000 0.000000 0.000000 -0.032439 0.089536
#
#
# Mechanical properties :
#
#
# Convention : Reuss Voigt Hill
#
# Bulk Modulus (GPa) = 16.96774 17.88539 17.42657
# Shear Modulus (GPa) = 14.31264 19.47584 16.89424
#
# Velocity S-wave (km/s) = 2.81105 3.27912 3.05406
# Velocity P-wave (km/s) = 4.46138 4.92050 4.69655
#
# Compressibility (1/GPa) = 0.05893536
#
# Stress axis : x y z
#
# Youngs Moduli (GPa) = 30.19461 30.19461 79.78956
#
# Poissons Ratio (x) = 0.35176 -0.06912
# Poissons Ratio (y) = 0.35176 -0.06912
# Poissons Ratio (z) = -0.02616 -0.02616
#
# Static dielectric constant tensor:
#      x y z
#    x 1.655630 0.000000 0.000000 
#    y 0.000000 1.655630 0.000000 
#    z 0.000000 0.000000 1.631210 
# 
# From -- ./inp_files/1905.got.cif
#   From: 2010.05.17/outbox.cif.g08.bks.cpg/sg165_1_cif.got.tgz:1905.got - 2010.05.20 11:02:39.
