data_PCOD9578883
_publ_section_title
;
Structure prediction by ZEFSAII (Michael W. Deem and Ramdas Pophale) SiO2 
 PCOD9578883
Probable space group: P -3 C 1
;
_chemical_formula_sum "Si O2"
_cell_formula_units_Z 48
_cell_length_a 12.691975
_cell_length_b 12.691975
_cell_length_c 14.884572
_cell_angle_alpha 90.000000
_cell_angle_beta 90.000000
_cell_angle_gamma 120.000000
_cell_volume 2076.468747
_symmetry_space_group_name_H-M "P -3 C 1"
_symmetry_group_IT_number 165
_symmetry_cell_setting 'hexagonal'
loop_
_space_group_symop_operation_xyz
x,y,z
-y,x-y,z
-x+y,-x,z
x-y,-y,1/2-z
-x,-x+y,1/2-z
y,x,1/2-z
-x,-y,-z
y,-x+y,-z
x-y,x,-z
-x+y,y,1/2+z
x,x-y,1/2+z
-y,-x,1/2+z
loop_
_atom_site_type_symbol
_atom_site_label
_atom_site_fract_x
_atom_site_fract_y
_atom_site_fract_z
Si Si1 0.000000 0.000000 0.641600
Si Si2 0.595335 0.732928 0.856368
Si Si3 0.595333 0.862407 0.143635
Si Si4 0.333334 0.666668 0.394323
Si Si5 0.333335 0.666668 0.605686
Si Si6 0.755111 0.999998 0.640199
O O1 0.121347 0.121351 0.615144
O O2 0.000000 0.000000 0.750000
O O3 0.664464 0.664464 0.893660
O O4 0.622384 0.747486 0.750001
O O5 0.450711 0.659715 0.864383
O O6 0.647007 0.870184 0.892578
O O7 0.450709 0.791000 0.135625
O O8 0.647002 0.776821 0.107423
O O9 0.333334 0.666667 0.500005
O O10 0.745232 0.000000 0.750000
#
# Coordination Sequence:
#
# PCOD9578883 Si02
#       6
#     4  12  12   4   4  12
#     4   9  12  24  51  93 130 146 175 234 313 362
#     4  10  21  39  65  93 119 153 201 252 302 360
#     4  10  21  39  65  93 119 153 201 252 302 360
#     4  12  28  44  58  81 124 170 208 246 295 365
#     4  12  28  44  58  81 124 170 208 246 295 365
#     4   9  16  30  58  95 127 148 181 243 308 363
#
# _framework density 23.116166
#
# number of rings (size 3 to 8) (size 9 to 14) (size 15 to 20)
#    0.000    2.000    2.500    1.500    3.500    1.000 
#    0.000    0.000    0.000    0.000    0.000    3.500 
#    0.000    0.000    0.000    0.000    0.000    0.000 
#
# Total GULP energy -268045.175643 kJ/mol
# GULP energy per Si atom -5584.274493 kJ/mol
# Density = 2.306355 g / cm^3
# Si number density = 23.116166 Si / 1000 Ang^3
#
#
#
# Elastic Constant Matrix: (Units=GPa)
#
#
# Indices 1 2 3 4 5 6 
#
# 1 142.1929 19.1604 -0.3355 -0.0006 0.0000 0.0000
# 2 19.1604 142.2008 -0.3339 0.0003 0.0000 0.0000
# 3 -0.3355 -0.3339 32.5930 -0.0002 0.0000 0.0000
# 4 -0.0006 0.0003 -0.0002 1.7364 0.0000 0.0000
# 5 0.0000 0.0000 0.0000 0.0000 1.7370 0.0006
# 6 0.0000 0.0000 0.0000 0.0000 0.0006 61.5173
#
#
#
# Elastic Compliance Matrix: (Units=1/GPa)
#
#
# Indices 1 2 3 4 5 6 
#
# 1 0.007163 -0.000965 0.000064 0.000003 0.000000 0.000000
# 2 -0.000965 0.007162 0.000063 -0.000001 0.000000 0.000000
# 3 0.000064 0.000063 0.030683 0.000003 0.000000 0.000000
# 4 0.000003 -0.000001 0.000003 0.575895 0.000000 0.000000
# 5 0.000000 0.000000 0.000000 0.000000 0.575720 -0.000006
# 6 0.000000 0.000000 0.000000 0.000000 -0.000006 0.016256
#
#
# Mechanical properties :
#
#
# Convention : Reuss Voigt Hill
#
# Bulk Modulus (GPa) = 23.07729 39.32987 31.20358
# Shear Modulus (GPa) = 4.06835 32.89785 18.48310
#
# Velocity S-wave (km/s) = 1.32807 3.77656 2.83074
# Velocity P-wave (km/s) = 3.51519 6.00562 4.92057
#
# Compressibility (1/GPa) = 0.04333264
#
# Stress axis : x y z
#
# Youngs Moduli (GPa) = 139.60859 139.61641 32.59164
#
# Poissons Ratio (x) = 0.13473 -0.00208
# Poissons Ratio (y) = 0.13472 -0.00207
# Poissons Ratio (z) = -0.00891 -0.00886
#
# Static dielectric constant tensor:
#      x y z
#    x 1.836700 0.000000 0.000000 
#    y 0.000000 1.836700 0.000000 
#    z 0.000000 0.000000 1.899660 
# 
# From -- ./inp_files/2563.got.cif
#   From: 2010.05.17/outbox.cif.g08.bks.cpg/sg165_2_cif.got.tgz:2563.got - 2010.05.20 11:02:39.
