data_PCOD9578741
_publ_section_title
;
Structure prediction by ZEFSAII (Michael W. Deem and Ramdas Pophale) SiO2 
 PCOD9578741
Probable space group: P -3 M 1
;
_chemical_formula_sum "Si O2"
_cell_formula_units_Z 48
_cell_length_a 17.191433
_cell_length_b 17.191433
_cell_length_c 10.417496
_cell_angle_alpha 90.000000
_cell_angle_beta 90.000000
_cell_angle_gamma 120.000000
_cell_volume 2666.355988
_symmetry_space_group_name_H-M "P -3 M 1"
_symmetry_group_IT_number 164
_symmetry_cell_setting 'hexagonal'
loop_
_space_group_symop_operation_xyz
x,y,z
-y,x-y,z
-x+y,-x,z
x-y,-y,-z
-x,-x+y,-z
y,x,-z
-x,-y,-z
y,-x+y,-z
x-y,x,-z
-x+y,y,z
x,x-y,z
-y,-x,z
loop_
_atom_site_type_symbol
_atom_site_label
_atom_site_fract_x
_atom_site_fract_y
_atom_site_fract_z
Si Si1 0.312945 0.066672 0.882479
Si Si2 0.820227 0.819839 0.641141
Si Si3 0.424117 0.391082 0.700574
Si Si4 0.520458 0.852889 0.553378
O O1 0.331144 0.165572 0.913565
O O2 0.249337 0.032234 0.756795
O O3 0.398421 0.062572 0.831266
O O4 0.266451 0.000000 0.000000
O O5 0.781358 0.781358 0.500000
O O6 0.925830 0.851659 0.629942
O O7 0.806123 0.903062 0.667602
O O8 0.516619 0.483382 0.711846
O O9 0.351863 0.419989 0.654896
O O10 0.439699 0.337098 0.585554
O O11 0.418760 0.837520 0.559451
O O12 0.522324 0.761162 0.571425
#
# Coordination Sequence:
#
# PCOD9578741 Si02
#       4
#    12  12  12  12
#     4  11  23  37  54  79 109 143 184 226 269 319
#     4   9  18  32  51  75 104 139 178 219 264 314
#     4   9  20  36  53  78 108 142 181 222 272 329
#     4   9  17  31  54  83 113 142 176 220 272 327
#
# _framework density 18.002096999999999
#
# number of rings (size 3 to 8) (size 9 to 14) (size 15 to 20)
#    0.000    2.500    0.000    3.500    3.500    3.500 
#    0.000    0.000    0.000    4.500    0.000    1.750 
#    0.000    0.000    0.000    0.000    0.000    0.000 
#
# Total GULP energy -267818.978552 kJ/mol
# GULP energy per Si atom -5579.562053 kJ/mol
# Density = 1.796112 g / cm^3
# Si number density = 18.002097 Si / 1000 Ang^3
#
#
#
# Elastic Constant Matrix: (Units=GPa)
#
#
# Indices 1 2 3 4 5 6 
#
# 1 86.2672 48.1664 28.0674 2.5363 0.0000 0.0000
# 2 48.1664 86.2672 28.0674 -2.5363 0.0000 0.0000
# 3 28.0674 28.0674 76.6999 0.0000 0.0000 0.0000
# 4 2.5363 -2.5363 0.0000 27.3386 0.0000 0.0000
# 5 0.0000 0.0000 0.0000 0.0000 27.3386 2.5363
# 6 0.0000 0.0000 0.0000 0.0000 2.5363 19.0504
#
#
#
# Elastic Compliance Matrix: (Units=1/GPa)
#
#
# Indices 1 2 3 4 5 6 
#
# 1 0.017677 -0.008897 -0.003213 -0.002465 0.000000 0.000000
# 2 -0.008897 0.017677 -0.003213 0.002465 0.000000 0.000000
# 3 -0.003213 -0.003213 0.015389 0.000000 0.000000 0.000000
# 4 -0.002465 0.002465 0.000000 0.037036 0.000000 0.000000
# 5 0.000000 0.000000 0.000000 0.000000 0.037036 -0.004931
# 6 0.000000 0.000000 0.000000 0.000000 -0.004931 0.053149
#
#
# Mechanical properties :
#
#
# Convention : Reuss Voigt Hill
#
# Bulk Modulus (GPa) = 49.75674 50.87073 50.31373
# Shear Modulus (GPa) = 23.22237 24.40775 23.81506
#
# Velocity S-wave (km/s) = 3.59553 3.68615 3.64112
# Velocity P-wave (km/s) = 6.70347 6.81443 6.75918
#
# Compressibility (1/GPa) = 0.02009778
#
# Stress axis : x y z
#
# Youngs Moduli (GPa) = 56.56971 56.56971 64.97995
#
# Poissons Ratio (x) = 0.50330 0.20878
# Poissons Ratio (y) = 0.50330 0.20878
# Poissons Ratio (z) = 0.18176 0.18176
#
# Static dielectric constant tensor:
#      x y z
#    x 1.631670 0.000000 0.000000 
#    y 0.000000 1.631670 0.000000 
#    z 0.000000 0.000000 1.600310 
# 
# From -- ./inp_files/1234.got.cif
#   From: 2010.05.17/outbox.cif.g08.bks.cpg/sg164_1_cif.got.tgz:1234.got - 2010.05.20 10:58:56.
