data_PCOD9578898
_publ_section_title
;
Structure prediction by ZEFSAII (Michael W. Deem and Ramdas Pophale) SiO2 
 PCOD9578898
Probable space group: P -3 C 1
;
_chemical_formula_sum "Si O2"
_cell_formula_units_Z 42
_cell_length_a 8.555526
_cell_length_b 8.555526
_cell_length_c 30.294400
_cell_angle_alpha 90.000000
_cell_angle_beta 90.000000
_cell_angle_gamma 120.000000
_cell_volume 1920.376656
_symmetry_space_group_name_H-M "P -3 C 1"
_symmetry_group_IT_number 165
_symmetry_cell_setting 'hexagonal'
loop_
_space_group_symop_operation_xyz
x,y,z
-y,x-y,z
-x+y,-x,z
x-y,-y,1/2-z
-x,-x+y,1/2-z
y,x,1/2-z
-x,-y,-z
y,-x+y,-z
x-y,x,-z
-x+y,y,1/2+z
x,x-y,1/2+z
-y,-x,1/2+z
loop_
_atom_site_type_symbol
_atom_site_label
_atom_site_fract_x
_atom_site_fract_y
_atom_site_fract_z
Si Si1 0.333335 0.666668 0.478135
Si Si2 0.000000 0.000000 0.311169
Si Si3 0.000000 0.284475 0.250000
Si Si4 0.000000 0.000000 0.083469
Si Si5 0.666668 0.333334 0.144286
Si Si6 0.666668 0.333334 0.416508
Si Si7 0.333334 0.666667 0.750298
Si Si8 0.333470 0.951246 0.416739
O O1 0.333334 0.666667 0.530155
O O2 0.380756 0.858603 0.456992
O O3 0.049364 0.192256 0.289951
O O4 0.000000 0.000000 0.363177
O O5 0.167276 0.475419 0.236294
O O6 0.831997 0.809916 0.069564
O O7 0.666668 0.333334 0.196326
O O8 0.474073 0.191612 0.122994
O O9 0.638722 0.497919 0.402648
#
# Coordination Sequence:
#
# PCOD9578898 Si02
#       8
#     4   4   6   4   4   4   4  12
#     4  10  22  42  60  85 118 151 191 244 286 334
#     4  10  22  42  60  85 118 151 191 244 286 334
#     4  10  22  38  62  88 114 150 198 232 284 350
#     4  12  22  40  61  85 120 154 188 241 288 337
#     4  10  22  42  60  85 118 151 191 244 286 334
#     4  12  22  40  61  85 120 154 188 241 288 337
#     4  12  22  40  61  85 120 154 188 241 288 337
#     4  10  22  38  61  88 114 151 198 232 284 350
#
# _framework density 21.870708
#
# number of rings (size 3 to 8) (size 9 to 14) (size 15 to 20)
#    0.000    1.714    0.000    7.714    0.000    0.000 
#    0.000   10.000    0.000    0.000    0.000    0.000 
#    0.000    0.000    0.000    0.000    0.000    0.000 
#
# Total GULP energy -234989.276146 kJ/mol
# GULP energy per Si atom -5594.982765 kJ/mol
# Density = 2.182093 g / cm^3
# Si number density = 21.870708 Si / 1000 Ang^3
#
#
#
# Elastic Constant Matrix: (Units=GPa)
#
#
# Indices 1 2 3 4 5 6 
#
# 1 148.6787 18.5916 -35.0380 3.7277 0.0000 0.0000
# 2 18.5916 148.6781 -35.0389 -3.7277 0.0000 0.0000
# 3 -35.0380 -35.0389 36.9651 0.0003 0.0000 0.0000
# 4 3.7277 -3.7277 0.0003 16.5580 0.0000 0.0000
# 5 0.0000 0.0000 0.0000 0.0000 16.5593 3.7301
# 6 0.0000 0.0000 0.0000 0.0000 3.7301 65.0479
#
#
#
# Elastic Compliance Matrix: (Units=1/GPa)
#
#
# Indices 1 2 3 4 5 6 
#
# 1 0.008852 0.001064 0.009399 -0.001753 0.000000 0.000000
# 2 0.001064 0.008852 0.009399 0.001753 0.000000 0.000000
# 3 0.009399 0.009399 0.044871 -0.000001 0.000000 0.000000
# 4 -0.001753 0.001753 -0.000001 0.061183 0.000000 0.000000
# 5 0.000000 0.000000 0.000000 0.000000 0.061179 -0.003508
# 6 0.000000 0.000000 0.000000 0.000000 -0.003508 0.015574
#
#
# Mechanical properties :
#
#
# Convention : Reuss Voigt Hill
#
# Bulk Modulus (GPa) = 9.77509 25.70571 17.74040
# Shear Modulus (GPa) = 25.65591 45.35350 35.50471
#
# Velocity S-wave (km/s) = 3.42873 4.55874 4.03350
# Velocity P-wave (km/s) = 4.48933 6.28399 5.46089
#
# Compressibility (1/GPa) = 0.10230084
#
# Stress axis : x y z
#
# Youngs Moduli (GPa) = 112.97112 112.96905 22.28594
#
# Poissons Ratio (x) = -0.12023 -0.20947
# Poissons Ratio (y) = -0.12023 -0.20948
# Poissons Ratio (z) = -1.06183 -1.06185
#
# Static dielectric constant tensor:
#      x y z
#    x 1.779780 0.000000 0.000000 
#    y 0.000000 1.779790 0.000000 
#    z 0.000000 0.000000 1.801550 
# 
# From -- ./inp_files/3275.got.cif
#   From: 2010.05.17/outbox.cif.g08.bks.cpg/sg165_2_cif.got.tgz:3275.got - 2010.05.20 11:02:39.
