data_PCOD9578083
_publ_section_title
;
Structure prediction by ZEFSAII (Michael W. Deem and Ramdas Pophale) SiO2 
 PCOD9578083
Probable space group: P -3 1 C
;
_chemical_formula_sum "Si O2"
_cell_formula_units_Z 42
_cell_length_a 10.216789
_cell_length_b 10.216789
_cell_length_c 24.365790
_cell_angle_alpha 90.000000
_cell_angle_beta 90.000000
_cell_angle_gamma 120.000000
_cell_volume 2202.622023
_symmetry_space_group_name_H-M "P -3 1 C"
_symmetry_group_IT_number 163
_symmetry_cell_setting 'hexagonal'
loop_
_space_group_symop_operation_xyz
x,y,z
-y,x-y,z
-x+y,-x,z
-y,-x,1/2-z
-x+y,y,1/2-z
x,x-y,1/2-z
-x,-y,-z
y,-x+y,-z
x-y,x,-z
y,x,1/2+z
x-y,-y,1/2+z
-x,-x+y,1/2+z
loop_
_atom_site_type_symbol
_atom_site_label
_atom_site_fract_x
_atom_site_fract_y
_atom_site_fract_z
Si Si1 0.556323 0.140463 0.460435
Si Si2 0.825512 0.651024 0.250000
Si Si3 0.872501 0.626876 0.806932
Si Si4 0.988070 0.575476 0.158065
O O1 0.490784 0.079890 0.672641
O O2 0.500000 0.000000 0.500000
O O3 0.504193 0.263514 0.470479
O O4 0.503698 0.092660 0.398095
O O5 0.775635 0.748231 0.211883
O O6 0.873723 0.561340 0.207088
O O7 0.783686 0.567371 0.750000
O O8 0.755153 0.645535 0.845344
#
# Coordination Sequence:
#
# PCOD9578083 Si02
#       4
#    12   6  12  12
#     4  10  25  45  74 104 133 185 243 299 362 413
#     4  10  20  36  54  96 136 174 222 284 350 428
#     4  10  21  35  60  91 129 176 220 276 350 421
#     4  11  22  41  65  95 134 181 237 291 349 438
#
# _framework density 19.068183999999999
#
# number of rings (size 3 to 8) (size 9 to 14) (size 15 to 20)
#    0.571    1.143    0.000    5.714    4.000    2.286 
#   30.000    0.000    0.000    0.571    0.000    0.000 
#    0.000    0.000    0.000    0.000    0.000    0.000 
#
# Total GULP energy -233878.056303 kJ/mol
# GULP energy per Si atom -5568.525150 kJ/mol
# Density = 1.902478 g / cm^3
# Si number density = 19.068184 Si / 1000 Ang^3
#
#
#
# Elastic Constant Matrix: (Units=GPa)
#
#
# Indices 1 2 3 4 5 6 
#
# 1 119.8270 46.3018 54.8302 0.0000 -4.4553 0.0000
# 2 46.3018 119.8270 54.8302 0.0000 4.4553 0.0000
# 3 54.8302 54.8302 91.3540 0.0000 0.0000 0.0000
# 4 0.0000 0.0000 0.0000 38.5310 0.0000 4.4553
# 5 -4.4553 4.4553 0.0000 0.0000 38.5310 0.0000
# 6 0.0000 0.0000 0.0000 4.4553 0.0000 36.7626
#
#
#
# Elastic Compliance Matrix: (Units=1/GPa)
#
#
# Indices 1 2 3 4 5 6 
#
# 1 0.011882 -0.001913 -0.005983 0.000000 0.001595 0.000000
# 2 -0.001913 0.011882 -0.005983 0.000000 -0.001595 0.000000
# 3 -0.005983 -0.005983 0.018129 0.000000 0.000000 0.000000
# 4 0.000000 0.000000 0.000000 0.026322 0.000000 -0.003190
# 5 0.001595 -0.001595 0.000000 0.000000 0.026322 0.000000
# 6 0.000000 0.000000 0.000000 -0.003190 0.000000 0.027588
#
#
# Mechanical properties :
#
#
# Convention : Reuss Voigt Hill
#
# Bulk Modulus (GPa) = 70.75442 71.43694 71.09568
# Shear Modulus (GPa) = 32.34288 34.43463 33.38876
#
# Velocity S-wave (km/s) = 4.12293 4.25416 4.18906
# Velocity P-wave (km/s) = 7.73636 7.85339 7.79510
#
# Compressibility (1/GPa) = 0.01413339
#
# Stress axis : x y z
#
# Youngs Moduli (GPa) = 84.16421 84.16421 55.16096
#
# Poissons Ratio (x) = 0.16097 0.33005
# Poissons Ratio (y) = 0.16097 0.33005
# Poissons Ratio (z) = 0.50358 0.50358
#
# Static dielectric constant tensor:
#      x y z
#    x 1.725880 0.000000 0.000000 
#    y 0.000000 1.725880 0.000000 
#    z 0.000000 0.000000 1.683720 
# 
# From -- ./inp_files/2907.got.cif
#   From: 2010.05.17/outbox.cif.g08.bks.cpg/sg163_2_cif.got.tgz:2907.got - 2010.05.20 10:56:03.
