data_PCOD9578191
_publ_section_title
;
Structure prediction by ZEFSAII (Michael W. Deem and Ramdas Pophale) SiO2 
 PCOD9578191
Probable space group: P -3 1 C
;
_chemical_formula_sum "Si O2"
_cell_formula_units_Z 66
_cell_length_a 20.480613
_cell_length_b 20.480613
_cell_length_c 9.395988
_cell_angle_alpha 90.000000
_cell_angle_beta 90.000000
_cell_angle_gamma 120.000000
_cell_volume 3413.178393
_symmetry_space_group_name_H-M "P -3 1 C"
_symmetry_group_IT_number 163
_symmetry_cell_setting 'hexagonal'
loop_
_space_group_symop_operation_xyz
x,y,z
-y,x-y,z
-x+y,-x,z
-y,-x,1/2-z
-x+y,y,1/2-z
x,x-y,1/2-z
-x,-y,-z
y,-x+y,-z
x-y,x,-z
y,x,1/2+z
x-y,-y,1/2+z
-x,-x+y,1/2+z
loop_
_atom_site_type_symbol
_atom_site_label
_atom_site_fract_x
_atom_site_fract_y
_atom_site_fract_z
Si Si1 0.898146 0.232219 0.664783
Si Si2 0.493834 0.234761 0.554446
Si Si3 0.333900 0.288465 0.144924
Si Si4 0.417527 0.208764 0.250000
Si Si5 0.436322 0.944369 0.896618
Si Si6 0.579366 0.175831 0.898429
O O1 0.846734 0.153267 0.750000
O O2 0.836238 0.258911 0.631125
O O3 0.934021 0.240623 0.504402
O O4 0.968401 0.280281 0.770596
O O5 0.469182 0.225285 0.389048
O O6 0.571350 0.238990 0.605687
O O7 0.512646 0.319105 0.587570
O O8 0.363685 0.245512 0.248881
O O9 0.408365 0.366973 0.106393
O O10 0.474978 0.949955 0.750000
O O11 0.413574 0.864478 0.963006
O O12 0.500000 0.000000 0.000000
O O13 0.565900 0.131799 0.750000
#
# Coordination Sequence:
#
# PCOD9578191 Si02
#       6
#    12  12  12   6  12  12
#     4  11  25  44  69 100 137 181 229 288 350 422
#     4  11  25  41  67  89 135 176 237 288 355 407
#     4  11  25  44  68  99 136 184 227 293 351 417
#     4  10  22  46  66 100 128 176 230 294 350 422
#     4  12  25  39  61  91 127 174 231 285 344 406
#     4  12  24  41  59  89 124 174 227 285 342 400
#
# _framework density 19.336815999999999
#
# number of rings (size 3 to 8) (size 9 to 14) (size 15 to 20)
#    0.000    0.727    3.636    4.727   10.182    0.000 
#    0.000    0.000    0.000    0.000    0.000    0.000 
#    0.909    1.455    0.000    0.000    0.000    0.000 
#
# Total GULP energy -367577.556596 kJ/mol
# GULP energy per Si atom -5569.356918 kJ/mol
# Density = 1.929280 g / cm^3
# Si number density = 19.336816 Si / 1000 Ang^3
#
#
#
# Elastic Constant Matrix: (Units=GPa)
#
#
# Indices 1 2 3 4 5 6 
#
# 1 18.7499 112.9504 45.2663 -0.0001 -111.2483 0.0000
# 2 112.9504 18.7499 45.2663 0.0001 111.2483 0.0000
# 3 45.2663 45.2663 155.2642 0.0000 0.0000 0.0000
# 4 -0.0001 0.0001 0.0000 -116.2404 0.0000 111.2483
# 5 -111.2483 111.2483 0.0000 0.0000 -116.2404 -0.0001
# 6 0.0000 0.0000 0.0000 111.2483 -0.0001 -47.1002
#
#
#
# Elastic Compliance Matrix: (Units=1/GPa)
#
#
# Indices 1 2 3 4 5 6 
#
# 1 0.008959 0.000537 -0.002769 0.000000 -0.008060 0.000000
# 2 0.000537 0.008959 -0.002769 0.000000 0.008060 0.000000
# 3 -0.002769 -0.002769 0.008055 0.000000 0.000000 0.000000
# 4 0.000000 0.000000 0.000000 0.006825 0.000000 0.016120
# 5 -0.008060 0.008060 0.000000 0.000000 0.006825 0.000000
# 6 0.000000 0.000000 0.000000 0.016120 0.000000 0.016843
#
#
# Mechanical properties :
#
#
# Convention : Reuss Voigt Hill
#
# Bulk Modulus (GPa) = 62.60545 66.63665 64.62105
# Shear Modulus (GPa) = 69.64759 -56.63079 6.50840
#
# Velocity S-wave (km/s) = 6.00802 -5.41757 1.83660
# Velocity P-wave (km/s) = 8.97636 2.14421 6.16350
#
# Compressibility (1/GPa) = 0.01597305
#
# Stress axis : x y z
#
# Youngs Moduli (GPa) = 111.62068 111.62068 124.14758
#
# Poissons Ratio (x) = -0.05996 0.34371
# Poissons Ratio (y) = -0.05996 0.34371
# Poissons Ratio (z) = 0.30903 0.30903
#
# Static dielectric constant tensor:
#      x y z
#    x 1.685230 0.000000 0.000000 
#    y 0.000000 1.685230 0.000000 
#    z 0.000000 0.000000 1.706530 
# 
# From -- ./inp_files/1157.got.cif
#   From: 2010.05.17/outbox.cif.g08.bks.cpg/sg163_1_cif.got.tgz:1157.got - 2010.05.20 10:56:03.
