data_PCOD9578305
_publ_section_title
;
Structure prediction by ZEFSAII (Michael W. Deem and Ramdas Pophale) SiO2 
 PCOD9578305
Probable space group: P -3 1 C
;
_chemical_formula_sum "Si O2"
_cell_formula_units_Z 84
_cell_length_a 21.000000
_cell_length_b 21.000000
_cell_length_c 12.000000
_cell_angle_alpha 90.000000
_cell_angle_beta 90.000000
_cell_angle_gamma 120.000000
_cell_volume 4583.006437
_symmetry_space_group_name_H-M "P -3 1 C"
_symmetry_group_IT_number 163
_symmetry_cell_setting 'hexagonal'
loop_
_space_group_symop_operation_xyz
x,y,z
-y,x-y,z
-x+y,-x,z
-y,-x,1/2-z
-x+y,y,1/2-z
x,x-y,1/2-z
-x,-y,-z
y,-x+y,-z
x-y,x,-z
y,x,1/2+z
x-y,-y,1/2+z
-x,-x+y,1/2+z
loop_
_atom_site_type_symbol
_atom_site_label
_atom_site_fract_x
_atom_site_fract_y
_atom_site_fract_z
Si Si1 0.618222 0.878408 0.234278
Si Si2 0.896387 0.439558 0.441746
Si Si3 0.074654 0.770501 0.996507
Si Si4 0.133552 0.691175 0.846543
Si Si5 0.955456 0.425810 0.842545
Si Si6 0.692600 0.784716 0.034342
Si Si7 0.281351 0.457672 0.593777
O O1 0.578585 0.789293 0.250000
O O2 0.656063 0.898383 0.114518
O O3 0.571731 0.920111 0.222329
O O4 0.678474 0.907077 0.332899
O O5 0.892209 0.498407 0.361435
O O6 0.902666 0.474840 0.562438
O O7 0.828841 0.357932 0.433686
O O8 0.966856 0.430023 0.410323
O O9 0.135015 0.855573 0.981040
O O10 0.082662 0.717472 0.907057
O O11 0.990545 0.746589 0.001086
O O12 0.143830 0.711566 0.717548
O O13 0.212797 0.741571 0.904136
O O14 0.967480 0.483740 0.750000
O O15 0.609615 0.736785 0.987431
#
# Coordination Sequence:
#
# PCOD9578305 Si02
#       7
#    12  12  12  12  12  12  12
#     4  10  21  38  57  80 115 150 185 235 285 339
#     4  11  22  35  54  81 111 143 189 240 281 340
#     4  10  21  37  57  84 111 146 181 226 282 337
#     4  10  21  37  54  79 111 143 188 237 284 333
#     4  11  22  33  54  84 107 143 189 236 286 334
#     4  10  22  36  59  83 113 145 182 229 279 340
#     4  10  21  36  55  78 107 148 187 230 286 335
#
# _framework density 18.328579999999999
#
# number of rings (size 3 to 8) (size 9 to 14) (size 15 to 20)
#    0.000    1.714    1.429    3.000    8.000    0.000 
#    0.857    0.000    0.000    0.571    0.000    0.000 
#    0.000    0.000    0.000    0.000    0.000    0.000 
#
# Total GULP energy -467924.515036 kJ/mol
# GULP energy per Si atom -5570.529941 kJ/mol
# Density = 1.828686 g / cm^3
# Si number density = 18.328580 Si / 1000 Ang^3
#
#
#
# Elastic Constant Matrix: (Units=GPa)
#
#
# Indices 1 2 3 4 5 6 
#
# 1 68.5161 59.9339 -5.6099 -0.0001 6.2884 0.0000
# 2 59.9339 68.5161 -5.6099 0.0001 -6.2884 0.0000
# 3 -5.6099 -5.6099 33.8374 0.0000 0.0000 0.0000
# 4 -0.0001 0.0001 0.0000 14.2226 0.0000 -6.2884
# 5 6.2884 -6.2884 0.0000 0.0000 14.2226 -0.0001
# 6 0.0000 0.0000 0.0000 -6.2884 -0.0001 4.2911
#
#
#
# Elastic Compliance Matrix: (Units=1/GPa)
#
#
# Indices 1 2 3 4 5 6 
#
# 1 0.169434 -0.161534 0.001310 0.000003 -0.146335 0.000000
# 2 -0.161534 0.169434 0.001310 -0.000003 0.146335 0.000000
# 3 0.001310 0.001310 0.029987 0.000000 0.000000 0.000000
# 4 0.000003 -0.000003 0.000000 0.199713 0.000000 0.292671
# 5 -0.146335 0.146335 0.000000 0.000000 0.199713 0.000007
# 6 0.000000 0.000000 0.000000 0.292671 0.000007 0.661935
#
#
# Mechanical properties :
#
#
# Convention : Reuss Voigt Hill
#
# Bulk Modulus (GPa) = 19.59820 29.81085 24.70452
# Shear Modulus (GPa) = 2.83277 14.69097 8.76187
#
# Velocity S-wave (km/s) = 1.24455 2.83421 2.18879
# Velocity P-wave (km/s) = 3.57507 5.19714 4.46046
#
# Compressibility (1/GPa) = 0.05102510
#
# Stress axis : x y z
#
# Youngs Moduli (GPa) = 5.90202 5.90202 33.34735
#
# Poissons Ratio (x) = 0.95338 -0.04367
# Poissons Ratio (y) = 0.95338 -0.04367
# Poissons Ratio (z) = -0.00773 -0.00773
#
# Static dielectric constant tensor:
#      x y z
#    x 1.604610 0.000000 0.000000 
#    y 0.000000 1.604610 0.000000 
#    z 0.000000 0.000000 1.547450 
# 
# From -- ./inp_files/1844.got.cif
#   From: 2010.05.17/outbox.ucp.g08.bks.cvg/sg163_1_cif.got.tgz:1844.got - 2010.06.11 15:15:55.
