data_PCOD9578229
_publ_section_title
;
Structure prediction by ZEFSAII (Michael W. Deem and Ramdas Pophale) SiO2 
 PCOD9578229
Probable space group: P -3 1 C
;
_chemical_formula_sum "Si O2"
_cell_formula_units_Z 56
_cell_length_a 14.013673
_cell_length_b 14.013673
_cell_length_c 16.719469
_cell_angle_alpha 90.000000
_cell_angle_beta 90.000000
_cell_angle_gamma 120.000000
_cell_volume 2843.525130
_symmetry_space_group_name_H-M "P -3 1 C"
_symmetry_group_IT_number 163
_symmetry_cell_setting 'hexagonal'
loop_
_space_group_symop_operation_xyz
x,y,z
-y,x-y,z
-x+y,-x,z
-y,-x,1/2-z
-x+y,y,1/2-z
x,x-y,1/2-z
-x,-y,-z
y,-x+y,-z
x-y,x,-z
y,x,1/2+z
x-y,-y,1/2+z
-x,-x+y,1/2+z
loop_
_atom_site_type_symbol
_atom_site_label
_atom_site_fract_x
_atom_site_fract_y
_atom_site_fract_z
Si Si1 0.741460 0.848429 0.515659
Si Si2 0.576231 0.830181 0.127426
Si Si3 0.666668 0.333335 0.651268
Si Si4 0.248424 0.418101 0.839299
Si Si5 0.333334 0.666667 0.847483
Si Si6 0.944097 0.364388 0.725425
O O1 0.825756 0.802282 0.508964
O O2 0.642655 0.779569 0.453586
O O3 0.681785 0.825215 0.601531
O O4 0.444077 0.773026 0.120050
O O5 0.626045 0.933500 0.188429
O O6 0.584807 0.732192 0.171448
O O7 0.666668 0.333334 0.750000
O O8 0.200440 0.400879 0.750000
O O9 0.275139 0.538044 0.870731
O O10 0.361995 0.418909 0.822707
O O11 0.333334 0.666667 0.750000
O O12 0.918441 0.459221 0.750000
#
# Coordination Sequence:
#
# PCOD9578229 Si02
#       6
#    12  12   4  12   4  12
#     4  12  27  47  65  93 131 173 227 287 331 381
#     4  11  21  37  65  96 131 170 211 270 331 389
#     4  12  18  40  65 103 145 164 205 279 340 398
#     4  11  23  43  67  95 131 177 217 263 328 408
#     4   9  21  43  65  94 141 172 209 262 328 404
#     4  11  19  37  66  97 131 168 214 263 329 391
#
# _framework density 19.693866
#
# number of rings (size 3 to 8) (size 9 to 14) (size 15 to 20)
#    0.000    0.857    6.429    3.429    0.000    1.714 
#    0.000    3.214    0.000    0.000    0.000    0.000 
#    0.000    0.000    0.000    0.000    0.000    0.000 
#
# Total GULP energy -312482.551435 kJ/mol
# GULP energy per Si atom -5580.045561 kJ/mol
# Density = 1.964904 g / cm^3
# Si number density = 19.693866 Si / 1000 Ang^3
#
#
#
# Elastic Constant Matrix: (Units=GPa)
#
#
# Indices 1 2 3 4 5 6 
#
# 1 89.8262 30.6873 29.3958 -0.0002 -4.1658 0.0003
# 2 30.6873 89.8267 29.3961 0.0001 4.1657 0.0003
# 3 29.3958 29.3961 73.9439 0.0001 0.0001 0.0002
# 4 -0.0002 0.0001 0.0001 24.2012 -0.0002 4.1657
# 5 -4.1658 4.1657 0.0001 -0.0002 24.2012 -0.0003
# 6 0.0003 0.0003 0.0002 4.1657 -0.0003 29.5696
#
#
#
# Elastic Compliance Matrix: (Units=1/GPa)
#
#
# Indices 1 2 3 4 5 6 
#
# 1 0.013812 -0.003518 -0.004092 0.000000 0.002983 0.000000
# 2 -0.003518 0.013812 -0.004092 0.000000 -0.002983 0.000000
# 3 -0.004092 -0.004092 0.016778 0.000000 0.000000 0.000000
# 4 0.000000 0.000000 0.000000 0.042347 0.000000 -0.005966
# 5 0.002983 -0.002983 0.000000 0.000000 0.042347 0.000000
# 6 0.000000 0.000000 0.000000 -0.005966 0.000000 0.034659
#
#
# Mechanical properties :
#
#
# Convention : Reuss Voigt Hill
#
# Bulk Modulus (GPa) = 47.62711 48.06169 47.84440
# Shear Modulus (GPa) = 25.75216 26.53557 26.14387
#
# Velocity S-wave (km/s) = 3.62003 3.67468 3.64746
# Velocity P-wave (km/s) = 6.45826 6.51627 6.48733
#
# Compressibility (1/GPa) = 0.02099644
#
# Stress axis : x y z
#
# Youngs Moduli (GPa) = 72.40117 72.40147 59.60325
#
# Poissons Ratio (x) = 0.25468 0.24392
# Poissons Ratio (y) = 0.25468 0.24392
# Poissons Ratio (z) = 0.29630 0.29630
#
# Static dielectric constant tensor:
#      x y z
#    x 1.716500 0.000000 0.000000 
#    y 0.000000 1.716490 0.000000 
#    z 0.000000 0.000000 1.688190 
# 
# From -- ./inp_files/3050.got.cif
#   From: 2010.05.17/outbox.cif.g08.bks.cpg/sg163_2_cif.got.tgz:3050.got - 2010.05.20 10:56:03.
