data_PCOD9578082
_publ_section_title
;
Structure prediction by ZEFSAII (Michael W. Deem and Ramdas Pophale) SiO2 
 PCOD9578082
Probable space group: P -3 1 C
;
_chemical_formula_sum "Si O2"
_cell_formula_units_Z 54
_cell_length_a 23.571264
_cell_length_b 23.571264
_cell_length_c 5.683763
_cell_angle_alpha 90.000000
_cell_angle_beta 90.000000
_cell_angle_gamma 120.000000
_cell_volume 2734.842601
_symmetry_space_group_name_H-M "P -3 1 C"
_symmetry_group_IT_number 163
_symmetry_cell_setting 'hexagonal'
loop_
_space_group_symop_operation_xyz
x,y,z
-y,x-y,z
-x+y,-x,z
-y,-x,1/2-z
-x+y,y,1/2-z
x,x-y,1/2-z
-x,-y,-z
y,-x+y,-z
x-y,x,-z
y,x,1/2+z
x-y,-y,1/2+z
-x,-x+y,1/2+z
loop_
_atom_site_type_symbol
_atom_site_label
_atom_site_fract_x
_atom_site_fract_y
_atom_site_fract_z
Si Si1 0.394006 0.922423 0.788047
Si Si2 0.573280 0.646180 0.291048
Si Si3 0.856510 0.143491 0.250000
Si Si4 0.906365 0.687574 0.856186
Si Si5 0.841174 0.012359 0.401452
O O1 0.459075 0.918150 0.750000
O O2 0.353444 0.896046 0.544291
O O3 0.414467 0.999177 0.799758
O O4 0.362568 0.896240 0.046894
O O5 0.642326 0.712571 0.261111
O O6 0.884527 0.213017 0.371150
O O7 0.915415 0.149572 0.085762
O O8 0.838370 0.676740 0.750000
O O9 0.962940 0.763207 0.874627
O O10 0.863095 0.995891 0.647621
#
# Coordination Sequence:
#
# PCOD9578082 Si02
#       5
#    12  12   6  12  12
#     4  10  20  36  53  79 106 140 188 225 252 329
#     4  10  21  29  54  73 103 144 179 220 270 313
#     4  10  22  34  52  68 110 140 196 240 272 358
#     4  11  23  35  51  77 113 146 190 237 291 346
#     4  10  21  34  50  69  98 140 179 227 284 331
#
# _framework density 19.745194999999999
#
# number of rings (size 3 to 8) (size 9 to 14) (size 15 to 20)
#    0.000    1.778    2.222    3.333   15.556    0.000 
#    0.000    0.000    0.000    0.000    0.000    0.000 
#    1.111    4.000    0.000   30.000    0.000    0.000 
#
# Total GULP energy -300658.047132 kJ/mol
# GULP energy per Si atom -5567.741614 kJ/mol
# Density = 1.970025 g / cm^3
# Si number density = 19.745195 Si / 1000 Ang^3
#
#
#
# Elastic Constant Matrix: (Units=GPa)
#
#
# Indices 1 2 3 4 5 6 
#
# 1 46.3447 11.0987 9.4762 0.0001 6.0012 0.0000
# 2 11.0987 46.3447 9.4762 -0.0001 -6.0012 0.0000
# 3 9.4762 9.4762 174.1816 0.0000 0.0000 0.0000
# 4 0.0001 -0.0001 0.0000 23.7322 0.0000 -6.0012
# 5 6.0012 -6.0012 0.0000 0.0000 23.7322 0.0001
# 6 0.0000 0.0000 0.0000 -6.0012 0.0001 17.6230
#
#
#
# Elastic Compliance Matrix: (Units=1/GPa)
#
#
# Indices 1 2 3 4 5 6 
#
# 1 0.024386 -0.006659 -0.000964 0.000000 -0.007850 0.000000
# 2 -0.006659 0.024386 -0.000964 0.000000 0.007850 0.000000
# 3 -0.000964 -0.000964 0.005846 0.000000 0.000000 0.000000
# 4 0.000000 0.000000 0.000000 0.046107 0.000000 0.015701
# 5 -0.007850 0.007850 0.000000 0.000000 0.046107 0.000000
# 6 0.000000 0.000000 0.000000 0.015701 0.000000 0.062091
#
#
# Mechanical properties :
#
#
# Convention : Reuss Voigt Hill
#
# Bulk Modulus (GPa) = 26.70819 36.33035 31.51927
# Shear Modulus (GPa) = 20.95735 28.80549 24.88142
#
# Velocity S-wave (km/s) = 3.26143 3.82365 3.55368
# Velocity P-wave (km/s) = 5.26672 6.15900 5.73025
#
# Compressibility (1/GPa) = 0.03744170
#
# Stress axis : x y z
#
# Youngs Moduli (GPa) = 41.00718 41.00718 171.05506
#
# Poissons Ratio (x) = 0.27308 0.16497
# Poissons Ratio (y) = 0.27308 0.16497
# Poissons Ratio (z) = 0.03955 0.03955
#
# Static dielectric constant tensor:
#      x y z
#    x 1.456980 0.000000 0.000000 
#    y 0.000000 1.456980 0.000000 
#    z 0.000000 0.000000 2.065010 
# 
# From -- ./inp_files/311.got.cif
#   From: 2010.05.17/outbox.cif.g08.bks.cpg/sg163_1_cif.got.tgz:311.got - 2010.05.20 10:56:03.
