data_PCOD9578674
_publ_section_title
;
Structure prediction by ZEFSAII (Michael W. Deem and Ramdas Pophale) SiO2 
 PCOD9578674
Probable space group: P -3 M 1
;
_chemical_formula_sum "Si O2"
_cell_formula_units_Z 84
_cell_length_a 21.750868
_cell_length_b 21.750868
_cell_length_c 11.206931
_cell_angle_alpha 90.000000
_cell_angle_beta 90.000000
_cell_angle_gamma 120.000000
_cell_volume 4591.668385
_symmetry_space_group_name_H-M "P -3 M 1"
_symmetry_group_IT_number 164
_symmetry_cell_setting 'hexagonal'
loop_
_space_group_symop_operation_xyz
x,y,z
-y,x-y,z
-x+y,-x,z
x-y,-y,-z
-x,-x+y,-z
y,x,-z
-x,-y,-z
y,-x+y,-z
x-y,x,-z
-x+y,y,z
x,x-y,z
-y,-x,z
loop_
_atom_site_type_symbol
_atom_site_label
_atom_site_fract_x
_atom_site_fract_y
_atom_site_fract_z
Si Si1 0.280590 0.426803 0.435743
Si Si2 0.363644 0.874649 0.663960
Si Si3 0.186901 0.519971 0.931353
Si Si4 0.702254 0.779189 0.287380
Si Si5 0.143388 0.999174 0.643860
Si Si6 0.935207 0.332049 0.914867
Si Si7 0.966504 0.414275 0.696245
O O1 0.221787 0.443574 0.384164
O O2 0.302794 0.461640 0.565082
O O3 0.246663 0.342170 0.412098
O O4 0.352514 0.455681 0.363265
O O5 0.435200 0.870400 0.635431
O O6 0.340394 0.841544 0.795238
O O7 0.382692 0.956972 0.662898
O O8 0.266792 0.533584 0.939801
O O9 0.183863 0.591932 0.959852
O O10 0.134814 0.452788 0.014284
O O11 0.708649 0.854325 0.259614
O O12 0.782157 0.795373 0.301610
O O13 0.653574 0.725253 0.184300
O O14 0.074705 0.925296 0.679012
O O15 0.149872 0.000000 0.500000
O O16 0.133136 0.066568 0.673898
O O17 0.959244 0.402795 0.837240
O O18 0.000000 0.347426 0.000000
O O19 0.971218 0.485609 0.657007
#
# Coordination Sequence:
#
# PCOD9578674 Si02
#       7
#    12  12  12  12  12  12  12
#     4  10  20  34  53  78 113 150 182 219 275 341
#     4  10  20  35  58  85 111 141 185 234 282 337
#     4  11  23  39  60  86 116 148 185 233 289 344
#     4   9  20  36  54  78 113 152 189 232 283 333
#     4   9  17  32  55  84 116 152 192 233 280 339
#     4  11  21  37  58  81 111 148 191 240 280 332
#     4  10  20  35  58  82 107 141 186 238 279 325
#
# _framework density 18.294003
#
# number of rings (size 3 to 8) (size 9 to 14) (size 15 to 20)
#    0.000    2.000    1.429    2.429    0.000    5.143 
#    0.000    1.429    0.000    3.143    0.000    0.000 
#    0.000    2.857    0.000    0.000    0.000    0.000 
#
# Total GULP energy -467645.470915 kJ/mol
# GULP energy per Si atom -5567.207987 kJ/mol
# Density = 1.825237 g / cm^3
# Si number density = 18.294003 Si / 1000 Ang^3
#
#
#
# Elastic Constant Matrix: (Units=GPa)
#
#
# Indices 1 2 3 4 5 6 
#
# 1 34.8984 111.8655 37.3041 -46.9133 0.0000 0.0000
# 2 111.8655 34.8984 37.3041 46.9133 0.0000 0.0000
# 3 37.3041 37.3041 60.3135 0.0000 0.0000 0.0000
# 4 -46.9133 46.9133 0.0000 -14.4405 0.0000 0.0000
# 5 0.0000 0.0000 0.0000 0.0000 -14.4405 -46.9133
# 6 0.0000 0.0000 0.0000 0.0000 -46.9133 -38.4835
#
#
#
# Elastic Compliance Matrix: (Units=1/GPa)
#
#
# Indices 1 2 3 4 5 6 
#
# 1 0.007164 0.002775 -0.006147 -0.014258 0.000000 0.000000
# 2 0.002775 0.007164 -0.006147 0.014258 0.000000 0.000000
# 3 -0.006147 -0.006147 0.024184 0.000000 0.000000 0.000000
# 4 -0.014258 0.014258 0.000000 0.023392 0.000000 0.000000
# 5 0.000000 0.000000 0.000000 0.000000 0.023392 -0.028516
# 6 0.000000 0.000000 0.000000 0.000000 -0.028516 0.008778
#
#
# Mechanical properties :
#
#
# Convention : Reuss Voigt Hill
#
# Bulk Modulus (GPa) = 51.35330 55.89529 53.62429
# Shear Modulus (GPa) = 41.80499 -17.23047 12.28726
#
# Velocity S-wave (km/s) = 4.78554 -3.07231 2.59444
# Velocity P-wave (km/s) = 7.65945 4.24674 6.19282
#
# Compressibility (1/GPa) = 0.01947295
#
# Stress axis : x y z
#
# Youngs Moduli (GPa) = 139.59292 139.59292 41.34976
#
# Poissons Ratio (x) = -0.38735 0.25418
# Poissons Ratio (y) = -0.38735 0.25418
# Poissons Ratio (z) = 0.85808 0.85808
#
# Static dielectric constant tensor:
#      x y z
#    x 1.657160 0.000000 0.000000 
#    y 0.000000 1.657160 0.000000 
#    z 0.000000 0.000000 1.655770 
# 
# From -- ./inp_files/2925.got.cif
#   From: 2010.05.17/outbox.cif.g08.bks.cpg/sg164_2_cif.got.tgz:2925.got - 2010.05.20 10:58:56.
