data_PCOD9578531
_publ_section_title
;
Structure prediction by ZEFSAII (Michael W. Deem and Ramdas Pophale) SiO2 
 PCOD9578531
Probable space group: P -3 M 1
;
_chemical_formula_sum "Si O2"
_cell_formula_units_Z 66
_cell_length_a 13.009609
_cell_length_b 13.009609
_cell_length_c 28.904902
_cell_angle_alpha 90.000000
_cell_angle_beta 90.000000
_cell_angle_gamma 120.000000
_cell_volume 4236.728374
_symmetry_space_group_name_H-M "P -3 M 1"
_symmetry_group_IT_number 164
_symmetry_cell_setting 'hexagonal'
loop_
_space_group_symop_operation_xyz
x,y,z
-y,x-y,z
-x+y,-x,z
x-y,-y,-z
-x,-x+y,-z
y,x,-z
-x,-y,-z
y,-x+y,-z
x-y,x,-z
-x+y,y,z
x,x-y,z
-y,-x,z
loop_
_atom_site_type_symbol
_atom_site_label
_atom_site_fract_x
_atom_site_fract_y
_atom_site_fract_z
Si Si1 0.422607 0.089070 0.457351
Si Si2 0.755501 0.755501 0.000000
Si Si3 0.333577 0.422242 0.185909
Si Si4 0.000217 0.758519 0.374924
Si Si5 0.757535 0.757831 0.732015
Si Si6 0.246203 0.246152 0.898403
O O1 0.553404 0.106807 0.452759
O O2 0.428057 0.214029 0.465268
O O3 0.359201 0.000000 0.500000
O O4 0.345814 0.031907 0.411139
O O5 0.703893 0.701342 0.949749
O O6 0.884494 0.768987 0.001620
O O7 0.223627 0.447254 0.184981
O O8 0.457262 0.542739 0.184755
O O9 0.317440 0.346127 0.232024
O O10 0.315725 0.338586 0.142027
O O11 0.126309 0.873692 0.385188
O O12 0.000405 0.722965 0.321493
O O13 0.895574 0.791147 0.378355
O O14 0.893893 0.787786 0.736607
O O15 0.749383 0.874692 0.741977
O O16 0.123602 0.247204 0.892457
O O17 0.220948 0.110474 0.896602
#
# Coordination Sequence:
#
# PCOD9578531 Si02
#       6
#    12   6  12  12  12  12
#     4  10  20  33  49  68  92 123 158 195 231 268
#     4   8  13  22  39  66  96 118 136 166 218 278
#     4  10  20  32  45  61  85 119 156 190 220 254
#     4   9  17  30  49  73  98 121 145 177 222 274
#     4   9  17  30  50  74  96 116 141 180 229 276
#     4   9  16  27  46  71  95 116 140 177 226 276
#
# _framework density 15.578056999999999
#
# number of rings (size 3 to 8) (size 9 to 14) (size 15 to 20)
#    0.000    2.727    0.000    2.091    0.000    3.636 
#    0.000    2.273    0.000    6.182    0.000    0.000 
#    0.000    0.000    0.000    0.000    0.000    0.000 
#
# Total GULP energy -367647.023672 kJ/mol
# GULP energy per Si atom -5570.409450 kJ/mol
# Density = 1.554260 g / cm^3
# Si number density = 15.578057 Si / 1000 Ang^3
#
#
#
# Elastic Constant Matrix: (Units=GPa)
#
#
# Indices 1 2 3 4 5 6 
#
# 1 98.5883 57.0580 79.6020 -0.9483 0.0000 0.0000
# 2 57.0580 98.5883 79.6020 0.9483 0.0000 0.0000
# 3 79.6020 79.6020 132.9051 0.0000 0.0000 0.0000
# 4 -0.9483 0.9483 0.0000 17.1871 0.0000 0.0000
# 5 0.0000 0.0000 0.0000 0.0000 17.1871 -0.9483
# 6 0.0000 0.0000 0.0000 0.0000 -0.9483 20.7651
#
#
#
# Elastic Compliance Matrix: (Units=1/GPa)
#
#
# Indices 1 2 3 4 5 6 
#
# 1 0.020363 -0.003777 -0.009934 0.001332 0.000000 0.000000
# 2 -0.003777 0.020363 -0.009934 -0.001332 0.000000 0.000000
# 3 -0.009934 -0.009934 0.019424 0.000000 0.000000 0.000000
# 4 0.001332 -0.001332 0.000000 0.058330 0.000000 0.000000
# 5 0.000000 0.000000 0.000000 0.000000 0.058330 0.002664
# 6 0.000000 0.000000 0.000000 0.000000 0.002664 0.048279
#
#
# Mechanical properties :
#
#
# Convention : Reuss Voigt Hill
#
# Bulk Modulus (GPa) = 77.76169 84.73395 81.24782
# Shear Modulus (GPa) = 18.07244 18.61585 18.34414
#
# Velocity S-wave (km/s) = 3.40975 3.46063 3.43529
# Velocity P-wave (km/s) = 8.09492 8.39519 8.24642
#
# Compressibility (1/GPa) = 0.01285980
#
# Stress axis : x y z
#
# Youngs Moduli (GPa) = 49.10943 49.10943 51.48351
#
# Poissons Ratio (x) = 0.18548 0.51143
# Poissons Ratio (y) = 0.18548 0.51143
# Poissons Ratio (z) = 0.48785 0.48785
#
# Static dielectric constant tensor:
#      x y z
#    x 1.487370 0.000000 0.000000 
#    y 0.000000 1.487370 0.000000 
#    z 0.000000 0.000000 1.548680 
# 
# From -- ./inp_files/5510.got.cif
#   From: 2010.05.17/outbox.cif.g08.bks.cpg/sg164_3_cif.got.tgz:5510.got - 2010.05.20 10:58:56.
