data_PCOD9578293
_publ_section_title
;
Structure prediction by ZEFSAII (Michael W. Deem and Ramdas Pophale) SiO2 
 PCOD9578293
Probable space group: P -3 1 C
;
_chemical_formula_sum "Si O2"
_cell_formula_units_Z 46
_cell_length_a 13.904017
_cell_length_b 13.904017
_cell_length_c 12.011916
_cell_angle_alpha 90.000000
_cell_angle_beta 90.000000
_cell_angle_gamma 120.000000
_cell_volume 2011.052917
_symmetry_space_group_name_H-M "P -3 1 C"
_symmetry_group_IT_number 163
_symmetry_cell_setting 'hexagonal'
loop_
_space_group_symop_operation_xyz
x,y,z
-y,x-y,z
-x+y,-x,z
-y,-x,1/2-z
-x+y,y,1/2-z
x,x-y,1/2-z
-x,-y,-z
y,-x+y,-z
x-y,x,-z
y,x,1/2+z
x-y,-y,1/2+z
-x,-x+y,1/2+z
loop_
_atom_site_type_symbol
_atom_site_label
_atom_site_fract_x
_atom_site_fract_y
_atom_site_fract_z
Si Si1 0.888113 0.444057 0.250000
Si Si2 0.051259 0.684558 0.921399
Si Si3 0.333334 0.666668 0.118753
Si Si4 0.963668 0.098307 0.119839
Si Si5 0.518227 0.827285 0.532222
O O1 0.952565 0.391498 0.183016
O O2 0.820831 0.357794 0.348471
O O3 0.034343 0.787553 0.893226
O O4 0.177026 0.748458 0.965607
O O5 0.955293 0.606856 0.007401
O O6 0.333334 0.666667 0.250000
O O7 0.218913 0.571471 0.065820
O O8 0.931101 0.068900 0.250000
O O9 0.967730 0.086631 0.915330
#
# Coordination Sequence:
#
# PCOD9578293 Si02
#       5
#     6  12   4  12  12
#     4  12  26  52  80 110 162 212 286 334 380 500
#     4  12  27  46  80 122 156 209 272 339 414 487
#     4  12  30  55  77 112 162 216 268 362 418 474
#     4   8  18  40  70 110 161 205 252 313 404 489
#     4  12  29  50  82 118 157 215 272 340 415 488
#
# _framework density 22.87359
#
# number of rings (size 3 to 8) (size 9 to 14) (size 15 to 20)
#    0.522    0.522    2.609    3.130    5.478    0.000 
#    4.696    1.304    0.000    0.000    0.000    0.000 
#    0.000    0.000    0.000    0.000    0.000    0.000 
#
# Total GULP energy -256467.781701 kJ/mol
# GULP energy per Si atom -5575.386559 kJ/mol
# Density = 2.282153 g / cm^3
# Si number density = 22.873590 Si / 1000 Ang^3
#
#
#
# Elastic Constant Matrix: (Units=GPa)
#
#
# Indices 1 2 3 4 5 6 
#
# 1 165.8219 62.6440 64.6227 -0.0001 0.6501 -0.0001
# 2 62.6440 165.8213 64.6222 -0.0002 -0.6505 -0.0003
# 3 64.6227 64.6222 131.8292 -0.0001 -0.0003 -0.0002
# 4 -0.0001 -0.0002 -0.0001 23.7836 -0.0002 -0.6503
# 5 0.6501 -0.6505 -0.0003 -0.0002 23.7838 -0.0002
# 6 -0.0001 -0.0003 -0.0002 -0.6503 -0.0002 51.5888
#
#
#
# Elastic Compliance Matrix: (Units=1/GPa)
#
#
# Indices 1 2 3 4 5 6 
#
# 1 0.007876 -0.001819 -0.002969 0.000000 -0.000265 0.000000
# 2 -0.001819 0.007876 -0.002969 0.000000 0.000265 0.000000
# 3 -0.002969 -0.002969 0.010496 0.000000 0.000000 0.000000
# 4 0.000000 0.000000 0.000000 0.042060 0.000000 0.000530
# 5 -0.000265 0.000265 0.000000 0.000000 0.042060 0.000000
# 6 0.000000 0.000000 0.000000 0.000530 0.000000 0.019391
#
#
# Mechanical properties :
#
#
# Convention : Reuss Voigt Hill
#
# Bulk Modulus (GPa) = 93.16410 94.13893 93.65151
# Shear Modulus (GPa) = 33.59049 37.93679 35.76364
#
# Velocity S-wave (km/s) = 3.83629 4.07694 3.95844
# Velocity P-wave (km/s) = 7.77440 7.96288 7.86920
#
# Compressibility (1/GPa) = 0.01073375
#
# Stress axis : x y z
#
# Youngs Moduli (GPa) = 126.96857 126.96842 95.27173
#
# Poissons Ratio (x) = 0.23101 0.28286
# Poissons Ratio (y) = 0.23101 0.28285
# Poissons Ratio (z) = 0.37696 0.37696
#
# Static dielectric constant tensor:
#      x y z
#    x 1.858100 0.000000 0.000000 
#    y 0.000000 1.858100 0.000000 
#    z 0.000000 0.000000 2.154930 
# 
# From -- ./inp_files/1587.got.cif
#   From: 2010.05.17/outbox.cif.g08.bks.cpg/sg163_1_cif.got.tgz:1587.got - 2010.05.20 10:56:03.
