data_PCOD9578460
_publ_section_title
;
Structure prediction by ZEFSAII (Michael W. Deem and Ramdas Pophale) SiO2 
 PCOD9578460
Probable space group: P -3 M 1
;
_chemical_formula_sum "Si O2"
_cell_formula_units_Z 84
_cell_length_a 17.694724
_cell_length_b 17.694724
_cell_length_c 15.486019
_cell_angle_alpha 90.000000
_cell_angle_beta 90.000000
_cell_angle_gamma 120.000000
_cell_volume 4199.117288
_symmetry_space_group_name_H-M "P -3 M 1"
_symmetry_group_IT_number 164
_symmetry_cell_setting 'hexagonal'
loop_
_space_group_symop_operation_xyz
x,y,z
-y,x-y,z
-x+y,-x,z
x-y,-y,-z
-x,-x+y,-z
y,x,-z
-x,-y,-z
y,-x+y,-z
x-y,x,-z
-x+y,y,z
x,x-y,z
-y,-x,z
loop_
_atom_site_type_symbol
_atom_site_label
_atom_site_fract_x
_atom_site_fract_y
_atom_site_fract_z
Si Si1 0.362343 0.466257 0.993812
Si Si2 0.056533 0.440050 0.322762
Si Si3 0.831628 0.333610 0.512820
Si Si4 0.669101 0.165452 0.193434
Si Si5 0.821488 0.999511 0.896205
Si Si6 0.369240 0.266775 0.358138
Si Si7 0.100865 0.728825 0.161572
O O1 0.429900 0.570101 0.004159
O O2 0.294111 0.420781 0.069817
O O3 0.419824 0.419824 0.000000
O O4 0.321724 0.450869 0.898591
O O5 0.023522 0.511761 0.328308
O O6 0.136453 0.478301 0.389428
O O7 0.076334 0.428385 0.224353
O O8 0.999022 0.338409 0.352780
O O9 0.859784 0.429892 0.481104
O O10 0.728685 0.271316 0.508594
O O11 0.871127 0.292672 0.447951
O O12 0.569501 0.139002 0.203086
O O13 0.730871 0.269130 0.189776
O O14 0.700658 0.134278 0.275335
O O15 0.811438 0.905719 0.872907
O O16 0.755141 0.025934 0.852180
O O17 0.920065 0.079936 0.878728
O O18 0.809248 0.000000 0.000000
O O19 0.321301 0.160651 0.353465
O O20 0.184877 0.815124 0.197355
#
# Coordination Sequence:
#
# PCOD9578460 Si02
#       7
#    12  12  12  12  12  12  12
#     4  10  20  34  51  70  97 136 178 217 257 304
#     4  11  22  37  56  76 104 143 182 219 262 312
#     4  10  20  35  56  81 108 137 173 217 265 316
#     4  10  19  31  48  70  96 124 157 200 252 305
#     4   9  18  33  54  79 106 136 170 212 265 322
#     4  10  21  35  54  80 104 130 167 214 266 319
#     4  11  22  35  52  76 106 140 181 224 260 300
#
# _framework density 20.004204000000001
#
# number of rings (size 3 to 8) (size 9 to 14) (size 15 to 20)
#    0.000    1.857    0.000    4.714    0.000    3.429 
#    0.000    5.000    0.000    4.286    0.000    0.000 
#    0.000    0.000    0.000    0.000    0.000   43.286 
#
# Total GULP energy -467891.017794 kJ/mol
# GULP energy per Si atom -5570.131164 kJ/mol
# Density = 1.995867 g / cm^3
# Si number density = 20.004204 Si / 1000 Ang^3
#
#
#
# Elastic Constant Matrix: (Units=GPa)
#
#
# Indices 1 2 3 4 5 6 
#
# 1 83.2261 -27.8344 10.4312 -33.1681 0.0000 0.0000
# 2 -27.8344 83.2261 10.4312 33.1681 0.0000 0.0000
# 3 10.4312 10.4312 84.3144 0.0000 0.0000 0.0000
# 4 -33.1681 33.1681 0.0000 41.6725 0.0000 0.0000
# 5 0.0000 0.0000 0.0000 0.0000 41.6725 -33.1681
# 6 0.0000 0.0000 0.0000 0.0000 -33.1681 55.5302
#
#
#
# Elastic Compliance Matrix: (Units=1/GPa)
#
#
# Indices 1 2 3 4 5 6 
#
# 1 0.018050 0.000886 -0.002343 0.013661 0.000000 0.000000
# 2 0.000886 0.018050 -0.002343 -0.013661 0.000000 0.000000
# 3 -0.002343 -0.002343 0.012440 0.000000 0.000000 0.000000
# 4 0.013661 -0.013661 0.000000 0.045743 0.000000 0.000000
# 5 0.000000 0.000000 0.000000 0.000000 0.045743 0.027322
# 6 0.000000 0.000000 0.000000 0.000000 0.027322 0.034328
#
#
# Mechanical properties :
#
#
# Convention : Reuss Voigt Hill
#
# Bulk Modulus (GPa) = 24.42569 26.31363 25.36966
# Shear Modulus (GPa) = 25.56244 44.95761 35.26002
#
# Velocity S-wave (km/s) = 3.57859 4.74583 4.20292
# Velocity P-wave (km/s) = 5.41404 6.57367 6.02183
#
# Compressibility (1/GPa) = 0.04094050
#
# Stress axis : x y z
#
# Youngs Moduli (GPa) = 55.40244 55.40244 80.38558
#
# Poissons Ratio (x) = -0.04908 0.18832
# Poissons Ratio (y) = -0.04908 0.18832
# Poissons Ratio (z) = 0.12979 0.12979
#
# Static dielectric constant tensor:
#      x y z
#    x 1.929120 0.000000 0.000000 
#    y 0.000000 1.929120 0.000000 
#    z 0.000000 0.000000 1.686430 
# 
# From -- ./inp_files/3568.got.cif
#   From: 2010.05.17/outbox.cif.g08.bks.cpg/sg164_2_cif.got.tgz:3568.got - 2010.05.20 10:58:56.
