data_PCOD9578439
_publ_section_title
;
Structure prediction by ZEFSAII (Michael W. Deem and Ramdas Pophale) SiO2 
 PCOD9578439
Probable space group: P -3 M 1
;
_chemical_formula_sum "Si O2"
_cell_formula_units_Z 84
_cell_length_a 18.075770
_cell_length_b 18.075770
_cell_length_c 17.004763
_cell_angle_alpha 90.000000
_cell_angle_beta 90.000000
_cell_angle_gamma 120.000000
_cell_volume 4811.658855
_symmetry_space_group_name_H-M "P -3 M 1"
_symmetry_group_IT_number 164
_symmetry_cell_setting 'hexagonal'
loop_
_space_group_symop_operation_xyz
x,y,z
-y,x-y,z
-x+y,-x,z
x-y,-y,-z
-x,-x+y,-z
y,x,-z
-x,-y,-z
y,-x+y,-z
x-y,x,-z
-x+y,y,z
x,x-y,z
-y,-x,z
loop_
_atom_site_type_symbol
_atom_site_label
_atom_site_fract_x
_atom_site_fract_y
_atom_site_fract_z
Si Si1 0.508678 0.842930 0.340636
Si Si2 0.048919 0.435207 0.183967
Si Si3 0.352703 0.260739 0.526958
Si Si4 0.665271 0.490315 0.063216
Si Si5 0.171166 0.665682 0.592335
Si Si6 0.557361 0.860719 0.768178
Si Si7 0.654991 0.741747 0.037407
O O1 0.421964 0.843927 0.361979
O O2 0.495015 0.747508 0.346132
O O3 0.533125 0.879864 0.252277
O O4 0.587853 0.901238 0.398800
O O5 0.036010 0.518005 0.166627
O O6 0.072541 0.395364 0.109598
O O7 0.962051 0.355556 0.218653
O O8 0.278948 0.278948 0.500000
O O9 0.324409 0.162205 0.540470
O O10 0.418005 0.294971 0.453992
O O11 0.728392 0.456783 0.036867
O O12 0.570840 0.429161 0.033559
O O13 0.667089 0.495035 0.157007
O O14 0.706109 0.585040 0.031955
O O15 0.142064 0.571032 0.566135
O O16 0.271047 0.728954 0.576072
O O17 0.157096 0.668133 0.684912
O O18 0.601423 0.800712 0.769179
O O19 0.675891 0.837946 0.055727
O O20 0.731052 0.731052 0.000000
#
# Coordination Sequence:
#
# PCOD9578439 Si02
#       7
#    12  12  12  12  12  12  12
#     4  10  21  36  54  77 107 144 183 222 261 304
#     4  11  21  34  55  78 104 139 178 217 255 300
#     4  10  21  36  54  76 103 136 175 221 270 317
#     4  10  19  31  47  70 100 134 167 200 240 289
#     4  10  19  30  46  71 105 144 182 217 252 293
#     4  10  20  31  46  72 104 138 178 215 252 299
#     4  11  23  37  55  76  99 128 164 209 260 312
#
# _framework density 17.457595999999999
#
# number of rings (size 3 to 8) (size 9 to 14) (size 15 to 20)
#    0.000    1.714    1.429    3.857    0.000    2.857 
#    0.000    2.857    0.000    5.143    0.000    0.000 
#    0.000    0.000    0.000    1.571    0.000    0.000 
#
# Total GULP energy -467889.185666 kJ/mol
# GULP energy per Si atom -5570.109353 kJ/mol
# Density = 1.741786 g / cm^3
# Si number density = 17.457596 Si / 1000 Ang^3
#
#
#
# Elastic Constant Matrix: (Units=GPa)
#
#
# Indices 1 2 3 4 5 6 
#
# 1 63.4831 42.5809 23.2877 -2.0376 0.0000 0.0000
# 2 42.5809 63.4831 23.2877 2.0376 0.0000 0.0000
# 3 23.2877 23.2877 63.1557 0.0000 0.0000 0.0000
# 4 -2.0376 2.0376 0.0000 19.6481 0.0000 0.0000
# 5 0.0000 0.0000 0.0000 0.0000 19.6481 -2.0376
# 6 0.0000 0.0000 0.0000 0.0000 -2.0376 10.4511
#
#
#
# Elastic Compliance Matrix: (Units=1/GPa)
#
#
# Indices 1 2 3 4 5 6 
#
# 1 0.030040 -0.018790 -0.004148 0.005064 0.000000 0.000000
# 2 -0.018790 0.030040 -0.004148 -0.005064 0.000000 0.000000
# 3 -0.004148 -0.004148 0.018893 0.000000 0.000000 0.000000
# 4 0.005064 -0.005064 0.000000 0.051946 0.000000 0.000000
# 5 0.000000 0.000000 0.000000 0.000000 0.051946 0.010128
# 6 0.000000 0.000000 0.000000 0.000000 0.010128 0.097658
#
#
# Mechanical properties :
#
#
# Convention : Reuss Voigt Hill
#
# Bulk Modulus (GPa) = 40.32272 40.93718 40.62995
# Shear Modulus (GPa) = 14.57891 16.68048 15.62969
#
# Velocity S-wave (km/s) = 2.89295 3.09445 2.99539
# Velocity P-wave (km/s) = 5.85718 6.02228 5.94030
#
# Compressibility (1/GPa) = 0.02479992
#
# Stress axis : x y z
#
# Youngs Moduli (GPa) = 33.28945 33.28945 52.92950
#
# Poissons Ratio (x) = 0.62550 0.21956
# Poissons Ratio (y) = 0.62550 0.21956
# Poissons Ratio (z) = 0.13809 0.13809
#
# Static dielectric constant tensor:
#      x y z
#    x 1.641770 0.000000 0.000000 
#    y 0.000000 1.641770 0.000000 
#    z 0.000000 0.000000 1.610730 
# 
# From -- ./inp_files/3624.got.cif
#   From: 2010.05.17/outbox.cif.g08.bks.cpg/sg164_2_cif.got.tgz:3624.got - 2010.05.20 10:58:56.
