data_PCOD9578346
_publ_section_title
;
Structure prediction by ZEFSAII (Michael W. Deem and Ramdas Pophale) SiO2 
 PCOD9578346
Probable space group: P -3 M 1
;
_chemical_formula_sum "Si O2"
_cell_formula_units_Z 84
_cell_length_a 18.478378
_cell_length_b 18.478378
_cell_length_c 21.806288
_cell_angle_alpha 90.000000
_cell_angle_beta 90.000000
_cell_angle_gamma 120.000000
_cell_volume 6448.223309
_symmetry_space_group_name_H-M "P -3 M 1"
_symmetry_group_IT_number 164
_symmetry_cell_setting 'hexagonal'
loop_
_space_group_symop_operation_xyz
x,y,z
-y,x-y,z
-x+y,-x,z
x-y,-y,-z
-x,-x+y,-z
y,x,-z
-x,-y,-z
y,-x+y,-z
x-y,x,-z
-x+y,y,z
x,x-y,z
-y,-x,z
loop_
_atom_site_type_symbol
_atom_site_label
_atom_site_fract_x
_atom_site_fract_y
_atom_site_fract_z
Si Si1 0.999998 0.587771 0.789186
Si Si2 0.836969 0.504195 0.572629
Si Si3 0.163679 0.669291 0.866678
Si Si4 0.904207 0.364504 0.000002
Si Si5 0.411983 0.411980 0.648434
Si Si6 0.669291 0.505611 0.866683
Si Si7 0.495806 0.332774 0.427364
O O1 0.999998 0.499999 0.788943
O O2 0.999994 0.612411 0.718855
O O3 0.915951 0.566460 0.825321
O O4 0.084049 0.650510 0.825316
O O5 0.753539 0.507078 0.586853
O O6 0.822019 0.411010 0.583589
O O7 0.916407 0.567732 0.612302
O O8 0.855113 0.521082 0.499996
O O9 0.173705 0.586853 0.863322
O O10 0.248735 0.751265 0.848080
O O11 0.141559 0.677764 0.937072
O O12 0.908289 0.454145 0.000002
O O13 0.858438 0.322235 0.937077
O O14 0.000000 0.386062 0.000000
O O15 0.500002 0.499999 0.648331
O O16 0.348677 0.432269 0.612308
O O17 0.751266 0.502531 0.848083
O O18 0.586854 0.413147 0.863326
O O19 0.492922 0.246461 0.413139
O O20 0.588992 0.411009 0.416404
#
# Coordination Sequence:
#
# PCOD9578346 Si02
#       7
#    12  12  12  12  12  12  12
#     4   9  18  30  40  52  76 107 134 163 202 240
#     4   9  16  26  41  60  80 102 131 168 205 237
#     4  10  18  28  42  59  78 102 135 171 204 238
#     4   9  15  26  42  57  76 102 129 162 205 245
#     4   9  17  28  40  54  75 105 136 163 196 239
#     4  10  18  28  42  59  78 102 135 171 204 238
#     4   9  16  26  41  60  80 102 131 168 205 237
#
# _framework density 13.026843
#
# number of rings (size 3 to 8) (size 9 to 14) (size 15 to 20)
#    0.000    2.714    1.429    1.429    0.000    4.000 
#    0.000    1.429    0.000    3.429    0.000    0.000 
#    0.000    0.000    0.000    0.857    0.000   12.000 
#
# Total GULP energy -467771.190964 kJ/mol
# GULP energy per Si atom -5568.704654 kJ/mol
# Density = 1.299719 g / cm^3
# Si number density = 13.026843 Si / 1000 Ang^3
#
#
#
# Elastic Constant Matrix: (Units=GPa)
#
#
# Indices 1 2 3 4 5 6 
#
# 1 79.8512 41.0790 52.9361 0.0005 0.0000 0.0000
# 2 41.0790 79.8512 52.9361 -0.0005 0.0000 0.0000
# 3 52.9361 52.9361 94.1573 0.0000 0.0000 0.0000
# 4 0.0005 -0.0005 0.0000 8.2382 0.0000 0.0000
# 5 0.0000 0.0000 0.0000 0.0000 8.2382 0.0005
# 6 0.0000 0.0000 0.0000 0.0000 0.0005 19.3861
#
#
#
# Elastic Compliance Matrix: (Units=1/GPa)
#
#
# Indices 1 2 3 4 5 6 
#
# 1 0.021038 -0.004754 -0.009155 -0.000002 0.000000 0.000000
# 2 -0.004754 0.021038 -0.009155 0.000002 0.000000 0.000000
# 3 -0.009155 -0.009155 0.020915 0.000000 0.000000 0.000000
# 4 -0.000002 0.000002 0.000000 0.121386 0.000000 0.000000
# 5 0.000000 0.000000 0.000000 0.000000 0.121386 -0.000003
# 6 0.000000 0.000000 0.000000 0.000000 -0.000003 0.051583
#
#
# Mechanical properties :
#
#
# Convention : Reuss Voigt Hill
#
# Bulk Modulus (GPa) = 59.30232 60.86245 60.08239
# Shear Modulus (GPa) = 12.22210 14.29974 13.26092
#
# Velocity S-wave (km/s) = 3.06637 3.31677 3.19402
# Velocity P-wave (km/s) = 7.62619 7.84157 7.73463
#
# Compressibility (1/GPa) = 0.01686275
#
# Stress axis : x y z
#
# Youngs Moduli (GPa) = 47.53277 47.53277 47.81267
#
# Poissons Ratio (x) = 0.22595 0.43774
# Poissons Ratio (y) = 0.22595 0.43774
# Poissons Ratio (z) = 0.43518 0.43518
#
# Static dielectric constant tensor:
#      x y z
#    x 1.406050 0.000000 0.000000 
#    y 0.000000 1.406050 0.000000 
#    z 0.000000 0.000000 1.443080 
# 
# From -- ./inp_files/4673.got.cif
#   From: 2010.05.17/outbox.cif.g08.bks.cpg/sg164_3_cif.got.tgz:4673.got - 2010.05.20 10:58:56.
