data_PCOD9578711
_publ_section_title
;
Structure prediction by ZEFSAII (Michael W. Deem and Ramdas Pophale) SiO2 
 PCOD9578711
Probable space group: P -3 M 1
;
_chemical_formula_sum "Si O2"
_cell_formula_units_Z 42
_cell_length_a 21.235688
_cell_length_b 21.235688
_cell_length_c 5.117253
_cell_angle_alpha 90.000000
_cell_angle_beta 90.000000
_cell_angle_gamma 120.000000
_cell_volume 1998.481779
_symmetry_space_group_name_H-M "P -3 M 1"
_symmetry_group_IT_number 164
_symmetry_cell_setting 'hexagonal'
loop_
_space_group_symop_operation_xyz
x,y,z
-y,x-y,z
-x+y,-x,z
x-y,-y,-z
-x,-x+y,-z
y,x,-z
-x,-y,-z
y,-x+y,-z
x-y,x,-z
-x+y,y,z
x,x-y,z
-y,-x,z
loop_
_atom_site_type_symbol
_atom_site_label
_atom_site_fract_x
_atom_site_fract_y
_atom_site_fract_z
Si Si1 0.384248 0.471292 0.471517
Si Si2 0.714346 0.139359 0.033059
Si Si3 0.278772 0.069678 0.348074
Si Si4 0.862115 0.862115 0.000000
O O1 0.424739 0.424739 0.500000
O O2 0.446921 0.553080 0.407630
O O3 0.344639 0.467923 0.742216
O O4 0.325045 0.437734 0.242805
O O5 0.776888 0.223113 0.020575
O O6 0.753837 0.095386 0.131777
O O7 0.291293 0.145647 0.481764
O O8 0.200708 0.034322 0.212643
O O9 0.271696 0.000000 0.500000
O O10 0.873222 0.936611 0.115126
#
# Coordination Sequence:
#
# PCOD9578711 Si02
#       4
#    12  12  12   6
#     4  11  24  43  69  99 130 170 215 264 322 387
#     4  11  24  41  66  98 134 170 209 264 326 385
#     4  10  22  36  56  85 120 163 213 267 323 378
#     4  10  21  36  54  78 113 160 214 264 312 364
#
# _framework density 21.015951999999999
#
# number of rings (size 3 to 8) (size 9 to 14) (size 15 to 20)
#    0.000    1.429    0.000    4.429    8.000    2.286 
#    0.000    0.000    0.000   16.000    0.000    0.000 
#    0.000    0.000    0.000    0.000    0.000    0.000 
#
# Total GULP energy -234839.371729 kJ/mol
# GULP energy per Si atom -5591.413613 kJ/mol
# Density = 2.096812 g / cm^3
# Si number density = 21.015952 Si / 1000 Ang^3
#
#
#
# Elastic Constant Matrix: (Units=GPa)
#
#
# Indices 1 2 3 4 5 6 
#
# 1 71.9156 48.1701 0.9066 5.0930 0.0000 0.0000
# 2 48.1701 71.9156 0.9066 -5.0930 0.0000 0.0000
# 3 0.9066 0.9066 52.3530 0.0000 0.0000 0.0000
# 4 5.0930 -5.0930 0.0000 32.1598 0.0000 0.0000
# 5 0.0000 0.0000 0.0000 0.0000 32.1598 5.0930
# 6 0.0000 0.0000 0.0000 0.0000 5.0930 11.8727
#
#
#
# Elastic Compliance Matrix: (Units=1/GPa)
#
#
# Indices 1 2 3 4 5 6 
#
# 1 0.026756 -0.018427 -0.000144 -0.007155 0.000000 0.000000
# 2 -0.018427 0.026756 -0.000144 0.007155 0.000000 0.000000
# 3 -0.000144 -0.000144 0.019106 0.000000 0.000000 0.000000
# 4 -0.007155 0.007155 0.000000 0.033361 0.000000 0.000000
# 5 0.000000 0.000000 0.000000 0.000000 0.033361 -0.014311
# 6 0.000000 0.000000 0.000000 0.000000 -0.014311 0.090365
#
#
# Mechanical properties :
#
#
# Convention : Reuss Voigt Hill
#
# Bulk Modulus (GPa) = 28.41858 32.90564 30.66211
# Shear Modulus (GPa) = 17.92983 24.98520 21.45751
#
# Velocity S-wave (km/s) = 2.92405 3.45174 3.19879
# Velocity P-wave (km/s) = 4.99518 5.61938 5.31645
#
# Compressibility (1/GPa) = 0.03518825
#
# Stress axis : x y z
#
# Youngs Moduli (GPa) = 37.37466 37.37466 52.33933
#
# Poissons Ratio (x) = 0.68869 0.00755
# Poissons Ratio (y) = 0.68869 0.00755
# Poissons Ratio (z) = 0.00539 0.00539
#
# Static dielectric constant tensor:
#      x y z
#    x 1.779020 0.000000 0.000000 
#    y 0.000000 1.779020 0.000000 
#    z 0.000000 0.000000 1.767590 
# 
# From -- ./inp_files/339.got.cif
#   From: 2010.05.17/outbox.cif.g08.bks.cpg/sg164_1_cif.got.tgz:339.got - 2010.05.20 10:58:56.
