data_PCOD9578492
_publ_section_title
;
Structure prediction by ZEFSAII (Michael W. Deem and Ramdas Pophale) SiO2 
 PCOD9578492
Probable space group: P -3 M 1
;
_chemical_formula_sum "Si O2"
_cell_formula_units_Z 60
_cell_length_a 17.262260
_cell_length_b 17.262260
_cell_length_c 12.698347
_cell_angle_alpha 90.000000
_cell_angle_beta 90.000000
_cell_angle_gamma 120.000000
_cell_volume 3276.975009
_symmetry_space_group_name_H-M "P -3 M 1"
_symmetry_group_IT_number 164
_symmetry_cell_setting 'hexagonal'
loop_
_space_group_symop_operation_xyz
x,y,z
-y,x-y,z
-x+y,-x,z
x-y,-y,-z
-x,-x+y,-z
y,x,-z
-x,-y,-z
y,-x+y,-z
x-y,x,-z
-x+y,y,z
x,x-y,z
-y,-x,z
loop_
_atom_site_type_symbol
_atom_site_label
_atom_site_fract_x
_atom_site_fract_y
_atom_site_fract_z
Si Si1 0.418063 0.405607 0.283664
Si Si2 0.998407 0.179074 0.172231
Si Si3 0.281905 0.902000 0.116706
Si Si4 0.665229 0.512567 0.093403
Si Si5 0.770709 0.719622 0.393627
O O1 0.502464 0.497537 0.322559
O O2 0.348670 0.421655 0.215026
O O3 0.453921 0.363251 0.195790
O O4 0.361741 0.328106 0.367258
O O5 0.079234 0.158468 0.162004
O O6 0.028400 0.273433 0.116517
O O7 0.985898 0.198799 0.294005
O O8 0.904511 0.095490 0.135281
O O9 0.194468 0.805533 0.132212
O O10 0.327355 0.897686 0.009025
O O11 0.760682 0.521364 0.110496
O O12 0.589087 0.410914 0.073787
O O13 0.766587 0.766587 0.500000
O O14 0.844572 0.689143 0.402646
#
# Coordination Sequence:
#
# PCOD9578492 Si02
#       5
#    12  12  12  12  12
#     4  10  20  34  53  76 101 130 165 205 249 297
#     4   9  17  30  49  74 103 135 170 207 246 287
#     4   9  18  31  48  73 104 136 168 202 240 285
#     4  10  19  32  51  75 103 132 164 203 247 294
#     4  10  20  34  53  76 101 129 164 206 251 299
#
# _framework density 18.309567000000001
#
# number of rings (size 3 to 8) (size 9 to 14) (size 15 to 20)
#    0.000    2.400    0.000    2.800    0.000    3.600 
#    0.000    1.000    0.000    4.000    0.000    1.400 
#    0.000   52.800    0.000    0.000    0.000    0.000 
#
# Total GULP energy -335013.373320 kJ/mol
# GULP energy per Si atom -5583.556222 kJ/mol
# Density = 1.826789 g / cm^3
# Si number density = 18.309567 Si / 1000 Ang^3
#
#
#
# Elastic Constant Matrix: (Units=GPa)
#
#
# Indices 1 2 3 4 5 6 
#
# 1 35.3826 14.8436 -3.5750 -7.4043 0.0000 0.0000
# 2 14.8436 35.3826 -3.5750 7.4043 0.0000 0.0000
# 3 -3.5750 -3.5750 44.5129 0.0000 0.0000 0.0000
# 4 -7.4043 7.4043 0.0000 17.2726 0.0000 0.0000
# 5 0.0000 0.0000 0.0000 0.0000 17.2726 -7.4043
# 6 0.0000 0.0000 0.0000 0.0000 -7.4043 10.2695
#
#
#
# Elastic Compliance Matrix: (Units=1/GPa)
#
#
# Indices 1 2 3 4 5 6 
#
# 1 0.045304 -0.025164 0.001618 0.030207 0.000000 0.000000
# 2 -0.025164 0.045304 0.001618 -0.030207 0.000000 0.000000
# 3 0.001618 0.001618 0.022725 0.000000 0.000000 0.000000
# 4 0.030207 -0.030207 0.000000 0.083793 0.000000 0.000000
# 5 0.000000 0.000000 0.000000 0.000000 0.083793 0.060414
# 6 0.000000 0.000000 0.000000 0.000000 0.060414 0.140935
#
#
# Mechanical properties :
#
#
# Convention : Reuss Voigt Hill
#
# Bulk Modulus (GPa) = 14.39351 14.51837 14.45594
# Shear Modulus (GPa) = 10.22769 16.13524 13.18147
#
# Velocity S-wave (km/s) = 2.36603 2.97180 2.68605
# Velocity P-wave (km/s) = 3.91694 4.44095 4.18715
#
# Compressibility (1/GPa) = 0.06947575
#
# Stress axis : x y z
#
# Youngs Moduli (GPa) = 22.07323 22.07323 44.00396
#
# Poissons Ratio (x) = 0.55544 -0.07118
# Poissons Ratio (y) = 0.55544 -0.07118
# Poissons Ratio (z) = -0.03570 -0.03570
#
# Static dielectric constant tensor:
#      x y z
#    x 1.633340 0.000000 0.000000 
#    y 0.000000 1.633340 0.000000 
#    z 0.000000 0.000000 1.620320 
# 
# From -- ./inp_files/2675.got.cif
#   From: 2010.05.17/outbox.cif.g08.bks.cpg/sg164_2_cif.got.tgz:2675.got - 2010.05.20 10:58:56.
