data_PCOD9578444
_publ_section_title
;
Structure prediction by ZEFSAII (Michael W. Deem and Ramdas Pophale) SiO2 
 PCOD9578444
Probable space group: P -3 M 1
;
_chemical_formula_sum "Si O2"
_cell_formula_units_Z 84
_cell_length_a 21.139964
_cell_length_b 21.139964
_cell_length_c 11.699868
_cell_angle_alpha 90.000000
_cell_angle_beta 90.000000
_cell_angle_gamma 120.000000
_cell_volume 4528.142447
_symmetry_space_group_name_H-M "P -3 M 1"
_symmetry_group_IT_number 164
_symmetry_cell_setting 'hexagonal'
loop_
_space_group_symop_operation_xyz
x,y,z
-y,x-y,z
-x+y,-x,z
x-y,-y,-z
-x,-x+y,-z
y,x,-z
-x,-y,-z
y,-x+y,-z
x-y,x,-z
-x+y,y,z
x,x-y,z
-y,-x,z
loop_
_atom_site_type_symbol
_atom_site_label
_atom_site_fract_x
_atom_site_fract_y
_atom_site_fract_z
Si Si1 0.150238 0.150023 0.366018
Si Si2 0.407908 0.132073 0.699621
Si Si3 0.272227 0.976818 0.745476
Si Si4 0.483502 0.665963 0.111601
Si Si5 0.920400 0.331036 0.453896
Si Si6 0.130957 0.408080 0.917057
Si Si7 0.477853 0.811534 0.708727
O O1 0.171594 0.171594 0.500000
O O2 0.135196 0.067598 0.354619
O O3 0.216863 0.203432 0.284211
O O4 0.076997 0.153994 0.344524
O O5 0.388714 0.194357 0.728272
O O6 0.484654 0.156905 0.761293
O O7 0.410820 0.123869 0.564290
O O8 0.344730 0.055091 0.744274
O O9 0.281084 0.933197 0.637579
O O10 0.272259 0.935609 0.860827
O O11 0.472068 0.736034 0.092830
O O12 0.409060 0.590941 0.091877
O O13 0.549631 0.677156 0.028514
O O14 0.874308 0.359630 0.386128
O O15 0.000000 0.391143 0.500000
O O16 0.194851 0.389701 0.939607
O O17 0.159314 0.470265 0.819090
O O18 0.397434 0.794868 0.737045
O O19 0.477542 0.738771 0.668746
#
# Coordination Sequence:
#
# PCOD9578444 Si02
#       7
#    12  12  12  12  12  12  12
#     4  10  19  30  48  78 116 153 186 221 262 311
#     4  10  20  34  52  76 106 137 174 217 258 311
#     4  10  19  33  54  77 103 143 183 217 265 314
#     4  10  21  38  59  80 104 135 171 215 269 326
#     4   9  19  34  51  73 100 134 176 218 259 307
#     4   9  19  35  53  75 101 130 172 220 260 308
#     4  10  19  31  49  72  99 129 163 208 259 312
#
# _framework density 18.550654000000002
#
# number of rings (size 3 to 8) (size 9 to 14) (size 15 to 20)
#    0.000    2.286    0.000    3.429    0.000    4.857 
#    0.000    8.571    0.000    1.714    0.000    0.000 
#    0.000    0.000    0.000   10.857    0.000    3.571 
#
# Total GULP energy -468421.815730 kJ/mol
# GULP energy per Si atom -5576.450187 kJ/mol
# Density = 1.850843 g / cm^3
# Si number density = 18.550654 Si / 1000 Ang^3
#
#
#
# Elastic Constant Matrix: (Units=GPa)
#
#
# Indices 1 2 3 4 5 6 
#
# 1 67.6999 30.9528 27.7527 -3.4762 0.0000 0.0000
# 2 30.9528 67.6999 27.7527 3.4762 0.0000 0.0000
# 3 27.7527 27.7527 53.0805 0.0000 0.0000 0.0000
# 4 -3.4762 3.4762 0.0000 22.9741 0.0000 0.0000
# 5 0.0000 0.0000 0.0000 0.0000 22.9741 -3.4762
# 6 0.0000 0.0000 0.0000 0.0000 -3.4762 18.3735
#
#
#
# Elastic Compliance Matrix: (Units=1/GPa)
#
#
# Indices 1 2 3 4 5 6 
#
# 1 0.021188 -0.006827 -0.007509 0.004239 0.000000 0.000000
# 2 -0.006827 0.021188 -0.007509 -0.004239 0.000000 0.000000
# 3 -0.007509 -0.007509 0.026691 0.000000 0.000000 0.000000
# 4 0.004239 -0.004239 0.000000 0.044810 0.000000 0.000000
# 5 0.000000 0.000000 0.000000 0.000000 0.044810 0.008478
# 6 0.000000 0.000000 0.000000 0.000000 0.008478 0.056030
#
#
# Mechanical properties :
#
#
# Convention : Reuss Voigt Hill
#
# Bulk Modulus (GPa) = 39.40292 40.15517 39.77905
# Shear Modulus (GPa) = 18.73604 19.66583 19.20093
#
# Velocity S-wave (km/s) = 3.18149 3.25947 3.22072
# Velocity P-wave (km/s) = 5.89768 5.98822 5.94312
#
# Compressibility (1/GPa) = 0.02537883
#
# Stress axis : x y z
#
# Youngs Moduli (GPa) = 47.19627 47.19627 37.46585
#
# Poissons Ratio (x) = 0.32221 0.28132
# Poissons Ratio (y) = 0.32221 0.28132
# Poissons Ratio (z) = 0.35438 0.35438
#
# Static dielectric constant tensor:
#      x y z
#    x 1.629290 0.000000 0.000000 
#    y 0.000000 1.629290 0.000000 
#    z 0.000000 0.000000 1.664740 
# 
# From -- ./inp_files/2881.got.cif
#   From: 2010.05.17/outbox.cif.g08.bks.cpg/sg164_2_cif.got.tgz:2881.got - 2010.05.20 10:58:56.
