data_PCOD9578558
_publ_section_title
;
Structure prediction by ZEFSAII (Michael W. Deem and Ramdas Pophale) SiO2 
 PCOD9578558
Probable space group: P -3 M 1
;
_chemical_formula_sum "Si O2"
_cell_formula_units_Z 96
_cell_length_a 18.123958
_cell_length_b 18.123958
_cell_length_c 22.726548
_cell_angle_alpha 90.000000
_cell_angle_beta 90.000000
_cell_angle_gamma 120.000000
_cell_volume 6465.024877
_symmetry_space_group_name_H-M "P -3 M 1"
_symmetry_group_IT_number 164
_symmetry_cell_setting 'hexagonal'
loop_
_space_group_symop_operation_xyz
x,y,z
-y,x-y,z
-x+y,-x,z
x-y,-y,-z
-x,-x+y,-z
y,x,-z
-x,-y,-z
y,-x+y,-z
x-y,x,-z
-x+y,y,z
x,x-y,z
-y,-x,z
loop_
_atom_site_type_symbol
_atom_site_label
_atom_site_fract_x
_atom_site_fract_y
_atom_site_fract_z
Si Si1 0.493910 0.333730 0.283280
Si Si2 0.333731 0.839821 0.283279
Si Si3 0.635043 0.532141 0.500000
Si Si4 0.158789 0.667083 0.852979
Si Si5 0.634926 0.733577 0.611523
Si Si6 0.491708 0.158790 0.852980
Si Si7 0.901349 0.266425 0.611524
Si Si8 0.589706 0.000001 0.067456
O O1 0.518550 0.259275 0.286582
O O2 0.575210 0.424791 0.297828
O O3 0.469079 0.335948 0.215498
O O4 0.417806 0.307497 0.328813
O O5 0.424790 0.849579 0.297827
O O6 0.259274 0.740727 0.286580
O O7 0.335949 0.866869 0.215496
O O8 0.307500 0.889694 0.328812
O O9 0.578301 0.578301 0.500000
O O10 0.568557 0.431444 0.499999
O O11 0.692117 0.567455 0.441899
O O12 0.692114 0.567452 0.558103
O O13 0.174464 0.587232 0.860768
O O14 0.245282 0.754719 0.863372
O O15 0.083967 0.653554 0.896561
O O16 0.667757 0.833879 0.612479
O O17 0.705687 0.705686 0.603829
O O18 0.587233 0.174466 0.860770
O O19 0.490561 0.245281 0.863373
O O20 0.430415 0.083967 0.896562
O O21 0.833877 0.166124 0.612480
O O22 0.500001 0.000002 0.067008
O O23 0.614910 0.000000 0.000000
#
# Coordination Sequence:
#
# PCOD9578558 Si02
#       8
#    12  12  12  12  12  12  12  12
#     4   9  17  28  44  66  90 116 146 182 221 263
#     4   9  17  28  44  66  90 116 146 182 221 263
#     4   9  17  30  47  68  92 118 148 181 217 264
#     4   9  17  29  45  64  87 116 150 185 221 262
#     4  10  20  32  47  67  91 120 155 193 233 273
#     4   9  17  29  45  64  87 116 150 185 221 262
#     4  10  20  32  47  67  91 120 155 193 233 273
#     4   9  18  30  42  60  86 113 144 182 220 259
#
# _framework density 14.849130000000001
#
# number of rings (size 3 to 8) (size 9 to 14) (size 15 to 20)
#    0.000    2.750    0.000    1.625    1.750    4.000 
#    0.000    0.000    0.000    5.250    0.000    0.000 
#    0.000    3.000    0.000    0.375    0.000    1.625 
#
# Total GULP energy -534971.029376 kJ/mol
# GULP energy per Si atom -5572.614889 kJ/mol
# Density = 1.481533 g / cm^3
# Si number density = 14.849130 Si / 1000 Ang^3
#
#
#
# Elastic Constant Matrix: (Units=GPa)
#
#
# Indices 1 2 3 4 5 6 
#
# 1 73.4852 45.5738 47.6374 -0.0001 0.0000 0.0000
# 2 45.5738 73.4852 47.6374 0.0001 0.0000 0.0000
# 3 47.6374 47.6374 93.0411 0.0000 0.0000 0.0000
# 4 -0.0001 0.0001 0.0000 17.6129 0.0000 0.0000
# 5 0.0000 0.0000 0.0000 0.0000 17.6129 -0.0001
# 6 0.0000 0.0000 0.0000 0.0000 -0.0001 13.9557
#
#
#
# Elastic Compliance Matrix: (Units=1/GPa)
#
#
# Indices 1 2 3 4 5 6 
#
# 1 0.025028 -0.010799 -0.007285 0.000000 0.000000 0.000000
# 2 -0.010799 0.025028 -0.007285 0.000000 0.000000 0.000000
# 3 -0.007285 -0.007285 0.018208 0.000000 0.000000 0.000000
# 4 0.000000 0.000000 0.000000 0.056777 0.000000 0.000000
# 5 0.000000 0.000000 0.000000 0.000000 0.056777 0.000000
# 6 0.000000 0.000000 0.000000 0.000000 0.000000 0.071655
#
#
# Mechanical properties :
#
#
# Convention : Reuss Voigt Hill
#
# Bulk Modulus (GPa) = 57.06122 57.96763 57.51443
# Shear Modulus (GPa) = 16.12615 16.44715 16.28665
#
# Velocity S-wave (km/s) = 3.29903 3.33170 3.31540
# Velocity P-wave (km/s) = 7.28163 7.34321 7.31249
#
# Compressibility (1/GPa) = 0.01752504
#
# Stress axis : x y z
#
# Youngs Moduli (GPa) = 39.95455 39.95455 54.92022
#
# Poissons Ratio (x) = 0.43148 0.40012
# Poissons Ratio (y) = 0.43148 0.40012
# Poissons Ratio (z) = 0.29108 0.29108
#
# Static dielectric constant tensor:
#      x y z
#    x 1.478310 0.000000 0.000000 
#    y 0.000000 1.478310 0.000000 
#    z 0.000000 0.000000 1.506090 
# 
# From -- ./inp_files/5114.got.cif
#   From: 2010.05.17/outbox.cif.g08.bks.cpg/sg164_3_cif.got.tgz:5114.got - 2010.05.20 10:58:56.
