data_PCOD9578841
_publ_section_title
;
Structure prediction by ZEFSAII (Michael W. Deem and Ramdas Pophale) SiO2 
 PCOD9578841
Probable space group: P -3 C 1
;
_chemical_formula_sum "Si O2"
_cell_formula_units_Z 90
_cell_length_a 18.107315
_cell_length_b 18.107315
_cell_length_c 18.082311
_cell_angle_alpha 90.000000
_cell_angle_beta 90.000000
_cell_angle_gamma 120.000000
_cell_volume 5134.435230
_symmetry_space_group_name_H-M "P -3 C 1"
_symmetry_group_IT_number 165
_symmetry_cell_setting 'hexagonal'
loop_
_space_group_symop_operation_xyz
x,y,z
-y,x-y,z
-x+y,-x,z
x-y,-y,1/2-z
-x,-x+y,1/2-z
y,x,1/2-z
-x,-y,-z
y,-x+y,-z
x-y,x,-z
-x+y,y,1/2+z
x,x-y,1/2+z
-y,-x,1/2+z
loop_
_atom_site_type_symbol
_atom_site_label
_atom_site_fract_x
_atom_site_fract_y
_atom_site_fract_z
Si Si1 0.162576 0.662169 0.748794
Si Si2 0.321391 0.321391 0.250000
Si Si3 0.689273 0.562222 0.086187
Si Si4 0.670119 0.503459 0.791050
Si Si5 0.917045 0.403452 0.942329
Si Si6 0.938599 0.580861 0.893076
Si Si7 0.805094 0.150860 0.990028
Si Si8 0.707472 0.986503 0.082341
O O1 0.151189 0.674345 0.833921
O O2 0.176505 0.582234 0.742307
O O3 0.241995 0.748852 0.720855
O O4 0.086256 0.644291 0.692478
O O5 0.330074 0.414487 0.243461
O O6 0.278592 0.278271 0.171052
O O7 0.665511 0.636567 0.095918
O O8 0.782672 0.598187 0.053723
O O9 0.625869 0.501480 0.022532
O O10 0.649143 0.499790 0.877747
O O11 0.946424 0.501466 0.926200
O O12 0.982647 0.366826 0.933242
O O13 0.869949 0.596599 0.935475
O O14 0.778895 0.062873 0.033112
O O15 0.894776 0.201135 0.944937
#
# Coordination Sequence:
#
# PCOD9578841 Si02
#       8
#    12   6  12  12  12  12  12  12
#     4  11  23  36  55  82 123 151 198 246 291 338
#     4  10  20  36  60  84 110 160 206 238 288 354
#     4  11  22  34  55  88 108 149 194 239 297 332
#     4  10  22  38  56  79 119 163 196 237 297 344
#     4   9  20  36  57  84 108 159 197 230 290 344
#     4  11  21  37  60  82 117 148 194 248 286 354
#     4  11  21  38  58  86 116 152 192 247 296 357
#     4  10  21  37  61  86 117 155 199 241 297 350
#
# _framework density 17.528706
#
# number of rings (size 3 to 8) (size 9 to 14) (size 15 to 20)
#    0.000    1.600    2.667    4.267    5.600    1.067 
#    0.000    0.000    0.000    6.133    0.000    0.000 
#    0.000    0.000    0.000    0.000    0.000    0.000 
#
# Total GULP energy -501765.149096 kJ/mol
# GULP energy per Si atom -5575.168323 kJ/mol
# Density = 1.748881 g / cm^3
# Si number density = 17.528706 Si / 1000 Ang^3
#
#
#
# Elastic Constant Matrix: (Units=GPa)
#
#
# Indices 1 2 3 4 5 6 
#
# 1 24.3102 81.2305 37.4583 -21.3779 0.0000 0.0000
# 2 81.2305 24.3102 37.4583 21.3779 0.0000 0.0000
# 3 37.4583 37.4583 127.2161 0.0000 0.0000 0.0000
# 4 -21.3779 21.3779 0.0000 15.3975 0.0000 0.0000
# 5 0.0000 0.0000 0.0000 0.0000 15.3975 -21.3779
# 6 0.0000 0.0000 0.0000 0.0000 -21.3779 -28.4601
#
#
#
# Elastic Compliance Matrix: (Units=1/GPa)
#
#
# Indices 1 2 3 4 5 6 
#
# 1 0.001689 0.010289 -0.003527 -0.011940 0.000000 0.000000
# 2 0.010289 0.001689 -0.003527 0.011940 0.000000 0.000000
# 3 -0.003527 -0.003527 0.009938 0.000000 0.000000 0.000000
# 4 -0.011940 0.011940 0.000000 0.031791 0.000000 0.000000
# 5 0.000000 0.000000 0.000000 0.000000 0.031791 -0.023880
# 6 0.000000 0.000000 0.000000 0.000000 -0.023880 -0.017199
#
#
# Mechanical properties :
#
#
# Convention : Reuss Voigt Hill
#
# Bulk Modulus (GPa) = 50.53888 54.23672 52.38780
# Shear Modulus (GPa) = 83.57810 1.77961 42.67885
#
# Velocity S-wave (km/s) = 6.91261 1.00869 4.93972
# Velocity P-wave (km/s) = 9.62325 5.68906 7.90482
#
# Compressibility (1/GPa) = 0.01978675
#
# Stress axis : x y z
#
# Youngs Moduli (GPa) = 591.90562 591.90561 100.62689
#
# Poissons Ratio (x) = -6.09023 0.35492
# Poissons Ratio (y) = -6.09023 0.35492
# Poissons Ratio (z) = 2.08769 2.08769
#
# Static dielectric constant tensor:
#      x y z
#    x 1.599010 0.000000 0.000000 
#    y 0.000000 1.599010 0.000000 
#    z 0.000000 0.000000 1.649740 
# 
# From -- ./inp_files/2400.got.cif
#   From: 2010.05.17/outbox.cif.g08.bks.cpg/sg165_2_cif.got.tgz:2400.got - 2010.05.20 11:02:39.
