data_PCOD9578870
_publ_section_title
;
Structure prediction by ZEFSAII (Michael W. Deem and Ramdas Pophale) SiO2 
 PCOD9578870
Probable space group: P -3 C 1
;
_chemical_formula_sum "Si O2"
_cell_formula_units_Z 72
_cell_length_a 14.146483
_cell_length_b 14.146483
_cell_length_c 17.986885
_cell_angle_alpha 90.000000
_cell_angle_beta 90.000000
_cell_angle_gamma 120.000000
_cell_volume 3117.335560
_symmetry_space_group_name_H-M "P -3 C 1"
_symmetry_group_IT_number 165
_symmetry_cell_setting 'hexagonal'
loop_
_space_group_symop_operation_xyz
x,y,z
-y,x-y,z
-x+y,-x,z
x-y,-y,1/2-z
-x,-x+y,1/2-z
y,x,1/2-z
-x,-y,-z
y,-x+y,-z
x-y,x,-z
-x+y,y,1/2+z
x,x-y,1/2+z
-y,-x,1/2+z
loop_
_atom_site_type_symbol
_atom_site_label
_atom_site_fract_x
_atom_site_fract_y
_atom_site_fract_z
Si Si1 0.242008 0.177466 0.473795
Si Si2 0.089281 0.347425 0.683636
Si Si3 0.367724 0.054698 0.318185
Si Si4 0.459411 0.576533 0.588090
Si Si5 0.407543 0.256786 0.598860
Si Si6 0.868645 0.473601 0.069081
O O1 0.153367 0.204166 0.509674
O O2 0.265031 0.216004 0.387945
O O3 0.359056 0.240622 0.515634
O O4 0.196010 0.343189 0.709244
O O5 0.138318 0.470706 0.649805
O O6 0.000000 0.314048 0.750000
O O7 0.468506 0.104864 0.373618
O O8 0.394391 0.000000 0.250000
O O9 0.264916 0.951150 0.356561
O O10 0.401432 0.580430 0.511652
O O11 0.552730 0.549938 0.562190
O O12 0.517188 0.370707 0.615086
O O13 0.451745 0.173485 0.605332
#
# Coordination Sequence:
#
# PCOD9578870 Si02
#       6
#    12  12  12  12  12  12
#     4  12  25  45  70 105 144 201 257 320 378 451
#     4  12  26  45  75 106 148 204 248 316 397 460
#     4  11  26  46  66 104 143 195 248 311 385 457
#     4  10  22  43  66 101 142 183 243 295 376 457
#     4  11  22  42  72 106 149 180 252 311 381 459
#     4  10  21  37  71 106 134 184 235 308 373 447
#
# _framework density 23.096646
#
# number of rings (size 3 to 8) (size 9 to 14) (size 15 to 20)
#    0.000    1.000    3.333    3.000    7.000    0.000 
#    1.000    0.000    0.000    0.333    0.000    0.000 
#    0.000    0.000    0.000    0.000    0.000    0.000 
#
# Total GULP energy -401225.511294 kJ/mol
# GULP energy per Si atom -5572.576546 kJ/mol
# Density = 2.304408 g / cm^3
# Si number density = 23.096646 Si / 1000 Ang^3
#
#
#
# Elastic Constant Matrix: (Units=GPa)
#
#
# Indices 1 2 3 4 5 6 
#
# 1 93.7421 44.8664 9.2270 -6.0414 0.0000 0.0000
# 2 44.8664 93.7421 9.2270 6.0414 0.0000 0.0000
# 3 9.2270 9.2270 75.2586 0.0000 0.0000 0.0000
# 4 -6.0414 6.0414 0.0000 16.8016 0.0000 0.0000
# 5 0.0000 0.0000 0.0000 0.0000 16.8016 -6.0414
# 6 0.0000 0.0000 0.0000 0.0000 -6.0414 24.4378
#
#
#
# Elastic Compliance Matrix: (Units=1/GPa)
#
#
# Indices 1 2 3 4 5 6 
#
# 1 0.014895 -0.007561 -0.000899 0.008075 0.000000 0.000000
# 2 -0.007561 0.014895 -0.000899 -0.008075 0.000000 0.000000
# 3 -0.000899 -0.000899 0.013508 0.000000 0.000000 0.000000
# 4 0.008075 -0.008075 0.000000 0.065325 0.000000 0.000000
# 5 0.000000 0.000000 0.000000 0.000000 0.065325 0.016149
# 6 0.000000 0.000000 0.000000 0.000000 0.016149 0.044913
#
#
# Mechanical properties :
#
#
# Convention : Reuss Voigt Hill
#
# Bulk Modulus (GPa) = 40.68390 43.26483 41.97436
# Shear Modulus (GPa) = 20.34394 24.90302 22.62348
#
# Velocity S-wave (km/s) = 2.97108 3.28717 3.13311
# Velocity P-wave (km/s) = 5.42426 5.76022 5.59476
#
# Compressibility (1/GPa) = 0.02457975
#
# Stress axis : x y z
#
# Youngs Moduli (GPa) = 67.13540 67.13540 74.03012
#
# Poissons Ratio (x) = 0.50761 0.06657
# Poissons Ratio (y) = 0.50761 0.06657
# Poissons Ratio (z) = 0.06037 0.06037
#
# Static dielectric constant tensor:
#      x y z
#    x 1.923000 0.000000 0.000000 
#    y 0.000000 1.923000 0.000000 
#    z 0.000000 0.000000 2.022600 
# 
# From -- ./inp_files/2257.got.cif
#   From: 2010.05.17/outbox.cif.g08.bks.cpg/sg165_2_cif.got.tgz:2257.got - 2010.05.20 11:02:39.
