data_PCOD9578985
_publ_section_title
;
Structure prediction by ZEFSAII (Michael W. Deem and Ramdas Pophale) SiO2 
 PCOD9578985
Probable space group: P -3 C 1
;
_chemical_formula_sum "Si O2"
_cell_formula_units_Z 40
_cell_length_a 11.328984
_cell_length_b 11.328984
_cell_length_c 15.110009
_cell_angle_alpha 90.000000
_cell_angle_beta 90.000000
_cell_angle_gamma 120.000000
_cell_volume 1679.489456
_symmetry_space_group_name_H-M "P -3 C 1"
_symmetry_group_IT_number 165
_symmetry_cell_setting 'hexagonal'
loop_
_space_group_symop_operation_xyz
x,y,z
-y,x-y,z
-x+y,-x,z
x-y,-y,1/2-z
-x,-x+y,1/2-z
y,x,1/2-z
-x,-y,-z
y,-x+y,-z
x-y,x,-z
-x+y,y,1/2+z
x,x-y,1/2+z
-y,-x,1/2+z
loop_
_atom_site_type_symbol
_atom_site_label
_atom_site_fract_x
_atom_site_fract_y
_atom_site_fract_z
Si Si1 0.834436 0.694421 0.905463
Si Si2 0.000000 0.000000 0.106027
Si Si3 0.727991 0.117957 0.601930
Si Si4 0.600933 0.054871 0.158819
O O1 0.680848 0.602832 0.875266
O O2 0.961217 0.679038 0.875517
O O3 0.886340 0.848215 0.870895
O O4 0.817100 0.670354 0.011957
O O5 0.000000 0.000000 0.000000
O O6 0.584855 0.114984 0.595446
O O7 0.825489 0.241061 0.666934
O O8 0.519995 0.000000 0.250000
#
# Coordination Sequence:
#
# PCOD9578985 Si02
#       4
#    12   4  12  12
#     4  12  22  44  80 104 136 185 245 305 356 429
#     4  12  15  39  73 113 133 153 229 326 352 387
#     4  12  25  49  73 106 146 186 249 297 358 434
#     4  12  29  46  70 106 153 197 231 303 371 429
#
# _framework density 23.816762000000001
#
# number of rings (size 3 to 8) (size 9 to 14) (size 15 to 20)
#    0.000    0.000    9.000    1.500    4.200    0.000 
#    1.800    0.000    0.000    0.000    0.000    0.000 
#    0.000    0.000    0.000    0.000    0.000    0.000 
#
# Total GULP energy -223204.673730 kJ/mol
# GULP energy per Si atom -5580.116843 kJ/mol
# Density = 2.376255 g / cm^3
# Si number density = 23.816762 Si / 1000 Ang^3
#
#
#
# Elastic Constant Matrix: (Units=GPa)
#
#
# Indices 1 2 3 4 5 6 
#
# 1 122.2123 41.4650 22.8093 8.1343 0.0000 0.0000
# 2 41.4650 122.2123 22.8093 -8.1343 0.0000 0.0000
# 3 22.8093 22.8093 40.9983 0.0000 0.0000 0.0000
# 4 8.1343 -8.1343 0.0000 26.8933 0.0000 0.0000
# 5 0.0000 0.0000 0.0000 0.0000 26.8933 8.1343
# 6 0.0000 0.0000 0.0000 0.0000 8.1343 40.3736
#
#
#
# Elastic Compliance Matrix: (Units=1/GPa)
#
#
# Indices 1 2 3 4 5 6 
#
# 1 0.010209 -0.002979 -0.004023 -0.003989 0.000000 0.000000
# 2 -0.002979 0.010209 -0.004023 0.003989 0.000000 0.000000
# 3 -0.004023 -0.004023 0.028867 0.000000 0.000000 0.000000
# 4 -0.003989 0.003989 0.000000 0.039597 0.000000 0.000000
# 5 0.000000 0.000000 0.000000 0.000000 0.039597 -0.007978
# 6 0.000000 0.000000 0.000000 0.000000 -0.007978 0.026376
#
#
# Mechanical properties :
#
#
# Convention : Reuss Voigt Hill
#
# Bulk Modulus (GPa) = 36.71384 51.06556 43.88970
# Shear Modulus (GPa) = 26.88405 32.05467 29.46936
#
# Velocity S-wave (km/s) = 3.36339 3.67261 3.52140
# Velocity P-wave (km/s) = 5.52555 6.28265 5.91623
#
# Compressibility (1/GPa) = 0.02723768
#
# Stress axis : x y z
#
# Youngs Moduli (GPa) = 97.94911 97.94911 34.64118
#
# Poissons Ratio (x) = 0.29175 0.13935
# Poissons Ratio (y) = 0.29175 0.13935
# Poissons Ratio (z) = 0.39403 0.39403
#
# Static dielectric constant tensor:
#      x y z
#    x 1.926660 0.000000 0.000000 
#    y 0.000000 1.926660 0.000000 
#    z 0.000000 0.000000 1.982120 
# 
# From -- ./inp_files/2035.got.cif
#   From: 2010.05.17/outbox.cif.g08.bks.cpg/sg165_2_cif.got.tgz:2035.got - 2010.05.20 11:02:39.
