data_PCOD9578361
_publ_section_title
;
Structure prediction by ZEFSAII (Michael W. Deem and Ramdas Pophale) SiO2 
 PCOD9578361
Probable space group: P -3 M 1
;
_chemical_formula_sum "Si O2"
_cell_formula_units_Z 72
_cell_length_a 23.215496
_cell_length_b 23.215496
_cell_length_c 10.426989
_cell_angle_alpha 90.000000
_cell_angle_beta 90.000000
_cell_angle_gamma 120.000000
_cell_volume 4866.822203
_symmetry_space_group_name_H-M "P -3 M 1"
_symmetry_group_IT_number 164
_symmetry_cell_setting 'hexagonal'
loop_
_space_group_symop_operation_xyz
x,y,z
-y,x-y,z
-x+y,-x,z
x-y,-y,-z
-x,-x+y,-z
y,x,-z
-x,-y,-z
y,-x+y,-z
x-y,x,-z
-x+y,y,z
x,x-y,z
-y,-x,z
loop_
_atom_site_type_symbol
_atom_site_label
_atom_site_fract_x
_atom_site_fract_y
_atom_site_fract_z
Si Si1 0.255390 0.878796 0.750960
Si Si2 0.075384 0.284277 0.999996
Si Si3 0.605436 0.080114 0.849311
Si Si4 0.286977 0.211059 0.500003
Si Si5 0.623406 0.878796 0.249035
Si Si6 0.080114 0.605436 0.849309
O O1 0.198209 0.801792 0.750868
O O2 0.244048 0.911366 0.624909
O O3 0.328289 0.888871 0.766160
O O4 0.241713 0.911861 0.875056
O O5 0.131489 0.262977 0.999995
O O6 0.088142 0.329854 0.124935
O O7 0.000000 0.225246 0.000000
O O8 0.549427 0.098853 0.813533
O O9 0.671711 0.111129 0.766162
O O10 0.569682 0.000000 0.840425
O O11 0.622306 0.097229 0.000001
O O12 0.227630 0.227630 0.500000
O O13 0.266518 0.133259 0.500003
O O14 0.332679 0.244047 0.624918
O O15 0.603582 0.801791 0.249132
O O16 0.098853 0.549427 0.813532
#
# Coordination Sequence:
#
# PCOD9578361 Si02
#       6
#    12  12  12  12  12  12
#     4  10  19  30  46  67  91 120 151 188 232 273
#     4  10  18  28  45  66  87 113 147 187 227 273
#     4   9  16  26  43  66  90 116 144 178 220 264
#     4  10  20  32  47  68  95 125 153 189 237 283
#     4  10  19  30  46  67  91 120 151 188 232 273
#     4   9  16  26  43  66  90 116 144 178 220 264
#
# _framework density 14.794048
#
# number of rings (size 3 to 8) (size 9 to 14) (size 15 to 20)
#    0.000    2.333    1.667    4.000    0.000    0.000 
#    0.000    0.833    0.000    4.000    0.000    0.000 
#    0.000    8.000    0.000    0.000    0.000    1.333 
#
# Total GULP energy -401361.245716 kJ/mol
# GULP energy per Si atom -5574.461746 kJ/mol
# Density = 1.476038 g / cm^3
# Si number density = 14.794048 Si / 1000 Ang^3
#
#
#
# Elastic Constant Matrix: (Units=GPa)
#
#
# Indices 1 2 3 4 5 6 
#
# 1 101.7347 59.4151 35.5134 -0.0020 0.0000 0.0000
# 2 59.4151 101.7347 35.5134 0.0020 0.0000 0.0000
# 3 35.5134 35.5134 95.2540 0.0000 0.0000 0.0000
# 4 -0.0020 0.0020 0.0000 4.2856 0.0000 0.0000
# 5 0.0000 0.0000 0.0000 0.0000 4.2856 -0.0020
# 6 0.0000 0.0000 0.0000 0.0000 -0.0020 21.1598
#
#
#
# Elastic Compliance Matrix: (Units=1/GPa)
#
#
# Indices 1 2 3 4 5 6 
#
# 1 0.015528 -0.008102 -0.002768 0.000011 0.000000 0.000000
# 2 -0.008102 0.015528 -0.002768 -0.000011 0.000000 0.000000
# 3 -0.002768 -0.002768 0.012563 0.000000 0.000000 0.000000
# 4 0.000011 -0.000011 0.000000 0.233339 0.000000 0.000000
# 5 0.000000 0.000000 0.000000 0.000000 0.233339 0.000023
# 6 0.000000 0.000000 0.000000 0.000000 0.000023 0.047259
#
#
# Mechanical properties :
#
#
# Convention : Reuss Voigt Hill
#
# Bulk Modulus (GPa) = 61.19991 62.17857 61.68924
# Shear Modulus (GPa) = 8.47056 17.16498 12.81777
#
# Velocity S-wave (km/s) = 2.39543 3.40996 2.94668
# Velocity P-wave (km/s) = 7.00775 7.59108 7.30524
#
# Compressibility (1/GPa) = 0.01633989
#
# Stress axis : x y z
#
# Youngs Moduli (GPa) = 64.40119 64.40119 79.60149
#
# Poissons Ratio (x) = 0.52178 0.22037
# Poissons Ratio (y) = 0.52178 0.22037
# Poissons Ratio (z) = 0.17829 0.17829
#
# Static dielectric constant tensor:
#      x y z
#    x 1.483210 0.000000 0.000000 
#    y 0.000000 1.483210 0.000000 
#    z 0.000000 0.000000 1.493940 
# 
# From -- ./inp_files/1960.got.cif
#   From: 2010.05.17/outbox.cif.g08.bks.cpg/sg164_1_cif.got.tgz:1960.got - 2010.05.20 10:58:56.
