data_PCOD9578151
_publ_section_title
;
Structure prediction by ZEFSAII (Michael W. Deem and Ramdas Pophale) SiO2 
 PCOD9578151
Probable space group: P -3 1 C
;
_chemical_formula_sum "Si O2"
_cell_formula_units_Z 84
_cell_length_a 15.300204
_cell_length_b 15.300204
_cell_length_c 21.624192
_cell_angle_alpha 90.000000
_cell_angle_beta 90.000000
_cell_angle_gamma 120.000000
_cell_volume 4383.943650
_symmetry_space_group_name_H-M "P -3 1 C"
_symmetry_group_IT_number 163
_symmetry_cell_setting 'hexagonal'
loop_
_space_group_symop_operation_xyz
x,y,z
-y,x-y,z
-x+y,-x,z
-y,-x,1/2-z
-x+y,y,1/2-z
x,x-y,1/2-z
-x,-y,-z
y,-x+y,-z
x-y,x,-z
y,x,1/2+z
x-y,-y,1/2+z
-x,-x+y,1/2+z
loop_
_atom_site_type_symbol
_atom_site_label
_atom_site_fract_x
_atom_site_fract_y
_atom_site_fract_z
Si Si1 0.178189 0.216122 0.354768
Si Si2 0.330831 0.931652 0.698299
Si Si3 0.572025 0.852384 0.665154
Si Si4 0.965427 0.165472 0.378255
Si Si5 0.295000 0.192851 0.992605
Si Si6 0.954926 0.475678 0.400222
Si Si7 0.057461 0.404298 0.485928
O O1 0.278983 0.279710 0.314690
O O2 0.156625 0.102536 0.352116
O O3 0.198117 0.250673 0.426404
O O4 0.074162 0.215057 0.346567
O O5 0.257007 0.818144 0.671830
O O6 0.331089 0.905304 0.769803
O O7 0.432822 0.980341 0.659149
O O8 0.684243 0.916961 0.639175
O O9 0.495215 0.863571 0.621399
O O10 0.947804 0.156981 0.453246
O O11 0.354565 0.129984 0.987457
O O12 0.367020 0.310417 0.007223
O O13 0.923688 0.524659 0.455545
O O14 0.046452 0.460020 0.425408
#
# Coordination Sequence:
#
# PCOD9578151 Si02
#       7
#    12  12  12  12  12  12  12
#     4  11  20  33  55  85 124 156 192 227 274 340
#     4  10  22  38  58  83 112 149 190 243 293 344
#     4  10  21  39  59  81 113 147 192 242 295 344
#     4  11  20  33  55  87 121 158 190 228 276 337
#     4  12  18  36  54  85 118 154 185 230 280 345
#     4  11  21  39  58  85 107 149 192 238 292 354
#     4  11  23  34  62  84 117 152 189 234 292 350
#
# _framework density 19.160831000000002
#
# number of rings (size 3 to 8) (size 9 to 14) (size 15 to 20)
#    0.000    1.143    5.714    1.571    0.000    0.571 
#    0.857    1.429    0.000    1.714    0.000    0.000 
#    0.000    0.000    0.000    0.000    0.000    0.000 
#
# Total GULP energy -467688.734073 kJ/mol
# GULP energy per Si atom -5567.723025 kJ/mol
# Density = 1.911722 g / cm^3
# Si number density = 19.160831 Si / 1000 Ang^3
#
#
#
# Elastic Constant Matrix: (Units=GPa)
#
#
# Indices 1 2 3 4 5 6 
#
# 1 62.5073 31.3543 28.7672 0.0000 -2.4885 0.0000
# 2 31.3543 62.5073 28.7672 0.0000 2.4885 0.0000
# 3 28.7672 28.7672 57.3965 0.0000 0.0000 0.0000
# 4 0.0000 0.0000 0.0000 19.9741 0.0000 2.4885
# 5 -2.4885 2.4885 0.0000 0.0000 19.9741 0.0000
# 6 0.0000 0.0000 0.0000 2.4885 0.0000 15.5765
#
#
#
# Elastic Compliance Matrix: (Units=1/GPa)
#
#
# Indices 1 2 3 4 5 6 
#
# 1 0.024065 -0.008686 -0.007708 0.000000 0.004080 0.000000
# 2 -0.008686 0.024065 -0.007708 0.000000 -0.004080 0.000000
# 3 -0.007708 -0.007708 0.025149 0.000000 0.000000 0.000000
# 4 0.000000 0.000000 0.000000 0.051082 0.000000 -0.008161
# 5 0.004080 -0.004080 0.000000 0.000000 0.051082 0.000000
# 6 0.000000 0.000000 0.000000 -0.008161 0.000000 0.065503
#
#
# Mechanical properties :
#
#
# Convention : Reuss Voigt Hill
#
# Bulk Modulus (GPa) = 39.88024 40.02095 39.95060
# Shear Modulus (GPa) = 16.80629 17.33976 17.07302
#
# Velocity S-wave (km/s) = 2.96483 3.01152 2.98826
# Velocity P-wave (km/s) = 5.70779 5.74670 5.72728
#
# Compressibility (1/GPa) = 0.02507507
#
# Stress axis : x y z
#
# Youngs Moduli (GPa) = 41.55399 41.55399 39.76307
#
# Poissons Ratio (x) = 0.36096 0.30649
# Poissons Ratio (y) = 0.36096 0.30649
# Poissons Ratio (z) = 0.32029 0.32029
#
# Static dielectric constant tensor:
#      x y z
#    x 1.704990 0.000000 0.000000 
#    y 0.000000 1.704990 0.000000 
#    z 0.000000 0.000000 1.750280 
# 
# From -- ./inp_files/3938.got.cif
#   From: 2010.05.17/outbox.cif.g08.bks.cpg/sg163_2_cif.got.tgz:3938.got - 2010.05.20 10:56:03.
