data_PCOD9578210
_publ_section_title
;
Structure prediction by ZEFSAII (Michael W. Deem and Ramdas Pophale) SiO2 
 PCOD9578210
Probable space group: P -3 1 C
;
_chemical_formula_sum "Si O2"
_cell_formula_units_Z 28
_cell_length_a 9.754348
_cell_length_b 9.754348
_cell_length_c 13.024542
_cell_angle_alpha 90.000000
_cell_angle_beta 90.000000
_cell_angle_gamma 120.000000
_cell_volume 1073.222041
_symmetry_space_group_name_H-M "P -3 1 C"
_symmetry_group_IT_number 163
_symmetry_cell_setting 'hexagonal'
loop_
_space_group_symop_operation_xyz
x,y,z
-y,x-y,z
-x+y,-x,z
-y,-x,1/2-z
-x+y,y,1/2-z
x,x-y,1/2-z
-x,-y,-z
y,-x+y,-z
x-y,x,-z
y,x,1/2+z
x-y,-y,1/2+z
-x,-x+y,1/2+z
loop_
_atom_site_type_symbol
_atom_site_label
_atom_site_fract_x
_atom_site_fract_y
_atom_site_fract_z
Si Si1 0.667590 0.162932 0.072205
Si Si2 0.164336 0.806777 0.129911
Si Si3 0.000000 0.000000 0.628478
O O1 0.814783 0.334588 0.104486
O O2 0.653701 0.004711 0.112284
O O3 0.701114 0.172283 0.949661
O O4 0.196981 0.803020 0.250000
O O5 0.125999 0.946448 0.101661
O O6 0.000000 0.000000 0.750000
#
# Coordination Sequence:
#
# PCOD9578210 Si02
#       3
#    12  12   4
#     4  10  24  42  71 105 145 183 234 303 350 415
#     4  11  22  43  72 105 142 193 242 289 359 425
#     4   9  21  37  65  97 127 179 247 295 320 403
#
# _framework density 26.089662000000001
#
# number of rings (size 3 to 8) (size 9 to 14) (size 15 to 20)
#    0.857    0.857    0.000    3.857    0.000    3.429 
#    0.000    8.571    0.000   18.000    0.000    0.000 
#    0.000    0.000    0.000    0.000    0.000    0.000 
#
# Total GULP energy -156574.916294 kJ/mol
# GULP energy per Si atom -5591.961296 kJ/mol
# Density = 2.603028 g / cm^3
# Si number density = 26.089662 Si / 1000 Ang^3
#
#
#
# Elastic Constant Matrix: (Units=GPa)
#
#
# Indices 1 2 3 4 5 6 
#
# 1 124.1386 44.7568 25.4873 0.0000 -4.9931 0.0000
# 2 44.7568 124.1386 25.4873 0.0000 4.9931 0.0000
# 3 25.4873 25.4873 151.9965 0.0000 0.0000 0.0000
# 4 0.0000 0.0000 0.0000 12.6615 0.0000 4.9931
# 5 -4.9931 4.9931 0.0000 0.0000 12.6615 0.0000
# 6 0.0000 0.0000 0.0000 4.9931 0.0000 39.6909
#
#
#
# Elastic Compliance Matrix: (Units=1/GPa)
#
#
# Indices 1 2 3 4 5 6 
#
# 1 0.009746 -0.003509 -0.001046 0.000000 0.005227 0.000000
# 2 -0.003509 0.009746 -0.001046 0.000000 -0.005227 0.000000
# 3 -0.001046 -0.001046 0.006930 0.000000 0.000000 0.000000
# 4 0.000000 0.000000 0.000000 0.083102 0.000000 -0.010454
# 5 0.005227 -0.005227 0.000000 0.000000 0.083102 0.000000
# 6 0.000000 0.000000 0.000000 -0.010454 0.000000 0.026510
#
#
# Mechanical properties :
#
#
# Convention : Reuss Voigt Hill
#
# Bulk Modulus (GPa) = 65.70431 65.74850 65.72640
# Shear Modulus (GPa) = 21.23948 33.30559 27.27253
#
# Velocity S-wave (km/s) = 2.85633 3.57680 3.23668
# Velocity P-wave (km/s) = 6.00973 6.50490 6.26221
#
# Compressibility (1/GPa) = 0.01521970
#
# Stress axis : x y z
#
# Youngs Moduli (GPa) = 102.60956 102.60956 144.30409
#
# Poissons Ratio (x) = 0.36008 0.15091
# Poissons Ratio (y) = 0.36008 0.15091
# Poissons Ratio (z) = 0.10730 0.10730
#
# Static dielectric constant tensor:
#      x y z
#    x 2.055210 0.000000 0.000000 
#    y 0.000000 2.055210 0.000000 
#    z 0.000000 0.000000 1.998220 
# 
# From -- ./inp_files/1976.got.cif
#   From: 2010.05.17/outbox.cif.g08.bks.cpg/sg163_1_cif.got.tgz:1976.got - 2010.05.20 10:56:03.
