data_PCOD9578034
_publ_section_title
;
Structure prediction by ZEFSAII (Michael W. Deem and Ramdas Pophale) SiO2 
 PCOD9578034
Probable space group: P -3 1 C
;
_chemical_formula_sum "Si O2"
_cell_formula_units_Z 60
_cell_length_a 19.645851
_cell_length_b 19.645851
_cell_length_c 9.484805
_cell_angle_alpha 90.000000
_cell_angle_beta 90.000000
_cell_angle_gamma 120.000000
_cell_volume 3170.302696
_symmetry_space_group_name_H-M "P -3 1 C"
_symmetry_group_IT_number 163
_symmetry_cell_setting 'hexagonal'
loop_
_space_group_symop_operation_xyz
x,y,z
-y,x-y,z
-x+y,-x,z
-y,-x,1/2-z
-x+y,y,1/2-z
x,x-y,1/2-z
-x,-y,-z
y,-x+y,-z
x-y,x,-z
y,x,1/2+z
x-y,-y,1/2+z
-x,-x+y,1/2+z
loop_
_atom_site_type_symbol
_atom_site_label
_atom_site_fract_x
_atom_site_fract_y
_atom_site_fract_z
Si Si1 0.186123 0.093062 0.750000
Si Si2 0.918384 0.466758 0.416646
Si Si3 0.325218 0.946530 0.651842
Si Si4 0.821683 0.910842 0.750000
Si Si5 0.295547 0.137073 0.014404
Si Si6 0.685797 0.100677 0.022260
O O1 0.129475 0.127404 0.791648
O O2 0.245172 0.102281 0.874783
O O3 0.933915 0.466958 0.250000
O O4 0.895547 0.534724 0.421152
O O5 0.867452 0.376254 0.467017
O O6 0.000000 0.500000 0.500000
O O7 0.240813 0.919518 0.588024
O O8 0.322055 0.936529 0.820537
O O9 0.380963 0.035080 0.599574
O O10 0.765197 0.905861 0.623420
O O11 0.374057 0.221468 0.997288
#
# Coordination Sequence:
#
# PCOD9578034 Si02
#       6
#     6  12  12   6  12  12
#     4  12  27  40  60  78 108 150 208 252 316 370
#     4   8  16  30  52  77 104 134 162 201 258 323
#     4  10  19  34  54  80 110 141 178 225 280 335
#     4  12  23  44  56  78 104 152 194 262 308 358
#     4  12  24  36  57  81 112 145 191 248 295 344
#     4  10  19  34  54  80 110 141 178 225 280 335
#
# _framework density 18.925636999999998
#
# number of rings (size 3 to 8) (size 9 to 14) (size 15 to 20)
#    0.000    1.600    2.000    3.800    2.800    0.000 
#    0.000    2.000    0.000    0.800    0.000    2.800 
#    0.000    0.000    0.000    0.000    0.000    0.000 
#
# Total GULP energy -334077.212463 kJ/mol
# GULP energy per Si atom -5567.953541 kJ/mol
# Density = 1.888256 g / cm^3
# Si number density = 18.925637 Si / 1000 Ang^3
#
#
#
# Elastic Constant Matrix: (Units=GPa)
#
#
# Indices 1 2 3 4 5 6 
#
# 1 56.0625 -1.4788 0.0345 -0.0001 -1.2519 0.0000
# 2 -1.4788 56.0625 0.0345 0.0001 1.2519 0.0000
# 3 0.0345 0.0345 40.1245 0.0000 0.0000 0.0000
# 4 -0.0001 0.0001 0.0000 17.1372 0.0000 1.2519
# 5 -1.2519 1.2519 0.0000 0.0000 17.1372 -0.0001
# 6 0.0000 0.0000 0.0000 1.2519 -0.0001 28.7707
#
#
#
# Elastic Compliance Matrix: (Units=1/GPa)
#
#
# Indices 1 2 3 4 5 6 
#
# 1 0.017877 0.000443 -0.000016 0.000000 0.001274 0.000000
# 2 0.000443 0.017877 -0.000016 0.000000 -0.001274 0.000000
# 3 -0.000016 -0.000016 0.024922 0.000000 0.000000 0.000000
# 4 0.000000 0.000000 0.000000 0.058539 0.000000 -0.002547
# 5 0.001274 -0.001274 0.000000 0.000000 0.058539 0.000000
# 6 0.000000 0.000000 0.000000 -0.002547 0.000000 0.034868
#
#
# Mechanical properties :
#
#
# Convention : Reuss Voigt Hill
#
# Bulk Modulus (GPa) = 16.26005 16.60333 16.43169
# Shear Modulus (GPa) = 21.52392 22.85298 22.18845
#
# Velocity S-wave (km/s) = 3.37603 3.47870 3.42775
# Velocity P-wave (km/s) = 4.87924 4.99271 4.93630
#
# Compressibility (1/GPa) = 0.06150044
#
# Stress axis : x y z
#
# Youngs Moduli (GPa) = 55.93667 55.93667 40.12446
#
# Poissons Ratio (x) = -0.02479 0.00063
# Poissons Ratio (y) = -0.02479 0.00063
# Poissons Ratio (z) = 0.00088 0.00088
#
# Static dielectric constant tensor:
#      x y z
#    x 1.713910 0.000000 0.000000 
#    y 0.000000 1.713910 0.000000 
#    z 0.000000 0.000000 1.673140 
# 
# From -- ./inp_files/1764.got.cif
#   From: 2010.05.17/outbox.cif.g08.bks.cpg/sg163_1_cif.got.tgz:1764.got - 2010.05.20 10:56:03.
