data_PCOD9578367
_publ_section_title
;
Structure prediction by ZEFSAII (Michael W. Deem and Ramdas Pophale) SiO2 
 PCOD9578367
Probable space group: P -3 M 1
;
_chemical_formula_sum "Si O2"
_cell_formula_units_Z 84
_cell_length_a 17.708194
_cell_length_b 17.708194
_cell_length_c 20.657409
_cell_angle_alpha 90.000000
_cell_angle_beta 90.000000
_cell_angle_gamma 120.000000
_cell_volume 5609.898742
_symmetry_space_group_name_H-M "P -3 M 1"
_symmetry_group_IT_number 164
_symmetry_cell_setting 'hexagonal'
loop_
_space_group_symop_operation_xyz
x,y,z
-y,x-y,z
-x+y,-x,z
x-y,-y,-z
-x,-x+y,-z
y,x,-z
-x,-y,-z
y,-x+y,-z
x-y,x,-z
-x+y,y,z
x,x-y,z
-y,-x,z
loop_
_atom_site_type_symbol
_atom_site_label
_atom_site_fract_x
_atom_site_fract_y
_atom_site_fract_z
Si Si1 0.695066 0.760094 0.187426
Si Si2 0.696361 0.938156 0.692013
Si Si3 0.531806 0.895347 0.999510
Si Si4 0.666177 0.513327 0.249748
Si Si5 0.999812 0.178250 0.575410
Si Si6 0.836710 0.504308 0.853818
Si Si7 0.898747 0.628116 0.125278
O O1 0.718904 0.859452 0.176684
O O2 0.736394 0.745804 0.252075
O O3 0.589999 0.703423 0.189558
O O4 0.719393 0.712842 0.131079
O O5 0.706108 0.853054 0.703512
O O6 0.592871 0.902120 0.700104
O O7 0.742585 0.978184 0.623939
O O8 0.430749 0.861498 0.983035
O O9 0.532928 0.861548 0.071152
O O10 0.581157 0.876315 0.943442
O O11 0.580141 0.000000 0.000000
O O12 0.747269 0.494537 0.250543
O O13 0.574447 0.425554 0.259505
O O14 0.669956 0.557966 0.180048
O O15 0.078322 0.156643 0.582600
O O16 0.000000 0.201553 0.500000
O O17 0.907469 0.092532 0.590267
O O18 0.734308 0.468615 0.846824
O O19 0.860977 0.430489 0.840116
O O20 0.827209 0.654418 0.142452
#
# Coordination Sequence:
#
# PCOD9578367 Si02
#       7
#    12  12  12  12  12  12  12
#     4  10  19  30  44  61  84 114 146 177 211 253
#     4   9  18  31  46  67  93 120 148 180 216 256
#     4  10  18  29  45  65  86 107 137 176 221 276
#     4   9  17  28  44  65  89 116 146 181 222 267
#     4   9  16  27  46  72 100 126 150 178 216 262
#     4  10  20  32  46  64  86 112 142 180 224 270
#     4  10  19  31  46  64  85 109 141 184 229 272
#
# _framework density 14.973533
#
# number of rings (size 3 to 8) (size 9 to 14) (size 15 to 20)
#    0.000    2.429    1.429    3.000    0.000    2.857 
#    0.000    0.000    0.000    8.143    0.000    0.000 
#    0.000    0.571    0.000    0.571    0.000    0.000 
#
# Total GULP energy -467693.871406 kJ/mol
# GULP energy per Si atom -5567.784183 kJ/mol
# Density = 1.493945 g / cm^3
# Si number density = 14.973533 Si / 1000 Ang^3
#
#
#
# Elastic Constant Matrix: (Units=GPa)
#
#
# Indices 1 2 3 4 5 6 
#
# 1 85.6808 38.7497 28.1876 -9.5601 0.0000 0.0000
# 2 38.7497 85.6808 28.1876 9.5601 0.0000 0.0000
# 3 28.1876 28.1876 50.6137 0.0000 0.0000 0.0000
# 4 -9.5601 9.5601 0.0000 30.4275 0.0000 0.0000
# 5 0.0000 0.0000 0.0000 0.0000 30.4275 -9.5601
# 6 0.0000 0.0000 0.0000 0.0000 -9.5601 23.4655
#
#
#
# Elastic Compliance Matrix: (Units=1/GPa)
#
#
# Indices 1 2 3 4 5 6 
#
# 1 0.017592 -0.006844 -0.005986 0.007678 0.000000 0.000000
# 2 -0.006844 0.017592 -0.005986 -0.007678 0.000000 0.000000
# 3 -0.005986 -0.005986 0.026425 0.000000 0.000000 0.000000
# 4 0.007678 -0.007678 0.000000 0.037689 0.000000 0.000000
# 5 0.000000 0.000000 0.000000 0.000000 0.037689 0.015355
# 6 0.000000 0.000000 0.000000 0.000000 0.015355 0.048871
#
#
# Mechanical properties :
#
#
# Convention : Reuss Voigt Hill
#
# Bulk Modulus (GPa) = 41.70503 45.80281 43.75392
# Shear Modulus (GPa) = 21.59974 25.32079 23.46026
#
# Velocity S-wave (km/s) = 3.80218 4.11668 3.96255
# Velocity P-wave (km/s) = 6.86938 7.29738 7.08661
#
# Compressibility (1/GPa) = 0.02397793
#
# Stress axis : x y z
#
# Youngs Moduli (GPa) = 56.84324 56.84324 37.84287
#
# Poissons Ratio (x) = 0.38901 0.22653
# Poissons Ratio (y) = 0.38901 0.22653
# Poissons Ratio (z) = 0.34027 0.34027
#
# Static dielectric constant tensor:
#      x y z
#    x 1.508440 0.000000 0.000000 
#    y 0.000000 1.508440 0.000000 
#    z 0.000000 0.000000 1.492370 
# 
# From -- ./inp_files/4641.got.cif
#   From: 2010.05.17/outbox.cif.g08.bks.cpg/sg164_3_cif.got.tgz:4641.got - 2010.05.20 10:58:56.
