data_PCOD9578150
_publ_section_title
;
Structure prediction by ZEFSAII (Michael W. Deem and Ramdas Pophale) SiO2 
 PCOD9578150
Probable space group: P -3 1 C
;
_chemical_formula_sum "Si O2"
_cell_formula_units_Z 44
_cell_length_a 12.691369
_cell_length_b 12.691369
_cell_length_c 14.734079
_cell_angle_alpha 90.000000
_cell_angle_beta 90.000000
_cell_angle_gamma 120.000000
_cell_volume 2055.277976
_symmetry_space_group_name_H-M "P -3 1 C"
_symmetry_group_IT_number 163
_symmetry_cell_setting 'hexagonal'
loop_
_space_group_symop_operation_xyz
x,y,z
-y,x-y,z
-x+y,-x,z
-y,-x,1/2-z
-x+y,y,1/2-z
x,x-y,1/2-z
-x,-y,-z
y,-x+y,-z
x-y,x,-z
y,x,1/2+z
x-y,-y,1/2+z
-x,-x+y,1/2+z
loop_
_atom_site_type_symbol
_atom_site_label
_atom_site_fract_x
_atom_site_fract_y
_atom_site_fract_z
Si Si1 0.810137 0.620274 0.750000
Si Si2 0.476764 0.404564 0.079629
Si Si3 0.543549 0.456452 0.750000
Si Si4 0.000000 0.000000 0.606810
Si Si5 0.666668 0.333335 0.139721
Si Si6 0.737835 0.934027 0.662980
O O1 0.679244 0.523163 0.708259
O O2 0.786088 0.711608 0.809783
O O3 0.454103 0.459994 0.169826
O O4 0.595809 0.396999 0.099585
O O5 0.360538 0.266036 0.082974
O O6 0.500000 0.500000 0.000000
O O7 0.859974 0.931864 0.638277
O O8 0.000000 0.000000 0.500000
O O9 0.666668 0.333334 0.250000
O O10 0.683411 0.841706 0.750000
#
# Coordination Sequence:
#
# PCOD9578150 Si02
#       6
#     6  12   6   4   4  12
#     4  10  21  38  72  92 143 186 244 298 368 452
#     4  11  27  44  71 106 142 193 253 312 371 454
#     4  10  23  42  66 104 139 192 240 300 382 426
#     4  12  25  38  67 114 148 188 238 312 379 449
#     4  12  24  48  78 103 149 205 252 306 378 460
#     4  11  22  44  70 100 146 194 244 303 381 454
#
# _framework density 21.408297000000001
#
# number of rings (size 3 to 8) (size 9 to 14) (size 15 to 20)
#    0.000    1.091    4.091    1.091    3.818    8.727 
#    0.000    0.000    0.000    0.000    0.000    0.000 
#    0.000    0.000    0.000    0.000    0.000    0.000 
#
# Total GULP energy -245159.824881 kJ/mol
# GULP energy per Si atom -5571.814202 kJ/mol
# Density = 2.135957 g / cm^3
# Si number density = 21.408297 Si / 1000 Ang^3
#
#
#
# Elastic Constant Matrix: (Units=GPa)
#
#
# Indices 1 2 3 4 5 6 
#
# 1 127.9368 8.6632 33.9782 0.0005 6.4639 0.0001
# 2 8.6632 127.9385 33.9787 -0.0015 -6.4645 0.0000
# 3 33.9782 33.9787 90.8802 0.0000 0.0000 0.0000
# 4 0.0005 -0.0015 0.0000 34.9633 0.0003 -6.4655
# 5 6.4639 -6.4645 0.0000 0.0003 34.9631 -0.0013
# 6 0.0001 0.0000 0.0000 -6.4655 -0.0013 59.6365
#
#
#
# Elastic Compliance Matrix: (Units=1/GPa)
#
#
# Indices 1 2 3 4 5 6 
#
# 1 0.008774 0.000219 -0.003362 0.000000 -0.001582 0.000000
# 2 0.000219 0.008774 -0.003362 0.000000 0.001582 0.000000
# 3 -0.003362 -0.003362 0.013518 0.000000 0.000000 0.000000
# 4 0.000000 0.000000 0.000000 0.029187 0.000000 0.003164
# 5 -0.001582 0.001582 0.000000 0.000000 0.029187 0.000001
# 6 0.000000 0.000000 0.000000 0.003164 0.000001 0.017111
#
#
# Mechanical properties :
#
#
# Convention : Reuss Voigt Hill
#
# Bulk Modulus (GPa) = 55.38714 55.55508 55.47111
# Shear Modulus (GPa) = 39.81486 43.92160 41.86823
#
# Velocity S-wave (km/s) = 4.31720 4.53439 4.42713
# Velocity P-wave (km/s) = 7.12594 7.30896 7.21803
#
# Compressibility (1/GPa) = 0.01805473
#
# Stress axis : x y z
#
# Youngs Moduli (GPa) = 113.96704 113.96805 73.97641
#
# Poissons Ratio (x) = -0.02495 0.24874
# Poissons Ratio (y) = -0.02495 0.24874
# Poissons Ratio (z) = 0.38321 0.38321
#
# Static dielectric constant tensor:
#      x y z
#    x 1.633920 -0.000010 0.000000 
#    y -0.000010 1.633910 0.000000 
#    z 0.000000 0.000000 1.754670 
# 
# From -- ./inp_files/2978.got.cif
#   From: 2010.05.17/outbox.cif.g08.bks.cpg/sg163_2_cif.got.tgz:2978.got - 2010.05.20 10:56:03.
