data_PCOD9578419
_publ_section_title
;
Structure prediction by ZEFSAII (Michael W. Deem and Ramdas Pophale) SiO2 
 PCOD9578419
Probable space group: P -3 M 1
;
_chemical_formula_sum "Si O2"
_cell_formula_units_Z 60
_cell_length_a 17.602050
_cell_length_b 17.602050
_cell_length_c 13.269959
_cell_angle_alpha 90.000000
_cell_angle_beta 90.000000
_cell_angle_gamma 120.000000
_cell_volume 3560.628907
_symmetry_space_group_name_H-M "P -3 M 1"
_symmetry_group_IT_number 164
_symmetry_cell_setting 'hexagonal'
loop_
_space_group_symop_operation_xyz
x,y,z
-y,x-y,z
-x+y,-x,z
x-y,-y,-z
-x,-x+y,-z
y,x,-z
-x,-y,-z
y,-x+y,-z
x-y,x,-z
-x+y,y,z
x,x-y,z
-y,-x,z
loop_
_atom_site_type_symbol
_atom_site_label
_atom_site_fract_x
_atom_site_fract_y
_atom_site_fract_z
Si Si1 0.080481 0.332256 0.852330
Si Si2 0.159510 0.667356 0.239085
Si Si3 0.178308 0.000000 0.500000
Si Si4 0.831698 0.000000 0.000000
Si Si5 0.759901 0.067496 0.690016
Si Si6 0.152255 0.666620 0.006375
O O1 0.177604 0.355207 0.818808
O O2 0.041313 0.244580 0.918767
O O3 0.093083 0.410678 0.926142
O O4 0.014035 0.301572 0.760580
O O5 0.141256 0.570628 0.258323
O O6 0.263294 0.736707 0.238258
O O7 0.116339 0.703383 0.317946
O O8 0.128612 0.670958 0.123897
O O9 0.167507 0.083754 0.472104
O O10 0.247534 0.031514 0.591602
O O11 0.922724 0.077277 0.957619
O O12 0.854399 0.145602 0.732964
O O13 0.149181 0.574591 0.992011
O O14 0.251041 0.748960 0.993956
#
# Coordination Sequence:
#
# PCOD9578419 Si02
#       6
#    12  12   6   6  12  12
#     4  10  19  30  45  66  94 126 157 193 238 285
#     4   9  17  30  49  73 101 133 167 200 234 275
#     4  10  21  38  59  78  94 116 152 200 251 300
#     4  10  19  30  43  60  86 120 154 184 219 272
#     4  10  20  34  51  71  95 122 155 199 249 295
#     4   9  17  29  47  72 102 136 171 203 233 270
#
# _framework density 16.850954999999999
#
# number of rings (size 3 to 8) (size 9 to 14) (size 15 to 20)
#    0.000    2.400    0.000    3.000    0.000    5.600 
#    0.000    3.000    0.000    6.400    0.000    0.000 
#    0.000    3.200    0.000    0.000    0.000    1.600 
#
# Total GULP energy -334123.956248 kJ/mol
# GULP energy per Si atom -5568.732604 kJ/mol
# Density = 1.681260 g / cm^3
# Si number density = 16.850955 Si / 1000 Ang^3
#
#
#
# Elastic Constant Matrix: (Units=GPa)
#
#
# Indices 1 2 3 4 5 6 
#
# 1 99.8051 45.8990 41.7793 2.6516 0.0000 0.0000
# 2 45.8990 99.8051 41.7793 -2.6516 0.0000 0.0000
# 3 41.7793 41.7793 39.4537 0.0000 0.0000 0.0000
# 4 2.6516 -2.6516 0.0000 21.1038 0.0000 0.0000
# 5 0.0000 0.0000 0.0000 0.0000 21.1038 2.6516
# 6 0.0000 0.0000 0.0000 0.0000 2.6516 26.9530
#
#
#
# Elastic Compliance Matrix: (Units=1/GPa)
#
#
# Indices 1 2 3 4 5 6 
#
# 1 0.018130 -0.000653 -0.018506 -0.002360 0.000000 0.000000
# 2 -0.000653 0.018130 -0.018506 0.002360 0.000000 0.000000
# 3 -0.018506 -0.018506 0.064541 0.000000 0.000000 0.000000
# 4 -0.002360 0.002360 0.000000 0.047978 0.000000 0.000000
# 5 0.000000 0.000000 0.000000 0.000000 0.047978 -0.004720
# 6 0.000000 0.000000 0.000000 0.000000 -0.004720 0.037566
#
#
# Mechanical properties :
#
#
# Convention : Reuss Voigt Hill
#
# Bulk Modulus (GPa) = 39.26562 55.33100 47.29831
# Shear Modulus (GPa) = 15.71619 21.13920 18.42770
#
# Velocity S-wave (km/s) = 3.05726 3.54571 3.31050
# Velocity P-wave (km/s) = 5.98454 7.04766 6.53775
#
# Compressibility (1/GPa) = 0.02546757
#
# Stress axis : x y z
#
# Youngs Moduli (GPa) = 55.15832 55.15832 15.49414
#
# Poissons Ratio (x) = 0.03604 0.28674
# Poissons Ratio (y) = 0.03604 0.28674
# Poissons Ratio (z) = 1.02078 1.02078
#
# Static dielectric constant tensor:
#      x y z
#    x 1.597460 0.000000 0.000000 
#    y 0.000000 1.597460 0.000000 
#    z 0.000000 0.000000 1.562910 
# 
# From -- ./inp_files/2743.got.cif
#   From: 2010.05.17/outbox.cif.g08.bks.cpg/sg164_2_cif.got.tgz:2743.got - 2010.05.20 10:58:56.
