data_PCOD9578940
_publ_section_title
;
Structure prediction by ZEFSAII (Michael W. Deem and Ramdas Pophale) SiO2 
 PCOD9578940
Probable space group: P -3 C 1
;
_chemical_formula_sum "Si O2"
_cell_formula_units_Z 34
_cell_length_a 11.075051
_cell_length_b 11.075051
_cell_length_c 13.205060
_cell_angle_alpha 90.000000
_cell_angle_beta 90.000000
_cell_angle_gamma 120.000000
_cell_volume 1402.692517
_symmetry_space_group_name_H-M "P -3 C 1"
_symmetry_group_IT_number 165
_symmetry_cell_setting 'hexagonal'
loop_
_space_group_symop_operation_xyz
x,y,z
-y,x-y,z
-x+y,-x,z
x-y,-y,1/2-z
-x,-x+y,1/2-z
y,x,1/2-z
-x,-y,-z
y,-x+y,-z
x-y,x,-z
-x+y,y,1/2+z
x,x-y,1/2+z
-y,-x,1/2+z
loop_
_atom_site_type_symbol
_atom_site_label
_atom_site_fract_x
_atom_site_fract_y
_atom_site_fract_z
Si Si1 0.000000 0.570179 0.750000
Si Si2 0.558277 0.623474 0.917335
Si Si3 0.676755 0.856086 0.593725
Si Si4 0.000000 0.000000 0.128648
O O1 0.102469 0.541108 0.820816
O O2 0.913393 0.611131 0.825306
O O3 0.705662 0.649272 0.877291
O O4 0.500000 0.500000 0.000000
O O5 0.601025 0.760047 0.985046
O O6 0.843758 0.957334 0.594388
O O7 0.000000 0.000000 0.250000
#
# Coordination Sequence:
#
# PCOD9578940 Si02
#       4
#     6  12  12   4
#     4  10  24  44  70 100 142 198 232 288 340 440
#     4  10  24  44  70 100 145 187 234 292 342 434
#     4  11  23  45  73 111 142 179 248 293 384 414
#     4  12  24  40  83 116 143 181 228 352 371 419
#
# _framework density 24.239094999999999
#
# number of rings (size 3 to 8) (size 9 to 14) (size 15 to 20)
#    0.000    1.412    1.765    2.118    2.471    7.059 
#   16.941    0.000    7.765    0.000    0.000    0.000 
#    0.000    0.000    0.000    0.000    0.000    0.000 
#
# Total GULP energy -190103.428844 kJ/mol
# GULP energy per Si atom -5591.277319 kJ/mol
# Density = 2.418393 g / cm^3
# Si number density = 24.239095 Si / 1000 Ang^3
#
#
#
# Elastic Constant Matrix: (Units=GPa)
#
#
# Indices 1 2 3 4 5 6 
#
# 1 80.5396 32.5518 38.0895 -1.1847 0.0000 0.0000
# 2 32.5518 80.5396 38.0895 1.1847 0.0000 0.0000
# 3 38.0895 38.0895 153.6609 0.0000 0.0000 0.0000
# 4 -1.1847 1.1847 0.0000 33.7831 0.0000 0.0000
# 5 0.0000 0.0000 0.0000 0.0000 33.7831 -1.1847
# 6 0.0000 0.0000 0.0000 0.0000 -1.1847 23.9939
#
#
#
# Elastic Compliance Matrix: (Units=1/GPa)
#
#
# Indices 1 2 3 4 5 6 
#
# 1 0.015745 -0.005130 -0.002631 0.000732 0.000000 0.000000
# 2 -0.005130 0.015745 -0.002631 -0.000732 0.000000 0.000000
# 3 -0.002631 -0.002631 0.007812 0.000000 0.000000 0.000000
# 4 0.000732 -0.000732 0.000000 0.029652 0.000000 0.000000
# 5 0.000000 0.000000 0.000000 0.000000 0.029652 0.001464
# 6 0.000000 0.000000 0.000000 0.000000 0.001464 0.041750
#
#
# Mechanical properties :
#
#
# Convention : Reuss Voigt Hill
#
# Bulk Modulus (GPa) = 54.00420 59.13353 56.56886
# Shear Modulus (GPa) = 29.88421 32.04596 30.96508
#
# Velocity S-wave (km/s) = 3.51507 3.63998 3.57807
# Velocity P-wave (km/s) = 6.22916 6.48960 6.36071
#
# Compressibility (1/GPa) = 0.01851708
#
# Stress axis : x y z
#
# Youngs Moduli (GPa) = 63.51310 63.51310 128.00352
#
# Poissons Ratio (x) = 0.32582 0.33680
# Poissons Ratio (y) = 0.32582 0.33680
# Poissons Ratio (z) = 0.16712 0.16712
#
# Static dielectric constant tensor:
#      x y z
#    x 1.946040 0.000000 0.000000 
#    y 0.000000 1.946040 0.000000 
#    z 0.000000 0.000000 1.971220 
# 
# From -- ./inp_files/1414.got.cif
#   From: 2010.05.17/outbox.cif.g08.bks.cpg/sg165_1_cif.got.tgz:1414.got - 2010.05.20 11:02:39.
