data_PCOD9578792
_publ_section_title
;
Structure prediction by ZEFSAII (Michael W. Deem and Ramdas Pophale) SiO2 
 PCOD9578792
Probable space group: P -3 C 1
;
_chemical_formula_sum "Si O2"
_cell_formula_units_Z 68
_cell_length_a 13.414049
_cell_length_b 13.414049
_cell_length_c 25.124425
_cell_angle_alpha 90.000000
_cell_angle_beta 90.000000
_cell_angle_gamma 120.000000
_cell_volume 3915.133179
_symmetry_space_group_name_H-M "P -3 C 1"
_symmetry_group_IT_number 165
_symmetry_cell_setting 'hexagonal'
loop_
_space_group_symop_operation_xyz
x,y,z
-y,x-y,z
-x+y,-x,z
x-y,-y,1/2-z
-x,-x+y,1/2-z
y,x,1/2-z
-x,-y,-z
y,-x+y,-z
x-y,x,-z
-x+y,y,1/2+z
x,x-y,1/2+z
-y,-x,1/2+z
loop_
_atom_site_type_symbol
_atom_site_label
_atom_site_fract_x
_atom_site_fract_y
_atom_site_fract_z
Si Si1 0.865735 0.730254 0.687086
Si Si2 0.333334 0.666668 0.064116
Si Si3 0.865735 0.135482 0.312914
Si Si4 0.333334 0.666668 0.435880
Si Si5 0.423746 0.290015 0.402688
Si Si6 0.269116 0.134559 1.000000
Si Si7 0.576254 0.866272 0.402687
O O1 0.821325 0.821326 0.677714
O O2 0.853189 0.703801 0.750000
O O3 0.784997 0.621228 0.650984
O O4 1.000000 0.788633 0.673050
O O5 0.218165 0.661928 0.085001
O O6 0.333334 0.666667 0.999998
O O7 0.784997 0.163771 0.349016
O O8 0.443762 0.781837 0.414997
O O9 0.349241 0.204552 0.450506
O O10 0.388287 0.388285 0.400009
O O11 0.190380 0.190381 0.986923
O O12 0.349243 0.204555 0.049494
#
# Coordination Sequence:
#
# PCOD9578792 Si02
#       7
#    12   4  12   4  12  12  12
#     4   9  17  32  56  86 119 153 187 225 273 330
#     4  12  24  42  61  80 103 147 192 232 281 343
#     4   9  17  32  56  86 119 153 187 225 273 330
#     4  12  24  42  61  80 103 147 192 232 281 343
#     4  10  22  37  55  81 111 142 184 234 276 326
#     4  10  19  32  52  80 113 144 176 222 278 328
#     4  10  22  37  55  81 111 142 184 234 276 326
#
# _framework density 17.368503
#
# number of rings (size 3 to 8) (size 9 to 14) (size 15 to 20)
#    0.000    2.118    1.765    1.588    0.000    4.941 
#    0.000    5.294    0.000    4.235    0.000    0.000 
#    0.000    0.000    0.000    0.000    0.000    0.000 
#
# Total GULP energy -379557.698011 kJ/mol
# GULP energy per Si atom -5581.730853 kJ/mol
# Density = 1.732897 g / cm^3
# Si number density = 17.368503 Si / 1000 Ang^3
#
#
#
# Elastic Constant Matrix: (Units=GPa)
#
#
# Indices 1 2 3 4 5 6 
#
# 1 87.2317 53.2897 35.4928 0.0000 0.0000 0.0000
# 2 53.2897 87.2334 35.4939 0.0000 0.0000 0.0000
# 3 35.4928 35.4939 61.8079 -0.0001 0.0000 0.0000
# 4 0.0000 0.0000 -0.0001 19.2700 0.0000 0.0000
# 5 0.0000 0.0000 0.0000 0.0000 19.2688 0.0000
# 6 0.0000 0.0000 0.0000 0.0000 0.0000 16.9724
#
#
#
# Elastic Compliance Matrix: (Units=1/GPa)
#
#
# Indices 1 2 3 4 5 6 
#
# 1 0.019743 -0.009718 -0.005756 0.000000 0.000000 0.000000
# 2 -0.009718 0.019743 -0.005757 0.000000 0.000000 0.000000
# 3 -0.005756 -0.005757 0.022790 0.000000 0.000000 0.000000
# 4 0.000000 0.000000 0.000000 0.051894 0.000000 0.000000
# 5 0.000000 0.000000 0.000000 0.000000 0.051897 0.000000
# 6 0.000000 0.000000 0.000000 0.000000 0.000000 0.058919
#
#
# Mechanical properties :
#
#
# Convention : Reuss Voigt Hill
#
# Bulk Modulus (GPa) = 50.47146 53.86952 52.17049
# Shear Modulus (GPa) = 18.24459 18.56869 18.40664
#
# Velocity S-wave (km/s) = 3.24457 3.27326 3.25894
# Velocity P-wave (km/s) = 6.56952 6.73562 6.65309
#
# Compressibility (1/GPa) = 0.01981318
#
# Stress axis : x y z
#
# Youngs Moduli (GPa) = 50.65128 50.65166 43.87797
#
# Poissons Ratio (x) = 0.49226 0.25257
# Poissons Ratio (y) = 0.49225 0.25259
# Poissons Ratio (z) = 0.29156 0.29158
#
# Static dielectric constant tensor:
#      x y z
#    x 1.565490 0.000000 0.000000 
#    y 0.000000 1.565490 0.000000 
#    z 0.000000 0.000000 1.591520 
# 
# From -- ./inp_files/3329.got.cif
#   From: 2010.05.17/outbox.cif.g08.bks.cpg/sg165_2_cif.got.tgz:3329.got - 2010.05.20 11:02:39.
