data_PCOD9578416
_publ_section_title
;
Structure prediction by ZEFSAII (Michael W. Deem and Ramdas Pophale) SiO2 
 PCOD9578416
Probable space group: P -3 M 1
;
_chemical_formula_sum "Si O2"
_cell_formula_units_Z 84
_cell_length_a 17.529186
_cell_length_b 17.529186
_cell_length_c 20.644262
_cell_angle_alpha 90.000000
_cell_angle_beta 90.000000
_cell_angle_gamma 120.000000
_cell_volume 5493.555196
_symmetry_space_group_name_H-M "P -3 M 1"
_symmetry_group_IT_number 164
_symmetry_cell_setting 'hexagonal'
loop_
_space_group_symop_operation_xyz
x,y,z
-y,x-y,z
-x+y,-x,z
x-y,-y,-z
-x,-x+y,-z
y,x,-z
-x,-y,-z
y,-x+y,-z
x-y,x,-z
-x+y,y,z
x,x-y,z
-y,-x,z
loop_
_atom_site_type_symbol
_atom_site_label
_atom_site_fract_x
_atom_site_fract_y
_atom_site_fract_z
Si Si1 0.665448 0.152878 0.994235
Si Si2 0.093254 0.367783 0.888799
Si Si3 0.062605 0.307658 0.690468
Si Si4 0.333596 0.849264 0.760399
Si Si5 0.841732 0.334309 0.842398
Si Si6 0.999737 0.180260 0.576068
Si Si7 0.763545 0.060498 0.810250
O O1 0.575942 0.151884 0.010681
O O2 0.748838 0.251162 0.003189
O O3 0.680690 0.091866 0.043599
O O4 0.662222 0.132242 0.918129
O O5 0.176553 0.353106 0.889458
O O6 0.112477 0.436845 0.829935
O O7 0.006689 0.278563 0.869527
O O8 0.152051 0.304102 0.698129
O O9 0.092989 0.409201 0.707032
O O10 0.021039 0.262709 0.622058
O O11 0.995338 0.248691 0.746305
O O12 0.426120 0.852239 0.754598
O O13 0.251034 0.748967 0.756781
O O14 0.858694 0.429347 0.822912
O O15 0.738320 0.261681 0.838837
O O16 0.893920 0.296672 0.803344
O O17 0.080094 0.160187 0.585396
O O18 0.000000 0.200849 0.500000
O O19 0.906587 0.093414 0.591493
O O20 0.861928 0.138073 0.821345
#
# Coordination Sequence:
#
# PCOD9578416 Si02
#       7
#    12  12  12  12  12  12  12
#     4   9  16  27  43  63  86 110 135 166 212 269
#     4   9  18  30  43  60  83 108 135 176 228 271
#     4   9  18  31  46  65  90 117 141 171 213 253
#     4   9  16  26  41  62  87 115 146 178 213 255
#     4   9  18  30  44  62  84 110 140 176 217 260
#     4   9  16  27  46  72  98 120 141 168 207 257
#     4  10  19  30  43  58  79 111 146 173 201 243
#
# _framework density 15.290644
#
# number of rings (size 3 to 8) (size 9 to 14) (size 15 to 20)
#    0.000    2.857    0.000    2.714    0.000    5.143 
#    0.000    2.857    0.000    4.429    0.000    0.000 
#    0.000    0.000    0.000   29.143    0.000    0.000 
#
# Total GULP energy -468018.886924 kJ/mol
# GULP energy per Si atom -5571.653416 kJ/mol
# Density = 1.525584 g / cm^3
# Si number density = 15.290644 Si / 1000 Ang^3
#
#
#
# Elastic Constant Matrix: (Units=GPa)
#
#
# Indices 1 2 3 4 5 6 
#
# 1 55.2987 30.1047 15.8201 -4.3661 0.0000 0.0000
# 2 30.1047 55.2987 15.8201 4.3661 0.0000 0.0000
# 3 15.8201 15.8201 30.3865 0.0000 0.0000 0.0000
# 4 -4.3661 4.3661 0.0000 19.0348 0.0000 0.0000
# 5 0.0000 0.0000 0.0000 0.0000 19.0348 -4.3661
# 6 0.0000 0.0000 0.0000 0.0000 -4.3661 12.5970
#
#
#
# Elastic Compliance Matrix: (Units=1/GPa)
#
#
# Indices 1 2 3 4 5 6 
#
# 1 0.028814 -0.014306 -0.007553 0.009891 0.000000 0.000000
# 2 -0.014306 0.028814 -0.007553 -0.009891 0.000000 0.000000
# 3 -0.007553 -0.007553 0.040774 0.000000 0.000000 0.000000
# 4 0.009891 -0.009891 0.000000 0.057073 0.000000 0.000000
# 5 0.000000 0.000000 0.000000 0.000000 0.057073 0.019781
# 6 0.000000 0.000000 0.000000 0.000000 0.019781 0.086240
#
#
# Mechanical properties :
#
#
# Convention : Reuss Voigt Hill
#
# Bulk Modulus (GPa) = 25.26734 29.38600 27.32667
# Shear Modulus (GPa) = 13.48423 15.41594 14.45008
#
# Velocity S-wave (km/s) = 2.97284 3.17865 3.07747
# Velocity P-wave (km/s) = 5.32393 5.72117 5.52612
#
# Compressibility (1/GPa) = 0.03957678
#
# Stress axis : x y z
#
# Youngs Moduli (GPa) = 34.70571 34.70571 24.52546
#
# Poissons Ratio (x) = 0.49651 0.18524
# Poissons Ratio (y) = 0.49651 0.18524
# Poissons Ratio (z) = 0.26213 0.26213
#
# Static dielectric constant tensor:
#      x y z
#    x 1.517700 0.000000 0.000000 
#    y 0.000000 1.517700 0.000000 
#    z 0.000000 0.000000 1.504370 
# 
# From -- ./inp_files/4655.got.cif
#   From: 2010.05.17/outbox.cif.g08.bks.cpg/sg164_3_cif.got.tgz:4655.got - 2010.05.20 10:58:56.
