data_PCOD9578716
_publ_section_title
;
Structure prediction by ZEFSAII (Michael W. Deem and Ramdas Pophale) SiO2 
 PCOD9578716
Probable space group: P -3 M 1
;
_chemical_formula_sum "Si O2"
_cell_formula_units_Z 84
_cell_length_a 20.007154
_cell_length_b 20.007154
_cell_length_c 12.451536
_cell_angle_alpha 90.000000
_cell_angle_beta 90.000000
_cell_angle_gamma 120.000000
_cell_volume 4316.424911
_symmetry_space_group_name_H-M "P -3 M 1"
_symmetry_group_IT_number 164
_symmetry_cell_setting 'hexagonal'
loop_
_space_group_symop_operation_xyz
x,y,z
-y,x-y,z
-x+y,-x,z
x-y,-y,-z
-x,-x+y,-z
y,x,-z
-x,-y,-z
y,-x+y,-z
x-y,x,-z
-x+y,y,z
x,x-y,z
-y,-x,z
loop_
_atom_site_type_symbol
_atom_site_label
_atom_site_fract_x
_atom_site_fract_y
_atom_site_fract_z
Si Si1 0.899150 0.525591 0.229284
Si Si2 0.231065 0.193446 0.110294
Si Si3 0.948722 0.201765 0.677377
Si Si4 0.921257 0.533477 0.831926
Si Si5 0.597154 0.720797 0.965858
Si Si6 0.258728 0.356377 0.593168
Si Si7 0.861825 0.287650 0.636074
O O1 0.876354 0.438177 0.261212
O O2 0.857240 0.531606 0.122840
O O3 0.894313 0.581641 0.318002
O O4 0.988709 0.567801 0.195861
O O5 0.229997 0.114999 0.135363
O O6 0.193934 0.213386 0.209109
O O7 0.320897 0.257102 0.089176
O O8 0.188486 0.188486 0.000000
O O9 0.883899 0.116102 0.632045
O O10 0.899207 0.243347 0.697269
O O11 0.024998 0.269725 0.615201
O O12 0.900229 0.450115 0.875571
O O13 0.879000 0.523907 0.717869
O O14 0.905113 0.578285 0.925042
O O15 0.603099 0.801550 0.991441
O O16 0.174647 0.349294 0.592448
O O17 0.299214 0.396838 0.479984
O O18 0.771536 0.228465 0.620494
#
# Coordination Sequence:
#
# PCOD9578716 Si02
#       7
#    12  12  12  12  12  12  12
#     4  11  22  36  59  89 121 156 197 254 314 370
#     4  11  21  34  56  85 120 163 208 258 313 374
#     4  11  21  36  58  87 121 154 199 258 317 374
#     4  11  22  36  57  86 124 158 195 253 316 374
#     4  11  21  36  59  85 119 160 205 253 305 373
#     4  11  22  40  63  88 124 164 208 261 317 384
#     4  10  21  37  60  86 117 155 201 257 308 368
#
# _framework density 19.460549
#
# number of rings (size 3 to 8) (size 9 to 14) (size 15 to 20)
#    0.000    1.143    2.857    4.714    0.000    4.000 
#    0.000    2.143    0.000   13.429    0.000    0.000 
#    0.000   13.714    0.000    0.000    0.000    0.000 
#
# Total GULP energy -468257.212107 kJ/mol
# GULP energy per Si atom -5574.490620 kJ/mol
# Density = 1.941626 g / cm^3
# Si number density = 19.460549 Si / 1000 Ang^3
#
#
#
# Elastic Constant Matrix: (Units=GPa)
#
#
# Indices 1 2 3 4 5 6 
#
# 1 50.1780 39.6012 22.0321 13.1427 0.0000 0.0000
# 2 39.6012 50.1780 22.0321 -13.1427 0.0000 0.0000
# 3 22.0321 22.0321 89.3335 0.0000 0.0000 0.0000
# 4 13.1427 -13.1427 0.0000 15.1553 0.0000 0.0000
# 5 0.0000 0.0000 0.0000 0.0000 15.1553 13.1427
# 6 0.0000 0.0000 0.0000 0.0000 13.1427 5.2884
#
#
#
# Elastic Compliance Matrix: (Units=1/GPa)
#
#
# Indices 1 2 3 4 5 6 
#
# 1 -0.034587 0.047259 -0.003125 0.070977 0.000000 0.000000
# 2 0.047259 -0.034587 -0.003125 -0.070977 0.000000 0.000000
# 3 -0.003125 -0.003125 0.012736 0.000000 0.000000 0.000000
# 4 0.070977 -0.070977 0.000000 -0.057120 0.000000 0.000000
# 5 0.000000 0.000000 0.000000 0.000000 -0.057120 0.141955
# 6 0.000000 0.000000 0.000000 0.000000 0.141955 -0.163692
#
#
# Mechanical properties :
#
#
# Convention : Reuss Voigt Hill
#
# Bulk Modulus (GPa) = 39.09469 39.66895 39.38182
# Shear Modulus (GPa) = -12.25906 14.18807 0.96450
#
# Velocity S-wave (km/s) = -2.51259 2.70306 0.70477
# Velocity P-wave (km/s) = 3.42277 5.49277 4.57635
#
# Compressibility (1/GPa) = 0.02557892
#
# Stress axis : x y z
#
# Youngs Moduli (GPa) = -28.91267 -28.91267 78.52001
#
# Poissons Ratio (x) = 1.36639 0.24540
# Poissons Ratio (y) = 1.36639 0.24540
# Poissons Ratio (z) = -0.09036 -0.09036
#
# Static dielectric constant tensor:
#      x y z
#    x 2.057190 0.000000 0.000000 
#    y 0.000000 2.057190 0.000000 
#    z 0.000000 0.000000 1.793320 
# 
# From -- ./inp_files/2953.got.cif
#   From: 2010.05.17/outbox.cif.g08.bks.cpg/sg164_2_cif.got.tgz:2953.got - 2010.05.20 10:58:56.
