data_PCOD9578360
_publ_section_title
;
Structure prediction by ZEFSAII (Michael W. Deem and Ramdas Pophale) SiO2 
 PCOD9578360
Probable space group: P -3 M 1
;
_chemical_formula_sum "Si O2"
_cell_formula_units_Z 60
_cell_length_a 18.408020
_cell_length_b 18.408020
_cell_length_c 10.272751
_cell_angle_alpha 90.000000
_cell_angle_beta 90.000000
_cell_angle_gamma 120.000000
_cell_volume 3014.612865
_symmetry_space_group_name_H-M "P -3 M 1"
_symmetry_group_IT_number 164
_symmetry_cell_setting 'hexagonal'
loop_
_space_group_symop_operation_xyz
x,y,z
-y,x-y,z
-x+y,-x,z
x-y,-y,-z
-x,-x+y,-z
y,x,-z
-x,-y,-z
y,-x+y,-z
x-y,x,-z
-x+y,y,z
x,x-y,z
-y,-x,z
loop_
_atom_site_type_symbol
_atom_site_label
_atom_site_fract_x
_atom_site_fract_y
_atom_site_fract_z
Si Si1 0.702580 0.136634 0.312308
Si Si2 0.169457 0.666138 0.402543
Si Si3 0.934789 0.230392 0.891484
Si Si4 0.567382 0.595232 0.193107
Si Si5 0.199517 0.235365 0.643573
O O1 0.774538 0.225463 0.254968
O O2 0.668078 0.155010 0.443879
O O3 0.750748 0.087438 0.356293
O O4 0.628271 0.070558 0.222005
O O5 0.201066 0.600533 0.375673
O O6 0.239811 0.760189 0.362800
O O7 0.081797 0.629748 0.326818
O O8 0.842924 0.157077 0.922167
O O9 0.939932 0.320240 0.887866
O O10 0.965922 0.213792 0.753267
O O11 0.000000 0.237152 0.000000
O O12 0.478394 0.521606 0.142839
O O13 0.204535 0.204535 0.500000
O O14 0.103542 0.207084 0.677787
#
# Coordination Sequence:
#
# PCOD9578360 Si02
#       5
#    12  12  12  12  12
#     4   9  17  28  46  75 109 147 190 235 280 329
#     4  10  18  28  44  71 110 152 192 234 283 336
#     4  11  23  40  62  86 114 150 192 235 280 334
#     4  10  20  34  54  79 107 141 185 236 284 334
#     4  10  19  33  56  85 116 150 191 237 282 330
#
# _framework density 19.903051999999999
#
# number of rings (size 3 to 8) (size 9 to 14) (size 15 to 20)
#    0.000    2.000    0.000    5.600    0.000    4.400 
#    0.000    0.000    0.000    8.800    0.000    1.400 
#    0.000    0.000    0.000    0.000    0.000    0.200 
#
# Total GULP energy -334859.740051 kJ/mol
# GULP energy per Si atom -5580.995668 kJ/mol
# Density = 1.985775 g / cm^3
# Si number density = 19.903052 Si / 1000 Ang^3
#
#
#
# Elastic Constant Matrix: (Units=GPa)
#
#
# Indices 1 2 3 4 5 6 
#
# 1 93.4170 54.1071 25.4934 4.3055 0.0000 0.0000
# 2 54.1071 93.4170 25.4934 -4.3055 0.0000 0.0000
# 3 25.4934 25.4934 55.3268 0.0000 0.0000 0.0000
# 4 4.3055 -4.3055 0.0000 8.8887 0.0000 0.0000
# 5 0.0000 0.0000 0.0000 0.0000 8.8887 4.3055
# 6 0.0000 0.0000 0.0000 0.0000 4.3055 19.6550
#
#
#
# Elastic Compliance Matrix: (Units=1/GPa)
#
#
# Indices 1 2 3 4 5 6 
#
# 1 0.018260 -0.010198 -0.003715 -0.013785 0.000000 0.000000
# 2 -0.010198 0.018260 -0.003715 0.013785 0.000000 0.000000
# 3 -0.003715 -0.003715 0.021498 0.000000 0.000000 0.000000
# 4 -0.013785 0.013785 0.000000 0.125856 0.000000 0.000000
# 5 0.000000 0.000000 0.000000 0.000000 0.125856 -0.027569
# 6 0.000000 0.000000 0.000000 0.000000 -0.027569 0.056917
#
#
# Mechanical properties :
#
#
# Convention : Reuss Voigt Hill
#
# Bulk Modulus (GPa) = 43.93105 50.26095 47.09600
# Shear Modulus (GPa) = 12.21025 16.62429 14.41727
#
# Velocity S-wave (km/s) = 2.47955 2.89323 2.69434
# Velocity P-wave (km/s) = 5.50618 6.03893 5.77870
#
# Compressibility (1/GPa) = 0.02276294
#
# Stress axis : x y z
#
# Youngs Moduli (GPa) = 54.76306 54.76306 46.51588
#
# Poissons Ratio (x) = 0.55847 0.17281
# Poissons Ratio (y) = 0.55847 0.17281
# Poissons Ratio (z) = 0.20345 0.20345
#
# Static dielectric constant tensor:
#      x y z
#    x 1.712230 0.000000 0.000000 
#    y 0.000000 1.712230 0.000000 
#    z 0.000000 0.000000 1.735660 
# 
# From -- ./inp_files/2721.got.cif
#   From: 2010.05.17/outbox.cif.g08.bks.cpg/sg164_2_cif.got.tgz:2721.got - 2010.05.20 10:58:56.
