data_PCOD9578240
_publ_section_title
;
Structure prediction by ZEFSAII (Michael W. Deem and Ramdas Pophale) SiO2 
 PCOD9578240
Probable space group: P -3 1 C
;
_chemical_formula_sum "Si O2"
_cell_formula_units_Z 68
_cell_length_a 12.489544
_cell_length_b 12.489544
_cell_length_c 25.775184
_cell_angle_alpha 90.000000
_cell_angle_beta 90.000000
_cell_angle_gamma 120.000000
_cell_volume 3481.974374
_symmetry_space_group_name_H-M "P -3 1 C"
_symmetry_group_IT_number 163
_symmetry_cell_setting 'hexagonal'
loop_
_space_group_symop_operation_xyz
x,y,z
-y,x-y,z
-x+y,-x,z
-y,-x,1/2-z
-x+y,y,1/2-z
x,x-y,1/2-z
-x,-y,-z
y,-x+y,-z
x-y,x,-z
y,x,1/2+z
x-y,-y,1/2+z
-x,-x+y,1/2+z
loop_
_atom_site_type_symbol
_atom_site_label
_atom_site_fract_x
_atom_site_fract_y
_atom_site_fract_z
Si Si1 0.943479 0.391854 0.426454
Si Si2 0.676364 0.576215 0.603057
Si Si3 0.907419 0.326280 0.313781
Si Si4 0.068549 0.410317 0.699521
Si Si5 0.666668 0.333334 0.920250
Si Si6 0.772930 0.745330 0.509950
Si Si7 0.333334 0.666667 0.546242
O O1 0.962491 0.342130 0.371140
O O2 0.984121 0.337259 0.473574
O O3 0.798477 0.351767 0.434346
O O4 0.023353 0.539295 0.422468
O O5 0.663556 0.622695 0.659109
O O6 0.711339 0.469840 0.600721
O O7 0.763809 0.686873 0.565898
O O8 0.886519 0.444219 0.308903
O O9 0.786910 0.191736 0.311946
O O10 0.973815 0.339930 0.258560
O O11 0.666668 0.333334 0.983169
O O12 0.767997 0.869144 0.515384
#
# Coordination Sequence:
#
# PCOD9578240 Si02
#       7
#    12  12  12  12   4  12   4
#     4  11  21  34  57  85 117 150 192 239 294 354
#     4  11  23  38  58  85 116 158 196 243 293 358
#     4   9  16  29  51  83 115 146 185 238 288 342
#     4   9  17  30  53  82 117 149 188 235 295 342
#     4  12  24  39  57  82 125 160 204 238 296 358
#     4  12  24  39  57  80 111 148 190 239 297 362
#     4  12  21  33  57  91 122 157 195 241 305 364
#
# _framework density 19.529150999999999
#
# number of rings (size 3 to 8) (size 9 to 14) (size 15 to 20)
#    0.000    1.412    1.765    6.353    0.000    1.412 
#    0.000    0.000    0.000   26.471    0.000    0.000 
#    0.000    2.824    0.000    0.000    0.000    0.000 
#
# Total GULP energy -379604.043438 kJ/mol
# GULP energy per Si atom -5582.412403 kJ/mol
# Density = 1.948470 g / cm^3
# Si number density = 19.529151 Si / 1000 Ang^3
#
#
#
# Elastic Constant Matrix: (Units=GPa)
#
#
# Indices 1 2 3 4 5 6 
#
# 1 15.9899 8.8110 12.7421 0.0003 -8.2570 -0.0004
# 2 8.8110 15.9896 12.7419 0.0000 8.2572 0.0002
# 3 12.7421 12.7419 131.0904 0.0001 0.0001 -0.0001
# 4 0.0003 0.0000 0.0001 14.9691 -0.0002 8.2569
# 5 -8.2570 8.2572 0.0001 -0.0002 14.9693 -0.0002
# 6 -0.0004 0.0002 -0.0001 8.2569 -0.0002 3.5898
#
#
#
# Elastic Compliance Matrix: (Units=1/GPa)
#
#
# Indices 1 2 3 4 5 6 
#
# 1 -0.236596 0.281396 -0.004354 -0.000127 -0.285726 0.000233
# 2 0.281396 -0.236604 -0.004354 0.000133 0.285730 -0.000246
# 3 -0.004354 -0.004354 0.008475 0.000000 0.000000 0.000000
# 4 -0.000127 0.000133 0.000000 -0.248575 -0.000140 0.571756
# 5 -0.285726 0.285730 0.000000 -0.000140 -0.248413 0.000260
# 6 0.000233 -0.000246 0.000000 0.571756 0.000260 -1.036545
#
#
# Mechanical properties :
#
#
# Convention : Reuss Voigt Hill
#
# Bulk Modulus (GPa) = 12.39938 25.73998 19.06968
# Shear Modulus (GPa) = -1.98669 15.29064 6.65197
#
# Velocity S-wave (km/s) = -1.00970 2.80119 1.84759
# Velocity P-wave (km/s) = 2.23688 4.86529 3.78647
#
# Compressibility (1/GPa) = 0.08064922
#
# Stress axis : x y z
#
# Youngs Moduli (GPa) = -4.22661 -4.22647 117.99733
#
# Poissons Ratio (x) = 1.18931 0.51377
# Poissons Ratio (y) = 1.18935 0.51378
# Poissons Ratio (z) = -0.01840 -0.01840
#
# Static dielectric constant tensor:
#      x y z
#    x 1.667720 0.000000 0.000000 
#    y 0.000000 1.667720 0.000000 
#    z 0.000000 0.000000 1.715990 
# 
# From -- ./inp_files/4365.got.cif
#   From: 2010.05.17/outbox.cif.g08.bks.cpg/sg163_3_cif.got.tgz:4365.got - 2010.05.20 10:56:03.
