data_PCOD9578479
_publ_section_title
;
Structure prediction by ZEFSAII (Michael W. Deem and Ramdas Pophale) SiO2 
 PCOD9578479
Probable space group: P -3 M 1
;
_chemical_formula_sum "Si O2"
_cell_formula_units_Z 96
_cell_length_a 16.545952
_cell_length_b 16.545952
_cell_length_c 20.220116
_cell_angle_alpha 90.000000
_cell_angle_beta 90.000000
_cell_angle_gamma 120.000000
_cell_volume 4793.997405
_symmetry_space_group_name_H-M "P -3 M 1"
_symmetry_group_IT_number 164
_symmetry_cell_setting 'hexagonal'
loop_
_space_group_symop_operation_xyz
x,y,z
-y,x-y,z
-x+y,-x,z
x-y,-y,-z
-x,-x+y,-z
y,x,-z
-x,-y,-z
y,-x+y,-z
x-y,x,-z
-x+y,y,z
x,x-y,z
-y,-x,z
loop_
_atom_site_type_symbol
_atom_site_label
_atom_site_fract_x
_atom_site_fract_y
_atom_site_fract_z
Si Si1 0.177537 0.001532 0.379298
Si Si2 0.723905 0.091762 0.540375
Si Si3 0.605180 0.657973 0.838848
Si Si4 0.230416 0.277167 0.243450
Si Si5 0.060381 0.623142 0.331572
Si Si6 0.284998 0.390315 0.982401
Si Si7 0.664885 0.148328 0.297736
Si Si8 0.153617 0.665381 0.118467
O O1 0.206051 0.103026 0.403756
O O2 0.221996 0.953602 0.422341
O O3 0.208742 0.002418 0.303906
O O4 0.066993 0.933008 0.381813
O O5 0.807619 0.192382 0.512628
O O6 0.669018 0.109372 0.599534
O O7 0.647771 0.000000 0.500000
O O8 0.708841 0.733611 0.813499
O O9 0.575653 0.680788 0.908219
O O10 0.540223 0.651604 0.778210
O O11 0.619817 0.569694 0.851118
O O12 0.134191 0.268381 0.220947
O O13 0.295778 0.379086 0.278103
O O14 0.077018 0.538509 0.311075
O O15 0.947241 0.576190 0.338843
O O16 0.175605 0.351209 0.985572
O O17 0.314902 0.314902 0.000000
O O18 0.329856 0.467703 0.039696
O O19 0.591665 0.183330 0.310048
O O20 0.770156 0.229845 0.309063
O O21 0.191604 0.595802 0.132183
O O22 0.229530 0.770471 0.139261
#
# Coordination Sequence:
#
# PCOD9578479 Si02
#       8
#    12  12  12  12  12  12  12  12
#     4   9  17  29  46  70 100 132 163 197 238 283
#     4  10  20  33  52  77 104 134 168 204 243 289
#     4  10  19  31  50  73  98 127 162 199 242 297
#     4   9  18  32  50  72  98 127 161 200 241 288
#     4   9  19  34  52  74 100 133 170 207 248 291
#     4   9  19  33  49  69  93 124 162 204 249 296
#     4  10  20  33  50  73 101 132 166 207 253 298
#     4  10  20  34  51  71  96 125 158 196 240 291
#
# _framework density 20.025041000000002
#
# number of rings (size 3 to 8) (size 9 to 14) (size 15 to 20)
#    0.000    2.500    0.000    3.000    0.000    9.500 
#    0.000    0.000    0.000    5.625    0.000    1.750 
#    0.000    0.000    0.000    0.000    0.000    0.000 
#
# Total GULP energy -534725.202996 kJ/mol
# GULP energy per Si atom -5570.054198 kJ/mol
# Density = 1.997946 g / cm^3
# Si number density = 20.025041 Si / 1000 Ang^3
#
#
#
# Elastic Constant Matrix: (Units=GPa)
#
#
# Indices 1 2 3 4 5 6 
#
# 1 41.4068 18.7751 -14.4404 -3.3637 0.0000 0.0000
# 2 18.7751 41.4068 -14.4404 3.3637 0.0000 0.0000
# 3 -14.4404 -14.4404 39.6548 0.0000 0.0000 0.0000
# 4 -3.3637 3.3637 0.0000 6.2328 0.0000 0.0000
# 5 0.0000 0.0000 0.0000 0.0000 6.2328 -3.3637
# 6 0.0000 0.0000 0.0000 0.0000 -3.3637 11.3158
#
#
#
# Elastic Compliance Matrix: (Units=1/GPa)
#
#
# Indices 1 2 3 4 5 6 
#
# 1 0.036382 -0.016247 0.007332 0.028402 0.000000 0.000000
# 2 -0.016247 0.036382 0.007332 -0.028402 0.000000 0.000000
# 3 0.007332 0.007332 0.030558 0.000000 0.000000 0.000000
# 4 0.028402 -0.028402 0.000000 0.191097 0.000000 0.000000
# 5 0.000000 0.000000 0.000000 0.000000 0.191097 0.056805
# 6 0.000000 0.000000 0.000000 0.000000 0.056805 0.105258
#
#
# Mechanical properties :
#
#
# Convention : Reuss Voigt Hill
#
# Bulk Modulus (GPa) = 9.98437 11.36187 10.67312
# Shear Modulus (GPa) = 7.97038 13.59457 10.78247
#
# Velocity S-wave (km/s) = 1.99721 2.60836 2.32297
# Velocity P-wave (km/s) = 3.21173 3.84155 3.54067
#
# Compressibility (1/GPa) = 0.10015659
#
# Stress axis : x y z
#
# Youngs Moduli (GPa) = 27.48622 27.48622 32.72494
#
# Poissons Ratio (x) = 0.44657 -0.23995
# Poissons Ratio (y) = 0.44657 -0.23995
# Poissons Ratio (z) = -0.20154 -0.20154
#
# Static dielectric constant tensor:
#      x y z
#    x 1.721870 0.000000 0.000000 
#    y 0.000000 1.721870 0.000000 
#    z 0.000000 0.000000 1.761030 
# 
# From -- ./inp_files/4804.got.cif
#   From: 2010.05.17/outbox.cif.g08.bks.cpg/sg164_3_cif.got.tgz:4804.got - 2010.05.20 10:58:56.
