data_PCOD9578988
_publ_section_title
;
Structure prediction by ZEFSAII (Michael W. Deem and Ramdas Pophale) SiO2 
 PCOD9578988
Probable space group: P -3 C 1
;
_chemical_formula_sum "Si O2"
_cell_formula_units_Z 36
_cell_length_a 14.652811
_cell_length_b 14.652811
_cell_length_c 9.533367
_cell_angle_alpha 90.000000
_cell_angle_beta 90.000000
_cell_angle_gamma 120.000000
_cell_volume 1772.633039
_symmetry_space_group_name_H-M "P -3 C 1"
_symmetry_group_IT_number 165
_symmetry_cell_setting 'hexagonal'
loop_
_space_group_symop_operation_xyz
x,y,z
-y,x-y,z
-x+y,-x,z
x-y,-y,1/2-z
-x,-x+y,1/2-z
y,x,1/2-z
-x,-y,-z
y,-x+y,-z
x-y,x,-z
-x+y,y,1/2+z
x,x-y,1/2+z
-y,-x,1/2+z
loop_
_atom_site_type_symbol
_atom_site_label
_atom_site_fract_x
_atom_site_fract_y
_atom_site_fract_z
Si Si1 0.354824 0.168256 0.451309
Si Si2 0.887191 0.110460 0.701187
Si Si3 0.004304 0.597057 0.081700
O O1 0.247622 0.132791 0.538979
O O2 0.324393 0.129203 0.291848
O O3 0.409642 0.294834 0.452478
O O4 0.397153 0.098603 0.527921
O O5 0.000000 0.201877 0.750000
O O6 0.870733 0.000000 0.750000
O O7 0.000000 0.583173 0.250000
O O8 0.000000 0.500000 0.000000
#
# Coordination Sequence:
#
# PCOD9578988 Si02
#       3
#    12  12  12
#     4  12  22  44  67  98 140 175 228 280 346 404
#     4  12  21  36  64 102 144 184 216 267 320 404
#     4  12  28  46  74 103 135 184 234 291 353 413
#
# _framework density 20.308771
#
# number of rings (size 3 to 8) (size 9 to 14) (size 15 to 20)
#    0.000    0.000   10.000    0.333    4.667    0.000 
#    2.000    3.333    0.000    0.000    0.000    0.000 
#    0.000    0.000    0.000    0.000    0.000    0.000 
#
# Total GULP energy -200854.039573 kJ/mol
# GULP energy per Si atom -5579.278877 kJ/mol
# Density = 2.026255 g / cm^3
# Si number density = 20.308771 Si / 1000 Ang^3
#
#
#
# Elastic Constant Matrix: (Units=GPa)
#
#
# Indices 1 2 3 4 5 6 
#
# 1 119.6941 51.3311 46.2967 -0.4829 0.0000 0.0000
# 2 51.3311 119.6941 46.2967 0.4829 0.0000 0.0000
# 3 46.2967 46.2967 112.4800 0.0000 0.0000 0.0000
# 4 -0.4829 0.4829 0.0000 33.1667 0.0000 0.0000
# 5 0.0000 0.0000 0.0000 0.0000 33.1667 -0.4829
# 6 0.0000 0.0000 0.0000 0.0000 -0.4829 34.1815
#
#
#
# Elastic Compliance Matrix: (Units=1/GPa)
#
#
# Indices 1 2 3 4 5 6 
#
# 1 0.011077 -0.003554 -0.003097 0.000213 0.000000 0.000000
# 2 -0.003554 0.011077 -0.003097 -0.000213 0.000000 0.000000
# 3 -0.003097 -0.003097 0.011440 0.000000 0.000000 0.000000
# 4 0.000213 -0.000213 0.000000 0.030157 0.000000 0.000000
# 5 0.000000 0.000000 0.000000 0.000000 0.030157 0.000426
# 6 0.000000 0.000000 0.000000 0.000000 0.000426 0.029262
#
#
# Mechanical properties :
#
#
# Convention : Reuss Voigt Hill
#
# Bulk Modulus (GPa) = 70.92152 71.07967 71.00059
# Shear Modulus (GPa) = 33.92964 33.96589 33.94777
#
# Velocity S-wave (km/s) = 4.09184 4.09403 4.09293
# Velocity P-wave (km/s) = 7.57111 7.57783 7.57447
#
# Compressibility (1/GPa) = 0.01410009
#
# Stress axis : x y z
#
# Youngs Moduli (GPa) = 90.27520 90.27520 87.41487
#
# Poissons Ratio (x) = 0.32080 0.27070
# Poissons Ratio (y) = 0.32080 0.27070
# Poissons Ratio (z) = 0.27956 0.27956
#
# Static dielectric constant tensor:
#      x y z
#    x 1.751420 0.000000 0.000000 
#    y 0.000000 1.751420 0.000000 
#    z 0.000000 0.000000 1.707330 
# 
# From -- ./inp_files/380.got.cif
#   From: 2010.05.17/outbox.cif.g08.bks.cpg/sg165_1_cif.got.tgz:380.got - 2010.05.20 11:02:39.
