data_PCOD9578541
_publ_section_title
;
Structure prediction by ZEFSAII (Michael W. Deem and Ramdas Pophale) SiO2 
 PCOD9578541
Probable space group: P -3 M 1
;
_chemical_formula_sum "Si O2"
_cell_formula_units_Z 72
_cell_length_a 12.806772
_cell_length_b 12.806772
_cell_length_c 31.305338
_cell_angle_alpha 90.000000
_cell_angle_beta 90.000000
_cell_angle_gamma 120.000000
_cell_volume 4446.603285
_symmetry_space_group_name_H-M "P -3 M 1"
_symmetry_group_IT_number 164
_symmetry_cell_setting 'hexagonal'
loop_
_space_group_symop_operation_xyz
x,y,z
-y,x-y,z
-x+y,-x,z
x-y,-y,-z
-x,-x+y,-z
y,x,-z
-x,-y,-z
y,-x+y,-z
x-y,x,-z
-x+y,y,z
x,x-y,z
-y,-x,z
loop_
_atom_site_type_symbol
_atom_site_label
_atom_site_fract_x
_atom_site_fract_y
_atom_site_fract_z
Si Si1 0.248022 0.248022 0.000000
Si Si2 0.580606 0.914371 0.078574
Si Si3 0.085347 0.666764 0.744877
Si Si4 0.665969 0.580698 0.664014
Si Si5 0.752205 0.000000 0.500000
Si Si6 0.913999 0.333034 0.823936
Si Si7 0.914565 0.581514 0.417845
O O1 0.313496 0.323680 0.042313
O O2 0.118302 0.236603 0.998097
O O3 0.458252 0.916504 0.071634
O O4 0.555489 0.777745 0.075594
O O5 0.622139 0.954499 0.127326
O O6 0.113165 0.556583 0.743575
O O7 0.206720 0.793281 0.741089
O O8 0.994397 0.643303 0.705895
O O9 0.015367 0.654088 0.788968
O O10 0.794723 0.589445 0.662725
O O11 0.558673 0.441328 0.665212
O O12 0.641682 0.639862 0.622590
O O13 0.764816 0.882408 0.492297
O O14 0.665659 0.971440 0.540787
O O15 0.885052 0.442526 0.821271
O O16 0.793118 0.206883 0.815566
O O17 0.784323 0.568645 0.409981
O O18 0.901720 0.450860 0.424569
#
# Coordination Sequence:
#
# PCOD9578541 Si02
#       7
#     6  12  12  12   6  12  12
#     4  10  20  32  46  64  90 126 164 198 230 272
#     4   9  17  30  49  72  95 119 150 192 241 288
#     4  10  20  33  50  71  97 129 162 196 233 277
#     4  10  20  34  53  76 100 126 158 199 246 292
#     4  10  20  34  52  74 102 136 172 208 246 290
#     4   9  17  30  50  74  97 121 151 191 239 287
#     4  10  20  34  53  76 102 132 166 204 245 290
#
# _framework density 16.192133999999999
#
# number of rings (size 3 to 8) (size 9 to 14) (size 15 to 20)
#    0.000    2.333    0.000    3.000    0.000    2.000 
#    0.000    3.333    0.000   12.667    0.000    0.000 
#    0.000    0.000    0.000    0.000    0.000    0.000 
#
# Total GULP energy -401660.096303 kJ/mol
# GULP energy per Si atom -5578.612449 kJ/mol
# Density = 1.615528 g / cm^3
# Si number density = 16.192134 Si / 1000 Ang^3
#
#
#
# Elastic Constant Matrix: (Units=GPa)
#
#
# Indices 1 2 3 4 5 6 
#
# 1 117.9296 80.2119 82.6573 2.3791 0.0000 0.0000
# 2 80.2119 117.9296 82.6573 -2.3791 0.0000 0.0000
# 3 82.6573 82.6573 130.7623 0.0000 0.0000 0.0000
# 4 2.3791 -2.3791 0.0000 21.2671 0.0000 0.0000
# 5 0.0000 0.0000 0.0000 0.0000 21.2671 2.3791
# 6 0.0000 0.0000 0.0000 0.0000 2.3791 18.8589
#
#
#
# Elastic Compliance Matrix: (Units=1/GPa)
#
#
# Indices 1 2 3 4 5 6 
#
# 1 0.018786 -0.008107 -0.006750 -0.003008 0.000000 0.000000
# 2 -0.008107 0.018786 -0.006750 0.003008 0.000000 0.000000
# 3 -0.006750 -0.006750 0.016181 0.000000 0.000000 0.000000
# 4 -0.003008 0.003008 0.000000 0.047694 0.000000 0.000000
# 5 0.000000 0.000000 0.000000 0.000000 0.047694 -0.006017
# 6 0.000000 0.000000 0.000000 0.000000 -0.006017 0.053785
#
#
# Mechanical properties :
#
#
# Convention : Reuss Voigt Hill
#
# Bulk Modulus (GPa) = 94.89520 95.29719 95.09620
# Shear Modulus (GPa) = 20.02783 20.35160 20.18972
#
# Velocity S-wave (km/s) = 3.52075 3.54910 3.53496
# Velocity P-wave (km/s) = 8.67529 8.70497 8.69014
#
# Compressibility (1/GPa) = 0.01053794
#
# Stress axis : x y z
#
# Youngs Moduli (GPa) = 53.23239 53.23239 61.79923
#
# Poissons Ratio (x) = 0.43154 0.41716
# Poissons Ratio (y) = 0.43154 0.41716
# Poissons Ratio (z) = 0.35933 0.35933
#
# Static dielectric constant tensor:
#      x y z
#    x 1.510410 0.000000 0.000000 
#    y 0.000000 1.510410 0.000000 
#    z 0.000000 0.000000 1.542730 
# 
# From -- ./inp_files/5595.got.cif
#   From: 2010.05.17/outbox.cif.g08.bks.cpg/sg164_3_cif.got.tgz:5595.got - 2010.05.20 10:58:56.
