data_PCOD9578576
_publ_section_title
;
Structure prediction by ZEFSAII (Michael W. Deem and Ramdas Pophale) SiO2 
 PCOD9578576
Probable space group: P -3 M 1
;
_chemical_formula_sum "Si O2"
_cell_formula_units_Z 66
_cell_length_a 12.693964
_cell_length_b 12.693964
_cell_length_c 29.167715
_cell_angle_alpha 90.000000
_cell_angle_beta 90.000000
_cell_angle_gamma 120.000000
_cell_volume 4070.310724
_symmetry_space_group_name_H-M "P -3 M 1"
_symmetry_group_IT_number 164
_symmetry_cell_setting 'hexagonal'
loop_
_space_group_symop_operation_xyz
x,y,z
-y,x-y,z
-x+y,-x,z
x-y,-y,-z
-x,-x+y,-z
y,x,-z
-x,-y,-z
y,-x+y,-z
x-y,x,-z
-x+y,y,z
x,x-y,z
-y,-x,z
loop_
_atom_site_type_symbol
_atom_site_label
_atom_site_fract_x
_atom_site_fract_y
_atom_site_fract_z
Si Si1 0.082574 0.666396 0.044792
Si Si2 0.333938 0.416371 0.688216
Si Si3 0.249857 0.999525 0.133827
Si Si4 0.748934 0.748934 0.500000
Si Si5 0.415807 0.082415 0.777308
Si Si6 0.252268 0.252226 0.399682
O O1 0.096006 0.548003 0.051667
O O2 0.213943 0.786058 0.038804
O O3 0.020681 0.688702 0.088980
O O4 0.000000 0.642893 0.000000
O O5 0.209770 0.419540 0.693978
O O6 0.448569 0.551432 0.685187
O O7 0.356212 0.352043 0.731644
O O8 0.321558 0.342334 0.641853
O O9 0.109883 0.890118 0.134036
O O10 0.311714 0.981473 0.178996
O O11 0.257431 0.128716 0.133331
O O12 0.881316 0.762632 0.501607
O O13 0.692670 0.695315 0.549696
O O14 0.546047 0.092094 0.783846
O O15 0.430742 0.215371 0.772933
O O16 0.126249 0.252497 0.394503
O O17 0.227375 0.113688 0.398539
#
# Coordination Sequence:
#
# PCOD9578576 Si02
#       6
#    12  12  12   6  12  12
#     4  10  20  34  53  76 103 135 170 209 251 295
#     4  10  20  33  48  66  91 125 162 197 232 274
#     4  10  20  34  52  74 100 129 161 197 238 284
#     4   8  13  22  39  64  92 118 144 180 230 286
#     4  10  20  34  53  75  98 124 155 194 239 286
#     4   9  16  27  45  69  94 118 147 187 237 288
#
# _framework density 16.214977000000001
#
# number of rings (size 3 to 8) (size 9 to 14) (size 15 to 20)
#    0.000    2.364    0.000    3.182    0.000    1.455 
#    0.000    2.273    0.000   14.182    0.000    0.000 
#    0.000    0.000    0.000    0.000    0.000    0.000 
#
# Total GULP energy -367958.263069 kJ/mol
# GULP energy per Si atom -5575.125198 kJ/mol
# Density = 1.617807 g / cm^3
# Si number density = 16.214977 Si / 1000 Ang^3
#
#
#
# Elastic Constant Matrix: (Units=GPa)
#
#
# Indices 1 2 3 4 5 6 
#
# 1 106.4981 69.6895 89.8729 0.4792 0.0000 0.0000
# 2 69.6895 106.4981 89.8729 -0.4792 0.0000 0.0000
# 3 89.8729 89.8729 175.3941 0.0000 0.0000 0.0000
# 4 0.4792 -0.4792 0.0000 24.8167 0.0000 0.0000
# 5 0.0000 0.0000 0.0000 0.0000 24.8167 0.4792
# 6 0.0000 0.0000 0.0000 0.0000 0.4792 18.4043
#
#
#
# Elastic Compliance Matrix: (Units=1/GPa)
#
#
# Indices 1 2 3 4 5 6 
#
# 1 0.019537 -0.007644 -0.006094 -0.000525 0.000000 0.000000
# 2 -0.007644 0.019537 -0.006094 0.000525 0.000000 0.000000
# 3 -0.006094 -0.006094 0.011947 0.000000 0.000000 0.000000
# 4 -0.000525 0.000525 0.000000 0.040316 0.000000 0.000000
# 5 0.000000 0.000000 0.000000 0.000000 0.040316 -0.001050
# 6 0.000000 0.000000 0.000000 0.000000 -0.001050 0.054362
#
#
# Mechanical properties :
#
#
# Convention : Reuss Voigt Hill
#
# Bulk Modulus (GPa) = 88.05603 98.58457 93.32030
# Shear Modulus (GPa) = 21.78992 22.87122 22.33057
#
# Velocity S-wave (km/s) = 3.66978 3.75974 3.71503
# Velocity P-wave (km/s) = 8.50762 8.93185 8.72232
#
# Compressibility (1/GPa) = 0.01135641
#
# Stress axis : x y z
#
# Youngs Moduli (GPa) = 51.18499 51.18499 83.70616
#
# Poissons Ratio (x) = 0.39127 0.51010
# Poissons Ratio (y) = 0.39127 0.51010
# Poissons Ratio (z) = 0.31192 0.31192
#
# Static dielectric constant tensor:
#      x y z
#    x 1.509900 0.000000 0.000000 
#    y 0.000000 1.509900 0.000000 
#    z 0.000000 0.000000 1.553830 
# 
# From -- ./inp_files/5498.got.cif
#   From: 2010.05.17/outbox.cif.g08.bks.cpg/sg164_3_cif.got.tgz:5498.got - 2010.05.20 10:58:56.
