data_PCOD9578871
_publ_section_title
;
Structure prediction by ZEFSAII (Michael W. Deem and Ramdas Pophale) SiO2 
 PCOD9578871
Probable space group: P -3 C 1
;
_chemical_formula_sum "Si O2"
_cell_formula_units_Z 36
_cell_length_a 15.087077
_cell_length_b 15.087077
_cell_length_c 9.308522
_cell_angle_alpha 90.000000
_cell_angle_beta 90.000000
_cell_angle_gamma 120.000000
_cell_volume 1834.938762
_symmetry_space_group_name_H-M "P -3 C 1"
_symmetry_group_IT_number 165
_symmetry_cell_setting 'hexagonal'
loop_
_space_group_symop_operation_xyz
x,y,z
-y,x-y,z
-x+y,-x,z
x-y,-y,1/2-z
-x,-x+y,1/2-z
y,x,1/2-z
-x,-y,-z
y,-x+y,-z
x-y,x,-z
-x+y,y,1/2+z
x,x-y,1/2+z
-y,-x,1/2+z
loop_
_atom_site_type_symbol
_atom_site_label
_atom_site_fract_x
_atom_site_fract_y
_atom_site_fract_z
Si Si1 0.575965 0.424035 0.750000
Si Si2 0.458318 0.282936 0.500000
Si Si3 0.651383 0.586380 0.500000
O O1 0.533814 0.329600 0.637298
O O2 0.670400 0.466186 0.862702
O O3 0.604218 0.516782 0.640621
O O4 0.483218 0.395782 0.859379
O O5 0.393862 0.160445 0.500000
O O6 0.381435 0.328187 0.500000
#
# Coordination Sequence:
#
# PCOD9578871 Si02
#       3
#    12  12  12
#     4  10  21  38  54  74 108 144 176 224 268 316
#     4  11  21  37  57  78 110 144 181 221 271 323
#     4  11  21  37  57  78 110 144 181 221 271 323
#
# _framework density 19.619185000000002
#
# number of rings (size 3 to 8) (size 9 to 14) (size 15 to 20)
#    0.000    1.333    0.000   10.000    0.000    0.000 
#   40.000    0.000    0.000    0.667    0.000    0.000 
#    0.000   10.667    0.000    0.000    0.000   17.333 
#
# Total GULP energy -200911.834198 kJ/mol
# GULP energy per Si atom -5580.884283 kJ/mol
# Density = 1.957453 g / cm^3
# Si number density = 19.619185 Si / 1000 Ang^3
#
#
#
# Elastic Constant Matrix: (Units=GPa)
#
#
# Indices 1 2 3 4 5 6 
#
# 1 111.3595 61.4536 37.3994 0.0000 0.0000 0.0000
# 2 61.4536 111.3595 37.3994 0.0000 0.0000 0.0000
# 3 37.3994 37.3994 181.3214 0.0000 0.0000 0.0000
# 4 0.0000 0.0000 0.0000 27.8482 0.0000 0.0000
# 5 0.0000 0.0000 0.0000 0.0000 27.8482 0.0000
# 6 0.0000 0.0000 0.0000 0.0000 0.0000 24.9529
#
#
#
# Elastic Compliance Matrix: (Units=1/GPa)
#
#
# Indices 1 2 3 4 5 6 
#
# 1 0.013196 -0.006842 -0.001311 0.000000 0.000000 0.000000
# 2 -0.006842 0.013196 -0.001311 0.000000 0.000000 0.000000
# 3 -0.001311 -0.001311 0.006056 0.000000 0.000000 0.000000
# 4 0.000000 0.000000 0.000000 0.035909 0.000000 0.000000
# 5 0.000000 0.000000 0.000000 0.000000 0.035909 0.000000
# 6 0.000000 0.000000 0.000000 0.000000 0.000000 0.040075
#
#
# Mechanical properties :
#
#
# Convention : Reuss Voigt Hill
#
# Bulk Modulus (GPa) = 73.95794 75.17170 74.56482
# Shear Modulus (GPa) = 29.80203 33.98239 31.89221
#
# Velocity S-wave (km/s) = 3.90170 4.16637 4.03620
# Velocity P-wave (km/s) = 7.62078 7.84496 7.73368
#
# Compressibility (1/GPa) = 0.01352120
#
# Stress axis : x y z
#
# Youngs Moduli (GPa) = 75.78180 75.78180 165.13371
#
# Poissons Ratio (x) = 0.51849 0.21642
# Poissons Ratio (y) = 0.51849 0.21642
# Poissons Ratio (z) = 0.09932 0.09932
#
# Static dielectric constant tensor:
#      x y z
#    x 1.756810 0.000000 0.000000 
#    y 0.000000 1.756810 0.000000 
#    z 0.000000 0.000000 1.736580 
# 
# From -- ./inp_files/377.got.cif
#   From: 2010.05.17/outbox.cif.g08.bks.cpg/sg165_1_cif.got.tgz:377.got - 2010.05.20 11:02:39.
