data_PCOD9578372
_publ_section_title
;
Structure prediction by ZEFSAII (Michael W. Deem and Ramdas Pophale) SiO2 
 PCOD9578372
Probable space group: P -3 M 1
;
_chemical_formula_sum "Si O2"
_cell_formula_units_Z 78
_cell_length_a 17.599051
_cell_length_b 17.599051
_cell_length_c 18.103658
_cell_angle_alpha 90.000000
_cell_angle_beta 90.000000
_cell_angle_gamma 120.000000
_cell_volume 4855.964108
_symmetry_space_group_name_H-M "P -3 M 1"
_symmetry_group_IT_number 164
_symmetry_cell_setting 'hexagonal'
loop_
_space_group_symop_operation_xyz
x,y,z
-y,x-y,z
-x+y,-x,z
x-y,-y,-z
-x,-x+y,-z
y,x,-z
-x,-y,-z
y,-x+y,-z
x-y,x,-z
-x+y,y,z
x,x-y,z
-y,-x,z
loop_
_atom_site_type_symbol
_atom_site_label
_atom_site_fract_x
_atom_site_fract_y
_atom_site_fract_z
Si Si1 0.296850 0.058428 0.646686
Si Si2 0.240105 0.305820 0.785956
Si Si3 0.485442 0.151555 0.706593
Si Si4 0.331838 0.495381 0.835660
Si Si5 0.376597 0.273421 0.852072
Si Si6 0.183089 0.000000 0.500000
Si Si7 0.637896 0.532583 0.998490
O O1 0.287808 0.143904 0.662247
O O2 0.401943 0.095151 0.652370
O O3 0.246707 0.018968 0.570216
O O4 0.251058 0.986812 0.710966
O O5 0.140680 0.281360 0.801165
O O6 0.296583 0.411502 0.783530
O O7 0.290458 0.281992 0.847769
O O8 0.573548 0.147095 0.693089
O O9 0.504577 0.252289 0.704856
O O10 0.445013 0.112618 0.787980
O O11 0.266862 0.533723 0.827230
O O12 0.431613 0.568388 0.823204
O O13 0.323664 0.462876 0.920524
O O14 0.350430 0.175215 0.832423
O O15 0.423248 0.297854 0.930678
O O16 0.174055 0.087027 0.489242
O O17 0.569676 0.430325 0.983459
O O18 0.581759 0.581759 0.000000
#
# Coordination Sequence:
#
# PCOD9578372 Si02
#       7
#    12  12  12  12  12   6  12
#     4   9  19  34  52  76 103 128 153 192 238 282
#     4  10  19  31  47  67  92 123 157 189 230 285
#     4   9  17  29  47  71  99 132 165 197 235 280
#     4  10  20  32  47  67  93 125 162 203 245 286
#     4  10  19  31  47  67  92 121 159 208 253 291
#     4  10  19  34  57  82 106 128 154 192 243 296
#     4  10  18  29  45  67  92 119 156 201 248 295
#
# _framework density 16.062721
#
# number of rings (size 3 to 8) (size 9 to 14) (size 15 to 20)
#    0.000    2.308    1.538    3.154    0.000    2.462 
#    0.000    0.385    0.000    8.308    0.000    0.000 
#    0.000    3.077    0.000    0.000    0.000    0.000 
#
# Total GULP energy -434317.897178 kJ/mol
# GULP energy per Si atom -5568.178169 kJ/mol
# Density = 1.602616 g / cm^3
# Si number density = 16.062721 Si / 1000 Ang^3
#
#
#
# Elastic Constant Matrix: (Units=GPa)
#
#
# Indices 1 2 3 4 5 6 
#
# 1 89.8799 46.0408 33.2956 1.5605 0.0000 0.0000
# 2 46.0408 89.8799 33.2956 -1.5605 0.0000 0.0000
# 3 33.2956 33.2956 67.7577 0.0000 0.0000 0.0000
# 4 1.5605 -1.5605 0.0000 18.1565 0.0000 0.0000
# 5 0.0000 0.0000 0.0000 0.0000 18.1565 1.5605
# 6 0.0000 0.0000 0.0000 0.0000 1.5605 21.9196
#
#
#
# Elastic Compliance Matrix: (Units=1/GPa)
#
#
# Indices 1 2 3 4 5 6 
#
# 1 0.016321 -0.006631 -0.004762 -0.001973 0.000000 0.000000
# 2 -0.006631 0.016321 -0.004762 0.001973 0.000000 0.000000
# 3 -0.004762 -0.004762 0.019438 0.000000 0.000000 0.000000
# 4 -0.001973 0.001973 0.000000 0.055416 0.000000 0.000000
# 5 0.000000 0.000000 0.000000 0.000000 0.055416 -0.003945
# 6 0.000000 0.000000 0.000000 0.000000 -0.003945 0.045902
#
#
# Mechanical properties :
#
#
# Convention : Reuss Voigt Hill
#
# Bulk Modulus (GPa) = 50.57714 52.53125 51.55420
# Shear Modulus (GPa) = 20.18480 20.63889 20.41185
#
# Velocity S-wave (km/s) = 3.54874 3.58843 3.56864
# Velocity P-wave (km/s) = 6.95320 7.06710 7.01038
#
# Compressibility (1/GPa) = 0.01977178
#
# Stress axis : x y z
#
# Youngs Moduli (GPa) = 61.27229 61.27229 51.44532
#
# Poissons Ratio (x) = 0.40627 0.24496
# Poissons Ratio (y) = 0.40627 0.24496
# Poissons Ratio (z) = 0.29176 0.29176
#
# Static dielectric constant tensor:
#      x y z
#    x 1.551090 0.000000 0.000000 
#    y 0.000000 1.551090 0.000000 
#    z 0.000000 0.000000 1.532250 
# 
# From -- ./inp_files/4199.got.cif
#   From: 2010.05.17/outbox.cif.g08.bks.cpg/sg164_3_cif.got.tgz:4199.got - 2010.05.20 10:58:56.
