data_PCOD9578769
_publ_section_title
;
Structure prediction by ZEFSAII (Michael W. Deem and Ramdas Pophale) SiO2 
 PCOD9578769
Probable space group: P -3 C 1
;
_chemical_formula_sum "Si O2"
_cell_formula_units_Z 78
_cell_length_a 15.403799
_cell_length_b 15.403799
_cell_length_c 16.293996
_cell_angle_alpha 90.000000
_cell_angle_beta 90.000000
_cell_angle_gamma 120.000000
_cell_volume 3348.219513
_symmetry_space_group_name_H-M "P -3 C 1"
_symmetry_group_IT_number 165
_symmetry_cell_setting 'hexagonal'
loop_
_space_group_symop_operation_xyz
x,y,z
-y,x-y,z
-x+y,-x,z
x-y,-y,1/2-z
-x,-x+y,1/2-z
y,x,1/2-z
-x,-y,-z
y,-x+y,-z
x-y,x,-z
-x+y,y,1/2+z
x,x-y,1/2+z
-y,-x,1/2+z
loop_
_atom_site_type_symbol
_atom_site_label
_atom_site_fract_x
_atom_site_fract_y
_atom_site_fract_z
Si Si1 0.796723 0.000000 0.250000
Si Si2 0.466856 0.239502 0.316332
Si Si3 0.085525 0.247117 0.127454
Si Si4 0.556381 0.958472 0.071891
Si Si5 0.310730 0.097409 0.034199
Si Si6 0.630390 0.211921 0.952039
Si Si7 0.409477 0.133917 0.650988
O O1 0.887845 0.074972 0.306940
O O2 0.761842 0.062690 0.192600
O O3 0.361027 0.140488 0.338172
O O4 0.456464 0.328491 0.361223
O O5 0.551812 0.222709 0.357821
O O6 0.474290 0.260618 0.220136
O O7 0.971617 0.208599 0.105512
O O8 0.139393 0.252989 0.040973
O O9 0.442753 0.905762 0.036734
O O10 0.611210 0.061848 0.121331
O O11 0.632135 0.955735 0.005336
O O12 0.385532 0.204176 0.073413
O O13 0.738064 0.302334 0.982473
#
# Coordination Sequence:
#
# PCOD9578769 Si02
#       7
#     6  12  12  12  12  12  12
#     4  10  18  32  54  84 112 162 218 258 306 356
#     4   9  18  33  58  86 114 161 210 253 311 367
#     4  10  19  34  56  83 117 165 215 257 309 377
#     4  10  17  34  59  90 112 167 209 246 318 387
#     4  11  20  33  58  86 123 162 210 255 319 371
#     4   8  17  33  61  85 118 162 197 251 316 378
#     4  11  18  33  60  86 115 161 211 265 303 380
#
# _framework density 23.295964000000001
#
# number of rings (size 3 to 8) (size 9 to 14) (size 15 to 20)
#    0.308    1.846    6.154    0.000    0.000    2.462 
#    0.000    0.769   13.538    9.231    0.000    0.000 
#    0.000    0.000    0.000    0.000    0.000    0.000 
#
# Total GULP energy -434515.922375 kJ/mol
# GULP energy per Si atom -5570.716954 kJ/mol
# Density = 2.324294 g / cm^3
# Si number density = 23.295964 Si / 1000 Ang^3
#
#
#
# Elastic Constant Matrix: (Units=GPa)
#
#
# Indices 1 2 3 4 5 6 
#
# 1 74.6941 40.7238 32.7253 -5.7815 0.0000 0.0000
# 2 40.7238 74.6941 32.7253 5.7815 0.0000 0.0000
# 3 32.7253 32.7253 102.1726 0.0000 0.0000 0.0000
# 4 -5.7815 5.7815 0.0000 40.0549 0.0000 0.0000
# 5 0.0000 0.0000 0.0000 0.0000 40.0549 -5.7815
# 6 0.0000 0.0000 0.0000 0.0000 -5.7815 16.9851
#
#
#
# Elastic Compliance Matrix: (Units=1/GPa)
#
#
# Indices 1 2 3 4 5 6 
#
# 1 0.020773 -0.010186 -0.003391 0.004468 0.000000 0.000000
# 2 -0.010186 0.020773 -0.003391 -0.004468 0.000000 0.000000
# 3 -0.003391 -0.003391 0.011960 0.000000 0.000000 0.000000
# 4 0.004468 -0.004468 0.000000 0.026256 0.000000 0.000000
# 5 0.000000 0.000000 0.000000 0.000000 0.026256 0.008937
# 6 0.000000 0.000000 0.000000 0.000000 0.008937 0.061917
#
#
# Mechanical properties :
#
#
# Convention : Reuss Voigt Hill
#
# Bulk Modulus (GPa) = 51.09900 51.54550 51.32225
# Shear Modulus (GPa) = 23.99323 29.11143 26.55233
#
# Velocity S-wave (km/s) = 3.21274 3.53885 3.37973
# Velocity P-wave (km/s) = 5.97867 6.23477 6.10806
#
# Compressibility (1/GPa) = 0.01956986
#
# Stress axis : x y z
#
# Youngs Moduli (GPa) = 48.13987 48.13987 83.61493
#
# Poissons Ratio (x) = 0.49034 0.28354
# Poissons Ratio (y) = 0.49034 0.28354
# Poissons Ratio (z) = 0.16324 0.16324
#
# Static dielectric constant tensor:
#      x y z
#    x 1.922670 0.000000 0.000000 
#    y 0.000000 1.922670 0.000000 
#    z 0.000000 0.000000 1.927340 
# 
# From -- ./inp_files/2361.got.cif
#   From: 2010.05.17/outbox.cif.g08.bks.cpg/sg165_2_cif.got.tgz:2361.got - 2010.05.20 11:02:39.
