data_PCOD9578672
_publ_section_title
;
Structure prediction by ZEFSAII (Michael W. Deem and Ramdas Pophale) SiO2 
 PCOD9578672
Probable space group: P -3 M 1
;
_chemical_formula_sum "Si O2"
_cell_formula_units_Z 66
_cell_length_a 12.621050
_cell_length_b 12.621050
_cell_length_c 28.846327
_cell_angle_alpha 90.000000
_cell_angle_beta 90.000000
_cell_angle_gamma 120.000000
_cell_volume 3979.349906
_symmetry_space_group_name_H-M "P -3 M 1"
_symmetry_group_IT_number 164
_symmetry_cell_setting 'hexagonal'
loop_
_space_group_symop_operation_xyz
x,y,z
-y,x-y,z
-x+y,-x,z
x-y,-y,-z
-x,-x+y,-z
y,x,-z
-x,-y,-z
y,-x+y,-z
x-y,x,-z
-x+y,y,z
x,x-y,z
-y,-x,z
loop_
_atom_site_type_symbol
_atom_site_label
_atom_site_fract_x
_atom_site_fract_y
_atom_site_fract_z
Si Si1 0.918764 0.585092 0.954493
Si Si2 0.918697 0.585391 0.772752
Si Si3 0.748005 0.000000 0.500000
Si Si4 0.251523 0.251921 0.318503
Si Si5 0.081439 0.415245 0.863922
Si Si6 0.081786 0.414735 0.408791
O O1 0.795288 0.590576 0.955038
O O2 0.889018 0.444509 0.954053
O O3 0.998650 0.647971 0.908835
O O4 0.000000 0.646594 0.000000
O O5 0.786357 0.572714 0.779341
O O6 0.905419 0.452710 0.766500
O O7 0.978800 0.668011 0.727468
O O8 0.002499 0.646376 0.817705
O O9 0.687487 0.022633 0.545131
O O10 0.880488 0.119513 0.493571
O O11 0.111011 0.222021 0.320096
O O12 0.316517 0.333129 0.363697
O O13 0.257803 0.128902 0.318038
O O14 0.204169 0.408338 0.864178
O O15 0.111955 0.555978 0.865283
O O16 0.222259 0.444517 0.407181
O O17 0.075612 0.537806 0.409075
#
# Coordination Sequence:
#
# PCOD9578672 Si02
#       6
#    12  12   6  12  12  12
#     4  10  20  34  54  78 104 134 168 209 254 301
#     4  10  20  34  54  78 104 134 168 209 254 301
#     4  10  20  34  54  78 104 134 168 208 252 300
#     4  10  20  34  53  76 103 135 170 209 252 300
#     4  10  20  34  53  76 103 135 170 209 252 299
#     4  10  20  34  53  76 103 135 170 209 252 299
#
# _framework density 16.585622999999998
#
# number of rings (size 3 to 8) (size 9 to 14) (size 15 to 20)
#    0.000    2.000    0.000    4.000    0.000    0.000 
#    0.000    7.273    0.000   16.727    0.000    0.000 
#    0.000    0.000    0.000    0.000    0.000    0.000 
#
# Total GULP energy -368549.967532 kJ/mol
# GULP energy per Si atom -5584.090417 kJ/mol
# Density = 1.654787 g / cm^3
# Si number density = 16.585623 Si / 1000 Ang^3
#
#
#
# Elastic Constant Matrix: (Units=GPa)
#
#
# Indices 1 2 3 4 5 6 
#
# 1 151.2753 112.9599 99.8594 -1.9031 0.0000 0.0000
# 2 112.9599 151.2753 99.8594 1.9031 0.0000 0.0000
# 3 99.8594 99.8594 171.3633 0.0000 0.0000 0.0000
# 4 -1.9031 1.9031 0.0000 19.6895 0.0000 0.0000
# 5 0.0000 0.0000 0.0000 0.0000 19.6895 -1.9031
# 6 0.0000 0.0000 0.0000 0.0000 -1.9031 19.1577
#
#
#
# Elastic Compliance Matrix: (Units=1/GPa)
#
#
# Indices 1 2 3 4 5 6 
#
# 1 0.016558 -0.009794 -0.003941 0.002547 0.000000 0.000000
# 2 -0.009794 0.016558 -0.003941 -0.002547 0.000000 0.000000
# 3 -0.003941 -0.003941 0.010429 0.000000 0.000000 0.000000
# 4 0.002547 -0.002547 0.000000 0.051281 0.000000 0.000000
# 5 0.000000 0.000000 0.000000 0.000000 0.051281 0.005094
# 6 0.000000 0.000000 0.000000 0.000000 0.005094 0.052704
#
#
# Mechanical properties :
#
#
# Convention : Reuss Voigt Hill
#
# Bulk Modulus (GPa) = 122.08897 122.14126 122.11512
# Shear Modulus (GPa) = 21.10639 22.45635 21.78137
#
# Velocity S-wave (km/s) = 3.57118 3.68362 3.62784
# Velocity P-wave (km/s) = 9.52762 9.58618 9.55694
#
# Compressibility (1/GPa) = 0.00819075
#
# Stress axis : x y z
#
# Youngs Moduli (GPa) = 60.39441 60.39441 95.88582
#
# Poissons Ratio (x) = 0.59152 0.37792
# Poissons Ratio (y) = 0.59152 0.37792
# Poissons Ratio (z) = 0.23803 0.23803
#
# Static dielectric constant tensor:
#      x y z
#    x 1.522940 0.000000 0.000000 
#    y 0.000000 1.522940 0.000000 
#    z 0.000000 0.000000 1.545750 
# 
# From -- ./inp_files/5483.got.cif
#   From: 2010.05.17/outbox.cif.g08.bks.cpg/sg164_3_cif.got.tgz:5483.got - 2010.05.20 10:58:56.
