data_PCOD9579830
_publ_section_title
;
Structure prediction by ZEFSAII (Michael W. Deem and Ramdas Pophale) SiO2 
 PCOD9579830
Probable space group: P 61
;
_chemical_formula_sum "Si O2"
_cell_formula_units_Z 48
_cell_length_a 14.629485
_cell_length_b 14.629485
_cell_length_c 12.467110
_cell_angle_alpha 90.000000
_cell_angle_beta 90.000000
_cell_angle_gamma 120.000000
_cell_volume 2310.758180
_symmetry_space_group_name_H-M "P 61"
_symmetry_group_IT_number 169
_symmetry_cell_setting 'hexagonal'
loop_
_space_group_symop_operation_xyz
x,y,z
x-y,x,1/6+z
-y,x-y,1/3+z
-x,-y,1/2+z
-x+y,-x,2/3+z
y,-x+y,5/6+z
loop_
_atom_site_type_symbol
_atom_site_label
_atom_site_fract_x
_atom_site_fract_y
_atom_site_fract_z
Si Si1 0.859079 0.609531 0.989500
Si Si2 0.367581 0.354245 0.715396
Si Si3 0.996329 0.843572 0.311072
Si Si4 0.622191 0.436689 0.260211
Si Si5 0.957161 0.827485 0.935209
Si Si6 0.316246 0.699340 0.890735
Si Si7 0.606057 0.974038 0.818994
Si Si8 0.548066 0.402388 0.864342
O O1 0.849314 0.501209 0.945690
O O2 0.939462 0.711267 0.919021
O O3 0.743600 0.603198 0.989874
O O4 0.926541 0.635645 0.100338
O O5 0.271739 0.243944 0.675872
O O6 0.343171 0.441145 0.767120
O O7 0.418178 0.409332 0.602584
O O8 0.444454 0.341415 0.794635
O O9 0.907188 0.860369 0.254270
O O10 0.073907 0.881638 0.206895
O O11 0.648118 0.410257 0.142126
O O12 0.679469 0.400862 0.345414
O O13 0.063160 0.917962 0.991944
O O14 0.333577 0.775234 0.791900
O O15 0.208772 0.651112 0.956224
O O16 0.505944 0.950221 0.748080
#
# Coordination Sequence:
#
# PCOD9579830 Si02
#       8
#     6   6   6   6   6   6   6   6
#     4  12  20  37  63  95 126 164 217 282 327 390
#     4  12  24  39  66 101 131 170 223 280 329 401
#     4  10  22  41  67  99 130 162 215 276 329 390
#     4  11  22  37  64  91 136 173 218 265 323 393
#     4  10  19  34  59  91 118 153 206 274 325 390
#     4  10  22  42  61  88 134 179 211 262 326 408
#     4  12  23  38  63  95 127 169 228 274 335 400
#     4  11  24  42  61  92 134 176 218 269 330 402
#
# _framework density 20.772403000000001
#
# number of rings (size 3 to 8) (size 9 to 14) (size 15 to 20)
#    0.000    1.000    7.500    0.750    1.750    2.000 
#    0.000    0.000    0.000   18.000    0.000    0.000 
#    0.000    0.000    0.000    0.000    0.000    0.000 
#
# Total GULP energy -267336.122269 kJ/mol
# GULP energy per Si atom -5569.502547 kJ/mol
# Density = 2.072512 g / cm^3
# Si number density = 20.772403 Si / 1000 Ang^3
#
#
#
# Elastic Constant Matrix: (Units=GPa)
#
#
# Indices 1 2 3 4 5 6 
#
# 1 39.7660 -6.8487 32.9530 0.0000 0.0000 0.0000
# 2 -6.8487 39.7660 32.9530 0.0000 0.0000 0.0000
# 3 32.9530 32.9530 84.2463 0.0000 0.0000 0.0000
# 4 0.0000 0.0000 0.0000 24.4442 0.0000 0.0000
# 5 0.0000 0.0000 0.0000 0.0000 24.4442 0.0000
# 6 0.0000 0.0000 0.0000 0.0000 0.0000 23.3074
#
#
#
# Elastic Compliance Matrix: (Units=1/GPa)
#
#
# Indices 1 2 3 4 5 6 
#
# 1 0.080773 0.059321 -0.054798 0.000000 0.000000 0.000000
# 2 0.059321 0.080773 -0.054798 0.000000 0.000000 0.000000
# 3 -0.054798 -0.054798 0.054739 0.000000 0.000000 0.000000
# 4 0.000000 0.000000 0.000000 0.040910 0.000000 0.000000
# 5 0.000000 0.000000 0.000000 0.000000 0.040910 0.000000
# 6 0.000000 0.000000 0.000000 0.000000 0.000000 0.042905
#
#
# Mechanical properties :
#
#
# Convention : Reuss Voigt Hill
#
# Bulk Modulus (GPa) = 8.64045 31.32145 19.98095
# Shear Modulus (GPa) = 10.41369 21.42055 15.91712
#
# Velocity S-wave (km/s) = 2.24145 3.21472 2.77115
# Velocity P-wave (km/s) = 3.29658 5.37497 4.45857
#
# Compressibility (1/GPa) = 0.11573470
#
# Stress axis : x y z
#
# Youngs Moduli (GPa) = 12.38035 12.38035 18.26868
#
# Poissons Ratio (x) = -0.73441 1.00109
# Poissons Ratio (y) = -0.73441 1.00109
# Poissons Ratio (z) = 0.67842 0.67842
#
# Static dielectric constant tensor:
#      x y z
#    x 1.822640 0.000000 0.000000 
#    y 0.000000 1.822640 0.000000 
#    z 0.000000 0.000000 1.745140 
# 
# From -- ./inp_files/1056.got.cif
#   From: 2010.05.17/outbox.cif.g08.bks.cpg/sg169_cif.got.tgz:1056.got - 2010.05.20 11:12:54.
