data_PCOD9579369
_publ_section_title
;
Structure prediction by ZEFSAII (Michael W. Deem and Ramdas Pophale) SiO2 
 PCOD9579369
Probable space group: R -3 M
;
_chemical_formula_sum "Si O2"
_cell_formula_units_Z 66
_cell_length_a 21.000000
_cell_length_b 21.000000
_cell_length_c 30.000000
_cell_angle_alpha 90.000000
_cell_angle_beta 90.000000
_cell_angle_gamma 120.000000
_cell_volume 11457.516092
_symmetry_space_group_name_H-M "R -3 M"
_symmetry_group_IT_number 166
_symmetry_cell_setting 'hexagonal'
loop_
_space_group_symop_operation_xyz
x,y,z
-y,x-y,z
-x+y,-x,z
x-y,-y,-z
-x,-x+y,-z
y,x,-z
-x,-y,-z
y,-x+y,-z
x-y,x,-z
-x+y,y,z
x,x-y,z
-y,-x,z
2/3+x,1/3+y,1/3+z
2/3-y,1/3+x-y,1/3+z
2/3-x+y,1/3-x,1/3+z
2/3+x-y,1/3-y,1/3-z
2/3-x,1/3-x+y,1/3-z
2/3+y,1/3+x,1/3-z
2/3-x,1/3-y,1/3-z
2/3+y,1/3-x+y,1/3-z
2/3+x-y,1/3+x,1/3-z
2/3-x+y,1/3+y,1/3+z
2/3+x,1/3+x-y,1/3+z
2/3-y,1/3-x,1/3+z
1/3+x,2/3+y,2/3+z
1/3-y,2/3+x-y,2/3+z
1/3-x+y,2/3-x,2/3+z
1/3+x-y,2/3-y,2/3-z
1/3-x,2/3-x+y,2/3-z
1/3+y,2/3+x,2/3-z
1/3-x,2/3-y,2/3-z
1/3+y,2/3-x+y,2/3-z
1/3+x-y,2/3+x,2/3-z
1/3-x+y,2/3+y,2/3+z
1/3+x,2/3+x-y,2/3+z
1/3-y,2/3-x,2/3+z
loop_
_atom_site_type_symbol
_atom_site_label
_atom_site_fract_x
_atom_site_fract_y
_atom_site_fract_z
Si Si1 0.367300 0.485241 0.418070
Si Si2 0.816887 0.333334 0.833334
Si Si3 0.608408 0.641757 0.549448
Si Si4 0.405374 0.276997 0.915817
Si Si5 0.717139 0.579622 0.670099
Si Si6 0.184321 0.666442 0.817562
O O1 0.435446 0.564555 0.407002
O O2 0.397565 0.428710 0.425744
O O3 0.309613 0.454694 0.378427
O O4 0.333362 0.493224 0.464476
O O5 0.809322 0.404661 0.841827
O O6 0.851991 0.315532 0.875776
O O7 0.636121 0.636121 0.500000
O O8 0.668922 0.716274 0.572241
O O9 0.534107 0.645132 0.543897
O O10 0.385468 0.192734 0.917134
O O11 0.441458 0.318007 0.961634
O O12 0.785119 0.570237 0.685366
O O13 0.747828 0.666667 0.666667
O O14 0.175187 0.587594 0.806475
O O15 0.268364 0.731637 0.813423
#
# Coordination Sequence:
#
# PCOD9579369 Si02
#       6
#    36  18  36  36  36  36
#     4  10  20  36  56  78 109 142 177 221 268 320
#     4  10  21  36  54  76 105 140 176 216 264 318
#     4  10  19  34  53  81 108 139 174 217 269 317
#     4  11  21  35  54  79 109 138 178 223 265 315
#     4  11  22  36  54  77 106 139 179 222 265 313
#     4  10  20  34  54  80 110 144 179 216 265 322
#
# _framework density 5.7604110000000004
#
# number of rings (size 3 to 8) (size 9 to 14) (size 15 to 20)
#    0.000    1.636    2.727    3.000    0.000    2.182 
#    0.000    0.000    0.000    5.091    0.000    0.000 
#    0.000    0.000    0.000    7.818    0.000    0.000 
#
# Total GULP energy -368404.216078 kJ/mol
# GULP energy per Si atom -5581.882062 kJ/mol
# Density = 0.574730 g / cm^3
# Si number density = 5.760411 Si / 1000 Ang^3
#
#
#
# Elastic Constant Matrix: (Units=GPa)
#
#
# Indices 1 2 3 4 5 6 
#
# 1 53.9096 16.1232 -5.4786 -3.6121 -0.0003 0.0000
# 2 16.1232 53.9096 -5.4786 3.6121 0.0003 0.0000
# 3 -5.4786 -5.4786 22.2099 0.0000 0.0000 0.0000
# 4 -3.6121 3.6121 0.0000 16.8468 0.0000 0.0003
# 5 -0.0003 0.0003 0.0000 0.0000 16.8468 -3.6121
# 6 0.0000 0.0000 0.0000 0.0003 -3.6121 18.8932
#
#
#
# Elastic Compliance Matrix: (Units=1/GPa)
#
#
# Indices 1 2 3 4 5 6 
#
# 1 0.021224 -0.006372 0.003664 0.005917 0.000000 0.000000
# 2 -0.006372 0.021224 0.003664 -0.005917 0.000000 0.000000
# 3 0.003664 0.003664 0.046832 0.000000 0.000000 0.000000
# 4 0.005917 -0.005917 0.000000 0.061896 0.000000 -0.000001
# 5 0.000000 0.000000 0.000000 0.000000 0.061896 0.011833
# 6 0.000000 0.000000 0.000000 -0.000001 0.011833 0.055192
#
#
# Mechanical properties :
#
#
# Convention : Reuss Voigt Hill
#
# Bulk Modulus (GPa) = 10.96592 15.59566 13.28079
# Shear Modulus (GPa) = 16.84923 18.84155 17.84539
#
# Velocity S-wave (km/s) = 3.12589 3.30554 3.21697
# Velocity P-wave (km/s) = 4.40313 4.85932 4.63684
#
# Compressibility (1/GPa) = 0.09119164
#
# Stress axis : x y z
#
# Youngs Moduli (GPa) = 47.11647 47.11647 21.35270
#
# Poissons Ratio (x) = 0.30021 -0.07823
# Poissons Ratio (y) = 0.30021 -0.07823
# Poissons Ratio (z) = -0.17262 -0.17262
#
# Static dielectric constant tensor:
#      x y z
#    x 1.561820 0.000000 0.000000 
#    y 0.000000 1.561820 0.000000 
#    z 0.000000 0.000000 1.568000 
# 
# From -- ./inp_files/10641.got.cif
#   From: 2010.05.17/outbox.ucp.g08.bks.cvg/sg166_6_cif.got.tgz:10641.got - 2010.06.11 15:16:39.
