data_PCOD9579255
_publ_section_title
;
Structure prediction by ZEFSAII (Michael W. Deem and Ramdas Pophale) SiO2 
 PCOD9579255
Probable space group: R -3 M
;
_chemical_formula_sum "Si O2"
_cell_formula_units_Z 126
_cell_length_a 27.817784
_cell_length_b 27.817784
_cell_length_c 10.735224
_cell_angle_alpha 90.000000
_cell_angle_beta 90.000000
_cell_angle_gamma 120.000000
_cell_volume 7194.271174
_symmetry_space_group_name_H-M "R -3 M"
_symmetry_group_IT_number 166
_symmetry_cell_setting 'hexagonal'
loop_
_space_group_symop_operation_xyz
x,y,z
-y,x-y,z
-x+y,-x,z
x-y,-y,-z
-x,-x+y,-z
y,x,-z
-x,-y,-z
y,-x+y,-z
x-y,x,-z
-x+y,y,z
x,x-y,z
-y,-x,z
2/3+x,1/3+y,1/3+z
2/3-y,1/3+x-y,1/3+z
2/3-x+y,1/3-x,1/3+z
2/3+x-y,1/3-y,1/3-z
2/3-x,1/3-x+y,1/3-z
2/3+y,1/3+x,1/3-z
2/3-x,1/3-y,1/3-z
2/3+y,1/3-x+y,1/3-z
2/3+x-y,1/3+x,1/3-z
2/3-x+y,1/3+y,1/3+z
2/3+x,1/3+x-y,1/3+z
2/3-y,1/3-x,1/3+z
1/3+x,2/3+y,2/3+z
1/3-y,2/3+x-y,2/3+z
1/3-x+y,2/3-x,2/3+z
1/3+x-y,2/3-y,2/3-z
1/3-x,2/3-x+y,2/3-z
1/3+y,2/3+x,2/3-z
1/3-x,2/3-y,2/3-z
1/3+y,2/3-x+y,2/3-z
1/3+x-y,2/3+x,2/3-z
1/3-x+y,2/3+y,2/3+z
1/3+x,2/3+x-y,2/3+z
1/3-y,2/3-x,2/3+z
loop_
_atom_site_type_symbol
_atom_site_label
_atom_site_fract_x
_atom_site_fract_y
_atom_site_fract_z
Si Si1 0.934408 0.339637 0.974754
Si Si2 0.879865 0.224556 0.313141
Si Si3 0.168636 0.447137 0.509498
Si Si4 0.554265 0.220932 0.333334
O O1 0.922518 0.277542 0.991043
O O2 0.903407 0.357850 0.073804
O O3 0.912692 0.333334 0.833334
O O4 0.000000 0.381355 0.000000
O O5 0.837279 0.162722 0.366835
O O6 0.881440 0.214773 0.166667
O O7 0.855401 0.261840 0.369193
O O8 0.219934 0.439867 0.462462
O O9 0.194123 0.509964 0.555093
O O10 0.613257 0.226513 0.363107
#
# Coordination Sequence:
#
# PCOD9579255 Si02
#       4
#    36  36  36  18
#     4  12  23  36  56  80 113 163 204 247 289 349
#     4  10  21  36  55  79 110 150 195 242 292 345
#     4  10  22  38  56  84 120 151 191 248 298 348
#     4  10  21  40  66  92 118 148 187 244 310 372
#
# _framework density 17.513936000000001
#
# number of rings (size 3 to 8) (size 9 to 14) (size 15 to 20)
#    0.000    1.429    2.857    2.714    2.000    5.143 
#    0.000    0.000    0.000    0.000    0.000    0.000 
#    0.000    5.714    0.000    0.000    0.000    0.000 
#
# Total GULP energy -233808.521609 kJ/mol
# GULP energy per Si atom -5566.869562 kJ/mol
# Density = 1.747407 g / cm^3
# Si number density = 17.513936 Si / 1000 Ang^3
#
#
#
# Elastic Constant Matrix: (Units=GPa)
#
#
# Indices 1 2 3 4 5 6 
#
# 1 111.8198 56.7166 31.6764 4.8038 0.0054 0.0007
# 2 56.7166 111.8176 31.6672 -4.8038 0.0003 0.0001
# 3 31.6764 31.6672 80.3669 0.0052 0.0181 0.0049
# 4 4.8038 -4.8038 0.0052 15.0183 0.0022 0.0007
# 5 0.0054 0.0003 0.0181 0.0022 15.0242 4.8049
# 6 0.0007 0.0001 0.0049 0.0007 4.8049 27.5506
#
#
#
# Elastic Compliance Matrix: (Units=1/GPa)
#
#
# Indices 1 2 3 4 5 6 
#
# 1 0.013093 -0.006127 -0.002746 -0.006147 -0.000001 0.000000
# 2 -0.006127 0.013092 -0.002744 0.006149 0.000005 0.000000
# 3 -0.002746 -0.002744 0.014606 -0.000005 -0.000017 0.000000
# 4 -0.006147 0.006149 -0.000005 0.070519 -0.000008 0.000000
# 5 -0.000001 0.000005 -0.000017 -0.000008 0.070491 -0.012294
# 6 0.000000 0.000000 0.000000 0.000000 -0.012294 0.038441
#
#
# Mechanical properties :
#
#
# Convention : Reuss Voigt Hill
#
# Bulk Modulus (GPa) = 56.95697 60.45828 58.70763
# Shear Modulus (GPa) = 20.05382 23.78155 21.91769
#
# Velocity S-wave (km/s) = 3.38749 3.68892 3.54141
# Velocity P-wave (km/s) = 6.92038 7.26218 7.09334
#
# Compressibility (1/GPa) = 0.01755711
#
# Stress axis : x y z
#
# Youngs Moduli (GPa) = 76.37805 76.37992 68.46313
#
# Poissons Ratio (x) = 0.46802 0.18798
# Poissons Ratio (y) = 0.46800 0.18787
# Poissons Ratio (z) = 0.20971 0.20960
#
# Static dielectric constant tensor:
#      x y z
#    x 1.645290 0.000000 0.000060 
#    y 0.000000 1.645290 0.000000 
#    z 0.000060 0.000000 1.261930 
# 
# From -- ./inp_files/1608.got.cif
#   From: 2010.05.17/outbox.cif.g08.bks.cpg/sg166_1_cif.got.tgz:1608.got - 2010.05.20 11:04:41.
