data_PCOD9579037
_publ_section_title
;
Structure prediction by ZEFSAII (Michael W. Deem and Ramdas Pophale) SiO2 
 PCOD9579037
Probable space group: R -3 M
;
_chemical_formula_sum "Si O2"
_cell_formula_units_Z 216
_cell_length_a 27.216659
_cell_length_b 27.216659
_cell_length_c 23.682189
_cell_angle_alpha 90.000000
_cell_angle_beta 90.000000
_cell_angle_gamma 120.000000
_cell_volume 15192.250002
_symmetry_space_group_name_H-M "R -3 M"
_symmetry_group_IT_number 166
_symmetry_cell_setting 'hexagonal'
loop_
_space_group_symop_operation_xyz
x,y,z
-y,x-y,z
-x+y,-x,z
x-y,-y,-z
-x,-x+y,-z
y,x,-z
-x,-y,-z
y,-x+y,-z
x-y,x,-z
-x+y,y,z
x,x-y,z
-y,-x,z
2/3+x,1/3+y,1/3+z
2/3-y,1/3+x-y,1/3+z
2/3-x+y,1/3-x,1/3+z
2/3+x-y,1/3-y,1/3-z
2/3-x,1/3-x+y,1/3-z
2/3+y,1/3+x,1/3-z
2/3-x,1/3-y,1/3-z
2/3+y,1/3-x+y,1/3-z
2/3+x-y,1/3+x,1/3-z
2/3-x+y,1/3+y,1/3+z
2/3+x,1/3+x-y,1/3+z
2/3-y,1/3-x,1/3+z
1/3+x,2/3+y,2/3+z
1/3-y,2/3+x-y,2/3+z
1/3-x+y,2/3-x,2/3+z
1/3+x-y,2/3-y,2/3-z
1/3-x,2/3-x+y,2/3-z
1/3+y,2/3+x,2/3-z
1/3-x,2/3-y,2/3-z
1/3+y,2/3-x+y,2/3-z
1/3+x-y,2/3+x,2/3-z
1/3-x+y,2/3+y,2/3+z
1/3+x,2/3+x-y,2/3+z
1/3-y,2/3-x,2/3+z
loop_
_atom_site_type_symbol
_atom_site_label
_atom_site_fract_x
_atom_site_fract_y
_atom_site_fract_z
Si Si1 0.095398 0.490191 0.417716
Si Si2 0.446615 0.779675 0.433609
Si Si3 0.212614 0.310262 0.958649
Si Si4 0.062779 0.242122 0.072243
Si Si5 0.344981 0.403365 0.520893
Si Si6 0.114587 0.000515 0.096573
O O1 0.094190 0.547095 0.434983
O O2 0.160702 0.512119 0.403681
O O3 0.078890 0.448329 0.470421
O O4 0.045361 0.458915 0.371974
O O5 0.382065 0.764130 0.422278
O O6 0.456436 0.728218 0.418749
O O7 0.454119 0.788463 0.501866
O O8 0.149764 0.299527 0.945471
O O9 0.236081 0.289985 0.907355
O O10 0.207622 0.276493 0.015358
O O11 0.122200 0.244400 0.082065
O O12 0.016496 0.174864 0.070161
O O13 0.046484 0.270045 0.123220
O O14 0.349552 0.349552 0.500000
O O15 0.050676 0.949325 0.084156
O O16 0.122620 0.061310 0.079419
#
# Coordination Sequence:
#
# PCOD9579037 Si02
#       6
#    36  36  36  36  36  36
#     4   9  16  26  40  57  77 103 134 168 203 238
#     4   9  15  23  37  58  83 107 133 162 194 232
#     4   9  18  29  40  55  77 104 133 169 208 240
#     4  10  19  30  42  59  82 105 132 165 204 247
#     4  10  18  28  42  58  75  98 132 170 205 239
#     4   9  16  25  39  58  83 112 141 168 193 226
#
# _framework density 14.217775
#
# number of rings (size 3 to 8) (size 9 to 14) (size 15 to 20)
#    0.000    2.667    1.667    1.333    0.000    4.000 
#    0.000    0.833    0.000    0.000    0.000    1.167 
#    0.000   24.000    0.000    0.000    0.000    0.000 
#
# Total GULP energy -401122.995496 kJ/mol
# GULP energy per Si atom -5571.152715 kJ/mol
# Density = 1.418541 g / cm^3
# Si number density = 14.217775 Si / 1000 Ang^3
#
#
#
# Elastic Constant Matrix: (Units=GPa)
#
#
# Indices 1 2 3 4 5 6 
#
# 1 71.2993 44.9418 24.6576 4.0399 0.0000 0.0000
# 2 44.9418 71.2993 24.6576 -4.0399 0.0000 0.0000
# 3 24.6576 24.6576 31.2646 0.0000 0.0000 0.0000
# 4 4.0399 -4.0399 0.0000 18.0695 0.0000 0.0000
# 5 0.0000 0.0000 0.0000 0.0000 18.0695 4.0399
# 6 0.0000 0.0000 0.0000 0.0000 4.0399 13.1787
#
#
#
# Elastic Compliance Matrix: (Units=1/GPa)
#
#
# Indices 1 2 3 4 5 6 
#
# 1 0.026830 -0.013901 -0.010197 -0.009106 0.000000 0.000000
# 2 -0.013901 0.026830 -0.010197 0.009106 0.000000 0.000000
# 3 -0.010197 -0.010197 0.048069 0.000000 0.000000 0.000000
# 4 -0.009106 0.009106 0.000000 0.059414 0.000000 0.000000
# 5 0.000000 0.000000 0.000000 0.000000 0.059414 -0.018213
# 6 0.000000 0.000000 0.000000 0.000000 -0.018213 0.081463
#
#
# Mechanical properties :
#
#
# Convention : Reuss Voigt Hill
#
# Bulk Modulus (GPa) = 30.17519 40.26416 35.21968
# Shear Modulus (GPa) = 13.10085 15.17062 14.13574
#
# Velocity S-wave (km/s) = 3.03882 3.27007 3.15656
# Velocity P-wave (km/s) = 5.79502 6.52984 6.17337
#
# Compressibility (1/GPa) = 0.03313980
#
# Stress axis : x y z
#
# Youngs Moduli (GPa) = 37.27165 37.27165 20.80358
#
# Poissons Ratio (x) = 0.51813 0.21212
# Poissons Ratio (y) = 0.51813 0.21212
# Poissons Ratio (z) = 0.38004 0.38004
#
# Static dielectric constant tensor:
#      x y z
#    x 1.498670 0.000000 0.000000 
#    y 0.000000 1.498670 0.000000 
#    z 0.000000 0.000000 1.450240 
# 
# From -- ./inp_files/7131.got.cif
#   From: 2010.05.17/outbox.cif.g08.bks.cpg/sg166_4_cif.got.tgz:7131.got - 2010.05.20 11:04:41.
