data_PCOD9579370
_publ_section_title
;
Structure prediction by ZEFSAII (Michael W. Deem and Ramdas Pophale) SiO2 
 PCOD9579370
Probable space group: R -3 M
;
_chemical_formula_sum "Si O2"
_cell_formula_units_Z 66
_cell_length_a 30.000000
_cell_length_b 30.000000
_cell_length_c 15.000000
_cell_angle_alpha 90.000000
_cell_angle_beta 90.000000
_cell_angle_gamma 120.000000
_cell_volume 11691.342951
_symmetry_space_group_name_H-M "R -3 M"
_symmetry_group_IT_number 166
_symmetry_cell_setting 'hexagonal'
loop_
_space_group_symop_operation_xyz
x,y,z
-y,x-y,z
-x+y,-x,z
x-y,-y,-z
-x,-x+y,-z
y,x,-z
-x,-y,-z
y,-x+y,-z
x-y,x,-z
-x+y,y,z
x,x-y,z
-y,-x,z
2/3+x,1/3+y,1/3+z
2/3-y,1/3+x-y,1/3+z
2/3-x+y,1/3-x,1/3+z
2/3+x-y,1/3-y,1/3-z
2/3-x,1/3-x+y,1/3-z
2/3+y,1/3+x,1/3-z
2/3-x,1/3-y,1/3-z
2/3+y,1/3-x+y,1/3-z
2/3+x-y,1/3+x,1/3-z
2/3-x+y,1/3+y,1/3+z
2/3+x,1/3+x-y,1/3+z
2/3-y,1/3-x,1/3+z
1/3+x,2/3+y,2/3+z
1/3-y,2/3+x-y,2/3+z
1/3-x+y,2/3-x,2/3+z
1/3+x-y,2/3-y,2/3-z
1/3-x,2/3-x+y,2/3-z
1/3+y,2/3+x,2/3-z
1/3-x,2/3-y,2/3-z
1/3+y,2/3-x+y,2/3-z
1/3+x-y,2/3+x,2/3-z
1/3-x+y,2/3+y,2/3+z
1/3+x,2/3+x-y,2/3+z
1/3-y,2/3-x,2/3+z
loop_
_atom_site_type_symbol
_atom_site_label
_atom_site_fract_x
_atom_site_fract_y
_atom_site_fract_z
Si Si1 0.887816 0.554483 0.333334
Si Si2 0.494779 0.609185 0.022242
Si Si3 0.820926 0.075328 0.849496
Si Si4 0.201656 0.296420 0.513753
Si Si5 0.392281 0.144837 0.196223
Si Si6 0.723776 0.552025 0.007746
O O1 0.882334 0.516751 0.251703
O O2 0.886122 0.598804 0.274865
O O3 0.436285 0.563716 0.041431
O O4 0.531251 0.602589 0.094749
O O5 0.507511 0.600751 0.921298
O O6 0.506852 0.667657 0.020820
O O7 0.871998 0.128003 0.874454
O O8 0.772022 0.084403 0.855162
O O9 0.151251 0.302501 0.502541
O O10 0.193173 0.264606 0.603937
O O11 0.403528 0.201764 0.225395
O O12 0.333334 0.114071 0.166667
O O13 0.426876 0.153152 0.108018
O O14 0.769147 0.538294 0.000978
#
# Coordination Sequence:
#
# PCOD9579370 Si02
#       6
#    18  36  36  36  36  36
#     4  12  20  34  54  76 102 134 188 216 258 310
#     4  10  19  34  55  80 106 135 178 223 265 315
#     4  10  20  34  52  76 105 138 176 220 264 307
#     4   9  18  33  56  76  99 138 173 211 263 319
#     4  10  21  37  54  73 104 143 178 217 268 321
#     4  10  19  34  54  78 104 135 176 214 262 320
#
# _framework density 5.6452030000000004
#
# number of rings (size 3 to 8) (size 9 to 14) (size 15 to 20)
#    0.000    2.000    1.818    2.727    0.000    5.091 
#    0.000    3.636    0.000    0.364    0.000    0.000 
#    0.000    4.364    0.000   12.364    0.000    0.000 
#
# Total GULP energy -367413.918622 kJ/mol
# GULP energy per Si atom -5566.877555 kJ/mol
# Density = 0.563235 g / cm^3
# Si number density = 5.645203 Si / 1000 Ang^3
#
#
#
# Elastic Constant Matrix: (Units=GPa)
#
#
# Indices 1 2 3 4 5 6 
#
# 1 60.8804 32.3652 17.1926 -0.6754 0.0006 0.0000
# 2 32.3652 60.8804 17.1925 0.6754 -0.0006 0.0000
# 3 17.1926 17.1925 95.4996 0.0000 0.0002 0.0000
# 4 -0.6754 0.6754 0.0000 26.0293 0.0000 -0.0006
# 5 0.0006 -0.0006 0.0002 0.0000 26.0294 -0.6754
# 6 0.0000 0.0000 0.0000 -0.0006 -0.6754 14.2576
#
#
#
# Elastic Compliance Matrix: (Units=1/GPa)
#
#
# Indices 1 2 3 4 5 6 
#
# 1 0.023300 -0.011813 -0.002068 0.000911 -0.000001 0.000000
# 2 -0.011813 0.023300 -0.002068 -0.000911 0.000001 0.000000
# 3 -0.002068 -0.002068 0.011216 0.000000 0.000000 0.000000
# 4 0.000911 -0.000911 0.000000 0.038466 0.000000 0.000002
# 5 -0.000001 0.000001 0.000000 0.000000 0.038465 0.001822
# 6 0.000000 0.000000 0.000000 0.000002 0.001822 0.070224
#
#
# Mechanical properties :
#
#
# Convention : Reuss Voigt Hill
#
# Bulk Modulus (GPa) = 38.58344 38.97345 38.77844
# Shear Modulus (GPa) = 20.36606 23.29726 21.83166
#
# Velocity S-wave (km/s) = 3.47155 3.71298 3.59430
# Velocity P-wave (km/s) = 6.23705 6.43773 6.33818
#
# Compressibility (1/GPa) = 0.02591786
#
# Stress axis : x y z
#
# Youngs Moduli (GPa) = 42.91931 42.91935 89.15966
#
# Poissons Ratio (x) = 0.50699 0.18438
# Poissons Ratio (y) = 0.50699 0.18438
# Poissons Ratio (z) = 0.08876 0.08875
#
# Static dielectric constant tensor:
#      x y z
#    x 1.590850 0.000000 0.000000 
#    y 0.000000 1.590850 0.000000 
#    z 0.000000 0.000000 1.596120 
# 
# From -- ./inp_files/4308.got.cif
#   From: 2010.05.17/outbox.ucp.g08.bks.cvg/sg166_3_cif.got.tgz:4308.got - 2010.06.11 15:16:39.
