data_PCOD9579371
_publ_section_title
;
Structure prediction by ZEFSAII (Michael W. Deem and Ramdas Pophale) SiO2 
 PCOD9579371
Probable space group: R -3 M
;
_chemical_formula_sum "Si O2"
_cell_formula_units_Z 72
_cell_length_a 24.000000
_cell_length_b 24.000000
_cell_length_c 24.000000
_cell_angle_alpha 90.000000
_cell_angle_beta 90.000000
_cell_angle_gamma 120.000000
_cell_volume 11971.935182
_symmetry_space_group_name_H-M "R -3 M"
_symmetry_group_IT_number 166
_symmetry_cell_setting 'hexagonal'
loop_
_space_group_symop_operation_xyz
x,y,z
-y,x-y,z
-x+y,-x,z
x-y,-y,-z
-x,-x+y,-z
y,x,-z
-x,-y,-z
y,-x+y,-z
x-y,x,-z
-x+y,y,z
x,x-y,z
-y,-x,z
2/3+x,1/3+y,1/3+z
2/3-y,1/3+x-y,1/3+z
2/3-x+y,1/3-x,1/3+z
2/3+x-y,1/3-y,1/3-z
2/3-x,1/3-x+y,1/3-z
2/3+y,1/3+x,1/3-z
2/3-x,1/3-y,1/3-z
2/3+y,1/3-x+y,1/3-z
2/3+x-y,1/3+x,1/3-z
2/3-x+y,1/3+y,1/3+z
2/3+x,1/3+x-y,1/3+z
2/3-y,1/3-x,1/3+z
1/3+x,2/3+y,2/3+z
1/3-y,2/3+x-y,2/3+z
1/3-x+y,2/3-x,2/3+z
1/3+x-y,2/3-y,2/3-z
1/3-x,2/3-x+y,2/3-z
1/3+y,2/3+x,2/3-z
1/3-x,2/3-y,2/3-z
1/3+y,2/3-x+y,2/3-z
1/3+x-y,2/3+x,2/3-z
1/3-x+y,2/3+y,2/3+z
1/3+x,2/3+x-y,2/3+z
1/3-y,2/3-x,2/3+z
loop_
_atom_site_type_symbol
_atom_site_label
_atom_site_fract_x
_atom_site_fract_y
_atom_site_fract_z
Si Si1 0.242133 0.364938 0.212349
Si Si2 0.550481 0.836709 0.423261
Si Si3 0.770016 0.020781 0.063983
Si Si4 0.280825 0.910372 0.089849
Si Si5 0.999732 0.130177 0.865465
Si Si6 0.199905 0.922430 0.700702
O O1 0.193208 0.386416 0.235338
O O2 0.205646 0.287866 0.216112
O O3 0.256039 0.383495 0.147396
O O4 0.309177 0.392768 0.243693
O O5 0.541831 0.770916 0.397031
O O6 0.497591 0.816620 0.471674
O O7 0.548920 0.889108 0.383739
O O8 0.828771 0.021139 0.095442
O O9 0.765432 0.085487 0.061799
O O10 0.703316 0.967400 0.091316
O O11 0.768965 0.000000 0.000000
O O12 0.253151 0.874041 0.032335
O O13 0.057296 0.114591 0.863413
O O14 0.932475 0.067526 0.883835
O O15 0.128356 0.871645 0.718538
#
# Coordination Sequence:
#
# PCOD9579371 Si02
#       6
#    36  36  36  36  36  36
#     4  10  19  34  56  81 109 144 180 219 271 329
#     4  10  21  36  56  80 108 143 180 225 276 326
#     4  10  21  36  54  79 110 141 182 228 279 327
#     4  10  20  35  55  80 115 146 180 219 271 333
#     4  11  23  39  57  77 105 145 192 238 280 325
#     4  11  22  36  55  82 112 146 184 226 273 329
#
# _framework density 6.0140650000000004
#
# number of rings (size 3 to 8) (size 9 to 14) (size 15 to 20)
#    0.000    1.667    3.333    1.667    0.000    4.667 
#    0.000    3.333    0.000    1.333    0.000    0.000 
#    0.000    0.000    0.000    8.500    0.000    0.000 
#
# Total GULP energy -401580.454167 kJ/mol
# GULP energy per Si atom -5577.506308 kJ/mol
# Density = 0.600038 g / cm^3
# Si number density = 6.014065 Si / 1000 Ang^3
#
#
#
# Elastic Constant Matrix: (Units=GPa)
#
#
# Indices 1 2 3 4 5 6 
#
# 1 98.8890 48.3663 19.6189 0.8268 0.0000 0.0000
# 2 48.3663 98.8890 19.6189 -0.8268 0.0000 0.0000
# 3 19.6189 19.6189 25.5243 0.0000 0.0000 0.0000
# 4 0.8268 -0.8268 0.0000 -2.8309 0.0000 0.0000
# 5 0.0000 0.0000 0.0000 0.0000 -2.8309 0.8268
# 6 0.0000 0.0000 0.0000 0.0000 0.8268 25.2613
#
#
#
# Elastic Compliance Matrix: (Units=1/GPa)
#
#
# Indices 1 2 3 4 5 6 
#
# 1 0.014073 -0.005533 -0.006564 0.005726 0.000000 0.000000
# 2 -0.005533 0.014073 -0.006564 -0.005726 0.000000 0.000000
# 3 -0.006564 -0.006564 0.049269 0.000000 0.000000 0.000000
# 4 0.005726 -0.005726 0.000000 -0.349898 0.000000 0.000000
# 5 0.000000 0.000000 0.000000 0.000000 -0.349898 0.011452
# 6 0.000000 0.000000 0.000000 0.000000 0.011452 0.039211
#
#
# Mechanical properties :
#
#
# Convention : Reuss Voigt Hill
#
# Bulk Modulus (GPa) = 24.94226 44.27896 34.61061
# Shear Modulus (GPa) = -9.38996 12.96645 1.78824
#
# Velocity S-wave (km/s) = -2.28380 2.68372 0.99664
# Velocity P-wave (km/s) = 2.62680 5.84793 4.53312
#
# Compressibility (1/GPa) = 0.04009260
#
# Stress axis : x y z
#
# Youngs Moduli (GPa) = 71.05883 71.05883 20.29664
#
# Poissons Ratio (x) = 0.39316 0.13323
# Poissons Ratio (y) = 0.39316 0.13323
# Poissons Ratio (z) = 0.46644 0.46644
#
# Static dielectric constant tensor:
#      x y z
#    x 1.618380 0.000000 0.000000 
#    y 0.000000 1.618380 0.000000 
#    z 0.000000 0.000000 1.616450 
# 
# From -- ./inp_files/8428.got.cif
#   From: 2010.05.17/outbox.ucp.g08.bks.cvg/sg166_5_cif.got.tgz:8428.got - 2010.06.11 15:16:39.
