data_PCOD9579749
_publ_section_title
;
Structure prediction by ZEFSAII (Michael W. Deem and Ramdas Pophale) SiO2 
 PCOD9579749
Probable space group: P 6
;
_chemical_formula_sum "Si O2"
_cell_formula_units_Z 45
_cell_length_a 16.858893
_cell_length_b 16.858893
_cell_length_c 8.453442
_cell_angle_alpha 90.000000
_cell_angle_beta 90.000000
_cell_angle_gamma 120.000000
_cell_volume 2080.761567
_symmetry_space_group_name_H-M "P 6"
_symmetry_group_IT_number 168
_symmetry_cell_setting 'hexagonal'
loop_
_space_group_symop_operation_xyz
x,y,z
x-y,x,z
-y,x-y,z
-x,-y,z
-x+y,-x,z
y,-x+y,z
loop_
_atom_site_type_symbol
_atom_site_label
_atom_site_fract_x
_atom_site_fract_y
_atom_site_fract_z
Si Si1 0.679455 0.581681 0.658010
Si Si2 0.235135 0.993618 0.856499
Si Si3 0.046281 0.841965 0.179365
Si Si4 0.732147 0.277532 0.833024
Si Si5 0.331950 0.316548 0.360228
Si Si6 0.000000 0.500000 0.872958
Si Si7 0.118342 0.429710 0.049233
Si Si8 0.146711 0.939884 0.542920
O O1 0.737477 0.678544 0.746139
O O2 0.731373 0.523972 0.692378
O O3 0.655153 0.604134 0.483483
O O4 0.586733 0.532024 0.759509
O O5 0.260808 0.926632 0.952944
O O6 0.155464 0.940953 0.731083
O O7 0.216669 0.047441 0.991934
O O8 0.944004 0.820655 0.217018
O O9 0.052227 0.757962 0.256216
O O10 0.762967 0.385435 0.825501
O O11 0.739063 0.224872 0.990025
O O12 0.300954 0.226075 0.468469
O O13 0.405063 0.319852 0.232255
O O14 0.066370 0.480954 0.982377
O O15 0.043616 0.868538 0.499800
#
# Coordination Sequence:
#
# PCOD9579749 Si02
#       8
#     6   6   6   6   6   3   6   6
#     4  10  21  40  66  99 132 171 220 289 344 425
#     4   9  22  35  63  92 125 178 240 294 331 404
#     4  11  22  39  57  88 129 179 238 288 353 410
#     4  10  21  40  72 113 132 173 228 298 361 432
#     4  10  24  39  59  94 132 176 222 280 360 414
#     4  10  18  42  68  96 122 166 230 264 332 418
#     4  10  21  40  66  99 132 171 220 289 344 425
#     4  11  22  39  57  88 129 179 238 288 353 410
#
# _framework density 21.626697
#
# number of rings (size 3 to 8) (size 9 to 14) (size 15 to 20)
#    0.267    1.600    1.333    1.867    7.467    0.533 
#    4.800    2.667    0.000    0.000    0.000   11.200 
#    0.000    0.000    0.000    0.000    0.000    0.000 
#
# Total GULP energy -250779.163373 kJ/mol
# GULP energy per Si atom -5572.870297 kJ/mol
# Density = 2.157747 g / cm^3
# Si number density = 21.626697 Si / 1000 Ang^3
#
#
#
# Elastic Constant Matrix: (Units=GPa)
#
#
# Indices 1 2 3 4 5 6 
#
# 1 63.8260 6.5784 7.5037 0.0000 0.0000 0.0000
# 2 6.5784 63.8260 7.5037 0.0000 0.0000 0.0000
# 3 7.5037 7.5037 111.5290 0.0000 0.0000 0.0000
# 4 0.0000 0.0000 0.0000 41.1346 0.0000 0.0000
# 5 0.0000 0.0000 0.0000 0.0000 41.1346 0.0000
# 6 0.0000 0.0000 0.0000 0.0000 0.0000 28.6238
#
#
#
# Elastic Compliance Matrix: (Units=1/GPa)
#
#
# Indices 1 2 3 4 5 6 
#
# 1 0.015939 -0.001529 -0.000970 0.000000 0.000000 0.000000
# 2 -0.001529 0.015939 -0.000970 0.000000 0.000000 0.000000
# 3 -0.000970 -0.000970 0.009097 0.000000 0.000000 0.000000
# 4 0.000000 0.000000 0.000000 0.024310 0.000000 0.000000
# 5 0.000000 0.000000 0.000000 0.000000 0.024310 0.000000
# 6 0.000000 0.000000 0.000000 0.000000 0.000000 0.034936
#
#
# Mechanical properties :
#
#
# Convention : Reuss Voigt Hill
#
# Bulk Modulus (GPa) = 29.37783 31.37250 30.37517
# Shear Modulus (GPa) = 35.01059 36.68497 35.84778
#
# Velocity S-wave (km/s) = 4.02787 4.12306 4.07574
# Velocity P-wave (km/s) = 5.93677 6.09951 6.01869
#
# Compressibility (1/GPa) = 0.03403927
#
# Stress axis : x y z
#
# Youngs Moduli (GPa) = 62.73864 62.73864 109.92948
#
# Poissons Ratio (x) = 0.09592 0.10658
# Poissons Ratio (y) = 0.09592 0.10658
# Poissons Ratio (z) = 0.06083 0.06083
#
# Static dielectric constant tensor:
#      x y z
#    x 1.837340 0.000000 0.000000 
#    y 0.000000 1.837340 0.000000 
#    z 0.000000 0.000000 1.904020 
# 
# From -- ./inp_files/350.got.cif
#   From: 2010.05.17/outbox.cif.g08.bks.cpg/sg168_cif.got.tgz:350.got - 2010.05.20 11:12:33.
