data_PCOD9579696
_publ_section_title
;
Structure prediction by ZEFSAII (Michael W. Deem and Ramdas Pophale) SiO2 
 PCOD9579696
Probable space group: R -3 C 
;
_chemical_formula_sum "Si O2"
_cell_formula_units_Z 96
_cell_length_a 11.928588
_cell_length_b 11.928588
_cell_length_c 31.375112
_cell_angle_alpha 90.000000
_cell_angle_beta 90.000000
_cell_angle_gamma 120.000000
_cell_volume 3866.286153
_symmetry_space_group_name_H-M "R -3 C "
_symmetry_group_IT_number 167
_symmetry_cell_setting 'hexagonal'
loop_
_space_group_symop_operation_xyz
x,y,z
-y,x-y,z
-x+y,-x,z
x-y,-y,1/2-z
-x,-x+y,1/2-z
y,x,1/2-z
-x,-y,-z
y,-x+y,-z
x-y,x,-z
-x+y,y,1/2+z
x,x-y,1/2+z
-y,-x,1/2+z
2/3+x,1/3+y,1/3+z
2/3-y,1/3+x-y,1/3+z
2/3-x+y,1/3-x,1/3+z
2/3+x-y,1/3-y,5/6-z
2/3-x,1/3-x+y,5/6-z
2/3+y,1/3+x,5/6-z
2/3-x,1/3-y,1/3-z
2/3+y,1/3-x+y,1/3-z
2/3+x-y,1/3+x,1/3-z
2/3-x+y,1/3+y,5/6+z
2/3+x,1/3+x-y,5/6+z
2/3-y,1/3-x,5/6+z
1/3+x,2/3+y,2/3+z
1/3-y,2/3+x-y,2/3+z
1/3-x+y,2/3-x,2/3+z
1/3+x-y,2/3-y,1/6-z
1/3-x,2/3-x+y,1/6-z
1/3+y,2/3+x,1/6-z
1/3-x,2/3-y,2/3-z
1/3+y,2/3-x+y,2/3-z
1/3+x-y,2/3+x,2/3-z
1/3-x+y,2/3+y,1/6+z
1/3+x,2/3+x-y,1/6+z
1/3-y,2/3-x,1/6+z
loop_
_atom_site_type_symbol
_atom_site_label
_atom_site_fract_x
_atom_site_fract_y
_atom_site_fract_z
Si Si1 0.453929 0.966562 0.204836
Si Si2 0.666668 0.333334 0.388541
Si Si3 0.000000 0.000000 0.156886
Si Si4 0.108922 0.660571 0.367925
O O1 0.375153 0.811353 0.207047
O O2 0.369001 0.037902 0.206645
O O3 0.531539 0.000000 0.250000
O O4 0.535042 0.020403 0.161714
O O5 0.666668 0.333334 0.439777
O O6 0.908487 0.855802 0.175235
O O7 0.153299 0.666667 0.416667
#
# Coordination Sequence:
#
# PCOD9579696 Si02
#       4
#    36  12  12  36
#     4  11  24  46  75 113 150 198 258 311 381 453
#     4  12  24  50  83 111 151 203 260 316 370 458
#     4  12  25  49  73 112 163 200 250 314 386 454
#     4  11  25  47  74 112 150 200 252 315 384 445
#
# _framework density 24.830027999999999
#
# number of rings (size 3 to 8) (size 9 to 14) (size 15 to 20)
#    0.000    0.750    3.750    3.375    0.000    3.000 
#    6.750    0.000    0.000    4.500    0.000    0.000 
#    0.000    0.000    0.000    0.000    0.000    0.000 
#
# Total GULP energy -178252.222719 kJ/mol
# GULP energy per Si atom -5570.381960 kJ/mol
# Density = 2.477351 g / cm^3
# Si number density = 24.830028 Si / 1000 Ang^3
#
#
#
# Elastic Constant Matrix: (Units=GPa)
#
#
# Indices 1 2 3 4 5 6 
#
# 1 64.1251 62.4794 71.7618 5.0837 -0.0004 0.0000
# 2 62.4794 64.1259 71.7621 -5.0838 0.0004 0.0000
# 3 71.7618 71.7621 261.7487 0.0002 0.0000 0.0000
# 4 5.0837 -5.0838 0.0002 42.0386 0.0000 0.0004
# 5 -0.0004 0.0004 0.0000 0.0000 42.0380 5.0841
# 6 0.0000 0.0000 0.0000 0.0004 5.0841 0.8227
#
#
#
# Elastic Compliance Matrix: (Units=1/GPa)
#
#
# Indices 1 2 3 4 5 6 
#
# 1 1.206364 -1.194896 -0.003142 -0.290387 0.000022 0.000000
# 2 -1.194896 1.206349 -0.003142 0.290385 -0.000022 0.000000
# 3 -0.003142 -0.003142 0.005543 0.000000 0.000000 0.000000
# 4 -0.290387 0.290385 0.000000 0.094021 0.000000 -0.000045
# 5 0.000022 -0.000022 0.000000 0.000000 0.094175 -0.581998
# 6 0.000000 0.000000 0.000000 -0.000045 -0.581998 4.812257
#
#
# Mechanical properties :
#
#
# Convention : Reuss Voigt Hill
#
# Bulk Modulus (GPa) = 62.90822 89.11181 76.01001
# Shear Modulus (GPa) = 0.50883 29.24627 14.87755
#
# Velocity S-wave (km/s) = 0.45318 3.43572 2.45046
# Velocity P-wave (km/s) = 5.06600 7.19065 6.21972
#
# Compressibility (1/GPa) = 0.01589617
#
# Stress axis : x y z
#
# Youngs Moduli (GPa) = 0.82894 0.82895 180.39679
#
# Poissons Ratio (x) = 0.99051 0.56689
# Poissons Ratio (y) = 0.99049 0.56674
# Poissons Ratio (z) = 0.00260 0.00260
#
# Static dielectric constant tensor:
#      x y z
#    x 2.012570 0.000000 0.000000 
#    y 0.000000 2.012570 0.000000 
#    z 0.000000 0.000000 2.252150 
# 
# From -- ./inp_files/6767.got.cif
#   From: 2010.05.17/outbox.cif.g08.bks.cpg/sg167_4_cif.got.tgz:6767.got - 2010.05.20 11:09:15.
