data_PCOD9579507
_publ_section_title
;
Structure prediction by ZEFSAII (Michael W. Deem and Ramdas Pophale) SiO2 
 PCOD9579507
Probable space group: R -3 C 
;
_chemical_formula_sum "Si O2"
_cell_formula_units_Z 144
_cell_length_a 23.138881
_cell_length_b 23.138881
_cell_length_c 13.536191
_cell_angle_alpha 90.000000
_cell_angle_beta 90.000000
_cell_angle_gamma 120.000000
_cell_volume 6276.417297
_symmetry_space_group_name_H-M "R -3 C "
_symmetry_group_IT_number 167
_symmetry_cell_setting 'hexagonal'
loop_
_space_group_symop_operation_xyz
x,y,z
-y,x-y,z
-x+y,-x,z
x-y,-y,1/2-z
-x,-x+y,1/2-z
y,x,1/2-z
-x,-y,-z
y,-x+y,-z
x-y,x,-z
-x+y,y,1/2+z
x,x-y,1/2+z
-y,-x,1/2+z
2/3+x,1/3+y,1/3+z
2/3-y,1/3+x-y,1/3+z
2/3-x+y,1/3-x,1/3+z
2/3+x-y,1/3-y,5/6-z
2/3-x,1/3-x+y,5/6-z
2/3+y,1/3+x,5/6-z
2/3-x,1/3-y,1/3-z
2/3+y,1/3-x+y,1/3-z
2/3+x-y,1/3+x,1/3-z
2/3-x+y,1/3+y,5/6+z
2/3+x,1/3+x-y,5/6+z
2/3-y,1/3-x,5/6+z
1/3+x,2/3+y,2/3+z
1/3-y,2/3+x-y,2/3+z
1/3-x+y,2/3-x,2/3+z
1/3+x-y,2/3-y,1/6-z
1/3-x,2/3-x+y,1/6-z
1/3+y,2/3+x,1/6-z
1/3-x,2/3-y,2/3-z
1/3+y,2/3-x+y,2/3-z
1/3+x-y,2/3+x,2/3-z
1/3-x+y,2/3+y,1/6+z
1/3+x,2/3+x-y,1/6+z
1/3-y,2/3-x,1/6+z
loop_
_atom_site_type_symbol
_atom_site_label
_atom_site_fract_x
_atom_site_fract_y
_atom_site_fract_z
Si Si1 0.812283 0.110052 0.313691
Si Si2 0.554328 0.371722 0.950680
Si Si3 0.775913 0.068134 0.704607
Si Si4 0.704248 0.482163 0.953915
O O1 0.780917 0.114251 0.416667
O O2 0.872609 0.184413 0.283595
O O3 0.763026 0.087808 0.220779
O O4 0.843262 0.063080 0.330631
O O5 0.628841 0.427701 0.978507
O O6 0.542228 0.298995 0.977020
O O7 0.548816 0.373606 0.831786
O O8 0.498563 0.384990 0.996884
O O9 0.717845 0.000000 0.750000
#
# Coordination Sequence:
#
# PCOD9579507 Si02
#       4
#    36  36  36  36
#     4  11  23  42  70  96 140 200 254 305 383 454
#     4  10  20  38  68 108 150 188 239 297 376 450
#     4  11  23  42  72 100 140 192 246 321 375 437
#     4  10  20  38  70 106 150 197 234 298 377 457
#
# _framework density 22.943024999999999
#
# number of rings (size 3 to 8) (size 9 to 14) (size 15 to 20)
#    0.000    1.500    5.000    0.500    0.000    3.000 
#    0.000    0.000   11.000    0.000    0.000    0.000 
#    0.000    0.000    0.000    0.000    0.000    0.000 
#
# Total GULP energy -269179.980284 kJ/mol
# GULP energy per Si atom -5607.916256 kJ/mol
# Density = 2.289081 g / cm^3
# Si number density = 22.943025 Si / 1000 Ang^3
#
#
#
# Elastic Constant Matrix: (Units=GPa)
#
#
# Indices 1 2 3 4 5 6 
#
# 1 136.1516 68.2586 69.3038 -0.0212 0.0001 0.0000
# 2 68.2586 136.1516 69.3038 0.0212 -0.0001 0.0000
# 3 69.3038 69.3038 132.2842 0.0000 0.0000 0.0000
# 4 -0.0212 0.0212 0.0000 37.2931 0.0000 -0.0001
# 5 0.0001 -0.0001 0.0000 0.0000 37.2931 -0.0212
# 6 0.0000 0.0000 0.0000 -0.0001 -0.0212 33.9465
#
#
#
# Elastic Compliance Matrix: (Units=1/GPa)
#
#
# Indices 1 2 3 4 5 6 
#
# 1 0.011158 -0.003571 -0.003975 0.000008 0.000000 0.000000
# 2 -0.003571 0.011158 -0.003975 -0.000008 0.000000 0.000000
# 3 -0.003975 -0.003975 0.011725 0.000000 0.000000 0.000000
# 4 0.000008 -0.000008 0.000000 0.026815 0.000000 0.000000
# 5 0.000000 0.000000 0.000000 0.000000 0.026815 0.000017
# 6 0.000000 0.000000 0.000000 0.000000 0.000017 0.029458
#
#
# Mechanical properties :
#
#
# Convention : Reuss Voigt Hill
#
# Bulk Modulus (GPa) = 90.91520 90.92443 90.91982
# Shear Modulus (GPa) = 34.76152 34.88796 34.82474
#
# Velocity S-wave (km/s) = 3.89668 3.90376 3.90022
# Velocity P-wave (km/s) = 7.74326 7.74827 7.74577
#
# Compressibility (1/GPa) = 0.01099926
#
# Stress axis : x y z
#
# Youngs Moduli (GPa) = 89.61905 89.61905 85.29028
#
# Poissons Ratio (x) = 0.32000 0.33904
# Poissons Ratio (y) = 0.32000 0.33904
# Poissons Ratio (z) = 0.35625 0.35625
#
# Static dielectric constant tensor:
#      x y z
#    x 1.808040 0.000000 0.000000 
#    y 0.000000 1.808040 0.000000 
#    z 0.000000 0.000000 1.915020 
# 
# From -- ./inp_files/3309.got.cif
#   From: 2010.05.17/outbox.cif.g08.bks.cpg/sg167_2_cif.got.tgz:3309.got - 2010.05.20 11:09:15.
