data_PCOD9579918
_publ_section_title
;
Structure prediction by ZEFSAII (Michael W. Deem and Ramdas Pophale) SiO2 
 PCOD9579918
Probable space group: P 61
;
_chemical_formula_sum "Si O2"
_cell_formula_units_Z 30
_cell_length_a 7.061078
_cell_length_b 7.061078
_cell_length_c 25.827530
_cell_angle_alpha 90.000000
_cell_angle_beta 90.000000
_cell_angle_gamma 120.000000
_cell_volume 1115.207096
_symmetry_space_group_name_H-M "P 61"
_symmetry_group_IT_number 169
_symmetry_cell_setting 'hexagonal'
loop_
_space_group_symop_operation_xyz
x,y,z
x-y,x,1/6+z
-y,x-y,1/3+z
-x,-y,1/2+z
-x+y,-x,2/3+z
y,-x+y,5/6+z
loop_
_atom_site_type_symbol
_atom_site_label
_atom_site_fract_x
_atom_site_fract_y
_atom_site_fract_z
Si Si1 0.549379 0.779277 0.400890
Si Si2 0.445491 0.692082 0.519296
Si Si3 0.969627 0.281919 0.536526
Si Si4 0.728222 0.052703 0.071461
Si Si5 0.871237 0.949324 0.975650
O O1 0.487591 0.780538 0.460772
O O2 0.356690 0.565127 0.372746
O O3 0.748826 0.728550 0.402111
O O4 0.617786 0.003623 0.371979
O O5 0.201428 0.483704 0.519092
O O6 0.433451 0.855609 0.561713
O O7 0.012884 0.223877 0.594017
O O8 0.936219 0.084577 0.499499
O O9 0.745066 0.936543 0.122735
O O10 0.708038 0.901262 0.022944
#
# Coordination Sequence:
#
# PCOD9579918 Si02
#       5
#     6   6   6   6   6
#     4  11  23  44  70 112 154 209 271 329 415 490
#     4  11  23  44  71 111 157 210 269 335 405 503
#     4  10  21  42  75 109 155 200 266 334 412 479
#     4  10  23  42  70 106 157 205 262 331 403 482
#     4  10  20  44  70 110 155 206 262 335 403 490
#
# _framework density 26.900832999999999
#
# number of rings (size 3 to 8) (size 9 to 14) (size 15 to 20)
#    0.000    1.600    2.000    2.400    0.000    0.000 
#   14.400    8.000    0.000    0.000    0.000    0.000 
#    0.000    0.000    0.000    0.000    0.000    0.000 
#
# Total GULP energy -168240.084999 kJ/mol
# GULP energy per Si atom -5608.002833 kJ/mol
# Density = 2.683961 g / cm^3
# Si number density = 26.900833 Si / 1000 Ang^3
#
#
#
# Elastic Constant Matrix: (Units=GPa)
#
#
# Indices 1 2 3 4 5 6 
#
# 1 154.5697 45.4754 32.5533 0.0000 0.0000 0.0000
# 2 45.4754 154.5697 32.5533 0.0000 0.0000 0.0000
# 3 32.5533 32.5533 100.2109 0.0000 0.0000 0.0000
# 4 0.0000 0.0000 0.0000 19.3799 0.0000 0.0000
# 5 0.0000 0.0000 0.0000 0.0000 19.3799 0.0000
# 6 0.0000 0.0000 0.0000 0.0000 0.0000 54.5472
#
#
#
# Elastic Compliance Matrix: (Units=1/GPa)
#
#
# Indices 1 2 3 4 5 6 
#
# 1 0.007378 -0.001788 -0.001816 0.000000 0.000000 0.000000
# 2 -0.001788 0.007378 -0.001816 0.000000 0.000000 0.000000
# 3 -0.001816 -0.001816 0.011159 0.000000 0.000000 0.000000
# 4 0.000000 0.000000 0.000000 0.051600 0.000000 0.000000
# 5 0.000000 0.000000 0.000000 0.000000 0.051600 0.000000
# 6 0.000000 0.000000 0.000000 0.000000 0.000000 0.018333
#
#
# Mechanical properties :
#
#
# Convention : Reuss Voigt Hill
#
# Bulk Modulus (GPa) = 66.33496 70.05716 68.19606
# Shear Modulus (GPa) = 30.61619 38.57927 34.59773
#
# Velocity S-wave (km/s) = 3.37725 3.79110 3.59014
# Velocity P-wave (km/s) = 6.31826 6.72774 6.52621
#
# Compressibility (1/GPa) = 0.01507501
#
# Stress axis : x y z
#
# Youngs Moduli (GPa) = 135.53585 135.53585 89.61605
#
# Poissons Ratio (x) = 0.24237 0.16273
# Poissons Ratio (y) = 0.24237 0.16273
# Poissons Ratio (z) = 0.24611 0.24611
#
# Static dielectric constant tensor:
#      x y z
#    x 2.159260 0.000000 0.000000 
#    y 0.000000 2.159260 0.000000 
#    z 0.000000 0.000000 2.052070 
# 
# From -- ./inp_files/1611.got.cif
#   From: 2010.05.17/outbox.cif.g08.bks.cpg/sg169_cif.got.tgz:1611.got - 2010.05.20 11:12:54.
