data_PCOD9579656
_publ_section_title
;
Structure prediction by ZEFSAII (Michael W. Deem and Ramdas Pophale) SiO2 
 PCOD9579656
Probable space group: R -3 C 
;
_chemical_formula_sum "Si O2"
_cell_formula_units_Z 162
_cell_length_a 17.611353
_cell_length_b 17.611353
_cell_length_c 23.865457
_cell_angle_alpha 90.000000
_cell_angle_beta 90.000000
_cell_angle_gamma 120.000000
_cell_volume 6410.410351
_symmetry_space_group_name_H-M "R -3 C "
_symmetry_group_IT_number 167
_symmetry_cell_setting 'hexagonal'
loop_
_space_group_symop_operation_xyz
x,y,z
-y,x-y,z
-x+y,-x,z
x-y,-y,1/2-z
-x,-x+y,1/2-z
y,x,1/2-z
-x,-y,-z
y,-x+y,-z
x-y,x,-z
-x+y,y,1/2+z
x,x-y,1/2+z
-y,-x,1/2+z
2/3+x,1/3+y,1/3+z
2/3-y,1/3+x-y,1/3+z
2/3-x+y,1/3-x,1/3+z
2/3+x-y,1/3-y,5/6-z
2/3-x,1/3-x+y,5/6-z
2/3+y,1/3+x,5/6-z
2/3-x,1/3-y,1/3-z
2/3+y,1/3-x+y,1/3-z
2/3+x-y,1/3+x,1/3-z
2/3-x+y,1/3+y,5/6+z
2/3+x,1/3+x-y,5/6+z
2/3-y,1/3-x,5/6+z
1/3+x,2/3+y,2/3+z
1/3-y,2/3+x-y,2/3+z
1/3-x+y,2/3-x,2/3+z
1/3+x-y,2/3-y,1/6-z
1/3-x,2/3-x+y,1/6-z
1/3+y,2/3+x,1/6-z
1/3-x,2/3-y,2/3-z
1/3+y,2/3-x+y,2/3-z
1/3+x-y,2/3+x,2/3-z
1/3-x+y,2/3+y,1/6+z
1/3+x,2/3+x-y,1/6+z
1/3-y,2/3-x,1/6+z
loop_
_atom_site_type_symbol
_atom_site_label
_atom_site_fract_x
_atom_site_fract_y
_atom_site_fract_z
Si Si1 0.462299 0.631504 0.979398
Si Si2 0.958171 0.675656 0.849397
Si Si3 0.133261 0.978868 0.632642
Si Si4 0.470788 0.214733 0.312288
Si Si5 0.244253 0.910919 0.583334
O O1 0.476494 0.666667 0.916667
O O2 0.556067 0.648911 0.000423
O O3 0.378300 0.534094 0.981925
O O4 0.445517 0.699282 0.016508
O O5 0.965648 0.666667 0.916667
O O6 0.854573 0.628484 0.830350
O O7 0.986244 0.624162 0.804938
O O8 0.174964 0.054183 0.585588
O O9 0.157577 0.911429 0.603046
O O10 0.510343 0.316052 0.325308
#
# Coordination Sequence:
#
# PCOD9579656 Si02
#       5
#    36  36  36  36  18
#     4  12  26  47  73 110 153 199 257 315 400 476
#     4  11  24  43  69 104 146 195 252 322 379 458
#     4  11  25  45  73 105 151 206 247 326 391 472
#     4  11  23  42  70 107 146 195 256 318 386 459
#     4  10  26  48  70 108 150 202 272 312 398 466
#
# _framework density 25.271391999999999
#
# number of rings (size 3 to 8) (size 9 to 14) (size 15 to 20)
#    0.000    0.889    1.111    5.333    7.778    2.667 
#    0.000    0.000    0.000    0.000    0.000    0.000 
#    0.000    0.000    0.000    0.000    0.000    0.000 
#
# Total GULP energy -301163.422337 kJ/mol
# GULP energy per Si atom -5577.100414 kJ/mol
# Density = 2.521387 g / cm^3
# Si number density = 25.271392 Si / 1000 Ang^3
#
#
#
# Elastic Constant Matrix: (Units=GPa)
#
#
# Indices 1 2 3 4 5 6 
#
# 1 72.2720 -3.6929 3.9429 -3.4108 0.0002 0.0000
# 2 -3.6929 72.2720 3.9429 3.4108 -0.0002 0.0000
# 3 3.9429 3.9429 161.0920 0.0000 0.0000 0.0000
# 4 -3.4108 3.4108 0.0000 19.7854 0.0000 -0.0002
# 5 0.0002 -0.0002 0.0000 0.0000 19.7854 -3.4108
# 6 0.0000 0.0000 0.0000 -0.0002 -3.4108 37.9825
#
#
#
# Elastic Compliance Matrix: (Units=1/GPa)
#
#
# Indices 1 2 3 4 5 6 
#
# 1 0.013997 0.000626 -0.000358 0.002305 0.000000 0.000000
# 2 0.000626 0.013997 -0.000358 -0.002305 0.000000 0.000000
# 3 -0.000358 -0.000358 0.006225 0.000000 0.000000 0.000000
# 4 0.002305 -0.002305 0.000000 0.051337 0.000000 0.000000
# 5 0.000000 0.000000 0.000000 0.000000 0.051337 0.004610
# 6 0.000000 0.000000 0.000000 0.000000 0.004610 0.026742
#
#
# Mechanical properties :
#
#
# Convention : Reuss Voigt Hill
#
# Bulk Modulus (GPa) = 29.37786 34.89132 32.13459
# Shear Modulus (GPa) = 28.54512 35.60684 32.07598
#
# Velocity S-wave (km/s) = 3.36451 3.75771 3.56653
# Velocity P-wave (km/s) = 5.17141 5.71522 5.45010
#
# Compressibility (1/GPa) = 0.03403924
#
# Stress axis : x y z
#
# Youngs Moduli (GPa) = 71.44430 71.44430 160.63861
#
# Poissons Ratio (x) = -0.04472 0.05749
# Poissons Ratio (y) = -0.04472 0.05749
# Poissons Ratio (z) = 0.02557 0.02557
#
# Static dielectric constant tensor:
#      x y z
#    x 2.059680 0.000000 0.000000 
#    y 0.000000 2.059680 0.000000 
#    z 0.000000 0.000000 2.296800 
# 
# From -- ./inp_files/5278.got.cif
#   From: 2010.05.17/outbox.cif.g08.bks.cpg/sg167_3_cif.got.tgz:5278.got - 2010.05.20 11:09:15.
