data_PCOD9579221
_publ_section_title
;
Structure prediction by ZEFSAII (Michael W. Deem and Ramdas Pophale) SiO2 
 PCOD9579221
Probable space group: R -3 M
;
_chemical_formula_sum "Si O2"
_cell_formula_units_Z 108
_cell_length_a 16.911837
_cell_length_b 16.911837
_cell_length_c 18.422681
_cell_angle_alpha 90.000000
_cell_angle_beta 90.000000
_cell_angle_gamma 120.000000
_cell_volume 4563.153015
_symmetry_space_group_name_H-M "R -3 M"
_symmetry_group_IT_number 166
_symmetry_cell_setting 'hexagonal'
loop_
_space_group_symop_operation_xyz
x,y,z
-y,x-y,z
-x+y,-x,z
x-y,-y,-z
-x,-x+y,-z
y,x,-z
-x,-y,-z
y,-x+y,-z
x-y,x,-z
-x+y,y,z
x,x-y,z
-y,-x,z
2/3+x,1/3+y,1/3+z
2/3-y,1/3+x-y,1/3+z
2/3-x+y,1/3-x,1/3+z
2/3+x-y,1/3-y,1/3-z
2/3-x,1/3-x+y,1/3-z
2/3+y,1/3+x,1/3-z
2/3-x,1/3-y,1/3-z
2/3+y,1/3-x+y,1/3-z
2/3+x-y,1/3+x,1/3-z
2/3-x+y,1/3+y,1/3+z
2/3+x,1/3+x-y,1/3+z
2/3-y,1/3-x,1/3+z
1/3+x,2/3+y,2/3+z
1/3-y,2/3+x-y,2/3+z
1/3-x+y,2/3-x,2/3+z
1/3+x-y,2/3-y,2/3-z
1/3-x,2/3-x+y,2/3-z
1/3+y,2/3+x,2/3-z
1/3-x,2/3-y,2/3-z
1/3+y,2/3-x+y,2/3-z
1/3+x-y,2/3+x,2/3-z
1/3-x+y,2/3+y,2/3+z
1/3+x,2/3+x-y,2/3+z
1/3-y,2/3-x,2/3+z
loop_
_atom_site_type_symbol
_atom_site_label
_atom_site_fract_x
_atom_site_fract_y
_atom_site_fract_z
Si Si1 0.555238 0.931632 0.089025
Si Si2 0.614494 0.561891 0.604120
Si Si3 0.999610 0.827703 0.086931
O O1 0.453073 0.906145 0.069491
O O2 0.558525 0.891858 0.166667
O O3 0.617606 0.042160 0.092999
O O4 0.600390 0.901834 0.024456
O O5 0.543207 0.456794 0.587806
O O6 0.565796 0.617483 0.574412
O O7 0.102473 0.897528 0.110934
O O8 0.928588 0.857175 0.116097
O O9 0.000000 0.837214 0.000000
#
# Coordination Sequence:
#
# PCOD9579221 Si02
#       3
#    36  36  36
#     4  11  23  39  62  88 116 155 201 247 295 350
#     4  10  20  36  59  87 119 155 197 244 295 349
#     4   9  15  24  43  74 112 150 186 224 268 322
#
# _framework density 23.667843999999999
#
# number of rings (size 3 to 8) (size 9 to 14) (size 15 to 20)
#    0.000    2.000    3.333    3.333    0.000    3.333 
#    0.000    0.000    0.000   12.667    0.000    2.333 
#    0.000    0.000    0.000    0.000    0.000    0.000 
#
# Total GULP energy -200703.200113 kJ/mol
# GULP energy per Si atom -5575.088892 kJ/mol
# Density = 2.361398 g / cm^3
# Si number density = 23.667844 Si / 1000 Ang^3
#
#
#
# Elastic Constant Matrix: (Units=GPa)
#
#
# Indices 1 2 3 4 5 6 
#
# 1 81.8876 40.1626 29.3357 3.3946 -0.0003 0.0000
# 2 40.1626 81.8876 29.3357 -3.3946 0.0003 0.0000
# 3 29.3357 29.3357 105.7764 0.0000 0.0000 0.0000
# 4 3.3946 -3.3946 0.0000 9.4289 0.0000 0.0003
# 5 -0.0003 0.0003 0.0000 0.0000 9.4289 3.3946
# 6 0.0000 0.0000 0.0000 0.0003 3.3946 20.8625
#
#
#
# Elastic Compliance Matrix: (Units=1/GPa)
#
#
# Indices 1 2 3 4 5 6 
#
# 1 0.017456 -0.008002 -0.002622 -0.009165 0.000001 0.000000
# 2 -0.008002 0.017456 -0.002622 0.009165 -0.000001 0.000000
# 3 -0.002622 -0.002622 0.010908 0.000000 0.000000 0.000000
# 4 -0.009165 0.009165 0.000000 0.112656 0.000000 -0.000002
# 5 0.000001 -0.000001 0.000000 0.000000 0.112656 -0.018330
# 6 0.000000 0.000000 0.000000 -0.000002 -0.018330 0.050915
#
#
# Mechanical properties :
#
#
# Convention : Reuss Voigt Hill
#
# Bulk Modulus (GPa) = 51.73798 51.91330 51.82564
# Shear Modulus (GPa) = 14.08526 19.32525 16.70525
#
# Velocity S-wave (km/s) = 2.44216 2.86058 2.65961
# Velocity P-wave (km/s) = 5.46440 5.73518 5.60143
#
# Compressibility (1/GPa) = 0.01932816
#
# Stress axis : x y z
#
# Youngs Moduli (GPa) = 57.28782 57.28782 91.67430
#
# Poissons Ratio (x) = 0.45842 0.24036
# Poissons Ratio (y) = 0.45842 0.24036
# Poissons Ratio (z) = 0.15020 0.15020
#
# Static dielectric constant tensor:
#      x y z
#    x 1.943810 0.000000 0.000000 
#    y 0.000000 1.943810 0.000000 
#    z 0.000000 0.000000 2.005590 
# 
# From -- ./inp_files/6306.got.cif
#   From: 2010.05.17/outbox.cif.g08.bks.cpg/sg166_4_cif.got.tgz:6306.got - 2010.05.20 11:04:41.
