data_PCOD9579897
_publ_section_title
;
Structure prediction by ZEFSAII (Michael W. Deem and Ramdas Pophale) SiO2 
 PCOD9579897
Probable space group: P 61
;
_chemical_formula_sum "Si O2"
_cell_formula_units_Z 36
_cell_length_a 15.440501
_cell_length_b 15.440501
_cell_length_c 7.883283
_cell_angle_alpha 90.000000
_cell_angle_beta 90.000000
_cell_angle_gamma 120.000000
_cell_volume 1627.648135
_symmetry_space_group_name_H-M "P 61"
_symmetry_group_IT_number 169
_symmetry_cell_setting 'hexagonal'
loop_
_space_group_symop_operation_xyz
x,y,z
x-y,x,1/6+z
-y,x-y,1/3+z
-x,-y,1/2+z
-x+y,-x,2/3+z
y,-x+y,5/6+z
loop_
_atom_site_type_symbol
_atom_site_label
_atom_site_fract_x
_atom_site_fract_y
_atom_site_fract_z
Si Si1 0.808812 0.003525 0.440100
Si Si2 0.644285 0.012488 0.941027
Si Si3 0.473431 0.013966 0.095198
Si Si4 0.143947 0.724866 0.697702
Si Si5 0.775885 0.585546 0.179378
Si Si6 0.579969 0.730217 0.674676
O O1 0.773717 0.073581 0.544332
O O2 0.914277 0.090212 0.356302
O O3 0.700933 0.935953 0.342378
O O4 0.572138 0.985629 0.777377
O O5 0.743675 0.113045 0.910376
O O6 0.580417 0.022826 0.092152
O O7 0.664050 0.922843 0.969315
O O8 0.388407 0.910405 0.014875
O O9 0.472516 0.095480 0.970601
O O10 0.184168 0.714784 0.515226
O O11 0.226832 0.802707 0.826844
O O12 0.772199 0.536841 0.998052
#
# Coordination Sequence:
#
# PCOD9579897 Si02
#       6
#     6   6   6   6   6   6
#     4   9  19  35  50  79 118 163 208 261 321 370
#     4  11  24  42  68 100 133 172 234 271 337 405
#     4  10  21  40  70  92 130 173 217 276 337 400
#     4  10  20  38  64  85 124 164 215 264 329 386
#     4  11  24  39  63  98 124 171 222 266 322 405
#     4   9  20  40  59  88 119 165 212 270 316 396
#
# _framework density 22.117802000000001
#
# number of rings (size 3 to 8) (size 9 to 14) (size 15 to 20)
#    0.000    2.000    1.667    1.000   11.667    0.000 
#    3.000    0.000   11.000    0.000    0.000    0.000 
#    0.000    0.000    0.000    0.000    0.000    0.000 
#
# Total GULP energy -200434.408849 kJ/mol
# GULP energy per Si atom -5567.622468 kJ/mol
# Density = 2.206746 g / cm^3
# Si number density = 22.117802 Si / 1000 Ang^3
#
#
#
# Elastic Constant Matrix: (Units=GPa)
#
#
# Indices 1 2 3 4 5 6 
#
# 1 75.0164 56.0252 8.2195 0.0000 0.0000 0.0000
# 2 56.0252 75.0164 8.2195 0.0000 0.0000 0.0000
# 3 8.2195 8.2195 103.3192 0.0000 0.0000 0.0000
# 4 0.0000 0.0000 0.0000 30.0728 0.0000 0.0000
# 5 0.0000 0.0000 0.0000 0.0000 30.0728 0.0000
# 6 0.0000 0.0000 0.0000 0.0000 0.0000 9.4956
#
#
#
# Elastic Compliance Matrix: (Units=1/GPa)
#
#
# Indices 1 2 3 4 5 6 
#
# 1 0.030182 -0.022474 -0.000613 0.000000 0.000000 0.000000
# 2 -0.022474 0.030182 -0.000613 0.000000 0.000000 0.000000
# 3 -0.000613 -0.000613 0.009776 0.000000 0.000000 0.000000
# 4 0.000000 0.000000 0.000000 0.033253 0.000000 0.000000
# 5 0.000000 0.000000 0.000000 0.000000 0.033253 0.000000
# 6 0.000000 0.000000 0.000000 0.000000 0.000000 0.105312
#
#
# Mechanical properties :
#
#
# Convention : Reuss Voigt Hill
#
# Bulk Modulus (GPa) = 43.97605 44.25336 44.11470
# Shear Modulus (GPa) = 16.83849 25.98741 21.41295
#
# Velocity S-wave (km/s) = 2.76218 3.43148 3.11486
# Velocity P-wave (km/s) = 5.48622 5.97926 5.73804
#
# Compressibility (1/GPa) = 0.02273965
#
# Stress axis : x y z
#
# Youngs Moduli (GPa) = 33.13224 33.13224 102.28812
#
# Poissons Ratio (x) = 0.74461 0.06272
# Poissons Ratio (y) = 0.74461 0.06272
# Poissons Ratio (z) = 0.02032 0.02032
#
# Static dielectric constant tensor:
#      x y z
#    x 1.819670 0.000000 0.000000 
#    y 0.000000 1.819670 0.000000 
#    z 0.000000 0.000000 1.921680 
# 
# From -- ./inp_files/614.got.cif
#   From: 2010.05.17/outbox.cif.g08.bks.cpg/sg169_cif.got.tgz:614.got - 2010.05.20 11:12:54.
