data_PCOD9579627
_publ_section_title
;
Structure prediction by ZEFSAII (Michael W. Deem and Ramdas Pophale) SiO2 
 PCOD9579627
Probable space group: R -3 C 
;
_chemical_formula_sum "Si O2"
_cell_formula_units_Z 84
_cell_length_a 17.517867
_cell_length_b 17.517867
_cell_length_c 13.420454
_cell_angle_alpha 90.000000
_cell_angle_beta 90.000000
_cell_angle_gamma 120.000000
_cell_volume 3566.648320
_symmetry_space_group_name_H-M "R -3 C "
_symmetry_group_IT_number 167
_symmetry_cell_setting 'hexagonal'
loop_
_space_group_symop_operation_xyz
x,y,z
-y,x-y,z
-x+y,-x,z
x-y,-y,1/2-z
-x,-x+y,1/2-z
y,x,1/2-z
-x,-y,-z
y,-x+y,-z
x-y,x,-z
-x+y,y,1/2+z
x,x-y,1/2+z
-y,-x,1/2+z
2/3+x,1/3+y,1/3+z
2/3-y,1/3+x-y,1/3+z
2/3-x+y,1/3-x,1/3+z
2/3+x-y,1/3-y,5/6-z
2/3-x,1/3-x+y,5/6-z
2/3+y,1/3+x,5/6-z
2/3-x,1/3-y,1/3-z
2/3+y,1/3-x+y,1/3-z
2/3+x-y,1/3+x,1/3-z
2/3-x+y,1/3+y,5/6+z
2/3+x,1/3+x-y,5/6+z
2/3-y,1/3-x,5/6+z
1/3+x,2/3+y,2/3+z
1/3-y,2/3+x-y,2/3+z
1/3-x+y,2/3-x,2/3+z
1/3+x-y,2/3-y,1/6-z
1/3-x,2/3-x+y,1/6-z
1/3+y,2/3+x,1/6-z
1/3-x,2/3-y,2/3-z
1/3+y,2/3-x+y,2/3-z
1/3+x-y,2/3+x,2/3-z
1/3-x+y,2/3+y,1/6+z
1/3+x,2/3+x-y,1/6+z
1/3-y,2/3-x,1/6+z
loop_
_atom_site_type_symbol
_atom_site_label
_atom_site_fract_x
_atom_site_fract_y
_atom_site_fract_z
Si Si1 0.809141 0.333334 0.583334
Si Si2 0.000000 0.000000 0.384747
Si Si3 0.000000 0.600595 0.750000
Si Si4 0.790519 0.670401 0.529705
O O1 0.748147 0.325885 0.675507
O O2 0.823720 0.251355 0.571693
O O3 0.000000 0.000000 0.500000
O O4 0.915361 0.613762 0.738238
O O5 0.030256 0.557079 0.662420
O O6 0.754020 0.666667 0.416667
#
# Coordination Sequence:
#
# PCOD9579627 Si02
#       4
#    18  12  18  36
#     4   9  20  44  66 101 138 180 244 295 366 436
#     4  10  23  43  67  98 139 190 233 304 358 443
#     4   9  20  42  64  99 138 182 240 291 368 434
#     4   9  20  41  65  99 137 183 235 300 360 443
#
# _framework density 23.551521000000001
#
# number of rings (size 3 to 8) (size 9 to 14) (size 15 to 20)
#    1.286    1.714    0.000    0.000    0.000    3.429 
#   23.143    4.286    0.000    0.857    0.000    0.000 
#    0.000    0.000    0.000    0.000    0.000    0.000 
#
# Total GULP energy -156033.124267 kJ/mol
# GULP energy per Si atom -5572.611581 kJ/mol
# Density = 2.349792 g / cm^3
# Si number density = 23.551521 Si / 1000 Ang^3
#
#
#
# Elastic Constant Matrix: (Units=GPa)
#
#
# Indices 1 2 3 4 5 6 
#
# 1 127.1818 106.5204 30.2703 -11.3609 0.0010 0.0000
# 2 106.5204 127.1818 30.2703 11.3609 -0.0010 0.0000
# 3 30.2703 30.2703 92.1660 0.0000 0.0000 0.0000
# 4 -11.3609 11.3609 0.0000 -71.5944 0.0000 -0.0010
# 5 0.0010 -0.0010 0.0000 0.0000 -71.5944 -11.3609
# 6 0.0000 0.0000 0.0000 -0.0010 -11.3609 10.3307
#
#
#
# Elastic Compliance Matrix: (Units=1/GPa)
#
#
# Indices 1 2 3 4 5 6 
#
# 1 0.022943 -0.018266 -0.001536 -0.006539 0.000001 0.000000
# 2 -0.018266 0.022943 -0.001536 0.006539 -0.000001 0.000000
# 3 -0.001536 -0.001536 0.011859 0.000000 0.000000 0.000000
# 4 -0.006539 0.006539 0.000000 -0.011892 0.000000 -0.000001
# 5 0.000001 -0.000001 0.000000 0.000000 -0.011892 -0.013078
# 6 0.000000 0.000000 0.000000 -0.000001 -0.013078 0.082417
#
#
# Mechanical properties :
#
#
# Convention : Reuss Voigt Hill
#
# Bulk Modulus (GPa) = 66.36339 75.62793 70.99566
# Shear Modulus (GPa) = 30.47399 -14.60702 7.93348
#
# Velocity S-wave (km/s) = 3.60102 -2.49311 1.83736
# Velocity P-wave (km/s) = 6.74752 4.88814 5.89164
#
# Compressibility (1/GPa) = 0.01506855
#
# Stress axis : x y z
#
# Youngs Moduli (GPa) = 43.58712 43.58712 84.32450
#
# Poissons Ratio (x) = 0.79615 0.12952
# Poissons Ratio (y) = 0.79615 0.12952
# Poissons Ratio (z) = 0.06695 0.06695
#
# Static dielectric constant tensor:
#      x y z
#    x 1.861610 0.000000 0.000000 
#    y 0.000000 1.861610 0.000000 
#    z 0.000000 0.000000 1.966990 
# 
# From -- ./inp_files/1908.got.cif
#   From: 2010.05.17/outbox.cif.g08.bks.cpg/sg167_1_cif.got.tgz:1908.got - 2010.05.20 11:09:15.
