data_PCOD9579387
_publ_section_title
;
Structure prediction by ZEFSAII (Michael W. Deem and Ramdas Pophale) SiO2 
 PCOD9579387
Probable space group: R -3 C 
;
_chemical_formula_sum "Si O2"
_cell_formula_units_Z 162
_cell_length_a 17.051719
_cell_length_b 17.051719
_cell_length_c 24.724653
_cell_angle_alpha 90.000000
_cell_angle_beta 90.000000
_cell_angle_gamma 120.000000
_cell_volume 6225.828758
_symmetry_space_group_name_H-M "R -3 C "
_symmetry_group_IT_number 167
_symmetry_cell_setting 'hexagonal'
loop_
_space_group_symop_operation_xyz
x,y,z
-y,x-y,z
-x+y,-x,z
x-y,-y,1/2-z
-x,-x+y,1/2-z
y,x,1/2-z
-x,-y,-z
y,-x+y,-z
x-y,x,-z
-x+y,y,1/2+z
x,x-y,1/2+z
-y,-x,1/2+z
2/3+x,1/3+y,1/3+z
2/3-y,1/3+x-y,1/3+z
2/3-x+y,1/3-x,1/3+z
2/3+x-y,1/3-y,5/6-z
2/3-x,1/3-x+y,5/6-z
2/3+y,1/3+x,5/6-z
2/3-x,1/3-y,1/3-z
2/3+y,1/3-x+y,1/3-z
2/3+x-y,1/3+x,1/3-z
2/3-x+y,1/3+y,5/6+z
2/3+x,1/3+x-y,5/6+z
2/3-y,1/3-x,5/6+z
1/3+x,2/3+y,2/3+z
1/3-y,2/3+x-y,2/3+z
1/3-x+y,2/3-x,2/3+z
1/3+x-y,2/3-y,1/6-z
1/3-x,2/3-x+y,1/6-z
1/3+y,2/3+x,1/6-z
1/3-x,2/3-y,2/3-z
1/3+y,2/3-x+y,2/3-z
1/3+x-y,2/3+x,2/3-z
1/3-x+y,2/3+y,1/6+z
1/3+x,2/3+x-y,1/6+z
1/3-y,2/3-x,1/6+z
loop_
_atom_site_type_symbol
_atom_site_label
_atom_site_fract_x
_atom_site_fract_y
_atom_site_fract_z
Si Si1 0.000000 0.896232 0.250000
Si Si2 0.605303 0.153757 0.470887
Si Si3 0.932786 0.410551 0.328921
Si Si4 0.217411 0.707664 0.586275
Si Si5 0.339028 0.244054 0.060379
O O1 0.019946 0.857597 0.303511
O O2 0.918353 0.918353 0.250000
O O3 0.677850 0.239962 0.434053
O O4 0.515226 0.161893 0.464587
O O5 0.587607 0.062224 0.443581
O O6 0.829045 0.154792 0.304362
O O7 0.838610 0.363829 0.364691
O O8 0.944265 0.326999 0.311453
O O9 0.216188 0.794745 0.608941
O O10 0.422642 0.333334 0.083334
#
# Coordination Sequence:
#
# PCOD9579387 Si02
#       5
#    18  36  36  36  36
#     4  10  16  24  36  62  94 122 136 156 194 262
#     4  10  16  23  39  61  91 119 139 164 207 266
#     4   8  16  25  42  65  84 104 143 183 219 261
#     4   9  14  22  33  61  88 112 131 168 215 256
#     4   9  17  29  46  66  85 114 143 183 222 252
#
# _framework density 26.020633
#
# number of rings (size 3 to 8) (size 9 to 14) (size 15 to 20)
#    0.222    2.667    2.222    1.778    0.000    0.889 
#    0.000    0.000    2.444    1.333    0.000    4.667 
#    0.000    0.000    0.000    0.000    0.000    0.000 
#
# Total GULP energy -300770.591747 kJ/mol
# GULP energy per Si atom -5569.825773 kJ/mol
# Density = 2.596141 g / cm^3
# Si number density = 26.020633 Si / 1000 Ang^3
#
#
#
# Elastic Constant Matrix: (Units=GPa)
#
#
# Indices 1 2 3 4 5 6 
#
# 1 49.2281 64.5624 28.8929 -7.0467 0.0007 0.0000
# 2 64.5624 49.2281 28.8929 7.0467 -0.0007 0.0000
# 3 28.8929 28.8929 126.9374 0.0000 0.0000 0.0000
# 4 -7.0467 7.0467 0.0000 10.7147 0.0000 -0.0007
# 5 0.0007 -0.0007 0.0000 0.0000 10.7147 -7.0467
# 6 0.0000 0.0000 0.0000 -0.0007 -7.0467 -7.6672
#
#
#
# Elastic Compliance Matrix: (Units=1/GPa)
#
#
# Indices 1 2 3 4 5 6 
#
# 1 -0.015354 0.025291 -0.002262 -0.026731 0.000003 0.000000
# 2 0.025291 -0.015354 -0.002262 0.026731 -0.000003 0.000000
# 3 -0.002262 -0.002262 0.008908 0.000000 0.000000 0.000000
# 4 -0.026731 0.026731 0.000000 0.058169 0.000000 -0.000005
# 5 0.000003 -0.000003 0.000000 0.000000 0.058169 -0.053462
# 6 0.000000 0.000000 0.000000 -0.000005 -0.053462 -0.081291
#
#
# Mechanical properties :
#
#
# Convention : Reuss Voigt Hill
#
# Bulk Modulus (GPa) = 50.67432 52.23224 51.45328
# Shear Modulus (GPa) = -230.30799 9.62215 -110.34292
#
# Velocity S-wave (km/s) = -9.41817 1.92508 -6.51905
# Velocity P-wave (km/s) = 9.93742 5.00582 6.07018
#
# Compressibility (1/GPa) = 0.01973386
#
# Stress axis : x y z
#
# Youngs Moduli (GPa) = -65.12821 -65.12821 112.26484
#
# Poissons Ratio (x) = 1.64716 0.25391
# Poissons Ratio (y) = 1.64716 0.25391
# Poissons Ratio (z) = -0.14730 -0.14730
#
# Static dielectric constant tensor:
#      x y z
#    x 2.107320 0.000000 0.000000 
#    y 0.000000 2.107320 0.000000 
#    z 0.000000 0.000000 2.094560 
# 
# From -- ./inp_files/6344.got.cif
#   From: 2010.05.17/outbox.cif.g08.bks.cpg/sg167_4_cif.got.tgz:6344.got - 2010.05.20 11:09:15.
