data_PCOD9579677
_publ_section_title
;
Structure prediction by ZEFSAII (Michael W. Deem and Ramdas Pophale) SiO2 
 PCOD9579677
Probable space group: R -3 C 
;
_chemical_formula_sum "Si O2"
_cell_formula_units_Z 168
_cell_length_a 16.706721
_cell_length_b 16.706721
_cell_length_c 27.798998
_cell_angle_alpha 90.000000
_cell_angle_beta 90.000000
_cell_angle_gamma 120.000000
_cell_volume 6719.581318
_symmetry_space_group_name_H-M "R -3 C "
_symmetry_group_IT_number 167
_symmetry_cell_setting 'hexagonal'
loop_
_space_group_symop_operation_xyz
x,y,z
-y,x-y,z
-x+y,-x,z
x-y,-y,1/2-z
-x,-x+y,1/2-z
y,x,1/2-z
-x,-y,-z
y,-x+y,-z
x-y,x,-z
-x+y,y,1/2+z
x,x-y,1/2+z
-y,-x,1/2+z
2/3+x,1/3+y,1/3+z
2/3-y,1/3+x-y,1/3+z
2/3-x+y,1/3-x,1/3+z
2/3+x-y,1/3-y,5/6-z
2/3-x,1/3-x+y,5/6-z
2/3+y,1/3+x,5/6-z
2/3-x,1/3-y,1/3-z
2/3+y,1/3-x+y,1/3-z
2/3+x-y,1/3+x,1/3-z
2/3-x+y,1/3+y,5/6+z
2/3+x,1/3+x-y,5/6+z
2/3-y,1/3-x,5/6+z
1/3+x,2/3+y,2/3+z
1/3-y,2/3+x-y,2/3+z
1/3-x+y,2/3-x,2/3+z
1/3+x-y,2/3-y,1/6-z
1/3-x,2/3-x+y,1/6-z
1/3+y,2/3+x,1/6-z
1/3-x,2/3-y,2/3-z
1/3+y,2/3-x+y,2/3-z
1/3+x-y,2/3+x,2/3-z
1/3-x+y,2/3+y,1/6+z
1/3+x,2/3+x-y,1/6+z
1/3-y,2/3-x,1/6+z
loop_
_atom_site_type_symbol
_atom_site_label
_atom_site_fract_x
_atom_site_fract_y
_atom_site_fract_z
Si Si1 0.333334 0.666667 0.602456
Si Si2 0.849844 0.666667 0.916667
Si Si3 0.333334 0.666667 0.985562
Si Si4 0.452431 0.235083 0.655703
Si Si5 0.200132 0.000000 0.250000
Si Si6 0.180967 0.274512 0.184218
Si Si7 0.379600 0.867341 0.097782
O O1 0.333334 0.666667 0.543666
O O2 0.402707 0.771806 0.616544
O O3 0.823241 0.710983 0.872700
O O4 0.860734 0.580367 0.901002
O O5 0.226667 0.617379 0.970206
O O6 0.401413 0.142757 0.623861
O O7 0.430273 0.315790 0.643512
O O8 0.454670 0.208095 0.710424
O O9 0.134917 0.918086 0.210633
O O10 0.223889 0.375747 0.205544
#
# Coordination Sequence:
#
# PCOD9579677 Si02
#       7
#    12  18  12  36  18  36  36
#     4   9  21  51  80 110 142 215 286 313 392 496
#     4  12  26  52  65 119 162 210 270 344 422 461
#     4   9  15  34  73 112 146 191 247 322 377 484
#     4  11  22  44  76 120 157 209 267 329 420 502
#     4  12  24  44  79 123 156 214 262 338 440 499
#     4  12  28  46  79 118 166 212 269 357 402 500
#     4  11  26  48  83 111 159 215 273 341 408 506
#
# _framework density 25.001556000000001
#
# number of rings (size 3 to 8) (size 9 to 14) (size 15 to 20)
#    0.000    0.857    4.286    3.214    3.000    6.000 
#    0.000    2.143    0.000    0.000    0.000    0.000 
#    0.000    0.000    0.000    0.000    0.000    0.000 
#
# Total GULP energy -312348.194212 kJ/mol
# GULP energy per Si atom -5577.646325 kJ/mol
# Density = 2.494465 g / cm^3
# Si number density = 25.001556 Si / 1000 Ang^3
#
#
#
# Elastic Constant Matrix: (Units=GPa)
#
#
# Indices 1 2 3 4 5 6 
#
# 1 145.8492 34.7708 18.5398 18.7122 0.0001 0.0000
# 2 34.7708 145.8521 18.5412 -18.7125 -0.0001 0.0000
# 3 18.5398 18.5412 119.7113 -0.0004 0.0000 0.0000
# 4 18.7122 -18.7125 -0.0004 43.6149 0.0000 -0.0001
# 5 0.0001 -0.0001 0.0000 0.0000 43.6182 18.7159
# 6 0.0000 0.0000 0.0000 -0.0001 18.7159 55.5425
#
#
#
# Elastic Compliance Matrix: (Units=1/GPa)
#
#
# Indices 1 2 3 4 5 6 
#
# 1 0.008121 -0.002403 -0.000886 -0.004515 0.000000 0.000000
# 2 -0.002403 0.008121 -0.000886 0.004515 0.000000 0.000000
# 3 -0.000886 -0.000886 0.008628 0.000000 0.000000 0.000000
# 4 -0.004515 0.004515 0.000000 0.026802 0.000000 0.000000
# 5 0.000000 0.000000 0.000000 0.000000 0.026801 -0.009031
# 6 0.000000 0.000000 0.000000 0.000000 -0.009031 0.021047
#
#
# Mechanical properties :
#
#
# Convention : Reuss Voigt Hill
#
# Bulk Modulus (GPa) = 60.52622 61.67959 61.10290
# Shear Modulus (GPa) = 44.10112 51.19253 47.64682
#
# Velocity S-wave (km/s) = 4.20448 4.52992 4.37023
# Velocity P-wave (km/s) = 6.91605 7.21693 7.06809
#
# Compressibility (1/GPa) = 0.01652177
#
# Stress axis : x y z
#
# Youngs Moduli (GPa) = 123.13666 123.13870 115.90505
#
# Poissons Ratio (x) = 0.29587 0.10264
# Poissons Ratio (y) = 0.29586 0.10265
# Poissons Ratio (z) = 0.10905 0.10906
#
# Static dielectric constant tensor:
#      x y z
#    x 2.054330 0.000000 0.000000 
#    y 0.000000 2.054330 0.000000 
#    z 0.000000 0.000000 1.967450 
# 
# From -- ./inp_files/7004.got.cif
#   From: 2010.05.17/outbox.cif.g08.bks.cpg/sg167_4_cif.got.tgz:7004.got - 2010.05.20 11:09:15.
