data_PCOD9579443
_publ_section_title
;
Structure prediction by ZEFSAII (Michael W. Deem and Ramdas Pophale) SiO2 
 PCOD9579443
Probable space group: R -3 C 
;
_chemical_formula_sum "Si O2"
_cell_formula_units_Z 144
_cell_length_a 21.319787
_cell_length_b 21.319787
_cell_length_c 20.322769
_cell_angle_alpha 90.000000
_cell_angle_beta 90.000000
_cell_angle_gamma 120.000000
_cell_volume 7999.801950
_symmetry_space_group_name_H-M "R -3 C "
_symmetry_group_IT_number 167
_symmetry_cell_setting 'hexagonal'
loop_
_space_group_symop_operation_xyz
x,y,z
-y,x-y,z
-x+y,-x,z
x-y,-y,1/2-z
-x,-x+y,1/2-z
y,x,1/2-z
-x,-y,-z
y,-x+y,-z
x-y,x,-z
-x+y,y,1/2+z
x,x-y,1/2+z
-y,-x,1/2+z
2/3+x,1/3+y,1/3+z
2/3-y,1/3+x-y,1/3+z
2/3-x+y,1/3-x,1/3+z
2/3+x-y,1/3-y,5/6-z
2/3-x,1/3-x+y,5/6-z
2/3+y,1/3+x,5/6-z
2/3-x,1/3-y,1/3-z
2/3+y,1/3-x+y,1/3-z
2/3+x-y,1/3+x,1/3-z
2/3-x+y,1/3+y,5/6+z
2/3+x,1/3+x-y,5/6+z
2/3-y,1/3-x,5/6+z
1/3+x,2/3+y,2/3+z
1/3-y,2/3+x-y,2/3+z
1/3-x+y,2/3-x,2/3+z
1/3+x-y,2/3-y,1/6-z
1/3-x,2/3-x+y,1/6-z
1/3+y,2/3+x,1/6-z
1/3-x,2/3-y,2/3-z
1/3+y,2/3-x+y,2/3-z
1/3+x-y,2/3+x,2/3-z
1/3-x+y,2/3+y,1/6+z
1/3+x,2/3+x-y,1/6+z
1/3-y,2/3-x,1/6+z
loop_
_atom_site_type_symbol
_atom_site_label
_atom_site_fract_x
_atom_site_fract_y
_atom_site_fract_z
Si Si1 0.470185 0.084402 0.766548
Si Si2 0.748704 0.609333 0.099393
Si Si3 0.587222 0.048431 0.809760
Si Si4 0.713028 0.124786 0.147227
O O1 0.545356 0.089020 0.784097
O O2 0.436881 0.105580 0.827314
O O3 0.466836 0.127786 0.703165
O O4 0.416411 0.000000 0.750000
O O5 0.666667 0.550808 0.083334
O O6 0.797825 0.577639 0.125909
O O7 0.749641 0.665642 0.153197
O O8 0.785841 0.659737 0.035248
O O9 0.587637 0.000000 0.750000
O O10 0.666667 0.086155 0.083334
#
# Coordination Sequence:
#
# PCOD9579443 Si02
#       4
#    36  36  36  36
#     4  10  21  34  52  81 109 141 178 217 275 324
#     4  10  22  34  52  82 109 145 183 218 277 328
#     4  10  20  33  52  78 108 140 177 220 268 323
#     4  10  19  35  54  76 113 145 178 227 268 322
#
# _framework density 18.000444999999999
#
# number of rings (size 3 to 8) (size 9 to 14) (size 15 to 20)
#    0.000    2.000    0.000    6.000    0.000   12.000 
#    0.000    0.000    0.000    1.000    0.000    7.000 
#    0.000    0.000    0.000    0.000    0.000    0.000 
#
# Total GULP energy -268134.000277 kJ/mol
# GULP energy per Si atom -5586.125006 kJ/mol
# Density = 1.795948 g / cm^3
# Si number density = 18.000445 Si / 1000 Ang^3
#
#
#
# Elastic Constant Matrix: (Units=GPa)
#
#
# Indices 1 2 3 4 5 6 
#
# 1 77.5353 45.4009 37.6439 4.3628 -0.0008 0.0000
# 2 45.4009 77.5353 37.6439 -4.3628 0.0008 0.0000
# 3 37.6439 37.6439 114.7727 0.0000 0.0000 0.0000
# 4 4.3628 -4.3628 0.0000 30.5014 0.0000 0.0008
# 5 -0.0008 0.0008 0.0000 0.0000 30.5014 4.3628
# 6 0.0000 0.0000 0.0000 0.0008 4.3628 16.0672
#
#
#
# Elastic Compliance Matrix: (Units=1/GPa)
#
#
# Indices 1 2 3 4 5 6 
#
# 1 0.021278 -0.011099 -0.003339 -0.004631 0.000001 0.000000
# 2 -0.011099 0.021278 -0.003339 0.004631 -0.000001 0.000000
# 3 -0.003339 -0.003339 0.010903 0.000000 0.000000 0.000000
# 4 -0.004631 0.004631 0.000000 0.034110 0.000000 -0.000002
# 5 0.000001 -0.000001 0.000000 0.000000 0.034110 -0.009262
# 6 0.000000 0.000000 0.000000 -0.000002 -0.009262 0.064754
#
#
# Mechanical properties :
#
#
# Convention : Reuss Voigt Hill
#
# Bulk Modulus (GPa) = 55.84576 56.80231 56.32404
# Shear Modulus (GPa) = 21.93430 25.35763 23.64596
#
# Velocity S-wave (km/s) = 3.49455 3.75737 3.62834
# Velocity P-wave (km/s) = 6.88291 7.10270 6.99367
#
# Compressibility (1/GPa) = 0.01790646
#
# Stress axis : x y z
#
# Youngs Moduli (GPa) = 46.99724 46.99724 91.71909
#
# Poissons Ratio (x) = 0.52162 0.30621
# Poissons Ratio (y) = 0.52162 0.30621
# Poissons Ratio (z) = 0.15690 0.15690
#
# Static dielectric constant tensor:
#      x y z
#    x 1.609790 0.000000 0.000000 
#    y 0.000000 1.609790 0.000000 
#    z 0.000000 0.000000 1.660750 
# 
# From -- ./inp_files/4302.got.cif
#   From: 2010.05.17/outbox.cif.g08.bks.cpg/sg167_3_cif.got.tgz:4302.got - 2010.05.20 11:09:15.
