data_PCOD9579679
_publ_section_title
;
Structure prediction by ZEFSAII (Michael W. Deem and Ramdas Pophale) SiO2 
 PCOD9579679
Probable space group: R -3 C 
;
_chemical_formula_sum "Si O2"
_cell_formula_units_Z 168
_cell_length_a 17.688557
_cell_length_b 17.688557
_cell_length_c 31.099235
_cell_angle_alpha 90.000000
_cell_angle_beta 90.000000
_cell_angle_gamma 120.000000
_cell_volume 8426.847772
_symmetry_space_group_name_H-M "R -3 C "
_symmetry_group_IT_number 167
_symmetry_cell_setting 'hexagonal'
loop_
_space_group_symop_operation_xyz
x,y,z
-y,x-y,z
-x+y,-x,z
x-y,-y,1/2-z
-x,-x+y,1/2-z
y,x,1/2-z
-x,-y,-z
y,-x+y,-z
x-y,x,-z
-x+y,y,1/2+z
x,x-y,1/2+z
-y,-x,1/2+z
2/3+x,1/3+y,1/3+z
2/3-y,1/3+x-y,1/3+z
2/3-x+y,1/3-x,1/3+z
2/3+x-y,1/3-y,5/6-z
2/3-x,1/3-x+y,5/6-z
2/3+y,1/3+x,5/6-z
2/3-x,1/3-y,1/3-z
2/3+y,1/3-x+y,1/3-z
2/3+x-y,1/3+x,1/3-z
2/3-x+y,1/3+y,5/6+z
2/3+x,1/3+x-y,5/6+z
2/3-y,1/3-x,5/6+z
1/3+x,2/3+y,2/3+z
1/3-y,2/3+x-y,2/3+z
1/3-x+y,2/3-x,2/3+z
1/3+x-y,2/3-y,1/6-z
1/3-x,2/3-x+y,1/6-z
1/3+y,2/3+x,1/6-z
1/3-x,2/3-y,2/3-z
1/3+y,2/3-x+y,2/3-z
1/3+x-y,2/3+x,2/3-z
1/3-x+y,2/3+y,1/6+z
1/3+x,2/3+x-y,1/6+z
1/3-y,2/3-x,1/6+z
loop_
_atom_site_type_symbol
_atom_site_label
_atom_site_fract_x
_atom_site_fract_y
_atom_site_fract_z
Si Si1 0.417611 0.836678 0.639228
Si Si2 0.974641 0.818797 0.295787
Si Si3 0.352910 0.239043 0.043747
Si Si4 0.591872 0.574695 0.978668
Si Si5 0.000000 0.000000 0.084710
Si Si6 0.000000 0.000000 0.813229
O O1 0.475248 0.814438 0.670069
O O2 0.388278 0.766196 0.600267
O O3 0.461503 0.939121 0.633933
O O4 0.871131 0.774899 0.294568
O O5 0.000000 0.794834 0.250000
O O6 0.006909 0.785185 0.335739
O O7 0.015988 0.922592 0.298153
O O8 0.367529 0.320884 0.014402
O O9 0.329568 0.242079 0.093953
O O10 0.500000 0.500000 0.000000
O O11 0.000000 0.000000 0.135391
#
# Coordination Sequence:
#
# PCOD9579679 Si02
#       6
#    36  36  36  36  12  12
#     4   9  18  36  62  90 121 160 207 260 328 377
#     4  12  24  41  64  90 124 169 208 262 320 378
#     4  11  23  39  65  89 127 165 211 264 315 390
#     4  11  23  41  62  89 124 168 210 256 326 376
#     4   9  19  38  64  90 124 164 202 276 316 380
#     4  12  25  38  64  93 124 158 229 258 313 401
#
# _framework density 19.93628
#
# number of rings (size 3 to 8) (size 9 to 14) (size 15 to 20)
#    0.000    1.286    2.143    5.357    3.000    0.000 
#    0.000    0.000    4.714    0.000    0.000    0.000 
#    0.000    0.000    0.000    0.000    0.000    0.000 
#
# Total GULP energy -311971.105182 kJ/mol
# GULP energy per Si atom -5570.912593 kJ/mol
# Density = 1.989090 g / cm^3
# Si number density = 19.936280 Si / 1000 Ang^3
#
#
#
# Elastic Constant Matrix: (Units=GPa)
#
#
# Indices 1 2 3 4 5 6 
#
# 1 60.7678 11.5891 12.2591 5.8622 0.0000 0.0000
# 2 11.5891 60.7678 12.2591 -5.8622 0.0000 0.0000
# 3 12.2591 12.2591 81.8547 0.0000 0.0000 0.0000
# 4 5.8622 -5.8622 0.0000 9.6120 0.0000 0.0000
# 5 0.0000 0.0000 0.0000 0.0000 9.6120 5.8622
# 6 0.0000 0.0000 0.0000 0.0000 5.8622 24.5894
#
#
#
# Elastic Compliance Matrix: (Units=1/GPa)
#
#
# Indices 1 2 3 4 5 6 
#
# 1 0.019176 -0.004617 -0.002180 -0.014511 0.000000 0.000000
# 2 -0.004617 0.019176 -0.002180 0.014511 0.000000 0.000000
# 3 -0.002180 -0.002180 0.012870 0.000000 0.000000 0.000000
# 4 -0.014511 0.014511 0.000000 0.121736 0.000000 0.000000
# 5 0.000000 0.000000 0.000000 0.000000 0.121736 -0.029022
# 6 0.000000 0.000000 0.000000 0.000000 -0.029022 0.047587
#
#
# Mechanical properties :
#
#
# Convention : Reuss Voigt Hill
#
# Bulk Modulus (GPa) = 30.06031 30.62275 30.34153
# Shear Modulus (GPa) = 13.46520 19.91488 16.69004
#
# Velocity S-wave (km/s) = 2.60169 3.16401 2.89653
# Velocity P-wave (km/s) = 4.91284 5.36112 5.14187
#
# Compressibility (1/GPa) = 0.03326645
#
# Stress axis : x y z
#
# Youngs Moduli (GPa) = 52.14749 52.14749 77.70066
#
# Poissons Ratio (x) = 0.24077 0.16943
# Poissons Ratio (y) = 0.24077 0.16943
# Poissons Ratio (z) = 0.11371 0.11371
#
# Static dielectric constant tensor:
#      x y z
#    x 1.755820 0.000000 0.000000 
#    y 0.000000 1.755820 0.000000 
#    z 0.000000 0.000000 1.705910 
# 
# From -- ./inp_files/6992.got.cif
#   From: 2010.05.17/outbox.cif.g08.bks.cpg/sg167_4_cif.got.tgz:6992.got - 2010.05.20 11:09:15.
