data_PCOD9579226
_publ_section_title
;
Structure prediction by ZEFSAII (Michael W. Deem and Ramdas Pophale) SiO2 
 PCOD9579226
Probable space group: R -3 M
;
_chemical_formula_sum "Si O2"
_cell_formula_units_Z 126
_cell_length_a 31.257487
_cell_length_b 31.257487
_cell_length_c 8.337212
_cell_angle_alpha 90.000000
_cell_angle_beta 90.000000
_cell_angle_gamma 120.000000
_cell_volume 7054.392100
_symmetry_space_group_name_H-M "R -3 M"
_symmetry_group_IT_number 166
_symmetry_cell_setting 'hexagonal'
loop_
_space_group_symop_operation_xyz
x,y,z
-y,x-y,z
-x+y,-x,z
x-y,-y,-z
-x,-x+y,-z
y,x,-z
-x,-y,-z
y,-x+y,-z
x-y,x,-z
-x+y,y,z
x,x-y,z
-y,-x,z
2/3+x,1/3+y,1/3+z
2/3-y,1/3+x-y,1/3+z
2/3-x+y,1/3-x,1/3+z
2/3+x-y,1/3-y,1/3-z
2/3-x,1/3-x+y,1/3-z
2/3+y,1/3+x,1/3-z
2/3-x,1/3-y,1/3-z
2/3+y,1/3-x+y,1/3-z
2/3+x-y,1/3+x,1/3-z
2/3-x+y,1/3+y,1/3+z
2/3+x,1/3+x-y,1/3+z
2/3-y,1/3-x,1/3+z
1/3+x,2/3+y,2/3+z
1/3-y,2/3+x-y,2/3+z
1/3-x+y,2/3-x,2/3+z
1/3+x-y,2/3-y,2/3-z
1/3-x,2/3-x+y,2/3-z
1/3+y,2/3+x,2/3-z
1/3-x,2/3-y,2/3-z
1/3+y,2/3-x+y,2/3-z
1/3+x-y,2/3+x,2/3-z
1/3-x+y,2/3+y,2/3+z
1/3+x,2/3+x-y,2/3+z
1/3-y,2/3-x,2/3+z
loop_
_atom_site_type_symbol
_atom_site_label
_atom_site_fract_x
_atom_site_fract_y
_atom_site_fract_z
Si Si1 0.973600 0.486800 0.244125
Si Si2 0.545134 0.090268 0.800695
Si Si3 0.000000 0.182146 0.000000
Si Si4 0.612574 0.534772 0.046887
Si Si5 0.771093 0.542185 0.215478
Si Si6 0.310469 0.333334 0.333334
O O1 0.959003 0.437398 0.144080
O O2 0.933076 0.466538 0.387512
O O3 0.032607 0.516304 0.257385
O O4 0.561331 0.122661 0.642127
O O5 0.507173 0.098731 0.909871
O O6 0.049311 0.182155 0.950361
O O7 0.983253 0.200512 0.843580
O O8 0.636130 0.589455 0.980830
O O9 0.339015 0.339015 0.500000
#
# Coordination Sequence:
#
# PCOD9579226 Si02
#       6
#    18  18  18  36  18  18
#     4   9  17  37  57  79 110 152 199 245 300 354
#     4  11  19  35  61  87 107 149 201 242 303 346
#     4  10  23  40  58  85 117 154 193 249 306 364
#     4  10  20  37  55  76 114 150 201 250 289 356
#     4  10  23  36  60  89 113 153 198 251 305 366
#     4  12  25  37  50  76 117 168 203 252 304 347
#
# _framework density 17.861214
#
# number of rings (size 3 to 8) (size 9 to 14) (size 15 to 20)
#    0.000    1.714    2.857    3.000    4.000    0.000 
#    0.000    0.000    0.000    0.286    0.000    0.000 
#    0.000    2.286    0.000    0.000    0.000    0.000 
#
# Total GULP energy -234236.899127 kJ/mol
# GULP energy per Si atom -5577.069027 kJ/mol
# Density = 1.782056 g / cm^3
# Si number density = 17.861214 Si / 1000 Ang^3
#
#
#
# Elastic Constant Matrix: (Units=GPa)
#
#
# Indices 1 2 3 4 5 6 
#
# 1 70.2334 43.4992 37.5941 9.2135 0.1042 -0.0322
# 2 43.4992 70.2670 37.4579 -9.1800 -0.0337 0.0387
# 3 37.5941 37.4579 127.2762 0.0255 0.3399 -0.0920
# 4 9.2135 -9.1800 0.0255 16.5995 0.0198 0.0014
# 5 0.1042 -0.0337 0.3399 0.0198 16.8288 9.1826
# 6 -0.0322 0.0387 -0.0920 0.0014 9.1826 13.3828
#
#
#
# Elastic Compliance Matrix: (Units=1/GPa)
#
#
# Indices 1 2 3 4 5 6 
#
# 1 0.035696 -0.024738 -0.003255 -0.033489 -0.000385 0.000403
# 2 -0.024738 0.035610 -0.003182 0.033429 0.000562 -0.000574
# 3 -0.003255 -0.003182 0.009756 0.000033 -0.000353 0.000310
# 4 -0.033489 0.033429 0.000033 0.097317 0.000417 -0.000473
# 5 -0.000385 0.000562 -0.000353 0.000417 0.095004 -0.065192
# 6 0.000403 -0.000574 0.000310 -0.000473 -0.065192 0.119460
#
#
# Mechanical properties :
#
#
# Convention : Reuss Voigt Hill
#
# Bulk Modulus (GPa) = 53.44224 56.09766 54.76995
# Shear Modulus (GPa) = 10.83585 19.31057 15.07321
#
# Velocity S-wave (km/s) = 2.46574 3.29165 2.90816
# Velocity P-wave (km/s) = 6.17189 6.77660 6.48130
#
# Compressibility (1/GPa) = 0.01871179
#
# Stress axis : x y z
#
# Youngs Moduli (GPa) = 28.01400 28.08212 102.50153
#
# Poissons Ratio (x) = 0.69471 0.33366
# Poissons Ratio (y) = 0.69302 0.32612
# Poissons Ratio (z) = 0.09119 0.08935
#
# Static dielectric constant tensor:
#      x y z
#    x 1.610580 0.000000 -0.000100 
#    y 0.000000 1.610600 0.000020 
#    z -0.000100 0.000020 1.663870 
# 
# From -- ./inp_files/1730.got.cif
#   From: 2010.05.17/outbox.cif.g08.bks.cpg/sg166_1_cif.got.tgz:1730.got - 2010.05.20 11:04:41.
