data_PCOD9579737
_publ_section_title
;
Structure prediction by ZEFSAII (Michael W. Deem and Ramdas Pophale) SiO2 
 PCOD9579737
Probable space group: R -3 C 
;
_chemical_formula_sum "Si O2"
_cell_formula_units_Z 72
_cell_length_a 13.446607
_cell_length_b 13.446607
_cell_length_c 17.384573
_cell_angle_alpha 90.000000
_cell_angle_beta 90.000000
_cell_angle_gamma 120.000000
_cell_volume 2722.200340
_symmetry_space_group_name_H-M "R -3 C "
_symmetry_group_IT_number 167
_symmetry_cell_setting 'hexagonal'
loop_
_space_group_symop_operation_xyz
x,y,z
-y,x-y,z
-x+y,-x,z
x-y,-y,1/2-z
-x,-x+y,1/2-z
y,x,1/2-z
-x,-y,-z
y,-x+y,-z
x-y,x,-z
-x+y,y,1/2+z
x,x-y,1/2+z
-y,-x,1/2+z
2/3+x,1/3+y,1/3+z
2/3-y,1/3+x-y,1/3+z
2/3-x+y,1/3-x,1/3+z
2/3+x-y,1/3-y,5/6-z
2/3-x,1/3-x+y,5/6-z
2/3+y,1/3+x,5/6-z
2/3-x,1/3-y,1/3-z
2/3+y,1/3-x+y,1/3-z
2/3+x-y,1/3+x,1/3-z
2/3-x+y,1/3+y,5/6+z
2/3+x,1/3+x-y,5/6+z
2/3-y,1/3-x,5/6+z
1/3+x,2/3+y,2/3+z
1/3-y,2/3+x-y,2/3+z
1/3-x+y,2/3-x,2/3+z
1/3+x-y,2/3-y,1/6-z
1/3-x,2/3-x+y,1/6-z
1/3+y,2/3+x,1/6-z
1/3-x,2/3-y,2/3-z
1/3+y,2/3-x+y,2/3-z
1/3+x-y,2/3+x,2/3-z
1/3-x+y,2/3+y,1/6+z
1/3+x,2/3+x-y,1/6+z
1/3-y,2/3-x,1/6+z
loop_
_atom_site_type_symbol
_atom_site_label
_atom_site_fract_x
_atom_site_fract_y
_atom_site_fract_z
Si Si1 0.113234 0.908064 0.805052
Si Si2 0.502404 0.376730 0.783123
O O1 0.166667 0.833334 0.833334
O O2 0.000000 0.846710 0.750000
O O3 0.208839 0.000000 0.750000
O O4 0.119255 0.982463 0.879296
O O5 0.414396 0.414396 0.750000
O O6 0.611910 0.489531 0.817838
#
# Coordination Sequence:
#
# PCOD9579737 Si02
#       2
#    36  36
#     4  12  27  50  82 120 160 212 271 336 407 486
#     4  12  28  54  85 122 167 220 277 344 416 496
#
# _framework density 26.449190000000002
#
# number of rings (size 3 to 8) (size 9 to 14) (size 15 to 20)
#    0.000    0.000    0.000    8.500    0.000    6.000 
#    0.000   10.000    0.000    0.000    0.000    0.000 
#    0.000    0.000    0.000    0.000    0.000    0.000 
#
# Total GULP energy -134278.235103 kJ/mol
# GULP energy per Si atom -5594.926463 kJ/mol
# Density = 2.638899 g / cm^3
# Si number density = 26.449190 Si / 1000 Ang^3
#
#
#
# Elastic Constant Matrix: (Units=GPa)
#
#
# Indices 1 2 3 4 5 6 
#
# 1 195.9537 106.3864 110.1399 -5.1491 0.0000 0.0000
# 2 106.3864 195.9537 110.1399 5.1491 0.0000 0.0000
# 3 110.1399 110.1399 205.3370 0.0000 0.0000 0.0000
# 4 -5.1491 5.1491 0.0000 69.2920 0.0000 0.0000
# 5 0.0000 0.0000 0.0000 0.0000 69.2920 -5.1491
# 6 0.0000 0.0000 0.0000 0.0000 -5.1491 44.7837
#
#
#
# Elastic Compliance Matrix: (Units=1/GPa)
#
#
# Indices 1 2 3 4 5 6 
#
# 1 0.008345 -0.002916 -0.002912 0.000837 0.000000 0.000000
# 2 -0.002916 0.008345 -0.002912 -0.000837 0.000000 0.000000
# 3 -0.002912 -0.002912 0.007994 0.000000 0.000000 0.000000
# 4 0.000837 -0.000837 0.000000 0.014556 0.000000 0.000000
# 5 0.000000 0.000000 0.000000 0.000000 0.014556 0.001674
# 6 0.000000 0.000000 0.000000 0.000000 0.001674 0.022522
#
#
# Mechanical properties :
#
#
# Convention : Reuss Voigt Hill
#
# Bulk Modulus (GPa) = 138.81223 138.95299 138.88261
# Shear Modulus (GPa) = 51.97482 54.71210 53.34346
#
# Velocity S-wave (km/s) = 4.43773 4.55309 4.49578
# Velocity P-wave (km/s) = 8.88001 8.96051 8.92035
#
# Compressibility (1/GPa) = 0.00720398
#
# Stress axis : x y z
#
# Youngs Moduli (GPa) = 119.82994 119.82994 125.09091
#
# Poissons Ratio (x) = 0.34940 0.36429
# Poissons Ratio (y) = 0.34940 0.36429
# Poissons Ratio (z) = 0.34897 0.34897
#
# Static dielectric constant tensor:
#      x y z
#    x 1.946440 0.000000 0.000000 
#    y 0.000000 1.946440 0.000000 
#    z 0.000000 0.000000 2.113870 
# 
# From -- ./inp_files/2736.got.cif
#   From: 2010.05.17/outbox.cif.g08.bks.cpg/sg167_2_cif.got.tgz:2736.got - 2010.05.20 11:09:15.
