data_PCOD9579904
_publ_section_title
;
Structure prediction by ZEFSAII (Michael W. Deem and Ramdas Pophale) SiO2 
 PCOD9579904
Probable space group: P 61
;
_chemical_formula_sum "Si O2"
_cell_formula_units_Z 48
_cell_length_a 14.686482
_cell_length_b 14.686482
_cell_length_c 10.494151
_cell_angle_alpha 90.000000
_cell_angle_beta 90.000000
_cell_angle_gamma 120.000000
_cell_volume 1960.259175
_symmetry_space_group_name_H-M "P 61"
_symmetry_group_IT_number 169
_symmetry_cell_setting 'hexagonal'
loop_
_space_group_symop_operation_xyz
x,y,z
x-y,x,1/6+z
-y,x-y,1/3+z
-x,-y,1/2+z
-x+y,-x,2/3+z
y,-x+y,5/6+z
loop_
_atom_site_type_symbol
_atom_site_label
_atom_site_fract_x
_atom_site_fract_y
_atom_site_fract_z
Si Si1 0.352490 0.592910 0.203960
Si Si2 0.876019 0.594658 0.664348
Si Si3 0.452341 0.084223 0.590228
Si Si4 0.151882 0.849349 0.570959
Si Si5 0.239863 0.540505 0.629903
Si Si6 0.152318 0.971892 0.920393
Si Si7 0.305668 0.959661 0.366645
Si Si8 0.557049 0.495359 0.904380
O O1 0.242921 0.487594 0.196150
O O2 0.339516 0.696049 0.211154
O O3 0.409146 0.575745 0.323493
O O4 0.418285 0.613768 0.076324
O O5 0.873696 0.640474 0.522427
O O6 0.924606 0.694370 0.757298
O O7 0.935518 0.527658 0.667894
O O8 0.382589 0.114038 0.684163
O O9 0.520053 0.187898 0.509390
O O10 0.378827 0.992206 0.493255
O O11 0.520679 0.043069 0.660430
O O12 0.198393 0.924730 0.446246
O O13 0.056382 0.853717 0.637801
O O14 0.143234 0.422418 0.616971
O O15 0.037665 0.881351 0.877027
O O16 0.394604 0.052404 0.278912
#
# Coordination Sequence:
#
# PCOD9579904 Si02
#       8
#     6   6   6   6   6   6   6   6
#     4  12  24  41  61  92 135 175 217 272 330 407
#     4  11  22  41  66  96 130 171 223 283 330 405
#     4  11  20  36  58  88 115 166 218 268 315 380
#     4  10  20  40  65  91 122 163 226 284 324 394
#     4  11  24  39  59  88 127 172 221 266 327 396
#     4  10  21  41  71 100 122 162 223 280 343 401
#     4  11  23  37  61  91 127 169 224 275 330 399
#     4  12  22  39  61  94 126 174 222 264 335 394
#
# _framework density 24.486560000000001
#
# number of rings (size 3 to 8) (size 9 to 14) (size 15 to 20)
#    0.000    1.000    5.000    3.000    1.750    0.000 
#    4.500    1.250    0.000    0.000    0.000    0.000 
#    0.000    0.000    0.000    0.000    0.000    0.000 
#
# Total GULP energy -267528.624818 kJ/mol
# GULP energy per Si atom -5573.513017 kJ/mol
# Density = 2.443083 g / cm^3
# Si number density = 24.486560 Si / 1000 Ang^3
#
#
#
# Elastic Constant Matrix: (Units=GPa)
#
#
# Indices 1 2 3 4 5 6 
#
# 1 66.6159 5.8109 1.5396 0.0000 0.0000 0.0000
# 2 5.8109 66.6159 1.5396 0.0000 0.0000 0.0000
# 3 1.5396 1.5396 15.3915 0.0000 0.0000 0.0000
# 4 0.0000 0.0000 0.0000 32.7861 0.0000 0.0000
# 5 0.0000 0.0000 0.0000 0.0000 32.7861 0.0000
# 6 0.0000 0.0000 0.0000 0.0000 0.0000 30.4025
#
#
#
# Elastic Compliance Matrix: (Units=1/GPa)
#
#
# Indices 1 2 3 4 5 6 
#
# 1 0.015156 -0.001290 -0.001387 0.000000 0.000000 0.000000
# 2 -0.001290 0.015156 -0.001387 0.000000 0.000000 0.000000
# 3 -0.001387 -0.001387 0.065248 0.000000 0.000000 0.000000
# 4 0.000000 0.000000 0.000000 0.030501 0.000000 0.000000
# 5 0.000000 0.000000 0.000000 0.000000 0.030501 0.000000
# 6 0.000000 0.000000 0.000000 0.000000 0.000000 0.032892
#
#
# Mechanical properties :
#
#
# Convention : Reuss Voigt Hill
#
# Bulk Modulus (GPa) = 11.43742 18.48928 14.96335
# Shear Modulus (GPa) = 22.05304 28.51049 25.28177
#
# Velocity S-wave (km/s) = 3.00429 3.41593 3.21670
# Velocity P-wave (km/s) = 4.08844 4.80888 4.46322
#
# Compressibility (1/GPa) = 0.08743231
#
# Stress axis : x y z
#
# Youngs Moduli (GPa) = 65.98037 65.98037 15.32605
#
# Poissons Ratio (x) = 0.08511 0.02126
# Poissons Ratio (y) = 0.08511 0.02126
# Poissons Ratio (z) = 0.09152 0.09152
#
# Static dielectric constant tensor:
#      x y z
#    x 2.004580 0.000000 0.000000 
#    y 0.000000 2.004580 0.000000 
#    z 0.000000 0.000000 2.072890 
# 
# From -- ./inp_files/1062.got.cif
#   From: 2010.05.17/outbox.cif.g08.bks.cpg/sg169_cif.got.tgz:1062.got - 2010.05.20 11:12:54.
