data_PCOD9579238
_publ_section_title
;
Structure prediction by ZEFSAII (Michael W. Deem and Ramdas Pophale) SiO2 
 PCOD9579238
Probable space group: R -3 M
;
_chemical_formula_sum "Si O2"
_cell_formula_units_Z 162
_cell_length_a 21.241595
_cell_length_b 21.241595
_cell_length_c 23.037016
_cell_angle_alpha 90.000000
_cell_angle_beta 90.000000
_cell_angle_gamma 120.000000
_cell_volume 9001.836155
_symmetry_space_group_name_H-M "R -3 M"
_symmetry_group_IT_number 166
_symmetry_cell_setting 'hexagonal'
loop_
_space_group_symop_operation_xyz
x,y,z
-y,x-y,z
-x+y,-x,z
x-y,-y,-z
-x,-x+y,-z
y,x,-z
-x,-y,-z
y,-x+y,-z
x-y,x,-z
-x+y,y,z
x,x-y,z
-y,-x,z
2/3+x,1/3+y,1/3+z
2/3-y,1/3+x-y,1/3+z
2/3-x+y,1/3-x,1/3+z
2/3+x-y,1/3-y,1/3-z
2/3-x,1/3-x+y,1/3-z
2/3+y,1/3+x,1/3-z
2/3-x,1/3-y,1/3-z
2/3+y,1/3-x+y,1/3-z
2/3+x-y,1/3+x,1/3-z
2/3-x+y,1/3+y,1/3+z
2/3+x,1/3+x-y,1/3+z
2/3-y,1/3-x,1/3+z
1/3+x,2/3+y,2/3+z
1/3-y,2/3+x-y,2/3+z
1/3-x+y,2/3-x,2/3+z
1/3+x-y,2/3-y,2/3-z
1/3-x,2/3-x+y,2/3-z
1/3+y,2/3+x,2/3-z
1/3-x,2/3-y,2/3-z
1/3+y,2/3-x+y,2/3-z
1/3+x-y,2/3+x,2/3-z
1/3-x+y,2/3+y,2/3+z
1/3+x,2/3+x-y,2/3+z
1/3-y,2/3-x,2/3+z
loop_
_atom_site_type_symbol
_atom_site_label
_atom_site_fract_x
_atom_site_fract_y
_atom_site_fract_z
Si Si1 0.516844 0.183556 0.668570
Si Si2 0.585850 0.665932 0.766597
Si Si3 0.719385 0.132306 0.888536
Si Si4 0.333334 0.816587 0.666667
Si Si5 0.587194 0.868934 0.894221
O O1 0.599801 0.199601 0.667925
O O2 0.514271 0.257136 0.671103
O O3 0.478992 0.132849 0.724241
O O4 0.479018 0.137374 0.610828
O O5 0.590340 0.593067 0.761653
O O6 0.528209 0.665851 0.722608
O O7 0.569066 0.676703 0.833029
O O8 0.666097 0.734109 0.754388
O O9 0.791153 0.208848 0.875183
O O10 0.666667 0.102857 0.833334
O O11 0.405100 0.810200 0.665914
O O12 0.590055 0.795028 0.885911
#
# Coordination Sequence:
#
# PCOD9579238 Si02
#       5
#    36  36  36  18  36
#     4  10  22  39  60  86 119 160 203 246 294 351
#     4  11  21  40  61  88 117 156 192 242 301 354
#     4  11  22  39  60  88 121 155 197 245 298 355
#     4  12  25  40  60  86 119 158 200 242 288 346
#     4  10  20  38  62  89 120 153 196 241 296 361
#
# _framework density 17.996327999999998
#
# number of rings (size 3 to 8) (size 9 to 14) (size 15 to 20)
#    0.000    1.333    2.222    5.667    0.000    3.556 
#    0.000    1.111    0.000    6.222    0.000    0.000 
#    0.000    0.000    0.000    0.000    0.000    0.000 
#
# Total GULP energy -301883.533016 kJ/mol
# GULP energy per Si atom -5590.435797 kJ/mol
# Density = 1.795537 g / cm^3
# Si number density = 17.996328 Si / 1000 Ang^3
#
#
#
# Elastic Constant Matrix: (Units=GPa)
#
#
# Indices 1 2 3 4 5 6 
#
# 1 132.5301 77.7205 88.3564 1.0680 -0.0008 0.0000
# 2 77.7205 132.5301 88.3564 -1.0680 0.0008 0.0000
# 3 88.3564 88.3564 108.7078 0.0000 0.0000 0.0000
# 4 1.0680 -1.0680 0.0000 20.6277 0.0000 0.0008
# 5 -0.0008 0.0008 0.0000 0.0000 20.6277 1.0680
# 6 0.0000 0.0000 0.0000 0.0008 1.0680 27.4048
#
#
#
# Elastic Compliance Matrix: (Units=1/GPa)
#
#
# Indices 1 2 3 4 5 6 
#
# 1 0.016646 -0.001636 -0.012200 -0.000947 0.000001 0.000000
# 2 -0.001636 0.016646 -0.012200 0.000947 -0.000001 0.000000
# 3 -0.012200 -0.012200 0.029031 0.000000 0.000000 0.000000
# 4 -0.000947 0.000947 0.000000 0.048576 0.000000 -0.000001
# 5 0.000001 -0.000001 0.000000 0.000000 0.048576 -0.001893
# 6 0.000000 0.000000 0.000000 -0.000001 -0.001893 0.036564
#
#
# Mechanical properties :
#
#
# Convention : Reuss Voigt Hill
#
# Bulk Modulus (GPa) = 97.55004 98.07050 97.81027
# Shear Modulus (GPa) = 19.87835 21.68769 20.78302
#
# Velocity S-wave (km/s) = 3.32712 3.47525 3.40199
# Velocity P-wave (km/s) = 8.31161 8.40929 8.36059
#
# Compressibility (1/GPa) = 0.01025115
#
# Stress axis : x y z
#
# Youngs Moduli (GPa) = 60.07404 60.07404 34.44546
#
# Poissons Ratio (x) = 0.09827 0.42024
# Poissons Ratio (y) = 0.09827 0.42024
# Poissons Ratio (z) = 0.73292 0.73292
#
# Static dielectric constant tensor:
#      x y z
#    x 1.588360 0.000000 0.000000 
#    y 0.000000 1.588360 0.000000 
#    z 0.000000 0.000000 1.599860 
# 
# From -- ./inp_files/6735.got.cif
#   From: 2010.05.17/outbox.cif.g08.bks.cpg/sg166_4_cif.got.tgz:6735.got - 2010.05.20 11:04:41.
