data_PCOD9579375
_publ_section_title
;
Structure prediction by ZEFSAII (Michael W. Deem and Ramdas Pophale) SiO2 
 PCOD9579375
Probable space group: R -3 M
;
_chemical_formula_sum "Si O2"
_cell_formula_units_Z 90
_cell_length_a 30.000000
_cell_length_b 30.000000
_cell_length_c 18.000000
_cell_angle_alpha 90.000000
_cell_angle_beta 90.000000
_cell_angle_gamma 120.000000
_cell_volume 14029.611541
_symmetry_space_group_name_H-M "R -3 M"
_symmetry_group_IT_number 166
_symmetry_cell_setting 'hexagonal'
loop_
_space_group_symop_operation_xyz
x,y,z
-y,x-y,z
-x+y,-x,z
x-y,-y,-z
-x,-x+y,-z
y,x,-z
-x,-y,-z
y,-x+y,-z
x-y,x,-z
-x+y,y,z
x,x-y,z
-y,-x,z
2/3+x,1/3+y,1/3+z
2/3-y,1/3+x-y,1/3+z
2/3-x+y,1/3-x,1/3+z
2/3+x-y,1/3-y,1/3-z
2/3-x,1/3-x+y,1/3-z
2/3+y,1/3+x,1/3-z
2/3-x,1/3-y,1/3-z
2/3+y,1/3-x+y,1/3-z
2/3+x-y,1/3+x,1/3-z
2/3-x+y,1/3+y,1/3+z
2/3+x,1/3+x-y,1/3+z
2/3-y,1/3-x,1/3+z
1/3+x,2/3+y,2/3+z
1/3-y,2/3+x-y,2/3+z
1/3-x+y,2/3-x,2/3+z
1/3+x-y,2/3-y,2/3-z
1/3-x,2/3-x+y,2/3-z
1/3+y,2/3+x,2/3-z
1/3-x,2/3-y,2/3-z
1/3+y,2/3-x+y,2/3-z
1/3+x-y,2/3+x,2/3-z
1/3-x+y,2/3+y,2/3+z
1/3+x,2/3+x-y,2/3+z
1/3-y,2/3-x,2/3+z
loop_
_atom_site_type_symbol
_atom_site_label
_atom_site_fract_x
_atom_site_fract_y
_atom_site_fract_z
Si Si1 0.152682 0.408806 0.679667
Si Si2 0.387820 0.884299 0.320870
Si Si3 0.996285 0.606203 0.915962
Si Si4 0.160118 0.130746 0.759689
Si Si5 0.923382 0.648268 0.080835
Si Si6 0.931292 0.515055 0.175839
Si Si7 0.889151 0.555818 0.833334
Si Si8 0.310694 0.793559 0.747993
O O1 0.196826 0.393651 0.690905
O O2 0.097544 0.362051 0.697190
O O3 0.155689 0.423376 0.592601
O O4 0.167209 0.456356 0.734025
O O5 0.445182 0.890364 0.319627
O O6 0.348075 0.831866 0.366547
O O7 0.389009 0.930823 0.373325
O O8 0.367238 0.881559 0.234034
O O9 0.938440 0.573995 0.887079
O O10 0.026394 0.668326 0.921089
O O11 0.027217 0.597525 0.850411
O O12 0.000000 0.588881 0.000000
O O13 0.146481 0.073241 0.735826
O O14 0.220467 0.161709 0.780670
O O15 0.137352 0.128471 0.842622
O O16 0.920357 0.666667 0.166667
O O17 0.954280 0.477140 0.176131
O O18 0.261338 0.738662 0.758568
O O19 0.333334 0.792768 0.666667
#
# Coordination Sequence:
#
# PCOD9579375 Si02
#       8
#    36  36  36  36  36  36  18  36
#     4  10  22  37  58  89 128 174 224 271 321 385
#     4  12  27  49  74 103 137 180 236 295 354 418
#     4  12  24  41  60  93 132 177 226 275 334 397
#     4  11  22  42  68  98 130 166 222 285 349 417
#     4  12  24  39  63  95 138 186 226 283 334 401
#     4  10  21  39  62  89 122 165 220 276 329 393
#     4  12  26  46  70  98 142 186 236 280 342 402
#     4  11  21  36  61  94 135 182 227 276 338 416
#
# _framework density 6.4150029999999996
#
# number of rings (size 3 to 8) (size 9 to 14) (size 15 to 20)
#    0.000    0.800    4.667    2.800    0.000    5.067 
#    0.000    0.000    0.000    5.067    0.000    0.467 
#    0.000    0.000    0.000    0.000    0.000    0.000 
#
# Total GULP energy -501519.934568 kJ/mol
# GULP energy per Si atom -5572.443717 kJ/mol
# Density = 0.640040 g / cm^3
# Si number density = 6.415003 Si / 1000 Ang^3
#
#
#
# Elastic Constant Matrix: (Units=GPa)
#
#
# Indices 1 2 3 4 5 6 
#
# 1 12.2004 117.3827 28.1717 15.6914 0.0002 0.0000
# 2 117.3827 12.2004 28.1717 -15.6914 -0.0002 0.0000
# 3 28.1717 28.1717 120.9601 0.0000 0.0000 0.0000
# 4 15.6914 -15.6914 0.0000 32.6006 0.0000 -0.0002
# 5 0.0002 -0.0002 0.0000 0.0000 32.6006 15.6914
# 6 0.0000 0.0000 0.0000 -0.0002 15.6914 -52.5912
#
#
#
# Elastic Compliance Matrix: (Units=1/GPa)
#
#
# Indices 1 2 3 4 5 6 
#
# 1 0.000137 0.008450 -0.002000 0.004001 0.000000 0.000000
# 2 0.008450 0.000137 -0.002000 -0.004001 0.000000 0.000000
# 3 -0.002000 -0.002000 0.009199 0.000000 0.000000 0.000000
# 4 0.004001 -0.004001 0.000000 0.026822 0.000000 0.000000
# 5 0.000000 0.000000 0.000000 0.000000 0.026822 0.008003
# 6 0.000000 0.000000 0.000000 0.000000 0.008003 -0.016627
#
#
# Mechanical properties :
#
#
# Convention : Reuss Voigt Hill
#
# Bulk Modulus (GPa) = 54.42888 54.75700 54.59294
# Shear Modulus (GPa) = 114.38170 0.63097 57.50634
#
# Velocity S-wave (km/s) = 7.71774 0.57321 5.47230
# Velocity P-wave (km/s) = 10.38082 5.38075 8.26783
#
# Compressibility (1/GPa) = 0.01837260
#
# Stress axis : x y z
#
# Youngs Moduli (GPa) = 7321.12599 7321.10528 108.71090
#
# Poissons Ratio (x) = -61.86335 0.21740
# Poissons Ratio (y) = -61.86353 0.21740
# Poissons Ratio (z) = 14.64096 14.64093
#
# Static dielectric constant tensor:
#      x y z
#    x 1.720230 0.000000 0.000000 
#    y 0.000000 1.720230 0.000000 
#    z 0.000000 0.000000 1.674380 
# 
# From -- ./inp_files/5925.got.cif
#   From: 2010.05.17/outbox.ucp.g08.bks.cvg/sg166_3_cif.got.tgz:5925.got - 2010.06.11 15:16:39.
