data_PCOD9579735
_publ_section_title
;
Structure prediction by ZEFSAII (Michael W. Deem and Ramdas Pophale) SiO2 
 PCOD9579735
Probable space group: R -3 C 
;
_chemical_formula_sum "Si O2"
_cell_formula_units_Z 54
_cell_length_a 18.569885
_cell_length_b 18.569885
_cell_length_c 7.734949
_cell_angle_alpha 90.000000
_cell_angle_beta 90.000000
_cell_angle_gamma 120.000000
_cell_volume 2309.970931
_symmetry_space_group_name_H-M "R -3 C "
_symmetry_group_IT_number 167
_symmetry_cell_setting 'hexagonal'
loop_
_space_group_symop_operation_xyz
x,y,z
-y,x-y,z
-x+y,-x,z
x-y,-y,1/2-z
-x,-x+y,1/2-z
y,x,1/2-z
-x,-y,-z
y,-x+y,-z
x-y,x,-z
-x+y,y,1/2+z
x,x-y,1/2+z
-y,-x,1/2+z
2/3+x,1/3+y,1/3+z
2/3-y,1/3+x-y,1/3+z
2/3-x+y,1/3-x,1/3+z
2/3+x-y,1/3-y,5/6-z
2/3-x,1/3-x+y,5/6-z
2/3+y,1/3+x,5/6-z
2/3-x,1/3-y,1/3-z
2/3+y,1/3-x+y,1/3-z
2/3+x-y,1/3+x,1/3-z
2/3-x+y,1/3+y,5/6+z
2/3+x,1/3+x-y,5/6+z
2/3-y,1/3-x,5/6+z
1/3+x,2/3+y,2/3+z
1/3-y,2/3+x-y,2/3+z
1/3-x+y,2/3-x,2/3+z
1/3+x-y,2/3-y,1/6-z
1/3-x,2/3-x+y,1/6-z
1/3+y,2/3+x,1/6-z
1/3-x,2/3-y,2/3-z
1/3+y,2/3-x+y,2/3-z
1/3+x-y,2/3+x,2/3-z
1/3-x+y,2/3+y,1/6+z
1/3+x,2/3+x-y,1/6+z
1/3-y,2/3-x,1/6+z
loop_
_atom_site_type_symbol
_atom_site_label
_atom_site_fract_x
_atom_site_fract_y
_atom_site_fract_z
Si Si1 0.934470 0.177351 0.387360
Si Si2 0.165417 0.498750 0.416667
O O1 0.854250 0.187583 0.416667
O O2 0.973779 0.194601 0.576128
O O3 0.911045 0.086293 0.315410
O O4 0.000000 0.241351 0.250000
#
# Coordination Sequence:
#
# PCOD9579735 Si02
#       2
#    36  18
#     4  12  28  47  78 112 155 203 255 316 382 455
#     4  12  26  50  70 114 150 198 260 304 388 448
#
# _framework density 23.376916000000001
#
# number of rings (size 3 to 8) (size 9 to 14) (size 15 to 20)
#    0.000    0.000    6.667    2.000    4.667    0.000 
#    2.000    3.333    0.000    0.000    0.000    0.000 
#    0.000    0.000    0.000    0.000    0.000    0.000 
#
# Total GULP energy -100346.170857 kJ/mol
# GULP energy per Si atom -5574.787270 kJ/mol
# Density = 2.332371 g / cm^3
# Si number density = 23.376916 Si / 1000 Ang^3
#
#
#
# Elastic Constant Matrix: (Units=GPa)
#
#
# Indices 1 2 3 4 5 6 
#
# 1 92.0530 53.2024 35.9095 -0.4405 -0.0122 0.0043
# 2 53.2024 92.0581 35.9242 0.4479 0.0070 -0.0010
# 3 35.9095 35.9242 237.4097 0.0180 -0.0095 0.0064
# 4 -0.4405 0.4479 0.0180 -2.3568 0.0156 -0.0005
# 5 -0.0122 0.0070 -0.0095 0.0156 -2.3684 -0.4480
# 6 0.0043 -0.0010 0.0064 -0.0005 -0.4480 19.4322
#
#
#
# Elastic Compliance Matrix: (Units=1/GPa)
#
#
# Indices 1 2 3 4 5 6 
#
# 1 0.016534 -0.009093 -0.001125 -0.004828 -0.000138 -0.000007
# 2 -0.009093 0.016534 -0.001127 0.004834 0.000131 0.000006
# 3 -0.001125 -0.001127 0.004553 0.000031 -0.000015 -0.000002
# 4 -0.004828 0.004834 0.000031 -0.422497 -0.002735 -0.000072
# 5 -0.000138 0.000131 -0.000015 -0.002735 -0.420417 -0.009693
# 6 -0.000007 0.000006 -0.000002 -0.000072 -0.009693 0.051238
#
#
# Mechanical properties :
#
#
# Convention : Reuss Voigt Hill
#
# Bulk Modulus (GPa) = 66.97093 74.62145 70.79619
# Shear Modulus (GPa) = -6.88337 22.70704 7.91184
#
# Velocity S-wave (km/s) = -1.71782 3.12002 1.84169
# Velocity P-wave (km/s) = 4.97755 6.70594 5.90532
#
# Compressibility (1/GPa) = 0.01493185
#
# Stress axis : x y z
#
# Youngs Moduli (GPa) = 60.48017 60.48113 219.64804
#
# Poissons Ratio (x) = 0.54997 0.24701
# Poissons Ratio (y) = 0.54996 0.24751
# Poissons Ratio (z) = 0.06802 0.06815
#
# Static dielectric constant tensor:
#      x y z
#    x 1.945420 0.000000 0.000000 
#    y 0.000000 1.945420 -0.000010 
#    z 0.000000 -0.000010 1.827600 
# 
# From -- ./inp_files/30.got.cif
#   From: 2010.05.17/outbox.cif.g08.bks.cpg/sg167_1_cif.got.tgz:30.got - 2010.05.20 11:09:15.
