data_PCOD9579617
_publ_section_title
;
Structure prediction by ZEFSAII (Michael W. Deem and Ramdas Pophale) SiO2 
 PCOD9579617
Probable space group: R -3 C 
;
_chemical_formula_sum "Si O2"
_cell_formula_units_Z 162
_cell_length_a 19.705766
_cell_length_b 19.705766
_cell_length_c 21.026452
_cell_angle_alpha 90.000000
_cell_angle_beta 90.000000
_cell_angle_gamma 120.000000
_cell_volume 7071.039618
_symmetry_space_group_name_H-M "R -3 C "
_symmetry_group_IT_number 167
_symmetry_cell_setting 'hexagonal'
loop_
_space_group_symop_operation_xyz
x,y,z
-y,x-y,z
-x+y,-x,z
x-y,-y,1/2-z
-x,-x+y,1/2-z
y,x,1/2-z
-x,-y,-z
y,-x+y,-z
x-y,x,-z
-x+y,y,1/2+z
x,x-y,1/2+z
-y,-x,1/2+z
2/3+x,1/3+y,1/3+z
2/3-y,1/3+x-y,1/3+z
2/3-x+y,1/3-x,1/3+z
2/3+x-y,1/3-y,5/6-z
2/3-x,1/3-x+y,5/6-z
2/3+y,1/3+x,5/6-z
2/3-x,1/3-y,1/3-z
2/3+y,1/3-x+y,1/3-z
2/3+x-y,1/3+x,1/3-z
2/3-x+y,1/3+y,5/6+z
2/3+x,1/3+x-y,5/6+z
2/3-y,1/3-x,5/6+z
1/3+x,2/3+y,2/3+z
1/3-y,2/3+x-y,2/3+z
1/3-x+y,2/3-x,2/3+z
1/3+x-y,2/3-y,1/6-z
1/3-x,2/3-x+y,1/6-z
1/3+y,2/3+x,1/6-z
1/3-x,2/3-y,2/3-z
1/3+y,2/3-x+y,2/3-z
1/3+x-y,2/3+x,2/3-z
1/3-x+y,2/3+y,1/6+z
1/3+x,2/3+x-y,1/6+z
1/3-y,2/3-x,1/6+z
loop_
_atom_site_type_symbol
_atom_site_label
_atom_site_fract_x
_atom_site_fract_y
_atom_site_fract_z
Si Si1 0.000000 0.486011 0.250000
Si Si2 0.333334 0.754169 0.416667
Si Si3 0.767575 0.166356 0.794480
Si Si4 0.278525 0.359831 0.285733
Si Si5 0.000000 0.743780 0.750000
Si Si6 0.470507 0.334006 0.690411
O O1 0.057389 0.555064 0.202911
O O2 0.056430 0.469753 0.294518
O O3 0.259546 0.666667 0.416667
O O4 0.343561 0.805551 0.355561
O O5 0.849015 0.230807 0.763144
O O6 0.743686 0.078212 0.772732
O O7 0.701315 0.175420 0.758496
O O8 0.340180 0.340180 0.250000
O O9 0.307821 0.421435 0.345271
O O10 0.219132 0.275758 0.318243
#
# Coordination Sequence:
#
# PCOD9579617 Si02
#       6
#    18  18  36  36  18  36
#     4  12  25  44  69 105 144 178 230 303 380 422
#     4  10  24  48  74  97 135 202 256 304 344 432
#     4  11  25  41  67 102 137 188 227 287 372 428
#     4  11  21  40  64  97 135 176 223 290 353 428
#     4  10  23  38  61  92 135 170 228 271 344 436
#     4  11  21  46  66 100 138 177 241 303 353 431
#
# _framework density 22.910350999999999
#
# number of rings (size 3 to 8) (size 9 to 14) (size 15 to 20)
#    0.222    0.889    3.333    5.333    1.556    0.000 
#   22.000    0.000    0.000    1.333    0.000    0.000 
#    0.000    0.000    0.000    0.000    0.000    0.000 
#
# Total GULP energy -301075.684187 kJ/mol
# GULP energy per Si atom -5575.475633 kJ/mol
# Density = 2.285821 g / cm^3
# Si number density = 22.910351 Si / 1000 Ang^3
#
#
#
# Elastic Constant Matrix: (Units=GPa)
#
#
# Indices 1 2 3 4 5 6 
#
# 1 62.4446 35.5630 32.7092 6.4707 0.0000 0.0000
# 2 35.5630 62.4446 32.7092 -6.4707 0.0000 0.0000
# 3 32.7092 32.7092 157.2661 0.0000 0.0000 0.0000
# 4 6.4707 -6.4707 0.0000 42.1452 0.0000 0.0000
# 5 0.0000 0.0000 0.0000 0.0000 42.1452 6.4707
# 6 0.0000 0.0000 0.0000 0.0000 6.4707 13.4408
#
#
#
# Elastic Compliance Matrix: (Units=1/GPa)
#
#
# Indices 1 2 3 4 5 6 
#
# 1 0.026009 -0.014161 -0.002464 -0.006167 0.000000 0.000000
# 2 -0.014161 0.026009 -0.002464 0.006167 0.000000 0.000000
# 3 -0.002464 -0.002464 0.007384 0.000000 0.000000 0.000000
# 4 -0.006167 0.006167 0.000000 0.025621 0.000000 0.000000
# 5 0.000000 0.000000 0.000000 0.000000 0.025621 -0.012335
# 6 0.000000 0.000000 0.000000 0.000000 -0.012335 0.080338
#
#
# Mechanical properties :
#
#
# Convention : Reuss Voigt Hill
#
# Bulk Modulus (GPa) = 47.11873 53.79090 50.45482
# Shear Modulus (GPa) = 21.16541 31.62452 26.39497
#
# Velocity S-wave (km/s) = 3.04277 3.71935 3.39794
# Velocity P-wave (km/s) = 5.74071 6.47878 6.12088
#
# Compressibility (1/GPa) = 0.02122298
#
# Stress axis : x y z
#
# Youngs Moduli (GPa) = 38.44870 38.44870 135.43328
#
# Poissons Ratio (x) = 0.54445 0.33374
# Poissons Ratio (y) = 0.54445 0.33374
# Poissons Ratio (z) = 0.09475 0.09475
#
# Static dielectric constant tensor:
#      x y z
#    x 1.893690 0.000000 0.000000 
#    y 0.000000 1.893690 0.000000 
#    z 0.000000 0.000000 2.400970 
# 
# From -- ./inp_files/4478.got.cif
#   From: 2010.05.17/outbox.cif.g08.bks.cpg/sg167_3_cif.got.tgz:4478.got - 2010.05.20 11:09:15.
