data_PCOD9579136
_publ_section_title
;
Structure prediction by ZEFSAII (Michael W. Deem and Ramdas Pophale) SiO2 
 PCOD9579136
Probable space group: R -3 M
;
_chemical_formula_sum "Si O2"
_cell_formula_units_Z 270
_cell_length_a 23.493117
_cell_length_b 23.493117
_cell_length_c 32.494181
_cell_angle_alpha 90.000000
_cell_angle_beta 90.000000
_cell_angle_gamma 120.000000
_cell_volume 15531.646951
_symmetry_space_group_name_H-M "R -3 M"
_symmetry_group_IT_number 166
_symmetry_cell_setting 'hexagonal'
loop_
_space_group_symop_operation_xyz
x,y,z
-y,x-y,z
-x+y,-x,z
x-y,-y,-z
-x,-x+y,-z
y,x,-z
-x,-y,-z
y,-x+y,-z
x-y,x,-z
-x+y,y,z
x,x-y,z
-y,-x,z
2/3+x,1/3+y,1/3+z
2/3-y,1/3+x-y,1/3+z
2/3-x+y,1/3-x,1/3+z
2/3+x-y,1/3-y,1/3-z
2/3-x,1/3-x+y,1/3-z
2/3+y,1/3+x,1/3-z
2/3-x,1/3-y,1/3-z
2/3+y,1/3-x+y,1/3-z
2/3+x-y,1/3+x,1/3-z
2/3-x+y,1/3+y,1/3+z
2/3+x,1/3+x-y,1/3+z
2/3-y,1/3-x,1/3+z
1/3+x,2/3+y,2/3+z
1/3-y,2/3+x-y,2/3+z
1/3-x+y,2/3-x,2/3+z
1/3+x-y,2/3-y,2/3-z
1/3-x,2/3-x+y,2/3-z
1/3+y,2/3+x,2/3-z
1/3-x,2/3-y,2/3-z
1/3+y,2/3-x+y,2/3-z
1/3+x-y,2/3+x,2/3-z
1/3-x+y,2/3+y,2/3+z
1/3+x,2/3+x-y,2/3+z
1/3-y,2/3-x,2/3+z
loop_
_atom_site_type_symbol
_atom_site_label
_atom_site_fract_x
_atom_site_fract_y
_atom_site_fract_z
Si Si1 0.122739 0.122739 0.000000
Si Si2 0.284124 0.079299 0.529476
Si Si3 0.317957 0.457338 0.739864
Si Si4 0.000434 0.137550 0.156896
Si Si5 0.569160 0.564550 0.297251
Si Si6 0.778155 0.683816 0.276342
Si Si7 0.822349 0.050287 0.438137
Si Si8 0.986239 0.729965 0.196859
O O1 0.149251 0.177821 0.966105
O O2 0.111984 0.055992 0.980921
O O3 0.304813 0.152407 0.542671
O O4 0.269506 0.073581 0.480555
O O5 0.342509 0.063956 0.534088
O O6 0.217111 0.027650 0.553173
O O7 0.335692 0.508194 0.776502
O O8 0.374580 0.441010 0.727095
O O9 0.255089 0.386978 0.745884
O O10 0.933860 0.066141 0.163001
O O11 0.995190 0.196434 0.179788
O O12 0.067638 0.135276 0.165800
O O13 0.509925 0.490076 0.302003
O O14 0.584365 0.591609 0.344027
O O15 0.542864 0.601512 0.267906
O O16 0.855330 0.710660 0.280888
O O17 0.763424 0.724229 0.243338
O O18 0.901670 0.098331 0.434455
O O19 0.940466 0.666667 0.166667
#
# Coordination Sequence:
#
# PCOD9579136 Si02
#       8
#    18  36  36  36  36  36  36  36
#     4  12  23  34  44  60  92 138 187 222 254 302
#     4  10  19  34  55  84 118 147 181 223 273 329
#     4  12  21  33  52  75 104 141 179 221 275 331
#     4  12  26  42  59  79 109 149 193 240 286 336
#     4  10  19  33  52  76 108 141 179 224 268 330
#     4  11  22  35  52  78 107 137 176 228 289 337
#     4   9  17  31  54  83 111 146 182 215 260 321
#     4  12  22  37  59  83 106 138 181 238 291 336
#
# _framework density 17.383862000000001
#
# number of rings (size 3 to 8) (size 9 to 14) (size 15 to 20)
#    0.000    1.067    4.000    5.000    0.000    1.600 
#    0.000    1.333    0.000    2.667    0.000    1.867 
#    0.000    0.000    0.000    0.000    0.000    0.000 
#
# Total GULP energy -501270.175702 kJ/mol
# GULP energy per Si atom -5569.668619 kJ/mol
# Density = 1.734430 g / cm^3
# Si number density = 17.383862 Si / 1000 Ang^3
#
#
#
# Elastic Constant Matrix: (Units=GPa)
#
#
# Indices 1 2 3 4 5 6 
#
# 1 81.3938 26.3524 31.7658 -0.8717 0.0000 0.0000
# 2 26.3524 81.3938 31.7658 0.8717 0.0000 0.0000
# 3 31.7658 31.7658 50.0434 0.0000 0.0000 0.0000
# 4 -0.8717 0.8717 0.0000 16.1069 0.0000 0.0000
# 5 0.0000 0.0000 0.0000 0.0000 16.1069 -0.8717
# 6 0.0000 0.0000 0.0000 0.0000 -0.8717 27.5207
#
#
#
# Elastic Compliance Matrix: (Units=1/GPa)
#
#
# Indices 1 2 3 4 5 6 
#
# 1 0.016516 -0.001683 -0.009415 0.000985 0.000000 0.000000
# 2 -0.001683 0.016516 -0.009415 -0.000985 0.000000 0.000000
# 3 -0.009415 -0.009415 0.031936 0.000000 0.000000 0.000000
# 4 0.000985 -0.000985 0.000000 0.062192 0.000000 0.000000
# 5 0.000000 0.000000 0.000000 0.000000 0.062192 0.001970
# 6 0.000000 0.000000 0.000000 0.000000 0.001970 0.036399
#
#
# Mechanical properties :
#
#
# Convention : Reuss Voigt Hill
#
# Bulk Modulus (GPa) = 41.77121 43.62210 42.69666
# Shear Modulus (GPa) = 18.19785 20.14338 19.17061
#
# Velocity S-wave (km/s) = 3.23898 3.40772 3.32442
# Velocity P-wave (km/s) = 6.17000 6.37427 6.27296
#
# Compressibility (1/GPa) = 0.02393993
#
# Stress axis : x y z
#
# Youngs Moduli (GPa) = 60.54732 60.54732 31.31296
#
# Poissons Ratio (x) = 0.10192 0.29482
# Poissons Ratio (y) = 0.10192 0.29482
# Poissons Ratio (z) = 0.57007 0.57007
#
# Static dielectric constant tensor:
#      x y z
#    x 1.660730 0.000000 0.000000 
#    y 0.000000 1.660730 0.000000 
#    z 0.000000 0.000000 1.495460 
# 
# From -- ./inp_files/10835.got.cif
#   From: 2010.05.17/outbox.cif.g08.bks.cpg/sg166_6_cif.got.tgz:10835.got - 2010.05.20 11:04:41.
