data_PCOD9579130
_publ_section_title
;
Structure prediction by ZEFSAII (Michael W. Deem and Ramdas Pophale) SiO2 
 PCOD9579130
Probable space group: R -3 M
;
_chemical_formula_sum "Si O2"
_cell_formula_units_Z 126
_cell_length_a 26.531758
_cell_length_b 26.531758
_cell_length_c 10.104139
_cell_angle_alpha 90.000000
_cell_angle_beta 90.000000
_cell_angle_gamma 120.000000
_cell_volume 6159.734573
_symmetry_space_group_name_H-M "R -3 M"
_symmetry_group_IT_number 166
_symmetry_cell_setting 'hexagonal'
loop_
_space_group_symop_operation_xyz
x,y,z
-y,x-y,z
-x+y,-x,z
x-y,-y,-z
-x,-x+y,-z
y,x,-z
-x,-y,-z
y,-x+y,-z
x-y,x,-z
-x+y,y,z
x,x-y,z
-y,-x,z
2/3+x,1/3+y,1/3+z
2/3-y,1/3+x-y,1/3+z
2/3-x+y,1/3-x,1/3+z
2/3+x-y,1/3-y,1/3-z
2/3-x,1/3-x+y,1/3-z
2/3+y,1/3+x,1/3-z
2/3-x,1/3-y,1/3-z
2/3+y,1/3-x+y,1/3-z
2/3+x-y,1/3+x,1/3-z
2/3-x+y,1/3+y,1/3+z
2/3+x,1/3+x-y,1/3+z
2/3-y,1/3-x,1/3+z
1/3+x,2/3+y,2/3+z
1/3-y,2/3+x-y,2/3+z
1/3-x+y,2/3-x,2/3+z
1/3+x-y,2/3-y,2/3-z
1/3-x,2/3-x+y,2/3-z
1/3+y,2/3+x,2/3-z
1/3-x,2/3-y,2/3-z
1/3+y,2/3-x+y,2/3-z
1/3+x-y,2/3+x,2/3-z
1/3-x+y,2/3+y,2/3+z
1/3+x,2/3+x-y,2/3+z
1/3-y,2/3-x,2/3+z
loop_
_atom_site_type_symbol
_atom_site_label
_atom_site_fract_x
_atom_site_fract_y
_atom_site_fract_z
Si Si1 0.961326 0.191253 0.660692
Si Si2 0.797641 0.086797 0.384136
Si Si3 0.115343 0.000000 0.500000
Si Si4 0.243674 0.177353 0.959283
O O1 0.926884 0.201951 0.541933
O O2 0.931191 0.175581 0.800173
O O3 0.024343 0.248324 0.679106
O O4 0.975834 0.142231 0.609486
O O5 0.863637 0.136364 0.351916
O O6 0.756762 0.112206 0.341526
O O7 0.054088 0.945913 0.544493
O O8 0.227019 0.113510 0.011373
O O9 0.201700 0.201700 0.000000
#
# Coordination Sequence:
#
# PCOD9579130 Si02
#       4
#    36  36  18  36
#     4  10  19  35  58  81 111 147 186 227 277 338
#     4   9  19  35  57  83 108 138 180 234 282 320
#     4  10  19  32  54  82 110 144 193 254 302 328
#     4  11  24  39  56  81 115 152 185 219 268 333
#
# _framework density 20.455425999999999
#
# number of rings (size 3 to 8) (size 9 to 14) (size 15 to 20)
#    0.000    2.286    0.000    6.143    0.000   10.286 
#    0.000    2.857    0.000    0.286    0.000    0.000 
#    0.000    0.000    0.000    0.000    0.000    0.000 
#
# Total GULP energy -234499.081273 kJ/mol
# GULP energy per Si atom -5583.311459 kJ/mol
# Density = 2.040887 g / cm^3
# Si number density = 20.455426 Si / 1000 Ang^3
#
#
#
# Elastic Constant Matrix: (Units=GPa)
#
#
# Indices 1 2 3 4 5 6 
#
# 1 126.7474 71.0284 2.4539 5.1295 -0.0070 -0.0027
# 2 71.0284 126.7498 2.4586 -5.1349 -0.0042 -0.0008
# 3 2.4539 2.4586 29.3720 -0.0097 -0.0242 -0.0076
# 4 5.1295 -5.1349 -0.0097 2.4620 -0.0042 0.0003
# 5 -0.0070 -0.0042 -0.0242 -0.0042 2.4517 5.1293
# 6 -0.0027 -0.0008 -0.0076 0.0003 5.1293 27.8617
#
#
#
# Elastic Compliance Matrix: (Units=1/GPa)
#
#
# Indices 1 2 3 4 5 6 
#
# 1 0.017100 -0.012034 -0.000442 -0.060728 -0.000138 0.000027
# 2 -0.012034 0.017102 -0.000406 0.060740 0.000161 -0.000031
# 3 -0.000442 -0.000406 0.034117 0.000209 0.000513 -0.000085
# 4 -0.060728 0.060740 0.000209 0.659384 0.001783 -0.000339
# 5 -0.000138 0.000161 0.000513 0.001783 0.663411 -0.122133
# 6 0.000027 -0.000031 -0.000085 -0.000339 -0.122133 0.058376
#
#
# Mechanical properties :
#
#
# Convention : Reuss Voigt Hill
#
# Bulk Modulus (GPa) = 23.49847 48.30570 35.90208
# Shear Modulus (GPa) = 3.35697 20.35030 11.85363
#
# Velocity S-wave (km/s) = 1.28245 3.15756 2.40986
# Velocity P-wave (km/s) = 3.70209 6.07947 5.03316
#
# Compressibility (1/GPa) = 0.04255596
#
# Stress axis : x y z
#
# Youngs Moduli (GPa) = 58.48034 58.47313 29.31062
#
# Poissons Ratio (x) = 0.70367 0.01294
# Poissons Ratio (y) = 0.70376 0.01190
# Poissons Ratio (z) = 0.02582 0.02373
#
# Static dielectric constant tensor:
#      x y z
#    x 1.728490 0.000000 0.000000 
#    y 0.000000 1.728490 0.000000 
#    z 0.000000 0.000000 1.754340 
# 
# From -- ./inp_files/2847.got.cif
#   From: 2010.05.17/outbox.cif.g08.bks.cpg/sg166_2_cif.got.tgz:2847.got - 2010.05.20 11:04:41.
