data_PCOD9579015
_publ_section_title
;
Structure prediction by ZEFSAII (Michael W. Deem and Ramdas Pophale) SiO2 
 PCOD9579015
Probable space group: R -3 M
;
_chemical_formula_sum "Si O2"
_cell_formula_units_Z 270
_cell_length_a 27.286239
_cell_length_b 27.286239
_cell_length_c 29.837309
_cell_angle_alpha 90.000000
_cell_angle_beta 90.000000
_cell_angle_gamma 120.000000
_cell_volume 19238.784998
_symmetry_space_group_name_H-M "R -3 M"
_symmetry_group_IT_number 166
_symmetry_cell_setting 'hexagonal'
loop_
_space_group_symop_operation_xyz
x,y,z
-y,x-y,z
-x+y,-x,z
x-y,-y,-z
-x,-x+y,-z
y,x,-z
-x,-y,-z
y,-x+y,-z
x-y,x,-z
-x+y,y,z
x,x-y,z
-y,-x,z
2/3+x,1/3+y,1/3+z
2/3-y,1/3+x-y,1/3+z
2/3-x+y,1/3-x,1/3+z
2/3+x-y,1/3-y,1/3-z
2/3-x,1/3-x+y,1/3-z
2/3+y,1/3+x,1/3-z
2/3-x,1/3-y,1/3-z
2/3+y,1/3-x+y,1/3-z
2/3+x-y,1/3+x,1/3-z
2/3-x+y,1/3+y,1/3+z
2/3+x,1/3+x-y,1/3+z
2/3-y,1/3-x,1/3+z
1/3+x,2/3+y,2/3+z
1/3-y,2/3+x-y,2/3+z
1/3-x+y,2/3-x,2/3+z
1/3+x-y,2/3-y,2/3-z
1/3-x,2/3-x+y,2/3-z
1/3+y,2/3+x,2/3-z
1/3-x,2/3-y,2/3-z
1/3+y,2/3-x+y,2/3-z
1/3+x-y,2/3+x,2/3-z
1/3-x+y,2/3+y,2/3+z
1/3+x,2/3+x-y,2/3+z
1/3-y,2/3-x,2/3+z
loop_
_atom_site_type_symbol
_atom_site_label
_atom_site_fract_x
_atom_site_fract_y
_atom_site_fract_z
Si Si1 0.597742 0.597742 0.000000
Si Si2 0.061792 0.826735 0.626672
Si Si3 0.787841 0.688466 0.288952
Si Si4 0.425952 0.268465 0.731064
Si Si5 0.063089 0.820057 0.016341
Si Si6 0.244075 0.922347 0.097222
Si Si7 0.998932 0.698153 0.243625
Si Si8 0.885694 0.224144 0.532178
O O1 0.589126 0.541717 0.975554
O O2 0.622104 0.644100 0.961058
O O3 0.107554 0.892447 0.622336
O O4 0.065768 0.807170 0.677072
O O5 0.081802 0.790675 0.596976
O O6 0.999134 0.807427 0.610237
O O7 0.843820 0.687640 0.275981
O O8 0.749191 0.630877 0.317070
O O9 0.753721 0.691817 0.247097
O O10 0.446230 0.223115 0.729887
O O11 0.389628 0.257372 0.777044
O O12 0.114166 0.885835 0.014557
O O13 0.062579 0.795206 0.066109
O O14 0.000000 0.803880 0.000000
O O15 0.221072 0.895775 0.145583
O O16 0.305967 0.977800 0.103351
O O17 0.045205 0.751620 0.216299
O O18 0.821822 0.178179 0.546582
#
# Coordination Sequence:
#
# PCOD9579015 Si02
#       8
#    18  36  36  36  36  36  36  36
#     4  10  15  28  42  64  90 112 144 176 219 270
#     4  10  18  28  44  63  84 113 147 183 222 264
#     4   9  17  29  44  66  91 115 146 183 215 262
#     4  10  19  29  43  62  89 117 146 184 225 266
#     4  10  18  29  48  69  90 116 149 188 223 266
#     4  11  18  31  45  63  91 120 150 180 220 263
#     4  11  17  27  48  64  91 120 146 184 222 260
#     4  10  21  31  41  63  90 121 155 180 216 266
#
# _framework density 14.03415
#
# number of rings (size 3 to 8) (size 9 to 14) (size 15 to 20)
#    0.000    1.867    5.333    3.400    0.000    0.533 
#    0.000    0.000    0.000    2.800    0.000    0.000 
#    0.000    0.000    0.000    4.667    0.000    1.733 
#
# Total GULP energy -501105.524010 kJ/mol
# GULP energy per Si atom -5567.839156 kJ/mol
# Density = 1.400221 g / cm^3
# Si number density = 14.034150 Si / 1000 Ang^3
#
#
#
# Elastic Constant Matrix: (Units=GPa)
#
#
# Indices 1 2 3 4 5 6 
#
# 1 75.9832 41.8187 25.6963 0.4012 0.0000 0.0000
# 2 41.8187 75.9832 25.6963 -0.4012 0.0000 0.0000
# 3 25.6963 25.6963 34.5056 0.0000 0.0000 0.0000
# 4 0.4012 -0.4012 0.0000 7.1538 0.0000 0.0000
# 5 0.0000 0.0000 0.0000 0.0000 7.1538 0.4012
# 6 0.0000 0.0000 0.0000 0.0000 0.4012 17.0823
#
#
#
# Elastic Compliance Matrix: (Units=1/GPa)
#
#
# Indices 1 2 3 4 5 6 
#
# 1 0.020941 -0.008367 -0.009364 -0.001644 0.000000 0.000000
# 2 -0.008367 0.020941 -0.009364 0.001644 0.000000 0.000000
# 3 -0.009364 -0.009364 0.042927 0.000000 0.000000 0.000000
# 4 -0.001644 0.001644 0.000000 0.139970 0.000000 0.000000
# 5 0.000000 0.000000 0.000000 0.000000 0.139970 -0.003287
# 6 0.000000 0.000000 0.000000 0.000000 -0.003287 0.058617
#
#
# Mechanical properties :
#
#
# Convention : Reuss Voigt Hill
#
# Bulk Modulus (GPa) = 32.65851 41.43271 37.04561
# Shear Modulus (GPa) = 10.25089 12.49537 11.37313
#
# Velocity S-wave (km/s) = 2.70557 2.98712 2.84982
# Velocity P-wave (km/s) = 5.75164 6.44081 6.10596
#
# Compressibility (1/GPa) = 0.03061990
#
# Stress axis : x y z
#
# Youngs Moduli (GPa) = 47.75251 47.75251 23.29530
#
# Poissons Ratio (x) = 0.39957 0.21813
# Poissons Ratio (y) = 0.39957 0.21813
# Poissons Ratio (z) = 0.44714 0.44714
#
# Static dielectric constant tensor:
#      x y z
#    x 1.476570 0.000000 0.000000 
#    y 0.000000 1.476570 0.000000 
#    z 0.000000 0.000000 1.480980 
# 
# From -- ./inp_files/9870.got.cif
#   From: 2010.05.17/outbox.cif.g08.bks.cpg/sg166_5_cif.got.tgz:9870.got - 2010.05.20 11:04:41.
