data_PCOD9579240
_publ_section_title
;
Structure prediction by ZEFSAII (Michael W. Deem and Ramdas Pophale) SiO2 
 PCOD9579240
Probable space group: R -3 M
;
_chemical_formula_sum "Si O2"
_cell_formula_units_Z 162
_cell_length_a 21.887554
_cell_length_b 21.887554
_cell_length_c 20.617176
_cell_angle_alpha 90.000000
_cell_angle_beta 90.000000
_cell_angle_gamma 120.000000
_cell_volume 8553.705057
_symmetry_space_group_name_H-M "R -3 M"
_symmetry_group_IT_number 166
_symmetry_cell_setting 'hexagonal'
loop_
_space_group_symop_operation_xyz
x,y,z
-y,x-y,z
-x+y,-x,z
x-y,-y,-z
-x,-x+y,-z
y,x,-z
-x,-y,-z
y,-x+y,-z
x-y,x,-z
-x+y,y,z
x,x-y,z
-y,-x,z
2/3+x,1/3+y,1/3+z
2/3-y,1/3+x-y,1/3+z
2/3-x+y,1/3-x,1/3+z
2/3+x-y,1/3-y,1/3-z
2/3-x,1/3-x+y,1/3-z
2/3+y,1/3+x,1/3-z
2/3-x,1/3-y,1/3-z
2/3+y,1/3-x+y,1/3-z
2/3+x-y,1/3+x,1/3-z
2/3-x+y,1/3+y,1/3+z
2/3+x,1/3+x-y,1/3+z
2/3-y,1/3-x,1/3+z
1/3+x,2/3+y,2/3+z
1/3-y,2/3+x-y,2/3+z
1/3-x+y,2/3-x,2/3+z
1/3+x-y,2/3-y,2/3-z
1/3-x,2/3-x+y,2/3-z
1/3+y,2/3+x,2/3-z
1/3-x,2/3-y,2/3-z
1/3+y,2/3-x+y,2/3-z
1/3+x-y,2/3+x,2/3-z
1/3-x+y,2/3+y,2/3+z
1/3+x,2/3+x-y,2/3+z
1/3-y,2/3-x,2/3+z
loop_
_atom_site_type_symbol
_atom_site_label
_atom_site_fract_x
_atom_site_fract_y
_atom_site_fract_z
Si Si1 0.897945 0.102056 0.178232
Si Si2 0.412315 0.824630 0.634666
Si Si3 0.187438 0.164259 0.572439
Si Si4 0.761481 0.522961 0.011024
Si Si5 0.000000 0.409288 0.500000
Si Si6 0.627589 0.641741 0.267384
Si Si7 0.174777 0.349553 0.645437
O O1 0.920821 0.079179 0.111401
O O2 0.918055 0.081946 0.247733
O O3 0.924569 0.185248 0.177349
O O4 0.333334 0.787128 0.666667
O O5 0.454347 0.908693 0.651777
O O6 0.154606 0.154606 0.500000
O O7 0.202425 0.101213 0.583574
O O8 0.140921 0.167994 0.631837
O O9 0.256537 0.240805 0.572877
O O10 0.804424 0.608847 0.018163
O O11 0.016984 0.374785 0.559082
O O12 0.666667 0.677481 0.333334
O O13 0.568559 0.559142 0.273807
#
# Coordination Sequence:
#
# PCOD9579240 Si02
#       7
#    18  18  36  18  18  36  18
#     4  11  22  39  66  94 128 163 214 275 320 378
#     4  12  25  45  68  95 128 171 216 261 332 407
#     4  11  22  41  64  89 128 173 217 270 330 395
#     4  10  22  41  65  97 125 165 222 277 324 380
#     4  11  20  36  62  98 126 167 212 266 328 377
#     4  11  22  36  60  95 131 167 215 269 330 397
#     4  10  20  38  66  94 129 168 216 271 317 390
#
# _framework density 18.939162
#
# number of rings (size 3 to 8) (size 9 to 14) (size 15 to 20)
#    0.000    1.111    2.222    7.444    0.000    0.444 
#    2.667    0.556    0.000    0.000    0.000    0.000 
#    0.000    0.000    0.000    0.000    0.000    0.000 
#
# Total GULP energy -301010.672356 kJ/mol
# GULP energy per Si atom -5574.271710 kJ/mol
# Density = 1.889606 g / cm^3
# Si number density = 18.939162 Si / 1000 Ang^3
#
#
#
# Elastic Constant Matrix: (Units=GPa)
#
#
# Indices 1 2 3 4 5 6 
#
# 1 160.0447 -15.9818 47.7996 126.2806 -0.0731 0.0000
# 2 -15.9818 160.0447 47.7996 -126.2806 0.0731 0.0000
# 3 47.7996 47.7996 159.5015 0.0000 0.0000 0.0000
# 4 126.2806 -126.2806 0.0000 252.1919 0.0000 0.0731
# 5 -0.0731 0.0731 0.0000 0.0000 252.1919 126.2806
# 6 0.0000 0.0000 0.0000 0.0731 126.2806 88.0132
#
#
#
# Elastic Compliance Matrix: (Units=1/GPa)
#
#
# Indices 1 2 3 4 5 6 
#
# 1 0.014421 -0.005756 -0.002597 -0.010103 0.000006 0.000000
# 2 -0.005756 0.014421 -0.002597 0.010103 -0.000006 0.000000
# 3 -0.002597 -0.002597 0.007826 0.000000 0.000000 0.000000
# 4 -0.010103 0.010103 0.000000 0.014083 0.000000 -0.000012
# 5 0.000006 -0.000006 0.000000 0.000000 0.014083 -0.020207
# 6 0.000000 0.000000 0.000000 -0.000012 -0.020207 0.040354
#
#
# Mechanical properties :
#
#
# Convention : Reuss Voigt Hill
#
# Bulk Modulus (GPa) = 67.71185 70.98065 69.34625
# Shear Modulus (GPa) = 37.87573 145.14429 91.51001
#
# Velocity S-wave (km/s) = 4.47683 8.76376 6.95865
# Velocity P-wave (km/s) = 7.90902 11.83065 10.06273
#
# Compressibility (1/GPa) = 0.01476846
#
# Stress axis : x y z
#
# Youngs Moduli (GPa) = 69.34405 69.34405 127.78196
#
# Poissons Ratio (x) = 0.39917 0.33180
# Poissons Ratio (y) = 0.39917 0.33180
# Poissons Ratio (z) = 0.18006 0.18006
#
# Static dielectric constant tensor:
#      x y z
#    x 1.645210 0.000000 0.000000 
#    y 0.000000 1.645210 0.000000 
#    z 0.000000 0.000000 1.657020 
# 
# From -- ./inp_files/6844.got.cif
#   From: 2010.05.17/outbox.cif.g08.bks.cpg/sg166_4_cif.got.tgz:6844.got - 2010.05.20 11:04:41.
