data_PCOD9579562
_publ_section_title
;
Structure prediction by ZEFSAII (Michael W. Deem and Ramdas Pophale) SiO2 
 PCOD9579562
Probable space group: R -3 C 
;
_chemical_formula_sum "Si O2"
_cell_formula_units_Z 252
_cell_length_a 28.254458
_cell_length_b 28.254458
_cell_length_c 19.209676
_cell_angle_alpha 90.000000
_cell_angle_beta 90.000000
_cell_angle_gamma 120.000000
_cell_volume 13280.812124
_symmetry_space_group_name_H-M "R -3 C "
_symmetry_group_IT_number 167
_symmetry_cell_setting 'hexagonal'
loop_
_space_group_symop_operation_xyz
x,y,z
-y,x-y,z
-x+y,-x,z
x-y,-y,1/2-z
-x,-x+y,1/2-z
y,x,1/2-z
-x,-y,-z
y,-x+y,-z
x-y,x,-z
-x+y,y,1/2+z
x,x-y,1/2+z
-y,-x,1/2+z
2/3+x,1/3+y,1/3+z
2/3-y,1/3+x-y,1/3+z
2/3-x+y,1/3-x,1/3+z
2/3+x-y,1/3-y,5/6-z
2/3-x,1/3-x+y,5/6-z
2/3+y,1/3+x,5/6-z
2/3-x,1/3-y,1/3-z
2/3+y,1/3-x+y,1/3-z
2/3+x-y,1/3+x,1/3-z
2/3-x+y,1/3+y,5/6+z
2/3+x,1/3+x-y,5/6+z
2/3-y,1/3-x,5/6+z
1/3+x,2/3+y,2/3+z
1/3-y,2/3+x-y,2/3+z
1/3-x+y,2/3-x,2/3+z
1/3+x-y,2/3-y,1/6-z
1/3-x,2/3-x+y,1/6-z
1/3+y,2/3+x,1/6-z
1/3-x,2/3-y,2/3-z
1/3+y,2/3-x+y,2/3-z
1/3+x-y,2/3+x,2/3-z
1/3-x+y,2/3+y,1/6+z
1/3+x,2/3+x-y,1/6+z
1/3-y,2/3-x,1/6+z
loop_
_atom_site_type_symbol
_atom_site_label
_atom_site_fract_x
_atom_site_fract_y
_atom_site_fract_z
Si Si1 0.544745 0.076734 0.584957
Si Si2 0.960165 0.293499 0.416667
Si Si3 0.729243 0.333334 0.083334
Si Si4 0.461765 0.632772 0.314999
Si Si5 0.987239 0.424343 0.890111
Si Si6 0.278254 0.740014 0.662984
Si Si7 0.130591 0.916702 0.893539
Si Si8 0.076517 0.721132 0.878217
O O1 0.587793 0.123231 0.636756
O O2 0.548854 0.104217 0.510245
O O3 0.564451 0.032771 0.569349
O O4 0.482537 0.042647 0.608237
O O5 0.937308 0.258484 0.485712
O O6 0.021077 0.302990 0.403767
O O7 0.717425 0.384091 0.083334
O O8 0.769802 0.343191 0.147328
O O9 0.433802 0.607507 0.241726
O O10 0.519801 0.686636 0.298754
O O11 0.934620 0.432049 0.896204
O O12 0.981333 0.390482 0.961056
O O13 0.341599 0.762283 0.677052
O O14 0.250895 0.754522 0.726006
O O15 0.069346 0.666667 0.916667
#
# Coordination Sequence:
#
# PCOD9579562 Si02
#       8
#    36  18  18  36  36  36  36  36
#     4  11  21  41  70  94 125 163 216 266 331 379
#     4  10  24  41  66  90 132 158 219 262 314 388
#     4  10  24  37  66  96 124 164 225 264 300 372
#     4  11  22  41  66  95 125 169 220 262 320 386
#     4  11  23  42  64  99 129 166 206 279 323 388
#     4  10  24  40  61  90 133 176 216 261 323 381
#     4  10  21  42  62  90 131 166 216 263 318 386
#     4   9  20  41  69  88 119 170 216 252 319 382
#
# _framework density 18.974744000000001
#
# number of rings (size 3 to 8) (size 9 to 14) (size 15 to 20)
#    0.571    1.143    1.429    4.000    6.000    0.000 
#   10.286    4.286    0.000    0.000    0.000    0.000 
#    0.000    0.000    0.000    0.000    0.000    0.000 
#
# Total GULP energy -468322.530629 kJ/mol
# GULP energy per Si atom -5575.268222 kJ/mol
# Density = 1.893156 g / cm^3
# Si number density = 18.974744 Si / 1000 Ang^3
#
#
#
# Elastic Constant Matrix: (Units=GPa)
#
#
# Indices 1 2 3 4 5 6 
#
# 1 65.0186 37.8829 44.1909 -0.3122 0.0003 0.0000
# 2 37.8829 65.0186 44.1909 0.3122 -0.0003 0.0000
# 3 44.1909 44.1909 112.2970 0.0000 0.0000 0.0000
# 4 -0.3122 0.3122 0.0000 17.2006 0.0000 -0.0003
# 5 0.0003 -0.0003 0.0000 0.0000 17.2006 -0.3122
# 6 0.0000 0.0000 0.0000 -0.0003 -0.3122 13.5678
#
#
#
# Elastic Compliance Matrix: (Units=1/GPa)
#
#
# Indices 1 2 3 4 5 6 
#
# 1 0.025773 -0.011094 -0.005777 0.000669 -0.000001 0.000000
# 2 -0.011094 0.025773 -0.005777 -0.000669 0.000001 0.000000
# 3 -0.005777 -0.005777 0.013451 0.000000 0.000000 0.000000
# 4 0.000669 -0.000669 0.000000 0.058162 0.000000 0.000001
# 5 -0.000001 0.000001 0.000000 0.000000 0.058162 0.001338
# 6 0.000000 0.000000 0.000000 0.000001 0.001338 0.073735
#
#
# Mechanical properties :
#
#
# Convention : Reuss Voigt Hill
#
# Bulk Modulus (GPa) = 50.75143 54.98485 52.86814
# Shear Modulus (GPa) = 16.29095 17.33177 16.81136
#
# Velocity S-wave (km/s) = 2.93330 3.02555 2.97978
# Velocity P-wave (km/s) = 6.18686 6.42231 6.30568
#
# Compressibility (1/GPa) = 0.01970388
#
# Stress axis : x y z
#
# Youngs Moduli (GPa) = 38.79962 38.79962 74.34164
#
# Poissons Ratio (x) = 0.43044 0.42945
# Poissons Ratio (y) = 0.43044 0.42945
# Poissons Ratio (z) = 0.22413 0.22413
#
# Static dielectric constant tensor:
#      x y z
#    x 1.672440 0.000000 0.000000 
#    y 0.000000 1.672440 0.000000 
#    z 0.000000 0.000000 1.647870 
# 
# From -- ./inp_files/3720.got.cif
#   From: 2010.05.17/outbox.cif.g08.bks.cpg/sg167_2_cif.got.tgz:3720.got - 2010.05.20 11:09:15.
