data_PCOD9579213
_publ_section_title
;
Structure prediction by ZEFSAII (Michael W. Deem and Ramdas Pophale) SiO2 
 PCOD9579213
Probable space group: R -3 M
;
_chemical_formula_sum "Si O2"
_cell_formula_units_Z 162
_cell_length_a 21.063316
_cell_length_b 21.063316
_cell_length_c 22.609343
_cell_angle_alpha 90.000000
_cell_angle_beta 90.000000
_cell_angle_gamma 120.000000
_cell_volume 8687.044789
_symmetry_space_group_name_H-M "R -3 M"
_symmetry_group_IT_number 166
_symmetry_cell_setting 'hexagonal'
loop_
_space_group_symop_operation_xyz
x,y,z
-y,x-y,z
-x+y,-x,z
x-y,-y,-z
-x,-x+y,-z
y,x,-z
-x,-y,-z
y,-x+y,-z
x-y,x,-z
-x+y,y,z
x,x-y,z
-y,-x,z
2/3+x,1/3+y,1/3+z
2/3-y,1/3+x-y,1/3+z
2/3-x+y,1/3-x,1/3+z
2/3+x-y,1/3-y,1/3-z
2/3-x,1/3-x+y,1/3-z
2/3+y,1/3+x,1/3-z
2/3-x,1/3-y,1/3-z
2/3+y,1/3-x+y,1/3-z
2/3+x-y,1/3+x,1/3-z
2/3-x+y,1/3+y,1/3+z
2/3+x,1/3+x-y,1/3+z
2/3-y,1/3-x,1/3+z
1/3+x,2/3+y,2/3+z
1/3-y,2/3+x-y,2/3+z
1/3-x+y,2/3-x,2/3+z
1/3+x-y,2/3-y,2/3-z
1/3-x,2/3-x+y,2/3-z
1/3+y,2/3+x,2/3-z
1/3-x,2/3-y,2/3-z
1/3+y,2/3-x+y,2/3-z
1/3+x-y,2/3+x,2/3-z
1/3-x+y,2/3+y,2/3+z
1/3+x,2/3+x-y,2/3+z
1/3-y,2/3-x,2/3+z
loop_
_atom_site_type_symbol
_atom_site_label
_atom_site_fract_x
_atom_site_fract_y
_atom_site_fract_z
Si Si1 0.558726 0.658404 0.780156
Si Si2 0.151014 0.998341 0.764536
Si Si3 0.704951 0.781785 0.483565
Si Si4 0.478580 0.811913 0.666667
Si Si5 0.343686 0.383378 0.390630
O O1 0.522143 0.673773 0.836945
O O2 0.565392 0.587871 0.798008
O O3 0.510505 0.645797 0.722740
O O4 0.641996 0.719130 0.761771
O O5 0.157640 0.078820 0.759096
O O6 0.204707 0.985368 0.720126
O O7 0.067680 0.932321 0.758514
O O8 0.773042 0.773042 0.500000
O O9 0.724568 0.862284 0.470943
O O10 0.664026 0.729454 0.428774
O O11 0.401620 0.803240 0.648846
O O12 0.331779 0.333334 0.333334
#
# Coordination Sequence:
#
# PCOD9579213 Si02
#       5
#    36  36  36  18  36
#     4  10  20  36  56  81 110 147 190 241 286 322
#     4  11  23  39  59  83 116 157 195 233 281 347
#     4   9  18  33  55  78 106 139 180 227 285 348
#     4  12  23  34  50  74 113 156 194 230 272 330
#     4  10  20  37  58  86 108 139 187 244 303 334
#
# _framework density 18.648458999999999
#
# number of rings (size 3 to 8) (size 9 to 14) (size 15 to 20)
#    0.000    1.778    1.111    7.000    0.000    4.444 
#    0.000    3.333    0.000    0.222    0.000    0.000 
#    0.000    0.000    0.000    0.000    0.000    1.333 
#
# Total GULP energy -300958.192108 kJ/mol
# GULP energy per Si atom -5573.299854 kJ/mol
# Density = 1.860601 g / cm^3
# Si number density = 18.648459 Si / 1000 Ang^3
#
#
#
# Elastic Constant Matrix: (Units=GPa)
#
#
# Indices 1 2 3 4 5 6 
#
# 1 59.4199 70.9127 3.3038 -6.6941 0.0009 0.0000
# 2 70.9127 59.4199 3.3038 6.6941 -0.0009 0.0000
# 3 3.3038 3.3038 59.4299 0.0000 0.0000 0.0000
# 4 -6.6941 6.6941 0.0000 4.6873 0.0000 -0.0009
# 5 0.0009 -0.0009 0.0000 0.0000 4.6873 -6.6941
# 6 0.0000 0.0000 0.0000 -0.0009 -6.6941 -5.7464
#
#
#
# Elastic Compliance Matrix: (Units=1/GPa)
#
#
# Indices 1 2 3 4 5 6 
#
# 1 -0.012486 0.020180 -0.000428 -0.046651 0.000006 0.000000
# 2 0.020180 -0.012486 -0.000428 0.046651 -0.000006 0.000000
# 3 -0.000428 -0.000428 0.016874 0.000000 0.000000 0.000000
# 4 -0.046651 0.046651 0.000000 0.080093 0.000000 -0.000012
# 5 0.000006 -0.000006 0.000000 0.000000 0.080093 -0.093302
# 6 0.000000 0.000000 0.000000 -0.000012 -0.093302 -0.065332
#
#
# Mechanical properties :
#
#
# Convention : Reuss Voigt Hill
#
# Bulk Modulus (GPa) = 32.73123 37.03449 34.88286
# Shear Modulus (GPa) = 85.77618 7.44228 46.60923
#
# Velocity S-wave (km/s) = 6.78942 1.99987 5.00478
# Velocity P-wave (km/s) = 8.89109 5.02345 7.22103
#
# Compressibility (1/GPa) = 0.03055186
#
# Stress axis : x y z
#
# Youngs Moduli (GPa) = -80.09135 -80.09135 59.26236
#
# Poissons Ratio (x) = 1.61625 0.02535
# Poissons Ratio (y) = 1.61625 0.02535
# Poissons Ratio (z) = -0.03426 -0.03426
#
# Static dielectric constant tensor:
#      x y z
#    x 1.663350 0.000000 0.000000 
#    y 0.000000 1.663350 0.000000 
#    z 0.000000 0.000000 1.605480 
# 
# From -- ./inp_files/6744.got.cif
#   From: 2010.05.17/outbox.cif.g08.bks.cpg/sg166_4_cif.got.tgz:6744.got - 2010.05.20 11:04:41.
