data_PCOD9579005
_publ_section_title
;
Structure prediction by ZEFSAII (Michael W. Deem and Ramdas Pophale) SiO2 
 PCOD9579005
Probable space group: P -3 C 1
;
_chemical_formula_sum "Si O2"
_cell_formula_units_Z 56
_cell_length_a 13.202824
_cell_length_b 13.202824
_cell_length_c 26.505626
_cell_angle_alpha 90.000000
_cell_angle_beta 90.000000
_cell_angle_gamma 120.000000
_cell_volume 4001.311528
_symmetry_space_group_name_H-M "P -3 C 1"
_symmetry_group_IT_number 165
_symmetry_cell_setting 'hexagonal'
loop_
_space_group_symop_operation_xyz
x,y,z
-y,x-y,z
-x+y,-x,z
x-y,-y,1/2-z
-x,-x+y,1/2-z
y,x,1/2-z
-x,-y,-z
y,-x+y,-z
x-y,x,-z
-x+y,y,1/2+z
x,x-y,1/2+z
-y,-x,1/2+z
loop_
_atom_site_type_symbol
_atom_site_label
_atom_site_fract_x
_atom_site_fract_y
_atom_site_fract_z
Si Si1 0.487274 0.135895 0.369216
Si Si2 0.303181 0.438434 0.190510
Si Si3 0.135894 0.487273 0.369216
Si Si4 0.666667 0.333334 0.059873
Si Si5 0.864748 0.303181 0.690511
Si Si6 0.666667 0.333334 0.940129
O O1 0.588512 0.147315 0.330912
O O2 0.419309 0.191570 0.340808
O O3 0.556823 0.217247 0.416602
O O4 0.406757 0.000000 0.381742
O O5 0.288417 0.448938 0.250000
O O6 0.340615 0.340615 0.182878
O O7 0.217246 0.556822 0.416601
O O8 0.147314 0.588511 0.330912
O O9 0.191569 0.419308 0.340807
O O10 0.666668 0.333334 0.000001
#
# Coordination Sequence:
#
# PCOD9579005 Si02
#       6
#    12  12  12   4  12   4
#     4   9  17  28  42  60  83 111 138 166 207 251
#     4   9  16  25  39  61  86 109 134 163 194 236
#     4   9  17  28  42  60  83 111 138 166 207 251
#     4   9  18  30  43  62  85 105 135 180 217 251
#     4   9  16  25  39  61  86 109 134 163 194 236
#     4   9  18  30  43  62  85 105 135 180 217 251
#
# _framework density 13.995411000000001
#
# number of rings (size 3 to 8) (size 9 to 14) (size 15 to 20)
#    0.000    3.000    0.000    2.143    0.000    3.429 
#    0.000    0.000    0.000    0.857    0.000    0.000 
#    0.000    1.714    0.000    0.000    0.000    0.000 
#
# Total GULP energy -311863.833990 kJ/mol
# GULP energy per Si atom -5568.997036 kJ/mol
# Density = 1.396356 g / cm^3
# Si number density = 13.995411 Si / 1000 Ang^3
#
#
#
# Elastic Constant Matrix: (Units=GPa)
#
#
# Indices 1 2 3 4 5 6 
#
# 1 77.3157 45.8169 56.5124 0.0000 0.0000 0.0000
# 2 45.8169 77.3157 56.5126 -0.0002 0.0000 0.0000
# 3 56.5124 56.5126 123.8129 0.0000 0.0000 0.0000
# 4 0.0000 -0.0002 0.0000 10.7585 0.0000 0.0000
# 5 0.0000 0.0000 0.0000 0.0000 10.7585 0.0001
# 6 0.0000 0.0000 0.0000 0.0000 0.0001 15.7499
#
#
#
# Elastic Compliance Matrix: (Units=1/GPa)
#
#
# Indices 1 2 3 4 5 6 
#
# 1 0.022862 -0.008885 -0.006380 0.000000 0.000000 0.000000
# 2 -0.008885 0.022862 -0.006380 0.000000 0.000000 0.000000
# 3 -0.006380 -0.006380 0.013901 0.000000 0.000000 0.000000
# 4 0.000000 0.000000 0.000000 0.092950 0.000000 0.000000
# 5 0.000000 0.000000 0.000000 0.000000 0.092950 0.000000
# 6 0.000000 0.000000 0.000000 0.000000 0.000000 0.063492
#
#
# Mechanical properties :
#
#
# Convention : Reuss Voigt Hill
#
# Bulk Modulus (GPa) = 61.21327 66.23644 63.72486
# Shear Modulus (GPa) = 13.97618 15.42687 14.70153
#
# Velocity S-wave (km/s) = 3.16353 3.32366 3.24459
# Velocity P-wave (km/s) = 7.56155 7.88410 7.72450
#
# Compressibility (1/GPa) = 0.01633633
#
# Stress axis : x y z
#
# Youngs Moduli (GPa) = 43.74017 43.74003 71.93929
#
# Poissons Ratio (x) = 0.38863 0.45895
# Poissons Ratio (y) = 0.38863 0.45896
# Poissons Ratio (z) = 0.27905 0.27905
#
# Static dielectric constant tensor:
#      x y z
#    x 1.461470 0.000000 0.000000 
#    y 0.000000 1.461470 0.000000 
#    z 0.000000 0.000000 1.434760 
# 
# From -- ./inp_files/2655.got.cif
#   From: 2010.05.17/outbox.cif.g08.bks.cpg/sg165_2_cif.got.tgz:2655.got - 2010.05.20 11:02:39.
