data_PCOD9579949
_publ_section_title
;
Structure prediction by ZEFSAII (Michael W. Deem and Ramdas Pophale) SiO2 
 PCOD9579949
Probable space group: P 61
;
_chemical_formula_sum "Si O2"
_cell_formula_units_Z 42
_cell_length_a 13.318102
_cell_length_b 13.318102
_cell_length_c 12.118596
_cell_angle_alpha 90.000000
_cell_angle_beta 90.000000
_cell_angle_gamma 120.000000
_cell_volume 1861.519597
_symmetry_space_group_name_H-M "P 61"
_symmetry_group_IT_number 169
_symmetry_cell_setting 'hexagonal'
loop_
_space_group_symop_operation_xyz
x,y,z
x-y,x,1/6+z
-y,x-y,1/3+z
-x,-y,1/2+z
-x+y,-x,2/3+z
y,-x+y,5/6+z
loop_
_atom_site_type_symbol
_atom_site_label
_atom_site_fract_x
_atom_site_fract_y
_atom_site_fract_z
Si Si1 0.670794 0.782242 0.622510
Si Si2 0.442680 0.588339 0.226229
Si Si3 0.021602 0.830009 0.327520
Si Si4 0.044152 0.636271 0.231056
Si Si5 0.200421 0.073814 0.847451
Si Si6 0.670533 0.669966 0.823776
Si Si7 0.663251 0.214227 0.304074
O O1 0.752282 0.733444 0.576825
O O2 0.624506 0.732521 0.743614
O O3 0.730142 0.920113 0.641678
O O4 0.570345 0.734269 0.533826
O O5 0.541329 0.592741 0.146649
O O6 0.378112 0.457311 0.273160
O O7 0.473193 0.658724 0.341266
O O8 0.351563 0.613262 0.160756
O O9 0.948173 0.840419 0.226108
O O10 0.925818 0.751778 0.422246
O O11 0.083684 0.760493 0.286695
O O12 0.146566 0.611199 0.194256
O O13 0.982111 0.635884 0.116645
O O14 0.109324 0.966918 0.775021
#
# Coordination Sequence:
#
# PCOD9579949 Si02
#       7
#     6   6   6   6   6   6   6
#     4  11  20  41  69  97 137 182 239 286 356 440
#     4  10  23  46  71 102 135 189 236 300 358 438
#     4  10  25  46  64 100 148 184 242 295 371 435
#     4  11  24  46  69 105 146 185 242 308 359 424
#     4  10  21  40  60  94 131 181 231 285 354 425
#     4  10  23  40  65  99 137 183 233 289 362 426
#     4  10  24  45  72 101 142 182 247 289 370 432
#
# _framework density 22.562211999999999
#
# number of rings (size 3 to 8) (size 9 to 14) (size 15 to 20)
#    0.000    1.714    2.857    0.000    6.000    1.143 
#   18.000    0.000    0.000    0.000    0.000    0.000 
#    0.000    0.000    0.000    0.000    0.000    0.000 
#
# Total GULP energy -234224.458483 kJ/mol
# GULP energy per Si atom -5576.772821 kJ/mol
# Density = 2.251086 g / cm^3
# Si number density = 22.562212 Si / 1000 Ang^3
#
#
#
# Elastic Constant Matrix: (Units=GPa)
#
#
# Indices 1 2 3 4 5 6 
#
# 1 54.2269 34.3648 40.5718 0.0000 0.0000 0.0000
# 2 34.3648 54.2269 40.5718 0.0000 0.0000 0.0000
# 3 40.5718 40.5718 159.7681 0.0000 0.0000 0.0000
# 4 0.0000 0.0000 0.0000 34.6328 0.0000 0.0000
# 5 0.0000 0.0000 0.0000 0.0000 34.6328 0.0000
# 6 0.0000 0.0000 0.0000 0.0000 0.0000 9.9311
#
#
#
# Elastic Compliance Matrix: (Units=1/GPa)
#
#
# Indices 1 2 3 4 5 6 
#
# 1 0.032528 -0.017819 -0.003735 0.000000 0.000000 0.000000
# 2 -0.017819 0.032528 -0.003735 0.000000 0.000000 0.000000
# 3 -0.003735 -0.003735 0.008156 0.000000 0.000000 0.000000
# 4 0.000000 0.000000 0.000000 0.028874 0.000000 0.000000
# 5 0.000000 0.000000 0.000000 0.000000 0.028874 0.000000
# 6 0.000000 0.000000 0.000000 0.000000 0.000000 0.100694
#
#
# Mechanical properties :
#
#
# Convention : Reuss Voigt Hill
#
# Bulk Modulus (GPa) = 44.18302 55.47097 49.82700
# Shear Modulus (GPa) = 17.25456 26.02022 21.63739
#
# Velocity S-wave (km/s) = 2.76842 3.39966 3.10015
# Velocity P-wave (km/s) = 5.46298 6.32846 5.91158
#
# Compressibility (1/GPa) = 0.02263313
#
# Stress axis : x y z
#
# Youngs Moduli (GPa) = 30.74274 30.74274 122.60724
#
# Poissons Ratio (x) = 0.54781 0.45796
# Poissons Ratio (y) = 0.54781 0.45796
# Poissons Ratio (z) = 0.11483 0.11483
#
# Static dielectric constant tensor:
#      x y z
#    x 1.894260 0.000000 0.000000 
#    y 0.000000 1.894260 0.000000 
#    z 0.000000 0.000000 1.847100 
# 
# From -- ./inp_files/988.got.cif
#   From: 2010.05.17/outbox.cif.g08.bks.cpg/sg169_cif.got.tgz:988.got - 2010.05.20 11:12:54.
