data_PCOD9579438
_publ_section_title
;
Structure prediction by ZEFSAII (Michael W. Deem and Ramdas Pophale) SiO2 
 PCOD9579438
Probable space group: R -3 C 
;
_chemical_formula_sum "Si O2"
_cell_formula_units_Z 270
_cell_length_a 27.746258
_cell_length_b 27.746258
_cell_length_c 22.800153
_cell_angle_alpha 90.000000
_cell_angle_beta 90.000000
_cell_angle_gamma 120.000000
_cell_volume 15201.177619
_symmetry_space_group_name_H-M "R -3 C "
_symmetry_group_IT_number 167
_symmetry_cell_setting 'hexagonal'
loop_
_space_group_symop_operation_xyz
x,y,z
-y,x-y,z
-x+y,-x,z
x-y,-y,1/2-z
-x,-x+y,1/2-z
y,x,1/2-z
-x,-y,-z
y,-x+y,-z
x-y,x,-z
-x+y,y,1/2+z
x,x-y,1/2+z
-y,-x,1/2+z
2/3+x,1/3+y,1/3+z
2/3-y,1/3+x-y,1/3+z
2/3-x+y,1/3-x,1/3+z
2/3+x-y,1/3-y,5/6-z
2/3-x,1/3-x+y,5/6-z
2/3+y,1/3+x,5/6-z
2/3-x,1/3-y,1/3-z
2/3+y,1/3-x+y,1/3-z
2/3+x-y,1/3+x,1/3-z
2/3-x+y,1/3+y,5/6+z
2/3+x,1/3+x-y,5/6+z
2/3-y,1/3-x,5/6+z
1/3+x,2/3+y,2/3+z
1/3-y,2/3+x-y,2/3+z
1/3-x+y,2/3-x,2/3+z
1/3+x-y,2/3-y,1/6-z
1/3-x,2/3-x+y,1/6-z
1/3+y,2/3+x,1/6-z
1/3-x,2/3-y,2/3-z
1/3+y,2/3-x+y,2/3-z
1/3+x-y,2/3+x,2/3-z
1/3-x+y,2/3+y,1/6+z
1/3+x,2/3+x-y,1/6+z
1/3-y,2/3-x,1/6+z
loop_
_atom_site_type_symbol
_atom_site_label
_atom_site_fract_x
_atom_site_fract_y
_atom_site_fract_z
Si Si1 0.177730 0.887129 0.404964
Si Si2 0.571808 0.004052 0.040261
Si Si3 0.486193 0.312915 0.207997
Si Si4 0.430608 0.912881 0.195239
Si Si5 0.281669 0.393129 0.612922
Si Si6 0.580048 0.212975 0.353604
Si Si7 0.741870 0.731584 0.929462
Si Si8 0.876670 0.333334 0.583334
O O1 0.146041 0.821799 0.394711
O O2 0.230221 0.912816 0.362324
O O3 0.142284 0.914508 0.379253
O O4 0.184012 0.900107 0.473235
O O5 0.615608 0.060202 0.074159
O O6 0.574613 0.949329 0.052878
O O7 0.458405 0.344861 0.240843
O O8 0.536796 0.318719 0.248289
O O9 0.490520 0.333143 0.141154
O O10 0.493948 0.932658 0.210642
O O11 0.398699 0.848838 0.174407
O O12 0.391321 0.918788 0.242324
O O13 0.260985 0.333334 0.583334
O O14 0.313559 0.398400 0.673689
O O15 0.567519 0.255326 0.317167
O O16 0.705239 0.666667 0.916667
#
# Coordination Sequence:
#
# PCOD9579438 Si02
#       8
#    36  36  36  36  36  36  36  18
#     4   9  19  33  54  79 111 156 192 230 299 348
#     4  10  19  34  54  80 114 153 197 241 281 353
#     4  10  21  37  60  87 118 157 200 249 292 367
#     4  11  21  39  56  85 120 156 194 247 315 361
#     4  12  23  37  58  83 117 158 201 248 297 365
#     4  11  21  39  64  93 120 151 199 259 318 369
#     4  12  23  34  53  83 117 150 195 247 294 348
#     4  10  20  38  58  90 114 162 216 232 288 360
#
# _framework density 17.761782
#
# number of rings (size 3 to 8) (size 9 to 14) (size 15 to 20)
#    0.000    1.333    6.000    1.333    3.733    0.000 
#    0.000    0.000    0.000    0.800    0.000    0.000 
#    0.000    0.000    0.000    0.000    0.000    0.000 
#
# Total GULP energy -501316.122618 kJ/mol
# GULP energy per Si atom -5570.179140 kJ/mol
# Density = 1.772135 g / cm^3
# Si number density = 17.761782 Si / 1000 Ang^3
#
#
#
# Elastic Constant Matrix: (Units=GPa)
#
#
# Indices 1 2 3 4 5 6 
#
# 1 61.9455 51.2456 34.4255 1.6823 0.0035 0.0000
# 2 51.2456 61.9455 34.4255 -1.6823 -0.0035 0.0000
# 3 34.4255 34.4255 54.6974 0.0000 0.0000 0.0000
# 4 1.6823 -1.6823 0.0000 20.5236 0.0000 -0.0035
# 5 0.0035 -0.0035 0.0000 0.0000 20.5236 1.6823
# 6 0.0000 0.0000 0.0000 -0.0035 1.6823 5.3500
#
#
#
# Elastic Compliance Matrix: (Units=1/GPa)
#
#
# Indices 1 2 3 4 5 6 
#
# 1 0.055123 -0.040808 -0.009009 -0.007863 -0.000016 0.000000
# 2 -0.040808 0.055123 -0.009009 0.007863 0.000016 0.000000
# 3 -0.009009 -0.009009 0.029623 0.000000 0.000000 0.000000
# 4 -0.007863 0.007863 0.000000 0.050013 0.000000 0.000033
# 5 -0.000016 0.000016 0.000000 0.000000 0.050013 -0.015727
# 6 0.000000 0.000000 0.000000 0.000033 -0.015727 0.191862
#
#
# Mechanical properties :
#
#
# Convention : Reuss Voigt Hill
#
# Bulk Modulus (GPa) = 45.01476 46.53128 45.77302
# Shear Modulus (GPa) = 8.97960 13.17889 11.07924
#
# Velocity S-wave (km/s) = 2.25090 2.72689 2.50025
# Velocity P-wave (km/s) = 5.67045 6.01405 5.84478
#
# Compressibility (1/GPa) = 0.02221494
#
# Stress axis : x y z
#
# Youngs Moduli (GPa) = 18.14124 18.14124 33.75732
#
# Poissons Ratio (x) = 0.74031 0.30414
# Poissons Ratio (y) = 0.74031 0.30414
# Poissons Ratio (z) = 0.16344 0.16344
#
# Static dielectric constant tensor:
#      x y z
#    x 1.644620 0.000000 0.000000 
#    y 0.000000 1.644620 0.000000 
#    z 0.000000 0.000000 1.653640 
# 
# From -- ./inp_files/5686.got.cif
#   From: 2010.05.17/outbox.cif.g08.bks.cpg/sg167_3_cif.got.tgz:5686.got - 2010.05.20 11:09:15.
