data_PCOD9579185
_publ_section_title
;
Structure prediction by ZEFSAII (Michael W. Deem and Ramdas Pophale) SiO2 
 PCOD9579185
Probable space group: R -3 M
;
_chemical_formula_sum "Si O2"
_cell_formula_units_Z 270
_cell_length_a 26.268118
_cell_length_b 26.268118
_cell_length_c 23.149200
_cell_angle_alpha 90.000000
_cell_angle_beta 90.000000
_cell_angle_gamma 120.000000
_cell_volume 13833.259877
_symmetry_space_group_name_H-M "R -3 M"
_symmetry_group_IT_number 166
_symmetry_cell_setting 'hexagonal'
loop_
_space_group_symop_operation_xyz
x,y,z
-y,x-y,z
-x+y,-x,z
x-y,-y,-z
-x,-x+y,-z
y,x,-z
-x,-y,-z
y,-x+y,-z
x-y,x,-z
-x+y,y,z
x,x-y,z
-y,-x,z
2/3+x,1/3+y,1/3+z
2/3-y,1/3+x-y,1/3+z
2/3-x+y,1/3-x,1/3+z
2/3+x-y,1/3-y,1/3-z
2/3-x,1/3-x+y,1/3-z
2/3+y,1/3+x,1/3-z
2/3-x,1/3-y,1/3-z
2/3+y,1/3-x+y,1/3-z
2/3+x-y,1/3+x,1/3-z
2/3-x+y,1/3+y,1/3+z
2/3+x,1/3+x-y,1/3+z
2/3-y,1/3-x,1/3+z
1/3+x,2/3+y,2/3+z
1/3-y,2/3+x-y,2/3+z
1/3-x+y,2/3-x,2/3+z
1/3+x-y,2/3-y,2/3-z
1/3-x,2/3-x+y,2/3-z
1/3+y,2/3+x,2/3-z
1/3-x,2/3-y,2/3-z
1/3+y,2/3-x+y,2/3-z
1/3+x-y,2/3+x,2/3-z
1/3-x+y,2/3+y,2/3+z
1/3+x,2/3+x-y,2/3+z
1/3-y,2/3-x,2/3+z
loop_
_atom_site_type_symbol
_atom_site_label
_atom_site_fract_x
_atom_site_fract_y
_atom_site_fract_z
Si Si1 0.895492 0.562158 0.833334
Si Si2 0.172802 0.708533 0.282400
Si Si3 0.654159 0.907641 0.769811
Si Si4 0.931675 0.179563 0.997764
Si Si5 0.662080 0.604213 0.028680
Si Si6 0.453109 0.666497 0.945291
Si Si7 0.911295 0.513751 0.114790
Si Si8 0.250712 0.940820 0.111828
O O1 0.846241 0.538560 0.783474
O O2 0.907678 0.624060 0.862709
O O3 0.223349 0.776652 0.287494
O O4 0.111904 0.690656 0.314178
O O5 0.197033 0.673954 0.321788
O O6 0.666667 0.893179 0.833334
O O7 0.607620 0.857852 0.728861
O O8 0.630262 0.953253 0.778508
O O9 0.709848 0.943837 0.728021
O O10 0.887073 0.112927 0.981357
O O11 0.923122 0.221527 0.951645
O O12 0.000000 0.199942 0.000000
O O13 0.615237 0.571351 0.079300
O O14 0.656357 0.656357 0.000000
O O15 0.460717 0.730359 0.935049
O O16 0.385847 0.614154 0.936028
O O17 0.492934 0.648668 0.904774
O O18 0.919708 0.459854 0.098102
O O19 0.930078 0.531832 0.180232
#
# Coordination Sequence:
#
# PCOD9579185 Si02
#       8
#    18  36  36  36  36  36  36  36
#     4  12  22  36  60  84 124 168 208 244 286 352
#     4  10  23  37  53  84 120 153 198 254 300 342
#     4  11  20  36  58  83 114 152 200 245 288 347
#     4  10  23  40  62  87 118 158 198 246 301 360
#     4  11  19  33  53  77 111 155 197 238 287 346
#     4   9  19  38  61  84 112 150 196 250 314 373
#     4  10  20  33  53  82 116 148 191 246 298 352
#     4  11  20  37  58  84 116 158 200 233 289 354
#
# _framework density 19.518176
#
# number of rings (size 3 to 8) (size 9 to 14) (size 15 to 20)
#    0.000    1.600    2.000    5.333    0.000    4.000 
#    0.000    8.000    0.000    0.133    0.000    2.333 
#    0.000    0.000    0.000    0.000    0.000    0.000 
#
# Total GULP energy -501571.216082 kJ/mol
# GULP energy per Si atom -5573.013512 kJ/mol
# Density = 1.947375 g / cm^3
# Si number density = 19.518176 Si / 1000 Ang^3
#
#
#
# Elastic Constant Matrix: (Units=GPa)
#
#
# Indices 1 2 3 4 5 6 
#
# 1 74.9787 52.6506 33.2042 0.6908 -0.0001 0.0000
# 2 52.6506 74.9787 33.2042 -0.6908 0.0001 0.0000
# 3 33.2042 33.2042 128.6699 0.0000 0.0000 0.0000
# 4 0.6908 -0.6908 0.0000 18.9456 0.0000 0.0001
# 5 -0.0001 0.0001 0.0000 0.0000 18.9456 0.6908
# 6 0.0000 0.0000 0.0000 0.0001 0.6908 11.1640
#
#
#
# Elastic Compliance Matrix: (Units=1/GPa)
#
#
# Indices 1 2 3 4 5 6 
#
# 1 0.026969 -0.017919 -0.002336 -0.001637 0.000000 0.000000
# 2 -0.017919 0.026969 -0.002336 0.001637 0.000000 0.000000
# 3 -0.002336 -0.002336 0.008977 0.000000 0.000000 0.000000
# 4 -0.001637 0.001637 0.000000 0.052902 0.000000 0.000000
# 5 0.000000 0.000000 0.000000 0.000000 0.052902 -0.003273
# 6 0.000000 0.000000 0.000000 0.000000 -0.003273 0.089776
#
#
# Mechanical properties :
#
#
# Convention : Reuss Voigt Hill
#
# Bulk Modulus (GPa) = 56.38264 57.41615 56.89940
# Shear Modulus (GPa) = 16.15053 20.44891 18.29972
#
# Velocity S-wave (km/s) = 2.87968 3.24031 3.06530
# Velocity P-wave (km/s) = 6.32509 6.59394 6.46091
#
# Compressibility (1/GPa) = 0.01773596
#
# Stress axis : x y z
#
# Youngs Moduli (GPa) = 37.07936 37.07936 111.39299
#
# Poissons Ratio (x) = 0.66442 0.26016
# Poissons Ratio (y) = 0.66442 0.26016
# Poissons Ratio (z) = 0.08660 0.08660
#
# Static dielectric constant tensor:
#      x y z
#    x 1.702580 0.000000 0.000000 
#    y 0.000000 1.702580 0.000000 
#    z 0.000000 0.000000 1.831900 
# 
# From -- ./inp_files/8707.got.cif
#   From: 2010.05.17/outbox.cif.g08.bks.cpg/sg166_5_cif.got.tgz:8707.got - 2010.05.20 11:04:41.
