data_PCOD9579141
_publ_section_title
;
Structure prediction by ZEFSAII (Michael W. Deem and Ramdas Pophale) SiO2 
 PCOD9579141
Probable space group: R -3 M
;
_chemical_formula_sum "Si O2"
_cell_formula_units_Z 126
_cell_length_a 22.485012
_cell_length_b 22.485012
_cell_length_c 17.479036
_cell_angle_alpha 90.000000
_cell_angle_beta 90.000000
_cell_angle_gamma 120.000000
_cell_volume 7653.046567
_symmetry_space_group_name_H-M "R -3 M"
_symmetry_group_IT_number 166
_symmetry_cell_setting 'hexagonal'
loop_
_space_group_symop_operation_xyz
x,y,z
-y,x-y,z
-x+y,-x,z
x-y,-y,-z
-x,-x+y,-z
y,x,-z
-x,-y,-z
y,-x+y,-z
x-y,x,-z
-x+y,y,z
x,x-y,z
-y,-x,z
2/3+x,1/3+y,1/3+z
2/3-y,1/3+x-y,1/3+z
2/3-x+y,1/3-x,1/3+z
2/3+x-y,1/3-y,1/3-z
2/3-x,1/3-x+y,1/3-z
2/3+y,1/3+x,1/3-z
2/3-x,1/3-y,1/3-z
2/3+y,1/3-x+y,1/3-z
2/3+x-y,1/3+x,1/3-z
2/3-x+y,1/3+y,1/3+z
2/3+x,1/3+x-y,1/3+z
2/3-y,1/3-x,1/3+z
1/3+x,2/3+y,2/3+z
1/3-y,2/3+x-y,2/3+z
1/3-x+y,2/3-x,2/3+z
1/3+x-y,2/3-y,2/3-z
1/3-x,2/3-x+y,2/3-z
1/3+y,2/3+x,2/3-z
1/3-x,2/3-y,2/3-z
1/3+y,2/3-x+y,2/3-z
1/3+x-y,2/3+x,2/3-z
1/3-x+y,2/3+y,2/3+z
1/3+x,2/3+x-y,2/3+z
1/3-y,2/3-x,2/3+z
loop_
_atom_site_type_symbol
_atom_site_label
_atom_site_fract_x
_atom_site_fract_y
_atom_site_fract_z
Si Si1 0.461806 0.399038 0.280768
Si Si2 0.406673 0.955195 0.895125
Si Si3 0.902536 0.326455 0.955445
Si Si4 0.194903 0.528236 0.166667
O O1 0.538795 0.461206 0.292954
O O2 0.440700 0.333334 0.333334
O O3 0.451715 0.381366 0.190332
O O4 0.408553 0.426084 0.297330
O O5 0.482694 0.965387 0.902078
O O6 0.411824 0.028201 0.912129
O O7 0.358601 0.905557 0.961670
O O8 0.839540 0.316124 0.904368
O O9 0.267461 0.534921 0.184984
#
# Coordination Sequence:
#
# PCOD9579141 Si02
#       4
#    36  36  36  18
#     4  11  22  37  56  82 113 144 178 228 281 330
#     4  10  19  33  55  80 110 146 179 217 267 331
#     4  11  19  33  56  79 108 140 187 221 266 323
#     4  12  23  36  52  78 113 152 190 228 266 316
#
# _framework density 16.464032
#
# number of rings (size 3 to 8) (size 9 to 14) (size 15 to 20)
#    0.000    1.143    5.714    4.429    0.000    0.000 
#    0.000    4.286    0.000    0.286    0.000    0.000 
#    0.000    0.000    0.000    0.000    0.000    0.000 
#
# Total GULP energy -234558.752427 kJ/mol
# GULP energy per Si atom -5584.732201 kJ/mol
# Density = 1.642656 g / cm^3
# Si number density = 16.464032 Si / 1000 Ang^3
#
#
#
# Elastic Constant Matrix: (Units=GPa)
#
#
# Indices 1 2 3 4 5 6 
#
# 1 65.9280 48.2684 52.2937 1.1857 0.0002 0.0000
# 2 48.2684 65.9280 52.2937 -1.1857 -0.0002 0.0000
# 3 52.2937 52.2937 120.9326 0.0000 0.0000 0.0000
# 4 1.1857 -1.1857 0.0000 20.4646 0.0000 -0.0002
# 5 0.0002 -0.0002 0.0000 0.0000 20.4646 1.1857
# 6 0.0000 0.0000 0.0000 -0.0002 1.1857 8.8298
#
#
#
# Elastic Compliance Matrix: (Units=1/GPa)
#
#
# Indices 1 2 3 4 5 6 
#
# 1 0.035785 -0.021286 -0.006270 -0.003307 0.000000 0.000000
# 2 -0.021286 0.035785 -0.006270 0.003307 0.000000 0.000000
# 3 -0.006270 -0.006270 0.013691 0.000000 0.000000 0.000000
# 4 -0.003307 0.003307 0.000000 0.049248 0.000000 0.000001
# 5 0.000000 0.000000 0.000000 0.000000 0.049248 -0.006613
# 6 0.000000 0.000000 0.000000 0.000001 -0.006613 0.114140
#
#
# Mechanical properties :
#
#
# Convention : Reuss Voigt Hill
#
# Bulk Modulus (GPa) = 56.78392 62.05561 59.41976
# Shear Modulus (GPa) = 13.46196 16.61401 15.03798
#
# Velocity S-wave (km/s) = 2.86258 3.18009 3.02550
# Velocity P-wave (km/s) = 6.74465 7.15943 6.95513
#
# Compressibility (1/GPa) = 0.01761062
#
# Stress axis : x y z
#
# Youngs Moduli (GPa) = 27.94500 27.94500 73.03906
#
# Poissons Ratio (x) = 0.59483 0.45793
# Poissons Ratio (y) = 0.59483 0.45793
# Poissons Ratio (z) = 0.17520 0.17520
#
# Static dielectric constant tensor:
#      x y z
#    x 1.539850 0.000000 0.000000 
#    y 0.000000 1.539850 0.000000 
#    z 0.000000 0.000000 1.575770 
# 
# From -- ./inp_files/4878.got.cif
#   From: 2010.05.17/outbox.cif.g08.bks.cpg/sg166_3_cif.got.tgz:4878.got - 2010.05.20 11:04:41.
