data_PCOD9579815
_publ_section_title
;
Structure prediction by ZEFSAII (Michael W. Deem and Ramdas Pophale) SiO2 
 PCOD9579815
Probable space group: P 61
;
_chemical_formula_sum "Si O2"
_cell_formula_units_Z 42
_cell_length_a 10.408442
_cell_length_b 10.408442
_cell_length_c 17.848683
_cell_angle_alpha 90.000000
_cell_angle_beta 90.000000
_cell_angle_gamma 120.000000
_cell_volume 1674.589104
_symmetry_space_group_name_H-M "P 61"
_symmetry_group_IT_number 169
_symmetry_cell_setting 'hexagonal'
loop_
_space_group_symop_operation_xyz
x,y,z
x-y,x,1/6+z
-y,x-y,1/3+z
-x,-y,1/2+z
-x+y,-x,2/3+z
y,-x+y,5/6+z
loop_
_atom_site_type_symbol
_atom_site_label
_atom_site_fract_x
_atom_site_fract_y
_atom_site_fract_z
Si Si1 0.414918 0.981394 0.211960
Si Si2 0.102681 0.364491 0.998108
Si Si3 0.446777 0.545459 0.024714
Si Si4 0.598656 0.767520 0.553479
Si Si5 0.558192 0.711185 0.724410
Si Si6 0.930408 0.521323 0.353859
Si Si7 0.936317 0.947184 0.521018
O O1 0.571116 0.995537 0.190534
O O2 0.458396 0.146576 0.235909
O O3 0.359067 0.877006 0.284059
O O4 0.311223 0.926570 0.138552
O O5 0.110033 0.385777 0.908810
O O6 0.047446 0.198214 0.020109
O O7 0.269229 0.474803 0.028200
O O8 0.460971 0.396532 0.021651
O O9 0.525542 0.626094 0.100690
O O10 0.628458 0.755163 0.641030
O O11 0.487897 0.832486 0.543133
O O12 0.757764 0.876511 0.517677
O O13 0.440036 0.539830 0.704049
O O14 0.008132 0.030776 0.441193
#
# Coordination Sequence:
#
# PCOD9579815 Si02
#       7
#     6   6   6   6   6   6   6
#     4  11  22  38  60  96 132 169 217 268 339 401
#     4  10  20  38  62  94 132 165 220 280 332 401
#     4  10  21  33  59  93 124 169 211 263 331 402
#     4  10  18  39  65  96 118 161 230 279 324 388
#     4  10  20  36  60  91 126 163 212 274 324 390
#     4  10  20  38  66  93 126 166 215 285 335 392
#     4  11  23  40  72  99 128 177 233 289 335 398
#
# _framework density 25.080777999999999
#
# number of rings (size 3 to 8) (size 9 to 14) (size 15 to 20)
#    0.000    1.714    2.857    5.143    0.000    2.286 
#    0.000    0.000    6.286    0.000    0.000    0.000 
#    0.000    0.000    0.000    0.000    0.000    0.000 
#
# Total GULP energy -234302.097771 kJ/mol
# GULP energy per Si atom -5578.621376 kJ/mol
# Density = 2.502369 g / cm^3
# Si number density = 25.080778 Si / 1000 Ang^3
#
#
#
# Elastic Constant Matrix: (Units=GPa)
#
#
# Indices 1 2 3 4 5 6 
#
# 1 48.6900 21.3178 25.6474 0.0000 0.0000 0.0000
# 2 21.3178 48.6900 25.6474 0.0000 0.0000 0.0000
# 3 25.6474 25.6474 230.4807 0.0000 0.0000 0.0000
# 4 0.0000 0.0000 0.0000 34.1405 0.0000 0.0000
# 5 0.0000 0.0000 0.0000 0.0000 34.1405 0.0000
# 6 0.0000 0.0000 0.0000 0.0000 0.0000 13.6861
#
#
#
# Elastic Compliance Matrix: (Units=1/GPa)
#
#
# Indices 1 2 3 4 5 6 
#
# 1 0.026043 -0.010491 -0.001731 0.000000 0.000000 0.000000
# 2 -0.010491 0.026043 -0.001731 0.000000 0.000000 0.000000
# 3 -0.001731 -0.001731 0.004724 0.000000 0.000000 0.000000
# 4 0.000000 0.000000 0.000000 0.029291 0.000000 0.000000
# 5 0.000000 0.000000 0.000000 0.000000 0.029291 0.000000
# 6 0.000000 0.000000 0.000000 0.000000 0.000000 0.073067
#
#
# Mechanical properties :
#
#
# Convention : Reuss Voigt Hill
#
# Bulk Modulus (GPa) = 34.59518 52.56509 43.58013
# Shear Modulus (GPa) = 22.12423 33.40998 27.76710
#
# Velocity S-wave (km/s) = 2.97327 3.65375 3.33093
# Velocity P-wave (km/s) = 5.06069 6.22926 5.67513
#
# Compressibility (1/GPa) = 0.02890576
#
# Stress axis : x y z
#
# Youngs Moduli (GPa) = 38.39838 38.39838 211.68894
#
# Poissons Ratio (x) = 0.40282 0.36635
# Poissons Ratio (y) = 0.40282 0.36635
# Poissons Ratio (z) = 0.06645 0.06645
#
# Static dielectric constant tensor:
#      x y z
#    x 2.001740 0.000000 0.000000 
#    y 0.000000 2.001740 0.000000 
#    z 0.000000 0.000000 2.074680 
# 
# From -- ./inp_files/1386.got.cif
#   From: 2010.05.17/outbox.cif.g08.bks.cpg/sg169_cif.got.tgz:1386.got - 2010.05.20 11:12:54.
