data_PCOD9579821
_publ_section_title
;
Structure prediction by ZEFSAII (Michael W. Deem and Ramdas Pophale) SiO2 
 PCOD9579821
Probable space group: P 61
;
_chemical_formula_sum "Si O2"
_cell_formula_units_Z 42
_cell_length_a 18.828570
_cell_length_b 18.828570
_cell_length_c 7.886828
_cell_angle_alpha 90.000000
_cell_angle_beta 90.000000
_cell_angle_gamma 120.000000
_cell_volume 2421.406344
_symmetry_space_group_name_H-M "P 61"
_symmetry_group_IT_number 169
_symmetry_cell_setting 'hexagonal'
loop_
_space_group_symop_operation_xyz
x,y,z
x-y,x,1/6+z
-y,x-y,1/3+z
-x,-y,1/2+z
-x+y,-x,2/3+z
y,-x+y,5/6+z
loop_
_atom_site_type_symbol
_atom_site_label
_atom_site_fract_x
_atom_site_fract_y
_atom_site_fract_z
Si Si1 0.436075 0.039237 0.681310
Si Si2 0.473053 0.118629 0.052355
Si Si3 0.446621 0.396171 0.327297
Si Si4 0.748143 0.190917 0.525393
Si Si5 0.867537 0.510131 0.365637
Si Si6 0.456317 0.197036 0.544034
Si Si7 0.718706 0.365893 0.803930
O O1 0.452989 0.070498 0.874558
O O2 0.521667 0.051354 0.604083
O O3 0.414688 0.103468 0.597700
O O4 0.373563 0.943585 0.650715
O O5 0.571497 0.154973 0.076198
O O6 0.439499 0.181830 0.068056
O O7 0.426781 0.045128 0.186421
O O8 0.412169 0.318010 0.201681
O O9 0.471515 0.373542 0.506130
O O10 0.791816 0.208246 0.708061
O O11 0.684598 0.224606 0.514947
O O12 0.795072 0.531642 0.355535
O O13 0.549870 0.227819 0.489231
O O14 0.680134 0.349382 0.618031
#
# Coordination Sequence:
#
# PCOD9579821 Si02
#       7
#     6   6   6   6   6   6   6
#     4  10  19  32  46  65  90 116 156 200 244 294
#     4  10  20  31  46  67  88 118 157 198 248 294
#     4   9  18  34  46  60  90 118 156 194 240 295
#     4  10  19  31  46  66  86 121 152 197 249 286
#     4   9  19  33  47  62  87 123 154 197 247 289
#     4  10  19  31  47  64  89 118 155 198 243 294
#     4  10  20  30  44  66  90 114 152 198 247 290
#
# _framework density 17.345292000000001
#
# number of rings (size 3 to 8) (size 9 to 14) (size 15 to 20)
#    0.000    2.286    1.429    1.714    4.000    2.286 
#    0.000    0.000    0.000    0.000    0.000    0.000 
#    0.000    0.000    0.000    0.000    0.000   34.286 
#
# Total GULP energy -233955.132178 kJ/mol
# GULP energy per Si atom -5570.360290 kJ/mol
# Density = 1.730581 g / cm^3
# Si number density = 17.345292 Si / 1000 Ang^3
#
#
#
# Elastic Constant Matrix: (Units=GPa)
#
#
# Indices 1 2 3 4 5 6 
#
# 1 51.5157 7.2491 11.4168 0.0000 0.0000 0.0000
# 2 7.2491 51.5157 11.4168 0.0000 0.0000 0.0000
# 3 11.4168 11.4168 53.5892 0.0000 0.0000 0.0000
# 4 0.0000 0.0000 0.0000 19.8213 0.0000 0.0000
# 5 0.0000 0.0000 0.0000 0.0000 19.8213 0.0000
# 6 0.0000 0.0000 0.0000 0.0000 0.0000 22.1333
#
#
#
# Elastic Compliance Matrix: (Units=1/GPa)
#
#
# Indices 1 2 3 4 5 6 
#
# 1 0.020572 -0.002019 -0.003953 0.000000 0.000000 0.000000
# 2 -0.002019 0.020572 -0.003953 0.000000 0.000000 0.000000
# 3 -0.003953 -0.003953 0.020345 0.000000 0.000000 0.000000
# 4 0.000000 0.000000 0.000000 0.050451 0.000000 0.000000
# 5 0.000000 0.000000 0.000000 0.000000 0.050451 0.000000
# 6 0.000000 0.000000 0.000000 0.000000 0.000000 0.045181
#
#
# Mechanical properties :
#
#
# Convention : Reuss Voigt Hill
#
# Bulk Modulus (GPa) = 24.01538 24.08735 24.05136
# Shear Modulus (GPa) = 20.72128 20.79104 20.75616
#
# Velocity S-wave (km/s) = 3.46010 3.46592 3.46301
# Velocity P-wave (km/s) = 5.46247 5.47119 5.46683
#
# Compressibility (1/GPa) = 0.04163999
#
# Stress axis : x y z
#
# Youngs Moduli (GPa) = 48.61069 48.61069 49.15311
#
# Poissons Ratio (x) = 0.09813 0.19428
# Poissons Ratio (y) = 0.09813 0.19428
# Poissons Ratio (z) = 0.19214 0.19214
#
# Static dielectric constant tensor:
#      x y z
#    x 1.625690 0.000000 0.000000 
#    y 0.000000 1.625690 0.000000 
#    z 0.000000 0.000000 1.713160 
# 
# From -- ./inp_files/677.got.cif
#   From: 2010.05.17/outbox.cif.g08.bks.cpg/sg169_cif.got.tgz:677.got - 2010.05.20 11:12:54.
