data_PCOD9579357
_publ_section_title
;
Structure prediction by ZEFSAII (Michael W. Deem and Ramdas Pophale) SiO2 
 PCOD9579357
Probable space group: R -3 M
;
_chemical_formula_sum "Si O2"
_cell_formula_units_Z 144
_cell_length_a 28.973794
_cell_length_b 28.973794
_cell_length_c 9.195578
_cell_angle_alpha 90.000000
_cell_angle_beta 90.000000
_cell_angle_gamma 120.000000
_cell_volume 6685.292295
_symmetry_space_group_name_H-M "R -3 M"
_symmetry_group_IT_number 166
_symmetry_cell_setting 'hexagonal'
loop_
_space_group_symop_operation_xyz
x,y,z
-y,x-y,z
-x+y,-x,z
x-y,-y,-z
-x,-x+y,-z
y,x,-z
-x,-y,-z
y,-x+y,-z
x-y,x,-z
-x+y,y,z
x,x-y,z
-y,-x,z
2/3+x,1/3+y,1/3+z
2/3-y,1/3+x-y,1/3+z
2/3-x+y,1/3-x,1/3+z
2/3+x-y,1/3-y,1/3-z
2/3-x,1/3-x+y,1/3-z
2/3+y,1/3+x,1/3-z
2/3-x,1/3-y,1/3-z
2/3+y,1/3-x+y,1/3-z
2/3+x-y,1/3+x,1/3-z
2/3-x+y,1/3+y,1/3+z
2/3+x,1/3+x-y,1/3+z
2/3-y,1/3-x,1/3+z
1/3+x,2/3+y,2/3+z
1/3-y,2/3+x-y,2/3+z
1/3-x+y,2/3-x,2/3+z
1/3+x-y,2/3-y,2/3-z
1/3-x,2/3-x+y,2/3-z
1/3+y,2/3+x,2/3-z
1/3-x,2/3-y,2/3-z
1/3+y,2/3-x+y,2/3-z
1/3+x-y,2/3+x,2/3-z
1/3-x+y,2/3+y,2/3+z
1/3+x,2/3+x-y,2/3+z
1/3-y,2/3-x,2/3+z
loop_
_atom_site_type_symbol
_atom_site_label
_atom_site_fract_x
_atom_site_fract_y
_atom_site_fract_z
Si Si1 0.781306 0.562612 0.850333
Si Si2 0.611224 0.388777 0.739852
Si Si3 0.883100 0.441550 0.151827
Si Si4 0.880650 0.940325 0.944536
Si Si5 0.714431 0.618718 0.945416
Si Si6 0.302598 0.894066 0.541033
O O1 0.754062 0.508124 0.937407
O O2 0.768191 0.536381 0.687625
O O3 0.753828 0.597324 0.895116
O O4 0.578825 0.333334 0.833334
O O5 0.615201 0.384800 0.563850
O O6 0.842268 0.421134 0.290555
O O7 0.916931 0.411746 0.156145
O O8 0.908047 0.908047 0.000000
O O9 0.666667 0.595094 0.833334
O O10 0.741234 0.682136 0.936326
O O11 0.682662 0.594652 0.094123
O O12 0.333334 0.882683 0.666667
#
# Coordination Sequence:
#
# PCOD9579357 Si02
#       6
#    18  18  18  18  36  36
#     4  12  27  45  72 107 148 196 253 308 377 445
#     4  12  27  48  79 111 150 195 252 309 371 451
#     4  12  27  47  72 107 152 198 249 309 377 449
#     4  12  27  48  77 111 152 197 246 308 379 441
#     4  12  25  46  74 105 147 194 249 310 376 449
#     4  12  27  46  74 108 147 195 249 311 378 452
#
# _framework density 21.539821
#
# number of rings (size 3 to 8) (size 9 to 14) (size 15 to 20)
#    0.000    0.000    2.500    7.750    7.000    1.000 
#    0.000    2.500    0.000    0.000    0.000    0.000 
#    0.000    0.000    0.000    0.000    0.000    0.000 
#
# Total GULP energy -267300.121006 kJ/mol
# GULP energy per Si atom -5568.752521 kJ/mol
# Density = 2.149080 g / cm^3
# Si number density = 21.539821 Si / 1000 Ang^3
#
#
#
# Elastic Constant Matrix: (Units=GPa)
#
#
# Indices 1 2 3 4 5 6 
#
# 1 101.8385 23.8159 14.9985 -6.1716 -0.0151 0.0002
# 2 23.8159 101.8600 15.0326 6.1798 0.0057 0.0009
# 3 14.9985 15.0326 142.0793 0.0191 -0.0184 0.0057
# 4 -6.1716 6.1798 0.0191 32.8233 0.0086 -0.0031
# 5 -0.0151 0.0057 -0.0184 0.0086 32.8035 -6.1755
# 6 0.0002 0.0009 0.0057 -0.0031 -6.1755 39.0158
#
#
#
# Elastic Compliance Matrix: (Units=1/GPa)
#
#
# Indices 1 2 3 4 5 6 
#
# 1 0.010687 -0.002522 -0.000862 0.002485 0.000004 0.000001
# 2 -0.002522 0.010685 -0.000864 -0.002486 -0.000003 -0.000001
# 3 -0.000862 -0.000864 0.007221 -0.000004 0.000004 0.000000
# 4 0.002485 -0.002486 -0.000004 0.031401 -0.000006 0.000002
# 5 0.000004 -0.000003 0.000004 -0.000006 0.031421 0.004973
# 6 0.000001 -0.000001 0.000000 0.000002 0.004973 0.026418
#
#
# Mechanical properties :
#
#
# Convention : Reuss Voigt Hill
#
# Bulk Modulus (GPa) = 49.75814 50.38576 50.07195
# Shear Modulus (GPa) = 37.58617 40.39058 38.98837
#
# Velocity S-wave (km/s) = 4.18181 4.33501 4.25910
# Velocity P-wave (km/s) = 6.81670 6.96413 6.89081
#
# Compressibility (1/GPa) = 0.02009722
#
# Stress axis : x y z
#
# Youngs Moduli (GPa) = 93.57333 93.58534 138.49089
#
# Poissons Ratio (x) = 0.23605 0.11933
# Poissons Ratio (y) = 0.23602 0.11965
# Poissons Ratio (z) = 0.08062 0.08085
#
# Static dielectric constant tensor:
#      x y z
#    x 2.110020 -0.000490 0.000750 
#    y -0.000490 2.108700 -0.001110 
#    z 0.000750 -0.001110 -0.576690 
# 
# From -- ./inp_files/1919.got.cif
#   From: 2010.05.17/outbox.cif.g08.bks.cpg/sg166_1_cif.got.tgz:1919.got - 2010.05.20 11:04:41.
