data_PCOD9579286
_publ_section_title
;
Structure prediction by ZEFSAII (Michael W. Deem and Ramdas Pophale) SiO2 
 PCOD9579286
Probable space group: R -3 M
;
_chemical_formula_sum "Si O2"
_cell_formula_units_Z 108
_cell_length_a 20.291954
_cell_length_b 20.291954
_cell_length_c 14.313749
_cell_angle_alpha 90.000000
_cell_angle_beta 90.000000
_cell_angle_gamma 120.000000
_cell_volume 5104.248000
_symmetry_space_group_name_H-M "R -3 M"
_symmetry_group_IT_number 166
_symmetry_cell_setting 'hexagonal'
loop_
_space_group_symop_operation_xyz
x,y,z
-y,x-y,z
-x+y,-x,z
x-y,-y,-z
-x,-x+y,-z
y,x,-z
-x,-y,-z
y,-x+y,-z
x-y,x,-z
-x+y,y,z
x,x-y,z
-y,-x,z
2/3+x,1/3+y,1/3+z
2/3-y,1/3+x-y,1/3+z
2/3-x+y,1/3-x,1/3+z
2/3+x-y,1/3-y,1/3-z
2/3-x,1/3-x+y,1/3-z
2/3+y,1/3+x,1/3-z
2/3-x,1/3-y,1/3-z
2/3+y,1/3-x+y,1/3-z
2/3+x-y,1/3+x,1/3-z
2/3-x+y,1/3+y,1/3+z
2/3+x,1/3+x-y,1/3+z
2/3-y,1/3-x,1/3+z
1/3+x,2/3+y,2/3+z
1/3-y,2/3+x-y,2/3+z
1/3-x+y,2/3-x,2/3+z
1/3+x-y,2/3-y,2/3-z
1/3-x,2/3-x+y,2/3-z
1/3+y,2/3+x,2/3-z
1/3-x,2/3-y,2/3-z
1/3+y,2/3-x+y,2/3-z
1/3+x-y,2/3+x,2/3-z
1/3-x+y,2/3+y,2/3+z
1/3+x,2/3+x-y,2/3+z
1/3-y,2/3-x,2/3+z
loop_
_atom_site_type_symbol
_atom_site_label
_atom_site_fract_x
_atom_site_fract_y
_atom_site_fract_z
Si Si1 0.126965 0.253930 0.283382
Si Si2 0.969242 0.484621 0.711259
Si Si3 0.913224 0.086776 0.529143
Si Si4 0.089886 0.544943 0.492512
Si Si5 0.599823 0.911641 0.533837
O O1 0.166667 0.333334 0.333334
O O2 0.094688 0.189375 0.361006
O O3 0.191590 0.255492 0.220134
O O4 0.918489 0.459245 0.804520
O O5 0.910471 0.455236 0.622568
O O6 0.021427 0.577574 0.722593
O O7 0.000000 0.128494 0.500000
O O8 0.111893 0.623019 0.545593
O O9 0.000000 0.500000 0.500000
O O10 0.649230 0.000000 0.500000
#
# Coordination Sequence:
#
# PCOD9579286 Si02
#       5
#    18  18  18  18  36
#     4  11  22  35  59  88 117 160 194 246 299 352
#     4  11  22  35  61  84 115 162 201 245 307 355
#     4  12  24  38  58  87 125 166 206 244 291 364
#     4  10  23  37  57  84 115 153 193 251 297 343
#     4  10  22  37  58  86 119 151 199 247 297 355
#
# _framework density 21.158846
#
# number of rings (size 3 to 8) (size 9 to 14) (size 15 to 20)
#    0.000    1.333    3.333    3.167    4.667    4.000 
#    0.000    0.000    0.000    5.333    0.000    0.000 
#    0.000   42.667    0.000    0.000    0.000    0.000 
#
# Total GULP energy -200571.033641 kJ/mol
# GULP energy per Si atom -5571.417601 kJ/mol
# Density = 2.111069 g / cm^3
# Si number density = 21.158846 Si / 1000 Ang^3
#
#
#
# Elastic Constant Matrix: (Units=GPa)
#
#
# Indices 1 2 3 4 5 6 
#
# 1 144.8496 28.2834 20.7845 -23.6575 0.0000 0.0000
# 2 28.2834 144.8496 20.7845 23.6575 0.0000 0.0000
# 3 20.7845 20.7845 105.8136 0.0000 0.0000 0.0000
# 4 -23.6575 23.6575 0.0000 34.4507 0.0000 0.0000
# 5 0.0000 0.0000 0.0000 0.0000 34.4507 -23.6575
# 6 0.0000 0.0000 0.0000 0.0000 -23.6575 58.2831
#
#
#
# Elastic Compliance Matrix: (Units=1/GPa)
#
#
# Indices 1 2 3 4 5 6 
#
# 1 0.008978 -0.002916 -0.001191 0.008168 0.000000 0.000000
# 2 -0.002916 0.008978 -0.001191 -0.008168 0.000000 0.000000
# 3 -0.001191 -0.001191 0.009918 0.000000 0.000000 0.000000
# 4 0.008168 -0.008168 0.000000 0.040245 0.000000 0.000000
# 5 0.000000 0.000000 0.000000 0.000000 0.040245 0.016336
# 6 0.000000 0.000000 0.000000 0.000000 0.016336 0.023788
#
#
# Mechanical properties :
#
#
# Convention : Reuss Voigt Hill
#
# Bulk Modulus (GPa) = 57.87315 59.46860 58.67088
# Shear Modulus (GPa) = 33.66846 47.14761 40.40804
#
# Velocity S-wave (km/s) = 3.99334 4.72558 4.37481
# Velocity P-wave (km/s) = 6.97664 7.61194 7.30120
#
# Compressibility (1/GPa) = 0.01727917
#
# Stress axis : x y z
#
# Youngs Moduli (GPa) = 111.38357 111.38357 100.82324
#
# Poissons Ratio (x) = 0.32482 0.12005
# Poissons Ratio (y) = 0.32482 0.12005
# Poissons Ratio (z) = 0.13262 0.13262
#
# Static dielectric constant tensor:
#      x y z
#    x 1.846660 0.000000 0.000000 
#    y 0.000000 1.846660 0.000000 
#    z 0.000000 0.000000 4.922430 
# 
# From -- ./inp_files/3724.got.cif
#   From: 2010.05.17/outbox.cif.g08.bks.cpg/sg166_2_cif.got.tgz:3724.got - 2010.05.20 11:04:41.
