data_PCOD9579766
_publ_section_title
;
Structure prediction by ZEFSAII (Michael W. Deem and Ramdas Pophale) SiO2 
 PCOD9579766
Probable space group: P 6
;
_chemical_formula_sum "Si O2"
_cell_formula_units_Z 40
_cell_length_a 18.901956
_cell_length_b 18.901956
_cell_length_c 7.771757
_cell_angle_alpha 90.000000
_cell_angle_beta 90.000000
_cell_angle_gamma 120.000000
_cell_volume 2404.713494
_symmetry_space_group_name_H-M "P 6"
_symmetry_group_IT_number 168
_symmetry_cell_setting 'hexagonal'
loop_
_space_group_symop_operation_xyz
x,y,z
x-y,x,z
-y,x-y,z
-x,-y,z
-x+y,-x,z
y,-x+y,z
loop_
_atom_site_type_symbol
_atom_site_label
_atom_site_fract_x
_atom_site_fract_y
_atom_site_fract_z
Si Si1 0.266590 0.783624 0.926800
Si Si2 0.594256 0.031875 0.321856
Si Si3 0.594256 0.031877 0.921978
Si Si4 0.687425 0.686253 0.621917
Si Si5 0.817019 0.639562 0.621918
Si Si6 0.783625 0.517035 0.317035
Si Si7 0.666668 0.333334 0.827905
Si Si8 0.666668 0.333334 0.415927
O O1 0.351530 0.869691 0.907430
O O2 0.206084 0.786345 0.787603
O O3 0.284799 0.710931 0.892635
O O4 0.237460 0.779056 0.121917
O O5 0.648471 0.130307 0.336406
O O6 0.500000 0.000000 0.363786
O O7 0.634620 0.998031 0.455236
O O8 0.598456 0.010562 0.121916
O O9 0.500000 0.000000 0.880047
O O10 0.634622 0.998034 0.788598
O O11 0.775652 0.695009 0.621919
O O12 0.685230 0.770158 0.621916
O O13 0.786344 0.580261 0.456232
O O14 0.710934 0.426132 0.351198
O O15 0.666668 0.333334 0.621916
#
# Coordination Sequence:
#
# PCOD9579766 Si02
#       8
#     6   6   6   6   6   6   2   2
#     4  10  21  35  49  72 104 139 180 218 255 300
#     4   9  19  33  51  74 100 136 176 212 255 302
#     4   9  19  33  51  74 100 136 176 212 255 302
#     4  10  21  36  56  75 104 130 170 216 268 317
#     4  10  22  38  56  79 100 134 169 218 266 328
#     4  10  21  35  49  72 104 139 180 218 255 300
#     4  12  22  32  49  73 107 145 190 221 256 286
#     4  12  22  32  49  73 107 145 190 221 256 286
#
# _framework density 16.633997000000001
#
# number of rings (size 3 to 8) (size 9 to 14) (size 15 to 20)
#    0.000    2.100    1.500    1.350    4.200    1.200 
#    0.000    0.000    0.000    0.300    0.000    0.000 
#    0.000    0.000    0.000   15.000    0.000    0.000 
#
# Total GULP energy -223315.925908 kJ/mol
# GULP energy per Si atom -5582.898148 kJ/mol
# Density = 1.659614 g / cm^3
# Si number density = 16.633997 Si / 1000 Ang^3
#
#
#
# Elastic Constant Matrix: (Units=GPa)
#
#
# Indices 1 2 3 4 5 6 
#
# 1 73.0995 54.3507 36.5602 0.0000 0.0000 -0.0006
# 2 54.3507 73.0999 36.5602 0.0000 0.0000 -0.0005
# 3 36.5602 36.5602 99.8935 0.0000 0.0000 -0.0003
# 4 0.0000 0.0000 0.0000 4.1934 -0.0001 0.0000
# 5 0.0000 0.0000 0.0000 -0.0001 4.1934 0.0000
# 6 -0.0006 -0.0005 -0.0003 0.0000 0.0000 9.3746
#
#
#
# Elastic Compliance Matrix: (Units=1/GPa)
#
#
# Indices 1 2 3 4 5 6 
#
# 1 0.031634 -0.021702 -0.003635 0.000000 0.000000 0.000001
# 2 -0.021702 0.031634 -0.003635 0.000000 0.000000 0.000000
# 3 -0.003635 -0.003635 0.012671 0.000000 0.000000 0.000000
# 4 0.000000 0.000000 0.000000 0.238471 0.000004 0.000000
# 5 0.000000 0.000000 0.000000 0.000004 0.238473 0.000000
# 6 0.000001 0.000000 0.000000 0.000000 0.000000 0.106671
#
#
# Mechanical properties :
#
#
# Convention : Reuss Voigt Hill
#
# Bulk Modulus (GPa) = 55.57105 55.67057 55.62081
# Shear Modulus (GPa) = 6.91089 11.46039 9.18564
#
# Velocity S-wave (km/s) = 2.04051 2.62768 2.35249
# Velocity P-wave (km/s) = 6.24758 6.53811 6.39449
#
# Compressibility (1/GPa) = 0.01799498
#
# Stress axis : x y z
#
# Youngs Moduli (GPa) = 31.61151 31.61168 78.91829
#
# Poissons Ratio (x) = 0.68605 0.28686
# Poissons Ratio (y) = 0.68605 0.28686
# Poissons Ratio (z) = 0.11490 0.11490
#
# Static dielectric constant tensor:
#      x y z
#    x 1.542620 0.000000 0.000000 
#    y 0.000000 1.542620 0.000000 
#    z 0.000000 0.000000 1.577970 
# 
# From -- ./inp_files/325.got.cif
#   From: 2010.05.17/outbox.cif.g08.bks.cpg/sg168_cif.got.tgz:325.got - 2010.05.20 11:12:33.
