data_PCOD9579593
_publ_section_title
;
Structure prediction by ZEFSAII (Michael W. Deem and Ramdas Pophale) SiO2 
 PCOD9579593
Probable space group: R -3 C 
;
_chemical_formula_sum "Si O2"
_cell_formula_units_Z 108
_cell_length_a 17.245972
_cell_length_b 17.245972
_cell_length_c 20.422778
_cell_angle_alpha 90.000000
_cell_angle_beta 90.000000
_cell_angle_gamma 120.000000
_cell_volume 5260.424618
_symmetry_space_group_name_H-M "R -3 C "
_symmetry_group_IT_number 167
_symmetry_cell_setting 'hexagonal'
loop_
_space_group_symop_operation_xyz
x,y,z
-y,x-y,z
-x+y,-x,z
x-y,-y,1/2-z
-x,-x+y,1/2-z
y,x,1/2-z
-x,-y,-z
y,-x+y,-z
x-y,x,-z
-x+y,y,1/2+z
x,x-y,1/2+z
-y,-x,1/2+z
2/3+x,1/3+y,1/3+z
2/3-y,1/3+x-y,1/3+z
2/3-x+y,1/3-x,1/3+z
2/3+x-y,1/3-y,5/6-z
2/3-x,1/3-x+y,5/6-z
2/3+y,1/3+x,5/6-z
2/3-x,1/3-y,1/3-z
2/3+y,1/3-x+y,1/3-z
2/3+x-y,1/3+x,1/3-z
2/3-x+y,1/3+y,5/6+z
2/3+x,1/3+x-y,5/6+z
2/3-y,1/3-x,5/6+z
1/3+x,2/3+y,2/3+z
1/3-y,2/3+x-y,2/3+z
1/3-x+y,2/3-x,2/3+z
1/3+x-y,2/3-y,1/6-z
1/3-x,2/3-x+y,1/6-z
1/3+y,2/3+x,1/6-z
1/3-x,2/3-y,2/3-z
1/3+y,2/3-x+y,2/3-z
1/3+x-y,2/3+x,2/3-z
1/3-x+y,2/3+y,1/6+z
1/3+x,2/3+x-y,1/6+z
1/3-y,2/3-x,1/6+z
loop_
_atom_site_type_symbol
_atom_site_label
_atom_site_fract_x
_atom_site_fract_y
_atom_site_fract_z
Si Si1 0.849606 0.335658 0.256012
Si Si2 0.419645 0.022414 0.521032
Si Si3 0.666475 0.148226 0.906569
O O1 0.914264 0.324067 0.206413
O O2 0.877338 0.333834 0.331131
O O3 0.849493 0.426548 0.246018
O O4 0.750470 0.249202 0.251088
O O5 0.500000 0.000000 0.500000
O O6 0.416214 0.082880 0.583334
O O7 0.418182 0.074374 0.457548
#
# Coordination Sequence:
#
# PCOD9579593 Si02
#       3
#    36  36  36
#     4   9  18  37  64  92 117 161 208 263 312 376
#     4  10  22  42  59  89 129 164 211 261 326 385
#     4   9  18  37  63  90 120 156 212 260 313 376
#
# _framework density 20.530663000000001
#
# number of rings (size 3 to 8) (size 9 to 14) (size 15 to 20)
#    0.000    2.667    0.000    0.667    0.000    4.000 
#   24.000    5.000    0.000    0.000    0.000    0.000 
#    0.000    0.000    0.000    0.000    0.000    0.000 
#
# Total GULP energy -200426.758740 kJ/mol
# GULP energy per Si atom -5567.409965 kJ/mol
# Density = 2.048393 g / cm^3
# Si number density = 20.530663 Si / 1000 Ang^3
#
#
#
# Elastic Constant Matrix: (Units=GPa)
#
#
# Indices 1 2 3 4 5 6 
#
# 1 126.0709 71.4134 86.8639 9.2585 0.0001 0.0000
# 2 71.4134 126.0709 86.8639 -9.2585 -0.0001 0.0000
# 3 86.8639 86.8639 135.2525 0.0000 0.0000 0.0000
# 4 9.2585 -9.2585 0.0000 32.0937 0.0000 -0.0001
# 5 0.0001 -0.0001 0.0000 0.0000 32.0937 9.2585
# 6 0.0000 0.0000 0.0000 -0.0001 9.2585 27.3287
#
#
#
# Elastic Compliance Matrix: (Units=1/GPa)
#
#
# Indices 1 2 3 4 5 6 
#
# 1 0.015959 -0.004319 -0.007476 -0.005850 0.000000 0.000000
# 2 -0.004319 0.015959 -0.007476 0.005850 0.000000 0.000000
# 3 -0.007476 -0.007476 0.016996 0.000000 0.000000 0.000000
# 4 -0.005850 0.005850 0.000000 0.034534 0.000000 0.000000
# 5 0.000000 0.000000 0.000000 0.000000 0.034534 -0.011699
# 6 0.000000 0.000000 0.000000 0.000000 -0.011699 0.040555
#
#
# Mechanical properties :
#
#
# Convention : Reuss Voigt Hill
#
# Bulk Modulus (GPa) = 96.40101 97.51963 96.96032
# Shear Modulus (GPa) = 24.93342 27.78677 26.36009
#
# Velocity S-wave (km/s) = 3.48867 3.68289 3.58709
# Velocity P-wave (km/s) = 7.95515 8.10478 8.03031
#
# Compressibility (1/GPa) = 0.01037334
#
# Stress axis : x y z
#
# Youngs Moduli (GPa) = 62.66132 62.66132 58.83789
#
# Poissons Ratio (x) = 0.27062 0.43985
# Poissons Ratio (y) = 0.27062 0.43985
# Poissons Ratio (z) = 0.46843 0.46843
#
# Static dielectric constant tensor:
#      x y z
#    x 1.753580 0.000000 0.000000 
#    y 0.000000 1.753580 0.000000 
#    z 0.000000 0.000000 1.725660 
# 
# From -- ./inp_files/4045.got.cif
#   From: 2010.05.17/outbox.cif.g08.bks.cpg/sg167_3_cif.got.tgz:4045.got - 2010.05.20 11:09:15.
