data_PCOD9579149
_publ_section_title
;
Structure prediction by ZEFSAII (Michael W. Deem and Ramdas Pophale) SiO2 
 PCOD9579149
Probable space group: R -3 M
;
_chemical_formula_sum "Si O2"
_cell_formula_units_Z 252
_cell_length_a 29.913124
_cell_length_b 29.913124
_cell_length_c 18.325067
_cell_angle_alpha 90.000000
_cell_angle_beta 90.000000
_cell_angle_gamma 120.000000
_cell_volume 14200.372782
_symmetry_space_group_name_H-M "R -3 M"
_symmetry_group_IT_number 166
_symmetry_cell_setting 'hexagonal'
loop_
_space_group_symop_operation_xyz
x,y,z
-y,x-y,z
-x+y,-x,z
x-y,-y,-z
-x,-x+y,-z
y,x,-z
-x,-y,-z
y,-x+y,-z
x-y,x,-z
-x+y,y,z
x,x-y,z
-y,-x,z
2/3+x,1/3+y,1/3+z
2/3-y,1/3+x-y,1/3+z
2/3-x+y,1/3-x,1/3+z
2/3+x-y,1/3-y,1/3-z
2/3-x,1/3-x+y,1/3-z
2/3+y,1/3+x,1/3-z
2/3-x,1/3-y,1/3-z
2/3+y,1/3-x+y,1/3-z
2/3+x-y,1/3+x,1/3-z
2/3-x+y,1/3+y,1/3+z
2/3+x,1/3+x-y,1/3+z
2/3-y,1/3-x,1/3+z
1/3+x,2/3+y,2/3+z
1/3-y,2/3+x-y,2/3+z
1/3-x+y,2/3-x,2/3+z
1/3+x-y,2/3-y,2/3-z
1/3-x,2/3-x+y,2/3-z
1/3+y,2/3+x,2/3-z
1/3-x,2/3-y,2/3-z
1/3+y,2/3-x+y,2/3-z
1/3+x-y,2/3+x,2/3-z
1/3-x+y,2/3+y,2/3+z
1/3+x,2/3+x-y,2/3+z
1/3-y,2/3-x,2/3+z
loop_
_atom_site_type_symbol
_atom_site_label
_atom_site_fract_x
_atom_site_fract_y
_atom_site_fract_z
Si Si1 0.489780 0.615300 0.969750
Si Si2 0.000929 0.107396 0.778694
Si Si3 0.420087 0.947781 0.727377
Si Si4 0.624298 0.040279 0.123346
Si Si5 0.646120 0.568989 0.914560
Si Si6 0.694131 0.493613 0.406118
Si Si7 0.046261 0.725409 0.693702
O O1 0.439486 0.560515 0.959670
O O2 0.473096 0.656923 0.948705
O O3 0.532683 0.617413 0.914546
O O4 0.513133 0.621868 0.049930
O O5 0.052212 0.104423 0.767955
O O6 0.004059 0.136915 0.854634
O O7 0.950300 0.049701 0.780741
O O8 0.477337 0.954673 0.738961
O O9 0.397833 0.966029 0.795032
O O10 0.379174 0.886767 0.726318
O O11 0.418231 0.977712 0.654847
O O12 0.683460 0.055694 0.103000
O O13 0.590000 0.984188 0.086792
O O14 0.666667 0.573592 0.833334
O O15 0.691081 0.606471 0.970267
O O16 0.746793 0.493586 0.416595
O O17 0.666667 0.463728 0.333334
O O18 0.023028 0.666667 0.666667
#
# Coordination Sequence:
#
# PCOD9579149 Si02
#       7
#    36  36  36  36  36  36  36
#     4  10  20  35  54  80 108 137 176 225 277 332
#     4  10  20  36  57  80 107 141 182 226 274 334
#     4  11  20  33  55  82 110 144 185 229 278 331
#     4  10  19  34  56  76 108 143 182 225 273 325
#     4  10  19  34  52  76 109 139 180 219 267 327
#     4  10  20  34  54  79 108 139 177 221 274 332
#     4   9  19  33  52  76 102 143 184 221 263 327
#
# _framework density 17.746013000000001
#
# number of rings (size 3 to 8) (size 9 to 14) (size 15 to 20)
#    0.000    2.000    2.857    2.714    0.000    1.714 
#    0.000    3.571    0.000    2.286    0.000    3.000 
#    0.000    2.857    0.000    0.000    0.000    0.000 
#
# Total GULP energy -467814.927546 kJ/mol
# GULP energy per Si atom -5569.225328 kJ/mol
# Density = 1.770562 g / cm^3
# Si number density = 17.746013 Si / 1000 Ang^3
#
#
#
# Elastic Constant Matrix: (Units=GPa)
#
#
# Indices 1 2 3 4 5 6 
#
# 1 95.0842 40.8537 32.1571 1.5584 -0.0002 0.0000
# 2 40.8537 95.0842 32.1571 -1.5584 0.0002 0.0000
# 3 32.1571 32.1571 65.0990 0.0000 0.0000 0.0000
# 4 1.5584 -1.5584 0.0000 24.9401 0.0000 0.0002
# 5 -0.0002 0.0002 0.0000 0.0000 24.9401 1.5584
# 6 0.0000 0.0000 0.0000 0.0002 1.5584 27.1153
#
#
#
# Elastic Compliance Matrix: (Units=1/GPa)
#
#
# Indices 1 2 3 4 5 6 
#
# 1 0.014053 -0.004453 -0.004742 -0.001156 0.000000 0.000000
# 2 -0.004453 0.014053 -0.004742 0.001156 0.000000 0.000000
# 3 -0.004742 -0.004742 0.020046 0.000000 0.000000 0.000000
# 4 -0.001156 0.001156 0.000000 0.040241 0.000000 0.000000
# 5 0.000000 0.000000 0.000000 0.000000 0.040241 -0.002313
# 6 0.000000 0.000000 0.000000 0.000000 -0.002313 0.037012
#
#
# Mechanical properties :
#
#
# Convention : Reuss Voigt Hill
#
# Bulk Modulus (GPa) = 49.31561 51.73370 50.52466
# Shear Modulus (GPa) = 24.96511 25.40575 25.18543
#
# Velocity S-wave (km/s) = 3.75480 3.78780 3.77134
# Velocity P-wave (km/s) = 6.82994 6.95309 6.89179
#
# Compressibility (1/GPa) = 0.02027755
#
# Stress axis : x y z
#
# Youngs Moduli (GPa) = 71.15898 71.15898 49.88502
#
# Poissons Ratio (x) = 0.31689 0.23656
# Poissons Ratio (y) = 0.31689 0.23656
# Poissons Ratio (z) = 0.33744 0.33744
#
# Static dielectric constant tensor:
#      x y z
#    x 1.620310 0.000000 0.000000 
#    y 0.000000 1.620310 0.000000 
#    z 0.000000 0.000000 1.652250 
# 
# From -- ./inp_files/5833.got.cif
#   From: 2010.05.17/outbox.cif.g08.bks.cpg/sg166_3_cif.got.tgz:5833.got - 2010.05.20 11:04:41.
