data_PCOD9579251
_publ_section_title
;
Structure prediction by ZEFSAII (Michael W. Deem and Ramdas Pophale) SiO2 
 PCOD9579251
Probable space group: R -3 M
;
_chemical_formula_sum "Si O2"
_cell_formula_units_Z 108
_cell_length_a 17.283326
_cell_length_b 17.283326
_cell_length_c 18.447747
_cell_angle_alpha 90.000000
_cell_angle_beta 90.000000
_cell_angle_gamma 120.000000
_cell_volume 4772.309585
_symmetry_space_group_name_H-M "R -3 M"
_symmetry_group_IT_number 166
_symmetry_cell_setting 'hexagonal'
loop_
_space_group_symop_operation_xyz
x,y,z
-y,x-y,z
-x+y,-x,z
x-y,-y,-z
-x,-x+y,-z
y,x,-z
-x,-y,-z
y,-x+y,-z
x-y,x,-z
-x+y,y,z
x,x-y,z
-y,-x,z
2/3+x,1/3+y,1/3+z
2/3-y,1/3+x-y,1/3+z
2/3-x+y,1/3-x,1/3+z
2/3+x-y,1/3-y,1/3-z
2/3-x,1/3-x+y,1/3-z
2/3+y,1/3+x,1/3-z
2/3-x,1/3-y,1/3-z
2/3+y,1/3-x+y,1/3-z
2/3+x-y,1/3+x,1/3-z
2/3-x+y,1/3+y,1/3+z
2/3+x,1/3+x-y,1/3+z
2/3-y,1/3-x,1/3+z
1/3+x,2/3+y,2/3+z
1/3-y,2/3+x-y,2/3+z
1/3-x+y,2/3-x,2/3+z
1/3+x-y,2/3-y,2/3-z
1/3-x,2/3-x+y,2/3-z
1/3+y,2/3+x,2/3-z
1/3-x,2/3-y,2/3-z
1/3+y,2/3-x+y,2/3-z
1/3+x-y,2/3+x,2/3-z
1/3-x+y,2/3+y,2/3+z
1/3+x,2/3+x-y,2/3+z
1/3-y,2/3-x,2/3+z
loop_
_atom_site_type_symbol
_atom_site_label
_atom_site_fract_x
_atom_site_fract_y
_atom_site_fract_z
Si Si1 0.859239 0.313419 0.614018
Si Si2 0.490596 0.154089 0.447847
Si Si3 0.318079 0.932337 0.087744
O O1 0.759347 0.240654 0.634162
O O2 0.856192 0.349793 0.534973
O O3 0.906821 0.370611 0.685067
O O4 0.918232 0.267831 0.595060
O O5 0.569841 0.139681 0.416328
O O6 0.506832 0.253416 0.433563
O O7 0.388380 0.083151 0.425428
O O8 0.333334 0.902779 0.166667
#
# Coordination Sequence:
#
# PCOD9579251 Si02
#       3
#    36  36  36
#     4   9  18  34  55  78 105 136 173 222 279 334
#     4  10  21  36  54  77 108 149 193 234 275 322
#     4   9  17  30  53  80 106 137 173 224 280 334
#
# _framework density 22.630552999999999
#
# number of rings (size 3 to 8) (size 9 to 14) (size 15 to 20)
#    0.000    2.667    0.000    2.333    0.000    8.667 
#    0.000    5.000    0.000    4.000    0.000    9.333 
#    0.000    6.667    0.000    0.000    0.000   14.333 
#
# Total GULP energy -200407.069683 kJ/mol
# GULP energy per Si atom -5566.863047 kJ/mol
# Density = 2.257904 g / cm^3
# Si number density = 22.630553 Si / 1000 Ang^3
#
#
#
# Elastic Constant Matrix: (Units=GPa)
#
#
# Indices 1 2 3 4 5 6 
#
# 1 -150.3215 270.6492 26.4796 17.5504 -0.0006 0.0000
# 2 270.6492 -150.3215 26.4796 -17.5504 0.0006 0.0000
# 3 26.4796 26.4796 145.3103 0.0000 0.0000 0.0000
# 4 17.5504 -17.5504 0.0000 6.4352 0.0000 0.0006
# 5 -0.0006 0.0006 0.0000 0.0000 6.4352 17.5504
# 6 0.0000 0.0000 0.0000 0.0006 17.5504 -210.4854
#
#
#
# Elastic Compliance Matrix: (Units=1/GPa)
#
#
# Indices 1 2 3 4 5 6 
#
# 1 0.003550 0.005485 -0.001646 0.005278 0.000000 0.000000
# 2 0.005485 0.003550 -0.001646 -0.005278 0.000000 0.000000
# 3 -0.001646 -0.001646 0.007482 0.000000 0.000000 0.000000
# 4 0.005278 -0.005278 0.000000 0.126605 0.000000 0.000000
# 5 0.000000 0.000000 0.000000 0.000000 0.126605 0.010556
# 6 0.000000 0.000000 0.000000 0.000000 0.010556 -0.003871
#
#
# Mechanical properties :
#
#
# Convention : Reuss Voigt Hill
#
# Bulk Modulus (GPa) = 52.72441 54.65381 53.68911
# Shear Modulus (GPa) = 18.80705 -71.45238 -26.32266
#
# Velocity S-wave (km/s) = 2.88592 -5.62512 -3.41419
# Velocity P-wave (km/s) = 5.86968 4.24104 2.86939
#
# Compressibility (1/GPa) = 0.01896655
#
# Stress axis : x y z
#
# Youngs Moduli (GPa) = 281.69295 281.69295 133.65600
#
# Poissons Ratio (x) = -1.54518 0.22006
# Poissons Ratio (y) = -1.54518 0.22006
# Poissons Ratio (z) = 0.46380 0.46380
#
# Static dielectric constant tensor:
#      x y z
#    x 1.849260 0.000000 0.000000 
#    y 0.000000 1.849260 0.000000 
#    z 0.000000 0.000000 1.957090 
# 
# From -- ./inp_files/6309.got.cif
#   From: 2010.05.17/outbox.cif.g08.bks.cpg/sg166_4_cif.got.tgz:6309.got - 2010.05.20 11:04:41.
