data_PCOD9579463
_publ_section_title
;
Structure prediction by ZEFSAII (Michael W. Deem and Ramdas Pophale) SiO2 
 PCOD9579463
Probable space group: R -3 C 
;
_chemical_formula_sum "Si O2"
_cell_formula_units_Z 126
_cell_length_a 18.023669
_cell_length_b 18.023669
_cell_length_c 19.805430
_cell_angle_alpha 90.000000
_cell_angle_beta 90.000000
_cell_angle_gamma 120.000000
_cell_volume 5571.874345
_symmetry_space_group_name_H-M "R -3 C "
_symmetry_group_IT_number 167
_symmetry_cell_setting 'hexagonal'
loop_
_space_group_symop_operation_xyz
x,y,z
-y,x-y,z
-x+y,-x,z
x-y,-y,1/2-z
-x,-x+y,1/2-z
y,x,1/2-z
-x,-y,-z
y,-x+y,-z
x-y,x,-z
-x+y,y,1/2+z
x,x-y,1/2+z
-y,-x,1/2+z
2/3+x,1/3+y,1/3+z
2/3-y,1/3+x-y,1/3+z
2/3-x+y,1/3-x,1/3+z
2/3+x-y,1/3-y,5/6-z
2/3-x,1/3-x+y,5/6-z
2/3+y,1/3+x,5/6-z
2/3-x,1/3-y,1/3-z
2/3+y,1/3-x+y,1/3-z
2/3+x-y,1/3+x,1/3-z
2/3-x+y,1/3+y,5/6+z
2/3+x,1/3+x-y,5/6+z
2/3-y,1/3-x,5/6+z
1/3+x,2/3+y,2/3+z
1/3-y,2/3+x-y,2/3+z
1/3-x+y,2/3-x,2/3+z
1/3+x-y,2/3-y,1/6-z
1/3-x,2/3-x+y,1/6-z
1/3+y,2/3+x,1/6-z
1/3-x,2/3-y,2/3-z
1/3+y,2/3-x+y,2/3-z
1/3+x-y,2/3+x,2/3-z
1/3-x+y,2/3+y,1/6+z
1/3+x,2/3+x-y,1/6+z
1/3-y,2/3-x,1/6+z
loop_
_atom_site_type_symbol
_atom_site_label
_atom_site_fract_x
_atom_site_fract_y
_atom_site_fract_z
Si Si1 0.094820 0.895029 0.685038
Si Si2 0.763241 0.523949 0.667343
Si Si3 0.805482 0.941535 0.983220
Si Si4 0.814287 0.147621 0.416667
O O1 0.108710 0.873213 0.761320
O O2 0.108709 0.835921 0.632735
O O3 0.001842 0.885049 0.675362
O O4 0.159824 0.993839 0.667144
O O5 0.757867 0.558623 0.740406
O O6 0.841437 0.880913 0.011456
O O7 0.727951 0.926710 0.031970
#
# Coordination Sequence:
#
# PCOD9579463 Si02
#       4
#    36  36  36  18
#     4  10  21  37  69  97 130 154 215 271 330 388
#     4  10  19  40  66  97 123 165 206 273 330 382
#     4  12  23  42  71  98 131 166 219 274 328 382
#     4  12  24  38  58  98 136 168 214 256 314 400
#
# _framework density 22.613575000000001
#
# number of rings (size 3 to 8) (size 9 to 14) (size 15 to 20)
#    0.000    1.143    5.714    0.857    0.000    3.429 
#    0.000    5.714    0.000    0.000    0.000    0.000 
#    0.000    0.000    0.000    0.000    0.000    0.000 
#
# Total GULP energy -234008.085179 kJ/mol
# GULP energy per Si atom -5571.621076 kJ/mol
# Density = 2.256211 g / cm^3
# Si number density = 22.613575 Si / 1000 Ang^3
#
#
#
# Elastic Constant Matrix: (Units=GPa)
#
#
# Indices 1 2 3 4 5 6 
#
# 1 54.8835 22.7688 32.4903 -3.5837 0.0001 0.0000
# 2 22.7688 54.8835 32.4903 3.5837 -0.0001 0.0000
# 3 32.4903 32.4903 235.7183 0.0000 0.0000 0.0000
# 4 -3.5837 3.5837 0.0000 16.5130 0.0000 -0.0001
# 5 0.0001 -0.0001 0.0000 0.0000 16.5130 -3.5837
# 6 0.0000 0.0000 0.0000 -0.0001 -3.5837 16.0573
#
#
#
# Elastic Compliance Matrix: (Units=1/GPa)
#
#
# Indices 1 2 3 4 5 6 
#
# 1 0.023640 -0.009083 -0.002006 0.007102 0.000000 0.000000
# 2 -0.009083 0.023640 -0.002006 -0.007102 0.000000 0.000000
# 3 -0.002006 -0.002006 0.004795 0.000000 0.000000 0.000000
# 4 0.007102 -0.007102 0.000000 0.063641 0.000000 0.000000
# 5 0.000000 0.000000 0.000000 0.000000 0.063641 0.014203
# 6 0.000000 0.000000 0.000000 0.000000 0.014203 0.065447
#
#
# Mechanical properties :
#
#
# Convention : Reuss Voigt Hill
#
# Bulk Modulus (GPa) = 38.63458 57.88710 48.26084
# Shear Modulus (GPa) = 17.88115 26.99906 22.44011
#
# Velocity S-wave (km/s) = 2.81504 3.45908 3.15354
# Velocity P-wave (km/s) = 5.26191 6.45040 5.88622
#
# Compressibility (1/GPa) = 0.02588355
#
# Stress axis : x y z
#
# Youngs Moduli (GPa) = 42.30089 42.30089 208.53002
#
# Poissons Ratio (x) = 0.38423 0.41841
# Poissons Ratio (y) = 0.38423 0.41841
# Poissons Ratio (z) = 0.08488 0.08488
#
# Static dielectric constant tensor:
#      x y z
#    x 1.821230 0.000000 0.000000 
#    y 0.000000 1.821230 0.000000 
#    z 0.000000 0.000000 1.936800 
# 
# From -- ./inp_files/4212.got.cif
#   From: 2010.05.17/outbox.cif.g08.bks.cpg/sg167_3_cif.got.tgz:4212.got - 2010.05.20 11:09:15.
