data_PCOD9579492
_publ_section_title
;
Structure prediction by ZEFSAII (Michael W. Deem and Ramdas Pophale) SiO2 
 PCOD9579492
Probable space group: R -3 C 
;
_chemical_formula_sum "Si O2"
_cell_formula_units_Z 144
_cell_length_a 18.190939
_cell_length_b 18.190939
_cell_length_c 28.814430
_cell_angle_alpha 90.000000
_cell_angle_beta 90.000000
_cell_angle_gamma 120.000000
_cell_volume 8257.544060
_symmetry_space_group_name_H-M "R -3 C "
_symmetry_group_IT_number 167
_symmetry_cell_setting 'hexagonal'
loop_
_space_group_symop_operation_xyz
x,y,z
-y,x-y,z
-x+y,-x,z
x-y,-y,1/2-z
-x,-x+y,1/2-z
y,x,1/2-z
-x,-y,-z
y,-x+y,-z
x-y,x,-z
-x+y,y,1/2+z
x,x-y,1/2+z
-y,-x,1/2+z
2/3+x,1/3+y,1/3+z
2/3-y,1/3+x-y,1/3+z
2/3-x+y,1/3-x,1/3+z
2/3+x-y,1/3-y,5/6-z
2/3-x,1/3-x+y,5/6-z
2/3+y,1/3+x,5/6-z
2/3-x,1/3-y,1/3-z
2/3+y,1/3-x+y,1/3-z
2/3+x-y,1/3+x,1/3-z
2/3-x+y,1/3+y,5/6+z
2/3+x,1/3+x-y,5/6+z
2/3-y,1/3-x,5/6+z
1/3+x,2/3+y,2/3+z
1/3-y,2/3+x-y,2/3+z
1/3-x+y,2/3-x,2/3+z
1/3+x-y,2/3-y,1/6-z
1/3-x,2/3-x+y,1/6-z
1/3+y,2/3+x,1/6-z
1/3-x,2/3-y,2/3-z
1/3+y,2/3-x+y,2/3-z
1/3+x-y,2/3+x,2/3-z
1/3-x+y,2/3+y,1/6+z
1/3+x,2/3+x-y,1/6+z
1/3-y,2/3-x,1/6+z
loop_
_atom_site_type_symbol
_atom_site_label
_atom_site_fract_x
_atom_site_fract_y
_atom_site_fract_z
Si Si1 0.756988 0.512943 0.098946
Si Si2 0.123518 0.310637 0.953335
Si Si3 0.084669 0.509896 0.523233
Si Si4 0.403698 0.994771 0.196539
O O1 0.666667 0.498935 0.083334
O O2 0.771107 0.437774 0.083334
O O3 0.829179 0.597538 0.072751
O O4 0.757269 0.514085 0.154708
O O5 0.110396 0.246946 0.910723
O O6 0.030118 0.287990 0.970702
O O7 0.183321 0.309483 0.993756
O O8 0.080890 0.419898 0.519513
O O9 0.000000 0.500000 0.500000
O O10 0.433199 0.000000 0.250000
#
# Coordination Sequence:
#
# PCOD9579492 Si02
#       4
#    36  36  36  36
#     4  11  20  35  55  84 118 152 190 235 289 348
#     4  10  20  37  58  81 118 150 195 242 291 341
#     4   9  18  34  55  79 112 150 188 233 287 343
#     4  10  20  38  56  86 116 148 199 246 282 348
#
# _framework density 17.438600000000001
#
# number of rings (size 3 to 8) (size 9 to 14) (size 15 to 20)
#    0.000    2.000    2.500    4.000    0.000    0.000 
#   13.500    0.000    0.000    0.500    0.000    0.000 
#    0.000    0.000    0.000    0.000    0.000    0.000 
#
# Total GULP energy -267232.760312 kJ/mol
# GULP energy per Si atom -5567.349173 kJ/mol
# Density = 1.739891 g / cm^3
# Si number density = 17.438600 Si / 1000 Ang^3
#
#
#
# Elastic Constant Matrix: (Units=GPa)
#
#
# Indices 1 2 3 4 5 6 
#
# 1 69.1132 27.1871 65.6322 6.9279 -0.0003 0.0000
# 2 27.1871 69.1132 65.6322 -6.9279 0.0003 0.0000
# 3 65.6322 65.6322 157.8056 0.0000 0.0000 0.0000
# 4 6.9279 -6.9279 0.0000 31.9369 0.0000 0.0003
# 5 -0.0003 0.0003 0.0000 0.0000 31.9369 6.9279
# 6 0.0000 0.0000 0.0000 0.0003 6.9279 20.9631
#
#
#
# Elastic Compliance Matrix: (Units=1/GPa)
#
#
# Indices 1 2 3 4 5 6 
#
# 1 0.024835 -0.000858 -0.009972 -0.005574 0.000000 0.000000
# 2 -0.000858 0.024835 -0.009972 0.005574 0.000000 0.000000
# 3 -0.009972 -0.009972 0.014632 0.000000 0.000000 0.000000
# 4 -0.005574 0.005574 0.000000 0.033730 0.000000 0.000000
# 5 0.000000 0.000000 0.000000 0.000000 0.033730 -0.011147
# 6 0.000000 0.000000 0.000000 0.000000 -0.011147 0.051387
#
#
# Mechanical properties :
#
#
# Convention : Reuss Voigt Hill
#
# Bulk Modulus (GPa) = 44.05834 68.10386 56.08110
# Shear Modulus (GPa) = 21.52209 26.13941 23.83075
#
# Velocity S-wave (km/s) = 3.51688 3.87581 3.70070
# Velocity P-wave (km/s) = 6.46614 7.69204 7.10558
#
# Compressibility (1/GPa) = 0.02269718
#
# Stress axis : x y z
#
# Youngs Moduli (GPa) = 40.26546 40.26546 68.34420
#
# Poissons Ratio (x) = 0.03456 0.68154
# Poissons Ratio (y) = 0.03456 0.68154
# Poissons Ratio (z) = 0.40153 0.40153
#
# Static dielectric constant tensor:
#      x y z
#    x 1.595130 0.000000 0.000000 
#    y 0.000000 1.595130 0.000000 
#    z 0.000000 0.000000 1.635760 
# 
# From -- ./inp_files/6176.got.cif
#   From: 2010.05.17/outbox.cif.g08.bks.cpg/sg167_4_cif.got.tgz:6176.got - 2010.05.20 11:09:15.
