data_PCOD9579167
_publ_section_title
;
Structure prediction by ZEFSAII (Michael W. Deem and Ramdas Pophale) SiO2 
 PCOD9579167
Probable space group: R -3 M
;
_chemical_formula_sum "Si O2"
_cell_formula_units_Z 144
_cell_length_a 29.498817
_cell_length_b 29.498817
_cell_length_c 10.169788
_cell_angle_alpha 90.000000
_cell_angle_beta 90.000000
_cell_angle_gamma 120.000000
_cell_volume 7663.933554
_symmetry_space_group_name_H-M "R -3 M"
_symmetry_group_IT_number 166
_symmetry_cell_setting 'hexagonal'
loop_
_space_group_symop_operation_xyz
x,y,z
-y,x-y,z
-x+y,-x,z
x-y,-y,-z
-x,-x+y,-z
y,x,-z
-x,-y,-z
y,-x+y,-z
x-y,x,-z
-x+y,y,z
x,x-y,z
-y,-x,z
2/3+x,1/3+y,1/3+z
2/3-y,1/3+x-y,1/3+z
2/3-x+y,1/3-x,1/3+z
2/3+x-y,1/3-y,1/3-z
2/3-x,1/3-x+y,1/3-z
2/3+y,1/3+x,1/3-z
2/3-x,1/3-y,1/3-z
2/3+y,1/3-x+y,1/3-z
2/3+x-y,1/3+x,1/3-z
2/3-x+y,1/3+y,1/3+z
2/3+x,1/3+x-y,1/3+z
2/3-y,1/3-x,1/3+z
1/3+x,2/3+y,2/3+z
1/3-y,2/3+x-y,2/3+z
1/3-x+y,2/3-x,2/3+z
1/3+x-y,2/3-y,2/3-z
1/3-x,2/3-x+y,2/3-z
1/3+y,2/3+x,2/3-z
1/3-x,2/3-y,2/3-z
1/3+y,2/3-x+y,2/3-z
1/3+x-y,2/3+x,2/3-z
1/3-x+y,2/3+y,2/3+z
1/3+x,2/3+x-y,2/3+z
1/3-y,2/3-x,2/3+z
loop_
_atom_site_type_symbol
_atom_site_label
_atom_site_fract_x
_atom_site_fract_y
_atom_site_fract_z
Si Si1 0.032836 0.567880 0.865385
Si Si2 0.161943 0.222165 0.625456
Si Si3 0.607223 0.985182 0.350610
Si Si4 0.143085 0.188150 0.320468
O O1 0.018625 0.509313 0.821719
O O2 0.094053 0.599410 0.897035
O O3 0.020459 0.598763 0.756115
O O4 0.000000 0.558922 0.000000
O O5 0.119195 0.238389 0.665795
O O6 0.222798 0.262586 0.655724
O O7 0.155472 0.211641 0.469185
O O8 0.151614 0.168320 0.691266
O O9 0.603721 0.000000 0.500000
O O10 0.666667 0.996362 0.333334
O O11 0.081424 0.162847 0.300804
#
# Coordination Sequence:
#
# PCOD9579167 Si02
#       4
#    36  36  36  36
#     4  10  19  37  60  79 104 144 195 244 289 341
#     4  10  20  35  55  78 108 146 188 235 288 349
#     4  12  26  36  51  80 116 158 194 243 291 340
#     4   9  18  33  57  80 101 135 184 238 287 341
#
# _framework density 18.789306
#
# number of rings (size 3 to 8) (size 9 to 14) (size 15 to 20)
#    0.000    1.750    2.500    2.250    3.500    4.000 
#    0.000    0.000    0.000    0.500    0.000    3.500 
#    0.000    0.000    0.000    0.000    0.000   30.500 
#
# Total GULP energy -267727.322722 kJ/mol
# GULP energy per Si atom -5577.652557 kJ/mol
# Density = 1.874654 g / cm^3
# Si number density = 18.789306 Si / 1000 Ang^3
#
#
#
# Elastic Constant Matrix: (Units=GPa)
#
#
# Indices 1 2 3 4 5 6 
#
# 1 94.9092 57.0962 14.2773 2.2653 -0.0086 -0.0003
# 2 57.0962 94.9143 14.2947 -2.2639 -0.0004 -0.0003
# 3 14.2773 14.2947 53.3922 0.0058 -0.0398 -0.0055
# 4 2.2653 -2.2639 0.0058 12.1030 0.0023 -0.0018
# 5 -0.0086 -0.0004 -0.0398 0.0023 12.0913 2.2591
# 6 -0.0003 -0.0003 -0.0055 -0.0018 2.2591 18.9072
#
#
#
# Elastic Compliance Matrix: (Units=1/GPa)
#
#
# Indices 1 2 3 4 5 6 
#
# 1 0.016988 -0.010062 -0.001848 -0.005061 0.000007 -0.000002
# 2 -0.010062 0.016989 -0.001859 0.005062 -0.000014 0.000002
# 3 -0.001848 -0.001859 0.019721 -0.000011 0.000064 -0.000002
# 4 -0.005061 0.005062 -0.000011 0.084518 -0.000021 0.000011
# 5 0.000007 -0.000014 0.000064 -0.000021 0.084593 -0.010107
# 6 -0.000002 0.000002 -0.000002 0.000011 -0.010107 0.054097
#
#
# Mechanical properties :
#
#
# Convention : Reuss Voigt Hill
#
# Bulk Modulus (GPa) = 38.22418 46.06133 42.14275
# Shear Modulus (GPa) = 15.96605 19.12347 17.54476
#
# Velocity S-wave (km/s) = 2.91819 3.19374 3.05907
# Velocity P-wave (km/s) = 5.63402 6.17801 5.91228
#
# Compressibility (1/GPa) = 0.02616145
#
# Stress axis : x y z
#
# Youngs Moduli (GPa) = 58.86435 58.86120 50.70678
#
# Poissons Ratio (x) = 0.59224 0.09372
# Poissons Ratio (y) = 0.59227 0.09424
# Poissons Ratio (z) = 0.10880 0.10939
#
# Static dielectric constant tensor:
#      x y z
#    x 1.717000 0.000000 0.000000 
#    y 0.000000 1.716990 0.000000 
#    z 0.000000 0.000000 1.638200 
# 
# From -- ./inp_files/1817.got.cif
#   From: 2010.05.17/outbox.cif.g08.bks.cpg/sg166_1_cif.got.tgz:1817.got - 2010.05.20 11:04:41.
