data_PCOD9579144
_publ_section_title
;
Structure prediction by ZEFSAII (Michael W. Deem and Ramdas Pophale) SiO2 
 PCOD9579144
Probable space group: R -3 M
;
_chemical_formula_sum "Si O2"
_cell_formula_units_Z 108
_cell_length_a 16.485063
_cell_length_b 16.485063
_cell_length_c 20.095271
_cell_angle_alpha 90.000000
_cell_angle_beta 90.000000
_cell_angle_gamma 120.000000
_cell_volume 4729.396454
_symmetry_space_group_name_H-M "R -3 M"
_symmetry_group_IT_number 166
_symmetry_cell_setting 'hexagonal'
loop_
_space_group_symop_operation_xyz
x,y,z
-y,x-y,z
-x+y,-x,z
x-y,-y,-z
-x,-x+y,-z
y,x,-z
-x,-y,-z
y,-x+y,-z
x-y,x,-z
-x+y,y,z
x,x-y,z
-y,-x,z
2/3+x,1/3+y,1/3+z
2/3-y,1/3+x-y,1/3+z
2/3-x+y,1/3-x,1/3+z
2/3+x-y,1/3-y,1/3-z
2/3-x,1/3-x+y,1/3-z
2/3+y,1/3+x,1/3-z
2/3-x,1/3-y,1/3-z
2/3+y,1/3-x+y,1/3-z
2/3+x-y,1/3+x,1/3-z
2/3-x+y,1/3+y,1/3+z
2/3+x,1/3+x-y,1/3+z
2/3-y,1/3-x,1/3+z
1/3+x,2/3+y,2/3+z
1/3-y,2/3+x-y,2/3+z
1/3-x+y,2/3-x,2/3+z
1/3+x-y,2/3-y,2/3-z
1/3-x,2/3-x+y,2/3-z
1/3+y,2/3+x,2/3-z
1/3-x,2/3-y,2/3-z
1/3+y,2/3-x+y,2/3-z
1/3+x-y,2/3+x,2/3-z
1/3-x+y,2/3+y,2/3+z
1/3+x,2/3+x-y,2/3+z
1/3-y,2/3-x,2/3+z
loop_
_atom_site_type_symbol
_atom_site_label
_atom_site_fract_x
_atom_site_fract_y
_atom_site_fract_z
Si Si1 0.184917 0.999518 0.789855
Si Si2 0.177852 0.177798 0.419607
Si Si3 0.723247 0.719710 0.071581
O O1 0.206129 0.103065 0.771847
O O2 0.219928 0.001395 0.865680
O O3 0.241849 0.960105 0.748480
O O4 0.075960 0.924041 0.784983
O O5 0.172192 0.172192 0.500000
O O6 0.150870 0.075435 0.393900
O O7 0.284975 0.249419 0.405552
O O8 0.103654 0.207308 0.396098
O O9 0.763315 0.763315 0.000000
#
# Coordination Sequence:
#
# PCOD9579144 Si02
#       3
#    36  36  36
#     4  11  24  43  65  91 123 161 207 257 308 361
#     4  10  19  33  55  85 119 153 191 238 293 353
#     4  11  23  40  64  91 121 161 206 251 303 367
#
# _framework density 22.835895000000001
#
# number of rings (size 3 to 8) (size 9 to 14) (size 15 to 20)
#    0.000    1.333    3.333    4.667    0.000    9.333 
#    0.000    0.000    0.000    6.000    0.000    0.000 
#    0.000    0.000    0.000    0.000    0.000    0.000 
#
# Total GULP energy -201389.483551 kJ/mol
# GULP energy per Si atom -5594.152321 kJ/mol
# Density = 2.278392 g / cm^3
# Si number density = 22.835895 Si / 1000 Ang^3
#
#
#
# Elastic Constant Matrix: (Units=GPa)
#
#
# Indices 1 2 3 4 5 6 
#
# 1 72.7277 -1.2248 -0.3462 -0.5451 0.0000 0.0000
# 2 -1.2248 72.7277 -0.3462 0.5451 0.0000 0.0000
# 3 -0.3462 -0.3462 109.4699 0.0000 0.0000 0.0000
# 4 -0.5451 0.5451 0.0000 -19.4729 0.0000 0.0000
# 5 0.0000 0.0000 0.0000 0.0000 -19.4729 -0.5451
# 6 0.0000 0.0000 0.0000 0.0000 -0.5451 36.9762
#
#
#
# Elastic Compliance Matrix: (Units=1/GPa)
#
#
# Indices 1 2 3 4 5 6 
#
# 1 0.013751 0.000235 0.000044 -0.000378 0.000000 0.000000
# 2 0.000235 0.013751 0.000044 0.000378 0.000000 0.000000
# 3 0.000044 0.000044 0.009135 0.000000 0.000000 0.000000
# 4 -0.000378 0.000378 0.000000 -0.051332 0.000000 0.000000
# 5 0.000000 0.000000 0.000000 0.000000 -0.051332 -0.000757
# 6 0.000000 0.000000 0.000000 0.000000 -0.000757 0.027033
#
#
# Mechanical properties :
#
#
# Convention : Reuss Voigt Hill
#
# Bulk Modulus (GPa) = 26.82126 27.89901 27.36013
# Shear Modulus (GPa) = -183.74353 16.72891 -83.50731
#
# Velocity S-wave (km/s) = -8.97983 2.70954 -6.05374
# Velocity P-wave (km/s) = 9.78497 4.69388 6.07096
#
# Compressibility (1/GPa) = 0.03728386
#
# Stress axis : x y z
#
# Youngs Moduli (GPa) = 72.72064 72.72064 109.46658
#
# Poissons Ratio (x) = -0.01706 -0.00484
# Poissons Ratio (y) = -0.01706 -0.00484
# Poissons Ratio (z) = -0.00322 -0.00322
#
# Static dielectric constant tensor:
#      x y z
#    x 1.825890 0.000000 0.000000 
#    y 0.000000 1.825890 0.000000 
#    z 0.000000 0.000000 1.890670 
# 
# From -- ./inp_files/6288.got.cif
#   From: 2010.05.17/outbox.cif.g08.bks.cpg/sg166_4_cif.got.tgz:6288.got - 2010.05.20 11:04:41.
