data_PCOD9579457
_publ_section_title
;
Structure prediction by ZEFSAII (Michael W. Deem and Ramdas Pophale) SiO2 
 PCOD9579457
Probable space group: R -3 C 
;
_chemical_formula_sum "Si O2"
_cell_formula_units_Z 120
_cell_length_a 17.682315
_cell_length_b 17.682315
_cell_length_c 23.196660
_cell_angle_alpha 90.000000
_cell_angle_beta 90.000000
_cell_angle_gamma 120.000000
_cell_volume 6281.080141
_symmetry_space_group_name_H-M "R -3 C "
_symmetry_group_IT_number 167
_symmetry_cell_setting 'hexagonal'
loop_
_space_group_symop_operation_xyz
x,y,z
-y,x-y,z
-x+y,-x,z
x-y,-y,1/2-z
-x,-x+y,1/2-z
y,x,1/2-z
-x,-y,-z
y,-x+y,-z
x-y,x,-z
-x+y,y,1/2+z
x,x-y,1/2+z
-y,-x,1/2+z
2/3+x,1/3+y,1/3+z
2/3-y,1/3+x-y,1/3+z
2/3-x+y,1/3-x,1/3+z
2/3+x-y,1/3-y,5/6-z
2/3-x,1/3-x+y,5/6-z
2/3+y,1/3+x,5/6-z
2/3-x,1/3-y,1/3-z
2/3+y,1/3-x+y,1/3-z
2/3+x-y,1/3+x,1/3-z
2/3-x+y,1/3+y,5/6+z
2/3+x,1/3+x-y,5/6+z
2/3-y,1/3-x,5/6+z
1/3+x,2/3+y,2/3+z
1/3-y,2/3+x-y,2/3+z
1/3-x+y,2/3-x,2/3+z
1/3+x-y,2/3-y,1/6-z
1/3-x,2/3-x+y,1/6-z
1/3+y,2/3+x,1/6-z
1/3-x,2/3-y,2/3-z
1/3+y,2/3-x+y,2/3-z
1/3+x-y,2/3+x,2/3-z
1/3-x+y,2/3+y,1/6+z
1/3+x,2/3+x-y,1/6+z
1/3-y,2/3-x,1/6+z
loop_
_atom_site_type_symbol
_atom_site_label
_atom_site_fract_x
_atom_site_fract_y
_atom_site_fract_z
Si Si1 0.573422 0.962980 0.359729
Si Si2 0.464454 0.849736 0.254396
Si Si3 0.474035 0.411932 0.838012
Si Si4 0.333334 0.666668 0.095933
O O1 0.587640 0.920974 0.416667
O O2 0.526470 0.894349 0.308335
O O3 0.507789 0.002108 0.368304
O O4 0.670048 0.040278 0.339127
O O5 0.439823 0.914673 0.222284
O O6 0.517114 0.824335 0.209008
O O7 0.373979 0.762844 0.263228
O O8 0.333335 0.666668 0.166667
#
# Coordination Sequence:
#
# PCOD9579457 Si02
#       4
#    36  36  36  12
#     4  11  23  38  58  90 127 163 198 250 318 378
#     4  11  21  36  64  92 112 156 212 257 303 355
#     4  10  19  38  62  86 119 156 209 259 294 359
#     4  12  18  39  64  89 112 147 207 268 290 352
#
# _framework density 19.104994999999999
#
# number of rings (size 3 to 8) (size 9 to 14) (size 15 to 20)
#    0.000    1.200    3.000    7.200    0.000    1.200 
#    0.000    4.500    0.000    0.000    0.000    0.000 
#    0.000    0.000    0.000    0.000    0.000    0.000 
#
# Total GULP energy -222928.422549 kJ/mol
# GULP energy per Si atom -5573.210564 kJ/mol
# Density = 1.906151 g / cm^3
# Si number density = 19.104995 Si / 1000 Ang^3
#
#
#
# Elastic Constant Matrix: (Units=GPa)
#
#
# Indices 1 2 3 4 5 6 
#
# 1 84.3986 41.2490 43.4030 7.9485 0.0001 0.0000
# 2 41.2490 84.3997 43.4043 -7.9482 -0.0001 0.0000
# 3 43.4030 43.4043 76.6751 0.0002 0.0000 0.0000
# 4 7.9485 -7.9482 0.0002 19.7211 0.0000 -0.0001
# 5 0.0001 -0.0001 0.0000 0.0000 19.7205 7.9485
# 6 0.0000 0.0000 0.0000 -0.0001 7.9485 21.5753
#
#
#
# Elastic Compliance Matrix: (Units=1/GPa)
#
#
# Indices 1 2 3 4 5 6 
#
# 1 0.020143 -0.007073 -0.007398 -0.010969 0.000000 0.000000
# 2 -0.007073 0.020143 -0.007399 0.010969 0.000000 0.000000
# 3 -0.007398 -0.007399 0.021419 0.000000 0.000000 0.000000
# 4 -0.010969 0.010969 0.000000 0.059549 0.000000 0.000000
# 5 0.000000 0.000000 0.000000 0.000000 0.059552 -0.021939
# 6 0.000000 0.000000 0.000000 0.000000 -0.021939 0.054432
#
#
# Mechanical properties :
#
#
# Convention : Reuss Voigt Hill
#
# Bulk Modulus (GPa) = 55.66639 55.73180 55.69909
# Shear Modulus (GPa) = 17.54595 20.03117 18.78856
#
# Velocity S-wave (km/s) = 3.03379 3.24153 3.13938
# Velocity P-wave (km/s) = 6.43989 6.57607 6.50834
#
# Compressibility (1/GPa) = 0.01796416
#
# Stress axis : x y z
#
# Youngs Moduli (GPa) = 49.64478 49.64450 46.68853
#
# Poissons Ratio (x) = 0.35113 0.34542
# Poissons Ratio (y) = 0.35113 0.34545
# Poissons Ratio (z) = 0.36730 0.36732
#
# Static dielectric constant tensor:
#      x y z
#    x 1.711650 0.000000 0.000000 
#    y 0.000000 1.711650 0.000000 
#    z 0.000000 0.000000 1.654220 
# 
# From -- ./inp_files/5069.got.cif
#   From: 2010.05.17/outbox.cif.g08.bks.cpg/sg167_3_cif.got.tgz:5069.got - 2010.05.20 11:09:15.
