data_PCOD9579329
_publ_section_title
;
Structure prediction by ZEFSAII (Michael W. Deem and Ramdas Pophale) SiO2 
 PCOD9579329
Probable space group: R -3 M
;
_chemical_formula_sum "Si O2"
_cell_formula_units_Z 216
_cell_length_a 23.715568
_cell_length_b 23.715568
_cell_length_c 23.000189
_cell_angle_alpha 90.000000
_cell_angle_beta 90.000000
_cell_angle_gamma 120.000000
_cell_volume 11202.864879
_symmetry_space_group_name_H-M "R -3 M"
_symmetry_group_IT_number 166
_symmetry_cell_setting 'hexagonal'
loop_
_space_group_symop_operation_xyz
x,y,z
-y,x-y,z
-x+y,-x,z
x-y,-y,-z
-x,-x+y,-z
y,x,-z
-x,-y,-z
y,-x+y,-z
x-y,x,-z
-x+y,y,z
x,x-y,z
-y,-x,z
2/3+x,1/3+y,1/3+z
2/3-y,1/3+x-y,1/3+z
2/3-x+y,1/3-x,1/3+z
2/3+x-y,1/3-y,1/3-z
2/3-x,1/3-x+y,1/3-z
2/3+y,1/3+x,1/3-z
2/3-x,1/3-y,1/3-z
2/3+y,1/3-x+y,1/3-z
2/3+x-y,1/3+x,1/3-z
2/3-x+y,1/3+y,1/3+z
2/3+x,1/3+x-y,1/3+z
2/3-y,1/3-x,1/3+z
1/3+x,2/3+y,2/3+z
1/3-y,2/3+x-y,2/3+z
1/3-x+y,2/3-x,2/3+z
1/3+x-y,2/3-y,2/3-z
1/3-x,2/3-x+y,2/3-z
1/3+y,2/3+x,2/3-z
1/3-x,2/3-y,2/3-z
1/3+y,2/3-x+y,2/3-z
1/3+x-y,2/3+x,2/3-z
1/3-x+y,2/3+y,2/3+z
1/3+x,2/3+x-y,2/3+z
1/3-y,2/3-x,2/3+z
loop_
_atom_site_type_symbol
_atom_site_label
_atom_site_fract_x
_atom_site_fract_y
_atom_site_fract_z
Si Si1 0.005039 0.409860 0.152667
Si Si2 0.067713 0.444994 0.031662
Si Si3 0.828285 0.304806 0.394033
Si Si4 0.494551 0.641176 0.854472
Si Si5 0.795848 0.461501 0.642187
Si Si6 0.099396 0.326054 0.614782
O O1 0.016178 0.349511 0.166667
O O2 0.051615 0.448278 0.099179
O O3 0.022998 0.449278 0.212590
O O4 0.930076 0.384172 0.137810
O O5 0.080845 0.384609 0.023767
O O6 0.136151 0.503689 0.009628
O O7 0.000000 0.427401 0.000000
O O8 0.761899 0.238102 0.402566
O O9 0.821854 0.333334 0.333334
O O10 0.840459 0.339716 0.456662
O O11 0.881362 0.282529 0.384157
O O12 0.423680 0.576321 0.855002
O O13 0.493106 0.679714 0.910593
O O14 0.719246 0.438492 0.639237
O O15 0.806092 0.403046 0.665567
O O16 0.159435 0.318870 0.638697
#
# Coordination Sequence:
#
# PCOD9579329 Si02
#       6
#    36  36  36  36  36  36
#     4   9  17  30  51  82 112 141 178 225 278 330
#     4  11  20  33  56  86 110 140 182 233 281 333
#     4   9  17  30  50  75 103 141 182 225 275 329
#     4   9  18  34  53  74 104 144 189 230 273 327
#     4  11  24  40  58  79 110 150 193 241 290 342
#     4   9  18  32  51  76 112 148 177 215 267 337
#
# _framework density 19.280781999999999
#
# number of rings (size 3 to 8) (size 9 to 14) (size 15 to 20)
#    0.000    2.333    1.667    2.667    0.000    2.333 
#    0.000    0.000    0.000    0.667    0.000    0.000 
#    0.000   13.333    0.000    0.000    0.000    0.000 
#
# Total GULP energy -400841.605731 kJ/mol
# GULP energy per Si atom -5567.244524 kJ/mol
# Density = 1.923690 g / cm^3
# Si number density = 19.280782 Si / 1000 Ang^3
#
#
#
# Elastic Constant Matrix: (Units=GPa)
#
#
# Indices 1 2 3 4 5 6 
#
# 1 -395.0042 465.1041 13.2670 -200.4117 -0.0029 0.0000
# 2 465.1041 -395.0042 13.2670 200.4117 0.0029 0.0000
# 3 13.2670 13.2670 78.9928 0.0000 0.0000 0.0000
# 4 -200.4117 200.4117 0.0000 -70.5632 0.0000 0.0029
# 5 -0.0029 0.0029 0.0000 0.0000 -70.5632 -200.4117
# 6 0.0000 0.0000 0.0000 0.0029 -200.4117 -430.0541
#
#
#
# Elastic Compliance Matrix: (Units=1/GPa)
#
#
# Indices 1 2 3 4 5 6 
#
# 1 0.009414 0.005820 -0.002559 -0.010205 0.000000 0.000000
# 2 0.005820 0.009414 -0.002559 0.010205 0.000000 0.000000
# 3 -0.002559 -0.002559 0.013519 0.000000 0.000000 0.000000
# 4 -0.010205 0.010205 0.000000 0.043799 0.000000 0.000000
# 5 0.000000 0.000000 0.000000 0.000000 0.043799 -0.020411
# 6 0.000000 0.000000 0.000000 0.000000 -0.020411 0.007187
#
#
# Mechanical properties :
#
#
# Convention : Reuss Voigt Hill
#
# Bulk Modulus (GPa) = 29.62766 30.25117 29.93941
# Shear Modulus (GPa) = 36.50315 -194.41302 -78.95494
#
# Velocity S-wave (km/s) = 4.35586 -10.05243 -6.40617
# Velocity P-wave (km/s) = 6.37948 10.90923 6.25754
#
# Compressibility (1/GPa) = 0.03375225
#
# Stress axis : x y z
#
# Youngs Moduli (GPa) = 106.23000 106.23000 73.97103
#
# Poissons Ratio (x) = -0.61829 0.18926
# Poissons Ratio (y) = -0.61829 0.18926
# Poissons Ratio (z) = 0.27179 0.27179
#
# Static dielectric constant tensor:
#      x y z
#    x 1.690680 0.000000 0.000000 
#    y 0.000000 1.690680 0.000000 
#    z 0.000000 0.000000 1.727340 
# 
# From -- ./inp_files/8464.got.cif
#   From: 2010.05.17/outbox.cif.g08.bks.cpg/sg166_5_cif.got.tgz:8464.got - 2010.05.20 11:04:41.
