data_PCOD9579706
_publ_section_title
;
Structure prediction by ZEFSAII (Michael W. Deem and Ramdas Pophale) SiO2 
 PCOD9579706
Probable space group: R -3 C 
;
_chemical_formula_sum "Si O2"
_cell_formula_units_Z 108
_cell_length_a 20.326824
_cell_length_b 20.326824
_cell_length_c 12.006559
_cell_angle_alpha 90.000000
_cell_angle_beta 90.000000
_cell_angle_gamma 120.000000
_cell_volume 4296.237135
_symmetry_space_group_name_H-M "R -3 C "
_symmetry_group_IT_number 167
_symmetry_cell_setting 'hexagonal'
loop_
_space_group_symop_operation_xyz
x,y,z
-y,x-y,z
-x+y,-x,z
x-y,-y,1/2-z
-x,-x+y,1/2-z
y,x,1/2-z
-x,-y,-z
y,-x+y,-z
x-y,x,-z
-x+y,y,1/2+z
x,x-y,1/2+z
-y,-x,1/2+z
2/3+x,1/3+y,1/3+z
2/3-y,1/3+x-y,1/3+z
2/3-x+y,1/3-x,1/3+z
2/3+x-y,1/3-y,5/6-z
2/3-x,1/3-x+y,5/6-z
2/3+y,1/3+x,5/6-z
2/3-x,1/3-y,1/3-z
2/3+y,1/3-x+y,1/3-z
2/3+x-y,1/3+x,1/3-z
2/3-x+y,1/3+y,5/6+z
2/3+x,1/3+x-y,5/6+z
2/3-y,1/3-x,5/6+z
1/3+x,2/3+y,2/3+z
1/3-y,2/3+x-y,2/3+z
1/3-x+y,2/3-x,2/3+z
1/3+x-y,2/3-y,1/6-z
1/3-x,2/3-x+y,1/6-z
1/3+y,2/3+x,1/6-z
1/3-x,2/3-y,2/3-z
1/3+y,2/3-x+y,2/3-z
1/3+x-y,2/3+x,2/3-z
1/3-x+y,2/3+y,1/6+z
1/3+x,2/3+x-y,1/6+z
1/3-y,2/3-x,1/6+z
loop_
_atom_site_type_symbol
_atom_site_label
_atom_site_fract_x
_atom_site_fract_y
_atom_site_fract_z
Si Si1 0.729010 0.642344 0.243303
Si Si2 0.777695 0.602976 0.012109
Si Si3 0.809254 0.338227 0.869269
O O1 0.666872 0.666872 0.250000
O O2 0.807250 0.713576 0.281762
O O3 0.705840 0.566415 0.315686
O O4 0.743882 0.622499 0.119827
O O5 0.798929 0.666667 0.916667
O O6 0.720716 0.518552 0.968750
O O7 0.744794 0.279373 0.783641
#
# Coordination Sequence:
#
# PCOD9579706 Si02
#       3
#    36  36  36
#     4  11  27  49  83 118 162 210 271 352 418 482
#     4  11  25  49  78 121 158 209 276 337 414 496
#     4  12  27  49  78 114 165 216 270 332 411 502
#
# _framework density 25.138276999999999
#
# number of rings (size 3 to 8) (size 9 to 14) (size 15 to 20)
#    0.000    0.667    3.333    2.333    4.667    2.667 
#    0.000    5.000    0.000    0.000    0.000    0.000 
#    0.000    0.000    0.000    0.000    0.000    0.000 
#
# Total GULP energy -201179.992088 kJ/mol
# GULP energy per Si atom -5588.333114 kJ/mol
# Density = 2.508106 g / cm^3
# Si number density = 25.138277 Si / 1000 Ang^3
#
#
#
# Elastic Constant Matrix: (Units=GPa)
#
#
# Indices 1 2 3 4 5 6 
#
# 1 155.9924 57.6493 38.7634 10.7895 0.0000 0.0000
# 2 57.6493 155.9924 38.7634 -10.7895 0.0000 0.0000
# 3 38.7634 38.7634 117.4439 0.0000 0.0000 0.0000
# 4 10.7895 -10.7895 0.0000 37.8221 0.0000 0.0000
# 5 0.0000 0.0000 0.0000 0.0000 37.8221 10.7895
# 6 0.0000 0.0000 0.0000 0.0000 10.7895 49.1716
#
#
#
# Elastic Compliance Matrix: (Units=1/GPa)
#
#
# Indices 1 2 3 4 5 6 
#
# 1 0.008083 -0.002765 -0.001755 -0.003094 0.000000 0.000000
# 2 -0.002765 0.008083 -0.001755 0.003094 0.000000 0.000000
# 3 -0.001755 -0.001755 0.009673 0.000000 0.000000 0.000000
# 4 -0.003094 0.003094 0.000000 0.028205 0.000000 0.000000
# 5 0.000000 0.000000 0.000000 0.000000 0.028205 -0.006189
# 6 0.000000 0.000000 0.000000 0.000000 -0.006189 0.021695
#
#
# Mechanical properties :
#
#
# Convention : Reuss Voigt Hill
#
# Bulk Modulus (GPa) = 75.25565 77.75345 76.50455
# Shear Modulus (GPa) = 41.34850 44.57998 42.96424
#
# Velocity S-wave (km/s) = 4.06007 4.21573 4.13863
# Velocity P-wave (km/s) = 7.20975 7.39554 7.30324
#
# Compressibility (1/GPa) = 0.01328804
#
# Stress axis : x y z
#
# Youngs Moduli (GPa) = 123.72314 123.72314 103.37736
#
# Poissons Ratio (x) = 0.34208 0.18144
# Poissons Ratio (y) = 0.34208 0.18144
# Poissons Ratio (z) = 0.21715 0.21715
#
# Static dielectric constant tensor:
#      x y z
#    x 2.000580 0.000000 0.000000 
#    y 0.000000 2.000580 0.000000 
#    z 0.000000 0.000000 2.056320 
# 
# From -- ./inp_files/2074.got.cif
#   From: 2010.05.17/outbox.cif.g08.bks.cpg/sg167_2_cif.got.tgz:2074.got - 2010.05.20 11:09:15.
