data_PCOD9579065
_publ_section_title
;
Structure prediction by ZEFSAII (Michael W. Deem and Ramdas Pophale) SiO2 
 PCOD9579065
Probable space group: R -3 M
;
_chemical_formula_sum "Si O2"
_cell_formula_units_Z 216
_cell_length_a 23.876306
_cell_length_b 23.876306
_cell_length_c 25.948202
_cell_angle_alpha 90.000000
_cell_angle_beta 90.000000
_cell_angle_gamma 120.000000
_cell_volume 12810.679741
_symmetry_space_group_name_H-M "R -3 M"
_symmetry_group_IT_number 166
_symmetry_cell_setting 'hexagonal'
loop_
_space_group_symop_operation_xyz
x,y,z
-y,x-y,z
-x+y,-x,z
x-y,-y,-z
-x,-x+y,-z
y,x,-z
-x,-y,-z
y,-x+y,-z
x-y,x,-z
-x+y,y,z
x,x-y,z
-y,-x,z
2/3+x,1/3+y,1/3+z
2/3-y,1/3+x-y,1/3+z
2/3-x+y,1/3-x,1/3+z
2/3+x-y,1/3-y,1/3-z
2/3-x,1/3-x+y,1/3-z
2/3+y,1/3+x,1/3-z
2/3-x,1/3-y,1/3-z
2/3+y,1/3-x+y,1/3-z
2/3+x-y,1/3+x,1/3-z
2/3-x+y,1/3+y,1/3+z
2/3+x,1/3+x-y,1/3+z
2/3-y,1/3-x,1/3+z
1/3+x,2/3+y,2/3+z
1/3-y,2/3+x-y,2/3+z
1/3-x+y,2/3-x,2/3+z
1/3+x-y,2/3-y,2/3-z
1/3-x,2/3-x+y,2/3-z
1/3+y,2/3+x,2/3-z
1/3-x,2/3-y,2/3-z
1/3+y,2/3-x+y,2/3-z
1/3+x-y,2/3+x,2/3-z
1/3-x+y,2/3+y,2/3+z
1/3+x,2/3+x-y,2/3+z
1/3-y,2/3-x,2/3+z
loop_
_atom_site_type_symbol
_atom_site_label
_atom_site_fract_x
_atom_site_fract_y
_atom_site_fract_z
Si Si1 0.202105 0.666319 0.376491
Si Si2 0.524797 0.929047 0.525670
Si Si3 0.240696 0.057304 0.797341
Si Si4 0.642010 0.720943 0.705266
Si Si5 0.058147 0.814379 0.629120
Si Si6 0.025681 0.382902 0.107766
O O1 0.203561 0.601781 0.392631
O O2 0.274007 0.725994 0.367766
O O3 0.169020 0.690179 0.418791
O O4 0.157085 0.647040 0.326053
O O5 0.450571 0.901142 0.509656
O O6 0.555459 0.886989 0.506272
O O7 0.532035 0.940700 0.586549
O O8 0.564353 0.000000 0.500000
O O9 0.236411 0.118206 0.817125
O O10 0.313235 0.081206 0.777151
O O11 0.592438 0.666667 0.666667
O O12 0.699316 0.776679 0.671743
O O13 0.670483 0.685080 0.740683
O O14 0.125067 0.874934 0.608534
O O15 0.011595 0.761345 0.587594
O O16 0.035301 0.368635 0.166667
#
# Coordination Sequence:
#
# PCOD9579065 Si02
#       6
#    36  36  36  36  36  36
#     4  10  20  35  54  77 103 134 176 222 270 318
#     4  11  19  33  56  79 105 139 181 224 267 317
#     4  11  21  33  51  78 110 144 177 215 268 327
#     4  10  18  32  53  76 108 136 173 217 261 315
#     4  10  21  35  55  79 106 141 178 220 267 319
#     4  11  20  36  51  75 111 139 178 212 263 317
#
# _framework density 16.860931999999998
#
# number of rings (size 3 to 8) (size 9 to 14) (size 15 to 20)
#    0.000    1.500    5.000    1.167    0.000    4.000 
#    0.000    2.500    0.000    0.333    0.000    0.000 
#    0.000    4.000    0.000    0.000    0.000    0.000 
#
# Total GULP energy -401329.435392 kJ/mol
# GULP energy per Si atom -5574.019936 kJ/mol
# Density = 1.682256 g / cm^3
# Si number density = 16.860932 Si / 1000 Ang^3
#
#
#
# Elastic Constant Matrix: (Units=GPa)
#
#
# Indices 1 2 3 4 5 6 
#
# 1 97.9974 56.9135 35.6978 0.4847 -0.0001 0.0000
# 2 56.9135 97.9974 35.6978 -0.4847 0.0001 0.0000
# 3 35.6978 35.6978 72.2886 0.0000 0.0000 0.0000
# 4 0.4847 -0.4847 0.0000 14.3326 0.0000 0.0001
# 5 -0.0001 0.0001 0.0000 0.0000 14.3326 0.4847
# 6 0.0000 0.0000 0.0000 0.0001 0.4847 20.5419
#
#
#
# Elastic Compliance Matrix: (Units=1/GPa)
#
#
# Indices 1 2 3 4 5 6 
#
# 1 0.016359 -0.008001 -0.004127 -0.000824 0.000000 0.000000
# 2 -0.008001 0.016359 -0.004127 0.000824 0.000000 0.000000
# 3 -0.004127 -0.004127 0.017910 0.000000 0.000000 0.000000
# 4 -0.000824 0.000824 0.000000 0.069827 0.000000 0.000000
# 5 0.000000 0.000000 0.000000 0.000000 0.069827 -0.001648
# 6 0.000000 0.000000 0.000000 0.000000 -0.001648 0.048720
#
#
# Mechanical properties :
#
#
# Convention : Reuss Voigt Hill
#
# Bulk Modulus (GPa) = 55.19973 58.32240 56.76106
# Shear Modulus (GPa) = 18.01480 19.17304 18.59392
#
# Velocity S-wave (km/s) = 3.27224 3.37579 3.32442
# Velocity P-wave (km/s) = 6.86193 7.06116 6.96226
#
# Compressibility (1/GPa) = 0.01811603
#
# Stress axis : x y z
#
# Youngs Moduli (GPa) = 61.12967 61.12967 55.83607
#
# Poissons Ratio (x) = 0.48911 0.23044
# Poissons Ratio (y) = 0.48911 0.23044
# Poissons Ratio (z) = 0.25229 0.25229
#
# Static dielectric constant tensor:
#      x y z
#    x 1.586220 0.000000 0.000000 
#    y 0.000000 1.586220 0.000000 
#    z 0.000000 0.000000 1.573250 
# 
# From -- ./inp_files/8481.got.cif
#   From: 2010.05.17/outbox.cif.g08.bks.cpg/sg166_5_cif.got.tgz:8481.got - 2010.05.20 11:04:41.
