data_PCOD9579527
_publ_section_title
;
Structure prediction by ZEFSAII (Michael W. Deem and Ramdas Pophale) SiO2 
 PCOD9579527
Probable space group: R -3 C 
;
_chemical_formula_sum "Si O2"
_cell_formula_units_Z 216
_cell_length_a 25.793418
_cell_length_b 25.793418
_cell_length_c 21.844414
_cell_angle_alpha 90.000000
_cell_angle_beta 90.000000
_cell_angle_gamma 120.000000
_cell_volume 12586.031749
_symmetry_space_group_name_H-M "R -3 C "
_symmetry_group_IT_number 167
_symmetry_cell_setting 'hexagonal'
loop_
_space_group_symop_operation_xyz
x,y,z
-y,x-y,z
-x+y,-x,z
x-y,-y,1/2-z
-x,-x+y,1/2-z
y,x,1/2-z
-x,-y,-z
y,-x+y,-z
x-y,x,-z
-x+y,y,1/2+z
x,x-y,1/2+z
-y,-x,1/2+z
2/3+x,1/3+y,1/3+z
2/3-y,1/3+x-y,1/3+z
2/3-x+y,1/3-x,1/3+z
2/3+x-y,1/3-y,5/6-z
2/3-x,1/3-x+y,5/6-z
2/3+y,1/3+x,5/6-z
2/3-x,1/3-y,1/3-z
2/3+y,1/3-x+y,1/3-z
2/3+x-y,1/3+x,1/3-z
2/3-x+y,1/3+y,5/6+z
2/3+x,1/3+x-y,5/6+z
2/3-y,1/3-x,5/6+z
1/3+x,2/3+y,2/3+z
1/3-y,2/3+x-y,2/3+z
1/3-x+y,2/3-x,2/3+z
1/3+x-y,2/3-y,1/6-z
1/3-x,2/3-x+y,1/6-z
1/3+y,2/3+x,1/6-z
1/3-x,2/3-y,2/3-z
1/3+y,2/3-x+y,2/3-z
1/3+x-y,2/3+x,2/3-z
1/3-x+y,2/3+y,1/6+z
1/3+x,2/3+x-y,1/6+z
1/3-y,2/3-x,1/6+z
loop_
_atom_site_type_symbol
_atom_site_label
_atom_site_fract_x
_atom_site_fract_y
_atom_site_fract_z
Si Si1 0.215065 0.862626 0.517438
Si Si2 0.842901 0.286363 0.797182
Si Si3 0.545989 0.971114 0.384329
Si Si4 0.218876 0.058250 0.562369
Si Si5 0.772634 0.758119 0.682010
Si Si6 0.754076 0.719105 0.156680
O O1 0.184914 0.851580 0.583334
O O2 0.201925 0.911436 0.488125
O O3 0.183937 0.800652 0.480692
O O4 0.285981 0.892111 0.518526
O O5 0.856187 0.336822 0.847620
O O6 0.772836 0.241125 0.785582
O O7 0.876828 0.306508 0.732181
O O8 0.538652 0.944615 0.452348
O O9 0.591273 0.956128 0.348636
O O10 0.576825 0.042738 0.385886
O O11 0.215492 0.043127 0.634645
O O12 0.785050 0.785050 0.750000
O O13 0.738241 0.685602 0.691400
#
# Coordination Sequence:
#
# PCOD9579527 Si02
#       6
#    36  36  36  36  36  36
#     4  11  21  32  50  77 105 139 183 217 255 308
#     4  11  22  36  54  76 106 139 176 219 266 308
#     4   9  22  34  51  76 107 138 184 214 262 315
#     4  10  23  36  53  79 106 139 179 218 260 318
#     4  11  21  32  52  75 108 143 180 215 259 311
#     4  10  21  35  51  74 106 146 173 219 264 316
#
# _framework density 17.161881999999999
#
# number of rings (size 3 to 8) (size 9 to 14) (size 15 to 20)
#    0.000    1.667    3.333    1.000    9.333    2.000 
#    0.000    0.000    0.000    0.333    0.000    0.000 
#    0.000    0.000    5.667    0.000    0.000    0.000 
#
# Total GULP energy -401272.709297 kJ/mol
# GULP energy per Si atom -5573.232074 kJ/mol
# Density = 1.712282 g / cm^3
# Si number density = 17.161882 Si / 1000 Ang^3
#
#
#
# Elastic Constant Matrix: (Units=GPa)
#
#
# Indices 1 2 3 4 5 6 
#
# 1 39.4692 7.1783 21.6296 -8.3494 0.0000 0.0000
# 2 7.1783 39.4692 21.6296 8.3494 0.0000 0.0000
# 3 21.6296 21.6296 111.6108 0.0000 0.0000 0.0000
# 4 -8.3494 8.3494 0.0000 16.2745 0.0000 0.0000
# 5 0.0000 0.0000 0.0000 0.0000 16.2745 -8.3494
# 6 0.0000 0.0000 0.0000 0.0000 -8.3494 16.1454
#
#
#
# Elastic Compliance Matrix: (Units=1/GPa)
#
#
# Indices 1 2 3 4 5 6 
#
# 1 0.034143 -0.008009 -0.005065 0.021626 0.000000 0.000000
# 2 -0.008009 0.034143 -0.005065 -0.021626 0.000000 0.000000
# 3 -0.005065 -0.005065 0.010923 0.000000 0.000000 0.000000
# 4 0.021626 -0.021626 0.000000 0.083635 0.000000 0.000000
# 5 0.000000 0.000000 0.000000 0.000000 0.083635 0.043251
# 6 0.000000 0.000000 0.000000 0.000000 0.043251 0.084304
#
#
# Mechanical properties :
#
#
# Convention : Reuss Voigt Hill
#
# Bulk Modulus (GPa) = 23.29246 32.38047 27.83647
# Shear Modulus (GPa) = 13.11063 19.07967 16.09515
#
# Velocity S-wave (km/s) = 2.76694 3.33790 3.06574
# Velocity P-wave (km/s) = 4.87951 5.81069 5.36534
#
# Compressibility (1/GPa) = 0.04293235
#
# Stress axis : x y z
#
# Youngs Moduli (GPa) = 29.28856 29.28856 91.55231
#
# Poissons Ratio (x) = 0.23457 0.46368
# Poissons Ratio (y) = 0.23457 0.46368
# Poissons Ratio (z) = 0.14834 0.14834
#
# Static dielectric constant tensor:
#      x y z
#    x 1.585120 0.000000 0.000000 
#    y 0.000000 1.585120 0.000000 
#    z 0.000000 0.000000 2.094400 
# 
# From -- ./inp_files/4614.got.cif
#   From: 2010.05.17/outbox.cif.g08.bks.cpg/sg167_3_cif.got.tgz:4614.got - 2010.05.20 11:09:15.
