data_PCOD9579621
_publ_section_title
;
Structure prediction by ZEFSAII (Michael W. Deem and Ramdas Pophale) SiO2 
 PCOD9579621
Probable space group: R -3 C 
;
_chemical_formula_sum "Si O2"
_cell_formula_units_Z 144
_cell_length_a 18.214392
_cell_length_b 18.214392
_cell_length_c 21.203541
_cell_angle_alpha 90.000000
_cell_angle_beta 90.000000
_cell_angle_gamma 120.000000
_cell_volume 6092.119084
_symmetry_space_group_name_H-M "R -3 C "
_symmetry_group_IT_number 167
_symmetry_cell_setting 'hexagonal'
loop_
_space_group_symop_operation_xyz
x,y,z
-y,x-y,z
-x+y,-x,z
x-y,-y,1/2-z
-x,-x+y,1/2-z
y,x,1/2-z
-x,-y,-z
y,-x+y,-z
x-y,x,-z
-x+y,y,1/2+z
x,x-y,1/2+z
-y,-x,1/2+z
2/3+x,1/3+y,1/3+z
2/3-y,1/3+x-y,1/3+z
2/3-x+y,1/3-x,1/3+z
2/3+x-y,1/3-y,5/6-z
2/3-x,1/3-x+y,5/6-z
2/3+y,1/3+x,5/6-z
2/3-x,1/3-y,1/3-z
2/3+y,1/3-x+y,1/3-z
2/3+x-y,1/3+x,1/3-z
2/3-x+y,1/3+y,5/6+z
2/3+x,1/3+x-y,5/6+z
2/3-y,1/3-x,5/6+z
1/3+x,2/3+y,2/3+z
1/3-y,2/3+x-y,2/3+z
1/3-x+y,2/3-x,2/3+z
1/3+x-y,2/3-y,1/6-z
1/3-x,2/3-x+y,1/6-z
1/3+y,2/3+x,1/6-z
1/3-x,2/3-y,2/3-z
1/3+y,2/3-x+y,2/3-z
1/3+x-y,2/3+x,2/3-z
1/3-x+y,2/3+y,1/6+z
1/3+x,2/3+x-y,1/6+z
1/3-y,2/3-x,1/6+z
loop_
_atom_site_type_symbol
_atom_site_label
_atom_site_fract_x
_atom_site_fract_y
_atom_site_fract_z
Si Si1 0.327373 0.218220 0.258233
Si Si2 0.986443 0.836311 0.531167
Si Si3 0.876066 0.123378 0.378618
Si Si4 0.710042 0.625873 0.212006
O O1 0.402778 0.288277 0.301710
O O2 0.261238 0.144069 0.304562
O O3 0.370014 0.167308 0.227602
O O4 0.301287 0.254429 0.197987
O O5 0.033770 0.862374 0.599493
O O6 0.904565 0.842707 0.512930
O O7 0.857046 0.190379 0.416667
O O8 0.798859 0.032542 0.398465
O O9 0.693215 0.693215 0.250000
#
# Coordination Sequence:
#
# PCOD9579621 Si02
#       4
#    36  36  36  36
#     4  11  23  42  68 100 141 191 241 318 380 457
#     4  12  25  42  66 106 150 194 247 314 386 457
#     4  11  23  39  65  96 139 186 241 306 374 446
#     4  10  23  42  66 101 137 184 252 305 388 454
#
# _framework density 23.637096
#
# number of rings (size 3 to 8) (size 9 to 14) (size 15 to 20)
#    0.000    1.000    2.500    4.000    3.500    2.000 
#    0.000    0.000    0.000    0.000    0.000   10.500 
#    0.000    0.000    0.000    0.000    0.000    0.000 
#
# Total GULP energy -267635.302263 kJ/mol
# GULP energy per Si atom -5575.735464 kJ/mol
# Density = 2.358330 g / cm^3
# Si number density = 23.637096 Si / 1000 Ang^3
#
#
#
# Elastic Constant Matrix: (Units=GPa)
#
#
# Indices 1 2 3 4 5 6 
#
# 1 79.3323 20.1279 36.9684 2.2761 -0.0001 0.0000
# 2 20.1279 79.3323 36.9684 -2.2761 0.0001 0.0000
# 3 36.9684 36.9684 184.9067 0.0000 0.0000 0.0000
# 4 2.2761 -2.2761 0.0000 38.6032 0.0000 0.0001
# 5 -0.0001 0.0001 0.0000 0.0000 38.6032 2.2761
# 6 0.0000 0.0000 0.0000 0.0001 2.2761 29.6022
#
#
#
# Elastic Compliance Matrix: (Units=1/GPa)
#
#
# Indices 1 2 3 4 5 6 
#
# 1 0.014389 -0.002579 -0.002361 -0.001000 0.000000 0.000000
# 2 -0.002579 0.014389 -0.002361 0.001000 0.000000 0.000000
# 3 -0.002361 -0.002361 0.006352 0.000000 0.000000 0.000000
# 4 -0.001000 0.001000 0.000000 0.026023 0.000000 0.000000
# 5 0.000000 0.000000 0.000000 0.000000 0.026023 -0.002001
# 6 0.000000 0.000000 0.000000 0.000000 -0.002001 0.033935
#
#
# Mechanical properties :
#
#
# Convention : Reuss Voigt Hill
#
# Bulk Modulus (GPa) = 48.71667 59.07787 53.89727
# Shear Modulus (GPa) = 35.07438 37.99548 36.53493
#
# Velocity S-wave (km/s) = 3.85628 4.01365 3.93575
# Velocity P-wave (km/s) = 6.36262 6.82108 6.59583
#
# Compressibility (1/GPa) = 0.02052686
#
# Stress axis : x y z
#
# Youngs Moduli (GPa) = 69.49993 69.49993 157.42510
#
# Poissons Ratio (x) = 0.17924 0.37169
# Poissons Ratio (y) = 0.17924 0.37169
# Poissons Ratio (z) = 0.16409 0.16409
#
# Static dielectric constant tensor:
#      x y z
#    x 1.921060 0.000000 0.000000 
#    y 0.000000 1.921060 0.000000 
#    z 0.000000 0.000000 2.068540 
# 
# From -- ./inp_files/4318.got.cif
#   From: 2010.05.17/outbox.cif.g08.bks.cpg/sg167_3_cif.got.tgz:4318.got - 2010.05.20 11:09:15.
