data_PCOD9579927
_publ_section_title
;
Structure prediction by ZEFSAII (Michael W. Deem and Ramdas Pophale) SiO2 
 PCOD9579927
Probable space group: P 61
;
_chemical_formula_sum "Si O2"
_cell_formula_units_Z 48
_cell_length_a 13.066033
_cell_length_b 13.066033
_cell_length_c 19.321261
_cell_angle_alpha 90.000000
_cell_angle_beta 90.000000
_cell_angle_gamma 120.000000
_cell_volume 2856.627419
_symmetry_space_group_name_H-M "P 61"
_symmetry_group_IT_number 169
_symmetry_cell_setting 'hexagonal'
loop_
_space_group_symop_operation_xyz
x,y,z
x-y,x,1/6+z
-y,x-y,1/3+z
-x,-y,1/2+z
-x+y,-x,2/3+z
y,-x+y,5/6+z
loop_
_atom_site_type_symbol
_atom_site_label
_atom_site_fract_x
_atom_site_fract_y
_atom_site_fract_z
Si Si1 0.189193 0.538998 0.654630
Si Si2 0.340362 0.785289 0.835640
Si Si3 0.551018 0.761401 0.768596
Si Si4 0.560608 0.429877 0.148456
Si Si5 0.389035 0.383205 0.372711
Si Si6 0.390876 0.860797 0.483334
Si Si7 0.767387 0.570918 0.425753
Si Si8 0.589454 0.648575 0.373791
O O1 0.299508 0.518964 0.647056
O O2 0.157862 0.533999 0.734663
O O3 0.221323 0.667051 0.624712
O O4 0.080888 0.445881 0.609014
O O5 0.446621 0.760836 0.814594
O O6 0.375793 0.859994 0.905681
O O7 0.220498 0.662329 0.845043
O O8 0.325907 0.853427 0.771324
O O9 0.489747 0.668830 0.707084
O O10 0.618736 0.889187 0.731070
O O11 0.618640 0.712554 0.816909
O O12 0.522697 0.525154 0.164548
O O13 0.487949 0.516685 0.348135
O O14 0.267399 0.813950 0.521420
O O15 0.699162 0.640237 0.405258
O O16 0.873862 0.619990 0.481212
#
# Coordination Sequence:
#
# PCOD9579927 Si02
#       8
#     6   6   6   6   6   6   6   6
#     4  11  21  37  53  83 121 151 181 237 284 342
#     4  11  21  37  53  83 121 151 181 237 284 342
#     4  11  21  37  57  81 117 151 188 232 291 341
#     4  12  23  34  57  84 116 150 192 230 285 346
#     4  10  21  36  57  80 118 153 187 232 290 339
#     4  12  23  34  57  84 116 150 192 230 285 346
#     4  11  21  37  57  81 117 151 188 232 291 341
#     4  10  21  36  57  80 118 153 187 232 290 339
#
# _framework density 16.803031000000001
#
# number of rings (size 3 to 8) (size 9 to 14) (size 15 to 20)
#    0.000    1.000    5.000    4.500    3.500    0.000 
#    0.000    0.000    0.000    0.000    0.000    5.250 
#    0.000    0.000    0.000    0.000    0.000    0.000 
#
# Total GULP energy -267982.881588 kJ/mol
# GULP energy per Si atom -5582.976700 kJ/mol
# Density = 1.676479 g / cm^3
# Si number density = 16.803031 Si / 1000 Ang^3
#
#
#
# Elastic Constant Matrix: (Units=GPa)
#
#
# Indices 1 2 3 4 5 6 
#
# 1 80.0615 35.7854 10.2562 0.0000 0.0000 0.0000
# 2 35.7854 80.0615 10.2562 0.0000 0.0000 0.0000
# 3 10.2562 10.2562 68.9634 0.0000 0.0000 0.0000
# 4 0.0000 0.0000 0.0000 17.2844 0.0000 0.0000
# 5 0.0000 0.0000 0.0000 0.0000 17.2844 0.0000
# 6 0.0000 0.0000 0.0000 0.0000 0.0000 22.1380
#
#
#
# Elastic Compliance Matrix: (Units=1/GPa)
#
#
# Indices 1 2 3 4 5 6 
#
# 1 0.015726 -0.006860 -0.001318 0.000000 0.000000 0.000000
# 2 -0.006860 0.015726 -0.001318 0.000000 0.000000 0.000000
# 3 -0.001318 -0.001318 0.014893 0.000000 0.000000 0.000000
# 4 0.000000 0.000000 0.000000 0.057856 0.000000 0.000000
# 5 0.000000 0.000000 0.000000 0.000000 0.057856 0.000000
# 6 0.000000 0.000000 0.000000 0.000000 0.000000 0.045171
#
#
# Mechanical properties :
#
#
# Convention : Reuss Voigt Hill
#
# Bulk Modulus (GPa) = 36.56335 37.96465 37.26400
# Shear Modulus (GPa) = 21.24615 22.86060 22.05337
#
# Velocity S-wave (km/s) = 3.55973 3.69250 3.62672
# Velocity P-wave (km/s) = 6.22116 6.38924 6.30576
#
# Compressibility (1/GPa) = 0.02734979
#
# Stress axis : x y z
#
# Youngs Moduli (GPa) = 63.59077 63.59077 67.14741
#
# Poissons Ratio (x) = 0.43623 0.08853
# Poissons Ratio (y) = 0.43623 0.08853
# Poissons Ratio (z) = 0.08384 0.08384
#
# Static dielectric constant tensor:
#      x y z
#    x 1.563830 0.000000 0.000000 
#    y 0.000000 1.563830 0.000000 
#    z 0.000000 0.000000 1.583060 
# 
# From -- ./inp_files/1568.got.cif
#   From: 2010.05.17/outbox.cif.g08.bks.cpg/sg169_cif.got.tgz:1568.got - 2010.05.20 11:12:54.
