data_PCOD9579206
_publ_section_title
;
Structure prediction by ZEFSAII (Michael W. Deem and Ramdas Pophale) SiO2 
 PCOD9579206
Probable space group: R -3 M
;
_chemical_formula_sum "Si O2"
_cell_formula_units_Z 144
_cell_length_a 32.045008
_cell_length_b 32.045008
_cell_length_c 8.344100
_cell_angle_alpha 90.000000
_cell_angle_beta 90.000000
_cell_angle_gamma 120.000000
_cell_volume 7420.461235
_symmetry_space_group_name_H-M "R -3 M"
_symmetry_group_IT_number 166
_symmetry_cell_setting 'hexagonal'
loop_
_space_group_symop_operation_xyz
x,y,z
-y,x-y,z
-x+y,-x,z
x-y,-y,-z
-x,-x+y,-z
y,x,-z
-x,-y,-z
y,-x+y,-z
x-y,x,-z
-x+y,y,z
x,x-y,z
-y,-x,z
2/3+x,1/3+y,1/3+z
2/3-y,1/3+x-y,1/3+z
2/3-x+y,1/3-x,1/3+z
2/3+x-y,1/3-y,1/3-z
2/3-x,1/3-x+y,1/3-z
2/3+y,1/3+x,1/3-z
2/3-x,1/3-y,1/3-z
2/3+y,1/3-x+y,1/3-z
2/3+x-y,1/3+x,1/3-z
2/3-x+y,1/3+y,1/3+z
2/3+x,1/3+x-y,1/3+z
2/3-y,1/3-x,1/3+z
1/3+x,2/3+y,2/3+z
1/3-y,2/3+x-y,2/3+z
1/3-x+y,2/3-x,2/3+z
1/3+x-y,2/3-y,2/3-z
1/3-x,2/3-x+y,2/3-z
1/3+y,2/3+x,2/3-z
1/3-x,2/3-y,2/3-z
1/3+y,2/3-x+y,2/3-z
1/3+x-y,2/3+x,2/3-z
1/3-x+y,2/3+y,2/3+z
1/3+x,2/3+x-y,2/3+z
1/3-y,2/3-x,2/3+z
loop_
_atom_site_type_symbol
_atom_site_label
_atom_site_fract_x
_atom_site_fract_y
_atom_site_fract_z
Si Si1 0.050225 0.767248 0.904686
Si Si2 0.570039 0.236654 0.637630
Si Si3 0.334689 0.474210 0.358466
Si Si4 0.429328 0.473500 0.890950
O O1 0.060873 0.727540 0.833334
O O2 0.042915 0.799901 0.772578
O O3 0.091780 0.795348 0.035697
O O4 0.000000 0.741042 0.000000
O O5 0.619824 0.239648 0.586462
O O6 0.567115 0.283558 0.586511
O O7 0.523540 0.186507 0.586635
O O8 0.570051 0.236718 0.833334
O O9 0.284553 0.427692 0.405051
O O10 0.333334 0.473156 0.166667
O O11 0.475667 0.524334 0.926946
O O12 0.434637 0.434637 0.000000
#
# Coordination Sequence:
#
# PCOD9579206 Si02
#       4
#    36  36  36  36
#     4  10  22  37  55  81 109 144 188 234 285 343
#     4   9  17  30  51  80 113 148 187 232 282 336
#     4  10  20  35  56  82 114 150 190 237 288 345
#     4  10  21  37  56  79 110 147 187 235 291 347
#
# _framework density 19.405802000000001
#
# number of rings (size 3 to 8) (size 9 to 14) (size 15 to 20)
#    0.000    2.250    0.000    2.500    0.000    8.500 
#    0.000    0.000    0.000    0.000    0.000    0.000 
#    0.000   20.000    0.000    0.000    0.000    0.000 
#
# Total GULP energy -267617.258215 kJ/mol
# GULP energy per Si atom -5575.359546 kJ/mol
# Density = 1.936163 g / cm^3
# Si number density = 19.405802 Si / 1000 Ang^3
#
#
#
# Elastic Constant Matrix: (Units=GPa)
#
#
# Indices 1 2 3 4 5 6 
#
# 1 113.2962 51.2271 27.4568 -0.9627 -0.0239 -0.0018
# 2 51.2271 113.3249 27.4496 0.9773 -0.0093 -0.0096
# 3 27.4568 27.4496 60.7150 0.0792 -0.0248 0.0002
# 4 -0.9627 0.9773 0.0792 19.1047 0.0228 -0.0211
# 5 -0.0239 -0.0093 -0.0248 0.0228 19.1326 -0.9753
# 6 -0.0018 -0.0096 0.0002 -0.0211 -0.9753 31.0516
#
#
#
# Elastic Compliance Matrix: (Units=1/GPa)
#
#
# Indices 1 2 3 4 5 6 
#
# 1 0.011648 -0.004488 -0.003240 0.000830 0.000007 0.000000
# 2 -0.004488 0.011643 -0.003233 -0.000808 -0.000003 0.000003
# 3 -0.003240 -0.003233 0.019397 -0.000078 0.000020 -0.000001
# 4 0.000830 -0.000808 -0.000078 0.052427 -0.000060 0.000034
# 5 0.000007 -0.000003 0.000020 -0.000060 0.052351 0.001644
# 6 0.000000 0.000003 -0.000001 0.000034 0.001644 0.032256
#
#
# Mechanical properties :
#
#
# Convention : Reuss Voigt Hill
#
# Bulk Modulus (GPa) = 48.15376 55.51146 51.83261
# Shear Modulus (GPa) = 23.97336 25.93795 24.95565
#
# Velocity S-wave (km/s) = 3.51860 3.65993 3.58996
# Velocity P-wave (km/s) = 6.43237 6.82113 6.62960
#
# Compressibility (1/GPa) = 0.02076681
#
# Stress axis : x y z
#
# Youngs Moduli (GPa) = 85.85405 85.88907 51.55350
#
# Poissons Ratio (x) = 0.38544 0.16701
# Poissons Ratio (y) = 0.38528 0.16669
# Poissons Ratio (z) = 0.27813 0.27771
#
# Static dielectric constant tensor:
#      x y z
#    x 1.659090 0.000000 -0.000040 
#    y 0.000000 1.659100 -0.000010 
#    z -0.000040 -0.000010 1.761190 
# 
# From -- ./inp_files/1765.got.cif
#   From: 2010.05.17/outbox.cif.g08.bks.cpg/sg166_1_cif.got.tgz:1765.got - 2010.05.20 11:04:41.
