data_PCOD9579529
_publ_section_title
;
Structure prediction by ZEFSAII (Michael W. Deem and Ramdas Pophale) SiO2 
 PCOD9579529
Probable space group: R -3 C 
;
_chemical_formula_sum "Si O2"
_cell_formula_units_Z 270
_cell_length_a 22.678137
_cell_length_b 22.678137
_cell_length_c 27.724656
_cell_angle_alpha 90.000000
_cell_angle_beta 90.000000
_cell_angle_gamma 120.000000
_cell_volume 12348.424396
_symmetry_space_group_name_H-M "R -3 C "
_symmetry_group_IT_number 167
_symmetry_cell_setting 'hexagonal'
loop_
_space_group_symop_operation_xyz
x,y,z
-y,x-y,z
-x+y,-x,z
x-y,-y,1/2-z
-x,-x+y,1/2-z
y,x,1/2-z
-x,-y,-z
y,-x+y,-z
x-y,x,-z
-x+y,y,1/2+z
x,x-y,1/2+z
-y,-x,1/2+z
2/3+x,1/3+y,1/3+z
2/3-y,1/3+x-y,1/3+z
2/3-x+y,1/3-x,1/3+z
2/3+x-y,1/3-y,5/6-z
2/3-x,1/3-x+y,5/6-z
2/3+y,1/3+x,5/6-z
2/3-x,1/3-y,1/3-z
2/3+y,1/3-x+y,1/3-z
2/3+x-y,1/3+x,1/3-z
2/3-x+y,1/3+y,5/6+z
2/3+x,1/3+x-y,5/6+z
2/3-y,1/3-x,5/6+z
1/3+x,2/3+y,2/3+z
1/3-y,2/3+x-y,2/3+z
1/3-x+y,2/3-x,2/3+z
1/3+x-y,2/3-y,1/6-z
1/3-x,2/3-x+y,1/6-z
1/3+y,2/3+x,1/6-z
1/3-x,2/3-y,2/3-z
1/3+y,2/3-x+y,2/3-z
1/3+x-y,2/3+x,2/3-z
1/3-x+y,2/3+y,1/6+z
1/3+x,2/3+x-y,1/6+z
1/3-y,2/3-x,1/6+z
loop_
_atom_site_type_symbol
_atom_site_label
_atom_site_fract_x
_atom_site_fract_y
_atom_site_fract_z
Si Si1 0.741576 0.169893 0.652122
Si Si2 0.554908 0.059231 0.620965
Si Si3 0.069138 0.431988 0.124812
Si Si4 0.401250 0.000000 0.250000
Si Si5 0.887298 0.605960 0.179659
Si Si6 0.044516 0.892664 0.016268
Si Si7 0.939219 0.795509 0.376299
Si Si8 0.590849 0.995823 0.137903
O O1 0.742903 0.175670 0.594194
O O2 0.808603 0.237081 0.668611
O O3 0.750489 0.104046 0.659574
O O4 0.679606 0.161424 0.684298
O O5 0.559622 0.112268 0.661899
O O6 0.587299 0.010120 0.631253
O O7 0.474067 0.005905 0.615348
O O8 0.078652 0.438781 0.067753
O O9 0.115477 0.501391 0.154472
O O10 0.088616 0.376783 0.144434
O O11 0.469448 0.051316 0.223288
O O12 0.383009 0.052811 0.274851
O O13 0.931099 0.588078 0.144413
O O14 0.059580 0.891765 0.073777
O O15 0.966284 0.871837 0.006536
#
# Coordination Sequence:
#
# PCOD9579529 Si02
#       8
#    36  36  36  18  36  36  36  36
#     4  10  21  40  64  89 128 170 222 265 330 402
#     4  11  24  39  65 100 130 175 223 268 333 411
#     4  11  22  39  61  94 133 176 217 262 328 399
#     4  12  22  38  62  94 134 180 204 264 334 402
#     4  10  21  35  59  92 129 175 211 260 320 396
#     4  12  27  46  69  93 125 170 232 287 337 396
#     4  12  23  44  66  92 130 173 217 274 336 398
#     4  12  22  37  59  93 139 169 214 271 323 395
#
# _framework density 21.865137000000001
#
# number of rings (size 3 to 8) (size 9 to 14) (size 15 to 20)
#    0.000    0.800    4.000    3.333    5.600    2.133 
#    2.400    0.000    0.000    0.000    0.000    0.000 
#    0.000    0.000    0.000    0.000    0.000    0.000 
#
# Total GULP energy -502419.196241 kJ/mol
# GULP energy per Si atom -5582.435514 kJ/mol
# Density = 2.181537 g / cm^3
# Si number density = 21.865137 Si / 1000 Ang^3
#
#
#
# Elastic Constant Matrix: (Units=GPa)
#
#
# Indices 1 2 3 4 5 6 
#
# 1 38.8818 -6.9027 6.6262 -1.9573 0.0000 0.0000
# 2 -6.9027 38.8818 6.6262 1.9573 0.0000 0.0000
# 3 6.6262 6.6262 94.8179 0.0000 0.0000 0.0000
# 4 -1.9573 1.9573 0.0000 24.0242 0.0000 0.0000
# 5 0.0000 0.0000 0.0000 0.0000 24.0242 -1.9573
# 6 0.0000 0.0000 0.0000 0.0000 -1.9573 22.8922
#
#
#
# Elastic Compliance Matrix: (Units=1/GPa)
#
#
# Indices 1 2 3 4 5 6 
#
# 1 0.027099 0.005104 -0.002250 0.001792 0.000000 0.000000
# 2 0.005104 0.027099 -0.002250 -0.001792 0.000000 0.000000
# 3 -0.002250 -0.002250 0.010861 0.000000 0.000000 0.000000
# 4 0.001792 -0.001792 0.000000 0.041917 0.000000 0.000000
# 5 0.000000 0.000000 0.000000 0.000000 0.041917 0.003584
# 6 0.000000 0.000000 0.000000 0.000000 0.003584 0.043989
#
#
# Mechanical properties :
#
#
# Convention : Reuss Voigt Hill
#
# Bulk Modulus (GPa) = 15.09084 20.58676 17.83880
# Shear Modulus (GPa) = 23.39032 25.27022 24.33027
#
# Velocity S-wave (km/s) = 3.27426 3.40329 3.33940
# Velocity P-wave (km/s) = 4.60555 4.98788 4.80053
#
# Compressibility (1/GPa) = 0.06626535
#
# Stress axis : x y z
#
# Youngs Moduli (GPa) = 36.90190 36.90190 92.07189
#
# Poissons Ratio (x) = -0.18835 0.20720
# Poissons Ratio (y) = -0.18835 0.20720
# Poissons Ratio (z) = 0.08305 0.08305
#
# Static dielectric constant tensor:
#      x y z
#    x 1.819690 0.000000 0.000000 
#    y 0.000000 1.819690 0.000000 
#    z 0.000000 0.000000 1.933120 
# 
# From -- ./inp_files/7247.got.cif
#   From: 2010.05.17/outbox.cif.g08.bks.cpg/sg167_4_cif.got.tgz:7247.got - 2010.05.20 11:09:15.
