data_PCOD9579631
_publ_section_title
;
Structure prediction by ZEFSAII (Michael W. Deem and Ramdas Pophale) SiO2 
 PCOD9579631
Probable space group: R -3 C 
;
_chemical_formula_sum "Si O2"
_cell_formula_units_Z 90
_cell_length_a 15.888549
_cell_length_b 15.888549
_cell_length_c 14.604255
_cell_angle_alpha 90.000000
_cell_angle_beta 90.000000
_cell_angle_gamma 120.000000
_cell_volume 3192.849989
_symmetry_space_group_name_H-M "R -3 C "
_symmetry_group_IT_number 167
_symmetry_cell_setting 'hexagonal'
loop_
_space_group_symop_operation_xyz
x,y,z
-y,x-y,z
-x+y,-x,z
x-y,-y,1/2-z
-x,-x+y,1/2-z
y,x,1/2-z
-x,-y,-z
y,-x+y,-z
x-y,x,-z
-x+y,y,1/2+z
x,x-y,1/2+z
-y,-x,1/2+z
2/3+x,1/3+y,1/3+z
2/3-y,1/3+x-y,1/3+z
2/3-x+y,1/3-x,1/3+z
2/3+x-y,1/3-y,5/6-z
2/3-x,1/3-x+y,5/6-z
2/3+y,1/3+x,5/6-z
2/3-x,1/3-y,1/3-z
2/3+y,1/3-x+y,1/3-z
2/3+x-y,1/3+x,1/3-z
2/3-x+y,1/3+y,5/6+z
2/3+x,1/3+x-y,5/6+z
2/3-y,1/3-x,5/6+z
1/3+x,2/3+y,2/3+z
1/3-y,2/3+x-y,2/3+z
1/3-x+y,2/3-x,2/3+z
1/3+x-y,2/3-y,1/6-z
1/3-x,2/3-x+y,1/6-z
1/3+y,2/3+x,1/6-z
1/3-x,2/3-y,2/3-z
1/3+y,2/3-x+y,2/3-z
1/3+x-y,2/3+x,2/3-z
1/3-x+y,2/3+y,1/6+z
1/3+x,2/3+x-y,1/6+z
1/3-y,2/3-x,1/6+z
loop_
_atom_site_type_symbol
_atom_site_label
_atom_site_fract_x
_atom_site_fract_y
_atom_site_fract_z
Si Si1 0.563788 0.439288 0.108381
Si Si2 0.318156 0.318156 0.250000
Si Si3 0.484959 0.625575 0.692223
O O1 0.477517 0.333334 0.083334
O O2 0.666667 0.448840 0.083334
O O3 0.580573 0.540770 0.066269
O O4 0.556870 0.441844 0.218018
O O5 0.407286 0.357083 0.321858
O O6 0.397747 0.567392 0.621865
#
# Coordination Sequence:
#
# PCOD9579631 Si02
#       3
#    36  18  36
#     4  10  23  47  74 110 157 209 252 315 405 476
#     4  10  26  46  78 114 162 202 268 324 400 464
#     4  12  25  48  78 117 157 206 266 332 388 466
#
# _framework density 28.187984
#
# number of rings (size 3 to 8) (size 9 to 14) (size 15 to 20)
#    1.200    0.000    0.000    5.600    0.000    1.600 
#    7.200    0.000    0.000    0.000    0.000    0.000 
#    0.000    0.000    0.000    0.000    0.000    0.000 
#
# Total GULP energy -167367.227381 kJ/mol
# GULP energy per Si atom -5578.907579 kJ/mol
# Density = 2.812383 g / cm^3
# Si number density = 28.187984 Si / 1000 Ang^3
#
#
#
# Elastic Constant Matrix: (Units=GPa)
#
#
# Indices 1 2 3 4 5 6 
#
# 1 216.2463 100.0252 34.4108 12.5761 0.0000 0.0000
# 2 100.0252 216.2463 34.4108 -12.5761 0.0000 0.0000
# 3 34.4108 34.4108 59.5584 0.0000 0.0000 0.0000
# 4 12.5761 -12.5761 0.0000 33.3314 0.0000 0.0000
# 5 0.0000 0.0000 0.0000 0.0000 33.3314 12.5761
# 6 0.0000 0.0000 0.0000 0.0000 12.5761 58.1106
#
#
#
# Elastic Compliance Matrix: (Units=1/GPa)
#
#
# Indices 1 2 3 4 5 6 
#
# 1 0.006493 -0.002876 -0.002090 -0.003535 0.000000 0.000000
# 2 -0.002876 0.006493 -0.002090 0.003535 0.000000 0.000000
# 3 -0.002090 -0.002090 0.019205 0.000000 0.000000 0.000000
# 4 -0.003535 0.003535 0.000000 0.032669 0.000000 0.000000
# 5 0.000000 0.000000 0.000000 0.000000 0.032669 -0.007070
# 6 0.000000 0.000000 0.000000 0.000000 -0.007070 0.018739
#
#
# Mechanical properties :
#
#
# Convention : Reuss Voigt Hill
#
# Bulk Modulus (GPa) = 55.31043 92.19385 73.75214
# Shear Modulus (GPa) = 36.65545 46.50163 41.57854
#
# Velocity S-wave (km/s) = 3.61001 4.06605 3.84480
# Velocity P-wave (km/s) = 6.08612 7.40415 6.77725
#
# Compressibility (1/GPa) = 0.01807977
#
# Stress axis : x y z
#
# Youngs Moduli (GPa) = 154.01370 154.01370 52.07049
#
# Poissons Ratio (x) = 0.44301 0.10880
# Poissons Ratio (y) = 0.44301 0.10880
# Poissons Ratio (z) = 0.32181 0.32181
#
# Static dielectric constant tensor:
#      x y z
#    x 2.210050 0.000000 0.000000 
#    y 0.000000 2.210050 0.000000 
#    z 0.000000 0.000000 2.393870 
# 
# From -- ./inp_files/2908.got.cif
#   From: 2010.05.17/outbox.cif.g08.bks.cpg/sg167_2_cif.got.tgz:2908.got - 2010.05.20 11:09:15.
