data_PCOD9579401
_publ_section_title
;
Structure prediction by ZEFSAII (Michael W. Deem and Ramdas Pophale) SiO2 
 PCOD9579401
Probable space group: R -3 C 
;
_chemical_formula_sum "Si O2"
_cell_formula_units_Z 270
_cell_length_a 26.351658
_cell_length_b 26.351658
_cell_length_c 22.897737
_cell_angle_alpha 90.000000
_cell_angle_beta 90.000000
_cell_angle_gamma 120.000000
_cell_volume 13770.163137
_symmetry_space_group_name_H-M "R -3 C "
_symmetry_group_IT_number 167
_symmetry_cell_setting 'hexagonal'
loop_
_space_group_symop_operation_xyz
x,y,z
-y,x-y,z
-x+y,-x,z
x-y,-y,1/2-z
-x,-x+y,1/2-z
y,x,1/2-z
-x,-y,-z
y,-x+y,-z
x-y,x,-z
-x+y,y,1/2+z
x,x-y,1/2+z
-y,-x,1/2+z
2/3+x,1/3+y,1/3+z
2/3-y,1/3+x-y,1/3+z
2/3-x+y,1/3-x,1/3+z
2/3+x-y,1/3-y,5/6-z
2/3-x,1/3-x+y,5/6-z
2/3+y,1/3+x,5/6-z
2/3-x,1/3-y,1/3-z
2/3+y,1/3-x+y,1/3-z
2/3+x-y,1/3+x,1/3-z
2/3-x+y,1/3+y,5/6+z
2/3+x,1/3+x-y,5/6+z
2/3-y,1/3-x,5/6+z
1/3+x,2/3+y,2/3+z
1/3-y,2/3+x-y,2/3+z
1/3-x+y,2/3-x,2/3+z
1/3+x-y,2/3-y,1/6-z
1/3-x,2/3-x+y,1/6-z
1/3+y,2/3+x,1/6-z
1/3-x,2/3-y,2/3-z
1/3+y,2/3-x+y,2/3-z
1/3+x-y,2/3+x,2/3-z
1/3-x+y,2/3+y,1/6+z
1/3+x,2/3+x-y,1/6+z
1/3-y,2/3-x,1/6+z
loop_
_atom_site_type_symbol
_atom_site_label
_atom_site_fract_x
_atom_site_fract_y
_atom_site_fract_z
Si Si1 0.714612 0.047945 0.916667
Si Si2 0.418746 0.914498 0.430439
Si Si3 0.408458 0.172572 0.374596
Si Si4 0.683045 0.880278 0.419237
Si Si5 0.515197 0.605162 0.295968
Si Si6 0.282642 0.977920 0.839609
Si Si7 0.855409 0.393982 0.959907
Si Si8 0.414665 0.798296 0.149757
O O1 0.722349 0.112111 0.907745
O O2 0.684094 0.006246 0.861194
O O3 0.407977 0.900222 0.362376
O O4 0.382812 0.944072 0.459245
O O5 0.400781 0.857925 0.470693
O O6 0.486382 0.962999 0.434438
O O7 0.361657 0.149264 0.321313
O O8 0.405988 0.219386 0.417863
O O9 0.473208 0.205549 0.346411
O O10 0.674461 0.932583 0.393612
O O11 0.744702 0.892961 0.391792
O O12 0.584017 0.628212 0.303966
O O13 0.513168 0.663368 0.277371
O O14 0.812216 0.402233 0.918215
O O15 0.438544 0.753631 0.154840
#
# Coordination Sequence:
#
# PCOD9579401 Si02
#       8
#    18  36  36  36  36  36  36  36
#     4  12  24  40  58  98 134 172 230 274 334 388
#     4  10  17  33  62  95 115 167 212 254 313 389
#     4  11  24  39  58  95 138 173 214 278 329 403
#     4   9  20  35  57  89 128 167 211 258 325 389
#     4  10  18  38  61  84 124 170 214 257 323 389
#     4  10  20  40  60  87 125 172 218 271 315 399
#     4   9  18  35  60  88 120 156 211 255 313 395
#     4  11  23  43  67  95 127 165 217 279 348 406
#
# _framework density 19.607610999999999
#
# number of rings (size 3 to 8) (size 9 to 14) (size 15 to 20)
#    0.000    2.133    2.667    3.733    0.000    3.733 
#    2.400    2.667    0.000    2.400    0.000    0.000 
#    0.000    0.000    0.000    0.000    0.000    0.000 
#
# Total GULP energy -501972.114904 kJ/mol
# GULP energy per Si atom -5577.467943 kJ/mol
# Density = 1.956298 g / cm^3
# Si number density = 19.607611 Si / 1000 Ang^3
#
#
#
# Elastic Constant Matrix: (Units=GPa)
#
#
# Indices 1 2 3 4 5 6 
#
# 1 74.4169 27.7617 40.6894 0.1123 0.0001 0.0000
# 2 27.7617 74.4169 40.6894 -0.1123 -0.0001 0.0000
# 3 40.6894 40.6894 130.4780 0.0000 0.0000 0.0000
# 4 0.1123 -0.1123 0.0000 33.6720 0.0000 -0.0001
# 5 0.0001 -0.0001 0.0000 0.0000 33.6720 0.1123
# 6 0.0000 0.0000 0.0000 -0.0001 0.1123 23.3276
#
#
#
# Elastic Compliance Matrix: (Units=1/GPa)
#
#
# Indices 1 2 3 4 5 6 
#
# 1 0.017227 -0.004207 -0.004060 -0.000072 0.000000 0.000000
# 2 -0.004207 0.017227 -0.004060 0.000072 0.000000 0.000000
# 3 -0.004060 -0.004060 0.010197 0.000000 0.000000 0.000000
# 4 -0.000072 0.000072 0.000000 0.029699 0.000000 0.000000
# 5 0.000000 0.000000 0.000000 0.000000 0.029699 -0.000143
# 6 0.000000 0.000000 0.000000 0.000000 -0.000143 0.042868
#
#
# Mechanical properties :
#
#
# Convention : Reuss Voigt Hill
#
# Bulk Modulus (GPa) = 50.00978 55.28810 52.64894
# Shear Modulus (GPa) = 28.05234 29.47906 28.76570
#
# Velocity S-wave (km/s) = 3.78654 3.88164 3.83439
# Velocity P-wave (km/s) = 6.68415 6.95327 6.82004
#
# Compressibility (1/GPa) = 0.01999609
#
# Stress axis : x y z
#
# Youngs Moduli (GPa) = 58.04693 58.04693 98.07152
#
# Poissons Ratio (x) = 0.24419 0.39822
# Poissons Ratio (y) = 0.24419 0.39822
# Poissons Ratio (z) = 0.23570 0.23570
#
# Static dielectric constant tensor:
#      x y z
#    x 1.688310 0.000000 0.000000 
#    y 0.000000 1.688310 0.000000 
#    z 0.000000 0.000000 1.801490 
# 
# From -- ./inp_files/5681.got.cif
#   From: 2010.05.17/outbox.cif.g08.bks.cpg/sg167_3_cif.got.tgz:5681.got - 2010.05.20 11:09:15.
