data_PCOD9579899
_publ_section_title
;
Structure prediction by ZEFSAII (Michael W. Deem and Ramdas Pophale) SiO2 
 PCOD9579899
Probable space group: P 61
;
_chemical_formula_sum "Si O2"
_cell_formula_units_Z 48
_cell_length_a 16.088585
_cell_length_b 16.088585
_cell_length_c 10.763247
_cell_angle_alpha 90.000000
_cell_angle_beta 90.000000
_cell_angle_gamma 120.000000
_cell_volume 2412.735071
_symmetry_space_group_name_H-M "P 61"
_symmetry_group_IT_number 169
_symmetry_cell_setting 'hexagonal'
loop_
_space_group_symop_operation_xyz
x,y,z
x-y,x,1/6+z
-y,x-y,1/3+z
-x,-y,1/2+z
-x+y,-x,2/3+z
y,-x+y,5/6+z
loop_
_atom_site_type_symbol
_atom_site_label
_atom_site_fract_x
_atom_site_fract_y
_atom_site_fract_z
Si Si1 0.084683 0.727841 0.145340
Si Si2 0.853193 0.004293 0.766240
Si Si3 0.652771 0.085943 0.928700
Si Si4 0.997940 0.625001 0.525677
Si Si5 0.815639 0.382224 0.108626
Si Si6 0.702855 0.879442 0.082438
Si Si7 0.731646 0.463661 0.897610
Si Si8 0.521385 0.317680 0.947032
O O1 0.033965 0.776258 0.071158
O O2 0.098906 0.768237 0.285054
O O3 0.001412 0.617568 0.162495
O O4 0.191448 0.763435 0.100903
O O5 0.862379 0.917344 0.816407
O O6 0.884316 0.082226 0.879196
O O7 0.625454 0.162034 0.878413
O O8 0.768004 0.137554 0.946312
O O9 0.609379 0.038178 0.059911
O O10 0.900679 0.572864 0.605402
O O11 0.084771 0.610960 0.570918
O O12 0.045527 0.740540 0.506598
O O13 0.753482 0.280144 0.177825
O O14 0.769094 0.409178 0.990956
O O15 0.617566 0.415078 0.913473
O O16 0.758459 0.462631 0.754921
#
# Coordination Sequence:
#
# PCOD9579899 Si02
#       8
#     6   6   6   6   6   6   6   6
#     4   9  19  37  63  94 125 162 220 272 325 392
#     4   9  18  35  60  93 122 162 214 275 326 390
#     4  10  20  38  67  93 122 166 220 272 322 395
#     4  11  25  39  64  95 132 169 218 273 334 398
#     4  12  26  41  66  93 133 175 220 274 333 395
#     4   9  18  37  64  91 122 163 215 271 326 385
#     4  12  25  44  67  92 134 181 223 274 340 400
#     4  12  27  45  63  97 134 178 224 277 336 411
#
# _framework density 19.894432999999999
#
# number of rings (size 3 to 8) (size 9 to 14) (size 15 to 20)
#    0.000    1.500    2.500    3.000    7.000    0.000 
#    0.000    1.250    0.000    0.000    0.000    0.000 
#    0.000    0.000    0.000    0.000    0.000    0.000 
#
# Total GULP energy -267653.989188 kJ/mol
# GULP energy per Si atom -5576.124775 kJ/mol
# Density = 1.984915 g / cm^3
# Si number density = 19.894433 Si / 1000 Ang^3
#
#
#
# Elastic Constant Matrix: (Units=GPa)
#
#
# Indices 1 2 3 4 5 6 
#
# 1 78.3246 20.6283 18.9754 0.0000 0.0000 0.0000
# 2 20.6283 78.3246 18.9754 0.0000 0.0000 0.0000
# 3 18.9754 18.9754 54.5946 0.0000 0.0000 0.0000
# 4 0.0000 0.0000 0.0000 18.3699 0.0000 0.0000
# 5 0.0000 0.0000 0.0000 0.0000 18.3699 0.0000
# 6 0.0000 0.0000 0.0000 0.0000 0.0000 28.8482
#
#
#
# Elastic Compliance Matrix: (Units=1/GPa)
#
#
# Indices 1 2 3 4 5 6 
#
# 1 0.014496 -0.002836 -0.004053 0.000000 0.000000 0.000000
# 2 -0.002836 0.014496 -0.004053 0.000000 0.000000 0.000000
# 3 -0.004053 -0.004053 0.021134 0.000000 0.000000 0.000000
# 4 0.000000 0.000000 0.000000 0.054437 0.000000 0.000000
# 5 0.000000 0.000000 0.000000 0.000000 0.054437 0.000000
# 6 0.000000 0.000000 0.000000 0.000000 0.000000 0.034664
#
#
# Mechanical properties :
#
#
# Convention : Reuss Voigt Hill
#
# Bulk Modulus (GPa) = 35.40641 36.48910 35.94776
# Shear Modulus (GPa) = 22.22602 23.29525 22.76063
#
# Velocity S-wave (km/s) = 3.34608 3.42562 3.38608
# Velocity P-wave (km/s) = 5.72399 5.83332 5.77892
#
# Compressibility (1/GPa) = 0.02824347
#
# Stress axis : x y z
#
# Youngs Moduli (GPa) = 68.98395 68.98395 47.31708
#
# Poissons Ratio (x) = 0.19564 0.19176
# Poissons Ratio (y) = 0.19564 0.19176
# Poissons Ratio (z) = 0.27957 0.27957
#
# Static dielectric constant tensor:
#      x y z
#    x 1.767880 0.000000 0.000000 
#    y 0.000000 1.767880 0.000000 
#    z 0.000000 0.000000 1.706320 
# 
# From -- ./inp_files/1016.got.cif
#   From: 2010.05.17/outbox.cif.g08.bks.cpg/sg169_cif.got.tgz:1016.got - 2010.05.20 11:12:54.
