data_PCOD9579436
_publ_section_title
;
Structure prediction by ZEFSAII (Michael W. Deem and Ramdas Pophale) SiO2 
 PCOD9579436
Probable space group: R -3 C 
;
_chemical_formula_sum "Si O2"
_cell_formula_units_Z 108
_cell_length_a 22.962248
_cell_length_b 22.962248
_cell_length_c 11.110338
_cell_angle_alpha 90.000000
_cell_angle_beta 90.000000
_cell_angle_gamma 120.000000
_cell_volume 5073.255202
_symmetry_space_group_name_H-M "R -3 C "
_symmetry_group_IT_number 167
_symmetry_cell_setting 'hexagonal'
loop_
_space_group_symop_operation_xyz
x,y,z
-y,x-y,z
-x+y,-x,z
x-y,-y,1/2-z
-x,-x+y,1/2-z
y,x,1/2-z
-x,-y,-z
y,-x+y,-z
x-y,x,-z
-x+y,y,1/2+z
x,x-y,1/2+z
-y,-x,1/2+z
2/3+x,1/3+y,1/3+z
2/3-y,1/3+x-y,1/3+z
2/3-x+y,1/3-x,1/3+z
2/3+x-y,1/3-y,5/6-z
2/3-x,1/3-x+y,5/6-z
2/3+y,1/3+x,5/6-z
2/3-x,1/3-y,1/3-z
2/3+y,1/3-x+y,1/3-z
2/3+x-y,1/3+x,1/3-z
2/3-x+y,1/3+y,5/6+z
2/3+x,1/3+x-y,5/6+z
2/3-y,1/3-x,5/6+z
1/3+x,2/3+y,2/3+z
1/3-y,2/3+x-y,2/3+z
1/3-x+y,2/3-x,2/3+z
1/3+x-y,2/3-y,1/6-z
1/3-x,2/3-x+y,1/6-z
1/3+y,2/3+x,1/6-z
1/3-x,2/3-y,2/3-z
1/3+y,2/3-x+y,2/3-z
1/3+x-y,2/3+x,2/3-z
1/3-x+y,2/3+y,1/6+z
1/3+x,2/3+x-y,1/6+z
1/3-y,2/3-x,1/6+z
loop_
_atom_site_type_symbol
_atom_site_label
_atom_site_fract_x
_atom_site_fract_y
_atom_site_fract_z
Si Si1 0.335195 0.445715 0.214098
Si Si2 0.933234 0.690265 0.171117
Si Si3 0.744299 0.884916 0.132777
O O1 0.283670 0.388355 0.302916
O O2 0.286485 0.450357 0.113198
O O3 0.394317 0.509852 0.280139
O O4 0.378121 0.422143 0.131265
O O5 0.899246 0.730448 0.230532
O O6 0.000000 0.717702 0.250000
O O7 0.666667 0.845609 0.083334
#
# Coordination Sequence:
#
# PCOD9579436 Si02
#       3
#    36  36  36
#     4  10  19  34  51  75 107 139 179 218 268 323
#     4   9  18  33  52  74 106 140 171 217 266 319
#     4   9  19  32  50  75 104 140 175 216 266 318
#
# _framework density 21.288105999999999
#
# number of rings (size 3 to 8) (size 9 to 14) (size 15 to 20)
#    0.000    2.667    0.000    4.000    0.000    5.333 
#    0.000   11.667    0.000    0.667    0.000    0.000 
#    0.000   32.000    0.000    0.000    0.000    1.333 
#
# Total GULP energy -201019.867631 kJ/mol
# GULP energy per Si atom -5583.885212 kJ/mol
# Density = 2.123965 g / cm^3
# Si number density = 21.288106 Si / 1000 Ang^3
#
#
#
# Elastic Constant Matrix: (Units=GPa)
#
#
# Indices 1 2 3 4 5 6 
#
# 1 110.9332 63.9164 46.3041 19.0284 -0.0001 0.0000
# 2 63.9164 110.9332 46.3037 -19.0285 -0.0001 0.0000
# 3 46.3041 46.3037 80.6721 -0.0002 -0.0002 -0.0002
# 4 19.0284 -19.0285 -0.0002 35.6333 -0.0001 0.0001
# 5 -0.0001 -0.0001 -0.0002 -0.0001 35.6332 19.0283
# 6 0.0000 0.0000 -0.0002 0.0001 19.0283 23.5084
#
#
#
# Elastic Compliance Matrix: (Units=1/GPa)
#
#
# Indices 1 2 3 4 5 6 
#
# 1 0.022839 -0.014622 -0.004717 -0.020005 0.000000 0.000000
# 2 -0.014622 0.022839 -0.004716 0.020005 0.000000 0.000000
# 3 -0.004717 -0.004716 0.017810 0.000000 0.000000 0.000000
# 4 -0.020005 0.020005 0.000000 0.049429 0.000000 0.000000
# 5 0.000000 0.000000 0.000000 0.000000 0.049429 -0.040009
# 6 0.000000 0.000000 0.000000 0.000000 -0.040009 0.074922
#
#
# Mechanical properties :
#
#
# Convention : Reuss Voigt Hill
#
# Bulk Modulus (GPa) = 65.02515 68.39853 66.71184
# Shear Modulus (GPa) = 17.21138 28.68927 22.95032
#
# Velocity S-wave (km/s) = 2.84649 3.67504 3.28698
# Velocity P-wave (km/s) = 6.43545 7.08573 6.76840
#
# Compressibility (1/GPa) = 0.01537866
#
# Stress axis : x y z
#
# Youngs Moduli (GPa) = 43.78395 43.78427 56.14760
#
# Poissons Ratio (x) = 0.64022 0.26483
# Poissons Ratio (y) = 0.64021 0.26481
# Poissons Ratio (z) = 0.20652 0.20650
#
# Static dielectric constant tensor:
#      x y z
#    x 1.816230 0.000000 0.000000 
#    y 0.000000 1.816230 0.000000 
#    z 0.000000 0.000000 1.848520 
# 
# From -- ./inp_files/1209.got.cif
#   From: 2010.05.17/outbox.cif.g08.bks.cpg/sg167_1_cif.got.tgz:1209.got - 2010.05.20 11:09:15.
