data_PCOD9579211
_publ_section_title
;
Structure prediction by ZEFSAII (Michael W. Deem and Ramdas Pophale) SiO2 
 PCOD9579211
Probable space group: R -3 M
;
_chemical_formula_sum "Si O2"
_cell_formula_units_Z 234
_cell_length_a 26.410190
_cell_length_b 26.410190
_cell_length_c 20.469404
_cell_angle_alpha 90.000000
_cell_angle_beta 90.000000
_cell_angle_gamma 120.000000
_cell_volume 12364.566099
_symmetry_space_group_name_H-M "R -3 M"
_symmetry_group_IT_number 166
_symmetry_cell_setting 'hexagonal'
loop_
_space_group_symop_operation_xyz
x,y,z
-y,x-y,z
-x+y,-x,z
x-y,-y,-z
-x,-x+y,-z
y,x,-z
-x,-y,-z
y,-x+y,-z
x-y,x,-z
-x+y,y,z
x,x-y,z
-y,-x,z
2/3+x,1/3+y,1/3+z
2/3-y,1/3+x-y,1/3+z
2/3-x+y,1/3-x,1/3+z
2/3+x-y,1/3-y,1/3-z
2/3-x,1/3-x+y,1/3-z
2/3+y,1/3+x,1/3-z
2/3-x,1/3-y,1/3-z
2/3+y,1/3-x+y,1/3-z
2/3+x-y,1/3+x,1/3-z
2/3-x+y,1/3+y,1/3+z
2/3+x,1/3+x-y,1/3+z
2/3-y,1/3-x,1/3+z
1/3+x,2/3+y,2/3+z
1/3-y,2/3+x-y,2/3+z
1/3-x+y,2/3-x,2/3+z
1/3+x-y,2/3-y,2/3-z
1/3-x,2/3-x+y,2/3-z
1/3+y,2/3+x,2/3-z
1/3-x,2/3-y,2/3-z
1/3+y,2/3-x+y,2/3-z
1/3+x-y,2/3+x,2/3-z
1/3-x+y,2/3+y,2/3+z
1/3+x,2/3+x-y,2/3+z
1/3-y,2/3-x,2/3+z
loop_
_atom_site_type_symbol
_atom_site_label
_atom_site_fract_x
_atom_site_fract_y
_atom_site_fract_z
Si Si1 0.237414 0.762587 0.856319
Si Si2 0.122207 0.877794 0.313290
Si Si3 0.002757 0.401763 0.192518
Si Si4 0.173047 0.986366 0.701207
Si Si5 0.901702 0.221228 0.327080
Si Si6 0.000783 0.118260 0.572278
Si Si7 0.281210 0.888098 0.794263
Si Si8 0.820944 0.179056 0.774885
O O1 0.293254 0.793719 0.907411
O O2 0.265612 0.823373 0.812636
O O3 0.152060 0.847941 0.274184
O O4 0.127060 0.872941 0.391786
O O5 0.055170 0.842712 0.292795
O O6 0.043022 0.376356 0.166667
O O7 0.010959 0.419973 0.268179
O O8 0.018927 0.459526 0.151649
O O9 0.936454 0.347293 0.186800
O O10 0.206462 0.949419 0.702791
O O11 0.144350 0.978789 0.629557
O O12 0.839944 0.160057 0.329260
O O13 0.894558 0.266312 0.280700
O O14 0.049191 0.098382 0.567337
O O15 0.000000 0.142446 0.500000
O O16 0.938034 0.061967 0.587281
O O17 0.237695 0.904362 0.833334
#
# Coordination Sequence:
#
# PCOD9579211 Si02
#       8
#    18  18  36  36  36  36  36  18
#     4  12  21  38  66  93 127 158 215 279 327 392
#     4  11  26  40  62  83 123 174 214 254 319 393
#     4  11  25  42  64  93 129 174 216 262 323 396
#     4  12  22  37  59  90 119 164 212 267 324 382
#     4  12  22  40  63  92 130 164 218 271 329 392
#     4  10  20  36  54  78 115 161 210 260 318 376
#     4  11  21  39  64  93 124 164 206 273 334 382
#     4  11  24  46  58  82 125 168 213 264 309 390
#
# _framework density 18.925048
#
# number of rings (size 3 to 8) (size 9 to 14) (size 15 to 20)
#    0.000    0.769    5.385    2.692    2.154    2.462 
#    0.000    0.000    0.000    0.000    0.000    0.000 
#    0.000    0.000    0.000    2.077    0.000    0.000 
#
# Total GULP energy -434255.332425 kJ/mol
# GULP energy per Si atom -5567.376057 kJ/mol
# Density = 1.888197 g / cm^3
# Si number density = 18.925048 Si / 1000 Ang^3
#
#
#
# Elastic Constant Matrix: (Units=GPa)
#
#
# Indices 1 2 3 4 5 6 
#
# 1 83.5000 56.3376 33.3200 13.8525 -0.0004 0.0000
# 2 56.3376 83.5000 33.3200 -13.8525 0.0004 0.0000
# 3 33.3200 33.3200 109.6696 0.0000 0.0000 0.0000
# 4 13.8525 -13.8525 0.0000 30.9167 0.0000 0.0004
# 5 -0.0004 0.0004 0.0000 0.0000 30.9167 13.8525
# 6 0.0000 0.0000 0.0000 0.0004 13.8525 13.5812
#
#
#
# Elastic Compliance Matrix: (Units=1/GPa)
#
#
# Indices 1 2 3 4 5 6 
#
# 1 0.038082 -0.029720 -0.002541 -0.030379 0.000001 0.000000
# 2 -0.029720 0.038082 -0.002541 0.030379 -0.000001 0.000000
# 3 -0.002541 -0.002541 0.010662 0.000000 0.000000 0.000000
# 4 -0.030379 0.030379 0.000000 0.059568 0.000000 -0.000002
# 5 0.000001 -0.000001 0.000000 0.000000 0.059568 -0.060759
# 6 0.000000 0.000000 0.000000 -0.000002 -0.060759 0.135604
#
#
# Mechanical properties :
#
#
# Convention : Reuss Voigt Hill
#
# Bulk Modulus (GPa) = 58.05964 58.06941 58.06452
# Shear Modulus (GPa) = 11.99300 25.32907 18.66103
#
# Velocity S-wave (km/s) = 2.52009 3.66237 3.14355
# Velocity P-wave (km/s) = 6.26204 6.97384 6.62750
#
# Compressibility (1/GPa) = 0.01722367
#
# Stress axis : x y z
#
# Youngs Moduli (GPa) = 26.25919 26.25919 93.79090
#
# Poissons Ratio (x) = 0.78042 0.23828
# Poissons Ratio (y) = 0.78042 0.23828
# Poissons Ratio (z) = 0.06671 0.06671
#
# Static dielectric constant tensor:
#      x y z
#    x 1.671900 0.000000 0.000000 
#    y 0.000000 1.671900 0.000000 
#    z 0.000000 0.000000 1.703490 
# 
# From -- ./inp_files/7263.got.cif
#   From: 2010.05.17/outbox.cif.g08.bks.cpg/sg166_4_cif.got.tgz:7263.got - 2010.05.20 11:04:41.
