data_PCOD9579905
_publ_section_title
;
Structure prediction by ZEFSAII (Michael W. Deem and Ramdas Pophale) SiO2 
 PCOD9579905
Probable space group: P 61
;
_chemical_formula_sum "Si O2"
_cell_formula_units_Z 42
_cell_length_a 21.365260
_cell_length_b 21.365260
_cell_length_c 5.405386
_cell_angle_alpha 90.000000
_cell_angle_beta 90.000000
_cell_angle_gamma 120.000000
_cell_volume 2136.848384
_symmetry_space_group_name_H-M "P 61"
_symmetry_group_IT_number 169
_symmetry_cell_setting 'hexagonal'
loop_
_space_group_symop_operation_xyz
x,y,z
x-y,x,1/6+z
-y,x-y,1/3+z
-x,-y,1/2+z
-x+y,-x,2/3+z
y,-x+y,5/6+z
loop_
_atom_site_type_symbol
_atom_site_label
_atom_site_fract_x
_atom_site_fract_y
_atom_site_fract_z
Si Si1 0.314137 0.054544 0.242380
Si Si2 0.672728 0.059311 0.431484
Si Si3 0.113086 0.955732 0.014018
Si Si4 0.765072 0.819047 0.176163
Si Si5 0.513068 0.467564 0.316275
Si Si6 0.089568 0.665437 0.465792
Si Si7 0.636183 0.818597 0.389919
O O1 0.393479 0.086539 0.359330
O O2 0.254444 0.020242 0.452469
O O3 0.314436 0.117581 0.084044
O O4 0.296703 0.983071 0.090380
O O5 0.615041 0.071014 0.585949
O O6 0.738454 0.135789 0.339738
O O7 0.625452 0.993618 0.235530
O O8 0.161607 0.957028 0.786263
O O9 0.034559 0.906614 0.907407
O O10 0.127688 0.933452 0.282987
O O11 0.687262 0.813214 0.184360
O O12 0.496462 0.488754 0.585180
O O13 0.598363 0.495287 0.312023
O O14 0.148163 0.736661 0.613061
#
# Coordination Sequence:
#
# PCOD9579905 Si02
#       7
#     6   6   6   6   6   6   6
#     4  11  23  39  58  92 134 164 212 268 323 388
#     4  10  21  40  62  95 131 176 214 261 327 392
#     4  12  29  46  63  80 110 161 224 282 336 393
#     4  12  26  43  62  89 121 167 208 268 345 396
#     4  10  20  40  66  92 132 168 212 262 316 383
#     4  10  22  38  62  93 135 165 210 269 323 386
#     4  11  25  38  61  95 137 167 212 268 328 390
#
# _framework density 19.655114000000001
#
# number of rings (size 3 to 8) (size 9 to 14) (size 15 to 20)
#    0.000    1.143    2.857    2.571   10.000    1.143 
#    0.000    0.000    0.000    0.000    0.000    2.000 
#    0.000    0.000    0.000    0.000    0.000    0.000 
#
# Total GULP energy -234349.940429 kJ/mol
# GULP energy per Si atom -5579.760486 kJ/mol
# Density = 1.961038 g / cm^3
# Si number density = 19.655114 Si / 1000 Ang^3
#
#
#
# Elastic Constant Matrix: (Units=GPa)
#
#
# Indices 1 2 3 4 5 6 
#
# 1 104.5914 28.3865 20.2781 0.0000 0.0000 0.0000
# 2 28.3865 104.5914 20.2781 0.0000 0.0000 0.0000
# 3 20.2781 20.2781 78.6898 0.0000 0.0000 0.0000
# 4 0.0000 0.0000 0.0000 32.2412 0.0000 0.0000
# 5 0.0000 0.0000 0.0000 0.0000 32.2412 0.0000
# 6 0.0000 0.0000 0.0000 0.0000 0.0000 38.1025
#
#
#
# Elastic Compliance Matrix: (Units=1/GPa)
#
#
# Indices 1 2 3 4 5 6 
#
# 1 0.010642 -0.002481 -0.002103 0.000000 0.000000 0.000000
# 2 -0.002481 0.010642 -0.002103 0.000000 0.000000 0.000000
# 3 -0.002103 -0.002103 0.013792 0.000000 0.000000 0.000000
# 4 0.000000 0.000000 0.000000 0.031016 0.000000 0.000000
# 5 0.000000 0.000000 0.000000 0.000000 0.031016 0.000000
# 6 0.000000 0.000000 0.000000 0.000000 0.000000 0.026245
#
#
# Mechanical properties :
#
#
# Convention : Reuss Voigt Hill
#
# Bulk Modulus (GPa) = 46.07804 47.30645 46.69224
# Shear Modulus (GPa) = 34.73151 35.11228 34.92190
#
# Velocity S-wave (km/s) = 4.20819 4.23119 4.21970
# Velocity P-wave (km/s) = 6.86338 6.92756 6.89555
#
# Compressibility (1/GPa) = 0.02170231
#
# Stress axis : x y z
#
# Youngs Moduli (GPa) = 93.96730 93.96730 72.50530
#
# Poissons Ratio (x) = 0.23309 0.15249
# Poissons Ratio (y) = 0.23309 0.15249
# Poissons Ratio (z) = 0.19763 0.19763
#
# Static dielectric constant tensor:
#      x y z
#    x 1.724150 0.000000 0.000000 
#    y 0.000000 1.724150 0.000000 
#    z 0.000000 0.000000 1.799010 
# 
# From -- ./inp_files/279.got.cif
#   From: 2010.05.17/outbox.cif.g08.bks.cpg/sg169_cif.got.tgz:279.got - 2010.05.20 11:12:54.
