data_PCOD9579946
_publ_section_title
;
Structure prediction by ZEFSAII (Michael W. Deem and Ramdas Pophale) SiO2 
 PCOD9579946
Probable space group: P 61
;
_chemical_formula_sum "Si O2"
_cell_formula_units_Z 42
_cell_length_a 21.404138
_cell_length_b 21.404138
_cell_length_c 5.307550
_cell_angle_alpha 90.000000
_cell_angle_beta 90.000000
_cell_angle_gamma 120.000000
_cell_volume 2105.814979
_symmetry_space_group_name_H-M "P 61"
_symmetry_group_IT_number 169
_symmetry_cell_setting 'hexagonal'
loop_
_space_group_symop_operation_xyz
x,y,z
x-y,x,1/6+z
-y,x-y,1/3+z
-x,-y,1/2+z
-x+y,-x,2/3+z
y,-x+y,5/6+z
loop_
_atom_site_type_symbol
_atom_site_label
_atom_site_fract_x
_atom_site_fract_y
_atom_site_fract_z
Si Si1 0.163532 0.408112 0.793580
Si Si2 0.744990 0.563472 0.779720
Si Si3 0.404889 0.971503 0.526180
Si Si4 0.402730 0.465761 0.198277
Si Si5 0.725318 0.925393 0.603568
Si Si6 0.104405 0.150991 0.955131
Si Si7 0.078324 0.248756 0.625361
O O1 0.214632 0.435631 0.541071
O O2 0.097082 0.422835 0.817098
O O3 0.125527 0.320578 0.789832
O O4 0.211440 0.440561 0.041721
O O5 0.659594 0.513200 0.736036
O O6 0.749571 0.641266 0.750949
O O7 0.462540 0.943793 0.528196
O O8 0.420416 0.020262 0.779901
O O9 0.422922 0.021560 0.281892
O O10 0.775633 0.951851 0.360511
O O11 0.763738 0.997468 0.771326
O O12 0.732883 0.858533 0.707221
O O13 0.123860 0.089107 0.959669
O O14 0.075964 0.176109 0.717389
#
# Coordination Sequence:
#
# PCOD9579946 Si02
#       7
#     6   6   6   6   6   6   6
#     4  11  23  38  60  92 124 157 196 245 307 368
#     4  11  23  38  60  92 124 157 196 245 307 368
#     4  10  21  39  64  93 124 161 204 250 303 365
#     4  10  21  39  64  93 124 161 204 250 303 365
#     4  11  22  36  53  73 103 142 187 244 299 356
#     4  12  24  36  52  68  96 140 202 248 304 352
#     4  11  22  36  53  73 103 142 187 244 299 356
#
# _framework density 19.944773000000001
#
# number of rings (size 3 to 8) (size 9 to 14) (size 15 to 20)
#    0.000    1.143    4.286    2.571    0.000    4.571 
#    0.000    0.000    0.000    1.714    0.000    0.000 
#    0.000    0.000    0.000    0.000    0.000    0.000 
#
# Total GULP energy -234007.492509 kJ/mol
# GULP energy per Si atom -5571.606965 kJ/mol
# Density = 1.989938 g / cm^3
# Si number density = 19.944773 Si / 1000 Ang^3
#
#
#
# Elastic Constant Matrix: (Units=GPa)
#
#
# Indices 1 2 3 4 5 6 
#
# 1 58.3965 30.5093 31.6793 0.0000 0.0000 0.0000
# 2 30.5093 58.3965 31.6793 0.0000 0.0000 0.0000
# 3 31.6793 31.6793 126.2164 0.0000 0.0000 0.0000
# 4 0.0000 0.0000 0.0000 15.9437 0.0000 0.0000
# 5 0.0000 0.0000 0.0000 0.0000 15.9437 0.0000
# 6 0.0000 0.0000 0.0000 0.0000 0.0000 13.9436
#
#
#
# Elastic Compliance Matrix: (Units=1/GPa)
#
#
# Indices 1 2 3 4 5 6 
#
# 1 0.024778 -0.011080 -0.003438 0.000000 0.000000 0.000000
# 2 -0.011080 0.024778 -0.003438 0.000000 0.000000 0.000000
# 3 -0.003438 -0.003438 0.009649 0.000000 0.000000 0.000000
# 4 0.000000 0.000000 0.000000 0.062721 0.000000 0.000000
# 5 0.000000 0.000000 0.000000 0.000000 0.062721 0.000000
# 6 0.000000 0.000000 0.000000 0.000000 0.000000 0.071717
#
#
# Mechanical properties :
#
#
# Convention : Reuss Voigt Hill
#
# Bulk Modulus (GPa) = 42.93239 47.86058 45.39649
# Shear Modulus (GPa) = 16.66434 19.10895 17.88665
#
# Velocity S-wave (km/s) = 2.89368 3.09867 2.99793
# Velocity P-wave (km/s) = 5.72161 6.07050 5.89864
#
# Compressibility (1/GPa) = 0.02329244
#
# Stress axis : x y z
#
# Youngs Moduli (GPa) = 40.35775 40.35775 103.64007
#
# Poissons Ratio (x) = 0.44718 0.35633
# Poissons Ratio (y) = 0.44718 0.35633
# Poissons Ratio (z) = 0.13875 0.13875
#
# Static dielectric constant tensor:
#      x y z
#    x 1.792650 0.000000 0.000000 
#    y 0.000000 1.792650 0.000000 
#    z 0.000000 0.000000 1.816360 
# 
# From -- ./inp_files/272.got.cif
#   From: 2010.05.17/outbox.cif.g08.bks.cpg/sg169_cif.got.tgz:272.got - 2010.05.20 11:12:54.
