data_PCOD9579172
_publ_section_title
;
Structure prediction by ZEFSAII (Michael W. Deem and Ramdas Pophale) SiO2 
 PCOD9579172
Probable space group: R -3 M
;
_chemical_formula_sum "Si O2"
_cell_formula_units_Z 126
_cell_length_a 28.044896
_cell_length_b 28.044896
_cell_length_c 9.850768
_cell_angle_alpha 90.000000
_cell_angle_beta 90.000000
_cell_angle_gamma 120.000000
_cell_volume 6709.781692
_symmetry_space_group_name_H-M "R -3 M"
_symmetry_group_IT_number 166
_symmetry_cell_setting 'hexagonal'
loop_
_space_group_symop_operation_xyz
x,y,z
-y,x-y,z
-x+y,-x,z
x-y,-y,-z
-x,-x+y,-z
y,x,-z
-x,-y,-z
y,-x+y,-z
x-y,x,-z
-x+y,y,z
x,x-y,z
-y,-x,z
2/3+x,1/3+y,1/3+z
2/3-y,1/3+x-y,1/3+z
2/3-x+y,1/3-x,1/3+z
2/3+x-y,1/3-y,1/3-z
2/3-x,1/3-x+y,1/3-z
2/3+y,1/3+x,1/3-z
2/3-x,1/3-y,1/3-z
2/3+y,1/3-x+y,1/3-z
2/3+x-y,1/3+x,1/3-z
2/3-x+y,1/3+y,1/3+z
2/3+x,1/3+x-y,1/3+z
2/3-y,1/3-x,1/3+z
1/3+x,2/3+y,2/3+z
1/3-y,2/3+x-y,2/3+z
1/3-x+y,2/3-x,2/3+z
1/3+x-y,2/3-y,2/3-z
1/3-x,2/3-x+y,2/3-z
1/3+y,2/3+x,2/3-z
1/3-x,2/3-y,2/3-z
1/3+y,2/3-x+y,2/3-z
1/3+x-y,2/3+x,2/3-z
1/3-x+y,2/3+y,2/3+z
1/3+x,2/3+x-y,2/3+z
1/3-y,2/3-x,2/3+z
loop_
_atom_site_type_symbol
_atom_site_label
_atom_site_fract_x
_atom_site_fract_y
_atom_site_fract_z
Si Si1 0.666667 0.708495 0.333334
Si Si2 0.055316 0.833004 0.916350
Si Si3 0.546056 0.720253 0.069877
Si Si4 0.581317 0.582304 0.271569
O O1 0.617882 0.646749 0.308121
O O2 0.644874 0.730139 0.455136
O O3 0.106827 0.893174 0.948624
O O4 0.041310 0.833297 0.757965
O O5 0.075953 0.789588 0.958047
O O6 0.000000 0.814171 0.000000
O O7 0.522851 0.761426 0.099996
O O8 0.520292 0.666667 0.166667
O O9 0.612298 0.756089 0.083808
#
# Coordination Sequence:
#
# PCOD9579172 Si02
#       4
#    18  36  36  36
#     4  10  20  30  55  86 126 166 205 236 280 342
#     4  11  24  40  61  88 119 158 203 251 305 359
#     4  11  24  41  61  87 120 159 202 251 304 360
#     4  11  20  35  56  86 124 167 204 241 284 346
#
# _framework density 18.778555000000001
#
# number of rings (size 3 to 8) (size 9 to 14) (size 15 to 20)
#    0.000    1.143    4.286    3.429    4.000    3.429 
#    0.000    1.429    0.000    0.571    0.000    0.000 
#    0.000    0.000    0.000    0.000    0.000    0.000 
#
# Total GULP energy -234073.344789 kJ/mol
# GULP energy per Si atom -5573.174876 kJ/mol
# Density = 1.873581 g / cm^3
# Si number density = 18.778555 Si / 1000 Ang^3
#
#
#
# Elastic Constant Matrix: (Units=GPa)
#
#
# Indices 1 2 3 4 5 6 
#
# 1 106.8812 71.4680 61.5521 -1.2087 -0.0003 0.0018
# 2 71.4680 106.8788 61.5300 1.2082 -0.0047 0.0009
# 3 61.5521 61.5300 109.7792 0.0077 -0.0335 0.0023
# 4 -1.2087 1.2082 0.0077 17.1361 -0.0005 0.0019
# 5 -0.0003 -0.0047 -0.0335 -0.0005 17.1072 -1.2205
# 6 0.0018 0.0009 0.0023 0.0019 -1.2205 17.6983
#
#
#
# Elastic Compliance Matrix: (Units=1/GPa)
#
#
# Indices 1 2 3 4 5 6 
#
# 1 0.018763 -0.009615 -0.005131 0.002004 -0.000012 -0.000002
# 2 -0.009615 0.018757 -0.005122 -0.001998 -0.000005 0.000001
# 3 -0.005131 -0.005122 0.014857 -0.000007 0.000028 0.000001
# 4 0.002004 -0.001998 -0.000007 0.058639 0.000001 -0.000007
# 5 -0.000012 -0.000005 0.000028 0.000001 0.058744 0.004051
# 6 -0.000002 0.000001 0.000001 -0.000007 0.004051 0.056782
#
#
# Mechanical properties :
#
#
# Convention : Reuss Voigt Hill
#
# Bulk Modulus (GPa) = 79.10980 79.18214 79.14597
# Shear Modulus (GPa) = 18.48477 18.98758 18.73617
#
# Velocity S-wave (km/s) = 3.14085 3.18328 3.16213
# Velocity P-wave (km/s) = 7.44126 7.46785 7.45457
#
# Compressibility (1/GPa) = 0.01264066
#
# Stress axis : x y z
#
# Youngs Moduli (GPa) = 53.29531 53.31283 67.30822
#
# Poissons Ratio (x) = 0.51262 0.34538
# Poissons Ratio (y) = 0.51245 0.34474
# Poissons Ratio (z) = 0.27348 0.27306
#
# Static dielectric constant tensor:
#      x y z
#    x 1.696260 -0.000010 0.000000 
#    y -0.000010 1.696260 -0.000010 
#    z 0.000000 -0.000010 1.755900 
# 
# From -- ./inp_files/2960.got.cif
#   From: 2010.05.17/outbox.cif.g08.bks.cpg/sg166_2_cif.got.tgz:2960.got - 2010.05.20 11:04:41.
