data_PCOD9579134
_publ_section_title
;
Structure prediction by ZEFSAII (Michael W. Deem and Ramdas Pophale) SiO2 
 PCOD9579134
Probable space group: R -3 M
;
_chemical_formula_sum "Si O2"
_cell_formula_units_Z 144
_cell_length_a 22.970615
_cell_length_b 22.970615
_cell_length_c 20.190555
_cell_angle_alpha 90.000000
_cell_angle_beta 90.000000
_cell_angle_gamma 120.000000
_cell_volume 9226.226974
_symmetry_space_group_name_H-M "R -3 M"
_symmetry_group_IT_number 166
_symmetry_cell_setting 'hexagonal'
loop_
_space_group_symop_operation_xyz
x,y,z
-y,x-y,z
-x+y,-x,z
x-y,-y,-z
-x,-x+y,-z
y,x,-z
-x,-y,-z
y,-x+y,-z
x-y,x,-z
-x+y,y,z
x,x-y,z
-y,-x,z
2/3+x,1/3+y,1/3+z
2/3-y,1/3+x-y,1/3+z
2/3-x+y,1/3-x,1/3+z
2/3+x-y,1/3-y,1/3-z
2/3-x,1/3-x+y,1/3-z
2/3+y,1/3+x,1/3-z
2/3-x,1/3-y,1/3-z
2/3+y,1/3-x+y,1/3-z
2/3+x-y,1/3+x,1/3-z
2/3-x+y,1/3+y,1/3+z
2/3+x,1/3+x-y,1/3+z
2/3-y,1/3-x,1/3+z
1/3+x,2/3+y,2/3+z
1/3-y,2/3+x-y,2/3+z
1/3-x+y,2/3-x,2/3+z
1/3+x-y,2/3-y,2/3-z
1/3-x,2/3-x+y,2/3-z
1/3+y,2/3+x,2/3-z
1/3-x,2/3-y,2/3-z
1/3+y,2/3-x+y,2/3-z
1/3+x-y,2/3+x,2/3-z
1/3-x+y,2/3+y,2/3+z
1/3+x,2/3+x-y,2/3+z
1/3-y,2/3-x,2/3+z
loop_
_atom_site_type_symbol
_atom_site_label
_atom_site_fract_x
_atom_site_fract_y
_atom_site_fract_z
Si Si1 0.369030 0.291337 0.482756
Si Si2 0.254958 0.375486 0.019054
Si Si3 0.816326 0.049090 0.056022
Si Si4 0.470640 0.069488 0.039655
O O1 0.339141 0.339141 0.500000
O O2 0.318537 0.240421 0.426728
O O3 0.441644 0.336063 0.449798
O O4 0.381379 0.263596 0.550620
O O5 0.198010 0.396021 0.016134
O O6 0.228748 0.308215 0.974207
O O7 0.325693 0.433539 0.990234
O O8 0.888681 0.111320 0.071583
O O9 0.817219 0.000000 0.000000
O O10 0.550998 0.101995 0.031569
O O11 0.436285 0.000000 0.000000
#
# Coordination Sequence:
#
# PCOD9579134 Si02
#       4
#    36  36  36  36
#     4  11  18  31  49  73 105 127 159 198 246 293
#     4  10  19  33  50  73 100 131 164 198 241 293
#     4   9  18  31  51  75 102 132 162 196 238 289
#     4  11  21  33  49  72 101 132 163 202 248 294
#
# _framework density 15.607678999999999
#
# number of rings (size 3 to 8) (size 9 to 14) (size 15 to 20)
#    0.000    1.750    5.000    1.500    0.000    2.500 
#    0.000    0.000    0.000    0.750    0.000    1.750 
#    0.000    1.000    0.000    0.000    0.000    0.000 
#
# Total GULP energy -267401.396805 kJ/mol
# GULP energy per Si atom -5570.862433 kJ/mol
# Density = 1.557216 g / cm^3
# Si number density = 15.607679 Si / 1000 Ang^3
#
#
#
# Elastic Constant Matrix: (Units=GPa)
#
#
# Indices 1 2 3 4 5 6 
#
# 1 75.4775 30.6656 38.4268 -5.3626 0.0000 0.0000
# 2 30.6656 75.4775 38.4268 5.3626 0.0000 0.0000
# 3 38.4268 38.4268 117.3785 0.0000 0.0000 0.0000
# 4 -5.3626 5.3626 0.0000 2.6952 0.0000 0.0000
# 5 0.0000 0.0000 0.0000 0.0000 2.6952 -5.3626
# 6 0.0000 0.0000 0.0000 0.0000 -5.3626 22.4059
#
#
#
# Elastic Compliance Matrix: (Units=1/GPa)
#
#
# Indices 1 2 3 4 5 6 
#
# 1 0.027476 -0.015128 -0.004043 0.084769 0.000000 0.000000
# 2 -0.015128 0.027476 -0.004043 -0.084769 0.000000 0.000000
# 3 -0.004043 -0.004043 0.011166 0.000000 0.000000 0.000000
# 4 0.084769 -0.084769 0.000000 0.708355 0.000000 0.000000
# 5 0.000000 0.000000 0.000000 0.000000 0.708355 0.169538
# 6 0.000000 0.000000 0.000000 0.000000 0.169538 0.085208
#
#
# Mechanical properties :
#
#
# Convention : Reuss Voigt Hill
#
# Bulk Modulus (GPa) = 50.78014 53.70800 52.24407
# Shear Modulus (GPa) = 3.08446 16.28021 9.68234
#
# Velocity S-wave (km/s) = 1.40732 3.23319 2.49340
# Velocity P-wave (km/s) = 5.93689 6.95874 6.46803
#
# Compressibility (1/GPa) = 0.01969274
#
# Stress axis : x y z
#
# Youngs Moduli (GPa) = 36.39509 36.39509 89.55529
#
# Poissons Ratio (x) = 0.55058 0.36203
# Poissons Ratio (y) = 0.55058 0.36203
# Poissons Ratio (z) = 0.14713 0.14713
#
# Static dielectric constant tensor:
#      x y z
#    x 1.517670 0.000000 0.000000 
#    y 0.000000 1.517670 0.000000 
#    z 0.000000 0.000000 1.580790 
# 
# From -- ./inp_files/5243.got.cif
#   From: 2010.05.17/outbox.cif.g08.bks.cpg/sg166_3_cif.got.tgz:5243.got - 2010.05.20 11:04:41.
