data_PCOD9579103
_publ_section_title
;
Structure prediction by ZEFSAII (Michael W. Deem and Ramdas Pophale) SiO2 
 PCOD9579103
Probable space group: R -3 M
;
_chemical_formula_sum "Si O2"
_cell_formula_units_Z 252
_cell_length_a 30.146829
_cell_length_b 30.146829
_cell_length_c 18.027499
_cell_angle_alpha 90.000000
_cell_angle_beta 90.000000
_cell_angle_gamma 120.000000
_cell_volume 14188.921530
_symmetry_space_group_name_H-M "R -3 M"
_symmetry_group_IT_number 166
_symmetry_cell_setting 'hexagonal'
loop_
_space_group_symop_operation_xyz
x,y,z
-y,x-y,z
-x+y,-x,z
x-y,-y,-z
-x,-x+y,-z
y,x,-z
-x,-y,-z
y,-x+y,-z
x-y,x,-z
-x+y,y,z
x,x-y,z
-y,-x,z
2/3+x,1/3+y,1/3+z
2/3-y,1/3+x-y,1/3+z
2/3-x+y,1/3-x,1/3+z
2/3+x-y,1/3-y,1/3-z
2/3-x,1/3-x+y,1/3-z
2/3+y,1/3+x,1/3-z
2/3-x,1/3-y,1/3-z
2/3+y,1/3-x+y,1/3-z
2/3+x-y,1/3+x,1/3-z
2/3-x+y,1/3+y,1/3+z
2/3+x,1/3+x-y,1/3+z
2/3-y,1/3-x,1/3+z
1/3+x,2/3+y,2/3+z
1/3-y,2/3+x-y,2/3+z
1/3-x+y,2/3-x,2/3+z
1/3+x-y,2/3-y,2/3-z
1/3-x,2/3-x+y,2/3-z
1/3+y,2/3+x,2/3-z
1/3-x,2/3-y,2/3-z
1/3+y,2/3-x+y,2/3-z
1/3+x-y,2/3+x,2/3-z
1/3-x+y,2/3+y,2/3+z
1/3+x,2/3+x-y,2/3+z
1/3-y,2/3-x,2/3+z
loop_
_atom_site_type_symbol
_atom_site_label
_atom_site_fract_x
_atom_site_fract_y
_atom_site_fract_z
Si Si1 0.889469 0.493943 0.272046
Si Si2 0.076802 0.656422 0.308545
Si Si3 0.149329 0.951075 0.540849
Si Si4 0.894102 0.279536 0.139232
Si Si5 0.311512 0.260922 0.876598
Si Si6 0.468788 0.040144 0.908482
Si Si7 0.476430 0.621526 0.557161
O O1 0.897809 0.448905 0.243802
O O2 0.941625 0.546922 0.262018
O O3 0.877401 0.486749 0.359293
O O4 0.840999 0.491025 0.228591
O O5 0.113209 0.636458 0.274318
O O6 0.056719 0.629482 0.387224
O O7 0.108996 0.718428 0.305386
O O8 0.028169 0.636740 0.253017
O O9 0.093212 0.906789 0.562049
O O10 0.172052 0.927605 0.480797
O O11 0.152797 0.000000 0.500000
O O12 0.897560 0.230894 0.166667
O O13 0.939837 0.326916 0.183402
O O14 0.840980 0.274597 0.164976
O O15 0.329944 0.239693 0.807976
O O16 0.514692 0.029384 0.928715
O O17 0.415533 0.584468 0.544630
#
# Coordination Sequence:
#
# PCOD9579103 Si02
#       7
#    36  36  36  36  36  36  36
#     4   9  17  32  54  75  95 125 161 195 242 301
#     4  10  20  33  47  68  97 131 168 205 251 299
#     4   8  15  29  50  72  94 124 160 198 241 291
#     4  11  22  33  47  68  96 130 167 206 246 295
#     4  10  19  32  49  69  97 130 165 206 251 296
#     4   9  17  31  49  69  94 125 166 212 251 290
#     4   9  19  34  50  71  98 125 156 198 242 288
#
# _framework density 17.760335000000001
#
# number of rings (size 3 to 8) (size 9 to 14) (size 15 to 20)
#    0.000    2.571    0.000    3.429    0.000    4.857 
#    0.000    4.286    0.000    0.429    0.000    2.000 
#    0.000    0.000    0.000    0.857    0.000    1.000 
#
# Total GULP energy -468047.152533 kJ/mol
# GULP energy per Si atom -5571.989911 kJ/mol
# Density = 1.771991 g / cm^3
# Si number density = 17.760335 Si / 1000 Ang^3
#
#
#
# Elastic Constant Matrix: (Units=GPa)
#
#
# Indices 1 2 3 4 5 6 
#
# 1 44.3050 24.3614 -3.3957 8.1934 -0.0001 0.0000
# 2 24.3614 44.3050 -3.3957 -8.1934 0.0001 0.0000
# 3 -3.3957 -3.3957 53.5659 0.0000 0.0000 0.0000
# 4 8.1934 -8.1934 0.0000 7.3395 0.0000 0.0001
# 5 -0.0001 0.0001 0.0000 0.0000 7.3395 8.1934
# 6 0.0000 0.0000 0.0000 0.0001 8.1934 9.9718
#
#
#
# Elastic Compliance Matrix: (Units=1/GPa)
#
#
# Indices 1 2 3 4 5 6 
#
# 1 0.310287 -0.295632 0.000929 -0.676410 0.000006 0.000000
# 2 -0.295632 0.310287 0.000929 0.676410 -0.000006 0.000000
# 3 0.000929 0.000929 0.018786 0.000000 0.000000 0.000000
# 4 -0.676410 0.676410 0.000000 1.646452 0.000000 -0.000011
# 5 0.000006 -0.000006 0.000000 0.000000 1.646453 -1.352820
# 6 0.000000 0.000000 0.000000 -0.000011 -1.352820 1.211837
#
#
# Mechanical properties :
#
#
# Convention : Reuss Voigt Hill
#
# Bulk Modulus (GPa) = 19.30034 19.70178 19.50106
# Shear Modulus (GPa) = 0.86973 13.23723 7.05348
#
# Velocity S-wave (km/s) = 0.70055 2.73303 1.99502
# Velocity P-wave (km/s) = 3.39780 4.59091 4.03866
#
# Compressibility (1/GPa) = 0.05181255
#
# Stress axis : x y z
#
# Youngs Moduli (GPa) = 3.22283 3.22283 53.23007
#
# Poissons Ratio (x) = 0.95277 -0.04945
# Poissons Ratio (y) = 0.95277 -0.04945
# Poissons Ratio (z) = -0.00299 -0.00299
#
# Static dielectric constant tensor:
#      x y z
#    x 1.630790 0.000000 0.000000 
#    y 0.000000 1.630790 0.000000 
#    z 0.000000 0.000000 1.627240 
# 
# From -- ./inp_files/5868.got.cif
#   From: 2010.05.17/outbox.cif.g08.bks.cpg/sg166_3_cif.got.tgz:5868.got - 2010.05.20 11:04:41.
