data_PCOD9579023
_publ_section_title
;
Structure prediction by ZEFSAII (Michael W. Deem and Ramdas Pophale) SiO2 
 PCOD9579023
Probable space group: R -3 M
;
_chemical_formula_sum "Si O2"
_cell_formula_units_Z 216
_cell_length_a 26.915596
_cell_length_b 26.915596
_cell_length_c 15.957098
_cell_angle_alpha 90.000000
_cell_angle_beta 90.000000
_cell_angle_gamma 120.000000
_cell_volume 10011.347722
_symmetry_space_group_name_H-M "R -3 M"
_symmetry_group_IT_number 166
_symmetry_cell_setting 'hexagonal'
loop_
_space_group_symop_operation_xyz
x,y,z
-y,x-y,z
-x+y,-x,z
x-y,-y,-z
-x,-x+y,-z
y,x,-z
-x,-y,-z
y,-x+y,-z
x-y,x,-z
-x+y,y,z
x,x-y,z
-y,-x,z
2/3+x,1/3+y,1/3+z
2/3-y,1/3+x-y,1/3+z
2/3-x+y,1/3-x,1/3+z
2/3+x-y,1/3-y,1/3-z
2/3-x,1/3-x+y,1/3-z
2/3+y,1/3+x,1/3-z
2/3-x,1/3-y,1/3-z
2/3+y,1/3-x+y,1/3-z
2/3+x-y,1/3+x,1/3-z
2/3-x+y,1/3+y,1/3+z
2/3+x,1/3+x-y,1/3+z
2/3-y,1/3-x,1/3+z
1/3+x,2/3+y,2/3+z
1/3-y,2/3+x-y,2/3+z
1/3-x+y,2/3-x,2/3+z
1/3+x-y,2/3-y,2/3-z
1/3-x,2/3-x+y,2/3-z
1/3+y,2/3+x,2/3-z
1/3-x,2/3-y,2/3-z
1/3+y,2/3-x+y,2/3-z
1/3+x-y,2/3+x,2/3-z
1/3-x+y,2/3+y,2/3+z
1/3+x,2/3+x-y,2/3+z
1/3-y,2/3-x,2/3+z
loop_
_atom_site_type_symbol
_atom_site_label
_atom_site_fract_x
_atom_site_fract_y
_atom_site_fract_z
Si Si1 0.215206 0.898992 0.138044
Si Si2 0.220372 0.554313 0.850354
Si Si3 0.727221 0.573732 0.954613
Si Si4 0.904651 0.349157 0.529897
Si Si5 0.396448 0.488790 0.636501
Si Si6 0.555508 0.332283 0.718506
O O1 0.156607 0.843394 0.169704
O O2 0.236568 0.955655 0.192762
O O3 0.262373 0.881408 0.117194
O O4 0.200097 0.914897 0.047050
O O5 0.277441 0.554881 0.819111
O O6 0.214681 0.607341 0.816267
O O7 0.163143 0.493405 0.842817
O O8 0.226540 0.560991 0.950930
O O9 0.788323 0.576646 0.967822
O O10 0.709392 0.586845 0.044859
O O11 0.683427 0.508445 0.930244
O O12 0.935655 0.388206 0.448609
O O13 0.445146 0.554855 0.623129
O O14 0.333334 0.475257 0.666667
O O15 0.539767 0.269884 0.748152
O O16 0.618050 0.381951 0.746635
#
# Coordination Sequence:
#
# PCOD9579023 Si02
#       6
#    36  36  36  36  36  36
#     4   9  18  30  42  58  84 119 153 192 247 297
#     4   9  15  22  34  54  81 114 149 183 220 267
#     4   9  17  28  42  63  91 121 156 197 239 288
#     4  10  17  27  41  57  80 113 155 196 240 286
#     4   9  17  28  41  57  79 110 150 193 240 291
#     4   8  13  21  35  57  86 116 143 173 211 261
#
# _framework density 21.575517000000001
#
# number of rings (size 3 to 8) (size 9 to 14) (size 15 to 20)
#    0.000    3.000    0.000    3.333    0.000    3.333 
#    0.000    2.500    0.000    0.167    0.000    0.000 
#    0.000   14.000    0.000    0.000    0.000    0.000 
#
# Total GULP energy -401735.158386 kJ/mol
# GULP energy per Si atom -5579.654978 kJ/mol
# Density = 2.152641 g / cm^3
# Si number density = 21.575517 Si / 1000 Ang^3
#
#
#
# Elastic Constant Matrix: (Units=GPa)
#
#
# Indices 1 2 3 4 5 6 
#
# 1 83.2565 35.6513 -2.1241 2.8976 0.0004 0.0000
# 2 35.6513 83.2565 -2.1241 -2.8976 -0.0004 0.0000
# 3 -2.1241 -2.1241 51.1542 0.0000 0.0000 0.0000
# 4 2.8976 -2.8976 0.0000 40.6543 0.0000 -0.0004
# 5 0.0004 -0.0004 0.0000 0.0000 40.6543 2.8976
# 6 0.0000 0.0000 0.0000 -0.0004 2.8976 23.8026
#
#
#
# Elastic Compliance Matrix: (Units=1/GPa)
#
#
# Indices 1 2 3 4 5 6 
#
# 1 0.014806 -0.006384 0.000350 -0.001510 0.000000 0.000000
# 2 -0.006384 0.014806 0.000350 0.001510 0.000000 0.000000
# 3 0.000350 0.000350 0.019578 0.000000 0.000000 0.000000
# 4 -0.001510 0.001510 0.000000 0.024813 0.000000 0.000000
# 5 0.000000 0.000000 0.000000 0.000000 0.024813 -0.003021
# 6 0.000000 0.000000 0.000000 0.000000 -0.003021 0.042380
#
#
# Mechanical properties :
#
#
# Convention : Reuss Voigt Hill
#
# Bulk Modulus (GPa) = 26.44002 31.16370 28.80186
# Shear Modulus (GPa) = 30.27149 33.43982 31.85566
#
# Velocity S-wave (km/s) = 3.74979 3.94114 3.84666
# Velocity P-wave (km/s) = 5.57038 5.93174 5.75390
#
# Compressibility (1/GPa) = 0.03782145
#
# Stress axis : x y z
#
# Youngs Moduli (GPa) = 67.53935 67.53935 51.07832
#
# Poissons Ratio (x) = 0.43116 -0.01786
# Poissons Ratio (y) = 0.43116 -0.01786
# Poissons Ratio (z) = -0.02362 -0.02362
#
# Static dielectric constant tensor:
#      x y z
#    x 1.812190 0.000000 0.000000 
#    y 0.000000 1.812190 0.000000 
#    z 0.000000 0.000000 1.817120 
# 
# From -- ./inp_files/7168.got.cif
#   From: 2010.05.17/outbox.cif.g08.bks.cpg/sg166_4_cif.got.tgz:7168.got - 2010.05.20 11:04:41.
