data_PCOD9579156
_publ_section_title
;
Structure prediction by ZEFSAII (Michael W. Deem and Ramdas Pophale) SiO2 
 PCOD9579156
Probable space group: R -3 M
;
_chemical_formula_sum "Si O2"
_cell_formula_units_Z 144
_cell_length_a 21.709533
_cell_length_b 21.709533
_cell_length_c 20.479869
_cell_angle_alpha 90.000000
_cell_angle_beta 90.000000
_cell_angle_gamma 120.000000
_cell_volume 8359.085525
_symmetry_space_group_name_H-M "R -3 M"
_symmetry_group_IT_number 166
_symmetry_cell_setting 'hexagonal'
loop_
_space_group_symop_operation_xyz
x,y,z
-y,x-y,z
-x+y,-x,z
x-y,-y,-z
-x,-x+y,-z
y,x,-z
-x,-y,-z
y,-x+y,-z
x-y,x,-z
-x+y,y,z
x,x-y,z
-y,-x,z
2/3+x,1/3+y,1/3+z
2/3-y,1/3+x-y,1/3+z
2/3-x+y,1/3-x,1/3+z
2/3+x-y,1/3-y,1/3-z
2/3-x,1/3-x+y,1/3-z
2/3+y,1/3+x,1/3-z
2/3-x,1/3-y,1/3-z
2/3+y,1/3-x+y,1/3-z
2/3+x-y,1/3+x,1/3-z
2/3-x+y,1/3+y,1/3+z
2/3+x,1/3+x-y,1/3+z
2/3-y,1/3-x,1/3+z
1/3+x,2/3+y,2/3+z
1/3-y,2/3+x-y,2/3+z
1/3-x+y,2/3-x,2/3+z
1/3+x-y,2/3-y,2/3-z
1/3-x,2/3-x+y,2/3-z
1/3+y,2/3+x,2/3-z
1/3-x,2/3-y,2/3-z
1/3+y,2/3-x+y,2/3-z
1/3+x-y,2/3+x,2/3-z
1/3-x+y,2/3+y,2/3+z
1/3+x,2/3+x-y,2/3+z
1/3-y,2/3-x,2/3+z
loop_
_atom_site_type_symbol
_atom_site_label
_atom_site_fract_x
_atom_site_fract_y
_atom_site_fract_z
Si Si1 0.071885 0.699351 0.265257
Si Si2 0.076293 0.296551 0.134390
Si Si3 0.861786 0.999877 0.420978
Si Si4 0.477806 0.666929 0.743662
O O1 0.056418 0.723084 0.333334
O O2 0.077289 0.752226 0.207257
O O3 0.142457 0.693178 0.269213
O O4 0.009739 0.621073 0.244599
O O5 0.154502 0.309004 0.119222
O O6 0.022055 0.213516 0.120873
O O7 0.884526 0.942263 0.402766
O O8 0.857685 0.000000 0.500000
O O9 0.921438 0.078563 0.400118
O O10 0.486272 0.743136 0.758998
O O11 0.395840 0.604161 0.750648
O O12 0.495922 0.666667 0.666667
#
# Coordination Sequence:
#
# PCOD9579156 Si02
#       4
#    36  36  36  36
#     4  11  22  35  54  81 110 144 181 219 269 331
#     4  10  20  36  55  75 106 142 179 222 271 324
#     4  10  19  34  57  83 109 137 177 227 276 322
#     4   9  17  31  53  78 103 134 176 223 267 311
#
# _framework density 17.226763999999999
#
# number of rings (size 3 to 8) (size 9 to 14) (size 15 to 20)
#    0.000    2.000    2.500    2.750    0.000    4.000 
#    0.000    6.250    0.000    0.000    0.000    3.500 
#    0.000    0.000    0.000    0.000    0.000    0.000 
#
# Total GULP energy -267786.438556 kJ/mol
# GULP energy per Si atom -5578.884137 kJ/mol
# Density = 1.718756 g / cm^3
# Si number density = 17.226764 Si / 1000 Ang^3
#
#
#
# Elastic Constant Matrix: (Units=GPa)
#
#
# Indices 1 2 3 4 5 6 
#
# 1 111.0379 53.0589 42.6148 1.6855 0.0004 0.0000
# 2 53.0589 111.0379 42.6148 -1.6855 -0.0004 0.0000
# 3 42.6148 42.6148 55.1824 0.0000 0.0000 0.0000
# 4 1.6855 -1.6855 0.0000 8.3236 0.0000 -0.0004
# 5 0.0004 -0.0004 0.0000 0.0000 8.3236 1.6855
# 6 0.0000 0.0000 0.0000 -0.0004 1.6855 28.9895
#
#
#
# Elastic Compliance Matrix: (Units=1/GPa)
#
#
# Indices 1 2 3 4 5 6 
#
# 1 0.013814 -0.003639 -0.007858 -0.003534 -0.000001 0.000000
# 2 -0.003639 0.013814 -0.007858 0.003534 0.000001 0.000000
# 3 -0.007858 -0.007858 0.030258 0.000000 0.000000 0.000000
# 4 -0.003534 0.003534 0.000000 0.121571 0.000000 0.000002
# 5 -0.000001 0.000001 0.000000 0.000000 0.121571 -0.007069
# 6 0.000000 0.000000 0.000000 0.000002 -0.007069 0.034906
#
#
# Mechanical properties :
#
#
# Convention : Reuss Voigt Hill
#
# Bulk Modulus (GPa) = 52.14508 61.53725 56.84116
# Shear Modulus (GPa) = 13.12211 18.39201 15.75706
#
# Velocity S-wave (km/s) = 2.76294 3.27102 3.02766
# Velocity P-wave (km/s) = 6.36506 7.07570 6.72977
#
# Compressibility (1/GPa) = 0.01917726
#
# Stress axis : x y z
#
# Youngs Moduli (GPa) = 72.38947 72.38947 33.04894
#
# Poissons Ratio (x) = 0.26342 0.25969
# Poissons Ratio (y) = 0.26342 0.25969
# Poissons Ratio (z) = 0.56882 0.56882
#
# Static dielectric constant tensor:
#      x y z
#    x 1.586880 0.000000 0.000000 
#    y 0.000000 1.586880 0.000000 
#    z 0.000000 0.000000 1.558120 
# 
# From -- ./inp_files/6584.got.cif
#   From: 2010.05.17/outbox.cif.g08.bks.cpg/sg166_4_cif.got.tgz:6584.got - 2010.05.20 11:04:41.
