data_PCOD9579703
_publ_section_title
;
Structure prediction by ZEFSAII (Michael W. Deem and Ramdas Pophale) SiO2 
 PCOD9579703
Probable space group: R -3 C 
;
_chemical_formula_sum "Si O2"
_cell_formula_units_Z 90
_cell_length_a 19.944301
_cell_length_b 19.944301
_cell_length_c 11.507675
_cell_angle_alpha 90.000000
_cell_angle_beta 90.000000
_cell_angle_gamma 120.000000
_cell_volume 3964.202760
_symmetry_space_group_name_H-M "R -3 C "
_symmetry_group_IT_number 167
_symmetry_cell_setting 'hexagonal'
loop_
_space_group_symop_operation_xyz
x,y,z
-y,x-y,z
-x+y,-x,z
x-y,-y,1/2-z
-x,-x+y,1/2-z
y,x,1/2-z
-x,-y,-z
y,-x+y,-z
x-y,x,-z
-x+y,y,1/2+z
x,x-y,1/2+z
-y,-x,1/2+z
2/3+x,1/3+y,1/3+z
2/3-y,1/3+x-y,1/3+z
2/3-x+y,1/3-x,1/3+z
2/3+x-y,1/3-y,5/6-z
2/3-x,1/3-x+y,5/6-z
2/3+y,1/3+x,5/6-z
2/3-x,1/3-y,1/3-z
2/3+y,1/3-x+y,1/3-z
2/3+x-y,1/3+x,1/3-z
2/3-x+y,1/3+y,5/6+z
2/3+x,1/3+x-y,5/6+z
2/3-y,1/3-x,5/6+z
1/3+x,2/3+y,2/3+z
1/3-y,2/3+x-y,2/3+z
1/3-x+y,2/3-x,2/3+z
1/3+x-y,2/3-y,1/6-z
1/3-x,2/3-x+y,1/6-z
1/3+y,2/3+x,1/6-z
1/3-x,2/3-y,2/3-z
1/3+y,2/3-x+y,2/3-z
1/3+x-y,2/3+x,2/3-z
1/3-x+y,2/3+y,1/6+z
1/3+x,2/3+x-y,1/6+z
1/3-y,2/3-x,1/6+z
loop_
_atom_site_type_symbol
_atom_site_label
_atom_site_fract_x
_atom_site_fract_y
_atom_site_fract_z
Si Si1 0.333334 0.316873 0.916667
Si Si2 0.559514 0.402443 0.863639
Si Si3 0.454672 0.121338 0.583334
Si Si4 0.447736 0.000000 0.250000
O O1 0.288959 0.245987 0.828665
O O2 0.393598 0.397336 0.857358
O O3 0.651550 0.454076 0.858768
O O4 0.523260 0.443435 0.784990
O O5 0.524000 0.384632 0.994565
#
# Coordination Sequence:
#
# PCOD9579703 Si02
#       4
#    18  36  18  18
#     4   8  16  37  64  96 134 173 226 292 354 409
#     4  11  25  44  68 101 141 188 238 293 358 427
#     4   9  20  40  66  98 140 187 236 292 356 425
#     4   9  20  37  62  92 128 174 226 284 344 410
#
# _framework density 22.703178000000001
#
# number of rings (size 3 to 8) (size 9 to 14) (size 15 to 20)
#    0.000    2.400    0.000    0.400    0.000   14.400 
#    0.000   24.000    0.000    2.400    0.000    0.000 
#    0.000    0.000    0.000    0.000    0.000    0.000 
#
# Total GULP energy -167323.124454 kJ/mol
# GULP energy per Si atom -5577.437482 kJ/mol
# Density = 2.265150 g / cm^3
# Si number density = 22.703178 Si / 1000 Ang^3
#
#
#
# Elastic Constant Matrix: (Units=GPa)
#
#
# Indices 1 2 3 4 5 6 
#
# 1 135.6218 69.5875 55.7438 8.0253 -0.0001 0.0000
# 2 69.5875 135.6218 55.7438 -8.0253 0.0001 0.0000
# 3 55.7438 55.7438 130.7943 0.0000 0.0000 0.0000
# 4 8.0253 -8.0253 0.0000 19.1273 0.0000 0.0001
# 5 -0.0001 0.0001 0.0000 0.0000 19.1273 8.0253
# 6 0.0000 0.0000 0.0000 0.0001 8.0253 33.0171
#
#
#
# Elastic Compliance Matrix: (Units=1/GPa)
#
#
# Indices 1 2 3 4 5 6 
#
# 1 0.011602 -0.005261 -0.002703 -0.007075 0.000000 0.000000
# 2 -0.005261 0.011602 -0.002703 0.007075 0.000000 0.000000
# 3 -0.002703 -0.002703 0.009949 0.000000 0.000000 0.000000
# 4 -0.007075 0.007075 0.000000 0.058218 0.000000 0.000000
# 5 0.000000 0.000000 0.000000 0.000000 0.058218 -0.014151
# 6 0.000000 0.000000 0.000000 0.000000 -0.014151 0.033727
#
#
# Mechanical properties :
#
#
# Convention : Reuss Voigt Hill
#
# Bulk Modulus (GPa) = 84.59208 84.90981 84.75094
# Shear Modulus (GPa) = 23.97036 28.98522 26.47779
#
# Velocity S-wave (km/s) = 3.25286 3.57697 3.41876
# Velocity P-wave (km/s) = 7.17280 7.38518 7.27976
#
# Compressibility (1/GPa) = 0.01182144
#
# Stress axis : x y z
#
# Youngs Moduli (GPa) = 86.18902 86.18902 100.50941
#
# Poissons Ratio (x) = 0.45344 0.27164
# Poissons Ratio (y) = 0.45344 0.27164
# Poissons Ratio (z) = 0.23294 0.23294
#
# Static dielectric constant tensor:
#      x y z
#    x -5.118860 0.000010 0.000000 
#    y 0.000010 -5.118870 0.000000 
#    z 0.000000 0.000000 1.912130 
# 
# From -- ./inp_files/2043.got.cif
#   From: 2010.05.17/outbox.cif.g08.bks.cpg/sg167_2_cif.got.tgz:2043.got - 2010.05.20 11:09:15.
