data_PCOD9579178
_publ_section_title
;
Structure prediction by ZEFSAII (Michael W. Deem and Ramdas Pophale) SiO2 
 PCOD9579178
Probable space group: R -3 M
;
_chemical_formula_sum "Si O2"
_cell_formula_units_Z 252
_cell_length_a 30.955753
_cell_length_b 30.955753
_cell_length_c 18.090573
_cell_angle_alpha 90.000000
_cell_angle_beta 90.000000
_cell_angle_gamma 120.000000
_cell_volume 15012.938309
_symmetry_space_group_name_H-M "R -3 M"
_symmetry_group_IT_number 166
_symmetry_cell_setting 'hexagonal'
loop_
_space_group_symop_operation_xyz
x,y,z
-y,x-y,z
-x+y,-x,z
x-y,-y,-z
-x,-x+y,-z
y,x,-z
-x,-y,-z
y,-x+y,-z
x-y,x,-z
-x+y,y,z
x,x-y,z
-y,-x,z
2/3+x,1/3+y,1/3+z
2/3-y,1/3+x-y,1/3+z
2/3-x+y,1/3-x,1/3+z
2/3+x-y,1/3-y,1/3-z
2/3-x,1/3-x+y,1/3-z
2/3+y,1/3+x,1/3-z
2/3-x,1/3-y,1/3-z
2/3+y,1/3-x+y,1/3-z
2/3+x-y,1/3+x,1/3-z
2/3-x+y,1/3+y,1/3+z
2/3+x,1/3+x-y,1/3+z
2/3-y,1/3-x,1/3+z
1/3+x,2/3+y,2/3+z
1/3-y,2/3+x-y,2/3+z
1/3-x+y,2/3-x,2/3+z
1/3+x-y,2/3-y,2/3-z
1/3-x,2/3-x+y,2/3-z
1/3+y,2/3+x,2/3-z
1/3-x,2/3-y,2/3-z
1/3+y,2/3-x+y,2/3-z
1/3+x-y,2/3+x,2/3-z
1/3-x+y,2/3+y,2/3+z
1/3+x,2/3+x-y,2/3+z
1/3-y,2/3-x,2/3+z
loop_
_atom_site_type_symbol
_atom_site_label
_atom_site_fract_x
_atom_site_fract_y
_atom_site_fract_z
Si Si1 0.520714 0.380267 0.590215
Si Si2 0.335108 0.046144 0.045675
Si Si3 0.237940 0.855223 0.039471
Si Si4 0.624059 0.862318 0.450237
Si Si5 0.239625 0.248428 0.840211
Si Si6 0.602101 0.717981 0.196218
Si Si7 0.614385 0.485977 0.993769
O O1 0.578437 0.421564 0.576469
O O2 0.500498 0.405033 0.649562
O O3 0.484733 0.367160 0.518398
O O4 0.506078 0.327915 0.629991
O O5 0.283861 0.030294 0.089117
O O6 0.379543 0.066755 0.105328
O O7 0.347151 0.089221 0.987223
O O8 0.330255 0.000000 0.000000
O O9 0.178971 0.821030 0.033823
O O10 0.254898 0.853976 0.122367
O O11 0.629327 0.814664 0.470865
O O12 0.597980 0.880452 0.510066
O O13 0.678492 0.909310 0.435246
O O14 0.586314 0.845430 0.381297
O O15 0.597490 0.666667 0.166667
O O16 0.557323 0.705136 0.252753
O O17 0.569815 0.430186 0.979540
#
# Coordination Sequence:
#
# PCOD9579178 Si02
#       7
#    36  36  36  36  36  36  36
#     4   9  18  34  52  73  96 124 163 204 246 302
#     4  10  20  32  47  69  94 126 166 209 247 296
#     4  10  20  33  47  66  94 127 167 206 245 289
#     4  10  21  34  49  70  98 128 164 208 256 307
#     4   9  20  33  49  70  93 129 165 203 255 295
#     4  12  22  31  46  71  97 135 168 210 249 291
#     4  10  20  36  53  73  99 129 165 207 261 314
#
# _framework density 16.785522
#
# number of rings (size 3 to 8) (size 9 to 14) (size 15 to 20)
#    0.000    2.000    1.429    2.571    4.000    1.714 
#    0.000    2.857    0.000    0.286    0.000    0.000 
#    0.000    0.571    0.000    0.000    0.000    0.714 
#
# Total GULP energy -468480.040730 kJ/mol
# GULP energy per Si atom -5577.143342 kJ/mol
# Density = 1.674732 g / cm^3
# Si number density = 16.785522 Si / 1000 Ang^3
#
#
#
# Elastic Constant Matrix: (Units=GPa)
#
#
# Indices 1 2 3 4 5 6 
#
# 1 89.7577 42.2349 11.7220 0.4308 0.0000 0.0000
# 2 42.2349 89.7577 11.7220 -0.4308 0.0000 0.0000
# 3 11.7220 11.7220 33.3531 0.0000 0.0000 0.0000
# 4 0.4308 -0.4308 0.0000 13.0516 0.0000 0.0000
# 5 0.0000 0.0000 0.0000 0.0000 13.0516 0.4308
# 6 0.0000 0.0000 0.0000 0.0000 0.4308 23.7614
#
#
#
# Elastic Compliance Matrix: (Units=1/GPa)
#
#
# Indices 1 2 3 4 5 6 
#
# 1 0.014568 -0.006487 -0.002840 -0.000695 0.000000 0.000000
# 2 -0.006487 0.014568 -0.002840 0.000695 0.000000 0.000000
# 3 -0.002840 -0.002840 0.031978 0.000000 0.000000 0.000000
# 4 -0.000695 0.000695 0.000000 0.076665 0.000000 0.000000
# 5 0.000000 0.000000 0.000000 0.000000 0.076665 -0.001390
# 6 0.000000 0.000000 0.000000 0.000000 -0.001390 0.042110
#
#
# Mechanical properties :
#
#
# Convention : Reuss Voigt Hill
#
# Bulk Modulus (GPa) = 27.18880 38.24736 32.71808
# Shear Modulus (GPa) = 17.05621 19.78557 18.42089
#
# Velocity S-wave (km/s) = 3.19113 3.43699 3.31634
# Velocity P-wave (km/s) = 5.45992 6.21175 5.84793
#
# Compressibility (1/GPa) = 0.03677986
#
# Stress axis : x y z
#
# Youngs Moduli (GPa) = 68.64432 68.64432 31.27112
#
# Poissons Ratio (x) = 0.44531 0.08881
# Poissons Ratio (y) = 0.44531 0.08881
# Poissons Ratio (z) = 0.19495 0.19495
#
# Static dielectric constant tensor:
#      x y z
#    x 1.587840 0.000000 0.000000 
#    y 0.000000 1.587840 0.000000 
#    z 0.000000 0.000000 1.582540 
# 
# From -- ./inp_files/5867.got.cif
#   From: 2010.05.17/outbox.cif.g08.bks.cpg/sg166_3_cif.got.tgz:5867.got - 2010.05.20 11:04:41.
