data_PCOD9579386
_publ_section_title
;
Structure prediction by ZEFSAII (Michael W. Deem and Ramdas Pophale) SiO2 
 PCOD9579386
Probable space group: R -3 M
;
_chemical_formula_sum "Si O2"
_cell_formula_units_Z 48
_cell_length_a 30.000000
_cell_length_b 30.000000
_cell_length_c 9.000000
_cell_angle_alpha 90.000000
_cell_angle_beta 90.000000
_cell_angle_gamma 120.000000
_cell_volume 7014.805771
_symmetry_space_group_name_H-M "R -3 M"
_symmetry_group_IT_number 166
_symmetry_cell_setting 'hexagonal'
loop_
_space_group_symop_operation_xyz
x,y,z
-y,x-y,z
-x+y,-x,z
x-y,-y,-z
-x,-x+y,-z
y,x,-z
-x,-y,-z
y,-x+y,-z
x-y,x,-z
-x+y,y,z
x,x-y,z
-y,-x,z
2/3+x,1/3+y,1/3+z
2/3-y,1/3+x-y,1/3+z
2/3-x+y,1/3-x,1/3+z
2/3+x-y,1/3-y,1/3-z
2/3-x,1/3-x+y,1/3-z
2/3+y,1/3+x,1/3-z
2/3-x,1/3-y,1/3-z
2/3+y,1/3-x+y,1/3-z
2/3+x-y,1/3+x,1/3-z
2/3-x+y,1/3+y,1/3+z
2/3+x,1/3+x-y,1/3+z
2/3-y,1/3-x,1/3+z
1/3+x,2/3+y,2/3+z
1/3-y,2/3+x-y,2/3+z
1/3-x+y,2/3-x,2/3+z
1/3+x-y,2/3-y,2/3-z
1/3-x,2/3-x+y,2/3-z
1/3+y,2/3+x,2/3-z
1/3-x,2/3-y,2/3-z
1/3+y,2/3-x+y,2/3-z
1/3+x-y,2/3+x,2/3-z
1/3-x+y,2/3+y,2/3+z
1/3+x,2/3+x-y,2/3+z
1/3-y,2/3-x,2/3+z
loop_
_atom_site_type_symbol
_atom_site_label
_atom_site_fract_x
_atom_site_fract_y
_atom_site_fract_z
Si Si1 0.236954 0.118477 0.827987
Si Si2 0.905886 0.614287 0.461442
Si Si3 0.448673 0.724337 0.586820
Si Si4 0.887256 0.943628 0.436188
Si Si5 0.932347 0.372082 0.722594
Si Si6 0.884480 0.115521 0.468723
O O1 0.262341 0.178488 0.872965
O O2 0.178893 0.089447 0.903146
O O3 0.245649 0.122825 0.646111
O O4 0.921281 0.587948 0.333334
O O5 0.924762 0.593633 0.597899
O O6 0.936491 0.676029 0.447869
O O7 0.423434 0.666667 0.666667
O O8 0.438033 0.719017 0.409241
O O9 0.913992 0.913992 0.500000
O O10 0.829976 0.914988 0.505414
O O11 0.888401 0.333334 0.833334
O O12 0.919262 0.417336 0.710798
#
# Coordination Sequence:
#
# PCOD9579386 Si02
#       6
#    18  36  18  18  36  18
#     4  11  25  45  69 101 143 182 235 287 350 418
#     4  12  26  45  71 105 142 184 232 289 352 414
#     4  11  24  45  71 101 137 185 232 288 358 418
#     4  11  24  43  71 103 139 177 237 291 348 418
#     4  12  24  44  72 102 140 183 234 287 345 415
#     4  11  25  43  71 103 137 186 234 289 347 409
#
# _framework density 6.84267
#
# number of rings (size 3 to 8) (size 9 to 14) (size 15 to 20)
#    0.000    0.500    2.500    6.250    3.500    2.000 
#    4.500    2.500    0.000    0.000    0.000    0.000 
#    0.000    0.000    0.000    0.000    0.000    0.000 
#
# Total GULP energy -267310.287586 kJ/mol
# GULP energy per Si atom -5568.964325 kJ/mol
# Density = 0.682710 g / cm^3
# Si number density = 6.842670 Si / 1000 Ang^3
#
#
#
# Elastic Constant Matrix: (Units=GPa)
#
#
# Indices 1 2 3 4 5 6 
#
# 1 173.5992 75.1491 41.7571 -1.2921 0.0138 0.0042
# 2 75.1491 173.5996 41.7488 1.2903 -0.0045 -0.0047
# 3 41.7571 41.7488 64.5912 0.0136 -0.0568 -0.0094
# 4 -1.2921 1.2903 0.0136 10.5567 0.0271 0.0141
# 5 0.0138 -0.0045 -0.0568 0.0271 10.6079 -1.2851
# 6 0.0042 -0.0047 -0.0094 0.0141 -1.2851 49.2276
#
#
#
# Elastic Compliance Matrix: (Units=1/GPa)
#
#
# Indices 1 2 3 4 5 6 
#
# 1 0.007663 -0.002528 -0.003320 0.001251 -0.000032 -0.000003
# 2 -0.002528 0.007662 -0.003318 -0.001242 -0.000008 0.000000
# 3 -0.003320 -0.003318 0.019773 -0.000027 0.000110 0.000007
# 4 0.001251 -0.001242 -0.000027 0.095032 -0.000249 -0.000034
# 5 -0.000032 -0.000008 0.000110 -0.000249 0.094570 0.002469
# 6 -0.000003 0.000000 0.000007 -0.000034 0.002469 0.020378
#
#
# Mechanical properties :
#
#
# Convention : Reuss Voigt Hill
#
# Bulk Modulus (GPa) = 59.64515 81.01111 70.32813
# Shear Modulus (GPa) = 18.58749 30.95409 24.77079
#
# Velocity S-wave (km/s) = 3.01237 3.88738 3.47750
# Velocity P-wave (km/s) = 6.42010 7.72647 7.10338
#
# Compressibility (1/GPa) = 0.01676582
#
# Stress axis : x y z
#
# Youngs Moduli (GPa) = 130.50354 130.51793 50.57418
#
# Poissons Ratio (x) = 0.32994 0.16791
# Poissons Ratio (y) = 0.32990 0.16779
# Poissons Ratio (z) = 0.43329 0.43302
#
# Static dielectric constant tensor:
#      x y z
#    x 1.720220 0.000000 0.000000 
#    y 0.000000 1.720220 0.000000 
#    z 0.000000 0.000000 1.715780 
# 
# From -- ./inp_files/1890.got.cif
#   From: 2010.05.17/outbox.ucp.g08.bks.cvg/sg166_1_cif.got.tgz:1890.got - 2010.06.11 15:16:39.
