data_PCOD9579902
_publ_section_title
;
Structure prediction by ZEFSAII (Michael W. Deem and Ramdas Pophale) SiO2 
 PCOD9579902
Probable space group: P 61
;
_chemical_formula_sum "Si O2"
_cell_formula_units_Z 30
_cell_length_a 17.177522
_cell_length_b 17.177522
_cell_length_c 5.316076
_cell_angle_alpha 90.000000
_cell_angle_beta 90.000000
_cell_angle_gamma 120.000000
_cell_volume 1358.447440
_symmetry_space_group_name_H-M "P 61"
_symmetry_group_IT_number 169
_symmetry_cell_setting 'hexagonal'
loop_
_space_group_symop_operation_xyz
x,y,z
x-y,x,1/6+z
-y,x-y,1/3+z
-x,-y,1/2+z
-x+y,-x,2/3+z
y,-x+y,5/6+z
loop_
_atom_site_type_symbol
_atom_site_label
_atom_site_fract_x
_atom_site_fract_y
_atom_site_fract_z
Si Si1 0.311974 0.315538 0.294670
Si Si2 0.190480 0.815593 0.173297
Si Si3 0.584400 0.601517 0.293387
Si Si4 0.662766 0.485190 0.333450
Si Si5 0.329625 0.792584 0.837645
O O1 0.302521 0.221638 0.383138
O O2 0.229775 0.332791 0.332647
O O3 0.382958 0.381833 0.505028
O O4 0.344721 0.333379 0.006678
O O5 0.172007 0.750013 0.408737
O O6 0.275813 0.816478 0.043612
O O7 0.583897 0.509752 0.370601
O O8 0.503111 0.621581 0.327319
O O9 0.701924 0.451024 0.550386
O O10 0.625834 0.409126 0.123222
#
# Coordination Sequence:
#
# PCOD9579902 Si02
#       5
#     6   6   6   6   6
#     4  10  20  39  70  92 133 164 226 274 329 402
#     4  10  22  40  62  98 126 174 220 274 336 390
#     4  10  22  43  66  94 125 172 224 274 327 392
#     4  11  24  43  67  92 130 173 225 273 337 391
#     4  11  24  43  67  92 130 173 225 273 337 391
#
# _framework density 22.084033999999999
#
# number of rings (size 3 to 8) (size 9 to 14) (size 15 to 20)
#    0.000    1.600    4.000    0.000    0.000    9.600 
#    0.000    0.000    0.000    0.000    0.000   11.200 
#    0.000    0.000    0.000    0.000    0.000    0.000 
#
# Total GULP energy -167463.368898 kJ/mol
# GULP energy per Si atom -5582.112297 kJ/mol
# Density = 2.203377 g / cm^3
# Si number density = 22.084034 Si / 1000 Ang^3
#
#
#
# Elastic Constant Matrix: (Units=GPa)
#
#
# Indices 1 2 3 4 5 6 
#
# 1 82.3720 45.2441 14.5293 0.0000 0.0000 0.0000
# 2 45.2441 82.3720 14.5293 0.0000 0.0000 0.0000
# 3 14.5293 14.5293 39.0587 0.0000 0.0000 0.0000
# 4 0.0000 0.0000 0.0000 33.1035 0.0000 0.0000
# 5 0.0000 0.0000 0.0000 0.0000 33.1035 0.0000
# 6 0.0000 0.0000 0.0000 0.0000 0.0000 18.5640
#
#
#
# Elastic Compliance Matrix: (Units=1/GPa)
#
#
# Indices 1 2 3 4 5 6 
#
# 1 0.017748 -0.009186 -0.003185 0.000000 0.000000 0.000000
# 2 -0.009186 0.017748 -0.003185 0.000000 0.000000 0.000000
# 3 -0.003185 -0.003185 0.027972 0.000000 0.000000 0.000000
# 4 0.000000 0.000000 0.000000 0.030208 0.000000 0.000000
# 5 0.000000 0.000000 0.000000 0.000000 0.030208 0.000000
# 6 0.000000 0.000000 0.000000 0.000000 0.000000 0.053868
#
#
# Mechanical properties :
#
#
# Convention : Reuss Voigt Hill
#
# Bulk Modulus (GPa) = 30.90658 39.15644 35.03151
# Shear Modulus (GPa) = 22.76374 25.58753 24.17563
#
# Velocity S-wave (km/s) = 3.21406 3.40758 3.31223
# Velocity P-wave (km/s) = 5.27247 5.76639 5.52495
#
# Compressibility (1/GPa) = 0.03235557
#
# Stress axis : x y z
#
# Youngs Moduli (GPa) = 56.34592 56.34592 35.75029
#
# Poissons Ratio (x) = 0.51761 0.11385
# Poissons Ratio (y) = 0.51761 0.11385
# Poissons Ratio (z) = 0.17944 0.17944
#
# Static dielectric constant tensor:
#      x y z
#    x 1.866430 0.000000 0.000000 
#    y 0.000000 1.866430 0.000000 
#    z 0.000000 0.000000 1.900730 
# 
# From -- ./inp_files/181.got.cif
#   From: 2010.05.17/outbox.cif.g08.bks.cpg/sg169_cif.got.tgz:181.got - 2010.05.20 11:12:54.
