data_PCOD9579453
_publ_section_title
;
Structure prediction by ZEFSAII (Michael W. Deem and Ramdas Pophale) SiO2 
 PCOD9579453
Probable space group: R -3 C 
;
_chemical_formula_sum "Si O2"
_cell_formula_units_Z 216
_cell_length_a 22.939212
_cell_length_b 22.939212
_cell_length_c 23.067032
_cell_angle_alpha 90.000000
_cell_angle_beta 90.000000
_cell_angle_gamma 120.000000
_cell_volume 10511.854476
_symmetry_space_group_name_H-M "R -3 C "
_symmetry_group_IT_number 167
_symmetry_cell_setting 'hexagonal'
loop_
_space_group_symop_operation_xyz
x,y,z
-y,x-y,z
-x+y,-x,z
x-y,-y,1/2-z
-x,-x+y,1/2-z
y,x,1/2-z
-x,-y,-z
y,-x+y,-z
x-y,x,-z
-x+y,y,1/2+z
x,x-y,1/2+z
-y,-x,1/2+z
2/3+x,1/3+y,1/3+z
2/3-y,1/3+x-y,1/3+z
2/3-x+y,1/3-x,1/3+z
2/3+x-y,1/3-y,5/6-z
2/3-x,1/3-x+y,5/6-z
2/3+y,1/3+x,5/6-z
2/3-x,1/3-y,1/3-z
2/3+y,1/3-x+y,1/3-z
2/3+x-y,1/3+x,1/3-z
2/3-x+y,1/3+y,5/6+z
2/3+x,1/3+x-y,5/6+z
2/3-y,1/3-x,5/6+z
1/3+x,2/3+y,2/3+z
1/3-y,2/3+x-y,2/3+z
1/3-x+y,2/3-x,2/3+z
1/3+x-y,2/3-y,1/6-z
1/3-x,2/3-x+y,1/6-z
1/3+y,2/3+x,1/6-z
1/3-x,2/3-y,2/3-z
1/3+y,2/3-x+y,2/3-z
1/3+x-y,2/3+x,2/3-z
1/3-x+y,2/3+y,1/6+z
1/3+x,2/3+x-y,1/6+z
1/3-y,2/3-x,1/6+z
loop_
_atom_site_type_symbol
_atom_site_label
_atom_site_fract_x
_atom_site_fract_y
_atom_site_fract_z
Si Si1 0.618238 0.645917 0.673100
Si Si2 0.851149 0.409561 0.424557
Si Si3 0.424151 0.016379 0.445005
Si Si4 0.869457 0.472310 0.303085
Si Si5 0.196274 0.167568 0.189061
Si Si6 0.258451 0.056251 0.912444
O O1 0.651253 0.711930 0.714575
O O2 0.674836 0.624622 0.679670
O O3 0.543178 0.602953 0.698786
O O4 0.601925 0.665757 0.611181
O O5 0.928033 0.429285 0.437985
O O6 0.848729 0.452019 0.369937
O O7 0.814991 0.332277 0.402387
O O8 0.831748 0.434040 0.482897
O O9 0.409165 0.942919 0.463371
O O10 0.880907 0.413429 0.280417
O O11 0.160463 0.160463 0.250000
O O12 0.193983 0.223954 0.148897
O O13 0.333334 0.118625 0.916667
#
# Coordination Sequence:
#
# PCOD9579453 Si02
#       6
#    36  36  36  36  36  36
#     4  10  19  37  63  95 134 170 217 275 333 413
#     4  11  23  40  66  96 137 177 227 293 336 412
#     4  10  19  37  58  94 138 173 215 266 336 426
#     4  11  22  40  64 101 130 170 233 286 345 392
#     4  12  23  41  64  91 137 185 230 271 342 423
#     4  12  22  38  67  97 130 181 224 278 346 411
#
# _framework density 20.548228999999999
#
# number of rings (size 3 to 8) (size 9 to 14) (size 15 to 20)
#    0.000    1.000    8.333    0.500    4.667    0.000 
#    0.000    0.833    7.333    6.000    0.000    0.000 
#    0.000    0.000    0.000    0.000    0.000    0.000 
#
# Total GULP energy -401162.096224 kJ/mol
# GULP energy per Si atom -5571.695781 kJ/mol
# Density = 2.050146 g / cm^3
# Si number density = 20.548229 Si / 1000 Ang^3
#
#
#
# Elastic Constant Matrix: (Units=GPa)
#
#
# Indices 1 2 3 4 5 6 
#
# 1 68.1145 26.5018 29.8760 -0.2003 -0.0001 0.0000
# 2 26.5018 68.1145 29.8760 0.2003 0.0001 0.0000
# 3 29.8760 29.8760 132.7355 0.0000 0.0000 0.0000
# 4 -0.2003 0.2003 0.0000 30.3092 0.0000 0.0001
# 5 -0.0001 0.0001 0.0000 0.0000 30.3092 -0.2003
# 6 0.0000 0.0000 0.0000 0.0001 -0.2003 20.8063
#
#
#
# Elastic Compliance Matrix: (Units=1/GPa)
#
#
# Indices 1 2 3 4 5 6 
#
# 1 0.018176 -0.005856 -0.002773 0.000159 0.000000 0.000000
# 2 -0.005856 0.018176 -0.002773 -0.000159 0.000000 0.000000
# 3 -0.002773 -0.002773 0.008782 0.000000 0.000000 0.000000
# 4 0.000159 -0.000159 0.000000 0.032995 0.000000 0.000000
# 5 0.000000 0.000000 0.000000 0.000000 0.032995 0.000318
# 6 0.000000 0.000000 0.000000 0.000000 0.000318 0.048065
#
#
# Mechanical properties :
#
#
# Convention : Reuss Voigt Hill
#
# Bulk Modulus (GPa) = 44.78198 49.05247 46.91723
# Shear Modulus (GPa) = 26.39371 28.46567 27.42969
#
# Velocity S-wave (km/s) = 3.58785 3.72601 3.65758
# Velocity P-wave (km/s) = 6.24535 6.51418 6.38118
#
# Compressibility (1/GPa) = 0.02233041
#
# Stress axis : x y z
#
# Youngs Moduli (GPa) = 55.01626 55.01626 113.86819
#
# Poissons Ratio (x) = 0.32219 0.31576
# Poissons Ratio (y) = 0.32219 0.31576
# Poissons Ratio (z) = 0.15256 0.15256
#
# Static dielectric constant tensor:
#      x y z
#    x 1.779770 0.000000 0.000000 
#    y 0.000000 1.779770 0.000000 
#    z 0.000000 0.000000 1.796090 
# 
# From -- ./inp_files/5518.got.cif
#   From: 2010.05.17/outbox.cif.g08.bks.cpg/sg167_3_cif.got.tgz:5518.got - 2010.05.20 11:09:15.
