data_PCOD9579514
_publ_section_title
;
Structure prediction by ZEFSAII (Michael W. Deem and Ramdas Pophale) SiO2 
 PCOD9579514
Probable space group: R -3 C 
;
_chemical_formula_sum "Si O2"
_cell_formula_units_Z 162
_cell_length_a 21.115232
_cell_length_b 21.115232
_cell_length_c 18.515287
_cell_angle_alpha 90.000000
_cell_angle_beta 90.000000
_cell_angle_gamma 120.000000
_cell_volume 7149.123427
_symmetry_space_group_name_H-M "R -3 C "
_symmetry_group_IT_number 167
_symmetry_cell_setting 'hexagonal'
loop_
_space_group_symop_operation_xyz
x,y,z
-y,x-y,z
-x+y,-x,z
x-y,-y,1/2-z
-x,-x+y,1/2-z
y,x,1/2-z
-x,-y,-z
y,-x+y,-z
x-y,x,-z
-x+y,y,1/2+z
x,x-y,1/2+z
-y,-x,1/2+z
2/3+x,1/3+y,1/3+z
2/3-y,1/3+x-y,1/3+z
2/3-x+y,1/3-x,1/3+z
2/3+x-y,1/3-y,5/6-z
2/3-x,1/3-x+y,5/6-z
2/3+y,1/3+x,5/6-z
2/3-x,1/3-y,1/3-z
2/3+y,1/3-x+y,1/3-z
2/3+x-y,1/3+x,1/3-z
2/3-x+y,1/3+y,5/6+z
2/3+x,1/3+x-y,5/6+z
2/3-y,1/3-x,5/6+z
1/3+x,2/3+y,2/3+z
1/3-y,2/3+x-y,2/3+z
1/3-x+y,2/3-x,2/3+z
1/3+x-y,2/3-y,1/6-z
1/3-x,2/3-x+y,1/6-z
1/3+y,2/3+x,1/6-z
1/3-x,2/3-y,2/3-z
1/3+y,2/3-x+y,2/3-z
1/3+x-y,2/3+x,2/3-z
1/3-x+y,2/3+y,1/6+z
1/3+x,2/3+x-y,1/6+z
1/3-y,2/3-x,1/6+z
loop_
_atom_site_type_symbol
_atom_site_label
_atom_site_fract_x
_atom_site_fract_y
_atom_site_fract_z
Si Si1 0.747845 0.081179 0.916667
Si Si2 0.241912 0.848926 0.362781
Si Si3 0.936897 0.652496 0.493712
Si Si4 0.404076 0.553618 0.237194
Si Si5 0.938603 0.097815 0.592016
O O1 0.680531 0.048929 0.858518
O O2 0.749977 0.156925 0.939333
O O3 0.166667 0.833334 0.333334
O O4 0.457520 0.041765 0.111078
O O5 0.251715 0.782730 0.336643
O O6 0.302011 0.917454 0.317779
O O7 0.914079 0.666667 0.416667
O O8 0.323082 0.543085 0.250202
O O9 0.452562 0.639501 0.257109
O O10 0.415718 0.546026 0.151112
#
# Coordination Sequence:
#
# PCOD9579514 Si02
#       5
#    18  36  36  36  36
#     4  10  20  40  62 104 136 186 240 300 358 428
#     4  10  21  40  68  95 136 177 226 292 352 427
#     4  10  22  42  64  93 140 188 230 293 370 437
#     4  10  21  38  67 105 146 193 247 300 367 434
#     4  10  20  40  65 103 146 193 241 300 360 442
#
# _framework density 22.660121
#
# number of rings (size 3 to 8) (size 9 to 14) (size 15 to 20)
#    0.000    2.222    0.000    4.444    0.000    3.556 
#   34.000    0.000    4.889    0.000    0.000    0.000 
#    0.000    0.000    0.000    0.000    0.000    0.000 
#
# Total GULP energy -300657.698369 kJ/mol
# GULP energy per Si atom -5567.735155 kJ/mol
# Density = 2.260855 g / cm^3
# Si number density = 22.660121 Si / 1000 Ang^3
#
#
#
# Elastic Constant Matrix: (Units=GPa)
#
#
# Indices 1 2 3 4 5 6 
#
# 1 94.5357 28.2275 45.7933 3.5359 -0.0002 0.0000
# 2 28.2275 94.5357 45.7933 -3.5359 0.0002 0.0000
# 3 45.7933 45.7933 154.6634 0.0000 0.0000 0.0000
# 4 3.5359 -3.5359 0.0000 17.9198 0.0000 0.0002
# 5 -0.0002 0.0002 0.0000 0.0000 17.9198 3.5359
# 6 0.0000 0.0000 0.0000 0.0002 3.5359 33.1541
#
#
#
# Elastic Compliance Matrix: (Units=1/GPa)
#
#
# Indices 1 2 3 4 5 6 
#
# 1 0.012930 -0.002475 -0.003096 -0.003040 0.000000 0.000000
# 2 -0.002475 0.012930 -0.003096 0.003040 0.000000 0.000000
# 3 -0.003096 -0.003096 0.008299 0.000000 0.000000 0.000000
# 4 -0.003040 0.003040 0.000000 0.057004 0.000000 0.000000
# 5 0.000000 0.000000 0.000000 0.000000 0.057004 -0.006079
# 6 0.000000 0.000000 0.000000 0.000000 -0.006079 0.030811
#
#
# Mechanical properties :
#
#
# Convention : Reuss Voigt Hill
#
# Bulk Modulus (GPa) = 59.42916 64.81809 62.12362
# Shear Modulus (GPa) = 24.76241 28.72678 26.74459
#
# Velocity S-wave (km/s) = 3.30930 3.56437 3.43920
# Velocity P-wave (km/s) = 6.39415 6.75324 6.57615
#
# Compressibility (1/GPa) = 0.01682676
#
# Stress axis : x y z
#
# Youngs Moduli (GPa) = 77.33798 77.33798 120.49966
#
# Poissons Ratio (x) = 0.19141 0.37302
# Poissons Ratio (y) = 0.19141 0.37302
# Poissons Ratio (z) = 0.23941 0.23941
#
# Static dielectric constant tensor:
#      x y z
#    x 1.876220 0.000000 0.000000 
#    y 0.000000 1.876220 0.000000 
#    z 0.000000 0.000000 1.894660 
# 
# From -- ./inp_files/5322.got.cif
#   From: 2010.05.17/outbox.cif.g08.bks.cpg/sg167_3_cif.got.tgz:5322.got - 2010.05.20 11:09:15.
