data_PCOD9579932
_publ_section_title
;
Structure prediction by ZEFSAII (Michael W. Deem and Ramdas Pophale) SiO2 
 PCOD9579932
Probable space group: P 61
;
_chemical_formula_sum "Si O2"
_cell_formula_units_Z 48
_cell_length_a 13.454939
_cell_length_b 13.454939
_cell_length_c 15.891683
_cell_angle_alpha 90.000000
_cell_angle_beta 90.000000
_cell_angle_gamma 120.000000
_cell_volume 2491.517784
_symmetry_space_group_name_H-M "P 61"
_symmetry_group_IT_number 169
_symmetry_cell_setting 'hexagonal'
loop_
_space_group_symop_operation_xyz
x,y,z
x-y,x,1/6+z
-y,x-y,1/3+z
-x,-y,1/2+z
-x+y,-x,2/3+z
y,-x+y,5/6+z
loop_
_atom_site_type_symbol
_atom_site_label
_atom_site_fract_x
_atom_site_fract_y
_atom_site_fract_z
Si Si1 0.357152 0.820212 0.719930
Si Si2 0.965076 0.100146 0.158945
Si Si3 0.238713 0.649298 0.379697
Si Si4 0.295129 0.388817 0.016280
Si Si5 0.594449 0.528836 0.336186
Si Si6 0.621789 0.724220 0.059560
Si Si7 0.531289 0.070580 0.391674
Si Si8 0.232405 0.264037 0.718167
O O1 0.368143 0.712497 0.693310
O O2 0.225366 0.788869 0.708395
O O3 0.390787 0.848807 0.817090
O O4 0.445248 0.936125 0.671518
O O5 0.969676 0.222365 0.166330
O O6 0.952934 0.055695 0.256087
O O7 0.845802 0.016924 0.110896
O O8 0.166085 0.580412 0.461911
O O9 0.287838 0.784375 0.396537
O O10 0.147527 0.604530 0.304484
O O11 0.404899 0.425458 0.076142
O O12 0.354525 0.451052 0.929007
O O13 0.688459 0.629841 0.278132
O O14 0.601032 0.601777 0.029628
O O15 0.702443 0.844476 0.011769
O O16 0.685607 0.745171 0.149532
#
# Coordination Sequence:
#
# PCOD9579932 Si02
#       8
#     6   6   6   6   6   6   6   6
#     4  11  24  36  62  93 123 167 207 254 315 387
#     4  12  21  37  65  96 126 165 223 282 331 382
#     4  11  24  38  63  88 131 168 203 259 316 383
#     4  11  21  40  62  94 128 161 208 273 324 385
#     4  10  21  37  61  94 123 157 211 260 323 381
#     4  11  20  36  59  95 125 161 206 266 318 383
#     4  11  24  39  57  93 125 167 208 249 329 386
#     4  11  19  33  65  95 123 160 204 269 326 371
#
# _framework density 19.265364999999999
#
# number of rings (size 3 to 8) (size 9 to 14) (size 15 to 20)
#    0.000    1.000    7.500    1.500    1.750    1.000 
#    0.000    0.000    2.750    0.000    0.000    0.000 
#    0.000    0.000    0.000    0.000    0.000    0.000 
#
# Total GULP energy -267625.050689 kJ/mol
# GULP energy per Si atom -5575.521889 kJ/mol
# Density = 1.922152 g / cm^3
# Si number density = 19.265365 Si / 1000 Ang^3
#
#
#
# Elastic Constant Matrix: (Units=GPa)
#
#
# Indices 1 2 3 4 5 6 
#
# 1 80.7269 25.5367 26.0849 0.0000 0.0000 0.0000
# 2 25.5367 80.7269 26.0849 0.0000 0.0000 0.0000
# 3 26.0849 26.0849 64.5876 0.0000 0.0000 0.0000
# 4 0.0000 0.0000 0.0000 28.0404 0.0000 0.0000
# 5 0.0000 0.0000 0.0000 0.0000 28.0404 0.0000
# 6 0.0000 0.0000 0.0000 0.0000 0.0000 27.5951
#
#
#
# Elastic Compliance Matrix: (Units=1/GPa)
#
#
# Indices 1 2 3 4 5 6 
#
# 1 0.014929 -0.003191 -0.004741 0.000000 0.000000 0.000000
# 2 -0.003191 0.014929 -0.004741 0.000000 0.000000 0.000000
# 3 -0.004741 -0.004741 0.019312 0.000000 0.000000 0.000000
# 4 0.000000 0.000000 0.000000 0.035663 0.000000 0.000000
# 5 0.000000 0.000000 0.000000 0.000000 0.035663 0.000000
# 6 0.000000 0.000000 0.000000 0.000000 0.000000 0.036238
#
#
# Mechanical properties :
#
#
# Convention : Reuss Voigt Hill
#
# Bulk Modulus (GPa) = 41.97179 42.38383 42.17781
# Shear Modulus (GPa) = 26.31320 26.62413 26.46867
#
# Velocity S-wave (km/s) = 3.69972 3.72152 3.71064
# Velocity P-wave (km/s) = 6.33119 6.36506 6.34815
#
# Compressibility (1/GPa) = 0.02382553
#
# Stress axis : x y z
#
# Youngs Moduli (GPa) = 66.98568 66.98568 51.78125
#
# Poissons Ratio (x) = 0.21373 0.24547
# Poissons Ratio (y) = 0.21373 0.24547
# Poissons Ratio (z) = 0.31755 0.31755
#
# Static dielectric constant tensor:
#      x y z
#    x 1.716820 0.000000 0.000000 
#    y 0.000000 1.716820 0.000000 
#    z 0.000000 0.000000 1.685700 
# 
# From -- ./inp_files/1249.got.cif
#   From: 2010.05.17/outbox.cif.g08.bks.cpg/sg169_cif.got.tgz:1249.got - 2010.05.20 11:12:54.
