data_PCOD9579717
_publ_section_title
;
Structure prediction by ZEFSAII (Michael W. Deem and Ramdas Pophale) SiO2 
 PCOD9579717
Probable space group: R -3 C 
;
_chemical_formula_sum "Si O2"
_cell_formula_units_Z 168
_cell_length_a 16.592008
_cell_length_b 16.592008
_cell_length_c 31.315227
_cell_angle_alpha 90.000000
_cell_angle_beta 90.000000
_cell_angle_gamma 120.000000
_cell_volume 7465.933079
_symmetry_space_group_name_H-M "R -3 C "
_symmetry_group_IT_number 167
_symmetry_cell_setting 'hexagonal'
loop_
_space_group_symop_operation_xyz
x,y,z
-y,x-y,z
-x+y,-x,z
x-y,-y,1/2-z
-x,-x+y,1/2-z
y,x,1/2-z
-x,-y,-z
y,-x+y,-z
x-y,x,-z
-x+y,y,1/2+z
x,x-y,1/2+z
-y,-x,1/2+z
2/3+x,1/3+y,1/3+z
2/3-y,1/3+x-y,1/3+z
2/3-x+y,1/3-x,1/3+z
2/3+x-y,1/3-y,5/6-z
2/3-x,1/3-x+y,5/6-z
2/3+y,1/3+x,5/6-z
2/3-x,1/3-y,1/3-z
2/3+y,1/3-x+y,1/3-z
2/3+x-y,1/3+x,1/3-z
2/3-x+y,1/3+y,5/6+z
2/3+x,1/3+x-y,5/6+z
2/3-y,1/3-x,5/6+z
1/3+x,2/3+y,2/3+z
1/3-y,2/3+x-y,2/3+z
1/3-x+y,2/3-x,2/3+z
1/3+x-y,2/3-y,1/6-z
1/3-x,2/3-x+y,1/6-z
1/3+y,2/3+x,1/6-z
1/3-x,2/3-y,2/3-z
1/3+y,2/3-x+y,2/3-z
1/3+x-y,2/3+x,2/3-z
1/3-x+y,2/3+y,1/6+z
1/3+x,2/3+x-y,1/6+z
1/3-y,2/3-x,1/6+z
loop_
_atom_site_type_symbol
_atom_site_label
_atom_site_fract_x
_atom_site_fract_y
_atom_site_fract_z
Si Si1 0.666667 0.718521 0.583334
Si Si2 0.666668 0.333334 0.751659
Si Si3 0.883240 0.074441 0.787408
Si Si4 0.000000 0.000000 0.819100
Si Si5 0.791302 0.280374 0.861113
Si Si6 0.275404 0.362099 0.337678
Si Si7 0.000000 0.727995 0.250000
O O1 0.601517 0.739491 0.613538
O O2 0.718202 0.688865 0.619008
O O3 0.666668 0.333334 0.702093
O O4 0.602110 0.370040 0.770400
O O5 0.914437 0.174451 0.767926
O O6 0.843462 0.000000 0.750000
O O7 0.802994 0.023015 0.822420
O O8 0.977003 0.077689 0.803123
O O9 0.712521 0.200061 0.831145
O O10 0.166667 0.333334 0.333334
O O11 0.300211 0.332631 0.292710
#
# Coordination Sequence:
#
# PCOD9579717 Si02
#       7
#    18  12  36  12  36  36  18
#     4  12  26  44  70 112 140 190 244 294 362 445
#     4   9  22  44  76  99 136 191 238 301 359 415
#     4  12  22  44  72 103 139 182 240 297 350 427
#     4  12  22  38  76 114 124 179 259 298 335 433
#     4   9  22  49  72  99 142 186 241 302 354 429
#     4  12  26  47  69 102 151 191 229 296 374 427
#     4  12  26  48  74 104 148 190 236 304 366 425
#
# _framework density 22.502212
#
# number of rings (size 3 to 8) (size 9 to 14) (size 15 to 20)
#    0.000    0.857    5.357    0.857    6.000    3.429 
#    3.857    1.071    0.000    0.000    0.000    0.000 
#    0.000    0.000    0.000    0.000    0.000    0.000 
#
# Total GULP energy -312920.664881 kJ/mol
# GULP energy per Si atom -5587.869016 kJ/mol
# Density = 2.245100 g / cm^3
# Si number density = 22.502212 Si / 1000 Ang^3
#
#
#
# Elastic Constant Matrix: (Units=GPa)
#
#
# Indices 1 2 3 4 5 6 
#
# 1 90.3690 40.9984 56.6256 34.2343 0.0010 0.0000
# 2 40.9984 90.3514 56.6217 -34.2125 -0.0010 0.0000
# 3 56.6256 56.6217 184.2599 0.0040 0.0000 0.0000
# 4 34.2343 -34.2125 0.0040 146.4009 0.0000 -0.0010
# 5 0.0010 -0.0010 0.0000 0.0000 146.1645 34.1309
# 6 0.0000 0.0000 0.0000 -0.0010 34.1309 24.6456
#
#
#
# Elastic Compliance Matrix: (Units=1/GPa)
#
#
# Indices 1 2 3 4 5 6 
#
# 1 0.020165 -0.009809 -0.003182 -0.007008 0.000000 0.000000
# 2 -0.009809 0.020167 -0.003183 0.007007 0.000000 0.000000
# 3 -0.003182 -0.003183 0.007383 0.000000 0.000000 0.000000
# 4 -0.007008 0.007007 0.000000 0.010107 0.000000 0.000000
# 5 0.000000 0.000000 0.000000 0.000000 0.010111 -0.014003
# 6 0.000000 0.000000 0.000000 0.000000 -0.014003 0.059968
#
#
# Mechanical properties :
#
#
# Convention : Reuss Voigt Hill
#
# Bulk Modulus (GPa) = 65.07939 74.83020 69.95479
# Shear Modulus (GPa) = 30.23510 77.49117 53.86313
#
# Velocity S-wave (km/s) = 3.66956 5.87468 4.89783
# Velocity P-wave (km/s) = 6.85116 8.90745 7.94610
#
# Compressibility (1/GPa) = 0.01536585
#
# Stress axis : x y z
#
# Youngs Moduli (GPa) = 49.59162 49.58686 135.44336
#
# Poissons Ratio (x) = 0.48640 0.43104
# Poissons Ratio (y) = 0.48645 0.43108
# Poissons Ratio (z) = 0.15782 0.15782
#
# Static dielectric constant tensor:
#      x y z
#    x 1.874240 0.000000 0.000000 
#    y 0.000000 1.874250 0.000000 
#    z 0.000000 0.000000 1.819030 
# 
# From -- ./inp_files/7002.got.cif
#   From: 2010.05.17/outbox.cif.g08.bks.cpg/sg167_4_cif.got.tgz:7002.got - 2010.05.20 11:09:15.
