data_PCOD9579504
_publ_section_title
;
Structure prediction by ZEFSAII (Michael W. Deem and Ramdas Pophale) SiO2 
 PCOD9579504
Probable space group: R -3 C 
;
_chemical_formula_sum "Si O2"
_cell_formula_units_Z 204
_cell_length_a 18.895548
_cell_length_b 18.895548
_cell_length_c 32.600344
_cell_angle_alpha 90.000000
_cell_angle_beta 90.000000
_cell_angle_gamma 120.000000
_cell_volume 10080.261480
_symmetry_space_group_name_H-M "R -3 C "
_symmetry_group_IT_number 167
_symmetry_cell_setting 'hexagonal'
loop_
_space_group_symop_operation_xyz
x,y,z
-y,x-y,z
-x+y,-x,z
x-y,-y,1/2-z
-x,-x+y,1/2-z
y,x,1/2-z
-x,-y,-z
y,-x+y,-z
x-y,x,-z
-x+y,y,1/2+z
x,x-y,1/2+z
-y,-x,1/2+z
2/3+x,1/3+y,1/3+z
2/3-y,1/3+x-y,1/3+z
2/3-x+y,1/3-x,1/3+z
2/3+x-y,1/3-y,5/6-z
2/3-x,1/3-x+y,5/6-z
2/3+y,1/3+x,5/6-z
2/3-x,1/3-y,1/3-z
2/3+y,1/3-x+y,1/3-z
2/3+x-y,1/3+x,1/3-z
2/3-x+y,1/3+y,5/6+z
2/3+x,1/3+x-y,5/6+z
2/3-y,1/3-x,5/6+z
1/3+x,2/3+y,2/3+z
1/3-y,2/3+x-y,2/3+z
1/3-x+y,2/3-x,2/3+z
1/3+x-y,2/3-y,1/6-z
1/3-x,2/3-x+y,1/6-z
1/3+y,2/3+x,1/6-z
1/3-x,2/3-y,2/3-z
1/3+y,2/3-x+y,2/3-z
1/3+x-y,2/3+x,2/3-z
1/3-x+y,2/3+y,1/6+z
1/3+x,2/3+x-y,1/6+z
1/3-y,2/3-x,1/6+z
loop_
_atom_site_type_symbol
_atom_site_label
_atom_site_fract_x
_atom_site_fract_y
_atom_site_fract_z
Si Si1 0.171843 0.413620 0.670589
Si Si2 0.665335 0.623577 0.036711
Si Si3 0.983837 0.845337 0.062564
Si Si4 0.000000 0.000000 0.301319
Si Si5 0.380120 0.247884 0.960836
Si Si6 0.666667 0.333334 0.285182
Si Si7 0.476220 0.824729 0.817853
O O1 0.087661 0.367313 0.694299
O O2 0.240585 0.483546 0.698787
O O3 0.154819 0.445344 0.627927
O O4 0.203465 0.351445 0.660289
O O5 0.666667 0.600320 0.083334
O O6 0.605203 0.661083 0.031882
O O7 0.659520 0.551219 0.009234
O O8 0.032970 0.943092 0.063856
O O9 0.962353 0.823456 0.109465
O O10 0.081333 0.078069 0.321335
O O11 0.000000 0.000000 0.250000
O O12 0.333334 0.218693 0.916667
O O13 0.456531 0.233241 0.968170
O O14 0.666668 0.333335 0.333334
#
# Coordination Sequence:
#
# PCOD9579504 Si02
#       7
#    36  36  36  12  36  12  36
#     4  11  20  35  60  93 134 176 201 260 329 405
#     4  10  23  41  62  91 130 174 222 270 331 386
#     4  12  21  36  58  95 130 164 210 255 334 396
#     4  12  28  53  73  88 125 181 240 292 329 376
#     4  10  20  38  64  95 132 170 209 261 331 405
#     4  12  22  29  52  90 133 149 193 253 314 409
#     4  11  25  43  70  95 127 170 229 276 331 389
#
# _framework density 20.237570000000002
#
# number of rings (size 3 to 8) (size 9 to 14) (size 15 to 20)
#    0.000    1.059    5.294    1.588    0.000    2.824 
#    0.000    7.059    0.000    0.000    0.000    0.000 
#    0.000    0.000    0.000    0.000    0.000    0.000 
#
# Total GULP energy -378951.618859 kJ/mol
# GULP energy per Si atom -5572.817924 kJ/mol
# Density = 2.019151 g / cm^3
# Si number density = 20.237570 Si / 1000 Ang^3
#
#
#
# Elastic Constant Matrix: (Units=GPa)
#
#
# Indices 1 2 3 4 5 6 
#
# 1 39.9808 -3.6808 24.0878 5.5316 0.0000 0.0000
# 2 -3.6808 39.9802 24.0880 -5.5320 0.0000 0.0000
# 3 24.0878 24.0880 133.8325 0.0001 0.0000 0.0000
# 4 5.5316 -5.5320 0.0001 26.6834 0.0000 0.0000
# 5 0.0000 0.0000 0.0000 0.0000 26.6829 5.5321
# 6 0.0000 0.0000 0.0000 0.0000 5.5321 21.8304
#
#
#
# Elastic Compliance Matrix: (Units=1/GPa)
#
#
# Indices 1 2 3 4 5 6 
#
# 1 0.030183 0.006010 -0.006514 -0.005011 0.000000 0.000000
# 2 0.006010 0.030184 -0.006515 0.005012 0.000000 0.000000
# 3 -0.006514 -0.006515 0.009817 0.000000 0.000000 0.000000
# 4 -0.005011 0.005012 0.000000 0.039554 0.000000 0.000000
# 5 0.000000 0.000000 0.000000 0.000000 0.039555 -0.010024
# 6 0.000000 0.000000 0.000000 0.000000 -0.010024 0.048348
#
#
# Mechanical properties :
#
#
# Convention : Reuss Voigt Hill
#
# Bulk Modulus (GPa) = 17.81018 33.64262 25.72640
# Shear Modulus (GPa) = 21.70184 26.32591 24.01387
#
# Velocity S-wave (km/s) = 3.27823 3.61063 3.44844
# Velocity P-wave (km/s) = 4.81131 5.83457 5.34747
#
# Compressibility (1/GPa) = 0.05614765
#
# Stress axis : x y z
#
# Youngs Moduli (GPa) = 33.13071 33.12992 101.86385
#
# Poissons Ratio (x) = -0.19912 0.66357
# Poissons Ratio (y) = -0.19913 0.66359
# Poissons Ratio (z) = 0.21582 0.21583
#
# Static dielectric constant tensor:
#      x y z
#    x 1.756610 0.000000 0.000000 
#    y 0.000000 1.756610 0.000000 
#    z 0.000000 0.000000 1.837580 
# 
# From -- ./inp_files/6310.got.cif
#   From: 2010.05.17/outbox.cif.g08.bks.cpg/sg167_4_cif.got.tgz:6310.got - 2010.05.20 11:09:15.
