data_PCOD9579612
_publ_section_title
;
Structure prediction by ZEFSAII (Michael W. Deem and Ramdas Pophale) SiO2 
 PCOD9579612
Probable space group: R -3 C 
;
_chemical_formula_sum "Si O2"
_cell_formula_units_Z 102
_cell_length_a 17.892642
_cell_length_b 17.892642
_cell_length_c 14.033611
_cell_angle_alpha 90.000000
_cell_angle_beta 90.000000
_cell_angle_gamma 120.000000
_cell_volume 3890.890519
_symmetry_space_group_name_H-M "R -3 C "
_symmetry_group_IT_number 167
_symmetry_cell_setting 'hexagonal'
loop_
_space_group_symop_operation_xyz
x,y,z
-y,x-y,z
-x+y,-x,z
x-y,-y,1/2-z
-x,-x+y,1/2-z
y,x,1/2-z
-x,-y,-z
y,-x+y,-z
x-y,x,-z
-x+y,y,1/2+z
x,x-y,1/2+z
-y,-x,1/2+z
2/3+x,1/3+y,1/3+z
2/3-y,1/3+x-y,1/3+z
2/3-x+y,1/3-x,1/3+z
2/3+x-y,1/3-y,5/6-z
2/3-x,1/3-x+y,5/6-z
2/3+y,1/3+x,5/6-z
2/3-x,1/3-y,1/3-z
2/3+y,1/3-x+y,1/3-z
2/3+x-y,1/3+x,1/3-z
2/3-x+y,1/3+y,5/6+z
2/3+x,1/3+x-y,5/6+z
2/3-y,1/3-x,5/6+z
1/3+x,2/3+y,2/3+z
1/3-y,2/3+x-y,2/3+z
1/3-x+y,2/3-x,2/3+z
1/3+x-y,2/3-y,1/6-z
1/3-x,2/3-x+y,1/6-z
1/3+y,2/3+x,1/6-z
1/3-x,2/3-y,2/3-z
1/3+y,2/3-x+y,2/3-z
1/3+x-y,2/3+x,2/3-z
1/3-x+y,2/3+y,1/6+z
1/3+x,2/3+x-y,1/6+z
1/3-y,2/3-x,1/6+z
loop_
_atom_site_type_symbol
_atom_site_label
_atom_site_fract_x
_atom_site_fract_y
_atom_site_fract_z
Si Si1 0.726042 0.886450 0.470123
Si Si2 0.333334 0.666668 0.280749
Si Si3 0.054926 0.721593 0.083334
Si Si4 0.164179 0.007311 0.356116
O O1 0.669963 0.782623 0.493711
O O2 0.800627 0.885575 0.407190
O O3 0.710164 0.959299 0.420877
O O4 0.761152 0.930483 0.573107
O O5 0.333335 0.666668 0.166667
O O6 0.236439 0.625648 0.315757
O O7 0.189888 0.000000 0.250000
#
# Coordination Sequence:
#
# PCOD9579612 Si02
#       4
#    36  12  18  36
#     4  10  22  45  69 103 157 192 258 316 384 462
#     4  12  16  29  55  94 137 172 229 311 367 436
#     4  10  22  46  74 106 154 210 240 332 382 458
#     4  11  21  37  66 100 140 196 246 312 381 453
#
# _framework density 26.215077000000001
#
# number of rings (size 3 to 8) (size 9 to 14) (size 15 to 20)
#    0.000    1.412    3.529    3.176    0.000    0.000 
#    9.529    3.529    7.765    0.000    0.000    0.000 
#    0.000    0.000    0.000    0.000    0.000    0.000 
#
# Total GULP energy -189853.050831 kJ/mol
# GULP energy per Si atom -5583.913260 kJ/mol
# Density = 2.615541 g / cm^3
# Si number density = 26.215077 Si / 1000 Ang^3
#
#
#
# Elastic Constant Matrix: (Units=GPa)
#
#
# Indices 1 2 3 4 5 6 
#
# 1 136.9281 43.9879 30.4254 -2.0541 0.0000 0.0000
# 2 43.9879 136.9314 30.4253 2.0550 0.0000 0.0000
# 3 30.4254 30.4253 166.6189 0.0001 0.0000 0.0000
# 4 -2.0541 2.0550 0.0001 6.4746 0.0000 0.0000
# 5 0.0000 0.0000 0.0000 0.0000 6.4723 -2.0551
# 6 0.0000 0.0000 0.0000 0.0000 -2.0551 46.4709
#
#
#
# Elastic Compliance Matrix: (Units=1/GPa)
#
#
# Indices 1 2 3 4 5 6 
#
# 1 0.008401 -0.002512 -0.001075 0.003462 0.000000 0.000000
# 2 -0.002512 0.008401 -0.001075 -0.003463 0.000000 0.000000
# 3 -0.001075 -0.001075 0.006394 0.000000 0.000000 0.000000
# 4 0.003462 -0.003463 0.000000 0.156648 0.000000 0.000000
# 5 0.000000 0.000000 0.000000 0.000000 0.156705 0.006930
# 6 0.000000 0.000000 0.000000 0.000000 0.006930 0.021825
#
#
# Mechanical properties :
#
#
# Convention : Reuss Voigt Hill
#
# Bulk Modulus (GPa) = 72.09226 72.23952 72.16589
# Shear Modulus (GPa) = 13.42923 34.25955 23.84439
#
# Velocity S-wave (km/s) = 2.26580 3.61898 3.01918
# Velocity P-wave (km/s) = 5.86559 6.71409 6.30413
#
# Compressibility (1/GPa) = 0.01387111
#
# Stress axis : x y z
#
# Youngs Moduli (GPa) = 119.03514 119.03772 156.38544
#
# Poissons Ratio (x) = 0.29899 0.16818
# Poissons Ratio (y) = 0.29898 0.16817
# Poissons Ratio (z) = 0.12801 0.12801
#
# Static dielectric constant tensor:
#      x y z
#    x 2.105110 0.000000 0.000000 
#    y 0.000000 2.105090 0.000000 
#    z 0.000000 0.000000 2.196040 
# 
# From -- ./inp_files/2111.got.cif
#   From: 2010.05.17/outbox.cif.g08.bks.cpg/sg167_2_cif.got.tgz:2111.got - 2010.05.20 11:09:15.
