data_PCOD9579269
_publ_section_title
;
Structure prediction by ZEFSAII (Michael W. Deem and Ramdas Pophale) SiO2 
 PCOD9579269
Probable space group: R -3 M
;
_chemical_formula_sum "Si O2"
_cell_formula_units_Z 162
_cell_length_a 21.539331
_cell_length_b 21.539331
_cell_length_c 20.989094
_cell_angle_alpha 90.000000
_cell_angle_beta 90.000000
_cell_angle_gamma 120.000000
_cell_volume 8433.129019
_symmetry_space_group_name_H-M "R -3 M"
_symmetry_group_IT_number 166
_symmetry_cell_setting 'hexagonal'
loop_
_space_group_symop_operation_xyz
x,y,z
-y,x-y,z
-x+y,-x,z
x-y,-y,-z
-x,-x+y,-z
y,x,-z
-x,-y,-z
y,-x+y,-z
x-y,x,-z
-x+y,y,z
x,x-y,z
-y,-x,z
2/3+x,1/3+y,1/3+z
2/3-y,1/3+x-y,1/3+z
2/3-x+y,1/3-x,1/3+z
2/3+x-y,1/3-y,1/3-z
2/3-x,1/3-x+y,1/3-z
2/3+y,1/3+x,1/3-z
2/3-x,1/3-y,1/3-z
2/3+y,1/3-x+y,1/3-z
2/3+x-y,1/3+x,1/3-z
2/3-x+y,1/3+y,1/3+z
2/3+x,1/3+x-y,1/3+z
2/3-y,1/3-x,1/3+z
1/3+x,2/3+y,2/3+z
1/3-y,2/3+x-y,2/3+z
1/3-x+y,2/3-x,2/3+z
1/3+x-y,2/3-y,2/3-z
1/3-x,2/3-x+y,2/3-z
1/3+y,2/3+x,2/3-z
1/3-x,2/3-y,2/3-z
1/3+y,2/3-x+y,2/3-z
1/3+x-y,2/3+x,2/3-z
1/3-x+y,2/3+y,2/3+z
1/3+x,2/3+x-y,2/3+z
1/3-y,2/3-x,2/3+z
loop_
_atom_site_type_symbol
_atom_site_label
_atom_site_fract_x
_atom_site_fract_y
_atom_site_fract_z
Si Si1 0.545811 0.603653 0.749929
Si Si2 0.290878 0.218666 0.770933
Si Si3 0.928775 0.393424 0.655827
Si Si4 0.852758 0.000000 0.000000
Si Si5 0.174663 0.207062 0.429366
O O1 0.472525 0.527476 0.752025
O O2 0.573032 0.615827 0.821793
O O3 0.591165 0.590091 0.696759
O O4 0.524096 0.660808 0.726506
O O5 0.267324 0.133662 0.766388
O O6 0.242626 0.241298 0.729992
O O7 0.373853 0.260594 0.750266
O O8 0.938535 0.469268 0.632249
O O9 0.866614 0.360801 0.709131
O O10 0.929510 0.070491 0.002798
O O11 0.192274 0.192274 0.500000
O O12 0.092173 0.184346 0.425240
#
# Coordination Sequence:
#
# PCOD9579269 Si02
#       5
#    36  36  36  18  36
#     4   9  20  37  56  85 120 151 187 243 300 347
#     4  10  21  38  61  89 117 152 201 249 297 357
#     4  11  22  37  58  86 121 159 197 243 302 359
#     4  10  21  38  60  82 113 156 204 248 298 362
#     4  11  21  36  61  90 119 157 202 248 301 363
#
# _framework density 19.209952000000001
#
# number of rings (size 3 to 8) (size 9 to 14) (size 15 to 20)
#    0.000    1.778    2.222    2.111    3.111    2.667 
#    0.000    0.000    0.000   13.111    0.000    0.000 
#    0.000    0.000    0.000    0.000    0.000    0.000 
#
# Total GULP energy -301451.056528 kJ/mol
# GULP energy per Si atom -5582.426973 kJ/mol
# Density = 1.916623 g / cm^3
# Si number density = 19.209952 Si / 1000 Ang^3
#
#
#
# Elastic Constant Matrix: (Units=GPa)
#
#
# Indices 1 2 3 4 5 6 
#
# 1 91.5586 43.9600 40.5264 -0.9322 0.0000 0.0000
# 2 43.9600 91.5586 40.5264 0.9322 0.0000 0.0000
# 3 40.5264 40.5264 71.2837 0.0000 0.0000 0.0000
# 4 -0.9322 0.9322 0.0000 28.0773 0.0000 0.0000
# 5 0.0000 0.0000 0.0000 0.0000 28.0773 -0.9322
# 6 0.0000 0.0000 0.0000 0.0000 -0.9322 23.7993
#
#
#
# Elastic Compliance Matrix: (Units=1/GPa)
#
#
# Indices 1 2 3 4 5 6 
#
# 1 0.016109 -0.004928 -0.006357 0.000698 0.000000 0.000000
# 2 -0.004928 0.016109 -0.006357 -0.000698 0.000000 0.000000
# 3 -0.006357 -0.006357 0.021256 0.000000 0.000000 0.000000
# 4 0.000698 -0.000698 0.000000 0.035662 0.000000 0.000000
# 5 0.000000 0.000000 0.000000 0.000000 0.035662 0.001397
# 6 0.000000 0.000000 0.000000 0.000000 0.001397 0.042073
#
#
# Mechanical properties :
#
#
# Convention : Reuss Voigt Hill
#
# Bulk Modulus (GPa) = 54.97042 56.04740 55.50891
# Shear Modulus (GPa) = 24.01345 24.61666 24.31505
#
# Velocity S-wave (km/s) = 3.53944 3.58362 3.56160
# Velocity P-wave (km/s) = 6.73656 6.80902 6.77289
#
# Compressibility (1/GPa) = 0.01819160
#
# Stress axis : x y z
#
# Youngs Moduli (GPa) = 62.07848 62.07848 47.04513
#
# Poissons Ratio (x) = 0.30591 0.29905
# Poissons Ratio (y) = 0.30591 0.29905
# Poissons Ratio (z) = 0.39461 0.39461
#
# Static dielectric constant tensor:
#      x y z
#    x 1.684800 0.000000 0.000000 
#    y 0.000000 1.684800 0.000000 
#    z 0.000000 0.000000 1.683770 
# 
# From -- ./inp_files/6730.got.cif
#   From: 2010.05.17/outbox.cif.g08.bks.cpg/sg166_4_cif.got.tgz:6730.got - 2010.05.20 11:04:41.
