data_PCOD9579999
_publ_section_title
;
Structure prediction by ZEFSAII (Michael W. Deem and Ramdas Pophale) SiO2 
 PCOD9579999
Probable space group: P 61
;
_chemical_formula_sum "Si O2"
_cell_formula_units_Z 36
_cell_length_a 13.400763
_cell_length_b 13.400763
_cell_length_c 9.970597
_cell_angle_alpha 90.000000
_cell_angle_beta 90.000000
_cell_angle_gamma 120.000000
_cell_volume 1550.639518
_symmetry_space_group_name_H-M "P 61"
_symmetry_group_IT_number 169
_symmetry_cell_setting 'hexagonal'
loop_
_space_group_symop_operation_xyz
x,y,z
x-y,x,1/6+z
-y,x-y,1/3+z
-x,-y,1/2+z
-x+y,-x,2/3+z
y,-x+y,5/6+z
loop_
_atom_site_type_symbol
_atom_site_label
_atom_site_fract_x
_atom_site_fract_y
_atom_site_fract_z
Si Si1 0.653775 0.464707 0.016200
Si Si2 0.378566 0.374248 0.005560
Si Si3 0.620570 0.453644 0.312714
Si Si4 0.356293 0.371259 0.308896
Si Si5 0.986110 0.803966 0.519462
Si Si6 0.920397 0.784463 0.099046
O O1 0.682847 0.505585 0.171237
O O2 0.513720 0.409023 0.014329
O O3 0.718505 0.391194 0.992915
O O4 0.689620 0.558548 0.896539
O O5 0.342346 0.464560 0.942533
O O6 0.322292 0.268065 0.903585
O O7 0.323296 0.346732 0.153824
O O8 0.493723 0.438976 0.301459
O O9 0.322216 0.255179 0.388608
O O10 0.071168 0.838156 0.391237
O O11 0.887437 0.827133 0.471211
O O12 0.046943 0.878771 0.145662
#
# Coordination Sequence:
#
# PCOD9579999 Si02
#       6
#     6   6   6   6   6   6
#     4  10  23  43  68 100 143 186 247 284 363 429
#     4  10  24  45  67 106 144 189 237 305 362 431
#     4  10  23  40  69  99 137 189 237 298 348 433
#     4  10  22  43  67  97 137 184 237 289 358 429
#     4  10  24  45  67 100 139 181 237 295 368 433
#     4  10  22  42  66  96 132 179 227 287 363 433
#
# _framework density 23.216227
#
# number of rings (size 3 to 8) (size 9 to 14) (size 15 to 20)
#    0.000    2.000    0.000    1.000    7.000    6.667 
#   18.000    0.000    0.000    0.000    0.000    0.000 
#    0.000    0.000    0.000    0.000    0.000    0.000 
#
# Total GULP energy -200835.539495 kJ/mol
# GULP energy per Si atom -5578.764986 kJ/mol
# Density = 2.316339 g / cm^3
# Si number density = 23.216227 Si / 1000 Ang^3
#
#
#
# Elastic Constant Matrix: (Units=GPa)
#
#
# Indices 1 2 3 4 5 6 
#
# 1 31.6721 50.3808 19.9099 0.0000 0.0000 0.0000
# 2 50.3808 31.6721 19.9099 0.0000 0.0000 0.0000
# 3 19.9099 19.9099 82.1724 0.0000 0.0000 0.0000
# 4 0.0000 0.0000 0.0000 15.6411 0.0000 0.0000
# 5 0.0000 0.0000 0.0000 0.0000 15.6411 0.0000
# 6 0.0000 0.0000 0.0000 0.0000 0.0000 -9.3543
#
#
#
# Elastic Compliance Matrix: (Units=1/GPa)
#
#
# Indices 1 2 3 4 5 6 
#
# 1 -0.019820 0.033631 -0.003346 0.000000 0.000000 0.000000
# 2 0.033631 -0.019820 -0.003346 0.000000 0.000000 0.000000
# 3 -0.003346 -0.003346 0.013791 0.000000 0.000000 0.000000
# 4 0.000000 0.000000 0.000000 0.063934 0.000000 0.000000
# 5 0.000000 0.000000 0.000000 0.000000 0.063934 0.000000
# 6 0.000000 0.000000 0.000000 0.000000 0.000000 -0.106902
#
#
# Mechanical properties :
#
#
# Convention : Reuss Voigt Hill
#
# Bulk Modulus (GPa) = 35.67848 36.21309 35.94579
# Shear Modulus (GPa) = -101.17939 8.07332 -46.55304
#
# Velocity S-wave (km/s) = -6.60878 1.86681 -4.48280
# Velocity P-wave (km/s) = 6.54472 4.50319 3.35817
#
# Compressibility (1/GPa) = 0.02802810
#
# Stress axis : x y z
#
# Youngs Moduli (GPa) = -50.45424 -50.45424 72.51018
#
# Poissons Ratio (x) = 1.69684 0.24265
# Poissons Ratio (y) = 1.69684 0.24265
# Poissons Ratio (z) = -0.16884 -0.16884
#
# Static dielectric constant tensor:
#      x y z
#    x 1.902360 0.000000 0.000000 
#    y 0.000000 1.902360 0.000000 
#    z 0.000000 0.000000 1.894930 
# 
# From -- ./inp_files/626.got.cif
#   From: 2010.05.17/outbox.cif.g08.bks.cpg/sg169_cif.got.tgz:626.got - 2010.05.20 11:12:54.
