data_PCOD9579328
_publ_section_title
;
Structure prediction by ZEFSAII (Michael W. Deem and Ramdas Pophale) SiO2 
 PCOD9579328
Probable space group: R -3 M
;
_chemical_formula_sum "Si O2"
_cell_formula_units_Z 144
_cell_length_a 30.569013
_cell_length_b 30.569013
_cell_length_c 10.376814
_cell_angle_alpha 90.000000
_cell_angle_beta 90.000000
_cell_angle_gamma 120.000000
_cell_volume 8397.644725
_symmetry_space_group_name_H-M "R -3 M"
_symmetry_group_IT_number 166
_symmetry_cell_setting 'hexagonal'
loop_
_space_group_symop_operation_xyz
x,y,z
-y,x-y,z
-x+y,-x,z
x-y,-y,-z
-x,-x+y,-z
y,x,-z
-x,-y,-z
y,-x+y,-z
x-y,x,-z
-x+y,y,z
x,x-y,z
-y,-x,z
2/3+x,1/3+y,1/3+z
2/3-y,1/3+x-y,1/3+z
2/3-x+y,1/3-x,1/3+z
2/3+x-y,1/3-y,1/3-z
2/3-x,1/3-x+y,1/3-z
2/3+y,1/3+x,1/3-z
2/3-x,1/3-y,1/3-z
2/3+y,1/3-x+y,1/3-z
2/3+x-y,1/3+x,1/3-z
2/3-x+y,1/3+y,1/3+z
2/3+x,1/3+x-y,1/3+z
2/3-y,1/3-x,1/3+z
1/3+x,2/3+y,2/3+z
1/3-y,2/3+x-y,2/3+z
1/3-x+y,2/3-x,2/3+z
1/3+x-y,2/3-y,2/3-z
1/3-x,2/3-x+y,2/3-z
1/3+y,2/3+x,2/3-z
1/3-x,2/3-y,2/3-z
1/3+y,2/3-x+y,2/3-z
1/3+x-y,2/3+x,2/3-z
1/3-x+y,2/3+y,2/3+z
1/3+x,2/3+x-y,2/3+z
1/3-y,2/3-x,2/3+z
loop_
_atom_site_type_symbol
_atom_site_label
_atom_site_fract_x
_atom_site_fract_y
_atom_site_fract_z
Si Si1 0.492460 0.193847 0.952585
Si Si2 0.858012 0.247691 0.526019
Si Si3 0.525485 0.944812 0.159283
Si Si4 0.167415 0.031355 0.875127
O O1 0.494568 0.247284 0.957370
O O2 0.524382 0.191049 0.833334
O O3 0.434374 0.151503 0.918883
O O4 0.514004 0.184292 0.082742
O O5 0.806739 0.193261 0.528347
O O6 0.901012 0.236070 0.476863
O O7 0.866916 0.264542 0.676151
O O8 0.843623 0.283113 0.446149
O O9 0.472466 0.944932 0.160942
O O10 0.162726 0.081363 0.858215
O O11 0.138373 0.000000 0.000000
#
# Coordination Sequence:
#
# PCOD9579328 Si02
#       4
#    36  36  36  36
#     4  11  20  33  55  83 109 141 193 249 292 333
#     4   8  14  28  51  78 105 131 164 210 271 341
#     4   8  14  27  51  81 104 126 163 215 275 339
#     4  11  22  37  55  78 110 152 196 242 291 339
#
# _framework density 17.147663999999999
#
# number of rings (size 3 to 8) (size 9 to 14) (size 15 to 20)
#    0.000    2.500    2.500    3.000    0.000    0.000 
#    0.000    1.250    0.000   19.000    0.000    0.000 
#    0.000    0.000    0.000    0.000    0.000    0.000 
#
# Total GULP energy -267238.472835 kJ/mol
# GULP energy per Si atom -5567.468184 kJ/mol
# Density = 1.710864 g / cm^3
# Si number density = 17.147664 Si / 1000 Ang^3
#
#
#
# Elastic Constant Matrix: (Units=GPa)
#
#
# Indices 1 2 3 4 5 6 
#
# 1 94.8484 48.9519 47.5568 -4.2152 0.0024 0.0013
# 2 48.9519 94.8474 47.5516 4.2165 0.0013 0.0005
# 3 47.5568 47.5516 101.8057 0.0057 0.0148 0.0048
# 4 -4.2152 4.2165 0.0057 18.3722 0.0017 -0.0009
# 5 0.0024 0.0013 0.0148 0.0017 18.3795 -4.2123
# 6 0.0013 0.0005 0.0048 -0.0009 -4.2123 22.9505
#
#
#
# Elastic Compliance Matrix: (Units=1/GPa)
#
#
# Indices 1 2 3 4 5 6 
#
# 1 0.016406 -0.006342 -0.004702 0.005221 0.000002 0.000001
# 2 -0.006342 0.016405 -0.004699 -0.005219 0.000004 0.000002
# 3 -0.004702 -0.004699 0.014214 -0.000005 -0.000012 -0.000005
# 4 0.005221 -0.005219 -0.000005 0.056826 -0.000005 0.000001
# 5 0.000002 0.000004 -0.000012 -0.000005 0.056798 0.010425
# 6 0.000001 0.000002 -0.000005 0.000001 0.010425 0.045485
#
#
# Mechanical properties :
#
#
# Convention : Reuss Voigt Hill
#
# Bulk Modulus (GPa) = 64.35875 64.40246 64.38061
# Shear Modulus (GPa) = 20.59320 21.76984 21.18152
#
# Velocity S-wave (km/s) = 3.46921 3.56694 3.51841
# Velocity P-wave (km/s) = 7.32535 7.38940 7.35744
#
# Compressibility (1/GPa) = 0.01553790
#
# Stress axis : x y z
#
# Youngs Moduli (GPa) = 60.95399 60.95878 70.35358
#
# Poissons Ratio (x) = 0.38661 0.33078
# Poissons Ratio (y) = 0.38658 0.33062
# Poissons Ratio (z) = 0.28659 0.28647
#
# Static dielectric constant tensor:
#      x y z
#    x 1.605220 0.000000 0.000000 
#    y 0.000000 1.605220 0.000000 
#    z 0.000000 0.000000 1.564670 
# 
# From -- ./inp_files/1762.got.cif
#   From: 2010.05.17/outbox.cif.g08.bks.cpg/sg166_1_cif.got.tgz:1762.got - 2010.05.20 11:04:41.
