data_PCOD9579473
_publ_section_title
;
Structure prediction by ZEFSAII (Michael W. Deem and Ramdas Pophale) SiO2 
 PCOD9579473
Probable space group: R -3 C 
;
_chemical_formula_sum "Si O2"
_cell_formula_units_Z 270
_cell_length_a 26.852346
_cell_length_b 26.852346
_cell_length_c 24.926079
_cell_angle_alpha 90.000000
_cell_angle_beta 90.000000
_cell_angle_gamma 120.000000
_cell_volume 15564.997954
_symmetry_space_group_name_H-M "R -3 C "
_symmetry_group_IT_number 167
_symmetry_cell_setting 'hexagonal'
loop_
_space_group_symop_operation_xyz
x,y,z
-y,x-y,z
-x+y,-x,z
x-y,-y,1/2-z
-x,-x+y,1/2-z
y,x,1/2-z
-x,-y,-z
y,-x+y,-z
x-y,x,-z
-x+y,y,1/2+z
x,x-y,1/2+z
-y,-x,1/2+z
2/3+x,1/3+y,1/3+z
2/3-y,1/3+x-y,1/3+z
2/3-x+y,1/3-x,1/3+z
2/3+x-y,1/3-y,5/6-z
2/3-x,1/3-x+y,5/6-z
2/3+y,1/3+x,5/6-z
2/3-x,1/3-y,1/3-z
2/3+y,1/3-x+y,1/3-z
2/3+x-y,1/3+x,1/3-z
2/3-x+y,1/3+y,5/6+z
2/3+x,1/3+x-y,5/6+z
2/3-y,1/3-x,5/6+z
1/3+x,2/3+y,2/3+z
1/3-y,2/3+x-y,2/3+z
1/3-x+y,2/3-x,2/3+z
1/3+x-y,2/3-y,1/6-z
1/3-x,2/3-x+y,1/6-z
1/3+y,2/3+x,1/6-z
1/3-x,2/3-y,2/3-z
1/3+y,2/3-x+y,2/3-z
1/3+x-y,2/3+x,2/3-z
1/3-x+y,2/3+y,1/6+z
1/3+x,2/3+x-y,1/6+z
1/3-y,2/3-x,1/6+z
loop_
_atom_site_type_symbol
_atom_site_label
_atom_site_fract_x
_atom_site_fract_y
_atom_site_fract_z
Si Si1 0.955509 0.748102 0.362757
Si Si2 0.184348 0.184348 0.750000
Si Si3 0.208862 0.288119 0.015509
Si Si4 0.063880 0.484293 0.540945
Si Si5 0.775189 0.648585 0.328583
Si Si6 0.193335 0.448591 0.009663
Si Si7 0.100031 0.656687 0.236568
Si Si8 0.198539 0.273289 0.839745
O O1 0.946087 0.730877 0.425469
O O2 0.929703 0.684996 0.334839
O O3 0.915557 0.775116 0.348321
O O4 0.022079 0.794293 0.355779
O O5 0.176876 0.137839 0.795050
O O6 0.195008 0.238074 0.786731
O O7 0.155047 0.298351 0.015377
O O8 0.199487 0.238422 0.974499
O O9 0.045651 0.467945 0.603110
O O10 0.083097 0.550865 0.530412
O O11 0.005912 0.448338 0.507144
O O12 0.808397 0.717449 0.328011
O O13 0.723322 0.621595 0.370608
O O14 0.171483 0.461351 0.065967
O O15 0.094630 0.693290 0.284585
#
# Coordination Sequence:
#
# PCOD9579473 Si02
#       8
#    36  18  36  36  36  36  36  36
#     4  10  21  34  52  76 113 144 179 218 279 323
#     4  10  20  38  56  70 108 142 188 222 268 310
#     4  10  20  34  49  80 112 144 178 223 268 329
#     4  11  21  36  55  77 115 144 180 227 277 315
#     4  11  19  34  52  74 115 143 170 233 273 319
#     4  10  21  35  52  76 104 147 181 225 266 326
#     4  11  20  33  55  75 106 143 186 219 273 322
#     4  10  23  37  54  81 108 149 184 226 266 323
#
# _framework density 17.346613999999999
#
# number of rings (size 3 to 8) (size 9 to 14) (size 15 to 20)
#    0.000    1.600    5.333    0.400    0.000    4.267 
#    0.000    2.000    0.000    0.000    0.000    0.000 
#   18.667    1.067    0.000    0.000    0.000    0.000 
#
# Total GULP energy -501481.293817 kJ/mol
# GULP energy per Si atom -5572.014376 kJ/mol
# Density = 1.730713 g / cm^3
# Si number density = 17.346614 Si / 1000 Ang^3
#
#
#
# Elastic Constant Matrix: (Units=GPa)
#
#
# Indices 1 2 3 4 5 6 
#
# 1 82.2923 40.2601 33.1491 -0.6114 0.0000 0.0000
# 2 40.2601 82.2923 33.1491 0.6114 0.0000 0.0000
# 3 33.1491 33.1491 73.7582 0.0000 0.0000 0.0000
# 4 -0.6114 0.6114 0.0000 22.3844 0.0000 0.0000
# 5 0.0000 0.0000 0.0000 0.0000 22.3844 -0.6114
# 6 0.0000 0.0000 0.0000 0.0000 -0.6114 21.0161
#
#
#
# Elastic Compliance Matrix: (Units=1/GPa)
#
#
# Indices 1 2 3 4 5 6 
#
# 1 0.017296 -0.006515 -0.004845 0.000650 0.000000 0.000000
# 2 -0.006515 0.017296 -0.004845 -0.000650 0.000000 0.000000
# 3 -0.004845 -0.004845 0.017913 0.000000 0.000000 0.000000
# 4 0.000650 -0.000650 0.000000 0.044710 0.000000 0.000000
# 5 0.000000 0.000000 0.000000 0.000000 0.044710 0.001301
# 6 0.000000 0.000000 0.000000 0.000000 0.001301 0.047620
#
#
# Mechanical properties :
#
#
# Convention : Reuss Voigt Hill
#
# Bulk Modulus (GPa) = 49.76647 50.16214 49.96431
# Shear Modulus (GPa) = 21.86731 21.94263 21.90497
#
# Velocity S-wave (km/s) = 3.55436 3.56047 3.55742
# Velocity P-wave (km/s) = 6.75251 6.77370 6.76311
#
# Compressibility (1/GPa) = 0.02009385
#
# Stress axis : x y z
#
# Youngs Moduli (GPa) = 57.81828 57.81828 55.82527
#
# Poissons Ratio (x) = 0.37666 0.27049
# Poissons Ratio (y) = 0.37666 0.27049
# Poissons Ratio (z) = 0.28015 0.28015
#
# Static dielectric constant tensor:
#      x y z
#    x 1.595120 0.000000 0.000000 
#    y 0.000000 1.595120 0.000000 
#    z 0.000000 0.000000 1.632070 
# 
# From -- ./inp_files/5695.got.cif
#   From: 2010.05.17/outbox.cif.g08.bks.cpg/sg167_3_cif.got.tgz:5695.got - 2010.05.20 11:09:15.
