data_PCOD9579412
_publ_section_title
;
Structure prediction by ZEFSAII (Michael W. Deem and Ramdas Pophale) SiO2 
 PCOD9579412
Probable space group: R -3 C 
;
_chemical_formula_sum "Si O2"
_cell_formula_units_Z 120
_cell_length_a 16.659778
_cell_length_b 16.659778
_cell_length_c 20.758767
_cell_angle_alpha 90.000000
_cell_angle_beta 90.000000
_cell_angle_gamma 120.000000
_cell_volume 4989.656007
_symmetry_space_group_name_H-M "R -3 C "
_symmetry_group_IT_number 167
_symmetry_cell_setting 'hexagonal'
loop_
_space_group_symop_operation_xyz
x,y,z
-y,x-y,z
-x+y,-x,z
x-y,-y,1/2-z
-x,-x+y,1/2-z
y,x,1/2-z
-x,-y,-z
y,-x+y,-z
x-y,x,-z
-x+y,y,1/2+z
x,x-y,1/2+z
-y,-x,1/2+z
2/3+x,1/3+y,1/3+z
2/3-y,1/3+x-y,1/3+z
2/3-x+y,1/3-x,1/3+z
2/3+x-y,1/3-y,5/6-z
2/3-x,1/3-x+y,5/6-z
2/3+y,1/3+x,5/6-z
2/3-x,1/3-y,1/3-z
2/3+y,1/3-x+y,1/3-z
2/3+x-y,1/3+x,1/3-z
2/3-x+y,1/3+y,5/6+z
2/3+x,1/3+x-y,5/6+z
2/3-y,1/3-x,5/6+z
1/3+x,2/3+y,2/3+z
1/3-y,2/3+x-y,2/3+z
1/3-x+y,2/3-x,2/3+z
1/3+x-y,2/3-y,1/6-z
1/3-x,2/3-x+y,1/6-z
1/3+y,2/3+x,1/6-z
1/3-x,2/3-y,2/3-z
1/3+y,2/3-x+y,2/3-z
1/3+x-y,2/3+x,2/3-z
1/3-x+y,2/3+y,1/6+z
1/3+x,2/3+x-y,1/6+z
1/3-y,2/3-x,1/6+z
loop_
_atom_site_type_symbol
_atom_site_label
_atom_site_fract_x
_atom_site_fract_y
_atom_site_fract_z
Si Si1 0.063938 0.575751 0.350821
Si Si2 0.870505 0.431504 0.504461
Si Si3 0.333334 0.666667 0.993559
Si Si4 0.983812 0.288155 0.827179
O O1 0.110020 0.572404 0.419172
O O2 0.141468 0.668126 0.313148
O O3 0.028048 0.473027 0.325139
O O4 0.987552 0.608004 0.355041
O O5 0.768375 0.413968 0.488925
O O6 0.939778 0.536854 0.484335
O O7 0.333334 0.666668 0.916667
O O8 0.000000 0.301036 0.750000
#
# Coordination Sequence:
#
# PCOD9579412 Si02
#       4
#    36  36  12  36
#     4  10  19  31  53  76 101 139 171 217 263 317
#     4  10  18  31  55  79 104 132 172 213 270 318
#     4  12  12  27  54  75 108 129 144 205 288 306
#     4  10  20  35  51  77 110 141 175 220 267 315
#
# _framework density 24.049754
#
# number of rings (size 3 to 8) (size 9 to 14) (size 15 to 20)
#    0.000    1.800    6.000    1.800    0.000    0.000 
#    5.400    0.000    0.000    0.600    0.000    0.000 
#    0.000    0.000    0.000    0.000    0.000    0.000 
#
# Total GULP energy -222901.246089 kJ/mol
# GULP energy per Si atom -5572.531152 kJ/mol
# Density = 2.399502 g / cm^3
# Si number density = 24.049754 Si / 1000 Ang^3
#
#
#
# Elastic Constant Matrix: (Units=GPa)
#
#
# Indices 1 2 3 4 5 6 
#
# 1 188.9276 76.7953 30.8956 -8.6868 0.0001 -0.0002
# 2 76.7953 188.9286 30.8955 8.6869 0.0001 -0.0002
# 3 30.8956 30.8955 61.8259 0.0000 0.0001 -0.0001
# 4 -8.6868 8.6869 0.0000 16.4687 0.0000 0.0000
# 5 0.0001 0.0001 0.0001 0.0000 16.4687 -8.6867
# 6 -0.0002 -0.0002 -0.0001 0.0000 -8.6867 56.0664
#
#
#
# Elastic Compliance Matrix: (Units=1/GPa)
#
#
# Indices 1 2 3 4 5 6 
#
# 1 0.006985 -0.002727 -0.002128 0.005123 0.000000 0.000000
# 2 -0.002727 0.006985 -0.002128 -0.005123 0.000000 0.000000
# 3 -0.002128 -0.002128 0.018301 0.000000 0.000000 0.000000
# 4 0.005123 -0.005123 0.000000 0.066125 0.000000 0.000000
# 5 0.000000 0.000000 0.000000 0.000000 0.066125 0.010245
# 6 0.000000 0.000000 0.000000 0.000000 0.010245 0.019423
#
#
# Mechanical properties :
#
#
# Convention : Reuss Voigt Hill
#
# Bulk Modulus (GPa) = 54.62717 79.65054 67.13886
# Shear Modulus (GPa) = 24.50835 37.87379 31.19107
#
# Velocity S-wave (km/s) = 3.19575 3.97269 3.60521
# Velocity P-wave (km/s) = 6.03164 7.36437 6.73107
#
# Compressibility (1/GPa) = 0.01830591
#
# Stress axis : x y z
#
# Youngs Moduli (GPa) = 143.16529 143.16620 54.64147
#
# Poissons Ratio (x) = 0.39038 0.11627
# Poissons Ratio (y) = 0.39038 0.11627
# Poissons Ratio (z) = 0.30464 0.30463
#
# Static dielectric constant tensor:
#      x y z
#    x 2.045530 0.000000 0.000000 
#    y 0.000000 2.045520 0.000000 
#    z 0.000000 0.000000 1.971370 
# 
# From -- ./inp_files/5107.got.cif
#   From: 2010.05.17/outbox.cif.g08.bks.cpg/sg167_3_cif.got.tgz:5107.got - 2010.05.20 11:09:15.
