data_PCOD9579282
_publ_section_title
;
Structure prediction by ZEFSAII (Michael W. Deem and Ramdas Pophale) SiO2 
 PCOD9579282
Probable space group: R -3 M
;
_chemical_formula_sum "Si O2"
_cell_formula_units_Z 72
_cell_length_a 27.951676
_cell_length_b 27.951676
_cell_length_c 5.252868
_cell_angle_alpha 90.000000
_cell_angle_beta 90.000000
_cell_angle_gamma 120.000000
_cell_volume 3554.207888
_symmetry_space_group_name_H-M "R -3 M"
_symmetry_group_IT_number 166
_symmetry_cell_setting 'hexagonal'
loop_
_space_group_symop_operation_xyz
x,y,z
-y,x-y,z
-x+y,-x,z
x-y,-y,-z
-x,-x+y,-z
y,x,-z
-x,-y,-z
y,-x+y,-z
x-y,x,-z
-x+y,y,z
x,x-y,z
-y,-x,z
2/3+x,1/3+y,1/3+z
2/3-y,1/3+x-y,1/3+z
2/3-x+y,1/3-x,1/3+z
2/3+x-y,1/3-y,1/3-z
2/3-x,1/3-x+y,1/3-z
2/3+y,1/3+x,1/3-z
2/3-x,1/3-y,1/3-z
2/3+y,1/3-x+y,1/3-z
2/3+x-y,1/3+x,1/3-z
2/3-x+y,1/3+y,1/3+z
2/3+x,1/3+x-y,1/3+z
2/3-y,1/3-x,1/3+z
1/3+x,2/3+y,2/3+z
1/3-y,2/3+x-y,2/3+z
1/3-x+y,2/3-x,2/3+z
1/3+x-y,2/3-y,2/3-z
1/3-x,2/3-x+y,2/3-z
1/3+y,2/3+x,2/3-z
1/3-x,2/3-y,2/3-z
1/3+y,2/3-x+y,2/3-z
1/3+x-y,2/3+x,2/3-z
1/3-x+y,2/3+y,2/3+z
1/3+x,2/3+x-y,2/3+z
1/3-y,2/3-x,2/3+z
loop_
_atom_site_type_symbol
_atom_site_label
_atom_site_fract_x
_atom_site_fract_y
_atom_site_fract_z
Si Si1 0.666667 0.511289 0.833334
Si Si2 0.886678 0.886678 0.000000
Si Si3 0.542151 0.572878 0.249582
O O1 0.676896 0.484067 0.584022
O O2 0.616038 0.520814 0.766637
O O3 0.945984 0.891967 0.045176
O O4 0.576151 0.576151 0.500000
O O5 0.487528 0.512473 0.250857
O O6 0.576469 0.576469 0.000000
#
# Coordination Sequence:
#
# PCOD9579282 Si02
#       3
#    18  18  36
#     4  12  24  42  67  96 124 176 219 268 320 402
#     4  12  25  42  66  98 136 174 220 272 323 384
#     4  10  21  39  61  87 121 161 204 258 318 375
#
# _framework density 20.257679
#
# number of rings (size 3 to 8) (size 9 to 14) (size 15 to 20)
#    0.000    1.000    0.000    7.750    0.000    4.000 
#    4.500    2.500    0.000    0.000    0.000    0.000 
#    0.000    0.000    0.000    0.000    0.000    0.000 
#
# Total GULP energy -134183.709176 kJ/mol
# GULP energy per Si atom -5590.987882 kJ/mol
# Density = 2.021157 g / cm^3
# Si number density = 20.257679 Si / 1000 Ang^3
#
#
#
# Elastic Constant Matrix: (Units=GPa)
#
#
# Indices 1 2 3 4 5 6 
#
# 1 101.0502 23.7689 61.6882 3.5892 0.3375 0.2303
# 2 23.7689 100.7421 61.8753 -3.4253 0.5828 -0.1320
# 3 61.6882 61.8753 188.2109 -0.1761 0.9691 0.1504
# 4 3.5892 -3.4253 -0.1761 11.4811 0.6856 0.0957
# 5 0.3375 0.5828 0.9691 0.6856 11.6613 3.7940
# 6 0.2303 -0.1320 0.1504 0.0957 3.7940 38.1795
#
#
#
# Elastic Compliance Matrix: (Units=1/GPa)
#
#
# Indices 1 2 3 4 5 6 
#
# 1 0.012594 -0.000725 -0.003895 -0.004228 0.000270 -0.000079
# 2 -0.000725 0.012638 -0.003911 0.003969 -0.000554 0.000109
# 3 -0.003895 -0.003911 0.007877 0.000193 -0.000363 0.000014
# 4 -0.004228 0.003969 0.000193 0.089934 -0.005496 0.000359
# 5 0.000270 -0.000554 -0.000363 -0.005496 0.089001 -0.008833
# 6 -0.000079 0.000109 0.000014 0.000359 -0.008833 0.027070
#
#
# Mechanical properties :
#
#
# Convention : Reuss Voigt Hill
#
# Bulk Modulus (GPa) = 62.31118 76.07424 69.19271
# Shear Modulus (GPa) = 19.11885 28.44244 23.78064
#
# Velocity S-wave (km/s) = 3.07544 3.75111 3.42995
# Velocity P-wave (km/s) = 6.59069 7.50972 7.06516
#
# Compressibility (1/GPa) = 0.01604849
#
# Stress axis : x y z
#
# Youngs Moduli (GPa) = 79.40526 79.12955 126.94503
#
# Poissons Ratio (x) = 0.05734 0.49442
# Poissons Ratio (y) = 0.05754 0.49644
# Poissons Ratio (z) = 0.30926 0.30945
#
# Static dielectric constant tensor:
#      x y z
#    x 1.697880 0.000510 -0.000430 
#    y 0.000510 1.697170 -0.000290 
#    z -0.000430 -0.000290 1.699580 
# 
# From -- ./inp_files/301.got.cif
#   From: 2010.05.17/outbox.cif.g08.bks.cpg/sg166_1_cif.got.tgz:301.got - 2010.05.20 11:04:41.
