data_PCOD9579870
_publ_section_title
;
Structure prediction by ZEFSAII (Michael W. Deem and Ramdas Pophale) SiO2 
 PCOD9579870
Probable space group: P 61
;
_chemical_formula_sum "Si O2"
_cell_formula_units_Z 42
_cell_length_a 14.671328
_cell_length_b 14.671328
_cell_length_c 9.740169
_cell_angle_alpha 90.000000
_cell_angle_beta 90.000000
_cell_angle_gamma 120.000000
_cell_volume 1815.666067
_symmetry_space_group_name_H-M "P 61"
_symmetry_group_IT_number 169
_symmetry_cell_setting 'hexagonal'
loop_
_space_group_symop_operation_xyz
x,y,z
x-y,x,1/6+z
-y,x-y,1/3+z
-x,-y,1/2+z
-x+y,-x,2/3+z
y,-x+y,5/6+z
loop_
_atom_site_type_symbol
_atom_site_label
_atom_site_fract_x
_atom_site_fract_y
_atom_site_fract_z
Si Si1 0.174997 0.304649 0.760620
Si Si2 0.582363 0.160923 0.870950
Si Si3 0.048468 0.194873 0.119404
Si Si4 0.810185 0.576027 0.543302
Si Si5 0.652203 0.649801 0.040471
Si Si6 0.392333 0.782537 0.063492
Si Si7 0.844397 0.386934 0.591842
O O1 0.166932 0.198878 0.822650
O O2 0.272834 0.353134 0.658117
O O3 0.076686 0.302582 0.684425
O O4 0.190642 0.373336 0.896718
O O5 0.488036 0.176628 0.925299
O O6 0.572522 0.154644 0.704892
O O7 0.690010 0.268629 0.901523
O O8 0.597406 0.066482 0.918739
O O9 0.110598 0.321953 0.131404
O O10 0.972779 0.132565 0.245372
O O11 0.846963 0.489476 0.529522
O O12 0.643507 0.577822 0.911315
O O13 0.266061 0.715372 0.058671
O O14 0.433229 0.842020 0.921698
#
# Coordination Sequence:
#
# PCOD9579870 Si02
#       7
#     6   6   6   6   6   6   6
#     4  11  22  40  65 101 132 173 240 286 336 413
#     4  10  20  34  62  92 138 179 220 278 342 409
#     4  10  21  40  72  96 123 166 237 297 344 402
#     4  10  21  38  63 100 134 171 230 283 336 427
#     4  12  23  37  66 102 133 175 222 290 342 412
#     4   9  19  41  57  90 137 180 222 269 337 425
#     4  10  22  36  63  91 137 182 221 273 349 406
#
# _framework density 23.132007999999999
#
# number of rings (size 3 to 8) (size 9 to 14) (size 15 to 20)
#    0.000    1.714    2.857    3.429    4.000    2.286 
#    0.000    0.000    3.143    0.000    0.000    0.000 
#    0.000    0.000    0.000    0.000    0.000    0.000 
#
# Total GULP energy -234701.653451 kJ/mol
# GULP energy per Si atom -5588.134606 kJ/mol
# Density = 2.307936 g / cm^3
# Si number density = 23.132008 Si / 1000 Ang^3
#
#
#
# Elastic Constant Matrix: (Units=GPa)
#
#
# Indices 1 2 3 4 5 6 
#
# 1 104.0417 21.8350 4.8397 0.0000 0.0000 0.0000
# 2 21.8350 104.0417 4.8397 0.0000 0.0000 0.0000
# 3 4.8397 4.8397 65.6791 0.0000 0.0000 0.0000
# 4 0.0000 0.0000 0.0000 26.6337 0.0000 0.0000
# 5 0.0000 0.0000 0.0000 0.0000 26.6337 0.0000
# 6 0.0000 0.0000 0.0000 0.0000 0.0000 41.1033
#
#
#
# Elastic Compliance Matrix: (Units=1/GPa)
#
#
# Indices 1 2 3 4 5 6 
#
# 1 0.010077 -0.002087 -0.000589 0.000000 0.000000 0.000000
# 2 -0.002087 0.010077 -0.000589 0.000000 0.000000 0.000000
# 3 -0.000589 -0.000589 0.015312 0.000000 0.000000 0.000000
# 4 0.000000 0.000000 0.000000 0.037546 0.000000 0.000000
# 5 0.000000 0.000000 0.000000 0.000000 0.037546 0.000000
# 6 0.000000 0.000000 0.000000 0.000000 0.000000 0.024329
#
#
# Mechanical properties :
#
#
# Convention : Reuss Voigt Hill
#
# Bulk Modulus (GPa) = 34.55842 37.42126 35.98984
# Shear Modulus (GPa) = 33.09866 35.02400 34.06133
#
# Velocity S-wave (km/s) = 3.78677 3.89536 3.84145
# Velocity P-wave (km/s) = 5.83880 6.03690 5.93868
#
# Compressibility (1/GPa) = 0.02893650
#
# Stress axis : x y z
#
# Youngs Moduli (GPa) = 99.23577 99.23577 65.30691
#
# Poissons Ratio (x) = 0.20715 0.03845
# Poissons Ratio (y) = 0.20715 0.03845
# Poissons Ratio (z) = 0.05842 0.05842
#
# Static dielectric constant tensor:
#      x y z
#    x 1.901440 0.000000 0.000000 
#    y 0.000000 1.901440 0.000000 
#    z 0.000000 0.000000 1.930760 
# 
# From -- ./inp_files/1003.got.cif
#   From: 2010.05.17/outbox.cif.g08.bks.cpg/sg169_cif.got.tgz:1003.got - 2010.05.20 11:12:54.
