data_PCOD9579113
_publ_section_title
;
Structure prediction by ZEFSAII (Michael W. Deem and Ramdas Pophale) SiO2 
 PCOD9579113
Probable space group: R -3 M
;
_chemical_formula_sum "Si O2"
_cell_formula_units_Z 216
_cell_length_a 23.251308
_cell_length_b 23.251308
_cell_length_c 25.729931
_cell_angle_alpha 90.000000
_cell_angle_beta 90.000000
_cell_angle_gamma 120.000000
_cell_volume 12046.587278
_symmetry_space_group_name_H-M "R -3 M"
_symmetry_group_IT_number 166
_symmetry_cell_setting 'hexagonal'
loop_
_space_group_symop_operation_xyz
x,y,z
-y,x-y,z
-x+y,-x,z
x-y,-y,-z
-x,-x+y,-z
y,x,-z
-x,-y,-z
y,-x+y,-z
x-y,x,-z
-x+y,y,z
x,x-y,z
-y,-x,z
2/3+x,1/3+y,1/3+z
2/3-y,1/3+x-y,1/3+z
2/3-x+y,1/3-x,1/3+z
2/3+x-y,1/3-y,1/3-z
2/3-x,1/3-x+y,1/3-z
2/3+y,1/3+x,1/3-z
2/3-x,1/3-y,1/3-z
2/3+y,1/3-x+y,1/3-z
2/3+x-y,1/3+x,1/3-z
2/3-x+y,1/3+y,1/3+z
2/3+x,1/3+x-y,1/3+z
2/3-y,1/3-x,1/3+z
1/3+x,2/3+y,2/3+z
1/3-y,2/3+x-y,2/3+z
1/3-x+y,2/3-x,2/3+z
1/3+x-y,2/3-y,2/3-z
1/3-x,2/3-x+y,2/3-z
1/3+y,2/3+x,2/3-z
1/3-x,2/3-y,2/3-z
1/3+y,2/3-x+y,2/3-z
1/3+x-y,2/3+x,2/3-z
1/3-x+y,2/3+y,2/3+z
1/3+x,2/3+x-y,2/3+z
1/3-y,2/3-x,2/3+z
loop_
_atom_site_type_symbol
_atom_site_label
_atom_site_fract_x
_atom_site_fract_y
_atom_site_fract_z
Si Si1 0.900078 0.228208 0.278750
Si Si2 0.334368 0.794552 0.961605
Si Si3 0.350209 0.953659 0.794557
Si Si4 0.398553 0.929209 0.026924
Si Si5 0.944874 0.537510 0.730839
Si Si6 0.537375 0.705389 0.865223
O O1 0.821169 0.178832 0.272594
O O2 0.928210 0.300732 0.255084
O O3 0.916572 0.224382 0.338829
O O4 0.933449 0.196291 0.241967
O O5 0.384091 0.768181 0.974990
O O6 0.259303 0.740698 0.977680
O O7 0.331937 0.804155 0.900075
O O8 0.366542 0.867463 0.986657
O O9 0.338347 0.889244 0.825737
O O10 0.325997 0.992664 0.833334
O O11 0.423484 0.999016 0.773425
O O12 0.468222 0.936443 0.045495
O O13 0.339124 0.903129 0.068342
O O14 0.418276 0.000000 0.000000
O O15 0.917698 0.458849 0.735796
O O16 0.541066 0.770533 0.840493
#
# Coordination Sequence:
#
# PCOD9579113 Si02
#       6
#    36  36  36  36  36  36
#     4   9  16  29  50  72  98 133 171 213 254 298
#     4  10  19  32  51  76 106 138 171 210 257 309
#     4  10  20  31  47  72 102 138 172 209 248 307
#     4  10  20  33  53  78 100 128 167 213 262 311
#     4  11  21  34  52  74 104 135 170 212 261 313
#     4   9  17  30  48  73 104 138 173 209 253 302
#
# _framework density 17.930389999999999
#
# number of rings (size 3 to 8) (size 9 to 14) (size 15 to 20)
#    0.000    2.167    1.667    2.667    2.333    2.667 
#    0.000    0.833    0.000    0.333    0.000    0.000 
#    0.000    0.667    0.000    0.000    0.000   64.833 
#
# Total GULP energy -400983.243766 kJ/mol
# GULP energy per Si atom -5569.211719 kJ/mol
# Density = 1.788958 g / cm^3
# Si number density = 17.930390 Si / 1000 Ang^3
#
#
#
# Elastic Constant Matrix: (Units=GPa)
#
#
# Indices 1 2 3 4 5 6 
#
# 1 80.8002 42.7168 13.7626 -3.4726 0.0001 0.0000
# 2 42.7168 80.8002 13.7626 3.4726 -0.0001 0.0000
# 3 13.7626 13.7626 38.1513 0.0000 0.0000 0.0000
# 4 -3.4726 3.4726 0.0000 19.1867 0.0000 -0.0001
# 5 0.0001 -0.0001 0.0000 0.0000 19.1867 -3.4726
# 6 0.0000 0.0000 0.0000 -0.0001 -3.4726 19.0417
#
#
#
# Elastic Compliance Matrix: (Units=1/GPa)
#
#
# Indices 1 2 3 4 5 6 
#
# 1 0.017979 -0.009175 -0.003176 0.004915 0.000000 0.000000
# 2 -0.009175 0.017979 -0.003176 -0.004915 0.000000 0.000000
# 3 -0.003176 -0.003176 0.028503 0.000000 0.000000 0.000000
# 4 0.004915 -0.004915 0.000000 0.053898 0.000000 0.000000
# 5 0.000000 0.000000 0.000000 0.000000 0.053898 0.009829
# 6 0.000000 0.000000 0.000000 0.000000 0.009829 0.054309
#
#
# Mechanical properties :
#
#
# Convention : Reuss Voigt Hill
#
# Bulk Modulus (GPa) = 29.93394 37.80395 33.86894
# Shear Modulus (GPa) = 18.60423 20.11702 19.36063
#
# Velocity S-wave (km/s) = 3.22465 3.35319 3.28954
# Velocity P-wave (km/s) = 5.53129 6.01010 5.77566
#
# Compressibility (1/GPa) = 0.03340690
#
# Stress axis : x y z
#
# Youngs Moduli (GPa) = 55.62018 55.62018 35.08433
#
# Poissons Ratio (x) = 0.51033 0.11142
# Poissons Ratio (y) = 0.51033 0.11142
# Poissons Ratio (z) = 0.17664 0.17664
#
# Static dielectric constant tensor:
#      x y z
#    x 1.659710 0.000000 0.000000 
#    y 0.000000 1.659710 0.000000 
#    z 0.000000 0.000000 1.606220 
# 
# From -- ./inp_files/8418.got.cif
#   From: 2010.05.17/outbox.cif.g08.bks.cpg/sg166_5_cif.got.tgz:8418.got - 2010.05.20 11:04:41.
