data_PCOD9579353
_publ_section_title
;
Structure prediction by ZEFSAII (Michael W. Deem and Ramdas Pophale) SiO2 
 PCOD9579353
Probable space group: R -3 M
;
_chemical_formula_sum "Si O2"
_cell_formula_units_Z 72
_cell_length_a 18.551211
_cell_length_b 18.551211
_cell_length_c 9.671399
_cell_angle_alpha 90.000000
_cell_angle_beta 90.000000
_cell_angle_gamma 120.000000
_cell_volume 2882.467788
_symmetry_space_group_name_H-M "R -3 M"
_symmetry_group_IT_number 166
_symmetry_cell_setting 'hexagonal'
loop_
_space_group_symop_operation_xyz
x,y,z
-y,x-y,z
-x+y,-x,z
x-y,-y,-z
-x,-x+y,-z
y,x,-z
-x,-y,-z
y,-x+y,-z
x-y,x,-z
-x+y,y,z
x,x-y,z
-y,-x,z
2/3+x,1/3+y,1/3+z
2/3-y,1/3+x-y,1/3+z
2/3-x+y,1/3-x,1/3+z
2/3+x-y,1/3-y,1/3-z
2/3-x,1/3-x+y,1/3-z
2/3+y,1/3+x,1/3-z
2/3-x,1/3-y,1/3-z
2/3+y,1/3-x+y,1/3-z
2/3+x-y,1/3+x,1/3-z
2/3-x+y,1/3+y,1/3+z
2/3+x,1/3+x-y,1/3+z
2/3-y,1/3-x,1/3+z
1/3+x,2/3+y,2/3+z
1/3-y,2/3+x-y,2/3+z
1/3-x+y,2/3-x,2/3+z
1/3+x-y,2/3-y,2/3-z
1/3-x,2/3-x+y,2/3-z
1/3+y,2/3+x,2/3-z
1/3-x,2/3-y,2/3-z
1/3+y,2/3-x+y,2/3-z
1/3+x-y,2/3+x,2/3-z
1/3-x+y,2/3+y,2/3+z
1/3+x,2/3+x-y,2/3+z
1/3-y,2/3-x,2/3+z
loop_
_atom_site_type_symbol
_atom_site_label
_atom_site_fract_x
_atom_site_fract_y
_atom_site_fract_z
Si Si1 0.302080 0.064306 0.374454
Si Si2 0.334018 0.512171 0.833003
O O1 0.324226 0.162113 0.399248
O O2 0.251567 0.000000 0.500000
O O3 0.370389 0.037056 0.333334
O O4 0.240818 0.036712 0.244016
O O5 0.273761 0.547521 0.871490
O O6 0.426128 0.573873 0.882825
O O7 0.333334 0.510330 0.666667
#
# Coordination Sequence:
#
# PCOD9579353 Si02
#       2
#    36  36
#     4  11  26  48  76 110 148 193 245 302 365 434
#     4   9  18  36  66 106 151 198 248 303 365 434
#
# _framework density 24.978594999999999
#
# number of rings (size 3 to 8) (size 9 to 14) (size 15 to 20)
#    0.000    2.000    0.000    2.000    0.000    9.000 
#    0.000    5.000    0.000    8.500    0.000    7.000 
#    0.000    0.000    0.000    0.000    0.000    0.000 
#
# Total GULP energy -133816.499891 kJ/mol
# GULP energy per Si atom -5575.687495 kJ/mol
# Density = 2.492174 g / cm^3
# Si number density = 24.978595 Si / 1000 Ang^3
#
#
#
# Elastic Constant Matrix: (Units=GPa)
#
#
# Indices 1 2 3 4 5 6 
#
# 1 172.5889 136.9112 44.6003 9.3230 0.0000 0.0000
# 2 136.9112 172.5889 44.6003 -9.3230 0.0000 0.0000
# 3 44.6003 44.6003 107.3616 0.0000 0.0000 0.0000
# 4 9.3230 -9.3230 0.0000 33.3924 0.0000 0.0000
# 5 0.0000 0.0000 0.0000 0.0000 33.3924 9.3229
# 6 0.0000 0.0000 0.0000 0.0000 9.3229 17.8388
#
#
#
# Elastic Compliance Matrix: (Units=1/GPa)
#
#
# Indices 1 2 3 4 5 6 
#
# 1 0.018244 -0.014573 -0.001525 -0.009162 0.000000 0.000000
# 2 -0.014573 0.018244 -0.001525 0.009162 0.000000 0.000000
# 3 -0.001525 -0.001525 0.010581 0.000000 0.000000 0.000000
# 4 -0.009162 0.009162 0.000000 0.035063 0.000000 0.000000
# 5 0.000000 0.000000 0.000000 0.000000 0.035063 -0.018325
# 6 0.000000 0.000000 0.000000 0.000000 -0.018325 0.065634
#
#
# Mechanical properties :
#
#
# Convention : Reuss Voigt Hill
#
# Bulk Modulus (GPa) = 84.58119 100.52921 92.55520
# Shear Modulus (GPa) = 22.52087 32.01989 27.27038
#
# Velocity S-wave (km/s) = 3.00593 3.58424 3.30775
# Velocity P-wave (km/s) = 6.78104 7.58040 7.19184
#
# Compressibility (1/GPa) = 0.01182296
#
# Stress axis : x y z
#
# Youngs Moduli (GPa) = 54.81304 54.81304 94.50736
#
# Poissons Ratio (x) = 0.79881 0.14410
# Poissons Ratio (y) = 0.79881 0.14410
# Poissons Ratio (z) = 0.08358 0.08358
#
# Static dielectric constant tensor:
#      x y z
#    x 2.021590 0.000000 0.000000 
#    y 0.000000 2.021590 0.000000 
#    z 0.000000 0.000000 1.949400 
# 
# From -- ./inp_files/848.got.cif
#   From: 2010.05.17/outbox.cif.g08.bks.cpg/sg166_1_cif.got.tgz:848.got - 2010.05.20 11:04:41.
