data_PCOD9579454
_publ_section_title
;
Structure prediction by ZEFSAII (Michael W. Deem and Ramdas Pophale) SiO2 
 PCOD9579454
Probable space group: R -3 C 
;
_chemical_formula_sum "Si O2"
_cell_formula_units_Z 210
_cell_length_a 28.597675
_cell_length_b 28.597675
_cell_length_c 14.777539
_cell_angle_alpha 90.000000
_cell_angle_beta 90.000000
_cell_angle_gamma 120.000000
_cell_volume 10466.324570
_symmetry_space_group_name_H-M "R -3 C "
_symmetry_group_IT_number 167
_symmetry_cell_setting 'hexagonal'
loop_
_space_group_symop_operation_xyz
x,y,z
-y,x-y,z
-x+y,-x,z
x-y,-y,1/2-z
-x,-x+y,1/2-z
y,x,1/2-z
-x,-y,-z
y,-x+y,-z
x-y,x,-z
-x+y,y,1/2+z
x,x-y,1/2+z
-y,-x,1/2+z
2/3+x,1/3+y,1/3+z
2/3-y,1/3+x-y,1/3+z
2/3-x+y,1/3-x,1/3+z
2/3+x-y,1/3-y,5/6-z
2/3-x,1/3-x+y,5/6-z
2/3+y,1/3+x,5/6-z
2/3-x,1/3-y,1/3-z
2/3+y,1/3-x+y,1/3-z
2/3+x-y,1/3+x,1/3-z
2/3-x+y,1/3+y,5/6+z
2/3+x,1/3+x-y,5/6+z
2/3-y,1/3-x,5/6+z
1/3+x,2/3+y,2/3+z
1/3-y,2/3+x-y,2/3+z
1/3-x+y,2/3-x,2/3+z
1/3+x-y,2/3-y,1/6-z
1/3-x,2/3-x+y,1/6-z
1/3+y,2/3+x,1/6-z
1/3-x,2/3-y,2/3-z
1/3+y,2/3-x+y,2/3-z
1/3+x-y,2/3+x,2/3-z
1/3-x+y,2/3+y,1/6+z
1/3+x,2/3+x-y,1/6+z
1/3-y,2/3-x,1/6+z
loop_
_atom_site_type_symbol
_atom_site_label
_atom_site_fract_x
_atom_site_fract_y
_atom_site_fract_z
Si Si1 0.117329 0.171808 0.445093
Si Si2 0.879479 0.928438 0.627053
Si Si3 0.494943 0.406612 0.962651
Si Si4 0.000000 0.000000 0.892527
Si Si5 0.187470 0.666667 0.416667
Si Si6 0.645899 0.562297 0.802851
Si Si7 0.728390 0.091213 0.050536
O O1 0.074753 0.142336 0.527317
O O2 0.116356 0.126282 0.377249
O O3 0.109229 0.220632 0.407981
O O4 0.175788 0.201506 0.488680
O O5 0.939901 0.977262 0.637682
O O6 0.853104 0.947235 0.705482
O O7 0.500802 0.357842 0.005890
O O8 0.472031 0.427361 0.043475
O O9 0.445674 0.375859 0.891370
O O10 0.000000 0.000000 0.000000
O O11 0.619166 0.586197 0.870357
O O12 0.609520 0.552086 0.712899
O O13 0.666667 0.058281 0.083334
#
# Coordination Sequence:
#
# PCOD9579454 Si02
#       7
#    36  36  36  12  18  36  36
#     4  12  21  35  58  85 122 164 204 245 307 357
#     4  12  22  35  54  81 121 171 211 251 287 349
#     4  11  20  36  60  87 117 159 198 255 305 365
#     4  12  21  34  47  73 114 160 221 250 273 328
#     4  12  22  38  56  84 124 160 216 250 294 356
#     4  10  19  37  63  88 116 157 196 247 312 377
#     4   9  19  38  65  91 112 146 203 252 310 382
#
# _framework density 20.064350999999998
#
# number of rings (size 3 to 8) (size 9 to 14) (size 15 to 20)
#    0.000    1.029    7.714    1.029    0.000    3.429 
#    0.000    0.000    3.771    8.229    0.000    0.000 
#    0.000    0.000    0.000    0.000    0.000    0.000 
#
# Total GULP energy -389684.415708 kJ/mol
# GULP energy per Si atom -5566.920224 kJ/mol
# Density = 2.001868 g / cm^3
# Si number density = 20.064351 Si / 1000 Ang^3
#
#
#
# Elastic Constant Matrix: (Units=GPa)
#
#
# Indices 1 2 3 4 5 6 
#
# 1 59.6528 2.4923 24.9717 3.8045 -0.0002 0.0000
# 2 2.4923 59.6527 24.9716 -3.8045 0.0002 0.0000
# 3 24.9717 24.9716 56.3137 0.0001 0.0001 0.0000
# 4 3.8045 -3.8045 0.0001 22.6420 0.0000 0.0002
# 5 -0.0002 0.0002 0.0001 0.0000 22.6421 3.8045
# 6 0.0000 0.0000 0.0000 0.0002 3.8045 28.5802
#
#
#
# Elastic Compliance Matrix: (Units=1/GPa)
#
#
# Indices 1 2 3 4 5 6 
#
# 1 0.021448 0.003553 -0.011086 -0.003007 0.000000 0.000000
# 2 0.003553 0.021448 -0.011086 0.003007 0.000000 0.000000
# 3 -0.011086 -0.011086 0.027590 0.000000 0.000000 0.000000
# 4 -0.003007 0.003007 0.000000 0.045176 0.000000 0.000000
# 5 0.000000 0.000000 0.000000 0.000000 0.045176 -0.006014
# 6 0.000000 0.000000 0.000000 0.000000 -0.006014 0.035790
#
#
# Mechanical properties :
#
#
# Convention : Reuss Voigt Hill
#
# Bulk Modulus (GPa) = 30.07846 31.16560 30.62203
# Shear Modulus (GPa) = 20.41236 22.98509 21.69873
#
# Velocity S-wave (km/s) = 3.19304 3.38830 3.29212
# Velocity P-wave (km/s) = 5.34954 5.55643 5.45397
#
# Compressibility (1/GPa) = 0.03324638
#
# Stress axis : x y z
#
# Youngs Moduli (GPa) = 46.62439 46.62450 36.24502
#
# Poissons Ratio (x) = -0.16566 0.40183
# Poissons Ratio (y) = -0.16566 0.40183
# Poissons Ratio (z) = 0.51690 0.51690
#
# Static dielectric constant tensor:
#      x y z
#    x 2.073190 0.000000 0.000000 
#    y 0.000000 2.073190 0.000000 
#    z 0.000000 0.000000 1.791480 
# 
# From -- ./inp_files/2525.got.cif
#   From: 2010.05.17/outbox.cif.g08.bks.cpg/sg167_2_cif.got.tgz:2525.got - 2010.05.20 11:09:15.
