data_PCOD9579287
_publ_section_title
;
Structure prediction by ZEFSAII (Michael W. Deem and Ramdas Pophale) SiO2 
 PCOD9579287
Probable space group: R -3 M
;
_chemical_formula_sum "Si O2"
_cell_formula_units_Z 108
_cell_length_a 17.136142
_cell_length_b 17.136142
_cell_length_c 21.769507
_cell_angle_alpha 90.000000
_cell_angle_beta 90.000000
_cell_angle_gamma 120.000000
_cell_volume 5536.117897
_symmetry_space_group_name_H-M "R -3 M"
_symmetry_group_IT_number 166
_symmetry_cell_setting 'hexagonal'
loop_
_space_group_symop_operation_xyz
x,y,z
-y,x-y,z
-x+y,-x,z
x-y,-y,-z
-x,-x+y,-z
y,x,-z
-x,-y,-z
y,-x+y,-z
x-y,x,-z
-x+y,y,z
x,x-y,z
-y,-x,z
2/3+x,1/3+y,1/3+z
2/3-y,1/3+x-y,1/3+z
2/3-x+y,1/3-x,1/3+z
2/3+x-y,1/3-y,1/3-z
2/3-x,1/3-x+y,1/3-z
2/3+y,1/3+x,1/3-z
2/3-x,1/3-y,1/3-z
2/3+y,1/3-x+y,1/3-z
2/3+x-y,1/3+x,1/3-z
2/3-x+y,1/3+y,1/3+z
2/3+x,1/3+x-y,1/3+z
2/3-y,1/3-x,1/3+z
1/3+x,2/3+y,2/3+z
1/3-y,2/3+x-y,2/3+z
1/3-x+y,2/3-x,2/3+z
1/3+x-y,2/3-y,2/3-z
1/3-x,2/3-x+y,2/3-z
1/3+y,2/3+x,2/3-z
1/3-x,2/3-y,2/3-z
1/3+y,2/3-x+y,2/3-z
1/3+x-y,2/3+x,2/3-z
1/3-x+y,2/3+y,2/3+z
1/3+x,2/3+x-y,2/3+z
1/3-y,2/3-x,2/3+z
loop_
_atom_site_type_symbol
_atom_site_label
_atom_site_fract_x
_atom_site_fract_y
_atom_site_fract_z
Si Si1 0.609906 0.219812 0.148684
Si Si2 0.510266 0.020532 0.097363
Si Si3 0.084958 0.915043 0.043866
Si Si4 0.433673 0.566328 0.191517
Si Si5 0.301344 0.333334 0.333334
Si Si6 0.518042 0.036084 0.688011
O O1 0.715753 0.284248 0.132851
O O2 0.563128 0.126256 0.113560
O O3 0.604291 0.208581 0.222672
O O4 0.482022 0.964043 0.159166
O O5 0.573477 0.993957 0.058157
O O6 0.137337 0.862664 0.056347
O O7 0.000000 0.856994 0.000000
O O8 0.482357 0.666667 0.166667
O O9 0.440705 0.559296 0.264472
O O10 0.396444 0.428142 0.341846
#
# Coordination Sequence:
#
# PCOD9579287 Si02
#       6
#    18  18  18  18  18  18
#     4  10  22  37  61  98 128 176 217 260 336 408
#     4  11  24  44  66  91 134 176 217 291 332 402
#     4  12  20  35  59  93 131 164 208 259 319 400
#     4  12  24  44  68  95 129 174 232 281 338 396
#     4  11  26  44  64  97 134 174 228 277 350 396
#     4  12  24  39  67  96 129 174 215 281 338 405
#
# _framework density 19.508255999999999
#
# number of rings (size 3 to 8) (size 9 to 14) (size 15 to 20)
#    0.333    0.333    8.333    0.333    2.333    0.000 
#    0.000    0.000    3.667    7.000    0.000    0.000 
#    0.000    0.000    0.000    0.000    0.000    0.000 
#
# Total GULP energy -200444.762591 kJ/mol
# GULP energy per Si atom -5567.910072 kJ/mol
# Density = 1.946385 g / cm^3
# Si number density = 19.508256 Si / 1000 Ang^3
#
#
#
# Elastic Constant Matrix: (Units=GPa)
#
#
# Indices 1 2 3 4 5 6 
#
# 1 103.8814 35.8786 7.8988 4.0196 -0.0001 0.0000
# 2 35.8786 103.8814 7.8988 -4.0196 0.0001 0.0000
# 3 7.8988 7.8988 40.3069 0.0000 0.0000 0.0000
# 4 4.0196 -4.0196 0.0000 26.3773 0.0000 0.0001
# 5 -0.0001 0.0001 0.0000 0.0000 26.3773 4.0196
# 6 0.0000 0.0000 0.0000 0.0001 4.0196 34.0014
#
#
#
# Elastic Compliance Matrix: (Units=1/GPa)
#
#
# Indices 1 2 3 4 5 6 
#
# 1 0.011146 -0.003829 -0.001434 -0.002282 0.000000 0.000000
# 2 -0.003829 0.011146 -0.001434 0.002282 0.000000 0.000000
# 3 -0.001434 -0.001434 0.025372 0.000000 0.000000 0.000000
# 4 -0.002282 0.002282 0.000000 0.038607 0.000000 0.000000
# 5 0.000000 0.000000 0.000000 0.000000 0.038607 -0.004564
# 6 0.000000 0.000000 0.000000 0.000000 -0.004564 0.029950
#
#
# Mechanical properties :
#
#
# Convention : Reuss Voigt Hill
#
# Bulk Modulus (GPa) = 29.17973 39.04692 34.11332
# Shear Modulus (GPa) = 27.83269 30.44410 29.13840
#
# Velocity S-wave (km/s) = 3.78128 3.95470 3.86896
# Velocity P-wave (km/s) = 5.83560 6.39624 6.12234
#
# Compressibility (1/GPa) = 0.03427036
#
# Stress axis : x y z
#
# Youngs Moduli (GPa) = 89.71727 89.71727 39.41403
#
# Poissons Ratio (x) = 0.34352 0.05652
# Poissons Ratio (y) = 0.34352 0.05652
# Poissons Ratio (z) = 0.12865 0.12865
#
# Static dielectric constant tensor:
#      x y z
#    x 1.705800 0.000000 0.000000 
#    y 0.000000 1.705800 0.000000 
#    z 0.000000 0.000000 1.655450 
# 
# From -- ./inp_files/6406.got.cif
#   From: 2010.05.17/outbox.cif.g08.bks.cpg/sg166_4_cif.got.tgz:6406.got - 2010.05.20 11:04:41.
