data_PCOD9579389
_publ_section_title
;
Structure prediction by ZEFSAII (Michael W. Deem and Ramdas Pophale) SiO2 
 PCOD9579389
Probable space group: R -3 C 
;
_chemical_formula_sum "Si O2"
_cell_formula_units_Z 162
_cell_length_a 28.432107
_cell_length_b 28.432107
_cell_length_c 13.866684
_cell_angle_alpha 90.000000
_cell_angle_beta 90.000000
_cell_angle_gamma 120.000000
_cell_volume 9707.811619
_symmetry_space_group_name_H-M "R -3 C "
_symmetry_group_IT_number 167
_symmetry_cell_setting 'hexagonal'
loop_
_space_group_symop_operation_xyz
x,y,z
-y,x-y,z
-x+y,-x,z
x-y,-y,1/2-z
-x,-x+y,1/2-z
y,x,1/2-z
-x,-y,-z
y,-x+y,-z
x-y,x,-z
-x+y,y,1/2+z
x,x-y,1/2+z
-y,-x,1/2+z
2/3+x,1/3+y,1/3+z
2/3-y,1/3+x-y,1/3+z
2/3-x+y,1/3-x,1/3+z
2/3+x-y,1/3-y,5/6-z
2/3-x,1/3-x+y,5/6-z
2/3+y,1/3+x,5/6-z
2/3-x,1/3-y,1/3-z
2/3+y,1/3-x+y,1/3-z
2/3+x-y,1/3+x,1/3-z
2/3-x+y,1/3+y,5/6+z
2/3+x,1/3+x-y,5/6+z
2/3-y,1/3-x,5/6+z
1/3+x,2/3+y,2/3+z
1/3-y,2/3+x-y,2/3+z
1/3-x+y,2/3-x,2/3+z
1/3+x-y,2/3-y,1/6-z
1/3-x,2/3-x+y,1/6-z
1/3+y,2/3+x,1/6-z
1/3-x,2/3-y,2/3-z
1/3+y,2/3-x+y,2/3-z
1/3+x-y,2/3+x,2/3-z
1/3-x+y,2/3+y,1/6+z
1/3+x,2/3+x-y,1/6+z
1/3-y,2/3-x,1/6+z
loop_
_atom_site_type_symbol
_atom_site_label
_atom_site_fract_x
_atom_site_fract_y
_atom_site_fract_z
Si Si1 0.580441 0.043511 0.875482
Si Si2 0.980991 0.710792 0.059932
Si Si3 0.883108 0.549774 0.583334
Si Si4 0.562344 0.484165 0.183227
Si Si5 0.124366 0.392857 0.927376
O O1 0.643150 0.060285 0.852760
O O2 0.570200 0.079088 0.797844
O O3 0.535944 0.980876 0.849562
O O4 0.576733 0.052410 0.987148
O O5 0.919378 0.667579 0.035478
O O6 0.006407 0.673074 0.083334
O O7 0.983656 0.743276 0.157264
O O8 0.880277 0.495646 0.623632
O O9 0.510312 0.427721 0.159273
O O10 0.096654 0.429987 0.916667
#
# Coordination Sequence:
#
# PCOD9579389 Si02
#       5
#    36  36  18  36  36
#     4  10  19  33  49  73 101 138 182 214 264 313
#     4  10  16  28  47  71  97 132 174 213 253 303
#     4  10  16  30  50  64  98 134 176 218 250 316
#     4  10  20  35  48  72 101 138 178 226 262 317
#     4  11  23  34  51  75 106 137 181 229 269 306
#
# _framework density 16.687591999999999
#
# number of rings (size 3 to 8) (size 9 to 14) (size 15 to 20)
#    0.000    1.778    6.667    0.667    0.000    6.222 
#    4.000    0.000    0.000    0.000    0.000    0.000 
#    1.111    0.000    0.000    2.000    0.000    0.000 
#
# Total GULP energy -301027.251635 kJ/mol
# GULP energy per Si atom -5574.578734 kJ/mol
# Density = 1.664961 g / cm^3
# Si number density = 16.687592 Si / 1000 Ang^3
#
#
#
# Elastic Constant Matrix: (Units=GPa)
#
#
# Indices 1 2 3 4 5 6 
#
# 1 52.3311 28.6340 5.1068 -1.0342 -0.0001 0.0000
# 2 28.6340 52.3312 5.1071 1.0342 0.0000 0.0000
# 3 5.1068 5.1071 59.8715 -0.0001 -0.0007 -0.0001
# 4 -1.0342 1.0342 -0.0001 10.6777 -0.0001 -0.0001
# 5 -0.0001 0.0000 -0.0007 -0.0001 10.6774 -1.0342
# 6 0.0000 0.0000 -0.0001 -0.0001 -1.0342 11.8486
#
#
#
# Elastic Compliance Matrix: (Units=1/GPa)
#
#
# Indices 1 2 3 4 5 6 
#
# 1 0.027522 -0.015037 -0.001065 0.004122 0.000000 0.000000
# 2 -0.015037 0.027522 -0.001065 -0.004122 0.000000 0.000000
# 3 -0.001065 -0.001065 0.016884 0.000000 0.000001 0.000000
# 4 0.004122 -0.004122 0.000000 0.094452 0.000001 0.000001
# 5 0.000000 0.000000 0.000001 0.000001 0.094455 0.008245
# 6 0.000000 0.000000 0.000000 0.000001 0.008245 0.085118
#
#
# Mechanical properties :
#
#
# Convention : Reuss Voigt Hill
#
# Bulk Modulus (GPa) = 26.59937 26.91440 26.75688
# Shear Modulus (GPa) = 12.72855 15.01979 13.87417
#
# Velocity S-wave (km/s) = 2.76480 3.00335 2.88654
# Velocity P-wave (km/s) = 5.11531 5.30945 5.21328
#
# Compressibility (1/GPa) = 0.03759488
#
# Stress axis : x y z
#
# Youngs Moduli (GPa) = 36.33436 36.33437 59.22725
#
# Poissons Ratio (x) = 0.54635 0.06307
# Poissons Ratio (y) = 0.54635 0.06308
# Poissons Ratio (z) = 0.03869 0.03870
#
# Static dielectric constant tensor:
#      x y z
#    x 1.585710 0.000000 0.000000 
#    y 0.000000 1.585710 0.000000 
#    z 0.000000 0.000000 1.604710 
# 
# From -- ./inp_files/2404.got.cif
#   From: 2010.05.17/outbox.cif.g08.bks.cpg/sg167_2_cif.got.tgz:2404.got - 2010.05.20 11:09:15.
