data_PCOD9579720
_publ_section_title
;
Structure prediction by ZEFSAII (Michael W. Deem and Ramdas Pophale) SiO2 
 PCOD9579720
Probable space group: R -3 C 
;
_chemical_formula_sum "Si O2"
_cell_formula_units_Z 138
_cell_length_a 18.686227
_cell_length_b 18.686227
_cell_length_c 23.201630
_cell_angle_alpha 90.000000
_cell_angle_beta 90.000000
_cell_angle_gamma 120.000000
_cell_volume 7016.045053
_symmetry_space_group_name_H-M "R -3 C "
_symmetry_group_IT_number 167
_symmetry_cell_setting 'hexagonal'
loop_
_space_group_symop_operation_xyz
x,y,z
-y,x-y,z
-x+y,-x,z
x-y,-y,1/2-z
-x,-x+y,1/2-z
y,x,1/2-z
-x,-y,-z
y,-x+y,-z
x-y,x,-z
-x+y,y,1/2+z
x,x-y,1/2+z
-y,-x,1/2+z
2/3+x,1/3+y,1/3+z
2/3-y,1/3+x-y,1/3+z
2/3-x+y,1/3-x,1/3+z
2/3+x-y,1/3-y,5/6-z
2/3-x,1/3-x+y,5/6-z
2/3+y,1/3+x,5/6-z
2/3-x,1/3-y,1/3-z
2/3+y,1/3-x+y,1/3-z
2/3+x-y,1/3+x,1/3-z
2/3-x+y,1/3+y,5/6+z
2/3+x,1/3+x-y,5/6+z
2/3-y,1/3-x,5/6+z
1/3+x,2/3+y,2/3+z
1/3-y,2/3+x-y,2/3+z
1/3-x+y,2/3-x,2/3+z
1/3+x-y,2/3-y,1/6-z
1/3-x,2/3-x+y,1/6-z
1/3+y,2/3+x,1/6-z
1/3-x,2/3-y,2/3-z
1/3+y,2/3-x+y,2/3-z
1/3+x-y,2/3+x,2/3-z
1/3-x+y,2/3+y,1/6+z
1/3+x,2/3+x-y,1/6+z
1/3-y,2/3-x,1/6+z
loop_
_atom_site_type_symbol
_atom_site_label
_atom_site_fract_x
_atom_site_fract_y
_atom_site_fract_z
Si Si1 0.605667 0.847622 0.733604
Si Si2 0.000000 0.000000 0.571275
Si Si3 0.541105 0.666667 0.916667
Si Si4 0.361365 0.535411 0.539653
Si Si5 0.140702 0.897163 0.558170
O O1 0.700162 0.920934 0.739598
O O2 0.579272 0.777083 0.781713
O O3 0.584092 0.794518 0.675036
O O4 0.542633 0.883175 0.733792
O O5 0.953446 0.909712 0.600074
O O6 0.000000 0.000000 0.500000
O O7 0.495364 0.675797 0.860573
O O8 0.279872 0.476165 0.576331
O O9 0.179173 0.845840 0.583334
#
# Coordination Sequence:
#
# PCOD9579720 Si02
#       5
#    36  12  18  36  36
#     4  12  24  43  71 100 135 181 244 285 345 415
#     4  12  24  46  77 103 126 174 241 299 340 408
#     4  12  28  44  62 102 154 186 214 282 370 446
#     4  12  25  43  70 105 136 179 236 289 353 414
#     4  12  23  41  70  99 130 182 236 295 338 409
#
# _framework density 19.669201999999999
#
# number of rings (size 3 to 8) (size 9 to 14) (size 15 to 20)
#    0.000    0.000    9.130    2.348    0.000    1.043 
#    0.000    0.000    0.000    0.000    0.000    0.000 
#    0.000    0.000    0.000    0.000    0.000    0.000 
#
# Total GULP energy -256596.503748 kJ/mol
# GULP energy per Si atom -5578.184864 kJ/mol
# Density = 1.962443 g / cm^3
# Si number density = 19.669202 Si / 1000 Ang^3
#
#
#
# Elastic Constant Matrix: (Units=GPa)
#
#
# Indices 1 2 3 4 5 6 
#
# 1 65.8430 14.3884 21.8969 4.5716 -0.0002 0.0000
# 2 14.3884 65.8430 21.8969 -4.5716 0.0002 0.0000
# 3 21.8969 21.8969 141.2874 0.0000 0.0000 0.0000
# 4 4.5716 -4.5716 0.0000 24.7357 0.0000 0.0002
# 5 -0.0002 0.0002 0.0000 0.0000 24.7357 4.5716
# 6 0.0000 0.0000 0.0000 0.0002 4.5716 25.7273
#
#
#
# Elastic Compliance Matrix: (Units=1/GPa)
#
#
# Indices 1 2 3 4 5 6 
#
# 1 0.016855 -0.003239 -0.002110 -0.003714 0.000000 0.000000
# 2 -0.003239 0.016855 -0.002110 0.003714 0.000000 0.000000
# 3 -0.002110 -0.002110 0.007732 0.000000 0.000000 0.000000
# 4 -0.003714 0.003714 0.000000 0.041800 0.000000 0.000000
# 5 0.000000 0.000000 0.000000 0.000000 0.041800 -0.007428
# 6 0.000000 0.000000 0.000000 0.000000 -0.007428 0.040189
#
#
# Mechanical properties :
#
#
# Convention : Reuss Voigt Hill
#
# Bulk Modulus (GPa) = 37.70364 43.25976 40.48170
# Shear Modulus (GPa) = 26.45614 29.35916 27.90765
#
# Velocity S-wave (km/s) = 3.67148 3.86767 3.77085
# Velocity P-wave (km/s) = 6.09783 6.47970 6.29166
#
# Compressibility (1/GPa) = 0.02652264
#
# Stress axis : x y z
#
# Youngs Moduli (GPa) = 59.32903 59.32903 129.33522
#
# Poissons Ratio (x) = 0.19219 0.27292
# Poissons Ratio (y) = 0.19219 0.27292
# Poissons Ratio (z) = 0.12520 0.12520
#
# Static dielectric constant tensor:
#      x y z
#    x 1.678150 0.000000 0.000000 
#    y 0.000000 1.678150 0.000000 
#    z 0.000000 0.000000 1.538220 
# 
# From -- ./inp_files/6071.got.cif
#   From: 2010.05.17/outbox.cif.g08.bks.cpg/sg167_4_cif.got.tgz:6071.got - 2010.05.20 11:09:15.
