data_PCOD9579995
_publ_section_title
;
Structure prediction by ZEFSAII (Michael W. Deem and Ramdas Pophale) SiO2 
 PCOD9579995
Probable space group: P 61
;
_chemical_formula_sum "Si O2"
_cell_formula_units_Z 48
_cell_length_a 14.847014
_cell_length_b 14.847014
_cell_length_c 10.693667
_cell_angle_alpha 90.000000
_cell_angle_beta 90.000000
_cell_angle_gamma 120.000000
_cell_volume 2041.434847
_symmetry_space_group_name_H-M "P 61"
_symmetry_group_IT_number 169
_symmetry_cell_setting 'hexagonal'
loop_
_space_group_symop_operation_xyz
x,y,z
x-y,x,1/6+z
-y,x-y,1/3+z
-x,-y,1/2+z
-x+y,-x,2/3+z
y,-x+y,5/6+z
loop_
_atom_site_type_symbol
_atom_site_label
_atom_site_fract_x
_atom_site_fract_y
_atom_site_fract_z
Si Si1 0.822149 0.928880 0.917330
Si Si2 0.298838 0.519302 0.887443
Si Si3 0.110512 0.467486 0.517441
Si Si4 0.538907 0.154510 0.997759
Si Si5 0.477848 0.945097 0.861034
Si Si6 0.845135 0.248253 0.822599
Si Si7 0.414732 0.248087 0.092963
Si Si8 0.105483 0.181464 0.213281
O O1 0.709417 0.914715 0.930647
O O2 0.834068 0.851951 0.816684
O O3 0.899916 0.044545 0.877679
O O4 0.410819 0.602952 0.830174
O O5 0.217244 0.557488 0.865089
O O6 0.266970 0.417090 0.804346
O O7 0.322131 0.514860 0.032162
O O8 0.006614 0.460806 0.573311
O O9 0.158475 0.430242 0.626321
O O10 0.114086 0.407971 0.394422
O O11 0.502780 0.035333 0.964698
O O12 0.481221 0.189561 0.097097
O O13 0.518255 0.871706 0.917107
O O14 0.353564 0.881642 0.843638
O O15 0.302228 0.159776 0.048481
O O16 0.123996 0.137784 0.086977
#
# Coordination Sequence:
#
# PCOD9579995 Si02
#       8
#     6   6   6   6   6   6   6   6
#     4  10  22  41  73 102 137 179 243 306 370 433
#     4  11  21  43  64  93 149 193 241 295 357 441
#     4  11  23  42  66 103 144 190 252 299 360 449
#     4  11  25  44  67 100 149 196 246 305 364 447
#     4  11  25  42  69 108 152 191 249 309 374 444
#     4  12  22  42  72 107 143 197 241 303 375 444
#     4  12  24  44  75 108 144 202 249 305 387 450
#     4  10  22  44  76 107 144 182 251 320 377 448
#
# _framework density 23.512875000000001
#
# number of rings (size 3 to 8) (size 9 to 14) (size 15 to 20)
#    0.000    1.000    3.750    4.500    0.000    4.000 
#    0.000    0.000   44.000    0.000    0.000    0.000 
#    0.000    0.000    0.000    0.000    0.000    0.000 
#
# Total GULP energy -268432.638673 kJ/mol
# GULP energy per Si atom -5592.346639 kJ/mol
# Density = 2.345936 g / cm^3
# Si number density = 23.512875 Si / 1000 Ang^3
#
#
#
# Elastic Constant Matrix: (Units=GPa)
#
#
# Indices 1 2 3 4 5 6 
#
# 1 107.6057 -22.8696 3.9455 0.0000 0.0000 0.0000
# 2 -22.8696 107.6057 3.9455 0.0000 0.0000 0.0000
# 3 3.9455 3.9455 62.1045 0.0000 0.0000 0.0000
# 4 0.0000 0.0000 0.0000 32.2006 0.0000 0.0000
# 5 0.0000 0.0000 0.0000 0.0000 32.2006 0.0000
# 6 0.0000 0.0000 0.0000 0.0000 0.0000 65.2376
#
#
#
# Elastic Compliance Matrix: (Units=1/GPa)
#
#
# Indices 1 2 3 4 5 6 
#
# 1 0.009768 0.002104 -0.000754 0.000000 0.000000 0.000000
# 2 0.002104 0.009768 -0.000754 0.000000 0.000000 0.000000
# 3 -0.000754 -0.000754 0.016198 0.000000 0.000000 0.000000
# 4 0.000000 0.000000 0.000000 0.031055 0.000000 0.000000
# 5 0.000000 0.000000 0.000000 0.000000 0.031055 0.000000
# 6 0.000000 0.000000 0.000000 0.000000 0.000000 0.015329
#
#
# Mechanical properties :
#
#
# Convention : Reuss Voigt Hill
#
# Bulk Modulus (GPa) = 27.08263 27.48433 27.28348
# Shear Modulus (GPa) = 40.22839 45.41406 42.82122
#
# Velocity S-wave (km/s) = 4.14080 4.39960 4.27216
# Velocity P-wave (km/s) = 5.86557 6.12561 5.99700
#
# Compressibility (1/GPa) = 0.03692404
#
# Stress axis : x y z
#
# Youngs Moduli (GPa) = 102.37581 102.37581 61.73709
#
# Poissons Ratio (x) = -0.21536 0.04656
# Poissons Ratio (y) = -0.21536 0.04656
# Poissons Ratio (z) = 0.07721 0.07721
#
# Static dielectric constant tensor:
#      x y z
#    x 1.869280 0.000000 0.000000 
#    y 0.000000 1.869280 0.000000 
#    z 0.000000 0.000000 1.975730 
# 
# From -- ./inp_files/1024.got.cif
#   From: 2010.05.17/outbox.cif.g08.bks.cpg/sg169_cif.got.tgz:1024.got - 2010.05.20 11:12:54.
