data_PCOD9579271
_publ_section_title
;
Structure prediction by ZEFSAII (Michael W. Deem and Ramdas Pophale) SiO2 
 PCOD9579271
Probable space group: R -3 M
;
_chemical_formula_sum "Si O2"
_cell_formula_units_Z 144
_cell_length_a 19.688371
_cell_length_b 19.688371
_cell_length_c 19.654760
_cell_angle_alpha 90.000000
_cell_angle_beta 90.000000
_cell_angle_gamma 120.000000
_cell_volume 6598.085602
_symmetry_space_group_name_H-M "R -3 M"
_symmetry_group_IT_number 166
_symmetry_cell_setting 'hexagonal'
loop_
_space_group_symop_operation_xyz
x,y,z
-y,x-y,z
-x+y,-x,z
x-y,-y,-z
-x,-x+y,-z
y,x,-z
-x,-y,-z
y,-x+y,-z
x-y,x,-z
-x+y,y,z
x,x-y,z
-y,-x,z
2/3+x,1/3+y,1/3+z
2/3-y,1/3+x-y,1/3+z
2/3-x+y,1/3-x,1/3+z
2/3+x-y,1/3-y,1/3-z
2/3-x,1/3-x+y,1/3-z
2/3+y,1/3+x,1/3-z
2/3-x,1/3-y,1/3-z
2/3+y,1/3-x+y,1/3-z
2/3+x-y,1/3+x,1/3-z
2/3-x+y,1/3+y,1/3+z
2/3+x,1/3+x-y,1/3+z
2/3-y,1/3-x,1/3+z
1/3+x,2/3+y,2/3+z
1/3-y,2/3+x-y,2/3+z
1/3-x+y,2/3-x,2/3+z
1/3+x-y,2/3-y,2/3-z
1/3-x,2/3-x+y,2/3-z
1/3+y,2/3+x,2/3-z
1/3-x,2/3-y,2/3-z
1/3+y,2/3-x+y,2/3-z
1/3+x-y,2/3+x,2/3-z
1/3-x+y,2/3+y,2/3+z
1/3+x,2/3+x-y,2/3+z
1/3-y,2/3-x,2/3+z
loop_
_atom_site_type_symbol
_atom_site_label
_atom_site_fract_x
_atom_site_fract_y
_atom_site_fract_z
Si Si1 0.609681 0.977169 0.595098
Si Si2 0.806048 0.976722 0.698556
Si Si3 0.335743 0.511977 0.814589
Si Si4 0.873239 0.592823 0.770416
O O1 0.602226 0.935559 0.666667
O O2 0.553122 0.908559 0.544650
O O3 0.595523 0.047767 0.613770
O O4 0.701306 0.023392 0.572606
O O5 0.832286 0.916143 0.674187
O O6 0.845671 0.010937 0.770493
O O7 0.815446 0.032187 0.635998
O O8 0.262926 0.525852 0.799490
O O9 0.418052 0.581949 0.786325
O O10 0.811362 0.622724 0.784452
O O11 0.872751 0.539418 0.833334
#
# Coordination Sequence:
#
# PCOD9579271 Si02
#       4
#    36  36  36  36
#     4  10  23  39  60  90 124 160 206 262 318 375
#     4  10  21  38  60  86 119 161 207 255 309 370
#     4  11  23  40  63  92 128 170 216 266 320 378
#     4  11  23  39  62  93 126 161 204 255 312 374
#
# _framework density 21.824511999999999
#
# number of rings (size 3 to 8) (size 9 to 14) (size 15 to 20)
#    0.000    1.500    0.000    4.750    0.000   15.500 
#    0.000    0.000    0.000    7.500    0.000    0.000 
#    0.000    0.000    0.000    0.000    0.000    0.000 
#
# Total GULP energy -267815.017486 kJ/mol
# GULP energy per Si atom -5579.479531 kJ/mol
# Density = 2.177484 g / cm^3
# Si number density = 21.824512 Si / 1000 Ang^3
#
#
#
# Elastic Constant Matrix: (Units=GPa)
#
#
# Indices 1 2 3 4 5 6 
#
# 1 57.3860 87.2541 20.0843 -7.7146 0.0020 0.0000
# 2 87.2541 57.3860 20.0843 7.7146 -0.0020 0.0000
# 3 20.0843 20.0843 86.8796 0.0000 0.0000 0.0000
# 4 -7.7146 7.7146 0.0000 10.5654 0.0000 -0.0020
# 5 0.0020 -0.0020 0.0000 0.0000 10.5654 -7.7146
# 6 0.0000 0.0000 0.0000 -0.0020 -7.7146 -14.9340
#
#
#
# Elastic Compliance Matrix: (Units=1/GPa)
#
#
# Indices 1 2 3 4 5 6 
#
# 1 -0.008461 0.015849 -0.001708 -0.017751 0.000004 0.000000
# 2 0.015849 -0.008461 -0.001708 0.017751 -0.000004 0.000000
# 3 -0.001708 -0.001708 0.012300 0.000000 0.000000 0.000000
# 4 -0.017751 0.017751 0.000000 0.068726 0.000000 -0.000009
# 5 0.000004 -0.000004 0.000000 0.000000 0.068726 -0.035502
# 6 0.000000 0.000000 0.000000 -0.000009 -0.035502 -0.048621
#
#
# Mechanical properties :
#
#
# Convention : Reuss Voigt Hill
#
# Bulk Modulus (GPa) = 49.39687 50.72191 50.05939
# Shear Modulus (GPa) = 75.65658 6.18794 40.92226
#
# Velocity S-wave (km/s) = 5.89416 1.68567 4.33489
# Velocity P-wave (km/s) = 8.30688 5.20383 6.93124
#
# Compressibility (1/GPa) = 0.02024420
#
# Stress axis : x y z
#
# Youngs Moduli (GPa) = -118.18501 -118.18501 81.30193
#
# Poissons Ratio (x) = 1.87315 0.13886
# Poissons Ratio (y) = 1.87315 0.13886
# Poissons Ratio (z) = -0.20185 -0.20185
#
# Static dielectric constant tensor:
#      x y z
#    x 1.817260 0.000000 0.000000 
#    y 0.000000 1.817260 0.000000 
#    z 0.000000 0.000000 1.802090 
# 
# From -- ./inp_files/6605.got.cif
#   From: 2010.05.17/outbox.cif.g08.bks.cpg/sg166_4_cif.got.tgz:6605.got - 2010.05.20 11:04:41.
