data_PCOD9579125
_publ_section_title
;
Structure prediction by ZEFSAII (Michael W. Deem and Ramdas Pophale) SiO2 
 PCOD9579125
Probable space group: R -3 M
;
_chemical_formula_sum "Si O2"
_cell_formula_units_Z 90
_cell_length_a 16.938262
_cell_length_b 16.938262
_cell_length_c 17.939847
_cell_angle_alpha 90.000000
_cell_angle_beta 90.000000
_cell_angle_gamma 120.000000
_cell_volume 4457.455939
_symmetry_space_group_name_H-M "R -3 M"
_symmetry_group_IT_number 166
_symmetry_cell_setting 'hexagonal'
loop_
_space_group_symop_operation_xyz
x,y,z
-y,x-y,z
-x+y,-x,z
x-y,-y,-z
-x,-x+y,-z
y,x,-z
-x,-y,-z
y,-x+y,-z
x-y,x,-z
-x+y,y,z
x,x-y,z
-y,-x,z
2/3+x,1/3+y,1/3+z
2/3-y,1/3+x-y,1/3+z
2/3-x+y,1/3-x,1/3+z
2/3+x-y,1/3-y,1/3-z
2/3-x,1/3-x+y,1/3-z
2/3+y,1/3+x,1/3-z
2/3-x,1/3-y,1/3-z
2/3+y,1/3-x+y,1/3-z
2/3+x-y,1/3+x,1/3-z
2/3-x+y,1/3+y,1/3+z
2/3+x,1/3+x-y,1/3+z
2/3-y,1/3-x,1/3+z
1/3+x,2/3+y,2/3+z
1/3-y,2/3+x-y,2/3+z
1/3-x+y,2/3-x,2/3+z
1/3+x-y,2/3-y,2/3-z
1/3-x,2/3-x+y,2/3-z
1/3+y,2/3+x,2/3-z
1/3-x,2/3-y,2/3-z
1/3+y,2/3-x+y,2/3-z
1/3+x-y,2/3+x,2/3-z
1/3-x+y,2/3+y,2/3+z
1/3+x,2/3+x-y,2/3+z
1/3-y,2/3-x,2/3+z
loop_
_atom_site_type_symbol
_atom_site_label
_atom_site_fract_x
_atom_site_fract_y
_atom_site_fract_z
Si Si1 0.486710 0.153377 0.833334
Si Si2 0.626828 0.072635 0.410920
Si Si3 0.373405 0.100914 0.563779
O O1 0.582554 0.165107 0.806340
O O2 0.403634 0.114522 0.774099
O O3 0.539955 0.079910 0.433442
O O4 0.666667 0.122035 0.333334
O O5 0.699069 0.107720 0.478407
O O6 0.597292 0.966190 0.398944
O O7 0.402443 0.201222 0.592471
#
# Coordination Sequence:
#
# PCOD9579125 Si02
#       3
#    18  36  36
#     4   8  13  22  39  64  92 122 156 194 233 272
#     4  10  19  32  53  76  99 130 167 206 248 295
#     4   9  18  32  49  71 100 133 168 203 243 293
#
# _framework density 20.19089
#
# number of rings (size 3 to 8) (size 9 to 14) (size 15 to 20)
#    0.000    3.200    0.000    3.800    0.000    2.400 
#    0.000    0.000    0.000   15.200    0.000    2.800 
#    0.000    0.000    0.000    0.000    0.000    0.000 
#
# Total GULP energy -167006.282074 kJ/mol
# GULP energy per Si atom -5566.876069 kJ/mol
# Density = 2.014494 g / cm^3
# Si number density = 20.190890 Si / 1000 Ang^3
#
#
#
# Elastic Constant Matrix: (Units=GPa)
#
#
# Indices 1 2 3 4 5 6 
#
# 1 86.0272 48.0686 3.8898 -6.6105 0.0000 0.0000
# 2 48.0686 86.0272 3.8898 6.6105 0.0000 0.0000
# 3 3.8898 3.8898 66.0385 0.0000 0.0000 0.0000
# 4 -6.6105 6.6105 0.0000 10.7208 0.0000 0.0000
# 5 0.0000 0.0000 0.0000 0.0000 10.7208 -6.6105
# 6 0.0000 0.0000 0.0000 0.0000 -6.6105 18.9793
#
#
#
# Elastic Compliance Matrix: (Units=1/GPa)
#
#
# Indices 1 2 3 4 5 6 
#
# 1 0.020516 -0.013033 -0.000441 0.020687 0.000000 0.000000
# 2 -0.013033 0.020516 -0.000441 -0.020687 0.000000 0.000000
# 3 -0.000441 -0.000441 0.015195 0.000000 0.000000 0.000000
# 4 0.020687 -0.020687 0.000000 0.118788 0.000000 0.000000
# 5 0.000000 0.000000 0.000000 0.000000 0.118788 0.041374
# 6 0.000000 0.000000 0.000000 0.000000 0.041374 0.067100
#
#
# Mechanical properties :
#
#
# Convention : Reuss Voigt Hill
#
# Bulk Modulus (GPa) = 35.21448 38.86548 37.03998
# Shear Modulus (GPa) = 12.55656 20.23383 16.39519
#
# Velocity S-wave (km/s) = 2.49648 3.16907 2.85267
# Velocity P-wave (km/s) = 5.07824 5.71677 5.40694
#
# Compressibility (1/GPa) = 0.02839741
#
# Stress axis : x y z
#
# Youngs Moduli (GPa) = 48.74161 48.74161 65.81285
#
# Poissons Ratio (x) = 0.63527 0.02901
# Poissons Ratio (y) = 0.63527 0.02901
# Poissons Ratio (z) = 0.02148 0.02148
#
# Static dielectric constant tensor:
#      x y z
#    x 1.726750 0.000000 0.000000 
#    y 0.000000 1.726750 0.000000 
#    z 0.000000 0.000000 1.781620 
# 
# From -- ./inp_files/4724.got.cif
#   From: 2010.05.17/outbox.cif.g08.bks.cpg/sg166_3_cif.got.tgz:4724.got - 2010.05.20 11:04:41.
