data_PCOD9579568
_publ_section_title
;
Structure prediction by ZEFSAII (Michael W. Deem and Ramdas Pophale) SiO2 
 PCOD9579568
Probable space group: R -3 C 
;
_chemical_formula_sum "Si O2"
_cell_formula_units_Z 162
_cell_length_a 20.665571
_cell_length_b 20.665571
_cell_length_c 18.031733
_cell_angle_alpha 90.000000
_cell_angle_beta 90.000000
_cell_angle_gamma 120.000000
_cell_volume 6669.033805
_symmetry_space_group_name_H-M "R -3 C "
_symmetry_group_IT_number 167
_symmetry_cell_setting 'hexagonal'
loop_
_space_group_symop_operation_xyz
x,y,z
-y,x-y,z
-x+y,-x,z
x-y,-y,1/2-z
-x,-x+y,1/2-z
y,x,1/2-z
-x,-y,-z
y,-x+y,-z
x-y,x,-z
-x+y,y,1/2+z
x,x-y,1/2+z
-y,-x,1/2+z
2/3+x,1/3+y,1/3+z
2/3-y,1/3+x-y,1/3+z
2/3-x+y,1/3-x,1/3+z
2/3+x-y,1/3-y,5/6-z
2/3-x,1/3-x+y,5/6-z
2/3+y,1/3+x,5/6-z
2/3-x,1/3-y,1/3-z
2/3+y,1/3-x+y,1/3-z
2/3+x-y,1/3+x,1/3-z
2/3-x+y,1/3+y,5/6+z
2/3+x,1/3+x-y,5/6+z
2/3-y,1/3-x,5/6+z
1/3+x,2/3+y,2/3+z
1/3-y,2/3+x-y,2/3+z
1/3-x+y,2/3-x,2/3+z
1/3+x-y,2/3-y,1/6-z
1/3-x,2/3-x+y,1/6-z
1/3+y,2/3+x,1/6-z
1/3-x,2/3-y,2/3-z
1/3+y,2/3-x+y,2/3-z
1/3+x-y,2/3+x,2/3-z
1/3-x+y,2/3+y,1/6+z
1/3+x,2/3+x-y,1/6+z
1/3-y,2/3-x,1/6+z
loop_
_atom_site_type_symbol
_atom_site_label
_atom_site_fract_x
_atom_site_fract_y
_atom_site_fract_z
Si Si1 0.333334 0.813360 0.416667
Si Si2 0.533930 0.547565 0.417203
Si Si3 0.333334 0.095956 0.916667
Si Si4 0.966508 0.666667 0.916667
Si Si5 0.315269 0.740102 0.257625
Si Si6 0.276927 0.863603 0.222902
O O1 0.405732 0.896775 0.414430
O O2 0.322364 0.764710 0.343627
O O3 0.543320 0.531542 0.328750
O O4 0.619337 0.600018 0.442583
O O5 0.491991 0.461227 0.441067
O O6 0.406340 0.089814 0.930383
O O7 0.906674 0.629898 0.851438
O O8 0.257807 0.651924 0.243510
O O9 0.290451 0.793543 0.217356
#
# Coordination Sequence:
#
# PCOD9579568 Si02
#       6
#    18  36  18  18  36  36
#     4  11  20  44  69 111 160 199 270 318 388 485
#     4  10  22  40  70 104 148 203 255 328 396 458
#     4  10  21  46  65 105 146 199 258 324 384 461
#     4   9  23  44  68 106 142 194 256 332 394 450
#     4  10  24  45  71 111 155 212 256 321 396 475
#     4  11  22  46  73 104 153 194 265 318 399 479
#
# _framework density 24.291374999999999
#
# number of rings (size 3 to 8) (size 9 to 14) (size 15 to 20)
#    0.444    1.333    2.222    1.333    0.000    2.667 
#   20.000    0.000    0.000    5.333    0.000    0.000 
#    0.000    0.000    0.000    0.000    0.000    0.000 
#
# Total GULP energy -301640.552915 kJ/mol
# GULP energy per Si atom -5585.936165 kJ/mol
# Density = 2.423609 g / cm^3
# Si number density = 24.291375 Si / 1000 Ang^3
#
#
#
# Elastic Constant Matrix: (Units=GPa)
#
#
# Indices 1 2 3 4 5 6 
#
# 1 151.3785 90.1125 16.8897 -26.2205 -0.0011 0.0000
# 2 90.1125 151.3785 16.8897 26.2205 0.0011 0.0000
# 3 16.8897 16.8897 51.3900 0.0000 0.0000 0.0000
# 4 -26.2205 26.2205 0.0000 -3.5258 0.0000 0.0011
# 5 -0.0011 0.0011 0.0000 0.0000 -3.5258 -26.2205
# 6 0.0000 0.0000 0.0000 0.0011 -26.2205 30.6330
#
#
#
# Elastic Compliance Matrix: (Units=1/GPa)
#
#
# Indices 1 2 3 4 5 6 
#
# 1 0.003278 0.001062 -0.001427 -0.016480 -0.000001 0.000000
# 2 0.001062 0.003278 -0.001427 0.016480 0.000001 0.000000
# 3 -0.001427 -0.001427 0.020397 0.000000 0.000000 0.000000
# 4 -0.016480 0.016480 0.000000 -0.038507 0.000000 0.000001
# 5 -0.000001 0.000001 0.000000 0.000000 -0.038507 -0.032960
# 6 0.000000 0.000000 0.000000 0.000001 -0.032960 0.004432
#
#
# Mechanical properties :
#
#
# Convention : Reuss Voigt Hill
#
# Bulk Modulus (GPa) = 42.78703 66.88119 54.83411
# Shear Modulus (GPa) = -145.96009 20.06661 -62.94674
#
# Velocity S-wave (km/s) = -7.76000 2.87728 -5.09602
# Velocity P-wave (km/s) = 7.91441 6.21538 3.46460
#
# Compressibility (1/GPa) = 0.02337157
#
# Stress axis : x y z
#
# Youngs Moduli (GPa) = 305.03987 305.03987 49.02750
#
# Poissons Ratio (x) = -0.32402 0.06994
# Poissons Ratio (y) = -0.32402 0.06994
# Poissons Ratio (z) = 0.43515 0.43515
#
# Static dielectric constant tensor:
#      x y z
#    x 1.907890 0.000000 0.000000 
#    y 0.000000 1.907890 0.000000 
#    z 0.000000 0.000000 2.324730 
# 
# From -- ./inp_files/4481.got.cif
#   From: 2010.05.17/outbox.cif.g08.bks.cpg/sg167_3_cif.got.tgz:4481.got - 2010.05.20 11:09:15.
