data_PCOD9579157
_publ_section_title
;
Structure prediction by ZEFSAII (Michael W. Deem and Ramdas Pophale) SiO2 
 PCOD9579157
Probable space group: R -3 M
;
_chemical_formula_sum "Si O2"
_cell_formula_units_Z 162
_cell_length_a 21.132959
_cell_length_b 21.132959
_cell_length_c 23.837009
_cell_angle_alpha 90.000000
_cell_angle_beta 90.000000
_cell_angle_gamma 120.000000
_cell_volume 9219.407537
_symmetry_space_group_name_H-M "R -3 M"
_symmetry_group_IT_number 166
_symmetry_cell_setting 'hexagonal'
loop_
_space_group_symop_operation_xyz
x,y,z
-y,x-y,z
-x+y,-x,z
x-y,-y,-z
-x,-x+y,-z
y,x,-z
-x,-y,-z
y,-x+y,-z
x-y,x,-z
-x+y,y,z
x,x-y,z
-y,-x,z
2/3+x,1/3+y,1/3+z
2/3-y,1/3+x-y,1/3+z
2/3-x+y,1/3-x,1/3+z
2/3+x-y,1/3-y,1/3-z
2/3-x,1/3-x+y,1/3-z
2/3+y,1/3+x,1/3-z
2/3-x,1/3-y,1/3-z
2/3+y,1/3-x+y,1/3-z
2/3+x-y,1/3+x,1/3-z
2/3-x+y,1/3+y,1/3+z
2/3+x,1/3+x-y,1/3+z
2/3-y,1/3-x,1/3+z
1/3+x,2/3+y,2/3+z
1/3-y,2/3+x-y,2/3+z
1/3-x+y,2/3-x,2/3+z
1/3+x-y,2/3-y,2/3-z
1/3-x,2/3-x+y,2/3-z
1/3+y,2/3+x,2/3-z
1/3-x,2/3-y,2/3-z
1/3+y,2/3-x+y,2/3-z
1/3+x-y,2/3+x,2/3-z
1/3-x+y,2/3+y,2/3+z
1/3+x,2/3+x-y,2/3+z
1/3-y,2/3-x,2/3+z
loop_
_atom_site_type_symbol
_atom_site_label
_atom_site_fract_x
_atom_site_fract_y
_atom_site_fract_z
Si Si1 0.666850 0.183029 0.675605
Si Si2 0.463403 0.384082 0.779413
Si Si3 0.954317 0.755084 0.891191
Si Si4 0.485191 0.818524 0.666667
Si Si5 0.150747 0.999480 0.784901
O O1 0.599310 0.198619 0.678589
O O2 0.742503 0.257498 0.684449
O O3 0.653591 0.125032 0.723493
O O4 0.666191 0.156363 0.612060
O O5 0.540427 0.459574 0.786911
O O6 0.447360 0.333334 0.833334
O O7 0.400564 0.405147 0.772626
O O8 0.877223 0.754446 0.891800
O O9 0.997570 0.803278 0.944666
O O10 0.992556 0.793225 0.833068
O O11 0.405567 0.811133 0.666027
O O12 0.073879 0.926122 0.793375
O O13 0.139412 0.069706 0.789103
#
# Coordination Sequence:
#
# PCOD9579157 Si02
#       5
#    36  36  36  18  36
#     4   9  17  30  52  81 109 134 166 216 276 329
#     4  10  20  36  54  73 101 139 181 222 263 309
#     4   9  19  34  50  72 106 139 169 209 254 306
#     4  10  19  34  58  84 109 136 172 218 270 320
#     4   9  16  29  51  79 108 133 162 206 264 323
#
# _framework density 17.571628
#
# number of rings (size 3 to 8) (size 9 to 14) (size 15 to 20)
#    0.000    2.667    0.000    1.889    0.000    1.778 
#    4.000    2.222    0.000   10.222    0.000    0.000 
#    0.000    0.000    0.000    0.000    0.000    0.000 
#
# Total GULP energy -301102.040206 kJ/mol
# GULP energy per Si atom -5575.963708 kJ/mol
# Density = 1.753163 g / cm^3
# Si number density = 17.571628 Si / 1000 Ang^3
#
#
#
# Elastic Constant Matrix: (Units=GPa)
#
#
# Indices 1 2 3 4 5 6 
#
# 1 76.4108 37.7305 84.6053 3.8853 0.0002 0.0000
# 2 37.7305 76.4108 84.6053 -3.8853 -0.0002 0.0000
# 3 84.6053 84.6053 192.7373 0.0000 0.0000 0.0000
# 4 3.8853 -3.8853 0.0000 9.3833 0.0000 -0.0002
# 5 0.0002 -0.0002 0.0000 0.0000 9.3833 3.8853
# 6 0.0000 0.0000 0.0000 -0.0002 3.8853 19.3401
#
#
#
# Elastic Compliance Matrix: (Units=1/GPa)
#
#
# Indices 1 2 3 4 5 6 
#
# 1 0.026642 -0.001556 -0.011012 -0.011676 -0.000001 0.000000
# 2 -0.001556 0.026642 -0.011012 0.011676 0.000001 0.000000
# 3 -0.011012 -0.011012 0.014856 0.000000 0.000000 0.000000
# 4 -0.011676 0.011676 0.000000 0.116242 0.000000 0.000001
# 5 -0.000001 0.000001 0.000000 0.000000 0.116242 -0.023352
# 6 0.000000 0.000000 0.000000 0.000001 -0.023352 0.056397
#
#
# Mechanical properties :
#
#
# Convention : Reuss Voigt Hill
#
# Bulk Modulus (GPa) = 47.66391 84.38236 66.02313
# Shear Modulus (GPa) = 12.16027 16.86252 14.51140
#
# Velocity S-wave (km/s) = 2.63352 3.10117 2.87687
# Velocity P-wave (km/s) = 6.03586 7.80700 6.97785
#
# Compressibility (1/GPa) = 0.02098024
#
# Stress axis : x y z
#
# Youngs Moduli (GPa) = 37.53454 37.53454 67.31273
#
# Poissons Ratio (x) = 0.05842 0.74123
# Poissons Ratio (y) = 0.05842 0.74123
# Poissons Ratio (z) = 0.41332 0.41332
#
# Static dielectric constant tensor:
#      x y z
#    x 1.575000 0.000000 0.000000 
#    y 0.000000 1.575000 0.000000 
#    z 0.000000 0.000000 1.594520 
# 
# From -- ./inp_files/6805.got.cif
#   From: 2010.05.17/outbox.cif.g08.bks.cpg/sg166_4_cif.got.tgz:6805.got - 2010.05.20 11:04:41.
