data_PCOD9579275
_publ_section_title
;
Structure prediction by ZEFSAII (Michael W. Deem and Ramdas Pophale) SiO2 
 PCOD9579275
Probable space group: R -3 M
;
_chemical_formula_sum "Si O2"
_cell_formula_units_Z 126
_cell_length_a 19.975805
_cell_length_b 19.975805
_cell_length_c 17.689659
_cell_angle_alpha 90.000000
_cell_angle_beta 90.000000
_cell_angle_gamma 120.000000
_cell_volume 6113.060200
_symmetry_space_group_name_H-M "R -3 M"
_symmetry_group_IT_number 166
_symmetry_cell_setting 'hexagonal'
loop_
_space_group_symop_operation_xyz
x,y,z
-y,x-y,z
-x+y,-x,z
x-y,-y,-z
-x,-x+y,-z
y,x,-z
-x,-y,-z
y,-x+y,-z
x-y,x,-z
-x+y,y,z
x,x-y,z
-y,-x,z
2/3+x,1/3+y,1/3+z
2/3-y,1/3+x-y,1/3+z
2/3-x+y,1/3-x,1/3+z
2/3+x-y,1/3-y,1/3-z
2/3-x,1/3-x+y,1/3-z
2/3+y,1/3+x,1/3-z
2/3-x,1/3-y,1/3-z
2/3+y,1/3-x+y,1/3-z
2/3+x-y,1/3+x,1/3-z
2/3-x+y,1/3+y,1/3+z
2/3+x,1/3+x-y,1/3+z
2/3-y,1/3-x,1/3+z
1/3+x,2/3+y,2/3+z
1/3-y,2/3+x-y,2/3+z
1/3-x+y,2/3-x,2/3+z
1/3+x-y,2/3-y,2/3-z
1/3-x,2/3-x+y,2/3-z
1/3+y,2/3+x,2/3-z
1/3-x,2/3-y,2/3-z
1/3+y,2/3-x+y,2/3-z
1/3+x-y,2/3+x,2/3-z
1/3-x+y,2/3+y,2/3+z
1/3+x,2/3+x-y,2/3+z
1/3-y,2/3-x,2/3+z
loop_
_atom_site_type_symbol
_atom_site_label
_atom_site_fract_x
_atom_site_fract_y
_atom_site_fract_z
Si Si1 0.483524 0.666667 0.166667
Si Si2 0.413155 0.318701 0.698693
Si Si3 0.507809 0.173065 0.552687
Si Si4 0.616566 0.073772 0.261289
O O1 0.472660 0.736330 0.136981
O O2 0.546048 0.698462 0.233058
O O3 0.333334 0.249316 0.666667
O O4 0.471485 0.348133 0.628234
O O5 0.393873 0.382942 0.730281
O O6 0.592505 0.185009 0.539470
O O7 0.510925 0.255463 0.560639
O O8 0.451471 0.128355 0.482426
O O9 0.532828 0.065656 0.263761
O O10 0.666667 0.121386 0.333334
#
# Coordination Sequence:
#
# PCOD9579275 Si02
#       4
#    18  36  36  36
#     4  12  25  42  64  90 123 160 200 246 298 358
#     4  11  24  41  62  90 121 158 201 247 301 355
#     4  11  23  40  63  90 122 159 200 247 298 355
#     4  10  21  38  60  88 122 159 201 247 298 355
#
# _framework density 20.611606999999999
#
# number of rings (size 3 to 8) (size 9 to 14) (size 15 to 20)
#    0.000    1.143    0.000    6.429    0.000    8.000 
#    0.000   10.000    0.000    4.571    0.000    0.000 
#    0.000    0.000    0.000    0.000    0.000    0.000 
#
# Total GULP energy -234936.668044 kJ/mol
# GULP energy per Si atom -5593.730192 kJ/mol
# Density = 2.056469 g / cm^3
# Si number density = 20.611607 Si / 1000 Ang^3
#
#
#
# Elastic Constant Matrix: (Units=GPa)
#
#
# Indices 1 2 3 4 5 6 
#
# 1 -224.6799 374.9316 40.7164 -43.2038 0.0083 0.0000
# 2 374.9316 -224.6799 40.7164 43.2038 -0.0083 0.0000
# 3 40.7164 40.7164 120.2185 0.0000 0.0000 0.0000
# 4 -43.2038 43.2038 0.0000 19.0929 0.0000 -0.0083
# 5 0.0083 -0.0083 0.0000 0.0000 19.0929 -43.2038
# 6 0.0000 0.0000 0.0000 -0.0083 -43.2038 -299.8058
#
#
#
# Elastic Compliance Matrix: (Units=1/GPa)
#
#
# Indices 1 2 3 4 5 6 
#
# 1 0.003447 0.004705 -0.002761 -0.002846 0.000001 0.000000
# 2 0.004705 0.003447 -0.002761 0.002846 -0.000001 0.000000
# 3 -0.002761 -0.002761 0.010188 0.000000 0.000000 0.000000
# 4 -0.002846 0.002846 0.000000 0.039496 0.000000 -0.000001
# 5 0.000001 -0.000001 0.000000 0.000000 0.039496 -0.005692
# 6 0.000000 0.000000 0.000000 -0.000001 -0.005692 -0.002515
#
#
# Mechanical properties :
#
#
# Convention : Reuss Voigt Hill
#
# Bulk Modulus (GPa) = 64.73174 64.84306 64.78740
# Shear Modulus (GPa) = 49.82876 -104.69105 -27.43115
#
# Velocity S-wave (km/s) = 4.92215 -7.13460 -3.65205
# Velocity P-wave (km/s) = 7.98606 6.02846 3.70370
#
# Compressibility (1/GPa) = 0.01544837
#
# Stress axis : x y z
#
# Youngs Moduli (GPa) = 290.09880 290.09880 98.15119
#
# Poissons Ratio (x) = -1.36484 0.27099
# Poissons Ratio (y) = -1.36484 0.27099
# Poissons Ratio (z) = 0.80094 0.80094
#
# Static dielectric constant tensor:
#      x y z
#    x 1.739810 0.000000 0.000000 
#    y 0.000000 1.739810 0.000000 
#    z 0.000000 0.000000 1.713370 
# 
# From -- ./inp_files/4870.got.cif
#   From: 2010.05.17/outbox.cif.g08.bks.cpg/sg166_3_cif.got.tgz:4870.got - 2010.05.20 11:04:41.
