data_PCOD9579339
_publ_section_title
;
Structure prediction by ZEFSAII (Michael W. Deem and Ramdas Pophale) SiO2 
 PCOD9579339
Probable space group: R -3 M
;
_chemical_formula_sum "Si O2"
_cell_formula_units_Z 144
_cell_length_a 29.790438
_cell_length_b 29.790438
_cell_length_c 9.830572
_cell_angle_alpha 90.000000
_cell_angle_beta 90.000000
_cell_angle_gamma 120.000000
_cell_volume 7555.499778
_symmetry_space_group_name_H-M "R -3 M"
_symmetry_group_IT_number 166
_symmetry_cell_setting 'hexagonal'
loop_
_space_group_symop_operation_xyz
x,y,z
-y,x-y,z
-x+y,-x,z
x-y,-y,-z
-x,-x+y,-z
y,x,-z
-x,-y,-z
y,-x+y,-z
x-y,x,-z
-x+y,y,z
x,x-y,z
-y,-x,z
2/3+x,1/3+y,1/3+z
2/3-y,1/3+x-y,1/3+z
2/3-x+y,1/3-x,1/3+z
2/3+x-y,1/3-y,1/3-z
2/3-x,1/3-x+y,1/3-z
2/3+y,1/3+x,1/3-z
2/3-x,1/3-y,1/3-z
2/3+y,1/3-x+y,1/3-z
2/3+x-y,1/3+x,1/3-z
2/3-x+y,1/3+y,1/3+z
2/3+x,1/3+x-y,1/3+z
2/3-y,1/3-x,1/3+z
1/3+x,2/3+y,2/3+z
1/3-y,2/3+x-y,2/3+z
1/3-x+y,2/3-x,2/3+z
1/3+x-y,2/3-y,2/3-z
1/3-x,2/3-x+y,2/3-z
1/3+y,2/3+x,2/3-z
1/3-x,2/3-y,2/3-z
1/3+y,2/3-x+y,2/3-z
1/3+x-y,2/3+x,2/3-z
1/3-x+y,2/3+y,2/3+z
1/3+x,2/3+x-y,2/3+z
1/3-y,2/3-x,2/3+z
loop_
_atom_site_type_symbol
_atom_site_label
_atom_site_fract_x
_atom_site_fract_y
_atom_site_fract_z
Si Si1 0.241609 0.120805 0.903575
Si Si2 0.904988 0.635251 0.531554
Si Si3 0.394509 0.789017 0.818613
Si Si4 0.884109 0.942055 0.821323
Si Si5 0.957870 0.388471 0.615907
Si Si6 0.783244 0.216757 0.099990
O O1 0.271627 0.180269 0.858243
O O2 0.184528 0.092264 0.834311
O O3 0.240178 0.120089 0.068434
O O4 0.908845 0.666667 0.666667
O O5 0.924453 0.595055 0.566633
O O6 0.940535 0.676819 0.417897
O O7 0.392472 0.784943 0.653455
O O8 0.336317 0.758160 0.875733
O O9 0.828374 0.914187 0.752328
O O10 0.924866 0.417502 0.628348
O O11 0.000000 0.419009 0.500000
#
# Coordination Sequence:
#
# PCOD9579339 Si02
#       6
#    18  36  18  18  36  18
#     4  11  22  38  57  85 120 159 200 247 306 361
#     4  12  25  41  61  87 120 158 201 252 304 365
#     4   9  17  30  52  81 118 156 194 240 298 358
#     4   9  17  30  51  82 118 153 196 241 296 356
#     4  12  23  40  62  86 117 154 203 248 302 357
#     4  11  22  37  58  87 116 158 202 252 298 362
#
# _framework density 19.058965000000001
#
# number of rings (size 3 to 8) (size 9 to 14) (size 15 to 20)
#    0.000    1.000    2.500    6.250    0.000    3.000 
#    0.000    0.000    0.000    0.000    0.000    0.000 
#    0.000    0.000    0.000   14.750    0.000    4.750 
#
# Total GULP energy -268211.385353 kJ/mol
# GULP energy per Si atom -5587.737195 kJ/mol
# Density = 1.901559 g / cm^3
# Si number density = 19.058965 Si / 1000 Ang^3
#
#
#
# Elastic Constant Matrix: (Units=GPa)
#
#
# Indices 1 2 3 4 5 6 
#
# 1 144.7049 65.6575 15.3438 6.7282 -0.0101 0.0111
# 2 65.6575 144.6519 15.3146 -6.7149 -0.0415 -0.0116
# 3 15.3438 15.3146 54.8784 0.0178 -0.0424 0.0129
# 4 6.7282 -6.7149 0.0178 14.1674 0.0206 -0.0179
# 5 -0.0101 -0.0415 -0.0424 0.0206 14.1653 6.7230
# 6 0.0111 -0.0116 0.0129 -0.0179 6.7230 39.5362
#
#
#
# Elastic Compliance Matrix: (Units=1/GPa)
#
#
# Indices 1 2 3 4 5 6 
#
# 1 0.009360 -0.004405 -0.001386 -0.006531 0.000002 -0.000007
# 2 -0.004405 0.009362 -0.001383 0.006531 0.000008 0.000006
# 3 -0.001386 -0.001383 0.018996 -0.000021 0.000060 -0.000016
# 4 -0.006531 0.006531 -0.000021 0.076782 -0.000126 0.000060
# 5 0.000002 0.000008 0.000060 -0.000126 0.076793 -0.013059
# 6 -0.000007 0.000006 -0.000016 0.000060 -0.013059 0.027514
#
#
# Mechanical properties :
#
#
# Convention : Reuss Voigt Hill
#
# Bulk Modulus (GPa) = 42.78953 59.65189 51.22071
# Shear Modulus (GPa) = 20.75172 30.10174 25.42673
#
# Velocity S-wave (km/s) = 3.30330 3.97848 3.65651
# Velocity P-wave (km/s) = 6.08678 7.24368 6.69029
#
# Compressibility (1/GPa) = 0.02337020
#
# Stress axis : x y z
#
# Youngs Moduli (GPa) = 106.83899 106.81295 52.64392
#
# Poissons Ratio (x) = 0.47050 0.07294
# Poissons Ratio (y) = 0.47062 0.07281
# Poissons Ratio (z) = 0.14804 0.14774
#
# Static dielectric constant tensor:
#      x y z
#    x 1.656600 0.000000 -0.000010 
#    y 0.000000 1.656610 0.000000 
#    z -0.000010 0.000000 1.651890 
# 
# From -- ./inp_files/1889.got.cif
#   From: 2010.05.17/outbox.cif.g08.bks.cpg/sg166_1_cif.got.tgz:1889.got - 2010.05.20 11:04:41.
