data_PCOD9579901
_publ_section_title
;
Structure prediction by ZEFSAII (Michael W. Deem and Ramdas Pophale) SiO2 
 PCOD9579901
Probable space group: P 61
;
_chemical_formula_sum "Si O2"
_cell_formula_units_Z 42
_cell_length_a 14.898116
_cell_length_b 14.898116
_cell_length_c 11.097398
_cell_angle_alpha 90.000000
_cell_angle_beta 90.000000
_cell_angle_gamma 120.000000
_cell_volume 2133.116115
_symmetry_space_group_name_H-M "P 61"
_symmetry_group_IT_number 169
_symmetry_cell_setting 'hexagonal'
loop_
_space_group_symop_operation_xyz
x,y,z
x-y,x,1/6+z
-y,x-y,1/3+z
-x,-y,1/2+z
-x+y,-x,2/3+z
y,-x+y,5/6+z
loop_
_atom_site_type_symbol
_atom_site_label
_atom_site_fract_x
_atom_site_fract_y
_atom_site_fract_z
Si Si1 0.653736 0.758110 0.215110
Si Si2 0.404932 0.114068 0.025205
Si Si3 0.400434 0.123775 0.512870
Si Si4 0.745495 0.523514 0.923427
Si Si5 0.522835 0.341560 0.909071
Si Si6 0.500000 0.572406 0.654446
Si Si7 0.071580 0.874099 0.740220
O O1 0.703734 0.694936 0.156428
O O2 0.550356 0.682643 0.292881
O O3 0.739359 0.838654 0.308218
O O4 0.626048 0.819806 0.117649
O O5 0.401775 0.130357 0.167110
O O6 0.477205 0.227268 0.966817
O O7 0.290294 0.061029 0.968560
O O8 0.455864 0.044151 0.003728
O O9 0.441778 0.192123 0.393048
O O10 0.492395 0.101412 0.545117
O O11 0.647425 0.408188 0.894477
O O12 0.852127 0.532233 0.885150
O O13 0.507240 0.409604 0.011810
O O14 0.967218 0.851429 0.670944
#
# Coordination Sequence:
#
# PCOD9579901 Si02
#       7
#     6   6   6   6   6   6   6
#     4  11  22  41  63  94 125 171 217 265 331 395
#     4  10  20  39  67  88 124 166 215 261 318 390
#     4  11  25  39  62  94 132 169 212 267 334 394
#     4  10  22  40  58  92 133 165 210 268 319 399
#     4   9  21  38  63  89 122 163 214 267 319 381
#     4  10  22  40  61  91 123 167 215 264 321 391
#     4  11  22  43  70  96 127 167 221 276 324 392
#
# _framework density 19.689505
#
# number of rings (size 3 to 8) (size 9 to 14) (size 15 to 20)
#    0.000    1.714    1.429    3.429    4.000    4.571 
#    0.000    4.286    0.000    0.000    0.000    0.000 
#    0.000    0.000    0.000    0.000    0.000    0.000 
#
# Total GULP energy -234398.671624 kJ/mol
# GULP energy per Si atom -5580.920753 kJ/mol
# Density = 1.964469 g / cm^3
# Si number density = 19.689505 Si / 1000 Ang^3
#
#
#
# Elastic Constant Matrix: (Units=GPa)
#
#
# Indices 1 2 3 4 5 6 
#
# 1 69.1608 32.6933 36.0507 0.0000 0.0000 0.0000
# 2 32.6933 69.1608 36.0507 0.0000 0.0000 0.0000
# 3 36.0507 36.0507 70.0365 0.0000 0.0000 0.0000
# 4 0.0000 0.0000 0.0000 27.0330 0.0000 0.0000
# 5 0.0000 0.0000 0.0000 0.0000 27.0330 0.0000
# 6 0.0000 0.0000 0.0000 0.0000 0.0000 18.2338
#
#
#
# Elastic Compliance Matrix: (Units=1/GPa)
#
#
# Indices 1 2 3 4 5 6 
#
# 1 0.021434 -0.005988 -0.007951 0.000000 0.000000 0.000000
# 2 -0.005988 0.021434 -0.007951 0.000000 0.000000 0.000000
# 3 -0.007951 -0.007951 0.022464 0.000000 0.000000 0.000000
# 4 0.000000 0.000000 0.000000 0.036992 0.000000 0.000000
# 5 0.000000 0.000000 0.000000 0.000000 0.036992 0.000000
# 6 0.000000 0.000000 0.000000 0.000000 0.000000 0.054843
#
#
# Mechanical properties :
#
#
# Convention : Reuss Voigt Hill
#
# Bulk Modulus (GPa) = 46.39787 46.43861 46.41824
# Shear Modulus (GPa) = 20.39806 21.36419 20.88113
#
# Velocity S-wave (km/s) = 3.22217 3.29759 3.26010
# Velocity P-wave (km/s) = 6.12038 6.17539 6.14795
#
# Compressibility (1/GPa) = 0.02155272
#
# Stress axis : x y z
#
# Youngs Moduli (GPa) = 46.65492 46.65492 44.51654
#
# Poissons Ratio (x) = 0.27935 0.35394
# Poissons Ratio (y) = 0.27935 0.35394
# Poissons Ratio (z) = 0.37095 0.37095
#
# Static dielectric constant tensor:
#      x y z
#    x 1.696800 0.000000 0.000000 
#    y 0.000000 1.696800 0.000000 
#    z 0.000000 0.000000 1.710940 
# 
# From -- ./inp_files/983.got.cif
#   From: 2010.05.17/outbox.cif.g08.bks.cpg/sg169_cif.got.tgz:983.got - 2010.05.20 11:12:54.
