data_PCOD9579362
_publ_section_title
;
Structure prediction by ZEFSAII (Michael W. Deem and Ramdas Pophale) SiO2 
 PCOD9579362
Probable space group: R -3 M
;
_chemical_formula_sum "Si O2"
_cell_formula_units_Z 48
_cell_length_a 30.000000
_cell_length_b 30.000000
_cell_length_c 9.000000
_cell_angle_alpha 90.000000
_cell_angle_beta 90.000000
_cell_angle_gamma 120.000000
_cell_volume 7014.805771
_symmetry_space_group_name_H-M "R -3 M"
_symmetry_group_IT_number 166
_symmetry_cell_setting 'hexagonal'
loop_
_space_group_symop_operation_xyz
x,y,z
-y,x-y,z
-x+y,-x,z
x-y,-y,-z
-x,-x+y,-z
y,x,-z
-x,-y,-z
y,-x+y,-z
x-y,x,-z
-x+y,y,z
x,x-y,z
-y,-x,z
2/3+x,1/3+y,1/3+z
2/3-y,1/3+x-y,1/3+z
2/3-x+y,1/3-x,1/3+z
2/3+x-y,1/3-y,1/3-z
2/3-x,1/3-x+y,1/3-z
2/3+y,1/3+x,1/3-z
2/3-x,1/3-y,1/3-z
2/3+y,1/3-x+y,1/3-z
2/3+x-y,1/3+x,1/3-z
2/3-x+y,1/3+y,1/3+z
2/3+x,1/3+x-y,1/3+z
2/3-y,1/3-x,1/3+z
1/3+x,2/3+y,2/3+z
1/3-y,2/3+x-y,2/3+z
1/3-x+y,2/3-x,2/3+z
1/3+x-y,2/3-y,2/3-z
1/3-x,2/3-x+y,2/3-z
1/3+y,2/3+x,2/3-z
1/3-x,2/3-y,2/3-z
1/3+y,2/3-x+y,2/3-z
1/3+x-y,2/3+x,2/3-z
1/3-x+y,2/3+y,2/3+z
1/3+x,2/3+x-y,2/3+z
1/3-y,2/3-x,2/3+z
loop_
_atom_site_type_symbol
_atom_site_label
_atom_site_fract_x
_atom_site_fract_y
_atom_site_fract_z
Si Si1 0.742556 0.587718 0.949595
Si Si2 0.355092 0.230821 0.509896
Si Si3 0.765161 0.431635 0.156956
Si Si4 0.792259 0.967457 0.288944
O O1 0.791869 0.583737 0.997189
O O2 0.756682 0.646953 0.944720
O O3 0.727245 0.564385 0.780599
O O4 0.691886 0.555026 0.041597
O O5 0.349227 0.174614 0.517265
O O6 0.333334 0.238703 0.666667
O O7 0.415112 0.269716 0.501317
O O8 0.724049 0.448098 0.108563
O O9 0.741837 0.370919 0.136814
O O10 0.775042 0.441708 0.333334
O O11 0.819253 0.460112 0.074653
#
# Coordination Sequence:
#
# PCOD9579362 Si02
#       4
#    36  36  36  36
#     4   9  17  28  46  73  99 120 150 197 245 285
#     4   8  14  26  44  66  92 123 156 189 230 283
#     4  10  20  33  49  69  96 131 169 204 234 272
#     4  10  17  28  50  73  93 124 162 198 237 286
#
# _framework density 6.84267
#
# number of rings (size 3 to 8) (size 9 to 14) (size 15 to 20)
#    0.000    2.750    0.000    4.750    0.000    1.000 
#    0.000    0.000    0.000   15.000    0.000   15.750 
#    0.000    0.000    0.000    0.000    0.000    0.000 
#
# Total GULP energy -267241.279753 kJ/mol
# GULP energy per Si atom -5567.526662 kJ/mol
# Density = 0.682710 g / cm^3
# Si number density = 6.842670 Si / 1000 Ang^3
#
#
#
# Elastic Constant Matrix: (Units=GPa)
#
#
# Indices 1 2 3 4 5 6 
#
# 1 123.7619 -52.6569 0.2427 -26.8435 0.0401 0.1981
# 2 -52.6569 123.5565 0.0575 26.8241 -0.0381 -0.0226
# 3 0.2427 0.0575 -5.9151 -0.0266 0.0670 0.0457
# 4 -26.8435 26.8241 -0.0266 19.0260 -0.0010 -0.0525
# 5 0.0401 -0.0381 0.0670 -0.0010 19.0060 -26.7385
# 6 0.1981 -0.0226 0.0457 -0.0525 -26.7385 88.0562
#
#
#
# Elastic Compliance Matrix: (Units=1/GPa)
#
#
# Indices 1 2 3 4 5 6 
#
# 1 0.011999 0.002072 0.000448 0.014008 -0.000083 -0.000044
# 2 0.002072 0.012021 0.000265 -0.014024 0.000007 -0.000008
# 3 0.000448 0.000265 -0.169020 0.000024 0.001253 0.000467
# 4 0.014008 -0.014024 0.000024 0.092096 -0.000044 0.000006
# 5 -0.000083 0.000007 0.001253 -0.000044 0.091846 0.027889
# 6 -0.000044 -0.000008 0.000467 0.000006 0.027889 0.019825
#
#
# Mechanical properties :
#
#
# Convention : Reuss Voigt Hill
#
# Bulk Modulus (GPa) = -7.17214 15.18777 4.00782
# Shear Modulus (GPa) = 744.06108 44.80162 394.43135
#
# Velocity S-wave (km/s) = 19.05907 4.67675 13.87660
# Velocity P-wave (km/s) = 21.92783 6.04792 16.08426
#
# Compressibility (1/GPa) = -0.13942832
#
# Stress axis : x y z
#
# Youngs Moduli (GPa) = 83.33788 83.18664 -5.91645
#
# Poissons Ratio (x) = -0.17239 0.00265
# Poissons Ratio (y) = -0.17271 0.00157
# Poissons Ratio (z) = -0.03735 -0.02205
#
# Static dielectric constant tensor:
#      x y z
#    x 1.746910 -0.000010 -0.000040 
#    y -0.000010 1.746930 0.000000 
#    z -0.000040 0.000000 1.759140 
# 
# From -- ./inp_files/1796.got.cif
#   From: 2010.05.17/outbox.ucp.g08.bks.cvg/sg166_1_cif.got.tgz:1796.got - 2010.06.11 15:16:39.
