data_PCOD9579367
_publ_section_title
;
Structure prediction by ZEFSAII (Michael W. Deem and Ramdas Pophale) SiO2 
 PCOD9579367
Probable space group: R -3 M
;
_chemical_formula_sum "Si O2"
_cell_formula_units_Z 90
_cell_length_a 27.000000
_cell_length_b 27.000000
_cell_length_c 24.000000
_cell_angle_alpha 90.000000
_cell_angle_beta 90.000000
_cell_angle_gamma 120.000000
_cell_volume 15151.980465
_symmetry_space_group_name_H-M "R -3 M"
_symmetry_group_IT_number 166
_symmetry_cell_setting 'hexagonal'
loop_
_space_group_symop_operation_xyz
x,y,z
-y,x-y,z
-x+y,-x,z
x-y,-y,-z
-x,-x+y,-z
y,x,-z
-x,-y,-z
y,-x+y,-z
x-y,x,-z
-x+y,y,z
x,x-y,z
-y,-x,z
2/3+x,1/3+y,1/3+z
2/3-y,1/3+x-y,1/3+z
2/3-x+y,1/3-x,1/3+z
2/3+x-y,1/3-y,1/3-z
2/3-x,1/3-x+y,1/3-z
2/3+y,1/3+x,1/3-z
2/3-x,1/3-y,1/3-z
2/3+y,1/3-x+y,1/3-z
2/3+x-y,1/3+x,1/3-z
2/3-x+y,1/3+y,1/3+z
2/3+x,1/3+x-y,1/3+z
2/3-y,1/3-x,1/3+z
1/3+x,2/3+y,2/3+z
1/3-y,2/3+x-y,2/3+z
1/3-x+y,2/3-x,2/3+z
1/3+x-y,2/3-y,2/3-z
1/3-x,2/3-x+y,2/3-z
1/3+y,2/3+x,2/3-z
1/3-x,2/3-y,2/3-z
1/3+y,2/3-x+y,2/3-z
1/3+x-y,2/3+x,2/3-z
1/3-x+y,2/3+y,2/3+z
1/3+x,2/3+x-y,2/3+z
1/3-y,2/3-x,2/3+z
loop_
_atom_site_type_symbol
_atom_site_label
_atom_site_fract_x
_atom_site_fract_y
_atom_site_fract_z
Si Si1 0.880647 0.880647 0.000000
Si Si2 0.298411 0.819012 0.432222
Si Si3 0.117356 0.000032 0.563678
Si Si4 0.551272 0.560423 0.911649
Si Si5 0.798152 0.956621 0.665988
Si Si6 0.560602 0.551644 0.220073
Si Si7 0.342161 0.955920 0.299012
Si Si8 0.145113 0.631187 0.776011
O O1 0.846539 0.846659 0.944253
O O2 0.886000 0.943000 0.000204
O O3 0.245562 0.754439 0.430502
O O4 0.269143 0.857898 0.418859
O O5 0.344564 0.829717 0.385737
O O6 0.323598 0.832513 0.494980
O O7 0.121860 0.060930 0.574414
O O8 0.136917 0.000000 0.500000
O O9 0.150800 0.984907 0.609503
O O10 0.051230 0.948771 0.566181
O O11 0.501949 0.498052 0.931378
O O12 0.559355 0.556409 0.845700
O O13 0.610868 0.583557 0.943033
O O14 0.781404 0.890702 0.665876
O O15 0.746251 0.969331 0.668134
O O16 0.496437 0.503564 0.239060
O O17 0.590706 0.612199 0.249618
O O18 0.600743 0.523995 0.230617
O O19 0.338589 0.005255 0.333334
O O20 0.157531 0.578766 0.778852
#
# Coordination Sequence:
#
# PCOD9579367 Si02
#       8
#    18  36  36  36  36  36  36  36
#     4  10  19  32  52  82 114 142 173 218 274 334
#     4   9  17  35  57  79 107 143 184 228 275 326
#     4   9  18  33  53  77 107 147 192 235 277 325
#     4   9  19  36  58  83 107 137 184 233 276 322
#     4  11  23  36  51  77 113 148 185 229 280 330
#     4   9  19  37  58  79 107 141 179 229 278 326
#     4  12  23  35  53  81 108 145 181 222 274 330
#     4   8  17  33  56  81 106 138 180 223 268 325
#
# _framework density 5.9398179999999998
#
# number of rings (size 3 to 8) (size 9 to 14) (size 15 to 20)
#    0.000    2.400    1.333    3.000    0.933    3.467 
#    0.000    2.667    0.000    0.267    0.000    1.867 
#    0.000    0.000    0.000    0.000    0.000    0.000 
#
# Total GULP energy -501667.146130 kJ/mol
# GULP energy per Si atom -5574.079401 kJ/mol
# Density = 0.592630 g / cm^3
# Si number density = 5.939818 Si / 1000 Ang^3
#
#
#
# Elastic Constant Matrix: (Units=GPa)
#
#
# Indices 1 2 3 4 5 6 
#
# 1 61.4740 27.8370 39.5244 -3.2578 -0.0001 0.0000
# 2 27.8370 61.4740 39.5244 3.2578 0.0001 0.0000
# 3 39.5244 39.5244 92.2795 0.0000 0.0000 0.0000
# 4 -3.2578 3.2578 0.0000 30.5742 0.0000 0.0001
# 5 -0.0001 0.0001 0.0000 0.0000 30.5742 -3.2578
# 6 0.0000 0.0000 0.0000 0.0001 -3.2578 16.8185
#
#
#
# Elastic Compliance Matrix: (Units=1/GPa)
#
#
# Indices 1 2 3 4 5 6 
#
# 1 0.024194 -0.006161 -0.007724 0.003235 0.000000 0.000000
# 2 -0.006161 0.024194 -0.007724 -0.003235 0.000000 0.000000
# 3 -0.007724 -0.007724 0.017453 0.000000 0.000000 0.000000
# 4 0.003235 -0.003235 0.000000 0.033397 0.000000 0.000000
# 5 0.000000 0.000000 0.000000 0.000000 0.033397 0.006469
# 6 0.000000 0.000000 0.000000 0.000000 0.006469 0.060711
#
#
# Mechanical properties :
#
#
# Convention : Reuss Voigt Hill
#
# Bulk Modulus (GPa) = 44.20069 47.66656 45.93362
# Shear Modulus (GPa) = 20.48295 22.81619 21.64957
#
# Velocity S-wave (km/s) = 3.39406 3.58216 3.48938
# Velocity P-wave (km/s) = 6.34178 6.62699 6.48595
#
# Compressibility (1/GPa) = 0.02262408
#
# Stress axis : x y z
#
# Youngs Moduli (GPa) = 41.33188 41.33188 57.29668
#
# Poissons Ratio (x) = 0.25466 0.44255
# Poissons Ratio (y) = 0.25466 0.44255
# Poissons Ratio (z) = 0.31924 0.31924
#
# Static dielectric constant tensor:
#      x y z
#    x 1.603180 0.000000 0.000000 
#    y 0.000000 1.603180 0.000000 
#    z 0.000000 0.000000 1.641660 
# 
# From -- ./inp_files/8723.got.cif
#   From: 2010.05.17/outbox.ucp.g08.bks.cvg/sg166_5_cif.got.tgz:8723.got - 2010.06.11 15:16:39.
