data_PCOD9579753
_publ_section_title
;
Structure prediction by ZEFSAII (Michael W. Deem and Ramdas Pophale) SiO2 
 PCOD9579753
Probable space group: P 6
;
_chemical_formula_sum "Si O2"
_cell_formula_units_Z 30
_cell_length_a 10.676801
_cell_length_b 10.676801
_cell_length_c 13.920274
_cell_angle_alpha 90.000000
_cell_angle_beta 90.000000
_cell_angle_gamma 120.000000
_cell_volume 1374.234072
_symmetry_space_group_name_H-M "P 6"
_symmetry_group_IT_number 168
_symmetry_cell_setting 'hexagonal'
loop_
_space_group_symop_operation_xyz
x,y,z
x-y,x,z
-y,x-y,z
-x,-y,z
-x+y,-x,z
y,-x+y,z
loop_
_atom_site_type_symbol
_atom_site_label
_atom_site_fract_x
_atom_site_fract_y
_atom_site_fract_z
Si Si1 0.743013 0.668948 0.932270
Si Si2 0.832719 0.340328 0.329486
Si Si3 0.930857 0.259327 0.518462
Si Si4 0.668948 0.925935 0.726702
Si Si5 0.328469 0.069143 0.140510
O O1 0.721403 0.808033 0.932253
O O2 0.683581 0.590791 0.829486
O O3 0.685270 0.596085 0.035882
O O4 0.799217 0.470538 0.329486
O O5 0.905227 0.333541 0.427427
O O6 0.905228 0.333541 0.231545
O O7 0.089814 0.278922 0.513822
O O8 0.910815 0.314730 0.623090
O O9 0.721403 0.808033 0.726719
O O10 0.278922 0.189108 0.145150
#
# Coordination Sequence:
#
# PCOD9579753 Si02
#       5
#     6   6   6   6   6
#     4   8  13  22  40  70 105 133 152 177 229 300
#     4  10  24  40  50  66  90 134 186 210 242 288
#     4  10  19  32  54  81 106 128 155 202 255 299
#     4   8  13  22  40  70 105 133 152 177 229 300
#     4  10  19  32  54  81 106 128 155 202 255 299
#
# _framework density 21.83034
#
# number of rings (size 3 to 8) (size 9 to 14) (size 15 to 20)
#    0.400    2.400    0.000    2.000    0.000    8.000 
#    0.000    2.000    0.000    2.400    0.000   11.200 
#    0.000    0.000    0.000    0.000    0.000    0.000 
#
# Total GULP energy -167219.017173 kJ/mol
# GULP energy per Si atom -5573.967239 kJ/mol
# Density = 2.178065 g / cm^3
# Si number density = 21.830340 Si / 1000 Ang^3
#
#
#
# Elastic Constant Matrix: (Units=GPa)
#
#
# Indices 1 2 3 4 5 6 
#
# 1 60.4578 6.2975 54.3761 0.0000 0.0000 0.0000
# 2 6.2975 60.4578 54.3761 0.0000 0.0000 0.0000
# 3 54.3761 54.3761 275.2682 0.0000 0.0000 0.0000
# 4 0.0000 0.0000 0.0000 -39.1087 0.0000 0.0000
# 5 0.0000 0.0000 0.0000 0.0000 -39.1087 0.0000
# 6 0.0000 0.0000 0.0000 0.0000 0.0000 27.0801
#
#
#
# Elastic Compliance Matrix: (Units=1/GPa)
#
#
# Indices 1 2 3 4 5 6 
#
# 1 0.020276 0.001812 -0.004363 0.000000 0.000000 0.000000
# 2 0.001812 0.020276 -0.004363 0.000000 0.000000 0.000000
# 3 -0.004363 -0.004363 0.005357 0.000000 0.000000 0.000000
# 4 0.000000 0.000000 0.000000 -0.025570 0.000000 0.000000
# 5 0.000000 0.000000 0.000000 0.000000 -0.025570 0.000000
# 6 0.000000 0.000000 0.000000 0.000000 0.000000 0.036927
#
#
# Mechanical properties :
#
#
# Convention : Reuss Voigt Hill
#
# Bulk Modulus (GPa) = 31.17179 69.58701 50.37940
# Shear Modulus (GPa) = 88.93831 8.51482 48.72657
#
# Velocity S-wave (km/s) = 6.38977 1.97710 4.72959
# Velocity P-wave (km/s) = 8.29150 6.09569 7.27689
#
# Compressibility (1/GPa) = 0.03208029
#
# Stress axis : x y z
#
# Youngs Moduli (GPa) = 49.31918 49.31918 186.68317
#
# Poissons Ratio (x) = -0.08938 0.81456
# Poissons Ratio (y) = -0.08938 0.81456
# Poissons Ratio (z) = 0.21520 0.21520
#
# Static dielectric constant tensor:
#      x y z
#    x 1.762220 0.000000 0.000000 
#    y 0.000000 1.762220 0.000000 
#    z 0.000000 0.000000 1.873910 
# 
# From -- ./inp_files/435.got.cif
#   From: 2010.05.17/outbox.cif.g08.bks.cpg/sg168_cif.got.tgz:435.got - 2010.05.20 11:12:33.
