data_PCOD9579756
_publ_section_title
;
Structure prediction by ZEFSAII (Michael W. Deem and Ramdas Pophale) SiO2 
 PCOD9579756
Probable space group: P 6
;
_chemical_formula_sum "Si O2"
_cell_formula_units_Z 45
_cell_length_a 16.276924
_cell_length_b 16.276924
_cell_length_c 9.659253
_cell_angle_alpha 90.000000
_cell_angle_beta 90.000000
_cell_angle_gamma 120.000000
_cell_volume 2216.250490
_symmetry_space_group_name_H-M "P 6"
_symmetry_group_IT_number 168
_symmetry_cell_setting 'hexagonal'
loop_
_space_group_symop_operation_xyz
x,y,z
x-y,x,z
-y,x-y,z
-x,-y,z
-x+y,-x,z
y,-x+y,z
loop_
_atom_site_type_symbol
_atom_site_label
_atom_site_fract_x
_atom_site_fract_y
_atom_site_fract_z
Si Si1 0.942088 0.779591 0.178200
Si Si2 0.500000 0.500000 0.459234
Si Si3 0.876099 0.402872 0.704435
Si Si4 0.590779 0.711119 0.355213
Si Si5 0.371205 0.445196 0.003887
Si Si6 0.742558 0.188569 0.665282
Si Si7 0.163228 0.356431 0.936096
Si Si8 0.140887 0.500547 0.095000
O O1 0.865698 0.815807 0.193453
O O2 0.921786 0.695170 0.288040
O O3 0.917361 0.727180 0.027049
O O4 0.583708 0.515932 0.563140
O O5 0.547365 0.597841 0.376677
O O6 0.928699 0.401747 0.843931
O O7 0.784900 0.299817 0.693433
O O8 0.859823 0.491624 0.699576
O O9 0.583193 0.750358 0.504153
O O10 0.519107 0.702322 0.232711
O O11 0.261453 0.369701 0.993305
O O12 0.399297 0.546177 0.074523
O O13 0.428178 0.401482 0.078778
O O14 0.797784 0.154823 0.770408
O O15 0.176143 0.459578 0.973279
#
# Coordination Sequence:
#
# PCOD9579756 Si02
#       8
#     6   3   6   6   6   6   6   6
#     4  11  25  47  71  97 125 166 221 292 363 419
#     4  10  20  36  58  92 126 172 214 252 314 380
#     4  10  20  34  59  86 126 172 209 262 313 373
#     4  10  23  38  62  95 128 172 212 262 329 396
#     4  10  19  33  60  84 117 164 211 263 310 380
#     4  10  21  38  57  92 132 171 222 261 318 395
#     4  10  20  37  61  90 120 164 215 270 328 392
#     4  10  19  36  54  83 119 159 205 258 306 377
#
# _framework density 20.304565
#
# number of rings (size 3 to 8) (size 9 to 14) (size 15 to 20)
#    0.000    1.867    1.333    3.600    3.733    0.000 
#    8.000    0.000    0.000    0.000    0.000    1.867 
#    0.000    0.000    0.000    0.000    0.000    0.000 
#
# Total GULP energy -250605.465315 kJ/mol
# GULP energy per Si atom -5569.010340 kJ/mol
# Density = 2.025835 g / cm^3
# Si number density = 20.304565 Si / 1000 Ang^3
#
#
#
# Elastic Constant Matrix: (Units=GPa)
#
#
# Indices 1 2 3 4 5 6 
#
# 1 81.9088 30.8607 27.9839 0.0000 0.0000 0.0000
# 2 30.8607 81.9088 27.9839 0.0000 0.0000 0.0000
# 3 27.9839 27.9839 141.5037 0.0000 0.0000 0.0000
# 4 0.0000 0.0000 0.0000 20.6840 0.0000 0.0000
# 5 0.0000 0.0000 0.0000 0.0000 20.6840 0.0000
# 6 0.0000 0.0000 0.0000 0.0000 0.0000 25.5240
#
#
#
# Elastic Compliance Matrix: (Units=1/GPa)
#
#
# Indices 1 2 3 4 5 6 
#
# 1 0.014711 -0.004878 -0.001945 0.000000 0.000000 0.000000
# 2 -0.004878 0.014711 -0.001945 0.000000 0.000000 0.000000
# 3 -0.001945 -0.001945 0.007836 0.000000 0.000000 0.000000
# 4 0.000000 0.000000 0.000000 0.048347 0.000000 0.000000
# 5 0.000000 0.000000 0.000000 0.000000 0.048347 0.000000
# 6 0.000000 0.000000 0.000000 0.000000 0.000000 0.039179
#
#
# Mechanical properties :
#
#
# Convention : Reuss Voigt Hill
#
# Bulk Modulus (GPa) = 50.70124 53.21980 51.96052
# Shear Modulus (GPa) = 25.34994 27.94460 26.64727
#
# Velocity S-wave (km/s) = 3.53722 3.71384 3.62661
# Velocity P-wave (km/s) = 6.45811 6.68265 6.57134
#
# Compressibility (1/GPa) = 0.01972338
#
# Stress axis : x y z
#
# Youngs Moduli (GPa) = 67.97614 67.97614 127.61523
#
# Poissons Ratio (x) = 0.33161 0.24815
# Poissons Ratio (y) = 0.33161 0.24815
# Poissons Ratio (z) = 0.13218 0.13218
#
# Static dielectric constant tensor:
#      x y z
#    x 1.829910 0.000000 0.000000 
#    y 0.000000 1.829910 0.000000 
#    z 0.000000 0.000000 1.790640 
# 
# From -- ./inp_files/333.got.cif
#   From: 2010.05.17/outbox.cif.g08.bks.cpg/sg168_cif.got.tgz:333.got - 2010.05.20 11:12:33.
