data_PCOD9579671
_publ_section_title
;
Structure prediction by ZEFSAII (Michael W. Deem and Ramdas Pophale) SiO2 
 PCOD9579671
Probable space group: R -3 C 
;
_chemical_formula_sum "Si O2"
_cell_formula_units_Z 144
_cell_length_a 28.785434
_cell_length_b 28.785434
_cell_length_c 8.507825
_cell_angle_alpha 90.000000
_cell_angle_beta 90.000000
_cell_angle_gamma 120.000000
_cell_volume 6105.127572
_symmetry_space_group_name_H-M "R -3 C "
_symmetry_group_IT_number 167
_symmetry_cell_setting 'hexagonal'
loop_
_space_group_symop_operation_xyz
x,y,z
-y,x-y,z
-x+y,-x,z
x-y,-y,1/2-z
-x,-x+y,1/2-z
y,x,1/2-z
-x,-y,-z
y,-x+y,-z
x-y,x,-z
-x+y,y,1/2+z
x,x-y,1/2+z
-y,-x,1/2+z
2/3+x,1/3+y,1/3+z
2/3-y,1/3+x-y,1/3+z
2/3-x+y,1/3-x,1/3+z
2/3+x-y,1/3-y,5/6-z
2/3-x,1/3-x+y,5/6-z
2/3+y,1/3+x,5/6-z
2/3-x,1/3-y,1/3-z
2/3+y,1/3-x+y,1/3-z
2/3+x-y,1/3+x,1/3-z
2/3-x+y,1/3+y,5/6+z
2/3+x,1/3+x-y,5/6+z
2/3-y,1/3-x,5/6+z
1/3+x,2/3+y,2/3+z
1/3-y,2/3+x-y,2/3+z
1/3-x+y,2/3-x,2/3+z
1/3+x-y,2/3-y,1/6-z
1/3-x,2/3-x+y,1/6-z
1/3+y,2/3+x,1/6-z
1/3-x,2/3-y,2/3-z
1/3+y,2/3-x+y,2/3-z
1/3+x-y,2/3+x,2/3-z
1/3-x+y,2/3+y,1/6+z
1/3+x,2/3+x-y,1/6+z
1/3-y,2/3-x,1/6+z
loop_
_atom_site_type_symbol
_atom_site_label
_atom_site_fract_x
_atom_site_fract_y
_atom_site_fract_z
Si Si1 0.873421 0.146256 0.211992
Si Si2 0.731707 0.796125 0.584242
Si Si3 0.682455 0.239805 0.901240
Si Si4 0.774420 0.969161 0.583748
O O1 0.833334 0.166667 0.166667
O O2 0.835342 0.085153 0.265793
O O3 0.909100 0.177181 0.364287
O O4 0.912315 0.162180 0.063412
O O5 0.666667 0.759581 0.583334
O O6 0.760045 0.761804 0.545964
O O7 0.630630 0.230575 0.804099
O O8 0.695238 0.191945 0.874398
O O9 0.666667 0.236632 0.083334
O O10 0.782920 0.000000 0.750000
#
# Coordination Sequence:
#
# PCOD9579671 Si02
#       4
#    36  36  36  36
#     4   9  17  31  52  79 111 149 196 249 312 382
#     4   9  17  31  52  79 112 151 197 253 314 379
#     4  11  22  36  53  75 112 162 211 261 317 380
#     4   9  18  32  52  81 115 152 200 261 317 377
#
# _framework density 23.586731
#
# number of rings (size 3 to 8) (size 9 to 14) (size 15 to 20)
#    0.000    2.500    0.000    2.500    0.000    0.000 
#    0.000    3.750    0.000    0.000    0.000   57.750 
#    0.000    8.000    0.000    7.500    0.000    1.500 
#
# Total GULP energy -268033.281772 kJ/mol
# GULP energy per Si atom -5584.026704 kJ/mol
# Density = 2.353305 g / cm^3
# Si number density = 23.586731 Si / 1000 Ang^3
#
#
#
# Elastic Constant Matrix: (Units=GPa)
#
#
# Indices 1 2 3 4 5 6 
#
# 1 98.8403 46.9962 47.9705 0.2912 0.0384 0.0156
# 2 46.9962 98.8161 47.9125 -0.2838 -0.0207 -0.0282
# 3 47.9705 47.9125 82.9017 0.0071 0.0069 0.0092
# 4 0.2912 -0.2838 0.0071 45.8272 0.0205 0.0104
# 5 0.0384 -0.0207 0.0069 0.0205 45.8620 0.2838
# 6 0.0156 -0.0282 0.0092 0.0104 0.2838 25.9067
#
#
#
# Elastic Compliance Matrix: (Units=1/GPa)
#
#
# Indices 1 2 3 4 5 6 
#
# 1 0.015184 -0.004115 -0.006408 -0.000121 -0.000014 -0.000011
# 2 -0.004115 0.015175 -0.006389 0.000121 0.000011 0.000021
# 3 -0.006408 -0.006389 0.019463 -0.000002 0.000000 -0.000010
# 4 -0.000121 0.000121 -0.000002 0.021823 -0.000010 -0.000008
# 5 -0.000014 0.000011 0.000000 -0.000010 0.021806 -0.000239
# 6 -0.000011 0.000021 -0.000010 -0.000008 -0.000239 0.038603
#
#
# Mechanical properties :
#
#
# Convention : Reuss Voigt Hill
#
# Bulk Modulus (GPa) = 62.50796 62.92407 62.71601
# Shear Modulus (GPa) = 29.20369 32.69777 30.95073
#
# Velocity S-wave (km/s) = 3.52254 3.72731 3.62637
# Velocity P-wave (km/s) = 6.56531 6.72752 6.64691
#
# Compressibility (1/GPa) = 0.01599796
#
# Stress axis : x y z
#
# Youngs Moduli (GPa) = 65.85766 65.89733 51.37899
#
# Poissons Ratio (x) = 0.27115 0.32924
# Poissons Ratio (y) = 0.27099 0.32828
# Poissons Ratio (z) = 0.42203 0.42104
#
# Static dielectric constant tensor:
#      x y z
#    x 1.922220 0.000020 -0.000080 
#    y 0.000020 1.922180 0.000010 
#    z -0.000080 0.000010 1.962310 
# 
# From -- ./inp_files/816.got.cif
#   From: 2010.05.17/outbox.cif.g08.bks.cpg/sg167_1_cif.got.tgz:816.got - 2010.05.20 11:09:15.
