data_PCOD9579990
_publ_section_title
;
Structure prediction by ZEFSAII (Michael W. Deem and Ramdas Pophale) SiO2 
 PCOD9579990
Probable space group: P 61
;
_chemical_formula_sum "Si O2"
_cell_formula_units_Z 36
_cell_length_a 7.551274
_cell_length_b 7.551274
_cell_length_c 27.157267
_cell_angle_alpha 90.000000
_cell_angle_beta 90.000000
_cell_angle_gamma 120.000000
_cell_volume 1341.087615
_symmetry_space_group_name_H-M "P 61"
_symmetry_group_IT_number 169
_symmetry_cell_setting 'hexagonal'
loop_
_space_group_symop_operation_xyz
x,y,z
x-y,x,1/6+z
-y,x-y,1/3+z
-x,-y,1/2+z
-x+y,-x,2/3+z
y,-x+y,5/6+z
loop_
_atom_site_type_symbol
_atom_site_label
_atom_site_fract_x
_atom_site_fract_y
_atom_site_fract_z
Si Si1 0.358108 0.284314 0.074110
Si Si2 0.819955 0.886271 0.673571
Si Si3 0.476705 0.723057 0.105745
Si Si4 0.557255 0.211613 0.778524
Si Si5 0.516388 0.007230 0.181550
Si Si6 0.684912 0.882859 0.008077
O O1 0.360712 0.496816 0.082271
O O2 0.581957 0.326385 0.088676
O O3 0.204136 0.130986 0.115056
O O4 0.292099 0.152022 0.024976
O O5 0.613290 0.879783 0.692164
O O6 0.072671 0.630525 0.565489
O O7 0.007114 0.100863 0.688824
O O8 0.384087 0.816703 0.144262
O O9 0.650308 0.717123 0.139712
O O10 0.443464 0.287722 0.815412
O O11 0.672883 0.124480 0.811630
O O12 0.568896 0.869884 0.058595
#
# Coordination Sequence:
#
# PCOD9579990 Si02
#       6
#     6   6   6   6   6   6
#     4  10  22  41  68 102 140 189 239 297 366 434
#     4  11  22  41  71 100 137 184 239 298 363 430
#     4  11  24  43  68 101 148 191 243 298 358 435
#     4  10  23  42  67 101 142 187 242 300 365 435
#     4  11  23  43  71 101 140 191 244 298 361 435
#     4  11  24  44  67 103 147 192 241 299 359 435
#
# _framework density 26.843882000000001
#
# number of rings (size 3 to 8) (size 9 to 14) (size 15 to 20)
#    0.000    1.333    0.000    6.000    0.000    9.333 
#    0.000    5.000    0.000    0.000    0.000    0.000 
#    0.000    0.000    0.000    0.000    0.000    0.000 
#
# Total GULP energy -201914.996996 kJ/mol
# GULP energy per Si atom -5608.749917 kJ/mol
# Density = 2.678278 g / cm^3
# Si number density = 26.843882 Si / 1000 Ang^3
#
#
#
# Elastic Constant Matrix: (Units=GPa)
#
#
# Indices 1 2 3 4 5 6 
#
# 1 118.2221 37.5096 40.5985 0.0000 0.0000 0.0000
# 2 37.5096 118.2221 40.5985 0.0000 0.0000 0.0000
# 3 40.5985 40.5985 147.6863 0.0000 0.0000 0.0000
# 4 0.0000 0.0000 0.0000 36.4403 0.0000 0.0000
# 5 0.0000 0.0000 0.0000 0.0000 36.4403 0.0000
# 6 0.0000 0.0000 0.0000 0.0000 0.0000 40.3562
#
#
#
# Elastic Compliance Matrix: (Units=1/GPa)
#
#
# Indices 1 2 3 4 5 6 
#
# 1 0.009943 -0.002447 -0.002061 0.000000 0.000000 0.000000
# 2 -0.002447 0.009943 -0.002061 0.000000 0.000000 0.000000
# 3 -0.002061 -0.002061 0.007904 0.000000 0.000000 0.000000
# 4 0.000000 0.000000 0.000000 0.027442 0.000000 0.000000
# 5 0.000000 0.000000 0.000000 0.000000 0.027442 0.000000
# 6 0.000000 0.000000 0.000000 0.000000 0.000000 0.024779
#
#
# Mechanical properties :
#
#
# Convention : Reuss Voigt Hill
#
# Bulk Modulus (GPa) = 68.24472 69.06038 68.65255
# Shear Modulus (GPa) = 39.84911 40.34231 40.09571
#
# Velocity S-wave (km/s) = 3.85707 3.88087 3.86899
# Velocity P-wave (km/s) = 6.73157 6.77230 6.75196
#
# Compressibility (1/GPa) = 0.01465315
#
# Stress axis : x y z
#
# Youngs Moduli (GPa) = 100.57680 100.57680 126.51860
#
# Poissons Ratio (x) = 0.24611 0.26070
# Poissons Ratio (y) = 0.24611 0.26070
# Poissons Ratio (z) = 0.20724 0.20724
#
# Static dielectric constant tensor:
#      x y z
#    x 2.090380 0.000000 0.000000 
#    y 0.000000 2.090380 0.000000 
#    z 0.000000 0.000000 2.031490 
# 
# From -- ./inp_files/1722.got.cif
#   From: 2010.05.17/outbox.cif.g08.bks.cpg/sg169_cif.got.tgz:1722.got - 2010.05.20 11:12:54.
