data_PCOD9579267
_publ_section_title
;
Structure prediction by ZEFSAII (Michael W. Deem and Ramdas Pophale) SiO2 
 PCOD9579267
Probable space group: R -3 M
;
_chemical_formula_sum "Si O2"
_cell_formula_units_Z 144
_cell_length_a 28.831491
_cell_length_b 28.831491
_cell_length_c 10.210677
_cell_angle_alpha 90.000000
_cell_angle_beta 90.000000
_cell_angle_gamma 120.000000
_cell_volume 7350.542183
_symmetry_space_group_name_H-M "R -3 M"
_symmetry_group_IT_number 166
_symmetry_cell_setting 'hexagonal'
loop_
_space_group_symop_operation_xyz
x,y,z
-y,x-y,z
-x+y,-x,z
x-y,-y,-z
-x,-x+y,-z
y,x,-z
-x,-y,-z
y,-x+y,-z
x-y,x,-z
-x+y,y,z
x,x-y,z
-y,-x,z
2/3+x,1/3+y,1/3+z
2/3-y,1/3+x-y,1/3+z
2/3-x+y,1/3-x,1/3+z
2/3+x-y,1/3-y,1/3-z
2/3-x,1/3-x+y,1/3-z
2/3+y,1/3+x,1/3-z
2/3-x,1/3-y,1/3-z
2/3+y,1/3-x+y,1/3-z
2/3+x-y,1/3+x,1/3-z
2/3-x+y,1/3+y,1/3+z
2/3+x,1/3+x-y,1/3+z
2/3-y,1/3-x,1/3+z
1/3+x,2/3+y,2/3+z
1/3-y,2/3+x-y,2/3+z
1/3-x+y,2/3-x,2/3+z
1/3+x-y,2/3-y,2/3-z
1/3-x,2/3-x+y,2/3-z
1/3+y,2/3+x,2/3-z
1/3-x,2/3-y,2/3-z
1/3+y,2/3-x+y,2/3-z
1/3+x-y,2/3+x,2/3-z
1/3-x+y,2/3+y,2/3+z
1/3+x,2/3+x-y,2/3+z
1/3-y,2/3-x,2/3+z
loop_
_atom_site_type_symbol
_atom_site_label
_atom_site_fract_x
_atom_site_fract_y
_atom_site_fract_z
Si Si1 0.187895 0.703926 0.785357
Si Si2 0.571925 0.606210 0.629622
Si Si3 0.428376 0.967680 0.123131
Si Si4 0.144542 0.178763 0.380132
O O1 0.246186 0.753814 0.811600
O O2 0.186864 0.666667 0.666667
O O3 0.149717 0.726702 0.733682
O O4 0.165327 0.668018 0.916434
O O5 0.588081 0.588081 0.500000
O O6 0.613992 0.666667 0.666667
O O7 0.572506 0.569497 0.745946
O O8 0.486189 0.972377 0.121156
O O9 0.387564 0.905309 0.100846
O O10 0.424505 0.000000 0.000000
O O11 0.140557 0.140557 0.500000
O O12 0.087466 0.174931 0.351871
#
# Coordination Sequence:
#
# PCOD9579267 Si02
#       4
#    36  36  36  36
#     4  11  23  41  65  91 120 157 202 250 303 362
#     4  11  24  38  57  87 124 163 202 245 292 345
#     4  10  21  38  59  85 119 157 199 245 294 352
#     4  11  23  40  63  89 119 159 205 251 302 361
#
# _framework density 19.590392000000001
#
# number of rings (size 3 to 8) (size 9 to 14) (size 15 to 20)
#    0.000    1.250    0.000    6.750    0.000   10.000 
#    0.000    0.000    0.000   10.000    0.000    0.000 
#    0.000    0.000    0.000    0.000    0.000    0.000 
#
# Total GULP energy -268239.099992 kJ/mol
# GULP energy per Si atom -5588.314583 kJ/mol
# Density = 1.954580 g / cm^3
# Si number density = 19.590392 Si / 1000 Ang^3
#
#
#
# Elastic Constant Matrix: (Units=GPa)
#
#
# Indices 1 2 3 4 5 6 
#
# 1 111.0180 60.7462 66.7037 4.3159 -0.0004 0.0033
# 2 60.7462 111.0333 66.7187 -4.3200 -0.0025 -0.0040
# 3 66.7037 66.7187 189.7665 -0.0047 -0.0090 0.0029
# 4 4.3159 -4.3200 -0.0047 33.2960 -0.0014 -0.0014
# 5 -0.0004 -0.0025 -0.0090 -0.0014 33.3056 4.3165
# 6 0.0033 -0.0040 0.0029 -0.0014 4.3165 25.1475
#
#
#
# Elastic Compliance Matrix: (Units=1/GPa)
#
#
# Indices 1 2 3 4 5 6 
#
# 1 0.014176 -0.006167 -0.002815 -0.002638 -0.000001 -0.000002
# 2 -0.006167 0.014175 -0.002816 0.002638 0.000000 0.000004
# 3 -0.002815 -0.002816 0.007249 0.000001 0.000002 -0.000001
# 4 -0.002638 0.002638 0.000001 0.030718 0.000001 0.000002
# 5 -0.000001 0.000000 0.000002 0.000001 0.030708 -0.005271
# 6 -0.000002 0.000004 -0.000001 0.000002 -0.005271 0.040670
#
#
# Mechanical properties :
#
#
# Convention : Reuss Voigt Hill
#
# Bulk Modulus (GPa) = 83.30089 88.90612 86.10351
# Shear Modulus (GPa) = 30.24953 32.85978 31.55465
#
# Velocity S-wave (km/s) = 3.93377 4.09998 4.01773
# Velocity P-wave (km/s) = 7.95275 8.23979 8.09754
#
# Compressibility (1/GPa) = 0.01200467
#
# Stress axis : x y z
#
# Youngs Moduli (GPa) = 70.54399 70.54762 137.94915
#
# Poissons Ratio (x) = 0.43505 0.38829
# Poissons Ratio (y) = 0.43503 0.38846
# Poissons Ratio (z) = 0.19856 0.19866
#
# Static dielectric constant tensor:
#      x y z
#    x 1.669090 -0.000010 0.000020 
#    y -0.000010 1.669090 0.000010 
#    z 0.000020 0.000010 1.668940 
# 
# From -- ./inp_files/1786.got.cif
#   From: 2010.05.17/outbox.cif.g08.bks.cpg/sg166_1_cif.got.tgz:1786.got - 2010.05.20 11:04:41.
