data_PCOD9579254
_publ_section_title
;
Structure prediction by ZEFSAII (Michael W. Deem and Ramdas Pophale) SiO2 
 PCOD9579254
Probable space group: R -3 M
;
_chemical_formula_sum "Si O2"
_cell_formula_units_Z 252
_cell_length_a 28.344430
_cell_length_b 28.344430
_cell_length_c 19.072802
_cell_angle_alpha 90.000000
_cell_angle_beta 90.000000
_cell_angle_gamma 120.000000
_cell_volume 13270.295314
_symmetry_space_group_name_H-M "R -3 M"
_symmetry_group_IT_number 166
_symmetry_cell_setting 'hexagonal'
loop_
_space_group_symop_operation_xyz
x,y,z
-y,x-y,z
-x+y,-x,z
x-y,-y,-z
-x,-x+y,-z
y,x,-z
-x,-y,-z
y,-x+y,-z
x-y,x,-z
-x+y,y,z
x,x-y,z
-y,-x,z
2/3+x,1/3+y,1/3+z
2/3-y,1/3+x-y,1/3+z
2/3-x+y,1/3-x,1/3+z
2/3+x-y,1/3-y,1/3-z
2/3-x,1/3-x+y,1/3-z
2/3+y,1/3+x,1/3-z
2/3-x,1/3-y,1/3-z
2/3+y,1/3-x+y,1/3-z
2/3+x-y,1/3+x,1/3-z
2/3-x+y,1/3+y,1/3+z
2/3+x,1/3+x-y,1/3+z
2/3-y,1/3-x,1/3+z
1/3+x,2/3+y,2/3+z
1/3-y,2/3+x-y,2/3+z
1/3-x+y,2/3-x,2/3+z
1/3+x-y,2/3-y,2/3-z
1/3-x,2/3-x+y,2/3-z
1/3+y,2/3+x,2/3-z
1/3-x,2/3-y,2/3-z
1/3+y,2/3-x+y,2/3-z
1/3+x-y,2/3+x,2/3-z
1/3-x+y,2/3+y,2/3+z
1/3+x,2/3+x-y,2/3+z
1/3-y,2/3-x,2/3+z
loop_
_atom_site_type_symbol
_atom_site_label
_atom_site_fract_x
_atom_site_fract_y
_atom_site_fract_z
Si Si1 0.829021 0.763583 0.546089
Si Si2 0.166206 0.434748 0.514760
Si Si3 0.942067 0.559848 0.616255
Si Si4 0.144186 0.626427 0.273639
Si Si5 0.084516 0.345536 0.408663
Si Si6 0.394915 0.500726 0.516955
Si Si7 0.454152 0.057595 0.333135
O O1 0.873021 0.746042 0.567059
O O2 0.844496 0.820547 0.585211
O O3 0.834814 0.773715 0.462965
O O4 0.767459 0.715602 0.561030
O O5 0.228832 0.457663 0.499862
O O6 0.131092 0.384242 0.462820
O O7 0.148324 0.479696 0.507075
O O8 0.152560 0.412935 0.594289
O O9 0.889284 0.515203 0.658168
O O10 0.943551 0.617598 0.607324
O O11 0.940420 0.536036 0.539350
O O12 0.993457 0.567725 0.659284
O O13 0.165730 0.582865 0.282267
O O14 0.101251 0.333334 0.333334
O O15 0.436707 0.563294 0.501892
O O16 0.403576 0.487994 0.596444
O O17 0.407641 0.074308 0.333334
#
# Coordination Sequence:
#
# PCOD9579254 Si02
#       7
#    36  36  36  36  36  36  36
#     4  10  21  37  57  80 107 147 187 230 282 335
#     4  10  22  38  57  82 109 147 190 235 289 345
#     4  11  21  35  54  81 111 151 184 222 273 331
#     4  10  21  37  54  77 108 142 183 229 278 331
#     4  11  21  36  53  83 116 148 179 225 277 336
#     4  10  22  38  55  79 109 144 186 236 285 331
#     4  10  21  36  55  79 109 145 188 230 272 329
#
# _framework density 18.989781000000001
#
# number of rings (size 3 to 8) (size 9 to 14) (size 15 to 20)
#    0.000    1.714    1.429    3.000    0.000    5.143 
#    5.143    0.000    0.000    0.571    0.000    2.000 
#    0.000    4.571    0.000    0.000    0.000    0.143 
#
# Total GULP energy -468058.560150 kJ/mol
# GULP energy per Si atom -5572.125716 kJ/mol
# Density = 1.894656 g / cm^3
# Si number density = 18.989781 Si / 1000 Ang^3
#
#
#
# Elastic Constant Matrix: (Units=GPa)
#
#
# Indices 1 2 3 4 5 6 
#
# 1 62.6836 52.9029 22.5404 3.5852 0.0004 0.0000
# 2 52.9029 62.6836 22.5404 -3.5852 -0.0004 0.0000
# 3 22.5404 22.5404 89.9324 0.0000 0.0000 0.0000
# 4 3.5852 -3.5852 0.0000 4.4317 0.0000 -0.0004
# 5 0.0004 -0.0004 0.0000 0.0000 4.4317 3.5852
# 6 0.0000 0.0000 0.0000 -0.0004 3.5852 4.8904
#
#
#
# Elastic Compliance Matrix: (Units=1/GPa)
#
#
# Indices 1 2 3 4 5 6 
#
# 1 0.130421 -0.120832 -0.002403 -0.203260 -0.000021 0.000000
# 2 -0.120832 0.130421 -0.002403 0.203260 0.000021 0.000000
# 3 -0.002403 -0.002403 0.012324 0.000000 0.000000 0.000000
# 4 -0.203260 0.203260 0.000000 0.554518 0.000000 0.000043
# 5 -0.000021 0.000021 0.000000 0.000000 0.554518 -0.406521
# 6 0.000000 0.000000 0.000000 0.000043 -0.406521 0.502505
#
#
# Mechanical properties :
#
#
# Convention : Reuss Voigt Hill
#
# Bulk Modulus (GPa) = 45.68586 45.69635 45.69111
# Shear Modulus (GPa) = 2.33287 10.57181 6.45234
#
# Velocity S-wave (km/s) = 1.10957 2.36203 1.84531
# Velocity P-wave (km/s) = 5.07463 5.61737 5.35288
#
# Compressibility (1/GPa) = 0.02188861
#
# Stress axis : x y z
#
# Youngs Moduli (GPa) = 7.66749 7.66749 81.14123
#
# Poissons Ratio (x) = 0.92648 0.19501
# Poissons Ratio (y) = 0.92648 0.19501
# Poissons Ratio (z) = 0.01843 0.01843
#
# Static dielectric constant tensor:
#      x y z
#    x 1.681310 0.000000 0.000000 
#    y 0.000000 1.681310 0.000000 
#    z 0.000000 0.000000 1.704920 
# 
# From -- ./inp_files/5852.got.cif
#   From: 2010.05.17/outbox.cif.g08.bks.cpg/sg166_3_cif.got.tgz:5852.got - 2010.05.20 11:04:41.
