data_PCOD9579520
_publ_section_title
;
Structure prediction by ZEFSAII (Michael W. Deem and Ramdas Pophale) SiO2 
 PCOD9579520
Probable space group: R -3 C 
;
_chemical_formula_sum "Si O2"
_cell_formula_units_Z 120
_cell_length_a 16.301763
_cell_length_b 16.301763
_cell_length_c 22.173947
_cell_angle_alpha 90.000000
_cell_angle_beta 90.000000
_cell_angle_gamma 120.000000
_cell_volume 5103.202322
_symmetry_space_group_name_H-M "R -3 C "
_symmetry_group_IT_number 167
_symmetry_cell_setting 'hexagonal'
loop_
_space_group_symop_operation_xyz
x,y,z
-y,x-y,z
-x+y,-x,z
x-y,-y,1/2-z
-x,-x+y,1/2-z
y,x,1/2-z
-x,-y,-z
y,-x+y,-z
x-y,x,-z
-x+y,y,1/2+z
x,x-y,1/2+z
-y,-x,1/2+z
2/3+x,1/3+y,1/3+z
2/3-y,1/3+x-y,1/3+z
2/3-x+y,1/3-x,1/3+z
2/3+x-y,1/3-y,5/6-z
2/3-x,1/3-x+y,5/6-z
2/3+y,1/3+x,5/6-z
2/3-x,1/3-y,1/3-z
2/3+y,1/3-x+y,1/3-z
2/3+x-y,1/3+x,1/3-z
2/3-x+y,1/3+y,5/6+z
2/3+x,1/3+x-y,5/6+z
2/3-y,1/3-x,5/6+z
1/3+x,2/3+y,2/3+z
1/3-y,2/3+x-y,2/3+z
1/3-x+y,2/3-x,2/3+z
1/3+x-y,2/3-y,1/6-z
1/3-x,2/3-x+y,1/6-z
1/3+y,2/3+x,1/6-z
1/3-x,2/3-y,2/3-z
1/3+y,2/3-x+y,2/3-z
1/3+x-y,2/3+x,2/3-z
1/3-x+y,2/3+y,1/6+z
1/3+x,2/3+x-y,1/6+z
1/3-y,2/3-x,1/6+z
loop_
_atom_site_type_symbol
_atom_site_label
_atom_site_fract_x
_atom_site_fract_y
_atom_site_fract_z
Si Si1 0.733647 0.639576 0.241967
Si Si2 0.333334 0.666667 0.487307
Si Si3 0.492421 0.628612 0.023059
Si Si4 0.151832 0.207142 0.518464
O O1 0.631507 0.631507 0.250000
O O2 0.787450 0.732369 0.199131
O O3 0.749648 0.562489 0.208403
O O4 0.766575 0.633715 0.309767
O O5 0.333334 0.666668 0.416667
O O6 0.245741 0.678158 0.507277
O O7 0.549397 0.683093 0.083347
O O8 0.039878 0.168606 0.516785
#
# Coordination Sequence:
#
# PCOD9579520 Si02
#       4
#    36  12  36  36
#     4  10  22  42  61 101 138 176 225 279 362 410
#     4  12  24  45  73 101 133 186 237 292 335 412
#     4  10  22  43  68 100 136 176 237 289 344 418
#     4  10  20  40  69 102 129 176 231 285 341 409
#
# _framework density 23.514645999999999
#
# number of rings (size 3 to 8) (size 9 to 14) (size 15 to 20)
#    0.000    1.800    0.000    4.800    0.000    1.200 
#   37.800    0.000    0.000    0.000    0.000    0.000 
#    0.000    0.000    0.000    0.000    0.000    0.000 
#
# Total GULP energy -222914.744795 kJ/mol
# GULP energy per Si atom -5572.868620 kJ/mol
# Density = 2.346113 g / cm^3
# Si number density = 23.514646 Si / 1000 Ang^3
#
#
#
# Elastic Constant Matrix: (Units=GPa)
#
#
# Indices 1 2 3 4 5 6 
#
# 1 92.4742 8.4369 56.2677 11.4338 -0.0011 -0.0001
# 2 8.4369 92.4728 56.2676 -11.4335 0.0015 0.0002
# 3 56.2677 56.2676 182.8869 0.0001 0.0002 0.0001
# 4 11.4338 -11.4335 0.0001 46.8029 0.0002 0.0013
# 5 -0.0011 0.0015 0.0002 0.0002 46.8022 11.4333
# 6 -0.0001 0.0002 0.0001 0.0013 11.4333 42.0180
#
#
#
# Elastic Compliance Matrix: (Units=1/GPa)
#
#
# Indices 1 2 3 4 5 6 
#
# 1 0.013916 0.001169 -0.004641 -0.003114 0.000000 0.000000
# 2 0.001169 0.013916 -0.004641 0.003114 0.000000 0.000000
# 3 -0.004641 -0.004641 0.008324 0.000000 0.000000 0.000000
# 4 -0.003114 0.003114 0.000000 0.022888 0.000000 -0.000001
# 5 0.000000 0.000000 0.000000 0.000000 0.022888 -0.006228
# 6 0.000000 0.000000 0.000000 -0.000001 -0.006228 0.025494
#
#
# Mechanical properties :
#
#
# Convention : Reuss Voigt Hill
#
# Bulk Modulus (GPa) = 50.17556 67.75316 58.96436
# Shear Modulus (GPa) = 38.37416 43.58206 40.97811
#
# Velocity S-wave (km/s) = 4.04409 4.30978 4.17905
# Velocity P-wave (km/s) = 6.57195 7.32403 6.95816
#
# Compressibility (1/GPa) = 0.01993002
#
# Stress axis : x y z
#
# Youngs Moduli (GPa) = 71.85838 71.85716 120.13727
#
# Poissons Ratio (x) = -0.08403 0.55760
# Poissons Ratio (y) = -0.08403 0.55760
# Poissons Ratio (z) = 0.33352 0.33352
#
# Static dielectric constant tensor:
#      x y z
#    x 1.850090 0.000000 0.000000 
#    y 0.000000 1.850080 0.000000 
#    z 0.000000 0.000000 1.944830 
# 
# From -- ./inp_files/5101.got.cif
#   From: 2010.05.17/outbox.cif.g08.bks.cpg/sg167_3_cif.got.tgz:5101.got - 2010.05.20 11:09:15.
