data_PCOD9579398
_publ_section_title
;
Structure prediction by ZEFSAII (Michael W. Deem and Ramdas Pophale) SiO2 
 PCOD9579398
Probable space group: R -3 C 
;
_chemical_formula_sum "Si O2"
_cell_formula_units_Z 264
_cell_length_a 29.264481
_cell_length_b 29.264481
_cell_length_c 19.983655
_cell_angle_alpha 90.000000
_cell_angle_beta 90.000000
_cell_angle_gamma 120.000000
_cell_volume 14821.331052
_symmetry_space_group_name_H-M "R -3 C "
_symmetry_group_IT_number 167
_symmetry_cell_setting 'hexagonal'
loop_
_space_group_symop_operation_xyz
x,y,z
-y,x-y,z
-x+y,-x,z
x-y,-y,1/2-z
-x,-x+y,1/2-z
y,x,1/2-z
-x,-y,-z
y,-x+y,-z
x-y,x,-z
-x+y,y,1/2+z
x,x-y,1/2+z
-y,-x,1/2+z
2/3+x,1/3+y,1/3+z
2/3-y,1/3+x-y,1/3+z
2/3-x+y,1/3-x,1/3+z
2/3+x-y,1/3-y,5/6-z
2/3-x,1/3-x+y,5/6-z
2/3+y,1/3+x,5/6-z
2/3-x,1/3-y,1/3-z
2/3+y,1/3-x+y,1/3-z
2/3+x-y,1/3+x,1/3-z
2/3-x+y,1/3+y,5/6+z
2/3+x,1/3+x-y,5/6+z
2/3-y,1/3-x,5/6+z
1/3+x,2/3+y,2/3+z
1/3-y,2/3+x-y,2/3+z
1/3-x+y,2/3-x,2/3+z
1/3+x-y,2/3-y,1/6-z
1/3-x,2/3-x+y,1/6-z
1/3+y,2/3+x,1/6-z
1/3-x,2/3-y,2/3-z
1/3+y,2/3-x+y,2/3-z
1/3+x-y,2/3+x,2/3-z
1/3-x+y,2/3+y,1/6+z
1/3+x,2/3+x-y,1/6+z
1/3-y,2/3-x,1/6+z
loop_
_atom_site_type_symbol
_atom_site_label
_atom_site_fract_x
_atom_site_fract_y
_atom_site_fract_z
Si Si1 0.957186 0.692614 0.485666
Si Si2 0.497627 0.116257 0.992625
Si Si3 0.738624 0.806709 0.700635
Si Si4 0.855601 0.110999 0.434829
Si Si5 0.000000 0.000000 0.829126
Si Si6 0.286958 0.552361 0.774576
Si Si7 0.643628 0.460629 0.329557
Si Si8 0.279676 0.865008 0.177910
O O1 0.961500 0.666667 0.416667
O O2 0.918908 0.645415 0.534548
O O3 0.920578 0.717946 0.467003
O O4 0.014888 0.739888 0.503954
O O5 0.552749 0.170429 0.982722
O O6 0.480850 0.082265 0.924135
O O7 0.453256 0.132585 0.006667
O O8 0.497307 0.085367 0.058900
O O9 0.734376 0.843783 0.644083
O O10 0.879857 0.074269 0.456847
O O11 0.893846 0.167469 0.467402
O O12 0.939526 0.969029 0.854202
O O13 0.000000 0.000000 0.750000
O O14 0.329517 0.564131 0.716130
O O15 0.232306 0.529145 0.734979
O O16 0.683757 0.522691 0.335624
#
# Coordination Sequence:
#
# PCOD9579398 Si02
#       8
#    36  36  36  36  12  36  36  36
#     4   9  17  33  54  82 113 140 182 238 281 344
#     4  10  19  32  59  80 107 147 193 235 279 339
#     4  10  19  33  56  81 112 141 186 235 292 343
#     4  10  17  31  54  82 110 141 185 233 280 333
#     4  12  30  34  41  67 117 156 187 236 283 321
#     4  11  21  36  48  73 106 146 193 232 285 322
#     4  10  17  30  54  74  98 132 191 237 265 321
#     4  10  18  32  56  85 106 141 191 236 274 335
#
# _framework density 17.812166000000001
#
# number of rings (size 3 to 8) (size 9 to 14) (size 15 to 20)
#    0.000    1.909    8.182    0.818    1.909    0.545 
#    0.000    0.682    9.000    0.000    0.000    0.000 
#    4.091    0.000    0.000    0.000    0.000    0.000 
#
# Total GULP energy -490315.879929 kJ/mol
# GULP energy per Si atom -5571.771363 kJ/mol
# Density = 1.777162 g / cm^3
# Si number density = 17.812166 Si / 1000 Ang^3
#
#
#
# Elastic Constant Matrix: (Units=GPa)
#
#
# Indices 1 2 3 4 5 6 
#
# 1 40.9615 2.5130 28.2531 -3.8173 0.0000 0.0000
# 2 2.5130 40.9615 28.2531 3.8173 0.0000 0.0000
# 3 28.2531 28.2531 90.7068 0.0000 0.0000 0.0000
# 4 -3.8173 3.8173 0.0000 4.0875 0.0000 0.0000
# 5 0.0000 0.0000 0.0000 0.0000 4.0875 -3.8173
# 6 0.0000 0.0000 0.0000 0.0000 -3.8173 19.2242
#
#
#
# Elastic Compliance Matrix: (Units=1/GPa)
#
#
# Indices 1 2 3 4 5 6 
#
# 1 0.035289 0.003359 -0.012038 0.029820 0.000000 0.000000
# 2 0.003359 0.035289 -0.012038 -0.029820 0.000000 0.000000
# 3 -0.012038 -0.012038 0.018524 0.000000 0.000000 0.000000
# 4 0.029820 -0.029820 0.000000 0.300346 0.000000 0.000000
# 5 0.000000 0.000000 0.000000 0.000000 0.300346 0.059639
# 6 0.000000 0.000000 0.000000 0.000000 0.059639 0.063860
#
#
# Mechanical properties :
#
#
# Convention : Reuss Voigt Hill
#
# Bulk Modulus (GPa) = 20.97828 32.29647 26.63737
# Shear Modulus (GPa) = 6.16540 13.05388 9.60964
#
# Velocity S-wave (km/s) = 1.86249 2.71008 2.32523
# Velocity P-wave (km/s) = 4.05317 5.28808 4.71126
#
# Compressibility (1/GPa) = 0.04766835
#
# Stress axis : x y z
#
# Youngs Moduli (GPa) = 28.33713 28.33713 53.98470
#
# Poissons Ratio (x) = -0.09519 0.64988
# Poissons Ratio (y) = -0.09519 0.64988
# Poissons Ratio (z) = 0.34113 0.34113
#
# Static dielectric constant tensor:
#      x y z
#    x 1.648670 0.000000 0.000000 
#    y 0.000000 1.648670 0.000000 
#    z 0.000000 0.000000 1.630630 
# 
# From -- ./inp_files/4754.got.cif
#   From: 2010.05.17/outbox.cif.g08.bks.cpg/sg167_3_cif.got.tgz:4754.got - 2010.05.20 11:09:15.
