data_PCOD9579354
_publ_section_title
;
Structure prediction by ZEFSAII (Michael W. Deem and Ramdas Pophale) SiO2 
 PCOD9579354
Probable space group: R -3 M
;
_chemical_formula_sum "Si O2"
_cell_formula_units_Z 54
_cell_length_a 22.492005
_cell_length_b 22.492005
_cell_length_c 4.671651
_cell_angle_alpha 90.000000
_cell_angle_beta 90.000000
_cell_angle_gamma 120.000000
_cell_volume 2046.714967
_symmetry_space_group_name_H-M "R -3 M"
_symmetry_group_IT_number 166
_symmetry_cell_setting 'hexagonal'
loop_
_space_group_symop_operation_xyz
x,y,z
-y,x-y,z
-x+y,-x,z
x-y,-y,-z
-x,-x+y,-z
y,x,-z
-x,-y,-z
y,-x+y,-z
x-y,x,-z
-x+y,y,z
x,x-y,z
-y,-x,z
2/3+x,1/3+y,1/3+z
2/3-y,1/3+x-y,1/3+z
2/3-x+y,1/3-x,1/3+z
2/3+x-y,1/3-y,1/3-z
2/3-x,1/3-x+y,1/3-z
2/3+y,1/3+x,1/3-z
2/3-x,1/3-y,1/3-z
2/3+y,1/3-x+y,1/3-z
2/3+x-y,1/3+x,1/3-z
2/3-x+y,1/3+y,1/3+z
2/3+x,1/3+x-y,1/3+z
2/3-y,1/3-x,1/3+z
1/3+x,2/3+y,2/3+z
1/3-y,2/3+x-y,2/3+z
1/3-x+y,2/3-x,2/3+z
1/3+x-y,2/3-y,2/3-z
1/3-x,2/3-x+y,2/3-z
1/3+y,2/3+x,2/3-z
1/3-x,2/3-y,2/3-z
1/3+y,2/3-x+y,2/3-z
1/3+x-y,2/3+x,2/3-z
1/3-x+y,2/3+y,2/3+z
1/3+x,2/3+x-y,2/3+z
1/3-y,2/3-x,2/3+z
loop_
_atom_site_type_symbol
_atom_site_label
_atom_site_fract_x
_atom_site_fract_y
_atom_site_fract_z
Si Si1 0.539634 0.460367 0.866394
Si Si2 0.413572 0.827144 0.615332
Si Si3 0.402987 0.000000 0.500000
O O1 0.576061 0.423940 0.713962
O O2 0.576304 0.536956 0.734375
O O3 0.550862 0.449139 0.197260
O O4 0.333334 0.785015 0.666667
O O5 0.385649 0.052316 0.333334
#
# Coordination Sequence:
#
# PCOD9579354 Si02
#       3
#    18  18  18
#     4  11  28  50  75 115 158 211 259 334 401 465
#     4  12  27  49  80 111 158 209 273 330 397 467
#     4  11  28  46  80 114 162 203 270 322 404 481
#
# _framework density 26.383745000000001
#
# number of rings (size 3 to 8) (size 9 to 14) (size 15 to 20)
#    0.000    0.667    0.000    4.333   18.667    2.667 
#    0.000    6.667    0.000    0.000    0.000    0.000 
#    0.000    0.000    0.000    0.000    0.000    0.000 
#
# Total GULP energy -101066.762849 kJ/mol
# GULP energy per Si atom -5614.820158 kJ/mol
# Density = 2.632369 g / cm^3
# Si number density = 26.383745 Si / 1000 Ang^3
#
#
#
# Elastic Constant Matrix: (Units=GPa)
#
#
# Indices 1 2 3 4 5 6 
#
# 1 170.5213 59.9143 32.0465 -3.9704 0.6915 -0.1078
# 2 59.9143 170.1224 31.8627 4.0208 0.3770 -0.1055
# 3 32.0465 31.8627 126.5395 -0.2051 1.0168 -0.2267
# 4 -3.9704 4.0208 -0.2051 27.1955 0.1199 0.1332
# 5 0.6915 0.3770 1.0168 0.1199 27.9169 -4.1220
# 6 -0.1078 -0.1055 -0.2267 0.1332 -4.1220 55.2717
#
#
#
# Elastic Compliance Matrix: (Units=1/GPa)
#
#
# Indices 1 2 3 4 5 6 
#
# 1 0.006906 -0.002242 -0.001181 0.001331 -0.000104 -0.000007
# 2 -0.002242 0.006920 -0.001177 -0.001359 0.000012 0.000008
# 3 -0.001181 -0.001177 0.008500 0.000067 -0.000263 0.000011
# 4 0.001331 -0.001359 0.000067 0.037168 -0.000192 -0.000104
# 5 -0.000104 0.000012 -0.000263 -0.000192 0.036232 0.002701
# 6 -0.000007 0.000008 0.000011 -0.000104 0.002701 0.018294
#
#
# Mechanical properties :
#
#
# Convention : Reuss Voigt Hill
#
# Bulk Modulus (GPa) = 76.18710 79.42559 77.80634
# Shear Modulus (GPa) = 39.18597 44.96745 42.07671
#
# Velocity S-wave (km/s) = 3.85805 4.13287 3.99782
# Velocity P-wave (km/s) = 6.98465 7.27623 7.13193
#
# Compressibility (1/GPa) = 0.01312558
#
# Stress axis : x y z
#
# Youngs Moduli (GPa) = 144.81120 144.50295 117.64062
#
# Poissons Ratio (x) = 0.32398 0.13897
# Poissons Ratio (y) = 0.32467 0.13847
# Poissons Ratio (z) = 0.17107 0.17008
#
# Static dielectric constant tensor:
#      x y z
#    x 2.017500 -0.000010 -0.000570 
#    y -0.000010 2.017860 -0.000050 
#    z -0.000570 -0.000050 1.989870 
# 
# From -- ./inp_files/144.got.cif
#   From: 2010.05.17/outbox.cif.g08.bks.cpg/sg166_1_cif.got.tgz:144.got - 2010.05.20 11:04:41.
