data_PCOD9579915
_publ_section_title
;
Structure prediction by ZEFSAII (Michael W. Deem and Ramdas Pophale) SiO2 
 PCOD9579915
Probable space group: P 61
;
_chemical_formula_sum "Si O2"
_cell_formula_units_Z 48
_cell_length_a 16.255900
_cell_length_b 16.255900
_cell_length_c 9.282152
_cell_angle_alpha 90.000000
_cell_angle_beta 90.000000
_cell_angle_gamma 120.000000
_cell_volume 2124.229059
_symmetry_space_group_name_H-M "P 61"
_symmetry_group_IT_number 169
_symmetry_cell_setting 'hexagonal'
loop_
_space_group_symop_operation_xyz
x,y,z
x-y,x,1/6+z
-y,x-y,1/3+z
-x,-y,1/2+z
-x+y,-x,2/3+z
y,-x+y,5/6+z
loop_
_atom_site_type_symbol
_atom_site_label
_atom_site_fract_x
_atom_site_fract_y
_atom_site_fract_z
Si Si1 0.572819 0.834305 0.243050
Si Si2 0.618110 0.175477 0.767535
Si Si3 0.478957 0.530863 0.661412
Si Si4 0.683019 0.993417 0.437372
Si Si5 0.823202 0.690886 0.858392
Si Si6 0.173552 0.002301 0.432869
Si Si7 0.321898 0.926702 0.508537
Si Si8 0.815973 0.293099 0.741109
O O1 0.475856 0.822123 0.309633
O O2 0.664384 0.926913 0.300491
O O3 0.580874 0.742431 0.276424
O O4 0.571853 0.011573 0.069251
O O5 0.595277 0.128236 0.612206
O O6 0.711166 0.277528 0.752889
O O7 0.649928 0.115103 0.867983
O O8 0.584539 0.592440 0.608617
O O9 0.400020 0.505685 0.538746
O O10 0.679908 0.935404 0.578975
O O11 0.782717 0.089149 0.442905
O O12 0.851336 0.781937 0.958664
O O13 0.778475 0.600791 0.965240
O O14 0.254234 0.971464 0.469958
O O15 0.073418 0.907821 0.384587
O O16 0.162786 0.728863 0.403047
#
# Coordination Sequence:
#
# PCOD9579915 Si02
#       8
#     6   6   6   6   6   6   6   6
#     4  10  24  44  69 107 151 190 241 313 370 442
#     4  10  20  42  67 100 144 188 241 297 360 442
#     4  11  22  39  72 104 142 192 252 295 357 452
#     4  12  26  46  69 108 152 191 243 318 381 445
#     4  12  24  47  75 100 142 197 250 304 387 463
#     4  12  25  48  77 106 136 193 265 319 389 471
#     4  11  23  44  73 103 147 196 249 300 382 465
#     4  10  22  40  74 102 138 195 251 298 356 462
#
# _framework density 22.596433999999999
#
# number of rings (size 3 to 8) (size 9 to 14) (size 15 to 20)
#    0.000    1.000    5.000    2.250    1.750    2.000 
#    4.500    0.000    0.000    0.000    0.000    0.000 
#    0.000    0.000    0.000    0.000    0.000    0.000 
#
# Total GULP energy -267958.786021 kJ/mol
# GULP energy per Si atom -5582.474709 kJ/mol
# Density = 2.254500 g / cm^3
# Si number density = 22.596434 Si / 1000 Ang^3
#
#
#
# Elastic Constant Matrix: (Units=GPa)
#
#
# Indices 1 2 3 4 5 6 
#
# 1 119.1114 48.3043 3.1370 0.0000 0.0000 0.0000
# 2 48.3043 119.1114 3.1370 0.0000 0.0000 0.0000
# 3 3.1370 3.1370 35.3077 0.0000 0.0000 0.0000
# 4 0.0000 0.0000 0.0000 28.2549 0.0000 0.0000
# 5 0.0000 0.0000 0.0000 0.0000 28.2549 0.0000
# 6 0.0000 0.0000 0.0000 0.0000 0.0000 35.4035
#
#
#
# Elastic Compliance Matrix: (Units=1/GPa)
#
#
# Indices 1 2 3 4 5 6 
#
# 1 0.010058 -0.004065 -0.000532 0.000000 0.000000 0.000000
# 2 -0.004065 0.010058 -0.000532 0.000000 0.000000 0.000000
# 3 -0.000532 -0.000532 0.028417 0.000000 0.000000 0.000000
# 4 0.000000 0.000000 0.000000 0.035392 0.000000 0.000000
# 5 0.000000 0.000000 0.000000 0.000000 0.035392 0.000000
# 6 0.000000 0.000000 0.000000 0.000000 0.000000 0.028246
#
#
# Mechanical properties :
#
#
# Convention : Reuss Voigt Hill
#
# Bulk Modulus (GPa) = 26.12783 42.52078 34.32431
# Shear Modulus (GPa) = 29.31168 32.97947 31.14558
#
# Velocity S-wave (km/s) = 3.60555 3.82448 3.71663
# Velocity P-wave (km/s) = 5.37785 6.19359 5.80008
#
# Compressibility (1/GPa) = 0.03827336
#
# Stress axis : x y z
#
# Youngs Moduli (GPa) = 99.42336 99.42336 35.19017
#
# Poissons Ratio (x) = 0.40414 0.01874
# Poissons Ratio (y) = 0.40414 0.01874
# Poissons Ratio (z) = 0.05294 0.05294
#
# Static dielectric constant tensor:
#      x y z
#    x 1.934140 0.000000 0.000000 
#    y 0.000000 1.934140 0.000000 
#    z 0.000000 0.000000 1.862450 
# 
# From -- ./inp_files/1032.got.cif
#   From: 2010.05.17/outbox.cif.g08.bks.cpg/sg169_cif.got.tgz:1032.got - 2010.05.20 11:12:54.
