data_PCOD9579403
_publ_section_title
;
Structure prediction by ZEFSAII (Michael W. Deem and Ramdas Pophale) SiO2 
 PCOD9579403
Probable space group: R -3 C 
;
_chemical_formula_sum "Si O2"
_cell_formula_units_Z 162
_cell_length_a 29.351286
_cell_length_b 29.351286
_cell_length_c 12.559618
_cell_angle_alpha 90.000000
_cell_angle_beta 90.000000
_cell_angle_gamma 120.000000
_cell_volume 9370.469053
_symmetry_space_group_name_H-M "R -3 C "
_symmetry_group_IT_number 167
_symmetry_cell_setting 'hexagonal'
loop_
_space_group_symop_operation_xyz
x,y,z
-y,x-y,z
-x+y,-x,z
x-y,-y,1/2-z
-x,-x+y,1/2-z
y,x,1/2-z
-x,-y,-z
y,-x+y,-z
x-y,x,-z
-x+y,y,1/2+z
x,x-y,1/2+z
-y,-x,1/2+z
2/3+x,1/3+y,1/3+z
2/3-y,1/3+x-y,1/3+z
2/3-x+y,1/3-x,1/3+z
2/3+x-y,1/3-y,5/6-z
2/3-x,1/3-x+y,5/6-z
2/3+y,1/3+x,5/6-z
2/3-x,1/3-y,1/3-z
2/3+y,1/3-x+y,1/3-z
2/3+x-y,1/3+x,1/3-z
2/3-x+y,1/3+y,5/6+z
2/3+x,1/3+x-y,5/6+z
2/3-y,1/3-x,5/6+z
1/3+x,2/3+y,2/3+z
1/3-y,2/3+x-y,2/3+z
1/3-x+y,2/3-x,2/3+z
1/3+x-y,2/3-y,1/6-z
1/3-x,2/3-x+y,1/6-z
1/3+y,2/3+x,1/6-z
1/3-x,2/3-y,2/3-z
1/3+y,2/3-x+y,2/3-z
1/3+x-y,2/3+x,2/3-z
1/3-x+y,2/3+y,1/6+z
1/3+x,2/3+x-y,1/6+z
1/3-y,2/3-x,1/6+z
loop_
_atom_site_type_symbol
_atom_site_label
_atom_site_fract_x
_atom_site_fract_y
_atom_site_fract_z
Si Si1 0.384895 0.021314 0.370952
Si Si2 0.229144 0.143789 0.036038
Si Si3 0.392872 0.142233 0.072396
Si Si4 0.967469 0.788667 0.470841
Si Si5 0.818956 0.666667 0.416667
O O1 0.438593 0.075825 0.367915
O O2 0.374052 0.000000 0.250000
O O3 0.333334 0.019544 0.416667
O O4 0.393420 0.978699 0.436123
O O5 0.247604 0.156785 0.157934
O O6 0.185813 0.161064 0.018294
O O7 0.209035 0.083276 0.009191
O O8 0.281822 0.179279 0.965046
O O9 0.435203 0.146768 0.985026
O O10 0.355923 0.159609 0.009815
#
# Coordination Sequence:
#
# PCOD9579403 Si02
#       5
#    36  36  36  36  18
#     4  10  18  32  48  75 106 143 186 216 259 328
#     4  11  21  37  57  77 112 147 182 235 277 332
#     4  10  17  37  57  74 107 151 187 215 265 341
#     4  10  22  36  53  81 104 145 192 224 280 334
#     4  10  20  32  54  84 106 134 186 224 270 322
#
# _framework density 17.288356
#
# number of rings (size 3 to 8) (size 9 to 14) (size 15 to 20)
#    0.000    1.778    5.556    4.000    1.556    0.000 
#    0.000    4.444    0.000    0.444    0.000    0.000 
#    0.000    0.000    0.000    0.000    0.000    0.000 
#
# Total GULP energy -301319.843340 kJ/mol
# GULP energy per Si atom -5579.997099 kJ/mol
# Density = 1.724901 g / cm^3
# Si number density = 17.288356 Si / 1000 Ang^3
#
#
#
# Elastic Constant Matrix: (Units=GPa)
#
#
# Indices 1 2 3 4 5 6 
#
# 1 113.9324 59.1004 36.8296 -0.6561 0.0007 -0.0001
# 2 59.1004 113.9316 36.8274 0.6569 0.0000 -0.0001
# 3 36.8296 36.8274 51.1704 0.0018 0.0025 -0.0006
# 4 -0.6561 0.6569 0.0018 12.3609 0.0005 -0.0004
# 5 0.0007 0.0000 0.0025 0.0005 12.3609 -0.6570
# 6 -0.0001 -0.0001 -0.0006 -0.0004 -0.6570 27.4155
#
#
#
# Elastic Compliance Matrix: (Units=1/GPa)
#
#
# Indices 1 2 3 4 5 6 
#
# 1 0.013297 -0.004964 -0.005997 0.000971 0.000000 0.000000
# 2 -0.004964 0.013296 -0.005996 -0.000969 0.000002 0.000000
# 3 -0.005997 -0.005996 0.028174 -0.000004 -0.000005 0.000000
# 4 0.000971 -0.000969 -0.000004 0.081003 -0.000003 0.000001
# 5 0.000000 0.000002 -0.000005 -0.000003 0.081004 0.001941
# 6 0.000000 0.000000 0.000000 0.000001 0.001941 0.036522
#
#
# Mechanical properties :
#
#
# Convention : Reuss Voigt Hill
#
# Bulk Modulus (GPa) = 47.95801 60.50549 54.23175
# Shear Modulus (GPa) = 16.99740 20.17925 18.58832
#
# Velocity S-wave (km/s) = 3.13896 3.42016 3.28257
# Velocity P-wave (km/s) = 6.39826 7.11832 6.76787
#
# Compressibility (1/GPa) = 0.02085157
#
# Stress axis : x y z
#
# Youngs Moduli (GPa) = 75.20708 75.20929 35.49316
#
# Poissons Ratio (x) = 0.37337 0.21286
# Poissons Ratio (y) = 0.37336 0.21282
# Poissons Ratio (z) = 0.45104 0.45096
#
# Static dielectric constant tensor:
#      x y z
#    x 1.606040 0.000000 0.000000 
#    y 0.000000 1.606040 0.000000 
#    z 0.000000 0.000000 1.593390 
# 
# From -- ./inp_files/2427.got.cif
#   From: 2010.05.17/outbox.cif.g08.bks.cpg/sg167_2_cif.got.tgz:2427.got - 2010.05.20 11:09:15.
