data_PCOD9579381
_publ_section_title
;
Structure prediction by ZEFSAII (Michael W. Deem and Ramdas Pophale) SiO2 
 PCOD9579381
Probable space group: R -3 M
;
_chemical_formula_sum "Si O2"
_cell_formula_units_Z 48
_cell_length_a 30.000000
_cell_length_b 30.000000
_cell_length_c 9.000000
_cell_angle_alpha 90.000000
_cell_angle_beta 90.000000
_cell_angle_gamma 120.000000
_cell_volume 7014.805771
_symmetry_space_group_name_H-M "R -3 M"
_symmetry_group_IT_number 166
_symmetry_cell_setting 'hexagonal'
loop_
_space_group_symop_operation_xyz
x,y,z
-y,x-y,z
-x+y,-x,z
x-y,-y,-z
-x,-x+y,-z
y,x,-z
-x,-y,-z
y,-x+y,-z
x-y,x,-z
-x+y,y,z
x,x-y,z
-y,-x,z
2/3+x,1/3+y,1/3+z
2/3-y,1/3+x-y,1/3+z
2/3-x+y,1/3-x,1/3+z
2/3+x-y,1/3-y,1/3-z
2/3-x,1/3-x+y,1/3-z
2/3+y,1/3+x,1/3-z
2/3-x,1/3-y,1/3-z
2/3+y,1/3-x+y,1/3-z
2/3+x-y,1/3+x,1/3-z
2/3-x+y,1/3+y,1/3+z
2/3+x,1/3+x-y,1/3+z
2/3-y,1/3-x,1/3+z
1/3+x,2/3+y,2/3+z
1/3-y,2/3+x-y,2/3+z
1/3-x+y,2/3-x,2/3+z
1/3+x-y,2/3-y,2/3-z
1/3-x,2/3-x+y,2/3-z
1/3+y,2/3+x,2/3-z
1/3-x,2/3-y,2/3-z
1/3+y,2/3-x+y,2/3-z
1/3+x-y,2/3+x,2/3-z
1/3-x+y,2/3+y,2/3+z
1/3+x,2/3+x-y,2/3+z
1/3-y,2/3-x,2/3+z
loop_
_atom_site_type_symbol
_atom_site_label
_atom_site_fract_x
_atom_site_fract_y
_atom_site_fract_z
Si Si1 0.645034 0.822517 0.169120
Si Si2 0.104105 0.389879 0.267181
Si Si3 0.764829 0.431671 0.514496
Si Si4 0.806043 0.612086 0.241377
Si Si5 0.646406 0.520398 0.501786
O O1 0.666667 0.833334 0.333334
O O2 0.610848 0.760088 0.167158
O O3 0.698868 0.849434 0.075990
O O4 0.066896 0.400229 0.166667
O O5 0.073145 0.333334 0.333334
O O6 0.118680 0.432248 0.396575
O O7 0.723761 0.447522 0.563546
O O8 0.748898 0.374449 0.562080
O O9 0.764932 0.431598 0.333334
O O10 0.822167 0.471429 0.561066
O O11 0.833334 0.666667 0.166667
O O12 0.747059 0.582306 0.187745
O O13 0.666667 0.531769 0.333334
#
# Coordination Sequence:
#
# PCOD9579381 Si02
#       5
#    18  36  36  18  36
#     4  10  22  42  64  86 123 166 206 252 329 390
#     4  11  25  43  63  88 121 162 209 260 321 386
#     4   9  17  31  55  90 131 166 203 248 310 375
#     4  12  24  42  64  94 128 170 216 280 328 384
#     4  11  23  38  64  94 127 164 214 264 322 391
#
# _framework density 6.84267
#
# number of rings (size 3 to 8) (size 9 to 14) (size 15 to 20)
#    0.000    1.500    1.250    4.750    3.500    5.000 
#    0.000    0.000    0.000    0.000    0.000    0.000 
#    0.000    2.000    0.000    0.000    0.000    0.000 
#
# Total GULP energy -267226.965293 kJ/mol
# GULP energy per Si atom -5567.228444 kJ/mol
# Density = 0.682710 g / cm^3
# Si number density = 6.842670 Si / 1000 Ang^3
#
#
#
# Elastic Constant Matrix: (Units=GPa)
#
#
# Indices 1 2 3 4 5 6 
#
# 1 166.4952 83.9118 24.2232 -0.3200 -0.0197 -0.0267
# 2 83.9118 166.5267 24.2629 0.3111 0.0084 0.0050
# 3 24.2232 24.2629 51.1455 -0.0031 -0.0047 -0.0339
# 4 -0.3200 0.3111 -0.0031 23.9802 -0.0155 -0.0002
# 5 -0.0197 0.0084 -0.0047 -0.0155 23.9647 -0.3382
# 6 -0.0267 0.0050 -0.0339 -0.0002 -0.3382 41.3187
#
#
#
# Elastic Compliance Matrix: (Units=1/GPa)
#
#
# Indices 1 2 3 4 5 6 
#
# 1 0.008252 -0.003856 -0.002079 0.000160 0.000008 0.000004
# 2 -0.003856 0.008252 -0.002089 -0.000159 -0.000007 -0.000005
# 3 -0.002079 -0.002089 0.021528 0.000002 0.000004 0.000017
# 4 0.000160 -0.000159 0.000002 0.041705 0.000027 0.000001
# 5 0.000008 -0.000007 0.000004 0.000027 0.041733 0.000342
# 6 0.000004 -0.000005 0.000017 0.000001 0.000342 0.024205
#
#
# Mechanical properties :
#
#
# Convention : Reuss Voigt Hill
#
# Bulk Modulus (GPa) = 45.48553 72.10704 58.79629
# Shear Modulus (GPa) = 29.57681 34.63734 32.10707
#
# Velocity S-wave (km/s) = 3.79991 4.11216 3.95911
# Velocity P-wave (km/s) = 6.43881 7.59927 7.04298
#
# Compressibility (1/GPa) = 0.02198501
#
# Stress axis : x y z
#
# Youngs Moduli (GPa) = 121.18039 121.17566 46.45158
#
# Poissons Ratio (x) = 0.46720 0.09659
# Poissons Ratio (y) = 0.46722 0.09703
# Poissons Ratio (z) = 0.25197 0.25312
#
# Static dielectric constant tensor:
#      x y z
#    x 1.887360 0.000330 -0.000170 
#    y 0.000330 1.886260 -0.000450 
#    z -0.000170 -0.000450 1.727170 
# 
# From -- ./inp_files/1834.got.cif
#   From: 2010.05.17/outbox.ucp.g08.bks.cvg/sg166_1_cif.got.tgz:1834.got - 2010.06.11 15:16:39.
