data_PCOD9579046
_publ_section_title
;
Structure prediction by ZEFSAII (Michael W. Deem and Ramdas Pophale) SiO2 
 PCOD9579046
Probable space group: R -3 M
;
_chemical_formula_sum "Si O2"
_cell_formula_units_Z 180
_cell_length_a 22.276268
_cell_length_b 22.276268
_cell_length_c 27.163278
_cell_angle_alpha 90.000000
_cell_angle_beta 90.000000
_cell_angle_gamma 120.000000
_cell_volume 11673.408361
_symmetry_space_group_name_H-M "R -3 M"
_symmetry_group_IT_number 166
_symmetry_cell_setting 'hexagonal'
loop_
_space_group_symop_operation_xyz
x,y,z
-y,x-y,z
-x+y,-x,z
x-y,-y,-z
-x,-x+y,-z
y,x,-z
-x,-y,-z
y,-x+y,-z
x-y,x,-z
-x+y,y,z
x,x-y,z
-y,-x,z
2/3+x,1/3+y,1/3+z
2/3-y,1/3+x-y,1/3+z
2/3-x+y,1/3-x,1/3+z
2/3+x-y,1/3-y,1/3-z
2/3-x,1/3-x+y,1/3-z
2/3+y,1/3+x,1/3-z
2/3-x,1/3-y,1/3-z
2/3+y,1/3-x+y,1/3-z
2/3+x-y,1/3+x,1/3-z
2/3-x+y,1/3+y,1/3+z
2/3+x,1/3+x-y,1/3+z
2/3-y,1/3-x,1/3+z
1/3+x,2/3+y,2/3+z
1/3-y,2/3+x-y,2/3+z
1/3-x+y,2/3-x,2/3+z
1/3+x-y,2/3-y,2/3-z
1/3-x,2/3-x+y,2/3-z
1/3+y,2/3+x,2/3-z
1/3-x,2/3-y,2/3-z
1/3+y,2/3-x+y,2/3-z
1/3+x-y,2/3+x,2/3-z
1/3-x+y,2/3+y,2/3+z
1/3+x,2/3+x-y,2/3+z
1/3-y,2/3-x,2/3+z
loop_
_atom_site_type_symbol
_atom_site_label
_atom_site_fract_x
_atom_site_fract_y
_atom_site_fract_z
Si Si1 0.333929 0.525404 0.022667
Si Si2 0.458562 0.056094 0.042363
Si Si3 0.926084 0.210864 0.019675
Si Si4 0.406000 0.947972 0.259600
Si Si5 0.689475 0.026946 0.111072
O O1 0.264746 0.529491 0.011028
O O2 0.399274 0.600727 0.034722
O O3 0.311502 0.467164 0.065205
O O4 0.359949 0.493708 0.979471
O O5 0.520259 0.040517 0.052936
O O6 0.412592 0.047310 0.089568
O O7 0.411340 0.000000 0.000000
O O8 0.868604 0.131397 0.022461
O O9 0.939097 0.248325 0.071913
O O10 0.898441 0.246122 0.979956
O O11 0.000000 0.226193 0.000000
O O12 0.479458 0.958916 0.241903
O O13 0.374298 0.984500 0.227005
O O14 0.713137 0.046470 0.166667
#
# Coordination Sequence:
#
# PCOD9579046 Si02
#       5
#    36  36  36  36  36
#     4  10  18  29  49  72  94 120 160 208 248 284
#     4  10  18  31  49  67  91 127 168 205 241 284
#     4   9  17  32  51  70  92 124 163 200 242 289
#     4   9  17  31  48  64  90 128 164 197 238 286
#     4  11  20  29  44  72 104 127 158 199 245 302
#
# _framework density 15.419661
#
# number of rings (size 3 to 8) (size 9 to 14) (size 15 to 20)
#    0.000    2.200    4.000    0.800    0.000    1.200 
#    0.000    0.000    0.000    0.200    0.000    0.000 
#    0.000    5.600    0.000    0.000    0.000    0.000 
#
# Total GULP energy -334248.041014 kJ/mol
# GULP energy per Si atom -5570.800684 kJ/mol
# Density = 1.538457 g / cm^3
# Si number density = 15.419661 Si / 1000 Ang^3
#
#
#
# Elastic Constant Matrix: (Units=GPa)
#
#
# Indices 1 2 3 4 5 6 
#
# 1 81.4392 38.8976 7.3538 1.1935 -0.0003 0.0000
# 2 38.8976 81.4392 7.3538 -1.1935 0.0003 0.0000
# 3 7.3538 7.3538 52.4778 0.0000 0.0000 0.0000
# 4 1.1935 -1.1935 0.0000 10.9328 0.0000 0.0003
# 5 -0.0003 0.0003 0.0000 0.0000 10.9328 1.1935
# 6 0.0000 0.0000 0.0000 0.0003 1.1935 21.2708
#
#
#
# Elastic Compliance Matrix: (Units=1/GPa)
#
#
# Indices 1 2 3 4 5 6 
#
# 1 0.016053 -0.007598 -0.001185 -0.002582 0.000001 0.000000
# 2 -0.007598 0.016053 -0.001185 0.002582 -0.000001 0.000000
# 3 -0.001185 -0.001185 0.019388 0.000000 0.000000 0.000000
# 4 -0.002582 0.002582 0.000000 0.092032 0.000000 -0.000001
# 5 0.000001 -0.000001 0.000000 0.000000 0.092032 -0.005164
# 6 0.000000 0.000000 0.000000 -0.000001 -0.005164 0.047303
#
#
# Mechanical properties :
#
#
# Convention : Reuss Voigt Hill
#
# Bulk Modulus (GPa) = 31.68746 35.84072 33.76409
# Shear Modulus (GPa) = 15.95838 19.41067 17.68453
#
# Velocity S-wave (km/s) = 3.22053 3.55184 3.39024
# Velocity P-wave (km/s) = 5.86718 6.33362 6.10486
#
# Compressibility (1/GPa) = 0.03155823
#
# Stress axis : x y z
#
# Youngs Moduli (GPa) = 62.29351 62.29351 51.57898
#
# Poissons Ratio (x) = 0.47332 0.06111
# Poissons Ratio (y) = 0.47332 0.06111
# Poissons Ratio (z) = 0.07380 0.07380
#
# Static dielectric constant tensor:
#      x y z
#    x 1.525520 0.000000 0.000000 
#    y 0.000000 1.525520 0.000000 
#    z 0.000000 0.000000 1.494330 
# 
# From -- ./inp_files/10686.got.cif
#   From: 2010.05.17/outbox.cif.g08.bks.cpg/sg166_6_cif.got.tgz:10686.got - 2010.05.20 11:04:41.
