data_PCOD9579724
_publ_section_title
;
Structure prediction by ZEFSAII (Michael W. Deem and Ramdas Pophale) SiO2 
 PCOD9579724
Probable space group: R -3 C 
;
_chemical_formula_sum "Si O2"
_cell_formula_units_Z 138
_cell_length_a 17.549487
_cell_length_b 17.549487
_cell_length_c 21.752946
_cell_angle_alpha 90.000000
_cell_angle_beta 90.000000
_cell_angle_gamma 120.000000
_cell_volume 5801.997872
_symmetry_space_group_name_H-M "R -3 C "
_symmetry_group_IT_number 167
_symmetry_cell_setting 'hexagonal'
loop_
_space_group_symop_operation_xyz
x,y,z
-y,x-y,z
-x+y,-x,z
x-y,-y,1/2-z
-x,-x+y,1/2-z
y,x,1/2-z
-x,-y,-z
y,-x+y,-z
x-y,x,-z
-x+y,y,1/2+z
x,x-y,1/2+z
-y,-x,1/2+z
2/3+x,1/3+y,1/3+z
2/3-y,1/3+x-y,1/3+z
2/3-x+y,1/3-x,1/3+z
2/3+x-y,1/3-y,5/6-z
2/3-x,1/3-x+y,5/6-z
2/3+y,1/3+x,5/6-z
2/3-x,1/3-y,1/3-z
2/3+y,1/3-x+y,1/3-z
2/3+x-y,1/3+x,1/3-z
2/3-x+y,1/3+y,5/6+z
2/3+x,1/3+x-y,5/6+z
2/3-y,1/3-x,5/6+z
1/3+x,2/3+y,2/3+z
1/3-y,2/3+x-y,2/3+z
1/3-x+y,2/3-x,2/3+z
1/3+x-y,2/3-y,1/6-z
1/3-x,2/3-x+y,1/6-z
1/3+y,2/3+x,1/6-z
1/3-x,2/3-y,2/3-z
1/3+y,2/3-x+y,2/3-z
1/3+x-y,2/3+x,2/3-z
1/3-x+y,2/3+y,1/6+z
1/3+x,2/3+x-y,1/6+z
1/3-y,2/3-x,1/6+z
loop_
_atom_site_type_symbol
_atom_site_label
_atom_site_fract_x
_atom_site_fract_y
_atom_site_fract_z
Si Si1 0.000000 0.000000 0.678192
Si Si2 0.511538 0.714290 0.003558
Si Si3 0.872618 0.539284 0.583334
Si Si4 0.341929 0.332336 0.013279
Si Si5 0.181526 0.143920 0.974592
O O1 0.095051 0.074420 0.658329
O O2 0.000000 0.000000 0.750000
O O3 0.531368 0.747898 0.073556
O O4 0.526198 0.784499 0.950312
O O5 0.568199 0.669782 0.988486
O O6 0.942741 0.585751 0.528103
O O7 0.315149 0.333334 0.083334
O O8 0.266885 0.238114 0.987664
O O9 0.099647 0.161859 0.981164
#
# Coordination Sequence:
#
# PCOD9579724 Si02
#       5
#    12  36  18  36  36
#     4  12  24  48  70 113 151 198 255 334 395 484
#     4  12  26  48  77 112 159 206 271 334 406 483
#     4  12  26  50  78 114 162 214 266 336 412 484
#     4  12  27  48  77 114 159 214 270 338 410 487
#     4  12  25  49  78 118 162 213 275 336 409 488
#
# _framework density 23.78491
#
# number of rings (size 3 to 8) (size 9 to 14) (size 15 to 20)
#    0.000    0.000    3.913    5.739    0.000    1.043 
#    0.000    0.000    0.000    0.000    0.000    0.000 
#    0.000    0.000    0.000    0.000    0.000    0.000 
#
# Total GULP energy -257206.100270 kJ/mol
# GULP energy per Si atom -5591.436962 kJ/mol
# Density = 2.373077 g / cm^3
# Si number density = 23.784910 Si / 1000 Ang^3
#
#
#
# Elastic Constant Matrix: (Units=GPa)
#
#
# Indices 1 2 3 4 5 6 
#
# 1 74.4907 30.3632 17.3253 4.7499 -0.0002 0.0000
# 2 30.3632 74.4907 17.3253 -4.7499 0.0002 0.0000
# 3 17.3253 17.3253 182.6184 0.0000 0.0000 0.0000
# 4 4.7499 -4.7499 0.0000 40.6027 0.0000 0.0002
# 5 -0.0002 0.0002 0.0000 0.0000 40.6027 4.7499
# 6 0.0000 0.0000 0.0000 0.0002 4.7499 22.0637
#
#
#
# Elastic Compliance Matrix: (Units=1/GPa)
#
#
# Indices 1 2 3 4 5 6 
#
# 1 0.016546 -0.006701 -0.000934 -0.002720 0.000000 0.000000
# 2 -0.006701 0.016546 -0.000934 0.002720 0.000000 0.000000
# 3 -0.000934 -0.000934 0.005653 0.000000 0.000000 0.000000
# 4 -0.002720 0.002720 0.000000 0.025265 0.000000 0.000000
# 5 0.000000 0.000000 0.000000 0.000000 0.025265 -0.005439
# 6 0.000000 0.000000 0.000000 0.000000 -0.005439 0.046494
#
#
# Mechanical properties :
#
#
# Convention : Reuss Voigt Hill
#
# Bulk Modulus (GPa) = 46.27845 51.29193 48.78519
# Shear Modulus (GPa) = 31.22835 38.42625 34.82730
#
# Velocity S-wave (km/s) = 3.62739 4.02378 3.83072
# Velocity P-wave (km/s) = 6.08632 6.57263 6.33414
#
# Compressibility (1/GPa) = 0.02160833
#
# Stress axis : x y z
#
# Youngs Moduli (GPa) = 60.43603 60.43603 176.89305
#
# Poissons Ratio (x) = 0.40496 0.16523
# Poissons Ratio (y) = 0.40496 0.16523
# Poissons Ratio (z) = 0.05645 0.05645
#
# Static dielectric constant tensor:
#      x y z
#    x 1.923360 0.000000 0.000000 
#    y 0.000000 1.923360 0.000000 
#    z 0.000000 0.000000 1.959890 
# 
# From -- ./inp_files/6059.got.cif
#   From: 2010.05.17/outbox.cif.g08.bks.cpg/sg167_4_cif.got.tgz:6059.got - 2010.05.20 11:09:15.
