data_PCOD9579547
_publ_section_title
;
Structure prediction by ZEFSAII (Michael W. Deem and Ramdas Pophale) SiO2 
 PCOD9579547
Probable space group: R -3 C 
;
_chemical_formula_sum "Si O2"
_cell_formula_units_Z 210
_cell_length_a 28.058542
_cell_length_b 28.058542
_cell_length_c 14.881611
_cell_angle_alpha 90.000000
_cell_angle_beta 90.000000
_cell_angle_gamma 120.000000
_cell_volume 10146.371977
_symmetry_space_group_name_H-M "R -3 C "
_symmetry_group_IT_number 167
_symmetry_cell_setting 'hexagonal'
loop_
_space_group_symop_operation_xyz
x,y,z
-y,x-y,z
-x+y,-x,z
x-y,-y,1/2-z
-x,-x+y,1/2-z
y,x,1/2-z
-x,-y,-z
y,-x+y,-z
x-y,x,-z
-x+y,y,1/2+z
x,x-y,1/2+z
-y,-x,1/2+z
2/3+x,1/3+y,1/3+z
2/3-y,1/3+x-y,1/3+z
2/3-x+y,1/3-x,1/3+z
2/3+x-y,1/3-y,5/6-z
2/3-x,1/3-x+y,5/6-z
2/3+y,1/3+x,5/6-z
2/3-x,1/3-y,1/3-z
2/3+y,1/3-x+y,1/3-z
2/3+x-y,1/3+x,1/3-z
2/3-x+y,1/3+y,5/6+z
2/3+x,1/3+x-y,5/6+z
2/3-y,1/3-x,5/6+z
1/3+x,2/3+y,2/3+z
1/3-y,2/3+x-y,2/3+z
1/3-x+y,2/3-x,2/3+z
1/3+x-y,2/3-y,1/6-z
1/3-x,2/3-x+y,1/6-z
1/3+y,2/3+x,1/6-z
1/3-x,2/3-y,2/3-z
1/3+y,2/3-x+y,2/3-z
1/3+x-y,2/3+x,2/3-z
1/3-x+y,2/3+y,1/6+z
1/3+x,2/3+x-y,1/6+z
1/3-y,2/3-x,1/6+z
loop_
_atom_site_type_symbol
_atom_site_label
_atom_site_fract_x
_atom_site_fract_y
_atom_site_fract_z
Si Si1 0.333334 0.666667 0.057727
Si Si2 0.333334 0.487709 0.416667
Si Si3 0.393872 0.209715 0.432892
Si Si4 0.848954 0.616309 0.123214
Si Si5 0.935957 0.424707 0.906933
Si Si6 0.751985 0.452296 0.951366
Si Si7 0.162725 0.152563 0.439473
O O1 0.333335 0.666668 0.166667
O O2 0.276628 0.612651 0.030328
O O3 0.293164 0.433839 0.363050
O O4 0.298513 0.506720 0.474872
O O5 0.333334 0.201322 0.416667
O O6 0.394378 0.189982 0.534887
O O7 0.397070 0.165861 0.365794
O O8 0.442967 0.268865 0.400022
O O9 0.813261 0.613045 0.209120
O O10 0.904839 0.673936 0.104889
O O11 0.876361 0.373720 0.929705
O O12 0.792652 0.470350 0.864518
O O13 0.700507 0.461927 0.944314
#
# Coordination Sequence:
#
# PCOD9579547 Si02
#       7
#    12  18  36  36  36  36  36
#     4  12  24  40  53  88 141 157 233 256 297 376
#     4  12  24  40  62  92 128 164 218 260 324 382
#     4  10  21  40  62  90 121 154 209 266 316 379
#     4  10  22  41  60  90 116 160 210 261 317 374
#     4  10  22  39  65  84 122 161 202 268 315 376
#     4  12  25  39  64  92 128 183 209 268 311 389
#     4  12  20  41  64  94 120 173 217 249 331 379
#
# _framework density 20.697053
#
# number of rings (size 3 to 8) (size 9 to 14) (size 15 to 20)
#    0.000    1.029    5.143    1.029    2.400    1.371 
#    1.543    0.000    0.000    0.000    0.000    0.000 
#    0.000    0.000    0.000    0.000    0.000    0.000 
#
# Total GULP energy -389778.461187 kJ/mol
# GULP energy per Si atom -5568.263731 kJ/mol
# Density = 2.064995 g / cm^3
# Si number density = 20.697053 Si / 1000 Ang^3
#
#
#
# Elastic Constant Matrix: (Units=GPa)
#
#
# Indices 1 2 3 4 5 6 
#
# 1 99.5237 28.8728 -10.6490 -7.2165 0.0002 0.0000
# 2 28.8728 99.5238 -10.6491 7.2159 -0.0002 0.0000
# 3 -10.6490 -10.6491 38.3106 0.0000 0.0000 0.0000
# 4 -7.2165 7.2159 0.0000 6.0752 0.0000 -0.0002
# 5 0.0002 -0.0002 0.0000 0.0000 6.0751 -7.2165
# 6 0.0000 0.0000 0.0000 -0.0002 -7.2165 35.3249
#
#
#
# Elastic Compliance Matrix: (Units=1/GPa)
#
#
# Indices 1 2 3 4 5 6 
#
# 1 0.013427 -0.005262 0.002270 0.022199 -0.000001 0.000000
# 2 -0.005262 0.013427 0.002270 -0.022198 0.000001 0.000000
# 3 0.002270 0.002270 0.027364 0.000000 0.000000 0.000000
# 4 0.022199 -0.022198 0.000000 0.217339 0.000000 0.000001
# 5 -0.000001 0.000001 0.000000 0.000000 0.217351 0.044402
# 6 0.000000 0.000000 0.000000 0.000001 0.044402 0.037379
#
#
# Mechanical properties :
#
#
# Convention : Reuss Voigt Hill
#
# Bulk Modulus (GPa) = 18.94943 28.05639 23.50291
# Shear Modulus (GPa) = 9.16887 24.81395 16.99141
#
# Velocity S-wave (km/s) = 2.10705 3.46629 2.86834
# Velocity P-wave (km/s) = 3.88523 5.44108 4.72760
#
# Compressibility (1/GPa) = 0.05277204
#
# Stress axis : x y z
#
# Youngs Moduli (GPa) = 74.47711 74.47829 36.54415
#
# Poissons Ratio (x) = 0.39190 -0.08294
# Poissons Ratio (y) = 0.39190 -0.08294
# Poissons Ratio (z) = -0.16903 -0.16903
#
# Static dielectric constant tensor:
#      x y z
#    x 1.819990 0.000000 0.000000 
#    y 0.000000 1.819990 0.000000 
#    z 0.000000 0.000000 1.764500 
# 
# From -- ./inp_files/2488.got.cif
#   From: 2010.05.17/outbox.cif.g08.bks.cpg/sg167_2_cif.got.tgz:2488.got - 2010.05.20 11:09:15.
