data_PCOD9579814
_publ_section_title
;
Structure prediction by ZEFSAII (Michael W. Deem and Ramdas Pophale) SiO2 
 PCOD9579814
Probable space group: P 61
;
_chemical_formula_sum "Si O2"
_cell_formula_units_Z 48
_cell_length_a 17.996335
_cell_length_b 17.996335
_cell_length_c 9.242625
_cell_angle_alpha 90.000000
_cell_angle_beta 90.000000
_cell_angle_gamma 120.000000
_cell_volume 2592.352781
_symmetry_space_group_name_H-M "P 61"
_symmetry_group_IT_number 169
_symmetry_cell_setting 'hexagonal'
loop_
_space_group_symop_operation_xyz
x,y,z
x-y,x,1/6+z
-y,x-y,1/3+z
-x,-y,1/2+z
-x+y,-x,2/3+z
y,-x+y,5/6+z
loop_
_atom_site_type_symbol
_atom_site_label
_atom_site_fract_x
_atom_site_fract_y
_atom_site_fract_z
Si Si1 0.524429 0.905621 0.365610
Si Si2 0.144695 0.781766 0.885851
Si Si3 0.867899 0.018985 0.928715
Si Si4 0.933830 0.626483 0.593669
Si Si5 0.954418 0.282297 0.684019
Si Si6 0.181490 0.257108 0.947273
Si Si7 0.829718 0.259401 0.941678
Si Si8 0.892928 0.546222 0.271451
O O1 0.561722 0.867426 0.483748
O O2 0.516257 0.854727 0.215987
O O3 0.438180 0.901075 0.415437
O O4 0.602731 0.001635 0.336155
O O5 0.243322 0.854389 0.860163
O O6 0.091009 0.811783 0.782939
O O7 0.103052 0.760328 0.042968
O O8 0.930902 0.066522 0.797402
O O9 0.770269 0.993828 0.901811
O O10 0.911086 0.092748 0.053447
O O11 0.910409 0.579870 0.438210
O O12 0.988966 0.730489 0.573083
O O13 0.892418 0.286188 0.805587
O O14 0.035975 0.377384 0.672181
O O15 0.196306 0.343481 0.866766
O O16 0.730804 0.201947 0.901873
#
# Coordination Sequence:
#
# PCOD9579814 Si02
#       8
#     6   6   6   6   6   6   6   6
#     4  10  24  37  65  98 116 161 225 241 320 391
#     4  10  22  38  61  95 124 157 209 266 315 364
#     4  12  23  40  58  87 125 172 213 252 318 382
#     4  10  19  41  63  89 126 168 208 262 312 385
#     4  12  22  37  65  94 121 161 217 269 309 369
#     4  10  18  38  65  86 110 173 223 236 305 393
#     4  10  20  40  65  86 120 166 209 248 315 386
#     4  12  20  39  70  87 128 168 208 268 312 384
#
# _framework density 18.515996999999999
#
# number of rings (size 3 to 8) (size 9 to 14) (size 15 to 20)
#    0.000    1.500    7.500    0.750    1.750    4.000 
#    4.500    0.000    5.500    0.000    0.000    0.000 
#    0.000    0.000    0.000    0.000    0.000    0.000 
#
# Total GULP energy -267718.038945 kJ/mol
# GULP energy per Si atom -5577.459145 kJ/mol
# Density = 1.847385 g / cm^3
# Si number density = 18.515997 Si / 1000 Ang^3
#
#
#
# Elastic Constant Matrix: (Units=GPa)
#
#
# Indices 1 2 3 4 5 6 
#
# 1 98.0496 70.3847 33.2148 0.0000 0.0000 0.0000
# 2 70.3847 98.0496 33.2148 0.0000 0.0000 0.0000
# 3 33.2148 33.2148 86.7728 0.0000 0.0000 0.0000
# 4 0.0000 0.0000 0.0000 22.1213 0.0000 0.0000
# 5 0.0000 0.0000 0.0000 0.0000 22.1213 0.0000
# 6 0.0000 0.0000 0.0000 0.0000 0.0000 13.8324
#
#
#
# Elastic Compliance Matrix: (Units=1/GPa)
#
#
# Indices 1 2 3 4 5 6 
#
# 1 0.021570 -0.014577 -0.002677 0.000000 0.000000 0.000000
# 2 -0.014577 0.021570 -0.002677 0.000000 0.000000 0.000000
# 3 -0.002677 -0.002677 0.013573 0.000000 0.000000 0.000000
# 4 0.000000 0.000000 0.000000 0.045205 0.000000 0.000000
# 5 0.000000 0.000000 0.000000 0.000000 0.045205 0.000000
# 6 0.000000 0.000000 0.000000 0.000000 0.000000 0.072294
#
#
# Mechanical properties :
#
#
# Convention : Reuss Voigt Hill
#
# Bulk Modulus (GPa) = 59.33929 61.83342 60.58636
# Shear Modulus (GPa) = 18.87536 21.35220 20.11378
#
# Velocity S-wave (km/s) = 3.19628 3.39953 3.29947
# Velocity P-wave (km/s) = 6.76304 6.99115 6.87804
#
# Compressibility (1/GPa) = 0.01685224
#
# Stress axis : x y z
#
# Youngs Moduli (GPa) = 46.36112 46.36112 73.67302
#
# Poissons Ratio (x) = 0.67581 0.19720
# Poissons Ratio (y) = 0.67581 0.19720
# Poissons Ratio (z) = 0.12409 0.12409
#
# Static dielectric constant tensor:
#      x y z
#    x 1.648060 0.000000 0.000000 
#    y 0.000000 1.648060 0.000000 
#    z 0.000000 0.000000 1.687180 
# 
# From -- ./inp_files/766.got.cif
#   From: 2010.05.17/outbox.cif.g08.bks.cpg/sg169_cif.got.tgz:766.got - 2010.05.20 11:12:54.
