data_PCOD9579718
_publ_section_title
;
Structure prediction by ZEFSAII (Michael W. Deem and Ramdas Pophale) SiO2 
 PCOD9579718
Probable space group: R -3 C 
;
_chemical_formula_sum "Si O2"
_cell_formula_units_Z 150
_cell_length_a 16.813105
_cell_length_b 16.813105
_cell_length_c 26.544095
_cell_angle_alpha 90.000000
_cell_angle_beta 90.000000
_cell_angle_gamma 120.000000
_cell_volume 6498.219920
_symmetry_space_group_name_H-M "R -3 C "
_symmetry_group_IT_number 167
_symmetry_cell_setting 'hexagonal'
loop_
_space_group_symop_operation_xyz
x,y,z
-y,x-y,z
-x+y,-x,z
x-y,-y,1/2-z
-x,-x+y,1/2-z
y,x,1/2-z
-x,-y,-z
y,-x+y,-z
x-y,x,-z
-x+y,y,1/2+z
x,x-y,1/2+z
-y,-x,1/2+z
2/3+x,1/3+y,1/3+z
2/3-y,1/3+x-y,1/3+z
2/3-x+y,1/3-x,1/3+z
2/3+x-y,1/3-y,5/6-z
2/3-x,1/3-x+y,5/6-z
2/3+y,1/3+x,5/6-z
2/3-x,1/3-y,1/3-z
2/3+y,1/3-x+y,1/3-z
2/3+x-y,1/3+x,1/3-z
2/3-x+y,1/3+y,5/6+z
2/3+x,1/3+x-y,5/6+z
2/3-y,1/3-x,5/6+z
1/3+x,2/3+y,2/3+z
1/3-y,2/3+x-y,2/3+z
1/3-x+y,2/3-x,2/3+z
1/3+x-y,2/3-y,1/6-z
1/3-x,2/3-x+y,1/6-z
1/3+y,2/3+x,1/6-z
1/3-x,2/3-y,2/3-z
1/3+y,2/3-x+y,2/3-z
1/3+x-y,2/3+x,2/3-z
1/3-x+y,2/3+y,1/6+z
1/3+x,2/3+x-y,1/6+z
1/3-y,2/3-x,1/6+z
loop_
_atom_site_type_symbol
_atom_site_label
_atom_site_fract_x
_atom_site_fract_y
_atom_site_fract_z
Si Si1 0.744849 0.539664 0.516571
Si Si2 0.577326 0.457514 0.262652
Si Si3 0.429045 0.095712 0.083334
Si Si4 0.275389 0.294772 0.503501
Si Si5 0.666668 0.333334 0.892225
Si Si6 0.000000 0.000000 0.190801
O O1 0.800150 0.570739 0.463170
O O2 0.804981 0.552719 0.566231
O O3 0.711578 0.612600 0.521055
O O4 0.676333 0.430817 0.509282
O O5 0.479573 0.393739 0.291138
O O6 0.632667 0.550110 0.294936
O O7 0.636297 0.406380 0.260876
O O8 0.367429 0.037595 0.036169
O O9 0.666668 0.333335 0.833334
O O10 0.000000 0.000000 0.250000
#
# Coordination Sequence:
#
# PCOD9579718 Si02
#       6
#    36  36  18  36  12  12
#     4  12  27  50  76 104 147 204 251 300 378 451
#     4  12  23  44  74 113 154 189 244 310 380 436
#     4  12  26  46  74 110 152 192 242 298 376 448
#     4  12  24  44  77 112 149 186 240 317 370 438
#     4  12  22  38  76 118 143 199 250 308 385 451
#     4  12  28  56  70  94 152 208 253 308 367 445
#
# _framework density 23.083244000000001
#
# number of rings (size 3 to 8) (size 9 to 14) (size 15 to 20)
#    0.000    0.000    8.400    1.440    0.000    1.920 
#    4.320    2.400    0.000    0.000    0.000    0.000 
#    0.000    0.000    0.000    0.000    0.000    0.000 
#
# Total GULP energy -279103.619139 kJ/mol
# GULP energy per Si atom -5582.072383 kJ/mol
# Density = 2.303071 g / cm^3
# Si number density = 23.083244 Si / 1000 Ang^3
#
#
#
# Elastic Constant Matrix: (Units=GPa)
#
#
# Indices 1 2 3 4 5 6 
#
# 1 96.2266 31.3280 7.9744 2.7556 0.0004 0.0000
# 2 31.3280 96.2269 7.9747 -2.7554 -0.0004 0.0000
# 3 7.9744 7.9747 123.1424 -0.0002 0.0000 0.0000
# 4 2.7556 -2.7554 -0.0002 37.7987 0.0000 -0.0004
# 5 0.0004 -0.0004 0.0000 0.0000 37.7985 2.7557
# 6 0.0000 0.0000 0.0000 -0.0004 2.7557 32.4493
#
#
#
# Elastic Compliance Matrix: (Units=1/GPa)
#
#
# Indices 1 2 3 4 5 6 
#
# 1 0.011704 -0.003800 -0.000512 -0.001130 0.000000 0.000000
# 2 -0.003800 0.011704 -0.000512 0.001130 0.000000 0.000000
# 3 -0.000512 -0.000512 0.008187 0.000000 0.000000 0.000000
# 4 -0.001130 0.001130 0.000000 0.026621 0.000000 0.000000
# 5 0.000000 0.000000 0.000000 0.000000 0.026621 -0.002261
# 6 0.000000 0.000000 0.000000 0.000000 -0.002261 0.031009
#
#
# Mechanical properties :
#
#
# Convention : Reuss Voigt Hill
#
# Bulk Modulus (GPa) = 45.56398 45.57223 45.56810
# Shear Modulus (GPa) = 37.64769 39.49720 38.57245
#
# Velocity S-wave (km/s) = 4.04289 4.14100 4.09224
# Velocity P-wave (km/s) = 6.44787 6.53064 6.48939
#
# Compressibility (1/GPa) = 0.02194716
#
# Stress axis : x y z
#
# Youngs Moduli (GPa) = 85.43942 85.43965 122.14527
#
# Poissons Ratio (x) = 0.32471 0.06252
# Poissons Ratio (y) = 0.32471 0.06252
# Poissons Ratio (z) = 0.04373 0.04373
#
# Static dielectric constant tensor:
#      x y z
#    x 1.863710 0.000000 0.000000 
#    y 0.000000 1.863720 0.000000 
#    z 0.000000 0.000000 1.844350 
# 
# From -- ./inp_files/6983.got.cif
#   From: 2010.05.17/outbox.cif.g08.bks.cpg/sg167_4_cif.got.tgz:6983.got - 2010.05.20 11:09:15.
