data_PCOD9579098
_publ_section_title
;
Structure prediction by ZEFSAII (Michael W. Deem and Ramdas Pophale) SiO2 
 PCOD9579098
Probable space group: R -3 M
;
_chemical_formula_sum "Si O2"
_cell_formula_units_Z 144
_cell_length_a 21.111382
_cell_length_b 21.111382
_cell_length_c 20.652491
_cell_angle_alpha 90.000000
_cell_angle_beta 90.000000
_cell_angle_gamma 120.000000
_cell_volume 7971.433026
_symmetry_space_group_name_H-M "R -3 M"
_symmetry_group_IT_number 166
_symmetry_cell_setting 'hexagonal'
loop_
_space_group_symop_operation_xyz
x,y,z
-y,x-y,z
-x+y,-x,z
x-y,-y,-z
-x,-x+y,-z
y,x,-z
-x,-y,-z
y,-x+y,-z
x-y,x,-z
-x+y,y,z
x,x-y,z
-y,-x,z
2/3+x,1/3+y,1/3+z
2/3-y,1/3+x-y,1/3+z
2/3-x+y,1/3-x,1/3+z
2/3+x-y,1/3-y,1/3-z
2/3-x,1/3-x+y,1/3-z
2/3+y,1/3+x,1/3-z
2/3-x,1/3-y,1/3-z
2/3+y,1/3-x+y,1/3-z
2/3+x-y,1/3+x,1/3-z
2/3-x+y,1/3+y,1/3+z
2/3+x,1/3+x-y,1/3+z
2/3-y,1/3-x,1/3+z
1/3+x,2/3+y,2/3+z
1/3-y,2/3+x-y,2/3+z
1/3-x+y,2/3-x,2/3+z
1/3+x-y,2/3-y,2/3-z
1/3-x,2/3-x+y,2/3-z
1/3+y,2/3+x,2/3-z
1/3-x,2/3-y,2/3-z
1/3+y,2/3-x+y,2/3-z
1/3+x-y,2/3+x,2/3-z
1/3-x+y,2/3+y,2/3+z
1/3+x,2/3+x-y,2/3+z
1/3-y,2/3-x,2/3+z
loop_
_atom_site_type_symbol
_atom_site_label
_atom_site_fract_x
_atom_site_fract_y
_atom_site_fract_z
Si Si1 0.686690 0.068081 0.729083
Si Si2 0.801556 0.755004 0.796451
Si Si3 0.333309 0.516482 0.995323
Si Si4 0.081838 0.616392 0.726936
O O1 0.731164 0.064498 0.666667
O O2 0.733596 0.060241 0.786085
O O3 0.681251 0.140311 0.719707
O O4 0.605929 0.998600 0.725125
O O5 0.874699 0.749397 0.791995
O O6 0.808373 0.808869 0.738310
O O7 0.798190 0.780713 0.868881
O O8 0.257611 0.515222 0.003124
O O9 0.401524 0.598476 0.991293
O O10 0.076616 0.538308 0.722092
O O11 0.125611 0.666667 0.666667
#
# Coordination Sequence:
#
# PCOD9579098 Si02
#       4
#    36  36  36  36
#     4   9  17  31  50  71  96 126 162 205 251 296
#     4   9  18  32  50  72  98 132 171 205 242 292
#     4  10  19  31  49  74 104 135 166 201 242 292
#     4  10  20  33  50  73 100 130 166 208 251 293
#
# _framework density 18.064506000000002
#
# number of rings (size 3 to 8) (size 9 to 14) (size 15 to 20)
#    0.000    2.500    0.000    2.500    0.000    4.000 
#    0.000    0.000    0.000    9.250    0.000    0.000 
#    0.000   12.000    0.000    0.000    0.000    0.000 
#
# Total GULP energy -267481.052337 kJ/mol
# GULP energy per Si atom -5572.521924 kJ/mol
# Density = 1.802339 g / cm^3
# Si number density = 18.064506 Si / 1000 Ang^3
#
#
#
# Elastic Constant Matrix: (Units=GPa)
#
#
# Indices 1 2 3 4 5 6 
#
# 1 70.1497 26.7260 7.6666 1.4254 -0.0001 0.0000
# 2 26.7260 70.1497 7.6666 -1.4254 0.0001 0.0000
# 3 7.6666 7.6666 53.1798 0.0000 0.0000 0.0000
# 4 1.4254 -1.4254 0.0000 22.0678 0.0000 0.0001
# 5 -0.0001 0.0001 0.0000 0.0000 22.0678 1.4254
# 6 0.0000 0.0000 0.0000 0.0001 1.4254 21.7118
#
#
#
# Elastic Compliance Matrix: (Units=1/GPa)
#
#
# Indices 1 2 3 4 5 6 
#
# 1 0.016845 -0.006282 -0.001523 -0.001494 0.000000 0.000000
# 2 -0.006282 0.016845 -0.001523 0.001494 0.000000 0.000000
# 3 -0.001523 -0.001523 0.019243 0.000000 0.000000 0.000000
# 4 -0.001494 0.001494 0.000000 0.045508 0.000000 0.000000
# 5 0.000000 0.000000 0.000000 0.000000 0.045508 -0.002988
# 6 0.000000 0.000000 0.000000 0.000000 -0.002988 0.046254
#
#
# Mechanical properties :
#
#
# Convention : Reuss Voigt Hill
#
# Bulk Modulus (GPa) = 29.17256 30.84418 30.00837
# Shear Modulus (GPa) = 22.69790 23.26415 22.98103
#
# Velocity S-wave (km/s) = 3.54855 3.59254 3.57061
# Velocity P-wave (km/s) = 5.74228 5.85833 5.80059
#
# Compressibility (1/GPa) = 0.03427878
#
# Stress axis : x y z
#
# Youngs Moduli (GPa) = 59.36383 59.36383 51.96634
#
# Poissons Ratio (x) = 0.37291 0.07914
# Poissons Ratio (y) = 0.37291 0.07914
# Poissons Ratio (z) = 0.09040 0.09040
#
# Static dielectric constant tensor:
#      x y z
#    x 1.593300 0.000000 0.000000 
#    y 0.000000 1.593300 0.000000 
#    z 0.000000 0.000000 1.698240 
# 
# From -- ./inp_files/6578.got.cif
#   From: 2010.05.17/outbox.cif.g08.bks.cpg/sg166_4_cif.got.tgz:6578.got - 2010.05.20 11:04:41.
