data_PCOD9579053
_publ_section_title
;
Structure prediction by ZEFSAII (Michael W. Deem and Ramdas Pophale) SiO2 
 PCOD9579053
Probable space group: R -3 M
;
_chemical_formula_sum "Si O2"
_cell_formula_units_Z 216
_cell_length_a 23.601412
_cell_length_b 23.601412
_cell_length_c 25.269782
_cell_angle_alpha 90.000000
_cell_angle_beta 90.000000
_cell_angle_gamma 120.000000
_cell_volume 12190.123331
_symmetry_space_group_name_H-M "R -3 M"
_symmetry_group_IT_number 166
_symmetry_cell_setting 'hexagonal'
loop_
_space_group_symop_operation_xyz
x,y,z
-y,x-y,z
-x+y,-x,z
x-y,-y,-z
-x,-x+y,-z
y,x,-z
-x,-y,-z
y,-x+y,-z
x-y,x,-z
-x+y,y,z
x,x-y,z
-y,-x,z
2/3+x,1/3+y,1/3+z
2/3-y,1/3+x-y,1/3+z
2/3-x+y,1/3-x,1/3+z
2/3+x-y,1/3-y,1/3-z
2/3-x,1/3-x+y,1/3-z
2/3+y,1/3+x,1/3-z
2/3-x,1/3-y,1/3-z
2/3+y,1/3-x+y,1/3-z
2/3+x-y,1/3+x,1/3-z
2/3-x+y,1/3+y,1/3+z
2/3+x,1/3+x-y,1/3+z
2/3-y,1/3-x,1/3+z
1/3+x,2/3+y,2/3+z
1/3-y,2/3+x-y,2/3+z
1/3-x+y,2/3-x,2/3+z
1/3+x-y,2/3-y,2/3-z
1/3-x,2/3-x+y,2/3-z
1/3+y,2/3+x,2/3-z
1/3-x,2/3-y,2/3-z
1/3+y,2/3-x+y,2/3-z
1/3+x-y,2/3+x,2/3-z
1/3-x+y,2/3+y,2/3+z
1/3+x,2/3+x-y,2/3+z
1/3-y,2/3-x,2/3+z
loop_
_atom_site_type_symbol
_atom_site_label
_atom_site_fract_x
_atom_site_fract_y
_atom_site_fract_z
Si Si1 0.274095 0.076711 0.510950
Si Si2 0.941553 0.652724 0.229653
Si Si3 0.041653 0.749221 0.382356
Si Si4 0.941495 0.185980 0.868348
Si Si5 0.751917 0.939435 0.693406
Si Si6 0.467028 0.801036 0.889760
O O1 0.249479 0.124740 0.489728
O O2 0.275053 0.078170 0.574270
O O3 0.348913 0.107684 0.490263
O O4 0.230846 0.000000 0.500000
O O5 0.941163 0.666667 0.166667
O O6 0.907823 0.574532 0.236643
O O7 0.916088 0.691365 0.265557
O O8 0.015142 0.683776 0.252077
O O9 0.085578 0.752245 0.333334
O O10 0.979361 0.746413 0.355076
O O11 0.880772 0.119229 0.891679
O O12 0.975170 0.163344 0.823831
O O13 0.754279 0.877140 0.673556
O O14 0.817306 0.984241 0.727509
O O15 0.394209 0.788418 0.900169
O O16 0.466231 0.733116 0.877402
#
# Coordination Sequence:
#
# PCOD9579053 Si02
#       6
#    36  36  36  36  36  36
#     4  11  21  35  56  81 106 137 179 225 273 320
#     4  11  17  33  53  75 108 134 169 217 264 316
#     4  10  19  32  49  72 108 139 170 213 264 320
#     4  10  18  30  53  79 103 131 170 216 262 313
#     4  10  22  33  50  77 104 142 179 214 262 317
#     4  10  20  34  50  72 101 137 178 217 257 304
#
# _framework density 17.719263000000002
#
# number of rings (size 3 to 8) (size 9 to 14) (size 15 to 20)
#    0.000    1.667    5.000    1.167    0.000    3.333 
#    0.000    0.000    0.000    0.167    0.000    1.167 
#    0.000    0.000    0.000    0.000    0.000   53.000 
#
# Total GULP energy -401127.582315 kJ/mol
# GULP energy per Si atom -5571.216421 kJ/mol
# Density = 1.767893 g / cm^3
# Si number density = 17.719263 Si / 1000 Ang^3
#
#
#
# Elastic Constant Matrix: (Units=GPa)
#
#
# Indices 1 2 3 4 5 6 
#
# 1 69.4678 28.3270 2.5157 -2.6193 0.0005 0.0000
# 2 28.3270 69.4678 2.5157 2.6193 -0.0005 0.0000
# 3 2.5157 2.5157 28.1364 0.0000 0.0000 0.0000
# 4 -2.6193 2.6193 0.0000 8.6091 0.0000 -0.0005
# 5 0.0005 -0.0005 0.0000 0.0000 8.6091 -2.6193
# 6 0.0000 0.0000 0.0000 -0.0005 -2.6193 20.5704
#
#
#
# Elastic Compliance Matrix: (Units=1/GPa)
#
#
# Indices 1 2 3 4 5 6 
#
# 1 0.017780 -0.007507 -0.000918 0.007693 -0.000001 0.000000
# 2 -0.007507 0.017780 -0.000918 -0.007693 0.000001 0.000000
# 3 -0.000918 -0.000918 0.035705 0.000000 0.000000 0.000000
# 4 0.007693 -0.007693 0.000000 0.120837 0.000000 0.000003
# 5 -0.000001 0.000001 0.000000 0.000000 0.120837 0.015387
# 6 0.000000 0.000000 0.000000 0.000003 0.015387 0.050573
#
#
# Mechanical properties :
#
#
# Convention : Reuss Voigt Hill
#
# Bulk Modulus (GPa) = 19.01974 25.97652 22.49813
# Shear Modulus (GPa) = 12.50858 16.47195 14.49027
#
# Velocity S-wave (km/s) = 2.65982 3.05225 2.86277
# Velocity P-wave (km/s) = 4.49334 5.20707 4.86331
#
# Compressibility (1/GPa) = 0.05257697
#
# Stress axis : x y z
#
# Youngs Moduli (GPa) = 56.24430 56.24430 28.00695
#
# Poissons Ratio (x) = 0.42222 0.02572
# Poissons Ratio (y) = 0.42222 0.02572
# Poissons Ratio (z) = 0.05166 0.05166
#
# Static dielectric constant tensor:
#      x y z
#    x 1.642550 0.000000 0.000000 
#    y 0.000000 1.642550 0.000000 
#    z 0.000000 0.000000 1.611040 
# 
# From -- ./inp_files/8465.got.cif
#   From: 2010.05.17/outbox.cif.g08.bks.cpg/sg166_5_cif.got.tgz:8465.got - 2010.05.20 11:04:41.
