data_PCOD9579409
_publ_section_title
;
Structure prediction by ZEFSAII (Michael W. Deem and Ramdas Pophale) SiO2 
 PCOD9579409
Probable space group: R -3 C 
;
_chemical_formula_sum "Si O2"
_cell_formula_units_Z 270
_cell_length_a 25.312205
_cell_length_b 25.312205
_cell_length_c 23.711728
_cell_angle_alpha 90.000000
_cell_angle_beta 90.000000
_cell_angle_gamma 120.000000
_cell_volume 13156.906683
_symmetry_space_group_name_H-M "R -3 C "
_symmetry_group_IT_number 167
_symmetry_cell_setting 'hexagonal'
loop_
_space_group_symop_operation_xyz
x,y,z
-y,x-y,z
-x+y,-x,z
x-y,-y,1/2-z
-x,-x+y,1/2-z
y,x,1/2-z
-x,-y,-z
y,-x+y,-z
x-y,x,-z
-x+y,y,1/2+z
x,x-y,1/2+z
-y,-x,1/2+z
2/3+x,1/3+y,1/3+z
2/3-y,1/3+x-y,1/3+z
2/3-x+y,1/3-x,1/3+z
2/3+x-y,1/3-y,5/6-z
2/3-x,1/3-x+y,5/6-z
2/3+y,1/3+x,5/6-z
2/3-x,1/3-y,1/3-z
2/3+y,1/3-x+y,1/3-z
2/3+x-y,1/3+x,1/3-z
2/3-x+y,1/3+y,5/6+z
2/3+x,1/3+x-y,5/6+z
2/3-y,1/3-x,5/6+z
1/3+x,2/3+y,2/3+z
1/3-y,2/3+x-y,2/3+z
1/3-x+y,2/3-x,2/3+z
1/3+x-y,2/3-y,1/6-z
1/3-x,2/3-x+y,1/6-z
1/3+y,2/3+x,1/6-z
1/3-x,2/3-y,2/3-z
1/3+y,2/3-x+y,2/3-z
1/3+x-y,2/3+x,2/3-z
1/3-x+y,2/3+y,1/6+z
1/3+x,2/3+x-y,1/6+z
1/3-y,2/3-x,1/6+z
loop_
_atom_site_type_symbol
_atom_site_label
_atom_site_fract_x
_atom_site_fract_y
_atom_site_fract_z
Si Si1 0.339835 0.204659 0.551645
Si Si2 0.642863 0.484575 0.252730
Si Si3 0.073361 0.774335 0.838888
Si Si4 0.803316 0.803316 0.250000
Si Si5 0.202277 0.754529 0.676262
Si Si6 0.957336 0.601420 0.698806
Si Si7 0.042940 0.261670 0.086036
Si Si8 0.127656 0.556298 0.836569
O O1 0.323125 0.193514 0.617724
O O2 0.286592 0.142438 0.524368
O O3 0.340001 0.259892 0.516019
O O4 0.410782 0.225640 0.542558
O O5 0.712572 0.511300 0.272179
O O6 0.596527 0.449450 0.304611
O O7 0.635389 0.540727 0.229406
O O8 0.616193 0.441473 0.197527
O O9 0.051396 0.793067 0.781809
O O10 0.069632 0.710295 0.827337
O O11 0.020102 0.766435 0.881767
O O12 0.822599 0.856315 0.204810
O O13 0.143185 0.707546 0.639801
O O14 0.000000 0.639555 0.750000
O O15 0.070660 0.333334 0.083334
O O16 0.088349 0.248049 0.122656
#
# Coordination Sequence:
#
# PCOD9579409 Si02
#       8
#    36  36  36  18  36  36  36  36
#     4  11  21  35  56  87 124 168 210 262 299 368
#     4  10  23  37  62  88 123 163 212 263 325 382
#     4  11  23  34  57  87 125 172 221 247 291 373
#     4  10  22  40  56  80 116 168 216 264 302 374
#     4  11  21  37  61  91 123 165 213 267 328 372
#     4  11  21  36  53  88 132 180 210 244 298 373
#     4  10  18  30  52  82 118 168 209 249 289 361
#     4   9  21  37  54  80 118 165 209 252 314 368
#
# _framework density 20.521540999999999
#
# number of rings (size 3 to 8) (size 9 to 14) (size 15 to 20)
#    0.000    1.600    3.333    2.000    3.733    0.533 
#    0.000    0.000    0.000    0.267    0.000    0.000 
#    0.000    0.000    0.000    0.000    0.000    0.000 
#
# Total GULP energy -501468.352570 kJ/mol
# GULP energy per Si atom -5571.870584 kJ/mol
# Density = 2.047483 g / cm^3
# Si number density = 20.521541 Si / 1000 Ang^3
#
#
#
# Elastic Constant Matrix: (Units=GPa)
#
#
# Indices 1 2 3 4 5 6 
#
# 1 32.5972 11.5078 19.6003 17.4397 -0.0004 0.0000
# 2 11.5078 32.5972 19.6003 -17.4397 0.0004 0.0000
# 3 19.6003 19.6003 89.0357 0.0000 0.0000 0.0000
# 4 17.4397 -17.4397 0.0000 31.5178 0.0000 0.0004
# 5 -0.0004 0.0004 0.0000 0.0000 31.5178 17.4397
# 6 0.0000 0.0000 0.0000 0.0004 17.4397 10.5447
#
#
#
# Elastic Compliance Matrix: (Units=1/GPa)
#
#
# Indices 1 2 3 4 5 6 
#
# 1 0.293500 -0.265312 -0.006205 -0.309208 0.000007 0.000000
# 2 -0.265312 0.293500 -0.006205 0.309208 -0.000007 0.000000
# 3 -0.006205 -0.006205 0.013964 0.000000 0.000000 0.000000
# 4 -0.309208 0.309208 0.000000 0.373916 0.000000 -0.000014
# 5 0.000007 -0.000007 0.000000 0.000000 0.373916 -0.618416
# 6 0.000000 0.000000 0.000000 -0.000014 -0.618416 1.117625
#
#
# Mechanical properties :
#
#
# Convention : Reuss Voigt Hill
#
# Bulk Modulus (GPa) = 21.96884 28.40521 25.18702
# Shear Modulus (GPa) = 1.64634 21.61748 11.63191
#
# Velocity S-wave (km/s) = 0.89666 3.24914 2.38337
# Velocity P-wave (km/s) = 3.43518 5.28655 4.45803
#
# Compressibility (1/GPa) = 0.04551902
#
# Stress axis : x y z
#
# Youngs Moduli (GPa) = 3.40715 3.40715 71.61488
#
# Poissons Ratio (x) = 0.90396 0.44440
# Poissons Ratio (y) = 0.90396 0.44440
# Poissons Ratio (z) = 0.02114 0.02114
#
# Static dielectric constant tensor:
#      x y z
#    x 1.778760 0.000000 0.000000 
#    y 0.000000 1.778760 0.000000 
#    z 0.000000 0.000000 1.839810 
# 
# From -- ./inp_files/5680.got.cif
#   From: 2010.05.17/outbox.cif.g08.bks.cpg/sg167_3_cif.got.tgz:5680.got - 2010.05.20 11:09:15.
