data_PCOD9579785
_publ_section_title
;
Structure prediction by ZEFSAII (Michael W. Deem and Ramdas Pophale) SiO2 
 PCOD9579785
Probable space group: P 61
;
_chemical_formula_sum "Si O2"
_cell_formula_units_Z 42
_cell_length_a 11.710702
_cell_length_b 11.710702
_cell_length_c 16.334363
_cell_angle_alpha 90.000000
_cell_angle_beta 90.000000
_cell_angle_gamma 120.000000
_cell_volume 1939.986438
_symmetry_space_group_name_H-M "P 61"
_symmetry_group_IT_number 169
_symmetry_cell_setting 'hexagonal'
loop_
_space_group_symop_operation_xyz
x,y,z
x-y,x,1/6+z
-y,x-y,1/3+z
-x,-y,1/2+z
-x+y,-x,2/3+z
y,-x+y,5/6+z
loop_
_atom_site_type_symbol
_atom_site_label
_atom_site_fract_x
_atom_site_fract_y
_atom_site_fract_z
Si Si1 0.044896 0.276805 0.412410
Si Si2 0.734242 0.388467 0.584355
Si Si3 0.754966 0.591543 0.045972
Si Si4 0.124620 0.481325 0.694676
Si Si5 0.792299 0.250264 0.451593
Si Si6 0.893185 0.884792 0.493720
Si Si7 0.965669 0.614739 0.653403
O O1 0.110700 0.297235 0.501541
O O2 0.172199 0.358665 0.357792
O O3 0.936720 0.324820 0.410731
O O4 0.969117 0.137428 0.366906
O O5 0.770909 0.308918 0.651818
O O6 0.587347 0.364403 0.594487
O O7 0.741691 0.337385 0.494271
O O8 0.850493 0.540568 0.586676
O O9 0.649074 0.640237 0.055820
O O10 0.795971 0.558159 0.132086
O O11 0.067402 0.563291 0.646766
O O12 0.684449 0.130333 0.398693
O O13 0.003670 0.916538 0.562945
O O14 0.770368 0.736465 0.495434
#
# Coordination Sequence:
#
# PCOD9579785 Si02
#       7
#     6   6   6   6   6   6   6
#     4  10  17  32  58  87 122 154 221 271 316 390
#     4  10  20  34  56  87 126 160 204 267 332 401
#     4  10  22  38  62  93 123 170 215 265 333 397
#     4  11  22  39  62  89 130 164 213 265 336 405
#     4  10  20  33  55  95 117 165 209 268 335 382
#     4  11  21  35  60  93 122 171 226 286 343 403
#     4  10  20  35  59  88 124 164 214 274 327 400
#
# _framework density 21.649635
#
# number of rings (size 3 to 8) (size 9 to 14) (size 15 to 20)
#    0.000    1.714    2.857    5.143    2.000    0.000 
#    0.000    0.000    3.143    0.000    0.000    0.000 
#    0.000    0.000    0.000    0.000    0.000    0.000 
#
# Total GULP energy -233858.309676 kJ/mol
# GULP energy per Si atom -5568.054992 kJ/mol
# Density = 2.160036 g / cm^3
# Si number density = 21.649635 Si / 1000 Ang^3
#
#
#
# Elastic Constant Matrix: (Units=GPa)
#
#
# Indices 1 2 3 4 5 6 
#
# 1 80.5057 31.7366 18.1804 0.0000 0.0000 0.0000
# 2 31.7366 80.5057 18.1804 0.0000 0.0000 0.0000
# 3 18.1804 18.1804 42.3563 0.0000 0.0000 0.0000
# 4 0.0000 0.0000 0.0000 22.2936 0.0000 0.0000
# 5 0.0000 0.0000 0.0000 0.0000 22.2936 0.0000
# 6 0.0000 0.0000 0.0000 0.0000 0.0000 24.3846
#
#
#
# Elastic Compliance Matrix: (Units=1/GPa)
#
#
# Indices 1 2 3 4 5 6 
#
# 1 0.015426 -0.005078 -0.004442 0.000000 0.000000 0.000000
# 2 -0.005078 0.015426 -0.004442 0.000000 0.000000 0.000000
# 3 -0.004442 -0.004442 0.027422 0.000000 0.000000 0.000000
# 4 0.000000 0.000000 0.000000 0.044856 0.000000 0.000000
# 5 0.000000 0.000000 0.000000 0.000000 0.044856 0.000000
# 6 0.000000 0.000000 0.000000 0.000000 0.000000 0.041010
#
#
# Mechanical properties :
#
#
# Convention : Reuss Voigt Hill
#
# Bulk Modulus (GPa) = 32.94701 37.72917 35.33809
# Shear Modulus (GPa) = 22.02279 22.81235 22.41757
#
# Velocity S-wave (km/s) = 3.19287 3.24961 3.22136
# Velocity P-wave (km/s) = 5.37065 5.61649 5.49494
#
# Compressibility (1/GPa) = 0.03035177
#
# Stress axis : x y z
#
# Youngs Moduli (GPa) = 64.82357 64.82357 36.46675
#
# Poissons Ratio (x) = 0.32919 0.16197
# Poissons Ratio (y) = 0.32919 0.16197
# Poissons Ratio (z) = 0.28793 0.28793
#
# Static dielectric constant tensor:
#      x y z
#    x 1.834560 0.000000 0.000000 
#    y 0.000000 1.834560 0.000000 
#    z 0.000000 0.000000 1.936810 
# 
# From -- ./inp_files/1362.got.cif
#   From: 2010.05.17/outbox.cif.g08.bks.cpg/sg169_cif.got.tgz:1362.got - 2010.05.20 11:12:54.
