data_PCOD9579100
_publ_section_title
;
Structure prediction by ZEFSAII (Michael W. Deem and Ramdas Pophale) SiO2 
 PCOD9579100
Probable space group: R -3 M
;
_chemical_formula_sum "Si O2"
_cell_formula_units_Z 144
_cell_length_a 21.522417
_cell_length_b 21.522417
_cell_length_c 20.008588
_cell_angle_alpha 90.000000
_cell_angle_beta 90.000000
_cell_angle_gamma 120.000000
_cell_volume 8026.554460
_symmetry_space_group_name_H-M "R -3 M"
_symmetry_group_IT_number 166
_symmetry_cell_setting 'hexagonal'
loop_
_space_group_symop_operation_xyz
x,y,z
-y,x-y,z
-x+y,-x,z
x-y,-y,-z
-x,-x+y,-z
y,x,-z
-x,-y,-z
y,-x+y,-z
x-y,x,-z
-x+y,y,z
x,x-y,z
-y,-x,z
2/3+x,1/3+y,1/3+z
2/3-y,1/3+x-y,1/3+z
2/3-x+y,1/3-x,1/3+z
2/3+x-y,1/3-y,1/3-z
2/3-x,1/3-x+y,1/3-z
2/3+y,1/3+x,1/3-z
2/3-x,1/3-y,1/3-z
2/3+y,1/3-x+y,1/3-z
2/3+x-y,1/3+x,1/3-z
2/3-x+y,1/3+y,1/3+z
2/3+x,1/3+x-y,1/3+z
2/3-y,1/3-x,1/3+z
1/3+x,2/3+y,2/3+z
1/3-y,2/3+x-y,2/3+z
1/3-x+y,2/3-x,2/3+z
1/3+x-y,2/3-y,2/3-z
1/3-x,2/3-x+y,2/3-z
1/3+y,2/3+x,2/3-z
1/3-x,2/3-y,2/3-z
1/3+y,2/3-x+y,2/3-z
1/3+x-y,2/3+x,2/3-z
1/3-x+y,2/3+y,2/3+z
1/3+x,2/3+x-y,2/3+z
1/3-y,2/3-x,2/3+z
loop_
_atom_site_type_symbol
_atom_site_label
_atom_site_fract_x
_atom_site_fract_y
_atom_site_fract_z
Si Si1 0.877457 0.261828 0.733093
Si Si2 0.468880 0.083795 0.645151
Si Si3 0.948545 0.199203 0.060523
Si Si4 0.421188 0.136930 0.522391
O O1 0.792895 0.207106 0.740101
O O2 0.902321 0.235654 0.666667
O O3 0.899918 0.342088 0.714445
O O4 0.917473 0.246953 0.792862
O O5 0.547108 0.094216 0.649982
O O6 0.463618 0.133066 0.587340
O O7 0.415882 0.001274 0.623169
O O8 0.879712 0.120289 0.067588
O O9 0.996105 0.223076 0.126890
O O10 0.000000 0.205414 0.000000
O O11 0.433064 0.216532 0.511939
#
# Coordination Sequence:
#
# PCOD9579100 Si02
#       4
#    36  36  36  36
#     4   8  15  30  52  74  97 129 167 212 265 314
#     4  10  19  31  51  78 106 134 167 212 265 319
#     4  11  22  35  52  75 106 142 178 217 257 300
#     4  10  19  33  53  73  98 137 181 221 260 304
#
# _framework density 17.940449999999998
#
# number of rings (size 3 to 8) (size 9 to 14) (size 15 to 20)
#    0.000    2.250    0.000    6.750    0.000    2.000 
#    0.000    0.000    0.000   16.000    0.000    0.000 
#    0.000    0.000    0.000    0.000    0.000  563.250 
#
# Total GULP energy -267902.036726 kJ/mol
# GULP energy per Si atom -5581.292432 kJ/mol
# Density = 1.789962 g / cm^3
# Si number density = 17.940450 Si / 1000 Ang^3
#
#
#
# Elastic Constant Matrix: (Units=GPa)
#
#
# Indices 1 2 3 4 5 6 
#
# 1 115.7146 74.2633 45.8769 13.0706 0.0001 0.0000
# 2 74.2633 115.7146 45.8769 -13.0706 -0.0001 0.0000
# 3 45.8769 45.8769 69.5670 0.0000 0.0000 0.0000
# 4 13.0706 -13.0706 0.0000 22.0939 0.0000 -0.0001
# 5 0.0001 -0.0001 0.0000 0.0000 22.0939 13.0706
# 6 0.0000 0.0000 0.0000 -0.0001 13.0706 20.7256
#
#
#
# Elastic Compliance Matrix: (Units=1/GPa)
#
#
# Indices 1 2 3 4 5 6 
#
# 1 0.023103 -0.015379 -0.005094 -0.022766 0.000000 0.000000
# 2 -0.015379 0.023103 -0.005094 0.022766 0.000000 0.000000
# 3 -0.005094 -0.005094 0.021093 0.000000 0.000000 0.000000
# 4 -0.022766 0.022766 0.000000 0.072197 0.000000 0.000000
# 5 0.000000 0.000000 0.000000 0.000000 0.072197 -0.045531
# 6 0.000000 0.000000 0.000000 0.000000 -0.045531 0.076964
#
#
# Mechanical properties :
#
#
# Convention : Reuss Voigt Hill
#
# Bulk Modulus (GPa) = 61.85817 70.33674 66.09745
# Shear Modulus (GPa) = 14.48530 21.98131 18.23331
#
# Velocity S-wave (km/s) = 2.84458 3.50414 3.19144
# Velocity P-wave (km/s) = 6.73375 7.46075 7.10655
#
# Compressibility (1/GPa) = 0.01616601
#
# Stress axis : x y z
#
# Youngs Moduli (GPa) = 43.28474 43.28474 47.40979
#
# Poissons Ratio (x) = 0.66568 0.24149
# Poissons Ratio (y) = 0.66568 0.24149
# Poissons Ratio (z) = 0.22047 0.22047
#
# Static dielectric constant tensor:
#      x y z
#    x 1.617850 0.000000 0.000000 
#    y 0.000000 1.617850 0.000000 
#    z 0.000000 0.000000 1.663610 
# 
# From -- ./inp_files/6623.got.cif
#   From: 2010.05.17/outbox.cif.g08.bks.cpg/sg166_4_cif.got.tgz:6623.got - 2010.05.20 11:04:41.
