data_PCOD9579986
_publ_section_title
;
Structure prediction by ZEFSAII (Michael W. Deem and Ramdas Pophale) SiO2 
 PCOD9579986
Probable space group: P 61
;
_chemical_formula_sum "Si O2"
_cell_formula_units_Z 36
_cell_length_a 11.529815
_cell_length_b 11.529815
_cell_length_c 12.918299
_cell_angle_alpha 90.000000
_cell_angle_beta 90.000000
_cell_angle_gamma 120.000000
_cell_volume 1487.238577
_symmetry_space_group_name_H-M "P 61"
_symmetry_group_IT_number 169
_symmetry_cell_setting 'hexagonal'
loop_
_space_group_symop_operation_xyz
x,y,z
x-y,x,1/6+z
-y,x-y,1/3+z
-x,-y,1/2+z
-x+y,-x,2/3+z
y,-x+y,5/6+z
loop_
_atom_site_type_symbol
_atom_site_label
_atom_site_fract_x
_atom_site_fract_y
_atom_site_fract_z
Si Si1 0.343795 0.844782 0.237200
Si Si2 0.625399 0.091231 0.175450
Si Si3 0.905298 0.779395 0.452467
Si Si4 0.329038 0.737106 0.018428
Si Si5 0.192096 0.195132 0.357313
Si Si6 0.259830 0.897570 0.887946
O O1 0.300100 0.749292 0.137086
O O2 0.303808 0.744802 0.333171
O O3 0.263048 0.923015 0.236156
O O4 0.499032 0.953006 0.214620
O O5 0.728337 0.077936 0.099638
O O6 0.582059 0.195166 0.136832
O O7 0.713365 0.152185 0.279648
O O8 0.878519 0.844288 0.352932
O O9 0.770867 0.735285 0.521988
O O10 0.357675 0.876972 0.966227
O O11 0.180370 0.299060 0.280028
O O12 0.090655 0.163894 0.450296
#
# Coordination Sequence:
#
# PCOD9579986 Si02
#       6
#     6   6   6   6   6   6
#     4  12  26  47  72 113 152 198 249 311 381 444
#     4  11  23  45  71 105 146 185 253 299 373 448
#     4  10  22  40  69 102 134 186 238 295 357 435
#     4  12  24  45  73 107 147 194 243 311 371 444
#     4  12  25  48  77 113 148 198 254 309 378 456
#     4  11  22  43  72 100 137 195 241 295 362 447
#
# _framework density 24.205933000000002
#
# number of rings (size 3 to 8) (size 9 to 14) (size 15 to 20)
#    0.000    0.667    5.000    4.000    0.000    0.000 
#    3.000    8.333    0.000    0.000    0.000    0.000 
#    0.000    0.000    0.000    0.000    0.000    0.000 
#
# Total GULP energy -201299.539010 kJ/mol
# GULP energy per Si atom -5591.653861 kJ/mol
# Density = 2.415084 g / cm^3
# Si number density = 24.205933 Si / 1000 Ang^3
#
#
#
# Elastic Constant Matrix: (Units=GPa)
#
#
# Indices 1 2 3 4 5 6 
#
# 1 113.9563 59.5214 6.1198 0.0000 0.0000 0.0000
# 2 59.5214 113.9563 6.1198 0.0000 0.0000 0.0000
# 3 6.1198 6.1198 14.4695 0.0000 0.0000 0.0000
# 4 0.0000 0.0000 0.0000 21.1320 0.0000 0.0000
# 5 0.0000 0.0000 0.0000 0.0000 21.1320 0.0000
# 6 0.0000 0.0000 0.0000 0.0000 0.0000 27.2174
#
#
#
# Elastic Compliance Matrix: (Units=1/GPa)
#
#
# Indices 1 2 3 4 5 6 
#
# 1 0.012156 -0.006214 -0.002513 0.000000 0.000000 0.000000
# 2 -0.006214 0.012156 -0.002513 0.000000 0.000000 0.000000
# 3 -0.002513 -0.002513 0.071236 0.000000 0.000000 0.000000
# 4 0.000000 0.000000 0.000000 0.047322 0.000000 0.000000
# 5 0.000000 0.000000 0.000000 0.000000 0.047322 0.000000
# 6 0.000000 0.000000 0.000000 0.000000 0.000000 0.036741
#
#
# Mechanical properties :
#
#
# Convention : Reuss Voigt Hill
#
# Bulk Modulus (GPa) = 13.68591 42.87822 28.28207
# Shear Modulus (GPa) = 18.26351 25.27102 21.76726
#
# Velocity S-wave (km/s) = 2.74981 3.23461 3.00201
# Velocity P-wave (km/s) = 3.96839 5.63051 4.87087
#
# Compressibility (1/GPa) = 0.07306783
#
# Stress axis : x y z
#
# Youngs Moduli (GPa) = 82.26283 82.26283 14.03776
#
# Poissons Ratio (x) = 0.51122 0.03528
# Poissons Ratio (y) = 0.51122 0.03528
# Poissons Ratio (z) = 0.20673 0.20673
#
# Static dielectric constant tensor:
#      x y z
#    x 1.980520 0.000000 0.000000 
#    y 0.000000 1.980520 0.000000 
#    z 0.000000 0.000000 1.902480 
# 
# From -- ./inp_files/1346.got.cif
#   From: 2010.05.17/outbox.cif.g08.bks.cpg/sg169_cif.got.tgz:1346.got - 2010.05.20 11:12:54.
