data_PCOD9579937
_publ_section_title
;
Structure prediction by ZEFSAII (Michael W. Deem and Ramdas Pophale) SiO2 
 PCOD9579937
Probable space group: P 61
;
_chemical_formula_sum "Si O2"
_cell_formula_units_Z 48
_cell_length_a 25.604738
_cell_length_b 25.604738
_cell_length_c 5.430619
_cell_angle_alpha 90.000000
_cell_angle_beta 90.000000
_cell_angle_gamma 120.000000
_cell_volume 3083.334476
_symmetry_space_group_name_H-M "P 61"
_symmetry_group_IT_number 169
_symmetry_cell_setting 'hexagonal'
loop_
_space_group_symop_operation_xyz
x,y,z
x-y,x,1/6+z
-y,x-y,1/3+z
-x,-y,1/2+z
-x+y,-x,2/3+z
y,-x+y,5/6+z
loop_
_atom_site_type_symbol
_atom_site_label
_atom_site_fract_x
_atom_site_fract_y
_atom_site_fract_z
Si Si1 0.463156 0.990553 0.942730
Si Si2 0.650582 0.137287 0.567651
Si Si3 0.273760 0.640208 0.139199
Si Si4 0.832673 0.334750 0.598764
Si Si5 0.599635 0.818311 0.250092
Si Si6 0.208498 0.522838 0.894602
Si Si7 0.597494 0.787245 0.753587
Si Si8 0.644767 0.541936 0.434846
O O1 0.494836 0.984817 0.689883
O O2 0.441183 0.036598 0.851489
O O3 0.407185 0.927732 0.034096
O O4 0.657078 0.171742 0.312655
O O5 0.716282 0.143156 0.590914
O O6 0.651354 0.170975 0.819479
O O7 0.295732 0.620744 0.374793
O O8 0.216752 0.648017 0.169408
O O9 0.263410 0.589746 0.934244
O O10 0.803637 0.261343 0.588000
O O11 0.856500 0.358379 0.324260
O O12 0.881198 0.362931 0.820700
O O13 0.532363 0.755708 0.231465
O O14 0.629067 0.812401 0.496648
O O15 0.591570 0.876182 0.268925
O O16 0.631643 0.817529 0.001560
#
# Coordination Sequence:
#
# PCOD9579937 Si02
#       8
#     6   6   6   6   6   6   6   6
#     4  12  26  38  48  74  82 110 146 168 210 250
#     4  10  21  38  53  63  86 108 134 174 189 255
#     4  12  28  34  48  72  94 112 138 184 206 270
#     4  10  22  37  53  66  86 114 136 159 217 243
#     4   8  15  30  50  65  78 103 132 153 192 245
#     4  10  22  37  53  66  86 114 136 159 217 243
#     4   8  15  30  50  65  78 103 132 153 192 245
#     4  10  21  38  53  63  86 108 134 174 189 255
#
# _framework density 15.567562000000001
#
# number of rings (size 3 to 8) (size 9 to 14) (size 15 to 20)
#    0.000    2.000    0.000    3.750   14.000    0.000 
#    0.000    0.000    0.000    0.000    0.000    0.000 
#    0.000    0.000    0.000    0.000    0.000    0.000 
#
# Total GULP energy -267401.270144 kJ/mol
# GULP energy per Si atom -5570.859795 kJ/mol
# Density = 1.553213 g / cm^3
# Si number density = 15.567562 Si / 1000 Ang^3
#
#
#
# Elastic Constant Matrix: (Units=GPa)
#
#
# Indices 1 2 3 4 5 6 
#
# 1 35.6383 10.9046 13.3666 0.0000 0.0000 0.0000
# 2 10.9046 35.6383 13.3666 0.0000 0.0000 0.0000
# 3 13.3666 13.3666 132.2588 0.0000 0.0000 0.0000
# 4 0.0000 0.0000 0.0000 17.9664 0.0000 0.0000
# 5 0.0000 0.0000 0.0000 0.0000 17.9664 0.0000
# 6 0.0000 0.0000 0.0000 0.0000 0.0000 12.3668
#
#
#
# Elastic Compliance Matrix: (Units=1/GPa)
#
#
# Indices 1 2 3 4 5 6 
#
# 1 0.031620 -0.008811 -0.002305 0.000000 0.000000 0.000000
# 2 -0.008811 0.031620 -0.002305 0.000000 0.000000 0.000000
# 3 -0.002305 -0.002305 0.008027 0.000000 0.000000 0.000000
# 4 0.000000 0.000000 0.000000 0.055659 0.000000 0.000000
# 5 0.000000 0.000000 0.000000 0.000000 0.055659 0.000000
# 6 0.000000 0.000000 0.000000 0.000000 0.000000 0.080861
#
#
# Mechanical properties :
#
#
# Convention : Reuss Voigt Hill
#
# Bulk Modulus (GPa) = 22.50970 30.97896 26.74433
# Shear Modulus (GPa) = 16.38820 20.71978 18.55399
#
# Velocity S-wave (km/s) = 3.24808 3.65219 3.45604
# Velocity P-wave (km/s) = 5.34391 6.14227 5.75695
#
# Compressibility (1/GPa) = 0.04442528
#
# Stress axis : x y z
#
# Youngs Moduli (GPa) = 31.62538 31.62538 124.58131
#
# Poissons Ratio (x) = 0.27864 0.28719
# Poissons Ratio (y) = 0.27864 0.28719
# Poissons Ratio (z) = 0.07290 0.07290
#
# Static dielectric constant tensor:
#      x y z
#    x 1.530320 0.000000 0.000000 
#    y 0.000000 1.530320 0.000000 
#    z 0.000000 0.000000 1.615570 
# 
# From -- ./inp_files/354.got.cif
#   From: 2010.05.17/outbox.cif.g08.bks.cpg/sg169_cif.got.tgz:354.got - 2010.05.20 11:12:54.
