data_PCOD9579458
_publ_section_title
;
Structure prediction by ZEFSAII (Michael W. Deem and Ramdas Pophale) SiO2 
 PCOD9579458
Probable space group: R -3 C 
;
_chemical_formula_sum "Si O2"
_cell_formula_units_Z 144
_cell_length_a 23.476999
_cell_length_b 23.476999
_cell_length_c 13.944167
_cell_angle_alpha 90.000000
_cell_angle_beta 90.000000
_cell_angle_gamma 120.000000
_cell_volume 6655.924240
_symmetry_space_group_name_H-M "R -3 C "
_symmetry_group_IT_number 167
_symmetry_cell_setting 'hexagonal'
loop_
_space_group_symop_operation_xyz
x,y,z
-y,x-y,z
-x+y,-x,z
x-y,-y,1/2-z
-x,-x+y,1/2-z
y,x,1/2-z
-x,-y,-z
y,-x+y,-z
x-y,x,-z
-x+y,y,1/2+z
x,x-y,1/2+z
-y,-x,1/2+z
2/3+x,1/3+y,1/3+z
2/3-y,1/3+x-y,1/3+z
2/3-x+y,1/3-x,1/3+z
2/3+x-y,1/3-y,5/6-z
2/3-x,1/3-x+y,5/6-z
2/3+y,1/3+x,5/6-z
2/3-x,1/3-y,1/3-z
2/3+y,1/3-x+y,1/3-z
2/3+x-y,1/3+x,1/3-z
2/3-x+y,1/3+y,5/6+z
2/3+x,1/3+x-y,5/6+z
2/3-y,1/3-x,5/6+z
1/3+x,2/3+y,2/3+z
1/3-y,2/3+x-y,2/3+z
1/3-x+y,2/3-x,2/3+z
1/3+x-y,2/3-y,1/6-z
1/3-x,2/3-x+y,1/6-z
1/3+y,2/3+x,1/6-z
1/3-x,2/3-y,2/3-z
1/3+y,2/3-x+y,2/3-z
1/3+x-y,2/3+x,2/3-z
1/3-x+y,2/3+y,1/6+z
1/3+x,2/3+x-y,1/6+z
1/3-y,2/3-x,1/6+z
loop_
_atom_site_type_symbol
_atom_site_label
_atom_site_fract_x
_atom_site_fract_y
_atom_site_fract_z
Si Si1 0.844467 0.108597 0.382369
Si Si2 0.522250 0.257275 0.811403
Si Si3 0.410292 0.441055 0.415654
Si Si4 0.247448 0.429161 0.837477
O O1 0.784344 0.117677 0.416667
O O2 0.873193 0.082512 0.463234
O O3 0.900341 0.181837 0.347385
O O4 0.829770 0.069543 0.282152
O O5 0.559890 0.324702 0.870336
O O6 0.498451 0.274380 0.713015
O O7 0.333334 0.392962 0.416667
O O8 0.435931 0.500563 0.493646
O O9 0.453072 0.406823 0.439856
#
# Coordination Sequence:
#
# PCOD9579458 Si02
#       4
#    36  36  36  36
#     4  10  19  38  67  92 130 170 204 265 340 391
#     4  12  25  42  64  90 126 175 227 279 331 390
#     4   9  16  33  64  92 129 165 203 254 320 400
#     4   9  20  37  61  94 127 167 213 264 323 401
#
# _framework density 21.634861000000001
#
# number of rings (size 3 to 8) (size 9 to 14) (size 15 to 20)
#    1.500    0.500    2.500    1.750    0.000    1.000 
#    0.000    1.250    5.500    3.000    0.000    0.000 
#    0.000    0.000    0.000    0.000    0.000    0.000 
#
# Total GULP energy -267641.992932 kJ/mol
# GULP energy per Si atom -5575.874853 kJ/mol
# Density = 2.158562 g / cm^3
# Si number density = 21.634861 Si / 1000 Ang^3
#
#
#
# Elastic Constant Matrix: (Units=GPa)
#
#
# Indices 1 2 3 4 5 6 
#
# 1 67.6671 33.5535 15.0204 0.1009 -0.0003 0.0000
# 2 33.5535 67.6671 15.0204 -0.1009 0.0003 0.0000
# 3 15.0204 15.0204 55.4850 0.0000 0.0000 0.0000
# 4 0.1009 -0.1009 0.0000 16.2904 0.0000 0.0003
# 5 -0.0003 0.0003 0.0000 0.0000 16.2904 0.1009
# 6 0.0000 0.0000 0.0000 0.0003 0.1009 17.0568
#
#
#
# Elastic Compliance Matrix: (Units=1/GPa)
#
#
# Indices 1 2 3 4 5 6 
#
# 1 0.020029 -0.009286 -0.002908 -0.000182 0.000001 0.000000
# 2 -0.009286 0.020029 -0.002908 0.000182 -0.000001 0.000000
# 3 -0.002908 -0.002908 0.019597 0.000000 0.000000 0.000000
# 4 -0.000182 0.000182 0.000000 0.061388 0.000000 -0.000001
# 5 0.000001 -0.000001 0.000000 0.000000 0.061388 -0.000363
# 6 0.000000 0.000000 0.000000 -0.000001 -0.000363 0.058630
#
#
# Mechanical properties :
#
#
# Convention : Reuss Voigt Hill
#
# Bulk Modulus (GPa) = 33.95593 35.33422 34.64508
# Shear Modulus (GPa) = 17.78836 18.40916 18.09876
#
# Velocity S-wave (km/s) = 2.87053 2.92019 2.89546
# Velocity P-wave (km/s) = 5.16872 5.26664 5.21791
#
# Compressibility (1/GPa) = 0.02944993
#
# Stress axis : x y z
#
# Youngs Moduli (GPa) = 49.92835 49.92835 51.02710
#
# Poissons Ratio (x) = 0.46364 0.14839
# Poissons Ratio (y) = 0.46364 0.14839
# Poissons Ratio (z) = 0.14520 0.14520
#
# Static dielectric constant tensor:
#      x y z
#    x 1.777830 0.000000 0.000000 
#    y 0.000000 1.777830 0.000000 
#    z 0.000000 0.000000 1.821140 
# 
# From -- ./inp_files/3279.got.cif
#   From: 2010.05.17/outbox.cif.g08.bks.cpg/sg167_2_cif.got.tgz:3279.got - 2010.05.20 11:09:15.
