data_PCOD9579467
_publ_section_title
;
Structure prediction by ZEFSAII (Michael W. Deem and Ramdas Pophale) SiO2 
 PCOD9579467
Probable space group: R -3 C 
;
_chemical_formula_sum "Si O2"
_cell_formula_units_Z 252
_cell_length_a 28.282365
_cell_length_b 28.282365
_cell_length_c 19.936834
_cell_angle_alpha 90.000000
_cell_angle_beta 90.000000
_cell_angle_gamma 120.000000
_cell_volume 13810.782000
_symmetry_space_group_name_H-M "R -3 C "
_symmetry_group_IT_number 167
_symmetry_cell_setting 'hexagonal'
loop_
_space_group_symop_operation_xyz
x,y,z
-y,x-y,z
-x+y,-x,z
x-y,-y,1/2-z
-x,-x+y,1/2-z
y,x,1/2-z
-x,-y,-z
y,-x+y,-z
x-y,x,-z
-x+y,y,1/2+z
x,x-y,1/2+z
-y,-x,1/2+z
2/3+x,1/3+y,1/3+z
2/3-y,1/3+x-y,1/3+z
2/3-x+y,1/3-x,1/3+z
2/3+x-y,1/3-y,5/6-z
2/3-x,1/3-x+y,5/6-z
2/3+y,1/3+x,5/6-z
2/3-x,1/3-y,1/3-z
2/3+y,1/3-x+y,1/3-z
2/3+x-y,1/3+x,1/3-z
2/3-x+y,1/3+y,5/6+z
2/3+x,1/3+x-y,5/6+z
2/3-y,1/3-x,5/6+z
1/3+x,2/3+y,2/3+z
1/3-y,2/3+x-y,2/3+z
1/3-x+y,2/3-x,2/3+z
1/3+x-y,2/3-y,1/6-z
1/3-x,2/3-x+y,1/6-z
1/3+y,2/3+x,1/6-z
1/3-x,2/3-y,2/3-z
1/3+y,2/3-x+y,2/3-z
1/3+x-y,2/3+x,2/3-z
1/3-x+y,2/3+y,1/6+z
1/3+x,2/3+x-y,1/6+z
1/3-y,2/3-x,1/6+z
loop_
_atom_site_type_symbol
_atom_site_label
_atom_site_fract_x
_atom_site_fract_y
_atom_site_fract_z
Si Si1 0.331909 0.066034 0.252249
Si Si2 0.352588 0.079099 0.109004
Si Si3 0.496657 0.888255 0.876199
Si Si4 0.271414 0.448633 0.393663
Si Si5 0.525369 0.628324 0.085487
Si Si6 0.244518 0.848532 0.600529
Si Si7 0.073752 0.795372 0.548039
O O1 0.366613 0.091072 0.185734
O O2 0.279023 0.074582 0.250118
O O3 0.374940 0.100731 0.309023
O O4 0.306533 0.000000 0.250000
O O5 0.373623 0.040289 0.083334
O O6 0.382290 0.134274 0.067911
O O7 0.288787 0.048606 0.104518
O O8 0.522521 0.855855 0.916667
O O9 0.436426 0.869880 0.902565
O O10 0.504960 0.896860 0.795964
O O11 0.333334 0.488081 0.416667
O O12 0.269727 0.451675 0.311617
O O13 0.515863 0.606086 0.161699
O O14 0.554823 0.693456 0.089343
O O15 0.231965 0.898632 0.583334
O O16 0.184841 0.796117 0.610714
O O17 0.083226 0.749893 0.583334
#
# Coordination Sequence:
#
# PCOD9579467 Si02
#       7
#    36  36  36  36  36  36  36
#     4  10  20  32  57  82 114 154 194 231 269 330
#     4  10  21  33  49  79 112 149 190 226 273 327
#     4  11  24  39  57  79 113 146 183 236 299 341
#     4  10  21  40  59  81 108 146 191 228 280 346
#     4  11  22  33  58  80 106 151 195 233 271 328
#     4  11  23  39  53  80 114 151 191 237 285 336
#     4  11  22  36  56  78 115 153 191 235 280 332
#
# _framework density 18.246614000000001
#
# number of rings (size 3 to 8) (size 9 to 14) (size 15 to 20)
#    0.000    1.429    1.429    6.429    6.000    1.714 
#    0.000    0.000    0.000    0.286    0.000    0.000 
#    0.000    0.000    0.000    7.429    0.000    0.000 
#
# Total GULP energy -467789.956328 kJ/mol
# GULP energy per Si atom -5568.928052 kJ/mol
# Density = 1.820508 g / cm^3
# Si number density = 18.246614 Si / 1000 Ang^3
#
#
#
# Elastic Constant Matrix: (Units=GPa)
#
#
# Indices 1 2 3 4 5 6 
#
# 1 -1.0924 59.5441 7.9899 -32.6061 0.0004 0.0000
# 2 59.5441 -1.0924 7.9899 32.6061 -0.0004 0.0000
# 3 7.9899 7.9899 127.0541 0.0000 0.0000 0.0000
# 4 -32.6061 32.6061 0.0000 -2.4652 0.0000 -0.0004
# 5 0.0004 -0.0004 0.0000 0.0000 -2.4652 -32.6061
# 6 0.0000 0.0000 0.0000 -0.0004 -32.6061 -30.3182
#
#
#
# Elastic Compliance Matrix: (Units=1/GPa)
#
#
# Indices 1 2 3 4 5 6 
#
# 1 0.009327 0.008080 -0.001095 -0.016494 0.000000 0.000000
# 2 0.008080 0.009327 -0.001095 0.016494 0.000000 0.000000
# 3 -0.001095 -0.001095 0.008008 0.000000 0.000000 0.000000
# 4 -0.016494 0.016494 0.000000 0.030673 0.000000 0.000000
# 5 0.000000 0.000000 0.000000 0.000000 0.030673 -0.032988
# 6 0.000000 0.000000 0.000000 0.000000 -0.032988 0.002494
#
#
# Mechanical properties :
#
#
# Convention : Reuss Voigt Hill
#
# Bulk Modulus (GPa) = 26.01155 30.65744 28.33450
# Shear Modulus (GPa) = 54.62271 -3.76003 25.43134
#
# Velocity S-wave (km/s) = 5.47730 -1.43706 3.73736
# Velocity P-wave (km/s) = 7.36801 3.75295 5.84689
#
# Compressibility (1/GPa) = 0.03844446
#
# Stress axis : x y z
#
# Youngs Moduli (GPa) = 107.21297 107.21297 124.86975
#
# Poissons Ratio (x) = -0.86630 0.13669
# Poissons Ratio (y) = -0.86630 0.13669
# Poissons Ratio (z) = 0.11736 0.11736
#
# Static dielectric constant tensor:
#      x y z
#    x 1.669030 0.000000 0.000000 
#    y 0.000000 1.669030 0.000000 
#    z 0.000000 0.000000 1.926160 
# 
# From -- ./inp_files/3694.got.cif
#   From: 2010.05.17/outbox.cif.g08.bks.cpg/sg167_2_cif.got.tgz:3694.got - 2010.05.20 11:09:15.
