data_PCOD9579672
_publ_section_title
;
Structure prediction by ZEFSAII (Michael W. Deem and Ramdas Pophale) SiO2 
 PCOD9579672
Probable space group: R -3 C 
;
_chemical_formula_sum "Si O2"
_cell_formula_units_Z 144
_cell_length_a 31.322628
_cell_length_b 31.322628
_cell_length_c 8.061532
_cell_angle_alpha 90.000000
_cell_angle_beta 90.000000
_cell_angle_gamma 120.000000
_cell_volume 6849.590360
_symmetry_space_group_name_H-M "R -3 C "
_symmetry_group_IT_number 167
_symmetry_cell_setting 'hexagonal'
loop_
_space_group_symop_operation_xyz
x,y,z
-y,x-y,z
-x+y,-x,z
x-y,-y,1/2-z
-x,-x+y,1/2-z
y,x,1/2-z
-x,-y,-z
y,-x+y,-z
x-y,x,-z
-x+y,y,1/2+z
x,x-y,1/2+z
-y,-x,1/2+z
2/3+x,1/3+y,1/3+z
2/3-y,1/3+x-y,1/3+z
2/3-x+y,1/3-x,1/3+z
2/3+x-y,1/3-y,5/6-z
2/3-x,1/3-x+y,5/6-z
2/3+y,1/3+x,5/6-z
2/3-x,1/3-y,1/3-z
2/3+y,1/3-x+y,1/3-z
2/3+x-y,1/3+x,1/3-z
2/3-x+y,1/3+y,5/6+z
2/3+x,1/3+x-y,5/6+z
2/3-y,1/3-x,5/6+z
1/3+x,2/3+y,2/3+z
1/3-y,2/3+x-y,2/3+z
1/3-x+y,2/3-x,2/3+z
1/3+x-y,2/3-y,1/6-z
1/3-x,2/3-x+y,1/6-z
1/3+y,2/3+x,1/6-z
1/3-x,2/3-y,2/3-z
1/3+y,2/3-x+y,2/3-z
1/3+x-y,2/3+x,2/3-z
1/3-x+y,2/3+y,1/6+z
1/3+x,2/3+x-y,1/6+z
1/3-y,2/3-x,1/6+z
loop_
_atom_site_type_symbol
_atom_site_label
_atom_site_fract_x
_atom_site_fract_y
_atom_site_fract_z
Si Si1 0.317676 0.463331 0.722261
Si Si2 0.464217 0.053094 0.327166
Si Si3 0.056844 0.503815 0.804603
Si Si4 0.764993 0.432700 0.781103
O O1 0.353844 0.444596 0.658065
O O2 0.263988 0.424445 0.652368
O O3 0.329842 0.517136 0.656179
O O4 0.333334 0.472005 0.916667
O O5 0.485601 0.054031 0.508757
O O6 0.512223 0.073680 0.207984
O O7 0.426139 0.000000 0.250000
O O8 0.000000 0.475405 0.750000
O O9 0.767287 0.433954 0.583334
O O10 0.765012 0.383614 0.836946
#
# Coordination Sequence:
#
# PCOD9579672 Si02
#       4
#    36  36  36  36
#     4  11  23  40  62  91 121 156 202 253 304 365
#     4  11  22  39  62  88 119 157 198 246 300 362
#     4  11  22  39  62  88 119 157 198 245 301 361
#     4  11  24  40  61  87 122 162 204 252 303 360
#
# _framework density 21.023154999999999
#
# number of rings (size 3 to 8) (size 9 to 14) (size 15 to 20)
#    0.000    1.000    0.000    9.250    0.000    8.000 
#    0.000    3.750    0.000    0.000    0.000    0.000 
#    0.000    0.000    0.000    0.000    0.000    0.000 
#
# Total GULP energy -267999.905128 kJ/mol
# GULP energy per Si atom -5583.331357 kJ/mol
# Density = 2.097530 g / cm^3
# Si number density = 21.023155 Si / 1000 Ang^3
#
#
#
# Elastic Constant Matrix: (Units=GPa)
#
#
# Indices 1 2 3 4 5 6 
#
# 1 98.3899 67.2385 5.3428 -2.1032 -0.0551 -0.0070
# 2 67.2385 98.3812 5.6785 2.1088 0.0749 0.0168
# 3 5.3428 5.6785 76.0668 0.1190 -0.1987 0.0056
# 4 -2.1032 2.1088 0.1190 24.5950 0.0434 -0.0588
# 5 -0.0551 0.0749 -0.1987 0.0434 24.5458 -2.1043
# 6 -0.0070 0.0168 0.0056 -0.0588 -2.1043 15.5929
#
#
#
# Elastic Compliance Matrix: (Units=1/GPa)
#
#
# Indices 1 2 3 4 5 6 
#
# 1 0.019270 -0.013208 -0.000372 0.002782 0.000079 0.000044
# 2 -0.013208 0.019281 -0.000508 -0.002780 -0.000092 -0.000049
# 3 -0.000372 -0.000508 0.013211 -0.000052 0.000109 0.000010
# 4 0.002782 -0.002780 -0.000052 0.041136 -0.000045 0.000153
# 5 0.000079 -0.000092 0.000109 -0.000045 0.041218 0.005563
# 6 0.000044 -0.000049 0.000010 0.000153 0.005563 0.064883
#
#
# Mechanical properties :
#
#
# Convention : Reuss Voigt Hill
#
# Bulk Modulus (GPa) = 42.39712 47.70640 45.05176
# Shear Modulus (GPa) = 21.27349 25.91861 23.59605
#
# Velocity S-wave (km/s) = 3.18450 3.51502 3.35383
# Velocity P-wave (km/s) = 5.80793 6.26222 6.03935
#
# Compressibility (1/GPa) = 0.02358651
#
# Stress axis : x y z
#
# Youngs Moduli (GPa) = 51.89542 51.86587 75.69630
#
# Poissons Ratio (x) = 0.68504 0.02813
# Poissons Ratio (y) = 0.68543 0.03842
# Poissons Ratio (z) = 0.01928 0.02632
#
# Static dielectric constant tensor:
#      x y z
#    x 1.767060 0.000020 -0.000100 
#    y 0.000020 1.767110 0.000030 
#    z -0.000100 0.000030 1.800780 
# 
# From -- ./inp_files/757.got.cif
#   From: 2010.05.17/outbox.cif.g08.bks.cpg/sg167_1_cif.got.tgz:757.got - 2010.05.20 11:09:15.
