data_PCOD9579181
_publ_section_title
;
Structure prediction by ZEFSAII (Michael W. Deem and Ramdas Pophale) SiO2 
 PCOD9579181
Probable space group: R -3 M
;
_chemical_formula_sum "Si O2"
_cell_formula_units_Z 108
_cell_length_a 13.088880
_cell_length_b 13.088880
_cell_length_c 46.846143
_cell_angle_alpha 90.000000
_cell_angle_beta 90.000000
_cell_angle_gamma 120.000000
_cell_volume 6950.394309
_symmetry_space_group_name_H-M "R -3 M"
_symmetry_group_IT_number 166
_symmetry_cell_setting 'hexagonal'
loop_
_space_group_symop_operation_xyz
x,y,z
-y,x-y,z
-x+y,-x,z
x-y,-y,-z
-x,-x+y,-z
y,x,-z
-x,-y,-z
y,-x+y,-z
x-y,x,-z
-x+y,y,z
x,x-y,z
-y,-x,z
2/3+x,1/3+y,1/3+z
2/3-y,1/3+x-y,1/3+z
2/3-x+y,1/3-x,1/3+z
2/3+x-y,1/3-y,1/3-z
2/3-x,1/3-x+y,1/3-z
2/3+y,1/3+x,1/3-z
2/3-x,1/3-y,1/3-z
2/3+y,1/3-x+y,1/3-z
2/3+x-y,1/3+x,1/3-z
2/3-x+y,1/3+y,1/3+z
2/3+x,1/3+x-y,1/3+z
2/3-y,1/3-x,1/3+z
1/3+x,2/3+y,2/3+z
1/3-y,2/3+x-y,2/3+z
1/3-x+y,2/3-x,2/3+z
1/3+x-y,2/3-y,2/3-z
1/3-x,2/3-x+y,2/3-z
1/3+y,2/3+x,2/3-z
1/3-x,2/3-y,2/3-z
1/3+y,2/3-x+y,2/3-z
1/3+x-y,2/3+x,2/3-z
1/3-x+y,2/3+y,2/3+z
1/3+x,2/3+x-y,2/3+z
1/3-y,2/3-x,2/3+z
loop_
_atom_site_type_symbol
_atom_site_label
_atom_site_fract_x
_atom_site_fract_y
_atom_site_fract_z
Si Si1 0.333023 0.424842 0.243774
Si Si2 0.333024 0.908004 0.024578
Si Si3 0.243200 0.242894 0.140473
O O1 0.208662 0.417323 0.237525
O O2 0.438750 0.561251 0.242927
O O3 0.329530 0.382095 0.276279
O O4 0.366090 0.355640 0.220880
O O5 0.441344 0.882688 0.022443
O O6 0.210996 0.789005 0.020657
O O7 0.352104 0.000000 0.000000
O O8 0.118584 0.237167 0.145715
O O9 0.333334 0.304057 0.166667
O O10 0.225371 0.112686 0.136878
#
# Coordination Sequence:
#
# PCOD9579181 Si02
#       3
#    36  36  36
#     4   9  17  30  48  69  91 116 148 186 226 264
#     4   9  17  29  46  67  91 119 150 185 223 263
#     4  10  20  33  49  68  91 119 149 182 220 264
#
# _framework density 15.538686999999999
#
# number of rings (size 3 to 8) (size 9 to 14) (size 15 to 20)
#    0.000    2.667    0.000    2.000    0.000    4.000 
#    0.000    0.000    0.000    6.333    0.000    0.000 
#    0.000    0.000    0.000    0.000    0.000    0.000 
#
# Total GULP energy -200614.648124 kJ/mol
# GULP energy per Si atom -5572.629115 kJ/mol
# Density = 1.550332 g / cm^3
# Si number density = 15.538687 Si / 1000 Ang^3
#
#
#
# Elastic Constant Matrix: (Units=GPa)
#
#
# Indices 1 2 3 4 5 6 
#
# 1 97.4278 66.7633 85.0326 -2.6796 -0.0005 0.0000
# 2 66.7633 97.4278 85.0326 2.6796 0.0005 0.0000
# 3 85.0326 85.0326 135.5477 0.0000 0.0000 0.0000
# 4 -2.6796 2.6796 0.0000 24.9967 0.0000 0.0005
# 5 -0.0005 0.0005 0.0000 0.0000 24.9967 -2.6796
# 6 0.0000 0.0000 0.0000 0.0005 -2.6796 15.3322
#
#
#
# Elastic Compliance Matrix: (Units=1/GPa)
#
#
# Indices 1 2 3 4 5 6 
#
# 1 0.025312 -0.007922 -0.010909 0.003563 0.000001 0.000000
# 2 -0.007922 0.025312 -0.010909 -0.003563 -0.000001 0.000000
# 3 -0.010909 -0.010909 0.021065 0.000000 0.000000 0.000000
# 4 0.003563 -0.003563 0.000000 0.040769 0.000000 -0.000001
# 5 0.000001 -0.000001 0.000000 0.000000 0.040769 0.007125
# 6 0.000000 0.000000 0.000000 -0.000001 0.007125 0.066467
#
#
# Mechanical properties :
#
#
# Convention : Reuss Voigt Hill
#
# Bulk Modulus (GPa) = 81.91424 89.34001 85.62713
# Shear Modulus (GPa) = 17.65266 19.30343 18.47804
#
# Velocity S-wave (km/s) = 3.37418 3.52843 3.45217
# Velocity P-wave (km/s) = 8.24687 8.61509 8.43299
#
# Compressibility (1/GPa) = 0.01220789
#
# Stress axis : x y z
#
# Youngs Moduli (GPa) = 39.50730 39.50730 47.47301
#
# Poissons Ratio (x) = 0.31297 0.51789
# Poissons Ratio (y) = 0.31297 0.51789
# Poissons Ratio (z) = 0.43099 0.43099
#
# Static dielectric constant tensor:
#      x y z
#    x 1.490520 0.000000 0.000000 
#    y 0.000000 1.490520 0.000000 
#    z 0.000000 0.000000 1.521160 
# 
# From -- ./inp_files/10085.got.cif
#   From: 2010.05.17/outbox.cif.g08.bks.cpg/sg166_6_cif.got.tgz:10085.got - 2010.05.20 11:04:41.
