data_PCOD9579632
_publ_section_title
;
Structure prediction by ZEFSAII (Michael W. Deem and Ramdas Pophale) SiO2 
 PCOD9579632
Probable space group: R -3 C 
;
_chemical_formula_sum "Si O2"
_cell_formula_units_Z 90
_cell_length_a 19.221421
_cell_length_b 19.221421
_cell_length_c 11.208267
_cell_angle_alpha 90.000000
_cell_angle_beta 90.000000
_cell_angle_gamma 120.000000
_cell_volume 3586.246041
_symmetry_space_group_name_H-M "R -3 C "
_symmetry_group_IT_number 167
_symmetry_cell_setting 'hexagonal'
loop_
_space_group_symop_operation_xyz
x,y,z
-y,x-y,z
-x+y,-x,z
x-y,-y,1/2-z
-x,-x+y,1/2-z
y,x,1/2-z
-x,-y,-z
y,-x+y,-z
x-y,x,-z
-x+y,y,1/2+z
x,x-y,1/2+z
-y,-x,1/2+z
2/3+x,1/3+y,1/3+z
2/3-y,1/3+x-y,1/3+z
2/3-x+y,1/3-x,1/3+z
2/3+x-y,1/3-y,5/6-z
2/3-x,1/3-x+y,5/6-z
2/3+y,1/3+x,5/6-z
2/3-x,1/3-y,1/3-z
2/3+y,1/3-x+y,1/3-z
2/3+x-y,1/3+x,1/3-z
2/3-x+y,1/3+y,5/6+z
2/3+x,1/3+x-y,5/6+z
2/3-y,1/3-x,5/6+z
1/3+x,2/3+y,2/3+z
1/3-y,2/3+x-y,2/3+z
1/3-x+y,2/3-x,2/3+z
1/3+x-y,2/3-y,1/6-z
1/3-x,2/3-x+y,1/6-z
1/3+y,2/3+x,1/6-z
1/3-x,2/3-y,2/3-z
1/3+y,2/3-x+y,2/3-z
1/3+x-y,2/3+x,2/3-z
1/3-x+y,2/3+y,1/6+z
1/3+x,2/3+x-y,1/6+z
1/3-y,2/3-x,1/6+z
loop_
_atom_site_type_symbol
_atom_site_label
_atom_site_fract_x
_atom_site_fract_y
_atom_site_fract_z
Si Si1 0.443923 0.110590 0.583334
Si Si2 0.000000 0.466498 0.250000
Si Si3 0.666667 0.628560 0.083334
Si Si4 0.740092 0.226315 0.876922
O O1 0.468226 0.192657 0.512820
O O2 0.401300 0.042463 0.481669
O O3 0.945004 0.385027 0.177197
O O4 0.940404 0.481333 0.332244
O O5 0.653749 0.194944 0.817515
#
# Coordination Sequence:
#
# PCOD9579632 Si02
#       4
#    18  18  18  36
#     4  11  24  50  78 112 159 210 262 336 393 484
#     4  11  25  48  84 120 156 202 276 346 408 476
#     4  10  23  48  80 120 157 194 270 346 413 456
#     4  12  28  50  77 118 166 216 268 324 410 487
#
# _framework density 25.095880000000001
#
# number of rings (size 3 to 8) (size 9 to 14) (size 15 to 20)
#    0.000    0.800    4.000    1.600    5.600    6.400 
#    0.000    2.000    0.000    0.000    0.000    0.000 
#    0.000    0.000    0.000    0.000    0.000    0.000 
#
# Total GULP energy -167323.854469 kJ/mol
# GULP energy per Si atom -5577.461816 kJ/mol
# Density = 2.503876 g / cm^3
# Si number density = 25.095880 Si / 1000 Ang^3
#
#
#
# Elastic Constant Matrix: (Units=GPa)
#
#
# Indices 1 2 3 4 5 6 
#
# 1 193.2529 103.7953 53.5458 -1.6181 -0.0001 0.0000
# 2 103.7953 193.2529 53.5458 1.6181 0.0001 0.0000
# 3 53.5458 53.5458 81.8890 0.0000 0.0000 0.0000
# 4 -1.6181 1.6181 0.0000 38.7592 0.0000 0.0001
# 5 -0.0001 0.0001 0.0000 0.0000 38.7592 -1.6181
# 6 0.0000 0.0000 0.0000 0.0001 -1.6181 44.7288
#
#
#
# Elastic Compliance Matrix: (Units=1/GPa)
#
#
# Indices 1 2 3 4 5 6 
#
# 1 0.007800 -0.003395 -0.002880 0.000467 0.000000 0.000000
# 2 -0.003395 0.007800 -0.002880 -0.000467 0.000000 0.000000
# 3 -0.002880 -0.002880 0.015978 0.000000 0.000000 0.000000
# 4 0.000467 -0.000467 0.000000 0.025839 0.000000 0.000000
# 5 0.000000 0.000000 0.000000 0.000000 0.025839 0.000935
# 6 0.000000 0.000000 0.000000 0.000000 0.000935 0.022391
#
#
# Mechanical properties :
#
#
# Convention : Reuss Voigt Hill
#
# Bulk Modulus (GPa) = 75.37485 98.90763 87.14124
# Shear Modulus (GPa) = 38.94629 41.61663 40.28146
#
# Velocity S-wave (km/s) = 3.94369 4.07665 4.01072
# Velocity P-wave (km/s) = 7.13000 7.85215 7.49977
#
# Compressibility (1/GPa) = 0.01326702
#
# Stress axis : x y z
#
# Youngs Moduli (GPa) = 128.20328 128.20328 62.58478
#
# Poissons Ratio (x) = 0.43529 0.18026
# Poissons Ratio (y) = 0.43529 0.18026
# Poissons Ratio (z) = 0.36926 0.36926
#
# Static dielectric constant tensor:
#      x y z
#    x 2.032610 0.000000 0.000000 
#    y 0.000000 2.032610 0.000000 
#    z 0.000000 0.000000 2.122970 
# 
# From -- ./inp_files/2044.got.cif
#   From: 2010.05.17/outbox.cif.g08.bks.cpg/sg167_2_cif.got.tgz:2044.got - 2010.05.20 11:09:15.
