data_PCOD9579490
_publ_section_title
;
Structure prediction by ZEFSAII (Michael W. Deem and Ramdas Pophale) SiO2 
 PCOD9579490
Probable space group: R -3 C 
;
_chemical_formula_sum "Si O2"
_cell_formula_units_Z 216
_cell_length_a 22.933261
_cell_length_b 22.933261
_cell_length_c 23.244359
_cell_angle_alpha 90.000000
_cell_angle_beta 90.000000
_cell_angle_gamma 120.000000
_cell_volume 10587.168703
_symmetry_space_group_name_H-M "R -3 C "
_symmetry_group_IT_number 167
_symmetry_cell_setting 'hexagonal'
loop_
_space_group_symop_operation_xyz
x,y,z
-y,x-y,z
-x+y,-x,z
x-y,-y,1/2-z
-x,-x+y,1/2-z
y,x,1/2-z
-x,-y,-z
y,-x+y,-z
x-y,x,-z
-x+y,y,1/2+z
x,x-y,1/2+z
-y,-x,1/2+z
2/3+x,1/3+y,1/3+z
2/3-y,1/3+x-y,1/3+z
2/3-x+y,1/3-x,1/3+z
2/3+x-y,1/3-y,5/6-z
2/3-x,1/3-x+y,5/6-z
2/3+y,1/3+x,5/6-z
2/3-x,1/3-y,1/3-z
2/3+y,1/3-x+y,1/3-z
2/3+x-y,1/3+x,1/3-z
2/3-x+y,1/3+y,5/6+z
2/3+x,1/3+x-y,5/6+z
2/3-y,1/3-x,5/6+z
1/3+x,2/3+y,2/3+z
1/3-y,2/3+x-y,2/3+z
1/3-x+y,2/3-x,2/3+z
1/3+x-y,2/3-y,1/6-z
1/3-x,2/3-x+y,1/6-z
1/3+y,2/3+x,1/6-z
1/3-x,2/3-y,2/3-z
1/3+y,2/3-x+y,2/3-z
1/3+x-y,2/3+x,2/3-z
1/3-x+y,2/3+y,1/6+z
1/3+x,2/3+x-y,1/6+z
1/3-y,2/3-x,1/6+z
loop_
_atom_site_type_symbol
_atom_site_label
_atom_site_fract_x
_atom_site_fract_y
_atom_site_fract_z
Si Si1 0.571083 0.646779 0.650877
Si Si2 0.464206 0.508043 0.693337
Si Si3 0.341969 0.745107 0.985595
Si Si4 0.932772 0.770702 0.668798
Si Si5 0.210371 0.353327 0.908706
Si Si6 0.000000 0.717821 0.750000
Si Si7 0.986020 0.333334 0.083334
O O1 0.501139 0.584849 0.671842
O O2 0.576409 0.717073 0.634367
O O3 0.603363 0.624324 0.599592
O O4 0.621394 0.662521 0.705207
O O5 0.497588 0.497588 0.750000
O O6 0.476366 0.466649 0.642942
O O7 0.274557 0.674235 0.999759
O O8 0.333334 0.749625 0.916667
O O9 0.362685 0.817235 0.011394
O O10 0.884148 0.720858 0.619289
O O11 0.879902 0.747196 0.721376
O O12 0.985965 0.750955 0.694349
O O13 0.281649 0.365426 0.887149
#
# Coordination Sequence:
#
# PCOD9579490 Si02
#       7
#    36  36  36  36  36  18  18
#     4  11  22  40  65  95 129 169 223 268 335 407
#     4  11  23  42  69  94 128 178 221 277 339 399
#     4   8  17  33  56  83 126 179 228 269 321 407
#     4  11  20  36  59  89 132 169 209 277 344 395
#     4  10  23  35  57  92 126 163 210 272 337 400
#     4  12  20  35  62  91 134 164 212 268 340 414
#     4  10  20  37  56  85 126 158 208 260 316 398
#
# _framework density 20.402056000000002
#
# number of rings (size 3 to 8) (size 9 to 14) (size 15 to 20)
#    0.333    1.333    5.833    0.000    0.000    1.333 
#    0.000    0.000    7.333    0.333    0.000    0.000 
#    0.000    0.000    0.000    0.000    0.000    0.000 
#
# Total GULP energy -401115.376502 kJ/mol
# GULP energy per Si atom -5571.046896 kJ/mol
# Density = 2.035562 g / cm^3
# Si number density = 20.402056 Si / 1000 Ang^3
#
#
#
# Elastic Constant Matrix: (Units=GPa)
#
#
# Indices 1 2 3 4 5 6 
#
# 1 107.4799 45.4948 1.9214 -0.9552 -0.0001 0.0000
# 2 45.4948 107.4799 1.9214 0.9552 0.0001 0.0000
# 3 1.9214 1.9214 56.0155 0.0000 0.0000 0.0000
# 4 -0.9552 0.9552 0.0000 16.1565 0.0000 0.0001
# 5 -0.0001 0.0001 0.0000 0.0000 16.1565 -0.9552
# 6 0.0000 0.0000 0.0000 0.0001 -0.9552 30.9926
#
#
#
# Elastic Compliance Matrix: (Units=1/GPa)
#
#
# Indices 1 2 3 4 5 6 
#
# 1 0.011353 -0.004810 -0.000224 0.000956 0.000000 0.000000
# 2 -0.004810 0.011353 -0.000224 -0.000956 0.000000 0.000000
# 3 -0.000224 -0.000224 0.017868 0.000000 0.000000 0.000000
# 4 0.000956 -0.000956 0.000000 0.062008 0.000000 0.000000
# 5 0.000000 0.000000 0.000000 0.000000 0.062008 0.001911
# 6 0.000000 0.000000 0.000000 0.000000 0.001911 0.032325
#
#
# Mechanical properties :
#
#
# Convention : Reuss Voigt Hill
#
# Bulk Modulus (GPa) = 33.27205 41.07228 37.17217
# Shear Modulus (GPa) = 22.99394 27.43694 25.21544
#
# Velocity S-wave (km/s) = 3.36078 3.67115 3.51939
# Velocity P-wave (km/s) = 5.60387 6.17616 5.89696
#
# Compressibility (1/GPa) = 0.03005526
#
# Stress axis : x y z
#
# Youngs Moduli (GPa) = 88.08625 88.08625 55.96719
#
# Poissons Ratio (x) = 0.42368 0.01256
# Poissons Ratio (y) = 0.42368 0.01256
# Poissons Ratio (z) = 0.01977 0.01977
#
# Static dielectric constant tensor:
#      x y z
#    x 1.755320 0.000000 0.000000 
#    y 0.000000 1.755320 0.000000 
#    z 0.000000 0.000000 1.768930 
# 
# From -- ./inp_files/6437.got.cif
#   From: 2010.05.17/outbox.cif.g08.bks.cpg/sg167_4_cif.got.tgz:6437.got - 2010.05.20 11:09:15.
