data_PCOD9579844
_publ_section_title
;
Structure prediction by ZEFSAII (Michael W. Deem and Ramdas Pophale) SiO2 
 PCOD9579844
Probable space group: P 61
;
_chemical_formula_sum "Si O2"
_cell_formula_units_Z 48
_cell_length_a 18.104240
_cell_length_b 18.104240
_cell_length_c 8.457064
_cell_angle_alpha 90.000000
_cell_angle_beta 90.000000
_cell_angle_gamma 120.000000
_cell_volume 2400.550493
_symmetry_space_group_name_H-M "P 61"
_symmetry_group_IT_number 169
_symmetry_cell_setting 'hexagonal'
loop_
_space_group_symop_operation_xyz
x,y,z
x-y,x,1/6+z
-y,x-y,1/3+z
-x,-y,1/2+z
-x+y,-x,2/3+z
y,-x+y,5/6+z
loop_
_atom_site_type_symbol
_atom_site_label
_atom_site_fract_x
_atom_site_fract_y
_atom_site_fract_z
Si Si1 0.591650 0.526330 0.530330
Si Si2 0.785925 0.220305 0.758553
Si Si3 0.421304 0.360026 0.502437
Si Si4 0.381326 0.718657 0.043459
Si Si5 0.895990 0.644868 0.494577
Si Si6 0.497031 0.627604 0.544840
Si Si7 0.479047 0.122004 0.188507
Si Si8 0.745787 0.661015 0.345197
O O1 0.520707 0.430626 0.496609
O O2 0.539981 0.571566 0.597740
O O3 0.651064 0.529762 0.670435
O O4 0.653084 0.580018 0.389538
O O5 0.718407 0.123178 0.726639
O O6 0.747334 0.265331 0.873171
O O7 0.806406 0.273664 0.601618
O O8 0.870717 0.231076 0.840559
O O9 0.394084 0.314349 0.673861
O O10 0.375554 0.410009 0.439503
O O11 0.341643 0.658306 0.884916
O O12 0.372873 0.801679 0.999811
O O13 0.863797 0.574644 0.633366
O O14 0.822025 0.665424 0.450244
O O15 0.988625 0.727209 0.530510
O O16 0.435859 0.570743 0.400066
#
# Coordination Sequence:
#
# PCOD9579844 Si02
#       8
#     6   6   6   6   6   6   6   6
#     4  10  21  35  61  77 107 153 194 242 286 341
#     4  10  23  36  54  78 109 149 195 246 287 348
#     4  10  20  33  57  76 111 152 191 236 296 330
#     4  11  27  40  53  81 122 160 208 251 297 338
#     4  10  19  38  59  85 113 149 189 242 296 355
#     4   9  21  36  53  81 110 151 196 240 283 348
#     4  10  19  36  53  81 107 144 198 236 284 350
#     4  10  22  38  60  83 115 144 191 239 295 352
#
# _framework density 19.995414
#
# number of rings (size 3 to 8) (size 9 to 14) (size 15 to 20)
#    0.000    2.000    2.500    0.000    7.000    2.000 
#    2.250    0.000    0.000    0.000    0.000    0.000 
#    7.500    0.000    0.000    0.000    0.000    0.000 
#
# Total GULP energy -267988.711482 kJ/mol
# GULP energy per Si atom -5583.098156 kJ/mol
# Density = 1.994990 g / cm^3
# Si number density = 19.995414 Si / 1000 Ang^3
#
#
#
# Elastic Constant Matrix: (Units=GPa)
#
#
# Indices 1 2 3 4 5 6 
#
# 1 89.0528 33.4697 7.6274 0.0000 0.0000 0.0000
# 2 33.4697 89.0528 7.6274 0.0000 0.0000 0.0000
# 3 7.6274 7.6274 37.2130 0.0000 0.0000 0.0000
# 4 0.0000 0.0000 0.0000 23.1254 0.0000 0.0000
# 5 0.0000 0.0000 0.0000 0.0000 23.1254 0.0000
# 6 0.0000 0.0000 0.0000 0.0000 0.0000 27.7916
#
#
#
# Elastic Compliance Matrix: (Units=1/GPa)
#
#
# Indices 1 2 3 4 5 6 
#
# 1 0.013183 -0.004808 -0.001717 0.000000 0.000000 0.000000
# 2 -0.004808 0.013183 -0.001717 0.000000 0.000000 0.000000
# 3 -0.001717 -0.001717 0.027576 0.000000 0.000000 0.000000
# 4 0.000000 0.000000 0.000000 0.043243 0.000000 0.000000
# 5 0.000000 0.000000 0.000000 0.000000 0.043243 0.000000
# 6 0.000000 0.000000 0.000000 0.000000 0.000000 0.035982
#
#
# Mechanical properties :
#
#
# Convention : Reuss Voigt Hill
#
# Bulk Modulus (GPa) = 26.69495 34.75198 30.72346
# Shear Modulus (GPa) = 24.34524 25.91475 25.12999
#
# Velocity S-wave (km/s) = 3.49311 3.60395 3.54897
# Velocity P-wave (km/s) = 5.44506 5.89370 5.67381
#
# Compressibility (1/GPa) = 0.03746028
#
# Stress axis : x y z
#
# Youngs Moduli (GPa) = 75.85364 75.85364 36.26330
#
# Poissons Ratio (x) = 0.36469 0.06225
# Poissons Ratio (y) = 0.36469 0.06225
# Poissons Ratio (z) = 0.13022 0.13022
#
# Static dielectric constant tensor:
#      x y z
#    x 1.734850 0.000000 0.000000 
#    y 0.000000 1.734850 0.000000 
#    z 0.000000 0.000000 1.761560 
# 
# From -- ./inp_files/758.got.cif
#   From: 2010.05.17/outbox.cif.g08.bks.cpg/sg169_cif.got.tgz:758.got - 2010.05.20 11:12:54.
