data_PCOD9579734
_publ_section_title
;
Structure prediction by ZEFSAII (Michael W. Deem and Ramdas Pophale) SiO2 
 PCOD9579734
Probable space group: R -3 C 
;
_chemical_formula_sum "Si O2"
_cell_formula_units_Z 72
_cell_length_a 13.772325
_cell_length_b 13.772325
_cell_length_c 16.674568
_cell_angle_alpha 90.000000
_cell_angle_beta 90.000000
_cell_angle_gamma 120.000000
_cell_volume 2739.048663
_symmetry_space_group_name_H-M "R -3 C "
_symmetry_group_IT_number 167
_symmetry_cell_setting 'hexagonal'
loop_
_space_group_symop_operation_xyz
x,y,z
-y,x-y,z
-x+y,-x,z
x-y,-y,1/2-z
-x,-x+y,1/2-z
y,x,1/2-z
-x,-y,-z
y,-x+y,-z
x-y,x,-z
-x+y,y,1/2+z
x,x-y,1/2+z
-y,-x,1/2+z
2/3+x,1/3+y,1/3+z
2/3-y,1/3+x-y,1/3+z
2/3-x+y,1/3-x,1/3+z
2/3+x-y,1/3-y,5/6-z
2/3-x,1/3-x+y,5/6-z
2/3+y,1/3+x,5/6-z
2/3-x,1/3-y,1/3-z
2/3+y,1/3-x+y,1/3-z
2/3+x-y,1/3+x,1/3-z
2/3-x+y,1/3+y,5/6+z
2/3+x,1/3+x-y,5/6+z
2/3-y,1/3-x,5/6+z
1/3+x,2/3+y,2/3+z
1/3-y,2/3+x-y,2/3+z
1/3-x+y,2/3-x,2/3+z
1/3+x-y,2/3-y,1/6-z
1/3-x,2/3-x+y,1/6-z
1/3+y,2/3+x,1/6-z
1/3-x,2/3-y,2/3-z
1/3+y,2/3-x+y,2/3-z
1/3+x-y,2/3+x,2/3-z
1/3-x+y,2/3+y,1/6+z
1/3+x,2/3+x-y,1/6+z
1/3-y,2/3-x,1/6+z
loop_
_atom_site_type_symbol
_atom_site_label
_atom_site_fract_x
_atom_site_fract_y
_atom_site_fract_z
Si Si1 0.097084 0.209742 0.699160
Si Si2 0.837598 0.789863 0.538133
O O1 0.124017 0.124017 0.750000
O O2 0.216090 0.323451 0.697685
O O3 0.000000 0.214615 0.750000
O O4 0.032901 0.186375 0.613966
O O5 0.818261 0.852981 0.464335
#
# Coordination Sequence:
#
# PCOD9579734 Si02
#       2
#    36  36
#     4  12  26  48  80 119 160 212 272 335 403 481
#     4  12  27  50  79 117 162 212 269 339 406 477
#
# _framework density 26.286498000000002
#
# number of rings (size 3 to 8) (size 9 to 14) (size 15 to 20)
#    0.000    0.000    0.000   10.000    0.000    4.000 
#    0.000    0.000    0.000    6.000    0.000    0.000 
#    0.000    0.000    0.000    0.000    0.000    0.000 
#
# Total GULP energy -133879.260276 kJ/mol
# GULP energy per Si atom -5578.302512 kJ/mol
# Density = 2.622667 g / cm^3
# Si number density = 26.286498 Si / 1000 Ang^3
#
#
#
# Elastic Constant Matrix: (Units=GPa)
#
#
# Indices 1 2 3 4 5 6 
#
# 1 214.1982 77.7941 86.0819 -0.0064 0.0000 0.0000
# 2 77.7941 214.1982 86.0819 0.0064 0.0000 0.0000
# 3 86.0819 86.0819 152.8950 0.0000 0.0000 0.0000
# 4 -0.0064 0.0064 0.0000 40.5458 0.0000 0.0000
# 5 0.0000 0.0000 0.0000 0.0000 40.5458 -0.0064
# 6 0.0000 0.0000 0.0000 0.0000 -0.0064 68.2020
#
#
#
# Elastic Compliance Matrix: (Units=1/GPa)
#
#
# Indices 1 2 3 4 5 6 
#
# 1 0.006229 -0.001102 -0.002886 0.000001 0.000000 0.000000
# 2 -0.001102 0.006229 -0.002886 -0.000001 0.000000 0.000000
# 3 -0.002886 -0.002886 0.009791 0.000000 0.000000 0.000000
# 4 0.000001 -0.000001 0.000000 0.024663 0.000000 0.000000
# 5 0.000000 0.000000 0.000000 0.000000 0.024663 0.000002
# 6 0.000000 0.000000 0.000000 0.000000 0.000002 0.014662
#
#
# Mechanical properties :
#
#
# Convention : Reuss Voigt Hill
#
# Bulk Modulus (GPa) = 117.66987 120.13415 118.90201
# Shear Modulus (GPa) = 48.62856 51.94762 50.28809
#
# Velocity S-wave (km/s) = 4.30576 4.45028 4.37862
# Velocity P-wave (km/s) = 8.34152 8.49751 8.41988
#
# Compressibility (1/GPa) = 0.00849835
#
# Stress axis : x y z
#
# Youngs Moduli (GPa) = 160.54276 160.54276 102.13958
#
# Poissons Ratio (x) = 0.17696 0.29481
# Poissons Ratio (y) = 0.17696 0.29481
# Poissons Ratio (z) = 0.46338 0.46338
#
# Static dielectric constant tensor:
#      x y z
#    x 2.104970 0.000000 0.000000 
#    y 0.000000 2.104970 0.000000 
#    z 0.000000 0.000000 2.247730 
# 
# From -- ./inp_files/2735.got.cif
#   From: 2010.05.17/outbox.cif.g08.bks.cpg/sg167_2_cif.got.tgz:2735.got - 2010.05.20 11:09:15.
