data_PCOD9579272
_publ_section_title
;
Structure prediction by ZEFSAII (Michael W. Deem and Ramdas Pophale) SiO2 
 PCOD9579272
Probable space group: R -3 M
;
_chemical_formula_sum "Si O2"
_cell_formula_units_Z 72
_cell_length_a 25.551357
_cell_length_b 25.551357
_cell_length_c 7.177578
_cell_angle_alpha 90.000000
_cell_angle_beta 90.000000
_cell_angle_gamma 120.000000
_cell_volume 4058.228460
_symmetry_space_group_name_H-M "R -3 M"
_symmetry_group_IT_number 166
_symmetry_cell_setting 'hexagonal'
loop_
_space_group_symop_operation_xyz
x,y,z
-y,x-y,z
-x+y,-x,z
x-y,-y,-z
-x,-x+y,-z
y,x,-z
-x,-y,-z
y,-x+y,-z
x-y,x,-z
-x+y,y,z
x,x-y,z
-y,-x,z
2/3+x,1/3+y,1/3+z
2/3-y,1/3+x-y,1/3+z
2/3-x+y,1/3-x,1/3+z
2/3+x-y,1/3-y,1/3-z
2/3-x,1/3-x+y,1/3-z
2/3+y,1/3+x,1/3-z
2/3-x,1/3-y,1/3-z
2/3+y,1/3-x+y,1/3-z
2/3+x-y,1/3+x,1/3-z
2/3-x+y,1/3+y,1/3+z
2/3+x,1/3+x-y,1/3+z
2/3-y,1/3-x,1/3+z
1/3+x,2/3+y,2/3+z
1/3-y,2/3+x-y,2/3+z
1/3-x+y,2/3-x,2/3+z
1/3+x-y,2/3-y,2/3-z
1/3-x,2/3-x+y,2/3-z
1/3+y,2/3+x,2/3-z
1/3-x,2/3-y,2/3-z
1/3+y,2/3-x+y,2/3-z
1/3+x-y,2/3+x,2/3-z
1/3-x+y,2/3+y,2/3+z
1/3+x,2/3+x-y,2/3+z
1/3-y,2/3-x,2/3+z
loop_
_atom_site_type_symbol
_atom_site_label
_atom_site_fract_x
_atom_site_fract_y
_atom_site_fract_z
Si Si1 0.715648 0.666667 0.166667
Si Si2 0.952050 0.169503 0.333348
Si Si3 0.212184 0.666667 0.666667
O O1 0.666667 0.640900 0.333334
O O2 0.777817 0.719993 0.249964
O O3 0.888413 0.111588 0.391943
O O4 0.000000 0.196216 0.500000
O O5 0.979955 0.147337 0.171205
O O6 0.219470 0.609735 0.719728
#
# Coordination Sequence:
#
# PCOD9579272 Si02
#       3
#    18  36  18
#     4  12  23  42  62  88 122 158 199 248 296 356
#     4  11  23  40  62  91 121 156 200 247 297 353
#     4  10  21  38  60  86 120 158 199 246 298 354
#
# _framework density 17.741733
#
# number of rings (size 3 to 8) (size 9 to 14) (size 15 to 20)
#    0.000    1.000    5.000    2.500    0.000    0.000 
#    0.000    2.500    0.000    8.000    0.000    0.000 
#    0.000    0.000    0.000    0.000    0.000    0.000 
#
# Total GULP energy -134131.869886 kJ/mol
# GULP energy per Si atom -5588.827912 kJ/mol
# Density = 1.770135 g / cm^3
# Si number density = 17.741733 Si / 1000 Ang^3
#
#
#
# Elastic Constant Matrix: (Units=GPa)
#
#
# Indices 1 2 3 4 5 6 
#
# 1 162.1435 105.8336 65.5808 -6.7548 0.1231 0.0383
# 2 105.8336 161.9732 65.2965 6.9034 0.0249 0.0235
# 3 65.5808 65.2965 92.2052 0.1915 0.1689 0.0899
# 4 -6.7548 6.9034 0.1915 28.4309 0.0769 0.0228
# 5 0.1231 0.0249 0.1689 0.0769 28.4292 -6.9052
# 6 0.0383 0.0235 0.0899 0.0228 -6.9052 28.0566
#
#
#
# Elastic Compliance Matrix: (Units=1/GPa)
#
#
# Indices 1 2 3 4 5 6 
#
# 1 0.012317 -0.006587 -0.004105 0.004554 -0.000038 -0.000011
# 2 -0.006587 0.012285 -0.004006 -0.004521 0.000061 0.000030
# 3 -0.004105 -0.004006 0.016602 -0.000114 -0.000093 -0.000067
# 4 0.004554 -0.004521 -0.000114 0.037354 -0.000132 -0.000065
# 5 -0.000038 0.000061 -0.000093 -0.000132 0.037413 0.009208
# 6 -0.000011 0.000030 -0.000067 -0.000065 0.009208 0.037909
#
#
# Mechanical properties :
#
#
# Convention : Reuss Voigt Hill
#
# Bulk Modulus (GPa) = 84.68241 98.86041 91.77141
# Shear Modulus (GPa) = 26.70767 28.95742 27.83254
#
# Velocity S-wave (km/s) = 3.88410 4.04439 3.96506
# Velocity P-wave (km/s) = 8.24313 8.81206 8.53234
#
# Compressibility (1/GPa) = 0.01180883
#
# Stress axis : x y z
#
# Youngs Moduli (GPa) = 81.18897 81.39718 60.23265
#
# Poissons Ratio (x) = 0.53617 0.24726
# Poissons Ratio (y) = 0.53480 0.24128
# Poissons Ratio (z) = 0.33328 0.32606
#
# Static dielectric constant tensor:
#      x y z
#    x 1.582500 0.000000 -0.000040 
#    y 0.000000 1.582540 -0.000020 
#    z -0.000040 -0.000020 1.572280 
# 
# From -- ./inp_files/282.got.cif
#   From: 2010.05.17/outbox.cif.g08.bks.cpg/sg166_1_cif.got.tgz:282.got - 2010.05.20 11:04:41.
