data_PCOD9579518
_publ_section_title
;
Structure prediction by ZEFSAII (Michael W. Deem and Ramdas Pophale) SiO2 
 PCOD9579518
Probable space group: R -3 C 
;
_chemical_formula_sum "Si O2"
_cell_formula_units_Z 138
_cell_length_a 16.713253
_cell_length_b 16.713253
_cell_length_c 29.227882
_cell_angle_alpha 90.000000
_cell_angle_beta 90.000000
_cell_angle_gamma 120.000000
_cell_volume 7070.497156
_symmetry_space_group_name_H-M "R -3 C "
_symmetry_group_IT_number 167
_symmetry_cell_setting 'hexagonal'
loop_
_space_group_symop_operation_xyz
x,y,z
-y,x-y,z
-x+y,-x,z
x-y,-y,1/2-z
-x,-x+y,1/2-z
y,x,1/2-z
-x,-y,-z
y,-x+y,-z
x-y,x,-z
-x+y,y,1/2+z
x,x-y,1/2+z
-y,-x,1/2+z
2/3+x,1/3+y,1/3+z
2/3-y,1/3+x-y,1/3+z
2/3-x+y,1/3-x,1/3+z
2/3+x-y,1/3-y,5/6-z
2/3-x,1/3-x+y,5/6-z
2/3+y,1/3+x,5/6-z
2/3-x,1/3-y,1/3-z
2/3+y,1/3-x+y,1/3-z
2/3+x-y,1/3+x,1/3-z
2/3-x+y,1/3+y,5/6+z
2/3+x,1/3+x-y,5/6+z
2/3-y,1/3-x,5/6+z
1/3+x,2/3+y,2/3+z
1/3-y,2/3+x-y,2/3+z
1/3-x+y,2/3-x,2/3+z
1/3+x-y,2/3-y,1/6-z
1/3-x,2/3-x+y,1/6-z
1/3+y,2/3+x,1/6-z
1/3-x,2/3-y,2/3-z
1/3+y,2/3-x+y,2/3-z
1/3+x-y,2/3+x,2/3-z
1/3-x+y,2/3+y,1/6+z
1/3+x,2/3+x-y,1/6+z
1/3-y,2/3-x,1/6+z
loop_
_atom_site_type_symbol
_atom_site_label
_atom_site_fract_x
_atom_site_fract_y
_atom_site_fract_z
Si Si1 0.410247 0.553108 0.311424
Si Si2 0.097333 0.302469 0.975358
Si Si3 0.333334 0.666667 0.360443
Si Si4 0.658466 0.562189 0.398450
Si Si5 0.413782 0.413782 0.750000
O O1 0.398393 0.475607 0.347398
O O2 0.398548 0.630005 0.338151
O O3 0.336739 0.501791 0.271039
O O4 0.504899 0.573534 0.285108
O O5 0.174782 0.286605 0.952491
O O6 0.007938 0.271154 0.945278
O O7 0.060203 0.245555 0.022764
O O8 0.333334 0.666668 0.416667
O O9 0.693333 0.666667 0.416667
#
# Coordination Sequence:
#
# PCOD9579518 Si02
#       5
#    36  36  12  36  18
#     4  11  23  45  64  95 134 170 224 283 334 410
#     4  11  21  39  66  98 128 172 220 279 343 402
#     4  12  30  48  63  97 143 190 228 273 351 432
#     4  10  20  40  67  97 130 167 219 280 342 404
#     4  12  22  42  70  98 130 172 226 286 350 404
#
# _framework density 19.517721999999999
#
# number of rings (size 3 to 8) (size 9 to 14) (size 15 to 20)
#    0.000    1.043    6.522    1.565    1.826    1.043 
#    0.000    3.913    0.000    5.217    0.000    0.000 
#    0.000    0.000    0.000    0.000    0.000    0.000 
#
# Total GULP energy -256375.931593 kJ/mol
# GULP energy per Si atom -5573.389817 kJ/mol
# Density = 1.947330 g / cm^3
# Si number density = 19.517722 Si / 1000 Ang^3
#
#
#
# Elastic Constant Matrix: (Units=GPa)
#
#
# Indices 1 2 3 4 5 6 
#
# 1 66.9994 25.0488 48.8046 11.2398 0.0003 0.0000
# 2 25.0488 67.0010 48.8047 -11.2397 -0.0004 0.0001
# 3 48.8046 48.8047 117.9934 -0.0001 0.0000 0.0001
# 4 11.2398 -11.2397 -0.0001 32.7475 0.0000 -0.0004
# 5 0.0003 -0.0004 0.0000 0.0000 32.7474 11.2397
# 6 0.0000 0.0001 0.0001 -0.0004 11.2397 20.9758
#
#
#
# Elastic Compliance Matrix: (Units=1/GPa)
#
#
# Indices 1 2 3 4 5 6 
#
# 1 0.024281 -0.004929 -0.008004 -0.010026 0.000000 0.000000
# 2 -0.004929 0.024280 -0.008004 0.010025 0.000000 0.000000
# 3 -0.008004 -0.008004 0.015096 0.000000 0.000000 0.000000
# 4 -0.010026 0.010025 0.000000 0.037419 0.000000 0.000001
# 5 0.000000 0.000000 0.000000 0.000000 0.037419 -0.020050
# 6 0.000000 0.000000 0.000000 0.000001 -0.020050 0.058418
#
#
# Mechanical properties :
#
#
# Convention : Reuss Voigt Hill
#
# Bulk Modulus (GPa) = 45.90810 55.25667 50.58238
# Shear Modulus (GPa) = 20.32130 25.91654 23.11892
#
# Velocity S-wave (km/s) = 3.23022 3.64792 3.44540
# Velocity P-wave (km/s) = 6.12248 6.79084 6.46530
#
# Compressibility (1/GPa) = 0.02178265
#
# Stress axis : x y z
#
# Youngs Moduli (GPa) = 41.18488 41.18649 66.24063
#
# Poissons Ratio (x) = 0.20300 0.53022
# Poissons Ratio (y) = 0.20299 0.53019
# Poissons Ratio (z) = 0.32966 0.32966
#
# Static dielectric constant tensor:
#      x y z
#    x 1.693780 0.000000 0.000000 
#    y 0.000000 1.693780 0.000000 
#    z 0.000000 0.000000 1.738790 
# 
# From -- ./inp_files/6036.got.cif
#   From: 2010.05.17/outbox.cif.g08.bks.cpg/sg167_4_cif.got.tgz:6036.got - 2010.05.20 11:09:15.
