data_PCOD9579684
_publ_section_title
;
Structure prediction by ZEFSAII (Michael W. Deem and Ramdas Pophale) SiO2 
 PCOD9579684
Probable space group: R -3 C 
;
_chemical_formula_sum "Si O2"
_cell_formula_units_Z 108
_cell_length_a 18.794843
_cell_length_b 18.794843
_cell_length_c 15.333789
_cell_angle_alpha 90.000000
_cell_angle_beta 90.000000
_cell_angle_gamma 120.000000
_cell_volume 4690.914520
_symmetry_space_group_name_H-M "R -3 C "
_symmetry_group_IT_number 167
_symmetry_cell_setting 'hexagonal'
loop_
_space_group_symop_operation_xyz
x,y,z
-y,x-y,z
-x+y,-x,z
x-y,-y,1/2-z
-x,-x+y,1/2-z
y,x,1/2-z
-x,-y,-z
y,-x+y,-z
x-y,x,-z
-x+y,y,1/2+z
x,x-y,1/2+z
-y,-x,1/2+z
2/3+x,1/3+y,1/3+z
2/3-y,1/3+x-y,1/3+z
2/3-x+y,1/3-x,1/3+z
2/3+x-y,1/3-y,5/6-z
2/3-x,1/3-x+y,5/6-z
2/3+y,1/3+x,5/6-z
2/3-x,1/3-y,1/3-z
2/3+y,1/3-x+y,1/3-z
2/3+x-y,1/3+x,1/3-z
2/3-x+y,1/3+y,5/6+z
2/3+x,1/3+x-y,5/6+z
2/3-y,1/3-x,5/6+z
1/3+x,2/3+y,2/3+z
1/3-y,2/3+x-y,2/3+z
1/3-x+y,2/3-x,2/3+z
1/3+x-y,2/3-y,1/6-z
1/3-x,2/3-x+y,1/6-z
1/3+y,2/3+x,1/6-z
1/3-x,2/3-y,2/3-z
1/3+y,2/3-x+y,2/3-z
1/3+x-y,2/3+x,2/3-z
1/3-x+y,2/3+y,1/6+z
1/3+x,2/3+x-y,1/6+z
1/3-y,2/3-x,1/6+z
loop_
_atom_site_type_symbol
_atom_site_label
_atom_site_fract_x
_atom_site_fract_y
_atom_site_fract_z
Si Si1 0.561837 0.155119 0.867345
Si Si2 0.679081 0.934124 0.677686
Si Si3 0.086869 0.178186 0.265325
O O1 0.525670 0.216684 0.859478
O O2 0.488604 0.067082 0.842061
O O3 0.581864 0.140378 0.965205
O O4 0.666667 0.963942 0.583334
O O5 0.753162 0.917082 0.705384
O O6 0.687258 0.000000 0.750000
O O7 0.161146 0.161146 0.250000
O O8 0.000000 0.096702 0.250000
#
# Coordination Sequence:
#
# PCOD9579684 Si02
#       3
#    36  36  36
#     4  12  25  44  69 100 138 184 237 293 351 417
#     4  11  25  46  70 104 142 185 236 291 354 424
#     4  11  23  42  67  98 136 181 232 290 351 417
#
# _framework density 23.023229000000001
#
# number of rings (size 3 to 8) (size 9 to 14) (size 15 to 20)
#    0.000    0.667    0.000    9.667    0.000    5.333 
#    0.000    0.000    0.000    0.000    0.000    0.000 
#    0.000    0.000    0.000    0.000    0.000    0.000 
#
# Total GULP energy -200886.360050 kJ/mol
# GULP energy per Si atom -5580.176668 kJ/mol
# Density = 2.297083 g / cm^3
# Si number density = 23.023229 Si / 1000 Ang^3
#
#
#
# Elastic Constant Matrix: (Units=GPa)
#
#
# Indices 1 2 3 4 5 6 
#
# 1 91.0699 70.8420 20.2209 -12.0858 0.0019 0.0000
# 2 70.8420 91.0699 20.2209 12.0858 -0.0019 0.0000
# 3 20.2209 20.2209 163.5826 0.0000 0.0000 0.0000
# 4 -12.0858 12.0858 0.0000 33.8203 0.0000 -0.0019
# 5 0.0019 -0.0019 0.0000 0.0000 33.8203 -12.0858
# 6 0.0000 0.0000 0.0000 -0.0019 -12.0858 10.1139
#
#
#
# Elastic Compliance Matrix: (Units=1/GPa)
#
#
# Indices 1 2 3 4 5 6 
#
# 1 0.046327 -0.039954 -0.000788 0.030833 -0.000005 0.000000
# 2 -0.039954 0.046327 -0.000788 -0.030833 0.000005 0.000000
# 3 -0.000788 -0.000788 0.006308 0.000000 0.000000 0.000000
# 4 0.030833 -0.030833 0.000000 0.051604 0.000000 0.000010
# 5 -0.000005 0.000005 0.000000 0.000000 0.051604 0.061665
# 6 0.000000 0.000000 0.000000 0.000010 0.061665 0.172561
#
#
# Mechanical properties :
#
#
# Convention : Reuss Voigt Hill
#
# Bulk Modulus (GPa) = 62.88244 63.14334 63.01289
# Shear Modulus (GPa) = 10.79703 31.18016 20.98859
#
# Velocity S-wave (km/s) = 2.16790 3.68406 3.02259
# Velocity P-wave (km/s) = 5.79985 6.75144 6.29366
#
# Compressibility (1/GPa) = 0.01590269
#
# Stress axis : x y z
#
# Youngs Moduli (GPa) = 21.58581 21.58581 158.53195
#
# Poissons Ratio (x) = 0.86243 0.12489
# Poissons Ratio (y) = 0.86243 0.12489
# Poissons Ratio (z) = 0.01700 0.01700
#
# Static dielectric constant tensor:
#      x y z
#    x 2.119160 0.000000 0.000000 
#    y 0.000000 2.119160 0.000000 
#    z 0.000000 0.000000 2.150600 
# 
# From -- ./inp_files/2073.got.cif
#   From: 2010.05.17/outbox.cif.g08.bks.cpg/sg167_2_cif.got.tgz:2073.got - 2010.05.20 11:09:15.
