data_PCOD9579787
_publ_section_title
;
Structure prediction by ZEFSAII (Michael W. Deem and Ramdas Pophale) SiO2 
 PCOD9579787
Probable space group: P 61
;
_chemical_formula_sum "Si O2"
_cell_formula_units_Z 36
_cell_length_a 10.816326
_cell_length_b 10.816326
_cell_length_c 16.353818
_cell_angle_alpha 90.000000
_cell_angle_beta 90.000000
_cell_angle_gamma 120.000000
_cell_volume 1656.949714
_symmetry_space_group_name_H-M "P 61"
_symmetry_group_IT_number 169
_symmetry_cell_setting 'hexagonal'
loop_
_space_group_symop_operation_xyz
x,y,z
x-y,x,1/6+z
-y,x-y,1/3+z
-x,-y,1/2+z
-x+y,-x,2/3+z
y,-x+y,5/6+z
loop_
_atom_site_type_symbol
_atom_site_label
_atom_site_fract_x
_atom_site_fract_y
_atom_site_fract_z
Si Si1 0.238919 0.705495 0.712010
Si Si2 0.719569 0.636405 0.247208
Si Si3 0.481133 0.965953 0.793661
Si Si4 0.069300 0.073581 0.562344
Si Si5 0.215145 0.529767 0.871782
Si Si6 0.585821 0.788407 0.909399
O O1 0.339393 0.869018 0.741001
O O2 0.240125 0.629403 0.795490
O O3 0.310465 0.709385 0.623340
O O4 0.072550 0.616960 0.685158
O O5 0.843003 0.800762 0.239301
O O6 0.568370 0.618696 0.226976
O O7 0.735930 0.576365 0.333018
O O8 0.752636 0.561581 0.171662
O O9 0.521040 0.861328 0.848018
O O10 0.624133 0.070925 0.739496
O O11 0.972756 0.001913 0.640384
O O12 0.134399 0.243527 0.566099
#
# Coordination Sequence:
#
# PCOD9579787 Si02
#       6
#     6   6   6   6   6   6
#     4  12  27  44  70 111 157 197 264 325 405 464
#     4  11  18  38  71 106 144 190 266 320 386 459
#     4  12  24  45  72 115 158 203 262 329 398 478
#     4  10  17  32  64 104 144 190 259 319 379 470
#     4  12  24  42  70 109 148 208 255 328 388 482
#     4  11  18  39  73 111 145 202 260 321 386 477
#
# _framework density 21.726671
#
# number of rings (size 3 to 8) (size 9 to 14) (size 15 to 20)
#    0.000    0.667   10.000    2.000    0.000    0.000 
#    0.000    0.000    3.667    2.000    0.000    0.000 
#    0.000    0.000    0.000    0.000    0.000    0.000 
#
# Total GULP energy -200418.110184 kJ/mol
# GULP energy per Si atom -5567.169727 kJ/mol
# Density = 2.167722 g / cm^3
# Si number density = 21.726671 Si / 1000 Ang^3
#
#
#
# Elastic Constant Matrix: (Units=GPa)
#
#
# Indices 1 2 3 4 5 6 
#
# 1 79.2591 32.5195 43.0182 0.0000 0.0000 0.0000
# 2 32.5195 79.2591 43.0182 0.0000 0.0000 0.0000
# 3 43.0182 43.0182 157.1260 0.0000 0.0000 0.0000
# 4 0.0000 0.0000 0.0000 32.2128 0.0000 0.0000
# 5 0.0000 0.0000 0.0000 0.0000 32.2128 0.0000
# 6 0.0000 0.0000 0.0000 0.0000 0.0000 23.3698
#
#
#
# Elastic Compliance Matrix: (Units=1/GPa)
#
#
# Indices 1 2 3 4 5 6 
#
# 1 0.016365 -0.005030 -0.003103 0.000000 0.000000 0.000000
# 2 -0.005030 0.016365 -0.003103 0.000000 0.000000 0.000000
# 3 -0.003103 -0.003103 0.008064 0.000000 0.000000 0.000000
# 4 0.000000 0.000000 0.000000 0.031044 0.000000 0.000000
# 5 0.000000 0.000000 0.000000 0.000000 0.031044 0.000000
# 6 0.000000 0.000000 0.000000 0.000000 0.000000 0.042790
#
#
# Mechanical properties :
#
#
# Convention : Reuss Voigt Hill
#
# Bulk Modulus (GPa) = 54.58462 61.41732 58.00097
# Shear Modulus (GPa) = 28.69420 30.69828 29.69624
#
# Velocity S-wave (km/s) = 3.63807 3.76297 3.70105
# Velocity P-wave (km/s) = 6.54410 6.87092 6.70950
#
# Compressibility (1/GPa) = 0.01832018
#
# Stress axis : x y z
#
# Youngs Moduli (GPa) = 61.10598 61.10598 124.01479
#
# Poissons Ratio (x) = 0.30737 0.38485
# Poissons Ratio (y) = 0.30737 0.38485
# Poissons Ratio (z) = 0.18963 0.18963
#
# Static dielectric constant tensor:
#      x y z
#    x 1.867010 0.000000 0.000000 
#    y 0.000000 1.867010 0.000000 
#    z 0.000000 0.000000 1.829480 
# 
# From -- ./inp_files/1345.got.cif
#   From: 2010.05.17/outbox.cif.g08.bks.cpg/sg169_cif.got.tgz:1345.got - 2010.05.20 11:12:54.
