data_PCOD9579315
_publ_section_title
;
Structure prediction by ZEFSAII (Michael W. Deem and Ramdas Pophale) SiO2 
 PCOD9579315
Probable space group: R -3 M
;
_chemical_formula_sum "Si O2"
_cell_formula_units_Z 144
_cell_length_a 28.603184
_cell_length_b 28.603184
_cell_length_c 9.883217
_cell_angle_alpha 90.000000
_cell_angle_beta 90.000000
_cell_angle_gamma 120.000000
_cell_volume 7002.574250
_symmetry_space_group_name_H-M "R -3 M"
_symmetry_group_IT_number 166
_symmetry_cell_setting 'hexagonal'
loop_
_space_group_symop_operation_xyz
x,y,z
-y,x-y,z
-x+y,-x,z
x-y,-y,-z
-x,-x+y,-z
y,x,-z
-x,-y,-z
y,-x+y,-z
x-y,x,-z
-x+y,y,z
x,x-y,z
-y,-x,z
2/3+x,1/3+y,1/3+z
2/3-y,1/3+x-y,1/3+z
2/3-x+y,1/3-x,1/3+z
2/3+x-y,1/3-y,1/3-z
2/3-x,1/3-x+y,1/3-z
2/3+y,1/3+x,1/3-z
2/3-x,1/3-y,1/3-z
2/3+y,1/3-x+y,1/3-z
2/3+x-y,1/3+x,1/3-z
2/3-x+y,1/3+y,1/3+z
2/3+x,1/3+x-y,1/3+z
2/3-y,1/3-x,1/3+z
1/3+x,2/3+y,2/3+z
1/3-y,2/3+x-y,2/3+z
1/3-x+y,2/3-x,2/3+z
1/3+x-y,2/3-y,2/3-z
1/3-x,2/3-x+y,2/3-z
1/3+y,2/3+x,2/3-z
1/3-x,2/3-y,2/3-z
1/3+y,2/3-x+y,2/3-z
1/3+x-y,2/3+x,2/3-z
1/3-x+y,2/3+y,2/3+z
1/3+x,2/3+x-y,2/3+z
1/3-y,2/3-x,2/3+z
loop_
_atom_site_type_symbol
_atom_site_label
_atom_site_fract_x
_atom_site_fract_y
_atom_site_fract_z
Si Si1 0.061182 0.713974 0.986506
Si Si2 0.559326 0.225329 0.490400
Si Si3 0.335484 0.475596 0.321666
Si Si4 0.426895 0.468970 0.876762
O O1 0.065238 0.757741 0.094359
O O2 0.067230 0.733896 0.833334
O O3 0.108424 0.700384 0.013840
O O4 0.000000 0.663349 0.000000
O O5 0.622687 0.245373 0.498855
O O6 0.548874 0.274437 0.526548
O O7 0.543432 0.210099 0.333334
O O8 0.527202 0.172967 0.584132
O O9 0.278762 0.432553 0.388720
O O10 0.333334 0.490319 0.166667
O O11 0.479794 0.520207 0.818389
O O12 0.445428 0.445428 0.000000
#
# Coordination Sequence:
#
# PCOD9579315 Si02
#       4
#    36  36  36  36
#     4  12  24  41  69  95 133 183 233 276 326 399
#     4  10  24  47  74 101 133 175 225 284 352 421
#     4  12  24  41  66 100 137 174 223 280 335 404
#     4  11  24  42  62  91 131 176 222 275 335 395
#
# _framework density 20.563866000000001
#
# number of rings (size 3 to 8) (size 9 to 14) (size 15 to 20)
#    0.000    0.750    5.000    2.500    3.500    4.500 
#    0.000    0.000    0.000    1.500    0.000    0.000 
#    0.000    0.000    0.000    0.000    0.000    0.000 
#
# Total GULP energy -268262.910877 kJ/mol
# GULP energy per Si atom -5588.810643 kJ/mol
# Density = 2.051706 g / cm^3
# Si number density = 20.563866 Si / 1000 Ang^3
#
#
#
# Elastic Constant Matrix: (Units=GPa)
#
#
# Indices 1 2 3 4 5 6 
#
# 1 77.1644 19.0845 38.5388 -5.6263 -0.0071 0.0032
# 2 19.0845 77.1630 38.5558 5.6316 -0.0077 -0.0040
# 3 38.5388 38.5558 128.3761 0.0098 -0.0334 0.0127
# 4 -5.6263 5.6316 0.0098 17.3440 0.0020 -0.0075
# 5 -0.0071 -0.0077 -0.0334 0.0020 17.3352 -5.6366
# 6 0.0032 -0.0040 0.0127 -0.0075 -5.6366 29.0309
#
#
#
# Elastic Compliance Matrix: (Units=1/GPa)
#
#
# Indices 1 2 3 4 5 6 
#
# 1 0.016025 -0.002347 -0.004107 0.005963 -0.000003 0.000001
# 2 -0.002347 0.016028 -0.004109 -0.005963 0.000000 0.000003
# 3 -0.004107 -0.004109 0.010256 -0.000004 0.000016 -0.000002
# 4 0.005963 -0.005963 -0.000004 0.061527 -0.000003 0.000014
# 5 -0.000003 0.000000 0.000016 -0.000003 0.061573 0.011955
# 6 0.000001 0.000003 -0.000002 0.000014 0.011955 0.036767
#
#
# Mechanical properties :
#
#
# Convention : Reuss Voigt Hill
#
# Bulk Modulus (GPa) = 47.20144 52.78461 49.99303
# Shear Modulus (GPa) = 21.70473 25.17698 23.44086
#
# Velocity S-wave (km/s) = 3.25234 3.50284 3.37991
# Velocity P-wave (km/s) = 6.09155 6.48723 6.29250
#
# Compressibility (1/GPa) = 0.02118579
#
# Stress axis : x y z
#
# Youngs Moduli (GPa) = 62.40065 62.38963 97.49976
#
# Poissons Ratio (x) = 0.14642 0.40038
# Poissons Ratio (y) = 0.14644 0.40061
# Poissons Ratio (z) = 0.25625 0.25635
#
# Static dielectric constant tensor:
#      x y z
#    x 1.751070 0.000000 -0.000010 
#    y 0.000000 1.751070 0.000000 
#    z -0.000010 0.000000 1.694940 
# 
# From -- ./inp_files/1797.got.cif
#   From: 2010.05.17/outbox.cif.g08.bks.cpg/sg166_1_cif.got.tgz:1797.got - 2010.05.20 11:04:41.
