data_PCOD9579320
_publ_section_title
;
Structure prediction by ZEFSAII (Michael W. Deem and Ramdas Pophale) SiO2 
 PCOD9579320
Probable space group: R -3 M
;
_chemical_formula_sum "Si O2"
_cell_formula_units_Z 144
_cell_length_a 31.677091
_cell_length_b 31.677091
_cell_length_c 9.770365
_cell_angle_alpha 90.000000
_cell_angle_beta 90.000000
_cell_angle_gamma 120.000000
_cell_volume 8490.475331
_symmetry_space_group_name_H-M "R -3 M"
_symmetry_group_IT_number 166
_symmetry_cell_setting 'hexagonal'
loop_
_space_group_symop_operation_xyz
x,y,z
-y,x-y,z
-x+y,-x,z
x-y,-y,-z
-x,-x+y,-z
y,x,-z
-x,-y,-z
y,-x+y,-z
x-y,x,-z
-x+y,y,z
x,x-y,z
-y,-x,z
2/3+x,1/3+y,1/3+z
2/3-y,1/3+x-y,1/3+z
2/3-x+y,1/3-x,1/3+z
2/3+x-y,1/3-y,1/3-z
2/3-x,1/3-x+y,1/3-z
2/3+y,1/3+x,1/3-z
2/3-x,1/3-y,1/3-z
2/3+y,1/3-x+y,1/3-z
2/3+x-y,1/3+x,1/3-z
2/3-x+y,1/3+y,1/3+z
2/3+x,1/3+x-y,1/3+z
2/3-y,1/3-x,1/3+z
1/3+x,2/3+y,2/3+z
1/3-y,2/3+x-y,2/3+z
1/3-x+y,2/3-x,2/3+z
1/3+x-y,2/3-y,2/3-z
1/3-x,2/3-x+y,2/3-z
1/3+y,2/3+x,2/3-z
1/3-x,2/3-y,2/3-z
1/3+y,2/3-x+y,2/3-z
1/3+x-y,2/3+x,2/3-z
1/3-x+y,2/3+y,2/3+z
1/3+x,2/3+x-y,2/3+z
1/3-y,2/3-x,2/3+z
loop_
_atom_site_type_symbol
_atom_site_label
_atom_site_fract_x
_atom_site_fract_y
_atom_site_fract_z
Si Si1 0.846231 0.058165 0.358620
Si Si2 0.051294 0.198222 0.313062
Si Si3 0.588109 0.971225 0.358871
Si Si4 0.060136 0.295037 0.234410
O O1 0.897436 0.102565 0.314343
O O2 0.845210 0.056766 0.524749
O O3 0.802066 0.066456 0.315604
O O4 0.837708 0.006686 0.301360
O O5 0.090768 0.181535 0.282528
O O6 0.063024 0.246137 0.226034
O O7 0.613362 0.937772 0.356224
O O8 0.602163 0.000000 0.500000
O O9 0.603854 0.010532 0.238134
O O10 0.102076 0.333334 0.333334
#
# Coordination Sequence:
#
# PCOD9579320 Si02
#       4
#    36  36  36  36
#     4   9  18  33  50  70  96 125 159 202 252 298
#     4   9  18  32  51  72  92 122 165 206 245 293
#     4  11  21  31  46  70 101 137 170 203 242 279
#     4  11  19  31  47  69  97 133 172 208 236 275
#
# _framework density 16.960182
#
# number of rings (size 3 to 8) (size 9 to 14) (size 15 to 20)
#    0.000    2.000    2.500    3.000    0.000    2.000 
#    0.000    0.000    0.000    0.500    0.000    3.500 
#    0.000    0.000    0.000    0.000    0.000   19.000 
#
# Total GULP energy -267597.541897 kJ/mol
# GULP energy per Si atom -5574.948790 kJ/mol
# Density = 1.692158 g / cm^3
# Si number density = 16.960182 Si / 1000 Ang^3
#
#
#
# Elastic Constant Matrix: (Units=GPa)
#
#
# Indices 1 2 3 4 5 6 
#
# 1 92.0468 66.3200 3.9870 3.4855 -0.0098 0.0045
# 2 66.3200 92.0571 4.0216 -3.4896 0.0026 -0.0047
# 3 3.9870 4.0216 33.9423 -0.0227 -0.0294 -0.0074
# 4 3.4855 -3.4896 -0.0227 7.6529 -0.0111 -0.0025
# 5 -0.0098 0.0026 -0.0294 -0.0111 7.6405 3.4854
# 6 0.0045 -0.0047 -0.0074 -0.0025 3.4854 12.8667
#
#
#
# Elastic Compliance Matrix: (Units=1/GPa)
#
#
# Indices 1 2 3 4 5 6 
#
# 1 0.025346 -0.018994 -0.000740 -0.020207 0.000018 -0.000025
# 2 -0.018994 0.025345 -0.000758 0.020205 -0.000017 0.000024
# 3 -0.000740 -0.000758 0.029639 0.000079 0.000120 -0.000016
# 4 -0.020207 0.020205 0.000079 0.149087 0.000187 -0.000007
# 5 0.000018 -0.000017 0.000120 0.000187 0.149336 -0.040452
# 6 -0.000025 0.000024 -0.000016 -0.000007 -0.040452 0.088678
#
#
# Mechanical properties :
#
#
# Convention : Reuss Voigt Hill
#
# Bulk Modulus (GPa) = 25.41589 40.74485 33.08037
# Shear Modulus (GPa) = 9.58716 15.21319 12.40017
#
# Velocity S-wave (km/s) = 2.38013 2.99824 2.70688
# Velocity P-wave (km/s) = 4.75095 6.00515 5.41449
#
# Compressibility (1/GPa) = 0.03934547
#
# Stress axis : x y z
#
# Youngs Moduli (GPa) = 39.45347 39.45494 33.73961
#
# Poissons Ratio (x) = 0.74940 0.02498
# Poissons Ratio (y) = 0.74937 0.02559
# Poissons Ratio (z) = 0.02921 0.02992
#
# Static dielectric constant tensor:
#      x y z
#    x 1.591380 0.000000 -0.000010 
#    y 0.000000 1.591380 0.000000 
#    z -0.000010 0.000000 1.567140 
# 
# From -- ./inp_files/1755.got.cif
#   From: 2010.05.17/outbox.cif.g08.bks.cpg/sg166_1_cif.got.tgz:1755.got - 2010.05.20 11:04:41.
