data_PCOD9579028
_publ_section_title
;
Structure prediction by ZEFSAII (Michael W. Deem and Ramdas Pophale) SiO2 
 PCOD9579028
Probable space group: R -3 M
;
_chemical_formula_sum "Si O2"
_cell_formula_units_Z 216
_cell_length_a 27.152950
_cell_length_b 27.152950
_cell_length_c 23.411053
_cell_angle_alpha 90.000000
_cell_angle_beta 90.000000
_cell_angle_gamma 120.000000
_cell_volume 14948.087097
_symmetry_space_group_name_H-M "R -3 M"
_symmetry_group_IT_number 166
_symmetry_cell_setting 'hexagonal'
loop_
_space_group_symop_operation_xyz
x,y,z
-y,x-y,z
-x+y,-x,z
x-y,-y,-z
-x,-x+y,-z
y,x,-z
-x,-y,-z
y,-x+y,-z
x-y,x,-z
-x+y,y,z
x,x-y,z
-y,-x,z
2/3+x,1/3+y,1/3+z
2/3-y,1/3+x-y,1/3+z
2/3-x+y,1/3-x,1/3+z
2/3+x-y,1/3-y,1/3-z
2/3-x,1/3-x+y,1/3-z
2/3+y,1/3+x,1/3-z
2/3-x,1/3-y,1/3-z
2/3+y,1/3-x+y,1/3-z
2/3+x-y,1/3+x,1/3-z
2/3-x+y,1/3+y,1/3+z
2/3+x,1/3+x-y,1/3+z
2/3-y,1/3-x,1/3+z
1/3+x,2/3+y,2/3+z
1/3-y,2/3+x-y,2/3+z
1/3-x+y,2/3-x,2/3+z
1/3+x-y,2/3-y,2/3-z
1/3-x,2/3-x+y,2/3-z
1/3+y,2/3+x,2/3-z
1/3-x,2/3-y,2/3-z
1/3+y,2/3-x+y,2/3-z
1/3+x-y,2/3+x,2/3-z
1/3-x+y,2/3+y,2/3+z
1/3+x,2/3+x-y,2/3+z
1/3-y,2/3-x,2/3+z
loop_
_atom_site_type_symbol
_atom_site_label
_atom_site_fract_x
_atom_site_fract_y
_atom_site_fract_z
Si Si1 0.936025 0.523416 0.975199
Si Si2 0.318155 0.414282 0.937915
Si Si3 0.105866 0.322554 0.637750
Si Si4 0.191579 0.926168 0.840651
Si Si5 0.223659 0.168138 0.033818
Si Si6 0.995385 0.294530 0.567613
O O1 0.916255 0.458128 0.963051
O O2 0.940377 0.562498 0.921438
O O3 0.901939 0.535275 0.024624
O O4 0.000000 0.552103 0.000000
O O5 0.304271 0.430158 0.876766
O O6 0.338268 0.367504 0.928012
O O7 0.261222 0.385054 0.975775
O O8 0.155589 0.311178 0.616227
O O9 0.136016 0.385711 0.663026
O O10 0.057350 0.314846 0.593743
O O11 0.128682 0.871319 0.834587
O O12 0.234343 0.901010 0.833334
O O13 0.194868 0.952566 0.902841
O O14 0.204148 0.102074 0.039183
O O15 0.179902 0.179902 0.000000
O O16 0.000000 0.302114 0.500000
#
# Coordination Sequence:
#
# PCOD9579028 Si02
#       6
#    36  36  36  36  36  36
#     4   8  16  31  44  56  83 118 150 181 213 250
#     4  10  17  28  45  65  84 112 151 185 217 262
#     4  10  19  30  43  62  89 116 145 182 223 264
#     4  10  18  28  44  66  88 115 146 183 225 260
#     4  10  20  32  46  63  90 118 144 182 228 268
#     4  10  20  28  43  66  84 118 155 186 215 253
#
# _framework density 14.450009
#
# number of rings (size 3 to 8) (size 9 to 14) (size 15 to 20)
#    0.000    2.333    1.667    3.500    2.333    0.667 
#    0.000    0.833    0.000    0.167    0.000    0.000 
#    0.000    0.000    0.000   65.500    0.000   44.167 
#
# Total GULP energy -401155.151517 kJ/mol
# GULP energy per Si atom -5571.599327 kJ/mol
# Density = 1.441712 g / cm^3
# Si number density = 14.450009 Si / 1000 Ang^3
#
#
#
# Elastic Constant Matrix: (Units=GPa)
#
#
# Indices 1 2 3 4 5 6 
#
# 1 44.5022 14.0099 12.2527 -2.6688 0.0000 0.0000
# 2 14.0099 44.5022 12.2527 2.6688 0.0000 0.0000
# 3 12.2527 12.2527 58.3300 0.0000 0.0000 0.0000
# 4 -2.6688 2.6688 0.0000 16.7616 0.0000 0.0000
# 5 0.0000 0.0000 0.0000 0.0000 16.7616 -2.6688
# 6 0.0000 0.0000 0.0000 0.0000 -2.6688 15.2462
#
#
#
# Elastic Compliance Matrix: (Units=1/GPa)
#
#
# Indices 1 2 3 4 5 6 
#
# 1 0.026237 -0.007498 -0.003936 0.005371 0.000000 0.000000
# 2 -0.007498 0.026237 -0.003936 -0.005371 0.000000 0.000000
# 3 -0.003936 -0.003936 0.018798 0.000000 0.000000 0.000000
# 4 0.005371 -0.005371 0.000000 0.061371 0.000000 0.000000
# 5 0.000000 0.000000 0.000000 0.000000 0.061371 0.010743
# 6 0.000000 0.000000 0.000000 0.000000 0.010743 0.067471
#
#
# Mechanical properties :
#
#
# Convention : Reuss Voigt Hill
#
# Bulk Modulus (GPa) = 24.67281 24.92944 24.80112
# Shear Modulus (GPa) = 16.35398 17.00848 16.68123
#
# Velocity S-wave (km/s) = 3.36782 3.43455 3.40135
# Velocity P-wave (km/s) = 5.67755 5.74611 5.71193
#
# Compressibility (1/GPa) = 0.04053045
#
# Stress axis : x y z
#
# Youngs Moduli (GPa) = 38.11379 38.11380 53.19843
#
# Poissons Ratio (x) = 0.28578 0.20940
# Poissons Ratio (y) = 0.28578 0.20940
# Poissons Ratio (z) = 0.15003 0.15003
#
# Static dielectric constant tensor:
#      x y z
#    x 1.481270 0.000000 0.000000 
#    y 0.000000 1.481270 0.000000 
#    z 0.000000 0.000000 1.490830 
# 
# From -- ./inp_files/8612.got.cif
#   From: 2010.05.17/outbox.cif.g08.bks.cpg/sg166_5_cif.got.tgz:8612.got - 2010.05.20 11:04:41.
