data_PCOD9579609
_publ_section_title
;
Structure prediction by ZEFSAII (Michael W. Deem and Ramdas Pophale) SiO2 
 PCOD9579609
Probable space group: R -3 C 
;
_chemical_formula_sum "Si O2"
_cell_formula_units_Z 144
_cell_length_a 14.486218
_cell_length_b 14.486218
_cell_length_c 29.633192
_cell_angle_alpha 90.000000
_cell_angle_beta 90.000000
_cell_angle_gamma 120.000000
_cell_volume 5385.414058
_symmetry_space_group_name_H-M "R -3 C "
_symmetry_group_IT_number 167
_symmetry_cell_setting 'hexagonal'
loop_
_space_group_symop_operation_xyz
x,y,z
-y,x-y,z
-x+y,-x,z
x-y,-y,1/2-z
-x,-x+y,1/2-z
y,x,1/2-z
-x,-y,-z
y,-x+y,-z
x-y,x,-z
-x+y,y,1/2+z
x,x-y,1/2+z
-y,-x,1/2+z
2/3+x,1/3+y,1/3+z
2/3-y,1/3+x-y,1/3+z
2/3-x+y,1/3-x,1/3+z
2/3+x-y,1/3-y,5/6-z
2/3-x,1/3-x+y,5/6-z
2/3+y,1/3+x,5/6-z
2/3-x,1/3-y,1/3-z
2/3+y,1/3-x+y,1/3-z
2/3+x-y,1/3+x,1/3-z
2/3-x+y,1/3+y,5/6+z
2/3+x,1/3+x-y,5/6+z
2/3-y,1/3-x,5/6+z
1/3+x,2/3+y,2/3+z
1/3-y,2/3+x-y,2/3+z
1/3-x+y,2/3-x,2/3+z
1/3+x-y,2/3-y,1/6-z
1/3-x,2/3-x+y,1/6-z
1/3+y,2/3+x,1/6-z
1/3-x,2/3-y,2/3-z
1/3+y,2/3-x+y,2/3-z
1/3+x-y,2/3+x,2/3-z
1/3-x+y,2/3+y,1/6+z
1/3+x,2/3+x-y,1/6+z
1/3-y,2/3-x,1/6+z
loop_
_atom_site_type_symbol
_atom_site_label
_atom_site_fract_x
_atom_site_fract_y
_atom_site_fract_z
Si Si1 0.524877 0.883819 0.961872
Si Si2 0.605078 0.125321 0.360739
Si Si3 0.972059 0.791271 0.812326
Si Si4 0.844595 0.069035 0.389178
O O1 0.595762 0.929095 0.916667
O O2 0.426773 0.904120 0.964818
O O3 0.487487 0.758129 0.957571
O O4 0.572829 0.897005 0.012226
O O5 0.513139 0.146062 0.342488
O O6 0.564928 0.000048 0.364964
O O7 0.654114 0.179163 0.408615
O O8 0.955240 0.802115 0.865641
O O9 0.797532 0.130866 0.416667
#
# Coordination Sequence:
#
# PCOD9579609 Si02
#       4
#    36  36  36  36
#     4  10  22  44  79 116 153 208 262 333 411 477
#     4  12  26  49  78 117 167 215 270 331 401 497
#     4  10  24  46  78 117 162 195 275 338 405 484
#     4  10  24  47  73 113 158 205 261 338 396 479
#
# _framework density 26.738892
#
# number of rings (size 3 to 8) (size 9 to 14) (size 15 to 20)
#    1.500    0.000    2.500    1.500    3.500    2.000 
#    0.000   11.250    5.500    0.000    0.000    0.000 
#    0.000    0.000    0.000    0.000    0.000    0.000 
#
# Total GULP energy -268182.095129 kJ/mol
# GULP energy per Si atom -5587.126982 kJ/mol
# Density = 2.667803 g / cm^3
# Si number density = 26.738892 Si / 1000 Ang^3
#
#
#
# Elastic Constant Matrix: (Units=GPa)
#
#
# Indices 1 2 3 4 5 6 
#
# 1 106.9342 43.7014 38.1682 -2.3833 -0.0001 0.0000
# 2 43.7014 106.9342 38.1682 2.3833 0.0001 0.0000
# 3 38.1682 38.1682 224.4212 0.0000 0.0000 0.0000
# 4 -2.3833 2.3833 0.0000 25.8717 0.0000 0.0001
# 5 -0.0001 0.0001 0.0000 0.0000 25.8717 -2.3833
# 6 0.0000 0.0000 0.0000 0.0001 -2.3833 31.6164
#
#
#
# Elastic Compliance Matrix: (Units=1/GPa)
#
#
# Indices 1 2 3 4 5 6 
#
# 1 0.011595 -0.004330 -0.001236 0.001467 0.000000 0.000000
# 2 -0.004330 0.011595 -0.001236 -0.001467 0.000000 0.000000
# 3 -0.001236 -0.001236 0.004876 0.000000 0.000000 0.000000
# 4 0.001467 -0.001467 0.000000 0.038923 0.000000 0.000000
# 5 0.000000 0.000000 0.000000 0.000000 0.038923 0.002934
# 6 0.000000 0.000000 0.000000 0.000000 0.002934 0.031850
#
#
# Mechanical properties :
#
#
# Convention : Reuss Voigt Hill
#
# Bulk Modulus (GPa) = 69.14021 75.37393 72.25707
# Shear Modulus (GPa) = 32.01324 37.88872 34.95098
#
# Velocity S-wave (km/s) = 3.46389 3.76838 3.61934
# Velocity P-wave (km/s) = 6.47393 6.86908 6.67443
#
# Compressibility (1/GPa) = 0.01446336
#
# Stress axis : x y z
#
# Youngs Moduli (GPa) = 86.24467 86.24467 205.07903
#
# Poissons Ratio (x) = 0.37346 0.25338
# Poissons Ratio (y) = 0.37346 0.25338
# Poissons Ratio (z) = 0.10656 0.10656
#
# Static dielectric constant tensor:
#      x y z
#    x 2.110040 0.000000 0.000000 
#    y 0.000000 2.110040 0.000000 
#    z 0.000000 0.000000 2.299200 
# 
# From -- ./inp_files/6181.got.cif
#   From: 2010.05.17/outbox.cif.g08.bks.cpg/sg167_4_cif.got.tgz:6181.got - 2010.05.20 11:09:15.
