data_PCOD9579545
_publ_section_title
;
Structure prediction by ZEFSAII (Michael W. Deem and Ramdas Pophale) SiO2 
 PCOD9579545
Probable space group: R -3 C 
;
_chemical_formula_sum "Si O2"
_cell_formula_units_Z 162
_cell_length_a 23.521161
_cell_length_b 23.521161
_cell_length_c 18.310963
_cell_angle_alpha 90.000000
_cell_angle_beta 90.000000
_cell_angle_gamma 120.000000
_cell_volume 8773.226182
_symmetry_space_group_name_H-M "R -3 C "
_symmetry_group_IT_number 167
_symmetry_cell_setting 'hexagonal'
loop_
_space_group_symop_operation_xyz
x,y,z
-y,x-y,z
-x+y,-x,z
x-y,-y,1/2-z
-x,-x+y,1/2-z
y,x,1/2-z
-x,-y,-z
y,-x+y,-z
x-y,x,-z
-x+y,y,1/2+z
x,x-y,1/2+z
-y,-x,1/2+z
2/3+x,1/3+y,1/3+z
2/3-y,1/3+x-y,1/3+z
2/3-x+y,1/3-x,1/3+z
2/3+x-y,1/3-y,5/6-z
2/3-x,1/3-x+y,5/6-z
2/3+y,1/3+x,5/6-z
2/3-x,1/3-y,1/3-z
2/3+y,1/3-x+y,1/3-z
2/3+x-y,1/3+x,1/3-z
2/3-x+y,1/3+y,5/6+z
2/3+x,1/3+x-y,5/6+z
2/3-y,1/3-x,5/6+z
1/3+x,2/3+y,2/3+z
1/3-y,2/3+x-y,2/3+z
1/3-x+y,2/3-x,2/3+z
1/3+x-y,2/3-y,1/6-z
1/3-x,2/3-x+y,1/6-z
1/3+y,2/3+x,1/6-z
1/3-x,2/3-y,2/3-z
1/3+y,2/3-x+y,2/3-z
1/3+x-y,2/3+x,2/3-z
1/3-x+y,2/3+y,1/6+z
1/3+x,2/3+x-y,1/6+z
1/3-y,2/3-x,1/6+z
loop_
_atom_site_type_symbol
_atom_site_label
_atom_site_fract_x
_atom_site_fract_y
_atom_site_fract_z
Si Si1 0.659419 0.943085 0.004273
Si Si2 0.537526 0.870859 0.916667
Si Si3 0.160415 0.876688 0.397902
Si Si4 0.800650 0.263082 0.597201
Si Si5 0.762977 0.669271 0.330866
O O1 0.666667 0.919246 0.083334
O O2 0.583277 0.913180 0.984425
O O3 0.688826 0.916094 0.943299
O O4 0.700474 0.021816 0.006892
O O5 0.531747 0.800589 0.918491
O O6 0.166667 0.833334 0.333334
O O7 0.147014 0.925183 0.349856
O O8 0.107069 0.824828 0.453835
O O9 0.808346 0.333334 0.583334
O O10 0.854381 0.258284 0.544592
O O11 0.776251 0.666667 0.416667
#
# Coordination Sequence:
#
# PCOD9579545 Si02
#       5
#    36  18  36  36  36
#     4  12  23  36  63  94 130 169 210 259 320 402
#     4  12  24  42  62  90 126 166 218 266 326 392
#     4  10  21  40  57  86 128 166 208 253 322 393
#     4  11  24  41  61  84 122 166 214 269 325 379
#     4  11  21  36  60  95 130 162 205 259 330 399
#
# _framework density 18.465271999999999
#
# number of rings (size 3 to 8) (size 9 to 14) (size 15 to 20)
#    0.000    0.889    5.556    4.000    3.111    0.000 
#    0.667    0.000    0.000    0.000    0.000    0.000 
#    0.000    5.333    0.000    0.000    0.000    0.000 
#
# Total GULP energy -301450.387658 kJ/mol
# GULP energy per Si atom -5582.414586 kJ/mol
# Density = 1.842324 g / cm^3
# Si number density = 18.465272 Si / 1000 Ang^3
#
#
#
# Elastic Constant Matrix: (Units=GPa)
#
#
# Indices 1 2 3 4 5 6 
#
# 1 126.8517 66.5918 42.6040 5.9919 0.0000 0.0000
# 2 66.5918 126.8517 42.6040 -5.9919 0.0000 0.0000
# 3 42.6040 42.6040 147.0601 0.0000 0.0000 0.0000
# 4 5.9919 -5.9919 0.0000 25.1456 0.0000 0.0000
# 5 0.0000 0.0000 0.0000 0.0000 25.1456 5.9919
# 6 0.0000 0.0000 0.0000 0.0000 5.9919 30.1299
#
#
#
# Elastic Compliance Matrix: (Units=1/GPa)
#
#
# Indices 1 2 3 4 5 6 
#
# 1 0.011673 -0.005747 -0.001717 -0.004151 0.000000 0.000000
# 2 -0.005747 0.011673 -0.001717 0.004151 0.000000 0.000000
# 3 -0.001717 -0.001717 0.007795 0.000000 0.000000 0.000000
# 4 -0.004151 0.004151 0.000000 0.041747 0.000000 0.000000
# 5 0.000000 0.000000 0.000000 0.000000 0.041747 -0.008302
# 6 0.000000 0.000000 0.000000 0.000000 -0.008302 0.034841
#
#
# Mechanical properties :
#
#
# Convention : Reuss Voigt Hill
#
# Bulk Modulus (GPa) = 78.25257 78.26258 78.25757
# Shear Modulus (GPa) = 29.05359 32.68178 30.86769
#
# Velocity S-wave (km/s) = 3.97094 4.21159 4.09303
# Velocity P-wave (km/s) = 7.96836 8.13177 8.05048
#
# Compressibility (1/GPa) = 0.01277913
#
# Stress axis : x y z
#
# Youngs Moduli (GPa) = 85.66801 85.66801 128.29382
#
# Poissons Ratio (x) = 0.49236 0.22024
# Poissons Ratio (y) = 0.49236 0.22024
# Poissons Ratio (z) = 0.14707 0.14707
#
# Static dielectric constant tensor:
#      x y z
#    x 1.677870 0.000000 0.000000 
#    y 0.000000 1.677870 0.000000 
#    z 0.000000 0.000000 1.673300 
# 
# From -- ./inp_files/3455.got.cif
#   From: 2010.05.17/outbox.cif.g08.bks.cpg/sg167_2_cif.got.tgz:3455.got - 2010.05.20 11:09:15.
