data_PCOD9579219
_publ_section_title
;
Structure prediction by ZEFSAII (Michael W. Deem and Ramdas Pophale) SiO2 
 PCOD9579219
Probable space group: R -3 M
;
_chemical_formula_sum "Si O2"
_cell_formula_units_Z 108
_cell_length_a 25.807571
_cell_length_b 25.807571
_cell_length_c 8.014939
_cell_angle_alpha 90.000000
_cell_angle_beta 90.000000
_cell_angle_gamma 120.000000
_cell_volume 4623.013000
_symmetry_space_group_name_H-M "R -3 M"
_symmetry_group_IT_number 166
_symmetry_cell_setting 'hexagonal'
loop_
_space_group_symop_operation_xyz
x,y,z
-y,x-y,z
-x+y,-x,z
x-y,-y,-z
-x,-x+y,-z
y,x,-z
-x,-y,-z
y,-x+y,-z
x-y,x,-z
-x+y,y,z
x,x-y,z
-y,-x,z
2/3+x,1/3+y,1/3+z
2/3-y,1/3+x-y,1/3+z
2/3-x+y,1/3-x,1/3+z
2/3+x-y,1/3-y,1/3-z
2/3-x,1/3-x+y,1/3-z
2/3+y,1/3+x,1/3-z
2/3-x,1/3-y,1/3-z
2/3+y,1/3-x+y,1/3-z
2/3+x-y,1/3+x,1/3-z
2/3-x+y,1/3+y,1/3+z
2/3+x,1/3+x-y,1/3+z
2/3-y,1/3-x,1/3+z
1/3+x,2/3+y,2/3+z
1/3-y,2/3+x-y,2/3+z
1/3-x+y,2/3-x,2/3+z
1/3+x-y,2/3-y,2/3-z
1/3-x,2/3-x+y,2/3-z
1/3+y,2/3+x,2/3-z
1/3-x,2/3-y,2/3-z
1/3+y,2/3-x+y,2/3-z
1/3+x-y,2/3+x,2/3-z
1/3-x+y,2/3+y,2/3+z
1/3+x,2/3+x-y,2/3+z
1/3-y,2/3-x,2/3+z
loop_
_atom_site_type_symbol
_atom_site_label
_atom_site_fract_x
_atom_site_fract_y
_atom_site_fract_z
Si Si1 0.447978 0.780954 0.868390
Si Si2 0.638789 0.087001 0.073572
Si Si3 0.094497 0.783587 0.601178
O O1 0.382641 0.765281 0.927802
O O2 0.464882 0.732441 0.928536
O O3 0.445966 0.779299 0.666667
O O4 0.496124 0.847237 0.916712
O O5 0.599939 0.045492 0.226105
O O6 0.704146 0.093771 0.055233
O O7 0.600045 0.056601 0.907484
O O8 0.153438 0.846562 0.645408
#
# Coordination Sequence:
#
# PCOD9579219 Si02
#       3
#    36  36  36
#     4  10  20  36  58  86 118 153 191 239 294 352
#     4  10  20  37  58  85 116 152 195 242 289 347
#     4  10  20  37  60  84 113 154 195 241 296 350
#
# _framework density 23.361388000000002
#
# number of rings (size 3 to 8) (size 9 to 14) (size 15 to 20)
#    0.000    2.000    0.000    5.333    0.000    1.333 
#   18.000    0.000    0.000    6.000    0.000   11.667 
#    0.000    0.000    0.000    0.000    0.000    0.000 
#
# Total GULP energy -201520.798844 kJ/mol
# GULP energy per Si atom -5597.799968 kJ/mol
# Density = 2.330822 g / cm^3
# Si number density = 23.361388 Si / 1000 Ang^3
#
#
#
# Elastic Constant Matrix: (Units=GPa)
#
#
# Indices 1 2 3 4 5 6 
#
# 1 150.4739 64.8184 12.9845 -13.6599 0.0695 -0.0030
# 2 64.8184 150.4175 12.8548 13.5354 0.0320 -0.0177
# 3 12.9845 12.8548 55.6143 -0.4392 0.0585 -0.0117
# 4 -13.6599 13.5354 -0.4392 44.6924 0.1411 -0.0166
# 5 0.0695 0.0320 0.0585 0.1411 44.6091 -13.6206
# 6 -0.0030 -0.0177 -0.0117 -0.0166 -13.6206 42.8198
#
#
#
# Elastic Compliance Matrix: (Units=1/GPa)
#
#
# Indices 1 2 3 4 5 6 
#
# 1 0.008852 -0.004075 -0.001094 0.003929 -0.000024 -0.000008
# 2 -0.004075 0.008855 -0.001126 -0.003938 0.000016 0.000007
# 3 -0.001094 -0.001126 0.018498 0.000189 -0.000023 -0.000003
# 4 0.003929 -0.003938 0.000189 0.024771 -0.000088 -0.000020
# 5 -0.000024 0.000016 -0.000023 -0.000088 0.024829 0.007898
# 6 -0.000008 0.000007 -0.000003 -0.000020 0.007898 0.025866
#
#
# Mechanical properties :
#
#
# Convention : Reuss Voigt Hill
#
# Bulk Modulus (GPa) = 42.34590 59.75789 51.05190
# Shear Modulus (GPa) = 37.84107 44.14747 40.99427
#
# Velocity S-wave (km/s) = 4.02906 4.35186 4.19356
# Velocity P-wave (km/s) = 6.30953 7.13350 6.73413
#
# Compressibility (1/GPa) = 0.02361504
#
# Stress axis : x y z
#
# Youngs Moduli (GPa) = 112.97032 112.93544 54.05915
#
# Poissons Ratio (x) = 0.46016 0.05913
# Poissons Ratio (y) = 0.46030 0.06090
# Poissons Ratio (z) = 0.12357 0.12722
#
# Static dielectric constant tensor:
#      x y z
#    x 1.847720 0.000030 -0.000020 
#    y 0.000030 1.847730 -0.000030 
#    z -0.000020 -0.000030 1.941780 
# 
# From -- ./inp_files/2543.got.cif
#   From: 2010.05.17/outbox.cif.g08.bks.cpg/sg166_2_cif.got.tgz:2543.got - 2010.05.20 11:04:41.
