data_PCOD9579422
_publ_section_title
;
Structure prediction by ZEFSAII (Michael W. Deem and Ramdas Pophale) SiO2 
 PCOD9579422
Probable space group: R -3 C 
;
_chemical_formula_sum "Si O2"
_cell_formula_units_Z 234
_cell_length_a 26.919882
_cell_length_b 26.919882
_cell_length_c 21.706829
_cell_angle_alpha 90.000000
_cell_angle_beta 90.000000
_cell_angle_gamma 120.000000
_cell_volume 13623.017687
_symmetry_space_group_name_H-M "R -3 C "
_symmetry_group_IT_number 167
_symmetry_cell_setting 'hexagonal'
loop_
_space_group_symop_operation_xyz
x,y,z
-y,x-y,z
-x+y,-x,z
x-y,-y,1/2-z
-x,-x+y,1/2-z
y,x,1/2-z
-x,-y,-z
y,-x+y,-z
x-y,x,-z
-x+y,y,1/2+z
x,x-y,1/2+z
-y,-x,1/2+z
2/3+x,1/3+y,1/3+z
2/3-y,1/3+x-y,1/3+z
2/3-x+y,1/3-x,1/3+z
2/3+x-y,1/3-y,5/6-z
2/3-x,1/3-x+y,5/6-z
2/3+y,1/3+x,5/6-z
2/3-x,1/3-y,1/3-z
2/3+y,1/3-x+y,1/3-z
2/3+x-y,1/3+x,1/3-z
2/3-x+y,1/3+y,5/6+z
2/3+x,1/3+x-y,5/6+z
2/3-y,1/3-x,5/6+z
1/3+x,2/3+y,2/3+z
1/3-y,2/3+x-y,2/3+z
1/3-x+y,2/3-x,2/3+z
1/3+x-y,2/3-y,1/6-z
1/3-x,2/3-x+y,1/6-z
1/3+y,2/3+x,1/6-z
1/3-x,2/3-y,2/3-z
1/3+y,2/3-x+y,2/3-z
1/3+x-y,2/3+x,2/3-z
1/3-x+y,2/3+y,1/6+z
1/3+x,2/3+x-y,1/6+z
1/3-y,2/3-x,1/6+z
loop_
_atom_site_type_symbol
_atom_site_label
_atom_site_fract_x
_atom_site_fract_y
_atom_site_fract_z
Si Si1 0.834975 0.613574 0.130967
Si Si2 0.282905 0.837010 0.220423
Si Si3 0.712134 0.749938 0.385442
Si Si4 0.497132 0.097376 0.334824
Si Si5 0.381193 0.468187 0.967107
Si Si6 0.653997 0.902232 0.492231
Si Si7 0.666667 0.821697 0.583334
O O1 0.833334 0.666667 0.166667
O O2 0.858330 0.586331 0.179329
O O3 0.770443 0.578431 0.109979
O O4 0.878541 0.630270 0.075139
O O5 0.342476 0.847762 0.191148
O O6 0.224316 0.778126 0.201646
O O7 0.290401 0.851287 0.294037
O O8 0.273247 0.885206 0.186971
O O9 0.727572 0.776410 0.453079
O O10 0.644728 0.724503 0.370435
O O11 0.732134 0.706616 0.361610
O O12 0.485505 0.052863 0.279254
O O13 0.333334 0.455275 0.916667
O O14 0.643597 0.847293 0.531126
#
# Coordination Sequence:
#
# PCOD9579422 Si02
#       7
#    36  36  36  36  36  36  18
#     4  10  18  37  53  73 114 149 187 232 276 323
#     4  11  23  41  57  83 115 148 194 238 291 341
#     4  11  21  36  54  79 115 157 193 227 281 336
#     4  11  24  39  58  81 116 152 190 246 288 342
#     4  11  23  35  56  80 111 155 197 236 279 332
#     4  11  21  36  55  84 114 153 192 227 280 343
#     4  10  22  36  52  80 114 148 188 240 280 332
#
# _framework density 17.17681
#
# number of rings (size 3 to 8) (size 9 to 14) (size 15 to 20)
#    0.000    1.231    4.615    5.077    7.538    0.000 
#    0.000    0.000    0.000    0.308    0.000    0.000 
#    0.000    0.000    0.000    0.000    0.000    0.000 
#
# Total GULP energy -434221.854139 kJ/mol
# GULP energy per Si atom -5566.946848 kJ/mol
# Density = 1.713772 g / cm^3
# Si number density = 17.176810 Si / 1000 Ang^3
#
#
#
# Elastic Constant Matrix: (Units=GPa)
#
#
# Indices 1 2 3 4 5 6 
#
# 1 76.6263 39.2163 33.9243 0.6721 -0.0002 0.0000
# 2 39.2163 76.6263 33.9243 -0.6721 0.0002 0.0000
# 3 33.9243 33.9243 98.1682 0.0000 0.0000 0.0000
# 4 0.6721 -0.6721 0.0000 25.0717 0.0000 0.0002
# 5 -0.0002 0.0002 0.0000 0.0000 25.0717 0.6721
# 6 0.0000 0.0000 0.0000 0.0002 0.6721 18.7050
#
#
#
# Elastic Compliance Matrix: (Units=1/GPa)
#
#
# Indices 1 2 3 4 5 6 
#
# 1 0.018790 -0.007967 -0.003740 -0.000717 0.000000 0.000000
# 2 -0.007967 0.018790 -0.003740 0.000717 0.000000 0.000000
# 3 -0.003740 -0.003740 0.012772 0.000000 0.000000 0.000000
# 4 -0.000717 0.000717 0.000000 0.039924 0.000000 0.000000
# 5 0.000000 0.000000 0.000000 0.000000 0.039924 -0.001435
# 6 0.000000 0.000000 0.000000 0.000000 -0.001435 0.053513
#
#
# Mechanical properties :
#
#
# Convention : Reuss Voigt Hill
#
# Bulk Modulus (GPa) = 51.39537 51.72787 51.56162
# Shear Modulus (GPa) = 22.61499 23.39341 23.00420
#
# Velocity S-wave (km/s) = 3.63243 3.69442 3.66356
# Velocity P-wave (km/s) = 6.89776 6.95548 6.92668
#
# Compressibility (1/GPa) = 0.01945701
#
# Stress axis : x y z
#
# Youngs Moduli (GPa) = 53.22037 53.22037 78.29887
#
# Poissons Ratio (x) = 0.42400 0.29285
# Poissons Ratio (y) = 0.42400 0.29285
# Poissons Ratio (z) = 0.19905 0.19905
#
# Static dielectric constant tensor:
#      x y z
#    x 1.626930 0.000000 0.000000 
#    y 0.000000 1.626930 0.000000 
#    z 0.000000 0.000000 1.810920 
# 
# From -- ./inp_files/4703.got.cif
#   From: 2010.05.17/outbox.cif.g08.bks.cpg/sg167_3_cif.got.tgz:4703.got - 2010.05.20 11:09:15.
