data_PCOD9579070
_publ_section_title
;
Structure prediction by ZEFSAII (Michael W. Deem and Ramdas Pophale) SiO2 
 PCOD9579070
Probable space group: R -3 M
;
_chemical_formula_sum "Si O2"
_cell_formula_units_Z 162
_cell_length_a 21.075751
_cell_length_b 21.075751
_cell_length_c 24.514203
_cell_angle_alpha 90.000000
_cell_angle_beta 90.000000
_cell_angle_gamma 120.000000
_cell_volume 9430.061557
_symmetry_space_group_name_H-M "R -3 M"
_symmetry_group_IT_number 166
_symmetry_cell_setting 'hexagonal'
loop_
_space_group_symop_operation_xyz
x,y,z
-y,x-y,z
-x+y,-x,z
x-y,-y,-z
-x,-x+y,-z
y,x,-z
-x,-y,-z
y,-x+y,-z
x-y,x,-z
-x+y,y,z
x,x-y,z
-y,-x,z
2/3+x,1/3+y,1/3+z
2/3-y,1/3+x-y,1/3+z
2/3-x+y,1/3-x,1/3+z
2/3+x-y,1/3-y,1/3-z
2/3-x,1/3-x+y,1/3-z
2/3+y,1/3+x,1/3-z
2/3-x,1/3-y,1/3-z
2/3+y,1/3-x+y,1/3-z
2/3+x-y,1/3+x,1/3-z
2/3-x+y,1/3+y,1/3+z
2/3+x,1/3+x-y,1/3+z
2/3-y,1/3-x,1/3+z
1/3+x,2/3+y,2/3+z
1/3-y,2/3+x-y,2/3+z
1/3-x+y,2/3-x,2/3+z
1/3+x-y,2/3-y,2/3-z
1/3-x,2/3-x+y,2/3-z
1/3+y,2/3+x,2/3-z
1/3-x,2/3-y,2/3-z
1/3+y,2/3-x+y,2/3-z
1/3+x-y,2/3+x,2/3-z
1/3-x+y,2/3+y,2/3+z
1/3+x,2/3+x-y,2/3+z
1/3-y,2/3-x,2/3+z
loop_
_atom_site_type_symbol
_atom_site_label
_atom_site_fract_x
_atom_site_fract_y
_atom_site_fract_z
Si Si1 0.151914 0.000522 0.319191
Si Si2 0.215279 0.930779 0.388800
Si Si3 0.915457 0.383804 0.439302
Si Si4 0.819575 0.333334 0.333334
Si Si5 0.590350 0.673276 0.890635
O O1 0.071853 0.928148 0.320363
O O2 0.197675 0.992944 0.369531
O O3 0.148097 0.074049 0.320998
O O4 0.193660 0.997887 0.264721
O O5 0.139731 0.860270 0.406375
O O6 0.240945 0.907612 0.333334
O O7 0.277849 0.945180 0.431314
O O8 0.900676 0.450338 0.450090
O O9 0.867780 0.341284 0.386874
O O10 0.900344 0.338904 0.495083
O O11 0.002387 0.418466 0.429898
O O12 0.812868 0.406434 0.329895
#
# Coordination Sequence:
#
# PCOD9579070 Si02
#       5
#    36  36  36  18  36
#     4  10  19  31  50  77 109 143 179 219 267 326
#     4   8  16  29  47  73 102 133 170 212 267 322
#     4  10  21  35  52  78 108 141 180 226 279 323
#     4  10  23  40  56  76 107 150 192 228 268 322
#     4  10  18  33  53  75 106 143 178 226 276 323
#
# _framework density 17.179103000000001
#
# number of rings (size 3 to 8) (size 9 to 14) (size 15 to 20)
#    0.000    2.444    0.000    5.000    4.667    1.778 
#    0.000    0.000    0.000    5.333    0.000    0.000 
#    0.000    0.000    0.000   27.111    0.000    0.000 
#
# Total GULP energy -300923.982228 kJ/mol
# GULP energy per Si atom -5572.666338 kJ/mol
# Density = 1.714000 g / cm^3
# Si number density = 17.179103 Si / 1000 Ang^3
#
#
#
# Elastic Constant Matrix: (Units=GPa)
#
#
# Indices 1 2 3 4 5 6 
#
# 1 85.9195 47.7137 61.2795 4.0366 -0.0005 0.0000
# 2 47.7137 85.9195 61.2795 -4.0366 0.0005 0.0000
# 3 61.2795 61.2795 122.5093 0.0000 0.0000 0.0000
# 4 4.0366 -4.0366 0.0000 9.0812 0.0000 0.0005
# 5 -0.0005 0.0005 0.0000 0.0000 9.0812 4.0366
# 6 0.0000 0.0000 0.0000 0.0005 4.0366 19.1029
#
#
#
# Elastic Compliance Matrix: (Units=1/GPa)
#
#
# Indices 1 2 3 4 5 6 
#
# 1 0.021357 -0.007531 -0.006916 -0.012840 0.000002 0.000000
# 2 -0.007531 0.021357 -0.006916 0.012840 -0.000002 0.000000
# 3 -0.006916 -0.006916 0.015081 0.000000 0.000000 0.000000
# 4 -0.012840 0.012840 0.000000 0.121532 0.000000 -0.000003
# 5 0.000002 -0.000002 0.000000 0.000000 0.121532 -0.025681
# 6 0.000000 0.000000 0.000000 -0.000003 -0.025681 0.057775
#
#
# Mechanical properties :
#
#
# Convention : Reuss Voigt Hill
#
# Bulk Modulus (GPa) = 66.35737 70.54374 68.45056
# Shear Modulus (GPa) = 12.30372 15.72477 14.01424
#
# Velocity S-wave (km/s) = 2.67910 3.02875 2.85927
# Velocity P-wave (km/s) = 6.94844 7.30643 7.12968
#
# Compressibility (1/GPa) = 0.01506992
#
# Stress axis : x y z
#
# Youngs Moduli (GPa) = 46.82402 46.82402 66.30791
#
# Poissons Ratio (x) = 0.35262 0.45857
# Poissons Ratio (y) = 0.35262 0.45857
# Poissons Ratio (z) = 0.32382 0.32382
#
# Static dielectric constant tensor:
#      x y z
#    x 1.587470 0.000000 0.000000 
#    y 0.000000 1.587470 0.000000 
#    z 0.000000 0.000000 1.582360 
# 
# From -- ./inp_files/8161.got.cif
#   From: 2010.05.17/outbox.cif.g08.bks.cpg/sg166_5_cif.got.tgz:8161.got - 2010.05.20 11:04:41.
