data_PCOD9579214
_publ_section_title
;
Structure prediction by ZEFSAII (Michael W. Deem and Ramdas Pophale) SiO2 
 PCOD9579214
Probable space group: R -3 M
;
_chemical_formula_sum "Si O2"
_cell_formula_units_Z 162
_cell_length_a 22.250426
_cell_length_b 22.250426
_cell_length_c 20.727355
_cell_angle_alpha 90.000000
_cell_angle_beta 90.000000
_cell_angle_gamma 120.000000
_cell_volume 8886.918102
_symmetry_space_group_name_H-M "R -3 M"
_symmetry_group_IT_number 166
_symmetry_cell_setting 'hexagonal'
loop_
_space_group_symop_operation_xyz
x,y,z
-y,x-y,z
-x+y,-x,z
x-y,-y,-z
-x,-x+y,-z
y,x,-z
-x,-y,-z
y,-x+y,-z
x-y,x,-z
-x+y,y,z
x,x-y,z
-y,-x,z
2/3+x,1/3+y,1/3+z
2/3-y,1/3+x-y,1/3+z
2/3-x+y,1/3-x,1/3+z
2/3+x-y,1/3-y,1/3-z
2/3-x,1/3-x+y,1/3-z
2/3+y,1/3+x,1/3-z
2/3-x,1/3-y,1/3-z
2/3+y,1/3-x+y,1/3-z
2/3+x-y,1/3+x,1/3-z
2/3-x+y,1/3+y,1/3+z
2/3+x,1/3+x-y,1/3+z
2/3-y,1/3-x,1/3+z
1/3+x,2/3+y,2/3+z
1/3-y,2/3+x-y,2/3+z
1/3-x+y,2/3-x,2/3+z
1/3+x-y,2/3-y,2/3-z
1/3-x,2/3-x+y,2/3-z
1/3+y,2/3+x,2/3-z
1/3-x,2/3-y,2/3-z
1/3+y,2/3-x+y,2/3-z
1/3+x-y,2/3+x,2/3-z
1/3-x+y,2/3+y,2/3+z
1/3+x,2/3+x-y,2/3+z
1/3-y,2/3-x,2/3+z
loop_
_atom_site_type_symbol
_atom_site_label
_atom_site_fract_x
_atom_site_fract_y
_atom_site_fract_z
Si Si1 0.371667 0.059990 0.553617
Si Si2 0.929958 0.718182 0.341720
Si Si3 0.863706 0.278354 0.431578
Si Si4 0.857625 0.857625 0.000000
Si Si5 0.960456 0.778194 0.568279
O O1 0.410611 0.048553 0.612807
O O2 0.417653 0.124384 0.507064
O O3 0.304238 0.065378 0.572503
O O4 0.348568 0.000000 0.500000
O O5 0.855801 0.711602 0.326761
O O6 0.915965 0.656981 0.393473
O O7 0.980585 0.790998 0.377084
O O8 0.791496 0.208505 0.423554
O O9 0.856248 0.336706 0.393734
O O10 0.932456 0.864911 0.997259
O O11 0.894597 0.789193 0.573674
O O12 0.000000 0.805495 0.500000
#
# Coordination Sequence:
#
# PCOD9579214 Si02
#       5
#    36  36  36  18  36
#     4  11  21  33  58  86 120 151 193 244 304 361
#     4  11  23  39  58  85 122 160 198 247 301 361
#     4  10  20  36  56  82 118 155 191 240 298 351
#     4  10  21  36  58  82 115 160 208 250 292 352
#     4  11  22  38  63  91 121 157 200 250 304 363
#
# _framework density 18.229042
#
# number of rings (size 3 to 8) (size 9 to 14) (size 15 to 20)
#    0.000    1.333    4.444    3.444    0.000    4.000 
#    0.000    0.000    0.000    4.000    0.000    1.556 
#    0.000    0.000    0.000    0.000    0.000    0.000 
#
# Total GULP energy -301042.555982 kJ/mol
# GULP energy per Si atom -5574.862148 kJ/mol
# Density = 1.818755 g / cm^3
# Si number density = 18.229042 Si / 1000 Ang^3
#
#
#
# Elastic Constant Matrix: (Units=GPa)
#
#
# Indices 1 2 3 4 5 6 
#
# 1 78.0077 34.0695 26.0954 0.8413 0.0000 0.0000
# 2 34.0695 78.0077 26.0954 -0.8413 0.0000 0.0000
# 3 26.0954 26.0954 83.7932 0.0000 0.0000 0.0000
# 4 0.8413 -0.8413 0.0000 26.3663 0.0000 0.0000
# 5 0.0000 0.0000 0.0000 0.0000 26.3663 0.8413
# 6 0.0000 0.0000 0.0000 0.0000 0.8413 21.9691
#
#
#
# Elastic Compliance Matrix: (Units=1/GPa)
#
#
# Indices 1 2 3 4 5 6 
#
# 1 0.016611 -0.006176 -0.003250 -0.000727 0.000000 0.000000
# 2 -0.006176 0.016611 -0.003250 0.000727 0.000000 0.000000
# 3 -0.003250 -0.003250 0.013958 0.000000 0.000000 0.000000
# 4 -0.000727 0.000727 0.000000 0.037974 0.000000 0.000000
# 5 0.000000 0.000000 0.000000 0.000000 0.037974 -0.001454
# 6 0.000000 0.000000 0.000000 0.000000 -0.001454 0.045574
#
#
# Mechanical properties :
#
#
# Convention : Reuss Voigt Hill
#
# Bulk Modulus (GPa) = 45.80826 45.81434 45.81130
# Shear Modulus (GPa) = 24.83479 25.17691 25.00585
#
# Velocity S-wave (km/s) = 3.69504 3.72040 3.70774
# Velocity P-wave (km/s) = 6.58698 6.60624 6.59661
#
# Compressibility (1/GPa) = 0.02183012
#
# Stress axis : x y z
#
# Youngs Moduli (GPa) = 60.19945 60.19945 71.64142
#
# Poissons Ratio (x) = 0.37177 0.23283
# Poissons Ratio (y) = 0.37177 0.23283
# Poissons Ratio (z) = 0.19565 0.19565
#
# Static dielectric constant tensor:
#      x y z
#    x 1.670940 0.000000 0.000000 
#    y 0.000000 1.670940 0.000000 
#    z 0.000000 0.000000 1.772660 
# 
# From -- ./inp_files/5445.got.cif
#   From: 2010.05.17/outbox.cif.g08.bks.cpg/sg166_3_cif.got.tgz:5445.got - 2010.05.20 11:04:41.
