data_PCOD9579783
_publ_section_title
;
Structure prediction by ZEFSAII (Michael W. Deem and Ramdas Pophale) SiO2 
 PCOD9579783
Probable space group: P 61
;
_chemical_formula_sum "Si O2"
_cell_formula_units_Z 42
_cell_length_a 10.891579
_cell_length_b 10.891579
_cell_length_c 23.653859
_cell_angle_alpha 90.000000
_cell_angle_beta 90.000000
_cell_angle_gamma 120.000000
_cell_volume 2430.045062
_symmetry_space_group_name_H-M "P 61"
_symmetry_group_IT_number 169
_symmetry_cell_setting 'hexagonal'
loop_
_space_group_symop_operation_xyz
x,y,z
x-y,x,1/6+z
-y,x-y,1/3+z
-x,-y,1/2+z
-x+y,-x,2/3+z
y,-x+y,5/6+z
loop_
_atom_site_type_symbol
_atom_site_label
_atom_site_fract_x
_atom_site_fract_y
_atom_site_fract_z
Si Si1 0.739694 0.268739 0.989290
Si Si2 0.264115 0.810279 0.789108
Si Si3 0.051762 0.657383 0.699878
Si Si4 0.404025 0.242328 0.434941
Si Si5 0.940781 0.628774 0.223336
Si Si6 0.969689 0.466856 0.528846
Si Si7 0.696094 0.259578 0.115100
O O1 0.612371 0.296004 0.969932
O O2 0.747658 0.167283 0.942353
O O3 0.891920 0.409297 0.997352
O O4 0.695496 0.203700 0.052314
O O5 0.115143 0.743902 0.756973
O O6 0.275227 0.902947 0.842999
O O7 0.384325 0.914605 0.744945
O O8 0.037521 0.504905 0.710234
O O9 0.175042 0.731289 0.652441
O O10 0.348301 0.229334 0.498447
O O11 0.380135 0.351407 0.396758
O O12 0.576407 0.312493 0.440421
O O13 0.334209 0.091542 0.406061
O O14 0.840625 0.395795 0.484297
#
# Coordination Sequence:
#
# PCOD9579783 Si02
#       7
#     6   6   6   6   6   6   6
#     4  10  20  31  53  79 114 135 180 226 267 332
#     4  10  17  31  51  77 110 139 174 216 278 315
#     4   9  16  30  49  74 109 138 173 217 268 323
#     4  10  20  36  54  80 115 138 180 226 281 326
#     4  10  20  33  51  82 110 143 174 226 277 317
#     4  10  19  32  53  76 108 141 175 219 272 322
#     4   9  18  31  49  80 106 138 178 216 269 323
#
# _framework density 17.283629000000001
#
# number of rings (size 3 to 8) (size 9 to 14) (size 15 to 20)
#    0.000    2.286    4.286    2.571    2.000    0.000 
#    0.000    0.000    0.000    0.000    0.000   38.000 
#    0.000    0.000    0.000    0.000    0.000    0.000 
#
# Total GULP energy -233919.357811 kJ/mol
# GULP energy per Si atom -5569.508519 kJ/mol
# Density = 1.724429 g / cm^3
# Si number density = 17.283629 Si / 1000 Ang^3
#
#
#
# Elastic Constant Matrix: (Units=GPa)
#
#
# Indices 1 2 3 4 5 6 
#
# 1 47.4225 20.5482 22.7001 0.0000 0.0000 0.0000
# 2 20.5482 47.4225 22.7001 0.0000 0.0000 0.0000
# 3 22.7001 22.7001 90.2939 0.0000 0.0000 0.0000
# 4 0.0000 0.0000 0.0000 27.0206 0.0000 0.0000
# 5 0.0000 0.0000 0.0000 0.0000 27.0206 0.0000
# 6 0.0000 0.0000 0.0000 0.0000 0.0000 13.4372
#
#
#
# Elastic Compliance Matrix: (Units=1/GPa)
#
#
# Indices 1 2 3 4 5 6 
#
# 1 0.027446 -0.009764 -0.004445 0.000000 0.000000 0.000000
# 2 -0.009764 0.027446 -0.004445 0.000000 0.000000 0.000000
# 3 -0.004445 -0.004445 0.013310 0.000000 0.000000 0.000000
# 4 0.000000 0.000000 0.000000 0.037009 0.000000 0.000000
# 5 0.000000 0.000000 0.000000 0.000000 0.037009 0.000000
# 6 0.000000 0.000000 0.000000 0.000000 0.000000 0.074420
#
#
# Mechanical properties :
#
#
# Convention : Reuss Voigt Hill
#
# Bulk Modulus (GPa) = 32.37078 35.22621 33.79850
# Shear Modulus (GPa) = 18.92175 21.44171 20.18173
#
# Velocity S-wave (km/s) = 3.31233 3.52601 3.42084
# Velocity P-wave (km/s) = 5.77915 6.08297 5.93300
#
# Compressibility (1/GPa) = 0.03089206
#
# Stress axis : x y z
#
# Youngs Moduli (GPa) = 36.43553 36.43553 75.13162
#
# Poissons Ratio (x) = 0.35577 0.33397
# Poissons Ratio (y) = 0.35577 0.33397
# Poissons Ratio (z) = 0.16196 0.16196
#
# Static dielectric constant tensor:
#      x y z
#    x 1.584970 0.000000 0.000000 
#    y 0.000000 1.584970 0.000000 
#    z 0.000000 0.000000 1.627560 
# 
# From -- ./inp_files/1644.got.cif
#   From: 2010.05.17/outbox.cif.g08.bks.cpg/sg169_cif.got.tgz:1644.got - 2010.05.20 11:12:54.
