data_PCOD9579981
_publ_section_title
;
Structure prediction by ZEFSAII (Michael W. Deem and Ramdas Pophale) SiO2 
 PCOD9579981
Probable space group: P 61
;
_chemical_formula_sum "Si O2"
_cell_formula_units_Z 42
_cell_length_a 21.161221
_cell_length_b 21.161221
_cell_length_c 5.685736
_cell_angle_alpha 90.000000
_cell_angle_beta 90.000000
_cell_angle_gamma 120.000000
_cell_volume 2204.950113
_symmetry_space_group_name_H-M "P 61"
_symmetry_group_IT_number 169
_symmetry_cell_setting 'hexagonal'
loop_
_space_group_symop_operation_xyz
x,y,z
x-y,x,1/6+z
-y,x-y,1/3+z
-x,-y,1/2+z
-x+y,-x,2/3+z
y,-x+y,5/6+z
loop_
_atom_site_type_symbol
_atom_site_label
_atom_site_fract_x
_atom_site_fract_y
_atom_site_fract_z
Si Si1 0.755282 0.759053 0.176740
Si Si2 0.888239 0.634105 0.035863
Si Si3 0.847677 0.974238 0.643338
Si Si4 0.243649 0.388446 0.803057
Si Si5 0.948892 0.404510 0.837120
Si Si6 0.441704 0.406405 0.168832
Si Si7 0.706775 0.854268 0.485753
O O1 0.767025 0.691948 0.242489
O O2 0.728898 0.802362 0.345620
O O3 0.685354 0.722689 0.005325
O O4 0.827012 0.820948 0.048196
O O5 0.816286 0.594269 0.194458
O O6 0.905162 0.583672 0.870050
O O7 0.872953 0.692643 0.907368
O O8 0.868890 0.913044 0.693311
O O9 0.774706 0.935484 0.485624
O O10 0.324478 0.443926 0.718781
O O11 0.217564 0.368960 0.073529
O O12 0.933235 0.471589 0.845519
O O13 0.983877 0.412487 0.573690
O O14 0.998217 0.415681 0.075495
#
# Coordination Sequence:
#
# PCOD9579981 Si02
#       7
#     6   6   6   6   6   6   6
#     4  11  21  39  54  77 112 146 204 257 313 365
#     4  11  22  37  60  86 121 154 203 251 310 367
#     4  12  24  38  50  70 104 151 208 264 321 376
#     4  11  22  34  61  90 118 157 198 252 308 367
#     4  10  22  39  64  92 127 160 199 246 304 368
#     4  10  22  40  62  94 126 161 195 249 306 365
#     4  11  23  37  57  81 110 155 199 267 312 370
#
# _framework density 19.04805
#
# number of rings (size 3 to 8) (size 9 to 14) (size 15 to 20)
#    0.000    1.143    4.286    2.571    6.000    1.143 
#    0.000    0.000    0.000    0.000    3.714    0.000 
#    0.000    0.000    0.000    0.000    0.000    0.000 
#
# Total GULP energy -233836.749316 kJ/mol
# GULP energy per Si atom -5567.541650 kJ/mol
# Density = 1.900470 g / cm^3
# Si number density = 19.048050 Si / 1000 Ang^3
#
#
#
# Elastic Constant Matrix: (Units=GPa)
#
#
# Indices 1 2 3 4 5 6 
#
# 1 51.0614 7.0723 -0.4728 0.0000 0.0000 0.0000
# 2 7.0723 51.0614 -0.4728 0.0000 0.0000 0.0000
# 3 -0.4728 -0.4728 47.5268 0.0000 0.0000 0.0000
# 4 0.0000 0.0000 0.0000 15.6473 0.0000 0.0000
# 5 0.0000 0.0000 0.0000 0.0000 15.6473 0.0000
# 6 0.0000 0.0000 0.0000 0.0000 0.0000 21.9946
#
#
#
# Elastic Compliance Matrix: (Units=1/GPa)
#
#
# Indices 1 2 3 4 5 6 
#
# 1 0.019969 -0.002764 0.000171 0.000000 0.000000 0.000000
# 2 -0.002764 0.019969 0.000171 0.000000 0.000000 0.000000
# 3 0.000171 0.000171 0.021044 0.000000 0.000000 0.000000
# 4 0.000000 0.000000 0.000000 0.063909 0.000000 0.000000
# 5 0.000000 0.000000 0.000000 0.000000 0.063909 0.000000
# 6 0.000000 0.000000 0.000000 0.000000 0.000000 0.045466
#
#
# Mechanical properties :
#
#
# Convention : Reuss Voigt Hill
#
# Bulk Modulus (GPa) = 17.81330 17.98921 17.90125
# Shear Modulus (GPa) = 19.39326 20.22603 19.80964
#
# Velocity S-wave (km/s) = 3.19427 3.26213 3.22837
# Velocity P-wave (km/s) = 4.79338 4.86346 4.82855
#
# Compressibility (1/GPa) = 0.05613784
#
# Stress axis : x y z
#
# Youngs Moduli (GPa) = 50.07840 50.07840 47.51910
#
# Poissons Ratio (x) = 0.13843 -0.00813
# Poissons Ratio (y) = 0.13843 -0.00813
# Poissons Ratio (z) = -0.00857 -0.00857
#
# Static dielectric constant tensor:
#      x y z
#    x 1.672180 0.000000 0.000000 
#    y 0.000000 1.672180 0.000000 
#    z 0.000000 0.000000 1.806610 
# 
# From -- ./inp_files/277.got.cif
#   From: 2010.05.17/outbox.cif.g08.bks.cpg/sg169_cif.got.tgz:277.got - 2010.05.20 11:12:54.
