data_PCOD9579397
_publ_section_title
;
Structure prediction by ZEFSAII (Michael W. Deem and Ramdas Pophale) SiO2 
 PCOD9579397
Probable space group: R -3 C 
;
_chemical_formula_sum "Si O2"
_cell_formula_units_Z 108
_cell_length_a 18.799391
_cell_length_b 18.799391
_cell_length_c 17.134163
_cell_angle_alpha 90.000000
_cell_angle_beta 90.000000
_cell_angle_gamma 120.000000
_cell_volume 5244.222230
_symmetry_space_group_name_H-M "R -3 C "
_symmetry_group_IT_number 167
_symmetry_cell_setting 'hexagonal'
loop_
_space_group_symop_operation_xyz
x,y,z
-y,x-y,z
-x+y,-x,z
x-y,-y,1/2-z
-x,-x+y,1/2-z
y,x,1/2-z
-x,-y,-z
y,-x+y,-z
x-y,x,-z
-x+y,y,1/2+z
x,x-y,1/2+z
-y,-x,1/2+z
2/3+x,1/3+y,1/3+z
2/3-y,1/3+x-y,1/3+z
2/3-x+y,1/3-x,1/3+z
2/3+x-y,1/3-y,5/6-z
2/3-x,1/3-x+y,5/6-z
2/3+y,1/3+x,5/6-z
2/3-x,1/3-y,1/3-z
2/3+y,1/3-x+y,1/3-z
2/3+x-y,1/3+x,1/3-z
2/3-x+y,1/3+y,5/6+z
2/3+x,1/3+x-y,5/6+z
2/3-y,1/3-x,5/6+z
1/3+x,2/3+y,2/3+z
1/3-y,2/3+x-y,2/3+z
1/3-x+y,2/3-x,2/3+z
1/3+x-y,2/3-y,1/6-z
1/3-x,2/3-x+y,1/6-z
1/3+y,2/3+x,1/6-z
1/3-x,2/3-y,2/3-z
1/3+y,2/3-x+y,2/3-z
1/3+x-y,2/3+x,2/3-z
1/3-x+y,2/3+y,1/6+z
1/3+x,2/3+x-y,1/6+z
1/3-y,2/3-x,1/6+z
loop_
_atom_site_type_symbol
_atom_site_label
_atom_site_fract_x
_atom_site_fract_y
_atom_site_fract_z
Si Si1 0.888506 0.488779 0.021431
Si Si2 0.339445 0.926674 0.130252
Si Si3 0.229728 0.970757 0.865063
O O1 0.829598 0.496265 0.083334
O O2 0.980779 0.561444 0.043536
O O3 0.885991 0.515461 0.932483
O O4 0.882601 0.401535 0.018077
O O5 0.322675 0.883264 0.213354
O O6 0.267871 0.934537 0.083334
O O7 0.399544 0.022460 0.157404
#
# Coordination Sequence:
#
# PCOD9579397 Si02
#       3
#    36  36  36
#     4  10  17  29  48  66  98 136 170 204 245 301
#     4   9  15  31  43  65 102 132 166 197 258 304
#     4   9  17  29  44  64  97 139 161 205 244 302
#
# _framework density 20.594093999999998
#
# number of rings (size 3 to 8) (size 9 to 14) (size 15 to 20)
#    0.000    2.667    6.667    0.000    0.000    0.000 
#    6.000    3.333    0.000    0.000    0.000    0.000 
#    0.000    0.000   79.333   80.000    0.000    0.000 
#
# Total GULP energy -200403.538223 kJ/mol
# GULP energy per Si atom -5566.764951 kJ/mol
# Density = 2.054722 g / cm^3
# Si number density = 20.594094 Si / 1000 Ang^3
#
#
#
# Elastic Constant Matrix: (Units=GPa)
#
#
# Indices 1 2 3 4 5 6 
#
# 1 50.9965 27.3659 42.4965 14.2530 0.0001 0.0000
# 2 27.3659 50.9965 42.4965 -14.2530 -0.0001 0.0000
# 3 42.4965 42.4965 162.7387 0.0000 0.0000 0.0000
# 4 14.2530 -14.2530 0.0000 23.4769 0.0000 -0.0001
# 5 0.0001 -0.0001 0.0000 0.0000 23.4769 14.2530
# 6 0.0000 0.0000 0.0000 -0.0001 14.2530 11.8153
#
#
#
# Elastic Compliance Matrix: (Units=1/GPa)
#
#
# Indices 1 2 3 4 5 6 
#
# 1 0.087963 -0.070159 -0.004649 -0.095997 0.000000 0.000000
# 2 -0.070159 0.087963 -0.004649 0.095997 0.000000 0.000000
# 3 -0.004649 -0.004649 0.008573 0.000000 0.000000 0.000000
# 4 -0.095997 0.095997 0.000000 0.159157 0.000000 0.000001
# 5 0.000000 0.000000 0.000000 0.000000 0.159157 -0.191994
# 6 0.000000 0.000000 0.000000 0.000001 -0.191994 0.316243
#
#
# Mechanical properties :
#
#
# Convention : Reuss Voigt Hill
#
# Bulk Modulus (GPa) = 39.08722 54.38328 46.73525
# Shear Modulus (GPa) = 5.06844 21.91199 13.49021
#
# Velocity S-wave (km/s) = 1.57050 3.26543 2.56218
# Velocity P-wave (km/s) = 4.72331 6.37824 5.61211
#
# Compressibility (1/GPa) = 0.02558381
#
# Stress axis : x y z
#
# Youngs Moduli (GPa) = 11.36847 11.36847 116.64645
#
# Poissons Ratio (x) = 0.79760 0.54231
# Poissons Ratio (y) = 0.79760 0.54231
# Poissons Ratio (z) = 0.05285 0.05285
#
# Static dielectric constant tensor:
#      x y z
#    x 1.771030 0.000000 0.000000 
#    y 0.000000 1.771030 0.000000 
#    z 0.000000 0.000000 1.811320 
# 
# From -- ./inp_files/3152.got.cif
#   From: 2010.05.17/outbox.cif.g08.bks.cpg/sg167_2_cif.got.tgz:3152.got - 2010.05.20 11:09:15.
