data_PCOD9579731
_publ_section_title
;
Structure prediction by ZEFSAII (Michael W. Deem and Ramdas Pophale) SiO2 
 PCOD9579731
Probable space group: R -3 C 
;
_chemical_formula_sum "Si O2"
_cell_formula_units_Z 90
_cell_length_a 23.323628
_cell_length_b 23.323628
_cell_length_c 7.535886
_cell_angle_alpha 90.000000
_cell_angle_beta 90.000000
_cell_angle_gamma 120.000000
_cell_volume 3550.235512
_symmetry_space_group_name_H-M "R -3 C "
_symmetry_group_IT_number 167
_symmetry_cell_setting 'hexagonal'
loop_
_space_group_symop_operation_xyz
x,y,z
-y,x-y,z
-x+y,-x,z
x-y,-y,1/2-z
-x,-x+y,1/2-z
y,x,1/2-z
-x,-y,-z
y,-x+y,-z
x-y,x,-z
-x+y,y,1/2+z
x,x-y,1/2+z
-y,-x,1/2+z
2/3+x,1/3+y,1/3+z
2/3-y,1/3+x-y,1/3+z
2/3-x+y,1/3-x,1/3+z
2/3+x-y,1/3-y,5/6-z
2/3-x,1/3-x+y,5/6-z
2/3+y,1/3+x,5/6-z
2/3-x,1/3-y,1/3-z
2/3+y,1/3-x+y,1/3-z
2/3+x-y,1/3+x,1/3-z
2/3-x+y,1/3+y,5/6+z
2/3+x,1/3+x-y,5/6+z
2/3-y,1/3-x,5/6+z
1/3+x,2/3+y,2/3+z
1/3-y,2/3+x-y,2/3+z
1/3-x+y,2/3-x,2/3+z
1/3+x-y,2/3-y,1/6-z
1/3-x,2/3-x+y,1/6-z
1/3+y,2/3+x,1/6-z
1/3-x,2/3-y,2/3-z
1/3+y,2/3-x+y,2/3-z
1/3+x-y,2/3+x,2/3-z
1/3-x+y,2/3+y,1/6+z
1/3+x,2/3+x-y,1/6+z
1/3-y,2/3-x,1/6+z
loop_
_atom_site_type_symbol
_atom_site_label
_atom_site_fract_x
_atom_site_fract_y
_atom_site_fract_z
Si Si1 0.211248 0.932778 0.453761
Si Si2 0.666667 0.790260 0.083334
Si Si3 0.662540 0.464588 0.376130
O O1 0.264969 0.931636 0.583334
O O2 0.226182 0.926758 0.246593
O O3 0.144328 0.861195 0.492217
O O4 0.190474 0.984827 0.522777
O O5 0.666667 0.475646 0.583334
O O6 0.727033 0.462793 0.319119
#
# Coordination Sequence:
#
# PCOD9579731 Si02
#       3
#    36  18  36
#     4   9  18  38  68  98 126 177 249 325 382 435
#     4   8  16  32  66  98 112 152 238 314 384 444
#     4  12  26  44  67 107 157 219 267 313 379 467
#
# _framework density 25.350428999999998
#
# number of rings (size 3 to 8) (size 9 to 14) (size 15 to 20)
#    1.200    0.800    0.000    4.000    0.000    0.000 
#    7.200    0.000    0.000    0.000   36.400    0.000 
#    0.000    0.000    0.000    0.000    0.000    0.000 
#
# Total GULP energy -167619.619724 kJ/mol
# GULP energy per Si atom -5587.320657 kJ/mol
# Density = 2.529273 g / cm^3
# Si number density = 25.350429 Si / 1000 Ang^3
#
#
#
# Elastic Constant Matrix: (Units=GPa)
#
#
# Indices 1 2 3 4 5 6 
#
# 1 98.1721 54.0520 32.1002 -19.8423 0.0443 0.0134
# 2 54.0520 98.1561 32.0499 19.8352 -0.0222 0.0025
# 3 32.1002 32.0499 122.8387 0.0092 -0.0638 -0.0662
# 4 -19.8423 19.8352 0.0092 16.4351 0.0141 0.0144
# 5 0.0443 -0.0222 -0.0638 0.0141 16.4032 -19.8840
# 6 0.0134 0.0025 -0.0662 0.0144 -19.8840 21.9943
#
#
#
# Elastic Compliance Matrix: (Units=1/GPa)
#
#
# Indices 1 2 3 4 5 6 
#
# 1 -0.128755 0.136108 -0.001853 -0.319692 -0.011729 -0.010335
# 2 0.136108 -0.128696 -0.002001 0.319626 0.012200 0.010745
# 3 -0.001853 -0.002001 0.009146 0.000174 -0.000757 -0.000655
# 4 -0.319692 0.319626 0.000174 -0.710826 -0.027831 -0.024534
# 5 -0.011729 0.012200 -0.000757 -0.027831 -0.636768 -0.575649
# 6 -0.010335 0.010745 -0.000655 -0.024534 -0.575649 -0.474931
#
#
# Mechanical properties :
#
#
# Convention : Reuss Voigt Hill
#
# Bulk Modulus (GPa) = 61.72468 61.73013 61.72740
# Shear Modulus (GPa) = -2.14598 24.36418 11.10910
#
# Velocity S-wave (km/s) = -0.92107 3.10352 2.09564
# Velocity P-wave (km/s) = 4.82393 6.10295 5.50074
#
# Compressibility (1/GPa) = 0.01620098
#
# Stress axis : x y z
#
# Youngs Moduli (GPa) = -7.76667 -7.77023 109.33219
#
# Poissons Ratio (x) = 1.05759 0.20264
# Poissons Ratio (y) = 1.05710 0.21879
# Poissons Ratio (z) = -0.01439 -0.01555
#
# Static dielectric constant tensor:
#      x y z
#    x 2.013950 0.000020 -0.000020 
#    y 0.000020 2.013860 0.000000 
#    z -0.000020 0.000000 1.954270 
# 
# From -- ./inp_files/550.got.cif
#   From: 2010.05.17/outbox.cif.g08.bks.cpg/sg167_1_cif.got.tgz:550.got - 2010.05.20 11:09:15.
