data_PCOD9579292
_publ_section_title
;
Structure prediction by ZEFSAII (Michael W. Deem and Ramdas Pophale) SiO2 
 PCOD9579292
Probable space group: R -3 M
;
_chemical_formula_sum "Si O2"
_cell_formula_units_Z 132
_cell_length_a 28.643173
_cell_length_b 28.643173
_cell_length_c 9.675752
_cell_angle_alpha 90.000000
_cell_angle_beta 90.000000
_cell_angle_gamma 120.000000
_cell_volume 6874.761121
_symmetry_space_group_name_H-M "R -3 M"
_symmetry_group_IT_number 166
_symmetry_cell_setting 'hexagonal'
loop_
_space_group_symop_operation_xyz
x,y,z
-y,x-y,z
-x+y,-x,z
x-y,-y,-z
-x,-x+y,-z
y,x,-z
-x,-y,-z
y,-x+y,-z
x-y,x,-z
-x+y,y,z
x,x-y,z
-y,-x,z
2/3+x,1/3+y,1/3+z
2/3-y,1/3+x-y,1/3+z
2/3-x+y,1/3-x,1/3+z
2/3+x-y,1/3-y,1/3-z
2/3-x,1/3-x+y,1/3-z
2/3+y,1/3+x,1/3-z
2/3-x,1/3-y,1/3-z
2/3+y,1/3-x+y,1/3-z
2/3+x-y,1/3+x,1/3-z
2/3-x+y,1/3+y,1/3+z
2/3+x,1/3+x-y,1/3+z
2/3-y,1/3-x,1/3+z
1/3+x,2/3+y,2/3+z
1/3-y,2/3+x-y,2/3+z
1/3-x+y,2/3-x,2/3+z
1/3+x-y,2/3-y,2/3-z
1/3-x,2/3-x+y,2/3-z
1/3+y,2/3+x,2/3-z
1/3-x,2/3-y,2/3-z
1/3+y,2/3-x+y,2/3-z
1/3+x-y,2/3+x,2/3-z
1/3-x+y,2/3+y,2/3+z
1/3+x,2/3+x-y,2/3+z
1/3-y,2/3-x,2/3+z
loop_
_atom_site_type_symbol
_atom_site_label
_atom_site_fract_x
_atom_site_fract_y
_atom_site_fract_z
Si Si1 0.890883 0.445442 0.828988
Si Si2 0.269835 0.040943 0.627723
Si Si3 0.394877 0.197439 0.145435
Si Si4 0.871354 0.935677 0.688781
Si Si5 0.666667 0.333334 0.669846
Si Si6 0.862510 0.509437 0.484610
O O1 0.912423 0.410972 0.905984
O O2 0.919529 0.459765 0.679680
O O3 0.826413 0.413207 0.794296
O O4 0.333334 0.074519 0.666667
O O5 0.259923 0.000000 0.500000
O O6 0.230589 0.011821 0.758976
O O7 0.333334 0.166667 0.166667
O O8 0.419918 0.255501 0.210695
O O9 0.935990 0.967995 0.700284
O O10 0.846436 0.969551 0.762044
O O11 0.666668 0.333335 0.833334
O O12 0.839928 0.506595 0.333334
#
# Coordination Sequence:
#
# PCOD9579292 Si02
#       6
#    18  36  18  18   6  36
#     4  10  23  46  66  95 133 183 224 272 339 415
#     4  12  25  43  68 100 135 176 228 290 340 403
#     4  10  22  39  67  89 137 175 223 275 346 402
#     4  10  24  47  67 102 150 171 231 285 347 412
#     4  12  30  36  76 125 127 186 229 287 352 399
#     4  10  24  44  68  96 136 186 223 281 351 403
#
# _framework density 19.200668
#
# number of rings (size 3 to 8) (size 9 to 14) (size 15 to 20)
#    0.000    1.636    5.455    0.409    7.636    6.545 
#    0.000    0.682    0.000    0.000    0.000    0.000 
#    0.000    0.000    0.000    0.000    0.000    0.000 
#
# Total GULP energy -245191.378515 kJ/mol
# GULP energy per Si atom -5572.531330 kJ/mol
# Density = 1.915697 g / cm^3
# Si number density = 19.200668 Si / 1000 Ang^3
#
#
#
# Elastic Constant Matrix: (Units=GPa)
#
#
# Indices 1 2 3 4 5 6 
#
# 1 142.2807 89.1170 41.3868 -2.5028 -0.0112 0.0012
# 2 89.1170 142.2678 41.3825 2.5179 -0.0102 0.0073
# 3 41.3868 41.3825 80.7646 0.0244 -0.1129 0.0289
# 4 -2.5028 2.5179 0.0244 16.2325 0.0213 -0.0045
# 5 -0.0112 -0.0102 -0.1129 0.0213 16.1496 -2.4862
# 6 0.0012 0.0073 0.0289 -0.0045 -2.4862 26.5743
#
#
#
# Elastic Compliance Matrix: (Units=1/GPa)
#
#
# Indices 1 2 3 4 5 6 
#
# 1 0.012191 -0.006900 -0.002713 0.002954 -0.000018 0.000003
# 2 -0.006900 0.012192 -0.002710 -0.002951 -0.000012 -0.000002
# 3 -0.002713 -0.002710 0.015161 -0.000021 0.000101 -0.000006
# 4 0.002954 -0.002951 -0.000021 0.062518 -0.000082 0.000004
# 5 -0.000018 -0.000012 0.000101 -0.000082 0.062827 0.005878
# 6 0.000003 -0.000002 -0.000006 0.000004 0.005878 0.038180
#
#
# Mechanical properties :
#
#
# Convention : Reuss Voigt Hill
#
# Bulk Modulus (GPa) = 67.12387 78.78728 72.95558
# Shear Modulus (GPa) = 21.48879 24.68642 23.08760
#
# Velocity S-wave (km/s) = 3.34903 3.58956 3.47138
# Velocity P-wave (km/s) = 7.07034 7.63562 7.35841
#
# Compressibility (1/GPa) = 0.01489783
#
# Stress axis : x y z
#
# Youngs Moduli (GPa) = 82.02769 82.02407 65.96047
#
# Poissons Ratio (x) = 0.56594 0.17893
# Poissons Ratio (y) = 0.56597 0.17877
# Poissons Ratio (z) = 0.22252 0.22230
#
# Static dielectric constant tensor:
#      x y z
#    x 1.703020 0.000010 -0.000070 
#    y 0.000010 1.703020 0.000060 
#    z -0.000070 0.000060 1.234290 
# 
# From -- ./inp_files/1901.got.cif
#   From: 2010.05.17/outbox.cif.g08.bks.cpg/sg166_1_cif.got.tgz:1901.got - 2010.05.20 11:04:41.
