data_PCOD9579501
_publ_section_title
;
Structure prediction by ZEFSAII (Michael W. Deem and Ramdas Pophale) SiO2 
 PCOD9579501
Probable space group: R -3 C 
;
_chemical_formula_sum "Si O2"
_cell_formula_units_Z 126
_cell_length_a 27.062796
_cell_length_b 27.062796
_cell_length_c 8.927608
_cell_angle_alpha 90.000000
_cell_angle_beta 90.000000
_cell_angle_gamma 120.000000
_cell_volume 5662.537251
_symmetry_space_group_name_H-M "R -3 C "
_symmetry_group_IT_number 167
_symmetry_cell_setting 'hexagonal'
loop_
_space_group_symop_operation_xyz
x,y,z
-y,x-y,z
-x+y,-x,z
x-y,-y,1/2-z
-x,-x+y,1/2-z
y,x,1/2-z
-x,-y,-z
y,-x+y,-z
x-y,x,-z
-x+y,y,1/2+z
x,x-y,1/2+z
-y,-x,1/2+z
2/3+x,1/3+y,1/3+z
2/3-y,1/3+x-y,1/3+z
2/3-x+y,1/3-x,1/3+z
2/3+x-y,1/3-y,5/6-z
2/3-x,1/3-x+y,5/6-z
2/3+y,1/3+x,5/6-z
2/3-x,1/3-y,1/3-z
2/3+y,1/3-x+y,1/3-z
2/3+x-y,1/3+x,1/3-z
2/3-x+y,1/3+y,5/6+z
2/3+x,1/3+x-y,5/6+z
2/3-y,1/3-x,5/6+z
1/3+x,2/3+y,2/3+z
1/3-y,2/3+x-y,2/3+z
1/3-x+y,2/3-x,2/3+z
1/3+x-y,2/3-y,1/6-z
1/3-x,2/3-x+y,1/6-z
1/3+y,2/3+x,1/6-z
1/3-x,2/3-y,2/3-z
1/3+y,2/3-x+y,2/3-z
1/3+x-y,2/3+x,2/3-z
1/3-x+y,2/3+y,1/6+z
1/3+x,2/3+x-y,1/6+z
1/3-y,2/3-x,1/6+z
loop_
_atom_site_type_symbol
_atom_site_label
_atom_site_fract_x
_atom_site_fract_y
_atom_site_fract_z
Si Si1 0.853575 0.347930 0.426610
Si Si2 0.481747 0.055461 0.186527
Si Si3 0.000000 0.307396 0.750000
Si Si4 0.220441 0.726149 0.827571
O O1 0.870353 0.333334 0.583334
O O2 0.907468 0.388104 0.325967
O O3 0.813111 0.293533 0.327920
O O4 0.818671 0.381032 0.461514
O O5 0.422637 0.034233 0.097070
O O6 0.481425 0.000000 0.250000
O O7 0.531165 0.101922 0.083794
O O8 0.999267 0.333334 0.583334
O O9 0.201047 0.666667 0.916667
#
# Coordination Sequence:
#
# PCOD9579501 Si02
#       4
#    36  36  18  36
#     4  11  21  38  66  89 118 167 208 259 332 389
#     4  10  21  39  57  86 128 157 212 259 304 379
#     4  10  20  38  62  88 128 172 212 268 318 380
#     4  10  21  41  61  89 123 158 209 263 319 400
#
# _framework density 22.251508999999999
#
# number of rings (size 3 to 8) (size 9 to 14) (size 15 to 20)
#    0.000    1.714    4.286    3.429    0.000    5.714 
#    0.000    0.000    0.000   11.429    0.000    0.000 
#    0.000    0.000    0.000    0.000    0.000    0.000 
#
# Total GULP energy -234365.006365 kJ/mol
# GULP energy per Si atom -5580.119199 kJ/mol
# Density = 2.220086 g / cm^3
# Si number density = 22.251509 Si / 1000 Ang^3
#
#
#
# Elastic Constant Matrix: (Units=GPa)
#
#
# Indices 1 2 3 4 5 6 
#
# 1 44.3437 31.2874 29.9168 10.5143 0.0278 -0.0144
# 2 31.2874 44.2984 29.9053 -10.5315 0.0103 0.0088
# 3 29.9168 29.9053 174.9303 -0.0303 0.1180 0.0010
# 4 10.5143 -10.5315 -0.0303 26.4469 -0.0269 0.0049
# 5 0.0278 0.0103 0.1180 -0.0269 26.4941 10.5422
# 6 -0.0144 0.0088 0.0010 0.0049 10.5422 6.5145
#
#
#
# Elastic Compliance Matrix: (Units=1/GPa)
#
#
# Indices 1 2 3 4 5 6 
#
# 1 0.114880 -0.099661 -0.002623 -0.085362 -0.000948 0.001987
# 2 -0.099661 0.115033 -0.002607 0.085427 0.000936 -0.001955
# 3 -0.002623 -0.002607 0.006611 0.000012 -0.000068 0.000107
# 4 -0.085362 0.085427 0.000012 0.105768 0.000889 -0.001823
# 5 -0.000948 0.000936 -0.000068 0.000889 0.106011 -0.171560
# 6 0.001987 -0.001955 0.000107 -0.001823 -0.171560 0.431145
#
#
# Mechanical properties :
#
#
# Convention : Reuss Voigt Hill
#
# Bulk Modulus (GPa) = 37.39659 49.53237 43.46448
# Shear Modulus (GPa) = 4.55313 23.38862 13.97088
#
# Velocity S-wave (km/s) = 1.43201 3.24559 2.50844
# Velocity P-wave (km/s) = 4.42459 6.02940 5.28823
#
# Compressibility (1/GPa) = 0.02674040
#
# Stress axis : x y z
#
# Youngs Moduli (GPa) = 8.70476 8.69314 151.26337
#
# Poissons Ratio (x) = 0.86637 0.39682
# Poissons Ratio (y) = 0.86753 0.39438
# Poissons Ratio (z) = 0.02284 0.02267
#
# Static dielectric constant tensor:
#      x y z
#    x 1.826960 0.000000 -0.000010 
#    y 0.000000 1.826970 -0.000010 
#    z -0.000010 -0.000010 1.874200 
# 
# From -- ./inp_files/642.got.cif
#   From: 2010.05.17/outbox.cif.g08.bks.cpg/sg167_1_cif.got.tgz:642.got - 2010.05.20 11:09:15.
