data_PCOD9579079
_publ_section_title
;
Structure prediction by ZEFSAII (Michael W. Deem and Ramdas Pophale) SiO2 
 PCOD9579079
Probable space group: R -3 M
;
_chemical_formula_sum "Si O2"
_cell_formula_units_Z 90
_cell_length_a 23.241645
_cell_length_b 23.241645
_cell_length_c 8.546712
_cell_angle_alpha 90.000000
_cell_angle_beta 90.000000
_cell_angle_gamma 120.000000
_cell_volume 3998.189996
_symmetry_space_group_name_H-M "R -3 M"
_symmetry_group_IT_number 166
_symmetry_cell_setting 'hexagonal'
loop_
_space_group_symop_operation_xyz
x,y,z
-y,x-y,z
-x+y,-x,z
x-y,-y,-z
-x,-x+y,-z
y,x,-z
-x,-y,-z
y,-x+y,-z
x-y,x,-z
-x+y,y,z
x,x-y,z
-y,-x,z
2/3+x,1/3+y,1/3+z
2/3-y,1/3+x-y,1/3+z
2/3-x+y,1/3-x,1/3+z
2/3+x-y,1/3-y,1/3-z
2/3-x,1/3-x+y,1/3-z
2/3+y,1/3+x,1/3-z
2/3-x,1/3-y,1/3-z
2/3+y,1/3-x+y,1/3-z
2/3+x-y,1/3+x,1/3-z
2/3-x+y,1/3+y,1/3+z
2/3+x,1/3+x-y,1/3+z
2/3-y,1/3-x,1/3+z
1/3+x,2/3+y,2/3+z
1/3-y,2/3+x-y,2/3+z
1/3-x+y,2/3-x,2/3+z
1/3+x-y,2/3-y,2/3-z
1/3-x,2/3-x+y,2/3-z
1/3+y,2/3+x,2/3-z
1/3-x,2/3-y,2/3-z
1/3+y,2/3-x+y,2/3-z
1/3+x-y,2/3+x,2/3-z
1/3-x+y,2/3+y,2/3+z
1/3+x,2/3+x-y,2/3+z
1/3-y,2/3-x,2/3+z
loop_
_atom_site_type_symbol
_atom_site_label
_atom_site_fract_x
_atom_site_fract_y
_atom_site_fract_z
Si Si1 0.666667 0.463339 0.833334
Si Si2 0.939230 0.185647 0.244066
Si Si3 0.268244 0.920262 0.503557
O O1 0.726989 0.453978 0.773691
O O2 0.636659 0.489768 0.702181
O O3 0.879133 0.120868 0.162167
O O4 0.906514 0.221613 0.346477
O O5 0.005322 0.243082 0.161217
O O6 0.305485 0.000000 0.500000
O O7 0.232683 0.899350 0.333334
#
# Coordination Sequence:
#
# PCOD9579079 Si02
#       3
#    18  36  36
#     4  10  19  30  44  66  93 122 156 190 232 282
#     4  10  19  30  48  70  94 129 162 194 243 287
#     4   9  16  30  44  66  95 122 155 197 235 282
#
# _framework density 22.510186000000001
#
# number of rings (size 3 to 8) (size 9 to 14) (size 15 to 20)
#    0.000    2.400    6.000    0.200    0.000    3.200 
#    0.000    0.000    0.000    0.000    0.000    0.000 
#    0.000    0.000    0.000    0.000    0.000  127.200 
#
# Total GULP energy -167317.566481 kJ/mol
# GULP energy per Si atom -5577.252216 kJ/mol
# Density = 2.245895 g / cm^3
# Si number density = 22.510186 Si / 1000 Ang^3
#
#
#
# Elastic Constant Matrix: (Units=GPa)
#
#
# Indices 1 2 3 4 5 6 
#
# 1 110.3316 73.7194 12.4575 6.2262 -0.0084 0.0022
# 2 73.7194 110.3412 12.4749 -6.2238 0.0042 0.0026
# 3 12.4575 12.4749 86.3953 0.0070 -0.0063 0.0104
# 4 6.2262 -6.2238 0.0070 15.5634 0.0042 0.0026
# 5 -0.0084 0.0042 -0.0063 0.0042 15.5566 6.2284
# 6 0.0022 0.0026 0.0104 0.0026 6.2284 18.3124
#
#
#
# Elastic Compliance Matrix: (Units=1/GPa)
#
#
# Indices 1 2 3 4 5 6 
#
# 1 0.018575 -0.013033 -0.000795 -0.012643 0.000018 -0.000004
# 2 -0.013033 0.018574 -0.000804 0.012642 -0.000017 0.000004
# 3 -0.000795 -0.000804 0.011805 -0.000009 0.000008 -0.000009
# 4 -0.012643 0.012642 -0.000009 0.074367 -0.000030 -0.000001
# 5 0.000018 -0.000017 0.000008 -0.000030 0.074415 -0.025310
# 6 -0.000004 0.000004 -0.000009 -0.000001 -0.025310 0.063216
#
#
# Mechanical properties :
#
#
# Convention : Reuss Voigt Hill
#
# Bulk Modulus (GPa) = 50.78724 56.04132 53.41428
# Shear Modulus (GPa) = 16.84743 23.78091 20.31417
#
# Velocity S-wave (km/s) = 2.73872 3.25384 3.00733
# Velocity P-wave (km/s) = 5.71066 6.25033 5.98658
#
# Compressibility (1/GPa) = 0.01968998
#
# Stress axis : x y z
#
# Youngs Moduli (GPa) = 53.83490 53.83738 84.70662
#
# Poissons Ratio (x) = 0.70169 0.06738
# Poissons Ratio (y) = 0.70165 0.06808
# Poissons Ratio (z) = 0.04282 0.04327
#
# Static dielectric constant tensor:
#      x y z
#    x 1.835780 0.000000 -0.000010 
#    y 0.000000 1.835790 0.000000 
#    z -0.000010 0.000000 2.015560 
# 
# From -- ./inp_files/3818.got.cif
#   From: 2010.05.17/outbox.cif.g08.bks.cpg/sg166_2_cif.got.tgz:3818.got - 2010.05.20 11:04:41.
