data_PCOD9579090
_publ_section_title
;
Structure prediction by ZEFSAII (Michael W. Deem and Ramdas Pophale) SiO2 
 PCOD9579090
Probable space group: R -3 M
;
_chemical_formula_sum "Si O2"
_cell_formula_units_Z 216
_cell_length_a 26.012059
_cell_length_b 26.012059
_cell_length_c 19.967362
_cell_angle_alpha 90.000000
_cell_angle_beta 90.000000
_cell_angle_gamma 120.000000
_cell_volume 11700.402018
_symmetry_space_group_name_H-M "R -3 M"
_symmetry_group_IT_number 166
_symmetry_cell_setting 'hexagonal'
loop_
_space_group_symop_operation_xyz
x,y,z
-y,x-y,z
-x+y,-x,z
x-y,-y,-z
-x,-x+y,-z
y,x,-z
-x,-y,-z
y,-x+y,-z
x-y,x,-z
-x+y,y,z
x,x-y,z
-y,-x,z
2/3+x,1/3+y,1/3+z
2/3-y,1/3+x-y,1/3+z
2/3-x+y,1/3-x,1/3+z
2/3+x-y,1/3-y,1/3-z
2/3-x,1/3-x+y,1/3-z
2/3+y,1/3+x,1/3-z
2/3-x,1/3-y,1/3-z
2/3+y,1/3-x+y,1/3-z
2/3+x-y,1/3+x,1/3-z
2/3-x+y,1/3+y,1/3+z
2/3+x,1/3+x-y,1/3+z
2/3-y,1/3-x,1/3+z
1/3+x,2/3+y,2/3+z
1/3-y,2/3+x-y,2/3+z
1/3-x+y,2/3-x,2/3+z
1/3+x-y,2/3-y,2/3-z
1/3-x,2/3-x+y,2/3-z
1/3+y,2/3+x,2/3-z
1/3-x,2/3-y,2/3-z
1/3+y,2/3-x+y,2/3-z
1/3+x-y,2/3+x,2/3-z
1/3-x+y,2/3+y,2/3+z
1/3+x,2/3+x-y,2/3+z
1/3-y,2/3-x,2/3+z
loop_
_atom_site_type_symbol
_atom_site_label
_atom_site_fract_x
_atom_site_fract_y
_atom_site_fract_z
Si Si1 0.484270 0.391991 0.528238
Si Si2 0.769607 0.661068 0.563512
Si Si3 0.548098 0.970868 0.603396
Si Si4 0.329575 0.877513 0.091689
Si Si5 0.201600 0.160436 0.711065
Si Si6 0.445024 0.434339 0.250772
O O1 0.547084 0.452917 0.530672
O O2 0.438904 0.404253 0.572345
O O3 0.462693 0.384241 0.451451
O O4 0.490171 0.340538 0.563852
O O5 0.839095 0.678189 0.561016
O O6 0.765237 0.719227 0.575411
O O7 0.738372 0.606703 0.614342
O O8 0.740958 0.637528 0.489958
O O9 0.486094 0.972187 0.605253
O O10 0.564223 0.965005 0.679349
O O11 0.333334 0.856390 0.166667
O O12 0.266210 0.872576 0.081197
O O13 0.345204 0.850119 0.028688
O O14 0.187511 0.093756 0.719537
O O15 0.512034 0.487967 0.251351
#
# Coordination Sequence:
#
# PCOD9579090 Si02
#       6
#    36  36  36  36  36  36
#     4   9  17  31  51  75  98 123 162 214 261 307
#     4   9  19  33  46  64  98 136 167 202 248 305
#     4   8  14  28  50  73  96 123 156 206 265 300
#     4  10  19  31  46  67  92 131 179 215 248 289
#     4  11  21  34  50  70 100 138 170 206 261 316
#     4   9  16  30  49  70  97 127 163 210 255 294
#
# _framework density 18.460903999999999
#
# number of rings (size 3 to 8) (size 9 to 14) (size 15 to 20)
#    0.000    2.667    1.667    2.000    0.000    2.000 
#    9.000    0.833    0.000    0.333    0.000    0.000 
#    0.000    0.667    0.000    0.000    0.000   19.667 
#
# Total GULP energy -401334.311236 kJ/mol
# GULP energy per Si atom -5574.087656 kJ/mol
# Density = 1.841889 g / cm^3
# Si number density = 18.460904 Si / 1000 Ang^3
#
#
#
# Elastic Constant Matrix: (Units=GPa)
#
#
# Indices 1 2 3 4 5 6 
#
# 1 28.7619 -10.7973 10.8787 5.1257 0.0000 0.0000
# 2 -10.7973 28.7619 10.8787 -5.1257 0.0000 0.0000
# 3 10.8787 10.8787 160.8715 0.0000 0.0000 0.0000
# 4 5.1257 -5.1257 0.0000 18.6947 0.0000 0.0000
# 5 0.0000 0.0000 0.0000 0.0000 18.6947 5.1257
# 6 0.0000 0.0000 0.0000 0.0000 5.1257 19.7796
#
#
#
# Elastic Compliance Matrix: (Units=1/GPa)
#
#
# Indices 1 2 3 4 5 6 
#
# 1 0.043921 0.016709 -0.004100 -0.007461 0.000000 0.000000
# 2 0.016709 0.043921 -0.004100 0.007461 0.000000 0.000000
# 3 -0.004100 -0.004100 0.006771 0.000000 0.000000 0.000000
# 4 -0.007461 0.007461 0.000000 0.057583 0.000000 0.000000
# 5 0.000000 0.000000 0.000000 0.000000 0.057583 -0.014922
# 6 0.000000 0.000000 0.000000 0.000000 -0.014922 0.054424
#
#
# Mechanical properties :
#
#
# Convention : Reuss Voigt Hill
#
# Bulk Modulus (GPa) = 8.95802 26.70174 17.82988
# Shear Modulus (GPa) = 17.58120 25.26281 21.42200
#
# Velocity S-wave (km/s) = 3.08936 3.70327 3.41016
# Velocity P-wave (km/s) = 4.19386 5.72546 5.01844
#
# Compressibility (1/GPa) = 0.11163186
#
# Stress axis : x y z
#
# Youngs Moduli (GPa) = 22.76796 22.76796 147.69597
#
# Poissons Ratio (x) = -0.38044 0.60556
# Poissons Ratio (y) = -0.38044 0.60556
# Poissons Ratio (z) = 0.09335 0.09335
#
# Static dielectric constant tensor:
#      x y z
#    x 1.632020 0.000000 0.000000 
#    y 0.000000 1.632020 0.000000 
#    z 0.000000 0.000000 1.714660 
# 
# From -- ./inp_files/7124.got.cif
#   From: 2010.05.17/outbox.cif.g08.bks.cpg/sg166_4_cif.got.tgz:7124.got - 2010.05.20 11:04:41.
