data_PCOD9579485
_publ_section_title
;
Structure prediction by ZEFSAII (Michael W. Deem and Ramdas Pophale) SiO2 
 PCOD9579485
Probable space group: R -3 C 
;
_chemical_formula_sum "Si O2"
_cell_formula_units_Z 216
_cell_length_a 25.635285
_cell_length_b 25.635285
_cell_length_c 20.784008
_cell_angle_alpha 90.000000
_cell_angle_beta 90.000000
_cell_angle_gamma 120.000000
_cell_volume 11828.678630
_symmetry_space_group_name_H-M "R -3 C "
_symmetry_group_IT_number 167
_symmetry_cell_setting 'hexagonal'
loop_
_space_group_symop_operation_xyz
x,y,z
-y,x-y,z
-x+y,-x,z
x-y,-y,1/2-z
-x,-x+y,1/2-z
y,x,1/2-z
-x,-y,-z
y,-x+y,-z
x-y,x,-z
-x+y,y,1/2+z
x,x-y,1/2+z
-y,-x,1/2+z
2/3+x,1/3+y,1/3+z
2/3-y,1/3+x-y,1/3+z
2/3-x+y,1/3-x,1/3+z
2/3+x-y,1/3-y,5/6-z
2/3-x,1/3-x+y,5/6-z
2/3+y,1/3+x,5/6-z
2/3-x,1/3-y,1/3-z
2/3+y,1/3-x+y,1/3-z
2/3+x-y,1/3+x,1/3-z
2/3-x+y,1/3+y,5/6+z
2/3+x,1/3+x-y,5/6+z
2/3-y,1/3-x,5/6+z
1/3+x,2/3+y,2/3+z
1/3-y,2/3+x-y,2/3+z
1/3-x+y,2/3-x,2/3+z
1/3+x-y,2/3-y,1/6-z
1/3-x,2/3-x+y,1/6-z
1/3+y,2/3+x,1/6-z
1/3-x,2/3-y,2/3-z
1/3+y,2/3-x+y,2/3-z
1/3+x-y,2/3+x,2/3-z
1/3-x+y,2/3+y,1/6+z
1/3+x,2/3+x-y,1/6+z
1/3-y,2/3-x,1/6+z
loop_
_atom_site_type_symbol
_atom_site_label
_atom_site_fract_x
_atom_site_fract_y
_atom_site_fract_z
Si Si1 0.063045 0.750042 0.287175
Si Si2 0.769952 0.467120 0.336655
Si Si3 0.449903 0.539250 0.740110
Si Si4 0.715420 0.645238 0.265964
Si Si5 0.155017 0.319637 0.691750
Si Si6 0.000050 0.227250 0.055271
O O1 0.054032 0.762243 0.360756
O O2 0.116567 0.809312 0.255231
O O3 0.085093 0.701376 0.270655
O O4 0.000000 0.724421 0.250000
O O5 0.779476 0.410970 0.350962
O O6 0.780232 0.510168 0.397351
O O7 0.822694 0.513189 0.288461
O O8 0.457348 0.507631 0.676035
O O9 0.445140 0.504531 0.804496
O O10 0.515099 0.598966 0.745118
O O11 0.686471 0.686471 0.250000
O O12 0.783141 0.679368 0.293591
O O13 0.675658 0.594138 0.318921
#
# Coordination Sequence:
#
# PCOD9579485 Si02
#       6
#    36  36  36  36  36  36
#     4  12  23  34  54  82 116 155 197 239 288 345
#     4  10  20  36  59  87 114 145 189 249 301 350
#     4   9  19  35  59  77 115 147 188 235 287 353
#     4  11  22  37  57  80 117 154 196 241 288 355
#     4  10  21  36  53  82 112 155 194 234 288 345
#     4  10  21  37  55  85 111 152 189 232 297 349
#
# _framework density 18.260704
#
# number of rings (size 3 to 8) (size 9 to 14) (size 15 to 20)
#    0.000    1.667    3.333    1.667    4.667    0.000 
#    0.000    0.000    0.000    0.000    0.000    0.000 
#    0.000    0.000    0.333    0.000    0.000    0.000 
#
# Total GULP energy -401107.446192 kJ/mol
# GULP energy per Si atom -5570.936753 kJ/mol
# Density = 1.821914 g / cm^3
# Si number density = 18.260704 Si / 1000 Ang^3
#
#
#
# Elastic Constant Matrix: (Units=GPa)
#
#
# Indices 1 2 3 4 5 6 
#
# 1 80.5970 37.2876 9.8369 2.8769 0.0000 0.0000
# 2 37.2876 80.5970 9.8369 -2.8769 0.0000 0.0000
# 3 9.8369 9.8369 71.8620 0.0000 0.0000 0.0000
# 4 2.8769 -2.8769 0.0000 18.5315 0.0000 0.0000
# 5 0.0000 0.0000 0.0000 0.0000 18.5315 2.8769
# 6 0.0000 0.0000 0.0000 0.0000 2.8769 21.6547
#
#
#
# Elastic Compliance Matrix: (Units=1/GPa)
#
#
# Indices 1 2 3 4 5 6 
#
# 1 0.016129 -0.007447 -0.001188 -0.003660 0.000000 0.000000
# 2 -0.007447 0.016129 -0.001188 0.003660 0.000000 0.000000
# 3 -0.001188 -0.001188 0.014241 0.000000 0.000000 0.000000
# 4 -0.003660 0.003660 0.000000 0.055099 0.000000 0.000000
# 5 0.000000 0.000000 0.000000 0.000000 0.055099 -0.007320
# 6 0.000000 0.000000 0.000000 0.000000 -0.007320 0.047152
#
#
# Mechanical properties :
#
#
# Convention : Reuss Voigt Hill
#
# Bulk Modulus (GPa) = 37.24401 38.55319 37.89860
# Shear Modulus (GPa) = 21.51043 23.48316 22.49680
#
# Velocity S-wave (km/s) = 3.43587 3.58997 3.51376
# Velocity P-wave (km/s) = 6.01500 6.19212 6.10420
#
# Compressibility (1/GPa) = 0.02684995
#
# Stress axis : x y z
#
# Youngs Moduli (GPa) = 62.00177 62.00177 70.22030
#
# Poissons Ratio (x) = 0.46175 0.08345
# Poissons Ratio (y) = 0.46175 0.08345
# Poissons Ratio (z) = 0.07368 0.07368
#
# Static dielectric constant tensor:
#      x y z
#    x 1.665280 0.000000 0.000000 
#    y 0.000000 1.665280 0.000000 
#    z 0.000000 0.000000 1.641920 
# 
# From -- ./inp_files/4641.got.cif
#   From: 2010.05.17/outbox.cif.g08.bks.cpg/sg167_3_cif.got.tgz:4641.got - 2010.05.20 11:09:15.
