data_PCOD9579584
_publ_section_title
;
Structure prediction by ZEFSAII (Michael W. Deem and Ramdas Pophale) SiO2 
 PCOD9579584
Probable space group: R -3 C 
;
_chemical_formula_sum "Si O2"
_cell_formula_units_Z 252
_cell_length_a 30.485116
_cell_length_b 30.485116
_cell_length_c 15.844671
_cell_angle_alpha 90.000000
_cell_angle_beta 90.000000
_cell_angle_gamma 120.000000
_cell_volume 12752.330549
_symmetry_space_group_name_H-M "R -3 C "
_symmetry_group_IT_number 167
_symmetry_cell_setting 'hexagonal'
loop_
_space_group_symop_operation_xyz
x,y,z
-y,x-y,z
-x+y,-x,z
x-y,-y,1/2-z
-x,-x+y,1/2-z
y,x,1/2-z
-x,-y,-z
y,-x+y,-z
x-y,x,-z
-x+y,y,1/2+z
x,x-y,1/2+z
-y,-x,1/2+z
2/3+x,1/3+y,1/3+z
2/3-y,1/3+x-y,1/3+z
2/3-x+y,1/3-x,1/3+z
2/3+x-y,1/3-y,5/6-z
2/3-x,1/3-x+y,5/6-z
2/3+y,1/3+x,5/6-z
2/3-x,1/3-y,1/3-z
2/3+y,1/3-x+y,1/3-z
2/3+x-y,1/3+x,1/3-z
2/3-x+y,1/3+y,5/6+z
2/3+x,1/3+x-y,5/6+z
2/3-y,1/3-x,5/6+z
1/3+x,2/3+y,2/3+z
1/3-y,2/3+x-y,2/3+z
1/3-x+y,2/3-x,2/3+z
1/3+x-y,2/3-y,1/6-z
1/3-x,2/3-x+y,1/6-z
1/3+y,2/3+x,1/6-z
1/3-x,2/3-y,2/3-z
1/3+y,2/3-x+y,2/3-z
1/3+x-y,2/3+x,2/3-z
1/3-x+y,2/3+y,1/6+z
1/3+x,2/3+x-y,1/6+z
1/3-y,2/3-x,1/6+z
loop_
_atom_site_type_symbol
_atom_site_label
_atom_site_fract_x
_atom_site_fract_y
_atom_site_fract_z
Si Si1 0.872461 0.391184 0.579127
Si Si2 0.164658 0.315882 0.737014
Si Si3 0.202969 0.056259 0.049408
Si Si4 0.398065 0.441156 0.190093
Si Si5 0.622839 0.978484 0.038311
Si Si6 0.910410 0.257884 0.787536
Si Si7 0.276795 0.476908 0.594016
O O1 0.860047 0.333334 0.583334
O O2 0.929043 0.434996 0.593367
O O3 0.862858 0.399878 0.481548
O O4 0.843070 0.394347 0.663021
O O5 0.166667 0.333334 0.833334
O O6 0.213919 0.353043 0.685184
O O7 0.117811 0.316346 0.692015
O O8 0.259352 0.060424 0.041652
O O9 0.155239 0.999749 0.034457
O O10 0.198128 0.095225 0.986541
O O11 0.398841 0.398841 0.250000
O O12 0.361491 0.416655 0.110237
O O13 0.389601 0.480190 0.242615
O O14 0.666667 0.027876 0.083334
O O15 0.653167 0.951913 0.000631
O O16 0.597599 0.998901 0.973701
#
# Coordination Sequence:
#
# PCOD9579584 Si02
#       7
#    36  36  36  36  36  36  36
#     4  10  22  39  64  94 124 172 225 272 321 397
#     4  12  20  39  63  84 121 164 220 273 327 378
#     4  11  23  44  68  95 133 167 224 275 334 405
#     4  12  23  37  59  85 117 168 221 260 325 388
#     4  11  26  39  56  87 128 171 222 276 331 378
#     4  11  24  41  62  88 125 174 220 284 329 385
#     4  11  24  41  68  95 123 171 215 276 332 400
#
# _framework density 19.761095000000001
#
# number of rings (size 3 to 8) (size 9 to 14) (size 15 to 20)
#    0.000    0.857    5.714    0.857    4.000    4.000 
#    0.000    0.714    0.000    0.286    0.000    0.000 
#    0.000    0.000    0.000    0.000    0.000    0.000 
#
# Total GULP energy -467972.587046 kJ/mol
# GULP energy per Si atom -5571.102227 kJ/mol
# Density = 1.971612 g / cm^3
# Si number density = 19.761095 Si / 1000 Ang^3
#
#
#
# Elastic Constant Matrix: (Units=GPa)
#
#
# Indices 1 2 3 4 5 6 
#
# 1 94.3387 46.2925 44.6203 -5.9153 0.0002 0.0000
# 2 46.2925 94.3386 44.6203 5.9153 -0.0002 0.0000
# 3 44.6203 44.6203 112.8754 0.0000 0.0000 0.0000
# 4 -5.9153 5.9153 0.0000 20.9577 0.0000 -0.0002
# 5 0.0002 -0.0002 0.0000 0.0000 20.9577 -5.9153
# 6 0.0000 0.0000 0.0000 -0.0002 -5.9153 24.0231
#
#
#
# Elastic Compliance Matrix: (Units=1/GPa)
#
#
# Indices 1 2 3 4 5 6 
#
# 1 0.015930 -0.006438 -0.003752 0.006313 0.000000 0.000000
# 2 -0.006438 0.015930 -0.003752 -0.006313 0.000000 0.000000
# 3 -0.003752 -0.003752 0.011826 0.000000 0.000000 0.000000
# 4 0.006313 -0.006313 0.000000 0.051279 0.000000 0.000000
# 5 0.000000 0.000000 0.000000 0.000000 0.051279 0.012627
# 6 0.000000 0.000000 0.000000 0.000000 0.012627 0.044736
#
#
# Mechanical properties :
#
#
# Convention : Reuss Voigt Hill
#
# Bulk Modulus (GPa) = 63.28796 63.62433 63.45615
# Shear Modulus (GPa) = 22.30842 24.25569 23.28205
#
# Velocity S-wave (km/s) = 3.36356 3.50729 3.43618
# Velocity P-wave (km/s) = 6.86883 6.97626 6.92275
#
# Compressibility (1/GPa) = 0.01580079
#
# Stress axis : x y z
#
# Youngs Moduli (GPa) = 62.77527 62.77527 84.56055
#
# Poissons Ratio (x) = 0.40415 0.31729
# Poissons Ratio (y) = 0.40415 0.31729
# Poissons Ratio (z) = 0.23554 0.23554
#
# Static dielectric constant tensor:
#      x y z
#    x 1.724300 0.000000 0.000000 
#    y 0.000000 1.724300 0.000000 
#    z 0.000000 0.000000 1.782460 
# 
# From -- ./inp_files/3712.got.cif
#   From: 2010.05.17/outbox.cif.g08.bks.cpg/sg167_2_cif.got.tgz:3712.got - 2010.05.20 11:09:15.
