data_PCOD9579825
_publ_section_title
;
Structure prediction by ZEFSAII (Michael W. Deem and Ramdas Pophale) SiO2 
 PCOD9579825
Probable space group: P 61
;
_chemical_formula_sum "Si O2"
_cell_formula_units_Z 30
_cell_length_a 19.421755
_cell_length_b 19.421755
_cell_length_c 4.935638
_cell_angle_alpha 90.000000
_cell_angle_beta 90.000000
_cell_angle_gamma 120.000000
_cell_volume 1612.318635
_symmetry_space_group_name_H-M "P 61"
_symmetry_group_IT_number 169
_symmetry_cell_setting 'hexagonal'
loop_
_space_group_symop_operation_xyz
x,y,z
x-y,x,1/6+z
-y,x-y,1/3+z
-x,-y,1/2+z
-x+y,-x,2/3+z
y,-x+y,5/6+z
loop_
_atom_site_type_symbol
_atom_site_label
_atom_site_fract_x
_atom_site_fract_y
_atom_site_fract_z
Si Si1 0.328619 0.956644 0.593250
Si Si2 0.524483 0.469846 0.883516
Si Si3 0.931209 0.321293 0.426111
Si Si4 0.847631 0.141303 0.326198
Si Si5 0.182741 0.088692 0.501920
O O1 0.239656 0.905083 0.697652
O O2 0.379430 0.911630 0.624975
O O3 0.338690 0.995194 0.298216
O O4 0.373495 0.031652 0.794255
O O5 0.494111 0.517620 0.690538
O O6 0.618735 0.518149 0.836326
O O7 0.870212 0.228328 0.430323
O O8 0.862579 0.098516 0.578891
O O9 0.904720 0.144411 0.083145
O O10 0.130879 0.127947 0.591308
#
# Coordination Sequence:
#
# PCOD9579825 Si02
#       5
#     6   6   6   6   6
#     4  10  19  33  51  76 104 132 166 208 260 314
#     4   8  16  30  50  72  98 126 154 192 242 304
#     4  10  19  33  51  76 104 132 166 208 260 314
#     4  12  22  35  56  80 105 134 178 232 273 315
#     4  12  26  41  54  72 103 146 190 236 285 331
#
# _framework density 18.606743000000002
#
# number of rings (size 3 to 8) (size 9 to 14) (size 15 to 20)
#    0.000    1.600    0.000    7.200    0.000    1.600 
#    0.000    0.000    0.000    0.000    0.000   19.600 
#    0.000    0.000    0.000    0.000    0.000    0.000 
#
# Total GULP energy -167480.128135 kJ/mol
# GULP energy per Si atom -5582.670938 kJ/mol
# Density = 1.856439 g / cm^3
# Si number density = 18.606743 Si / 1000 Ang^3
#
#
#
# Elastic Constant Matrix: (Units=GPa)
#
#
# Indices 1 2 3 4 5 6 
#
# 1 59.3011 13.5662 6.5842 0.0000 0.0000 0.0000
# 2 13.5662 59.3011 6.5842 0.0000 0.0000 0.0000
# 3 6.5842 6.5842 89.5583 0.0000 0.0000 0.0000
# 4 0.0000 0.0000 0.0000 25.3769 0.0000 0.0000
# 5 0.0000 0.0000 0.0000 0.0000 25.3769 0.0000
# 6 0.0000 0.0000 0.0000 0.0000 0.0000 22.8675
#
#
#
# Elastic Compliance Matrix: (Units=1/GPa)
#
#
# Indices 1 2 3 4 5 6 
#
# 1 0.017887 -0.003978 -0.001023 0.000000 0.000000 0.000000
# 2 -0.003978 0.017887 -0.001023 0.000000 0.000000 0.000000
# 3 -0.001023 -0.001023 0.011316 0.000000 0.000000 0.000000
# 4 0.000000 0.000000 0.000000 0.039406 0.000000 0.000000
# 5 0.000000 0.000000 0.000000 0.000000 0.039406 0.000000
# 6 0.000000 0.000000 0.000000 0.000000 0.000000 0.043730
#
#
# Mechanical properties :
#
#
# Convention : Reuss Voigt Hill
#
# Bulk Modulus (GPa) = 28.53645 29.06997 28.80321
# Shear Modulus (GPa) = 25.85854 26.81931 26.33893
#
# Velocity S-wave (km/s) = 3.73197 3.80066 3.76647
# Velocity P-wave (km/s) = 5.82581 5.90909 5.86760
#
# Compressibility (1/GPa) = 0.03504290
#
# Stress axis : x y z
#
# Youngs Moduli (GPa) = 55.90730 55.90730 88.36842
#
# Poissons Ratio (x) = 0.22242 0.09036
# Poissons Ratio (y) = 0.22242 0.09036
# Poissons Ratio (z) = 0.05717 0.05717
#
# Static dielectric constant tensor:
#      x y z
#    x 1.666850 0.000000 0.000000 
#    y 0.000000 1.666850 0.000000 
#    z 0.000000 0.000000 1.650630 
# 
# From -- ./inp_files/158.got.cif
#   From: 2010.05.17/outbox.cif.g08.bks.cpg/sg169_cif.got.tgz:158.got - 2010.05.20 11:12:54.
