data_PCOD9579714
_publ_section_title
;
Structure prediction by ZEFSAII (Michael W. Deem and Ramdas Pophale) SiO2 
 PCOD9579714
Probable space group: R -3 C 
;
_chemical_formula_sum "Si O2"
_cell_formula_units_Z 126
_cell_length_a 17.552082
_cell_length_b 17.552082
_cell_length_c 20.693285
_cell_angle_alpha 90.000000
_cell_angle_beta 90.000000
_cell_angle_gamma 120.000000
_cell_volume 5520.994941
_symmetry_space_group_name_H-M "R -3 C "
_symmetry_group_IT_number 167
_symmetry_cell_setting 'hexagonal'
loop_
_space_group_symop_operation_xyz
x,y,z
-y,x-y,z
-x+y,-x,z
x-y,-y,1/2-z
-x,-x+y,1/2-z
y,x,1/2-z
-x,-y,-z
y,-x+y,-z
x-y,x,-z
-x+y,y,1/2+z
x,x-y,1/2+z
-y,-x,1/2+z
2/3+x,1/3+y,1/3+z
2/3-y,1/3+x-y,1/3+z
2/3-x+y,1/3-x,1/3+z
2/3+x-y,1/3-y,5/6-z
2/3-x,1/3-x+y,5/6-z
2/3+y,1/3+x,5/6-z
2/3-x,1/3-y,1/3-z
2/3+y,1/3-x+y,1/3-z
2/3+x-y,1/3+x,1/3-z
2/3-x+y,1/3+y,5/6+z
2/3+x,1/3+x-y,5/6+z
2/3-y,1/3-x,5/6+z
1/3+x,2/3+y,2/3+z
1/3-y,2/3+x-y,2/3+z
1/3-x+y,2/3-x,2/3+z
1/3+x-y,2/3-y,1/6-z
1/3-x,2/3-x+y,1/6-z
1/3+y,2/3+x,1/6-z
1/3-x,2/3-y,2/3-z
1/3+y,2/3-x+y,2/3-z
1/3+x-y,2/3+x,2/3-z
1/3-x+y,2/3+y,1/6+z
1/3+x,2/3+x-y,1/6+z
1/3-y,2/3-x,1/6+z
loop_
_atom_site_type_symbol
_atom_site_label
_atom_site_fract_x
_atom_site_fract_y
_atom_site_fract_z
Si Si1 0.189837 0.042465 0.025007
Si Si2 0.725349 0.756433 0.676671
Si Si3 0.834064 0.079486 0.871539
Si Si4 0.268932 0.000000 0.250000
O O1 0.178191 0.009670 0.098836
O O2 0.290918 0.071175 0.009354
O O3 0.119491 0.950406 0.990602
O O4 0.754676 0.754676 0.750000
O O5 0.777431 0.843524 0.633633
O O6 0.721580 0.678888 0.634486
O O7 0.777306 0.110639 0.916667
O O8 0.806833 0.065422 0.797066
#
# Coordination Sequence:
#
# PCOD9579714 Si02
#       4
#    36  36  36  18
#     4  12  23  44  70  98 136 184 235 283 345 427
#     4  12  23  43  70 102 134 177 233 300 351 406
#     4  12  24  42  65 101 139 177 230 293 350 422
#     4  12  20  40  62  96 136 170 224 278 356 410
#
# _framework density 22.821973
#
# number of rings (size 3 to 8) (size 9 to 14) (size 15 to 20)
#    0.000    0.000   10.000    0.286    0.000    1.143 
#   10.286    0.000    0.000    0.000    0.000    0.000 
#    0.000    0.000    0.000    0.000    0.000    0.000 
#
# Total GULP energy -234693.666541 kJ/mol
# GULP energy per Si atom -5587.944441 kJ/mol
# Density = 2.277003 g / cm^3
# Si number density = 22.821973 Si / 1000 Ang^3
#
#
#
# Elastic Constant Matrix: (Units=GPa)
#
#
# Indices 1 2 3 4 5 6 
#
# 1 54.5419 19.3715 15.4074 7.8551 -0.0001 0.0000
# 2 19.3715 54.5419 15.4074 -7.8551 0.0001 0.0000
# 3 15.4074 15.4074 128.3553 0.0000 0.0000 0.0000
# 4 7.8551 -7.8551 0.0000 42.4323 0.0000 0.0001
# 5 -0.0001 0.0001 0.0000 0.0000 42.4323 7.8551
# 6 0.0000 0.0000 0.0000 0.0001 7.8551 17.5852
#
#
#
# Elastic Compliance Matrix: (Units=1/GPa)
#
#
# Indices 1 2 3 4 5 6 
#
# 1 0.022619 -0.008377 -0.001710 -0.005738 0.000000 0.000000
# 2 -0.008377 0.022619 -0.001710 0.005738 0.000000 0.000000
# 3 -0.001710 -0.001710 0.008201 0.000000 0.000000 0.000000
# 4 -0.005738 0.005738 0.000000 0.025691 0.000000 0.000000
# 5 0.000000 0.000000 0.000000 0.000000 0.025691 -0.011476
# 6 0.000000 0.000000 0.000000 0.000000 -0.011476 0.061992
#
#
# Mechanical properties :
#
#
# Convention : Reuss Voigt Hill
#
# Bulk Modulus (GPa) = 33.50406 37.53465 35.51935
# Shear Modulus (GPa) = 24.95555 32.97348 28.96451
#
# Velocity S-wave (km/s) = 3.31038 3.80519 3.56638
# Velocity P-wave (km/s) = 5.41516 5.98234 5.70580
#
# Compressibility (1/GPa) = 0.02984713
#
# Stress axis : x y z
#
# Youngs Moduli (GPa) = 44.21036 44.21036 121.93186
#
# Poissons Ratio (x) = 0.37035 0.20845
# Poissons Ratio (y) = 0.37035 0.20845
# Poissons Ratio (z) = 0.07558 0.07558
#
# Static dielectric constant tensor:
#      x y z
#    x 1.958830 0.000000 0.000000 
#    y 0.000000 1.958830 0.000000 
#    z 0.000000 0.000000 1.899260 
# 
# From -- ./inp_files/3038.got.cif
#   From: 2010.05.17/outbox.cif.g08.bks.cpg/sg167_2_cif.got.tgz:3038.got - 2010.05.20 11:09:15.
