data_PCOD9579788
_publ_section_title
;
Structure prediction by ZEFSAII (Michael W. Deem and Ramdas Pophale) SiO2 
 PCOD9579788
Probable space group: P 61
;
_chemical_formula_sum "Si O2"
_cell_formula_units_Z 48
_cell_length_a 16.974733
_cell_length_b 16.974733
_cell_length_c 7.706650
_cell_angle_alpha 90.000000
_cell_angle_beta 90.000000
_cell_angle_gamma 120.000000
_cell_volume 1923.101343
_symmetry_space_group_name_H-M "P 61"
_symmetry_group_IT_number 169
_symmetry_cell_setting 'hexagonal'
loop_
_space_group_symop_operation_xyz
x,y,z
x-y,x,1/6+z
-y,x-y,1/3+z
-x,-y,1/2+z
-x+y,-x,2/3+z
y,-x+y,5/6+z
loop_
_atom_site_type_symbol
_atom_site_label
_atom_site_fract_x
_atom_site_fract_y
_atom_site_fract_z
Si Si1 0.253862 0.728065 0.610870
Si Si2 0.736323 0.647611 0.383106
Si Si3 0.107343 0.921134 0.573056
Si Si4 0.047844 0.866230 0.063630
Si Si5 0.543256 0.566328 0.984025
Si Si6 0.466950 0.686209 0.895824
Si Si7 0.076437 0.442175 0.048469
Si Si8 0.383861 0.123988 0.299874
O O1 0.148880 0.698165 0.639305
O O2 0.274147 0.771662 0.420897
O O3 0.268698 0.642334 0.585369
O O4 0.314723 0.814353 0.732483
O O5 0.840115 0.712383 0.439365
O O6 0.665684 0.682768 0.420343
O O7 0.742180 0.638519 0.173797
O O8 0.000092 0.865998 0.541433
O O9 0.158239 0.980946 0.400585
O O10 0.104560 0.814158 0.044912
O O11 0.971466 0.851322 0.926429
O O12 0.498174 0.612353 0.869744
O O13 0.551240 0.602041 0.180656
O O14 0.641611 0.595132 0.908415
O O15 0.489228 0.458497 0.987391
O O16 0.526542 0.776066 0.780572
#
# Coordination Sequence:
#
# PCOD9579788 Si02
#       8
#     6   6   6   6   6   6   6   6
#     4  10  21  33  55  80 114 150 196 247 289 356
#     4  10  17  33  53  83 108 140 190 244 291 334
#     4  10  18  28  51  86 111 138 180 238 290 341
#     4  10  18  30  52  89 113 142 184 242 294 340
#     4  10  21  37  56  85 114 154 194 244 302 357
#     4  10  21  36  53  82 115 150 197 245 291 354
#     4  10  21  36  58  84 114 157 193 249 300 355
#     4  10  19  31  56  81 111 145 192 241 289 345
#
# _framework density 24.959681
#
# number of rings (size 3 to 8) (size 9 to 14) (size 15 to 20)
#    0.000    2.000    3.750    1.500    5.250    0.000 
#    0.000    0.000    0.000    0.000   35.750    0.000 
#    0.000    0.000    0.000    0.000    0.000    0.000 
#
# Total GULP energy -268048.485622 kJ/mol
# GULP energy per Si atom -5584.343450 kJ/mol
# Density = 2.490287 g / cm^3
# Si number density = 24.959681 Si / 1000 Ang^3
#
#
#
# Elastic Constant Matrix: (Units=GPa)
#
#
# Indices 1 2 3 4 5 6 
#
# 1 149.4141 57.6452 1.0070 0.0000 0.0000 0.0000
# 2 57.6452 149.4141 1.0070 0.0000 0.0000 0.0000
# 3 1.0070 1.0070 36.2495 0.0000 0.0000 0.0000
# 4 0.0000 0.0000 0.0000 9.8525 0.0000 0.0000
# 5 0.0000 0.0000 0.0000 0.0000 9.8525 0.0000
# 6 0.0000 0.0000 0.0000 0.0000 0.0000 45.8844
#
#
#
# Elastic Compliance Matrix: (Units=1/GPa)
#
#
# Indices 1 2 3 4 5 6 
#
# 1 0.007864 -0.003033 -0.000134 0.000000 0.000000 0.000000
# 2 -0.003033 0.007864 -0.000134 0.000000 0.000000 0.000000
# 3 -0.000134 -0.000134 0.027594 0.000000 0.000000 0.000000
# 4 0.000000 0.000000 0.000000 0.101497 0.000000 0.000000
# 5 0.000000 0.000000 0.000000 0.000000 0.101497 0.000000
# 6 0.000000 0.000000 0.000000 0.000000 0.000000 0.021794
#
#
# Mechanical properties :
#
#
# Convention : Reuss Voigt Hill
#
# Bulk Modulus (GPa) = 27.23393 50.48846 38.86120
# Shear Modulus (GPa) = 17.42452 31.47912 24.45182
#
# Velocity S-wave (km/s) = 2.64504 3.55519 3.13334
# Velocity P-wave (km/s) = 4.50146 6.09298 5.35666
#
# Compressibility (1/GPa) = 0.03671890
#
# Stress axis : x y z
#
# Youngs Moduli (GPa) = 127.16347 127.16347 36.23973
#
# Poissons Ratio (x) = 0.38569 0.00486
# Poissons Ratio (y) = 0.38569 0.00486
# Poissons Ratio (z) = 0.01707 0.01707
#
# Static dielectric constant tensor:
#      x y z
#    x 1.985200 0.000000 0.000000 
#    y 0.000000 1.985200 0.000000 
#    z 0.000000 0.000000 2.068350 
# 
# From -- ./inp_files/1015.got.cif
#   From: 2010.05.17/outbox.cif.g08.bks.cpg/sg169_cif.got.tgz:1015.got - 2010.05.20 11:12:54.
