data_PCOD9579940
_publ_section_title
;
Structure prediction by ZEFSAII (Michael W. Deem and Ramdas Pophale) SiO2 
 PCOD9579940
Probable space group: P 61
;
_chemical_formula_sum "Si O2"
_cell_formula_units_Z 48
_cell_length_a 14.024965
_cell_length_b 14.024965
_cell_length_c 12.557937
_cell_angle_alpha 90.000000
_cell_angle_beta 90.000000
_cell_angle_gamma 120.000000
_cell_volume 2139.205487
_symmetry_space_group_name_H-M "P 61"
_symmetry_group_IT_number 169
_symmetry_cell_setting 'hexagonal'
loop_
_space_group_symop_operation_xyz
x,y,z
x-y,x,1/6+z
-y,x-y,1/3+z
-x,-y,1/2+z
-x+y,-x,2/3+z
y,-x+y,5/6+z
loop_
_atom_site_type_symbol
_atom_site_label
_atom_site_fract_x
_atom_site_fract_y
_atom_site_fract_z
Si Si1 0.116116 0.567383 0.234950
Si Si2 0.988981 0.157554 0.198508
Si Si3 0.275273 0.488958 0.751802
Si Si4 0.231625 0.859966 0.607290
Si Si5 0.891188 0.635400 0.848119
Si Si6 0.560613 0.542850 0.375978
Si Si7 0.739185 0.295441 0.266713
Si Si8 0.322988 0.416134 0.286766
O O1 0.144703 0.673519 0.308012
O O2 0.115828 0.477696 0.314642
O O3 0.216822 0.595219 0.155469
O O4 0.007427 0.487557 0.163247
O O5 0.884762 0.152665 0.138714
O O6 0.066749 0.134429 0.123492
O O7 0.064971 0.278761 0.249576
O O8 0.373838 0.515318 0.835367
O O9 0.256509 0.591992 0.738542
O O10 0.165942 0.397171 0.814764
O O11 0.247653 0.767227 0.667275
O O12 0.331673 0.967399 0.664775
O O13 0.767957 0.603993 0.874020
O O14 0.987245 0.689125 0.932804
O O15 0.447272 0.497975 0.314124
O O16 0.829676 0.301727 0.350920
#
# Coordination Sequence:
#
# PCOD9579940 Si02
#       8
#     6   6   6   6   6   6   6   6
#     4  10  23  37  55  91 130 174 228 277 331 413
#     4  12  23  42  73 108 130 172 229 298 356 417
#     4  12  22  36  62  93 131 183 233 279 346 415
#     4  11  22  40  66  97 135 177 228 288 346 415
#     4  11  20  38  63  96 133 166 224 281 336 401
#     4  11  24  39  59  91 139 183 223 281 350 411
#     4  10  21  38  59  90 129 173 219 273 336 409
#     4  11  21  38  63  94 135 168 220 279 331 409
#
# _framework density 22.438236
#
# number of rings (size 3 to 8) (size 9 to 14) (size 15 to 20)
#    0.000    1.000    5.000    3.750    5.250    0.000 
#    2.250    0.000    0.000    3.000    3.250    0.000 
#    0.000    0.000    0.000    0.000    0.000    0.000 
#
# Total GULP energy -267795.780569 kJ/mol
# GULP energy per Si atom -5579.078762 kJ/mol
# Density = 2.238717 g / cm^3
# Si number density = 22.438236 Si / 1000 Ang^3
#
#
#
# Elastic Constant Matrix: (Units=GPa)
#
#
# Indices 1 2 3 4 5 6 
#
# 1 59.5755 39.2134 14.4747 0.0000 0.0000 0.0000
# 2 39.2134 59.5755 14.4747 0.0000 0.0000 0.0000
# 3 14.4747 14.4747 72.9001 0.0000 0.0000 0.0000
# 4 0.0000 0.0000 0.0000 26.5936 0.0000 0.0000
# 5 0.0000 0.0000 0.0000 0.0000 26.5936 0.0000
# 6 0.0000 0.0000 0.0000 0.0000 0.0000 10.1811
#
#
#
# Elastic Compliance Matrix: (Units=1/GPa)
#
#
# Indices 1 2 3 4 5 6 
#
# 1 0.029929 -0.019181 -0.002134 0.000000 0.000000 0.000000
# 2 -0.019181 0.029929 -0.002134 0.000000 0.000000 0.000000
# 3 -0.002134 -0.002134 0.014565 0.000000 0.000000 0.000000
# 4 0.000000 0.000000 0.000000 0.037603 0.000000 0.000000
# 5 0.000000 0.000000 0.000000 0.000000 0.037603 0.000000
# 6 0.000000 0.000000 0.000000 0.000000 0.000000 0.098222
#
#
# Mechanical properties :
#
#
# Convention : Reuss Voigt Hill
#
# Bulk Modulus (GPa) = 36.33120 36.48628 36.40874
# Shear Modulus (GPa) = 16.45142 20.93289 18.69216
#
# Velocity S-wave (km/s) = 2.71068 3.05767 2.88939
# Velocity P-wave (km/s) = 5.10136 5.36301 5.23382
#
# Compressibility (1/GPa) = 0.02752455
#
# Stress axis : x y z
#
# Youngs Moduli (GPa) = 33.41197 33.41197 68.65839
#
# Poissons Ratio (x) = 0.64089 0.14652
# Poissons Ratio (y) = 0.64089 0.14652
# Poissons Ratio (z) = 0.07130 0.07130
#
# Static dielectric constant tensor:
#      x y z
#    x 1.854100 0.000000 0.000000 
#    y 0.000000 1.854100 0.000000 
#    z 0.000000 0.000000 1.957320 
# 
# From -- ./inp_files/1258.got.cif
#   From: 2010.05.17/outbox.cif.g08.bks.cpg/sg169_cif.got.tgz:1258.got - 2010.05.20 11:12:54.
