data_PCOD9579330
_publ_section_title
;
Structure prediction by ZEFSAII (Michael W. Deem and Ramdas Pophale) SiO2 
 PCOD9579330
Probable space group: R -3 M
;
_chemical_formula_sum "Si O2"
_cell_formula_units_Z 72
_cell_length_a 20.054488
_cell_length_b 20.054488
_cell_length_c 9.389647
_cell_angle_alpha 90.000000
_cell_angle_beta 90.000000
_cell_angle_gamma 120.000000
_cell_volume 3270.416420
_symmetry_space_group_name_H-M "R -3 M"
_symmetry_group_IT_number 166
_symmetry_cell_setting 'hexagonal'
loop_
_space_group_symop_operation_xyz
x,y,z
-y,x-y,z
-x+y,-x,z
x-y,-y,-z
-x,-x+y,-z
y,x,-z
-x,-y,-z
y,-x+y,-z
x-y,x,-z
-x+y,y,z
x,x-y,z
-y,-x,z
2/3+x,1/3+y,1/3+z
2/3-y,1/3+x-y,1/3+z
2/3-x+y,1/3-x,1/3+z
2/3+x-y,1/3-y,1/3-z
2/3-x,1/3-x+y,1/3-z
2/3+y,1/3+x,1/3-z
2/3-x,1/3-y,1/3-z
2/3+y,1/3-x+y,1/3-z
2/3+x-y,1/3+x,1/3-z
2/3-x+y,1/3+y,1/3+z
2/3+x,1/3+x-y,1/3+z
2/3-y,1/3-x,1/3+z
1/3+x,2/3+y,2/3+z
1/3-y,2/3+x-y,2/3+z
1/3-x+y,2/3-x,2/3+z
1/3+x-y,2/3-y,2/3-z
1/3-x,2/3-x+y,2/3-z
1/3+y,2/3+x,2/3-z
1/3-x,2/3-y,2/3-z
1/3+y,2/3-x+y,2/3-z
1/3+x-y,2/3+x,2/3-z
1/3-x+y,2/3+y,2/3+z
1/3+x,2/3+x-y,2/3+z
1/3-y,2/3-x,2/3+z
loop_
_atom_site_type_symbol
_atom_site_label
_atom_site_fract_x
_atom_site_fract_y
_atom_site_fract_z
Si Si1 0.102310 0.551155 0.873486
Si Si2 0.461025 0.922050 0.192373
Si Si3 0.914901 0.382050 0.530174
O O1 0.128823 0.492242 0.818390
O O2 0.011219 0.505610 0.849061
O O3 0.121170 0.560585 0.043179
O O4 0.392796 0.908953 0.300047
O O5 0.915131 0.457566 0.467489
O O6 0.000000 0.395259 0.500000
#
# Coordination Sequence:
#
# PCOD9579330 Si02
#       3
#    18  18  36
#     4  11  20  34  65  86 108 166 204 240 303 365
#     4   9  21  36  55  86 121 152 200 250 300 357
#     4   9  21  41  55  86 127 156 194 254 303 355
#
# _framework density 22.015543000000001
#
# number of rings (size 3 to 8) (size 9 to 14) (size 15 to 20)
#    1.500    1.000    0.000    1.500    0.000   10.000 
#    1.500    0.000    0.000    3.000    0.000    3.500 
#    0.000    0.000    0.000    0.000    0.000    0.000 
#
# Total GULP energy -133703.205555 kJ/mol
# GULP energy per Si atom -5570.966898 kJ/mol
# Density = 2.196544 g / cm^3
# Si number density = 22.015543 Si / 1000 Ang^3
#
#
#
# Elastic Constant Matrix: (Units=GPa)
#
#
# Indices 1 2 3 4 5 6 
#
# 1 135.2418 60.5259 29.3962 -6.2334 0.0001 0.0000
# 2 60.5259 135.2418 29.3960 6.2335 0.0000 0.0000
# 3 29.3962 29.3960 106.5860 0.0002 0.0007 0.0000
# 4 -6.2334 6.2335 0.0002 20.4890 0.0001 0.0000
# 5 0.0001 0.0000 0.0007 0.0001 20.4890 -6.2334
# 6 0.0000 0.0000 0.0000 0.0000 -6.2334 37.3579
#
#
#
# Elastic Compliance Matrix: (Units=1/GPa)
#
#
# Indices 1 2 3 4 5 6 
#
# 1 0.009835 -0.004265 -0.001536 0.004290 0.000000 0.000000
# 2 -0.004265 0.009835 -0.001536 -0.004290 0.000000 0.000000
# 3 -0.001536 -0.001536 0.010229 0.000000 0.000000 0.000000
# 4 0.004290 -0.004290 0.000000 0.051417 0.000000 0.000000
# 5 0.000000 0.000000 0.000000 0.000000 0.051417 0.008579
# 6 0.000000 0.000000 0.000000 0.000000 0.008579 0.028200
#
#
# Mechanical properties :
#
#
# Convention : Reuss Voigt Hill
#
# Bulk Modulus (GPa) = 65.68555 68.41174 67.04865
# Shear Modulus (GPa) = 27.67312 32.85063 30.26187
#
# Velocity S-wave (km/s) = 3.54924 3.86703 3.71154
# Velocity P-wave (km/s) = 6.83351 7.14705 6.99204
#
# Compressibility (1/GPa) = 0.01522405
#
# Stress axis : x y z
#
# Youngs Moduli (GPa) = 101.68191 101.68199 97.75786
#
# Poissons Ratio (x) = 0.43369 0.15016
# Poissons Ratio (y) = 0.43369 0.15016
# Poissons Ratio (z) = 0.15619 0.15618
#
# Static dielectric constant tensor:
#      x y z
#    x 1.807260 0.000000 0.000000 
#    y 0.000000 1.807260 0.000000 
#    z 0.000000 0.000000 1.960160 
# 
# From -- ./inp_files/2300.got.cif
#   From: 2010.05.17/outbox.cif.g08.bks.cpg/sg166_2_cif.got.tgz:2300.got - 2010.05.20 11:04:41.
