data_PCOD9579912
_publ_section_title
;
Structure prediction by ZEFSAII (Michael W. Deem and Ramdas Pophale) SiO2 
 PCOD9579912
Probable space group: P 61
;
_chemical_formula_sum "Si O2"
_cell_formula_units_Z 42
_cell_length_a 10.278050
_cell_length_b 10.278050
_cell_length_c 19.058785
_cell_angle_alpha 90.000000
_cell_angle_beta 90.000000
_cell_angle_gamma 120.000000
_cell_volume 1743.601744
_symmetry_space_group_name_H-M "P 61"
_symmetry_group_IT_number 169
_symmetry_cell_setting 'hexagonal'
loop_
_space_group_symop_operation_xyz
x,y,z
x-y,x,1/6+z
-y,x-y,1/3+z
-x,-y,1/2+z
-x+y,-x,2/3+z
y,-x+y,5/6+z
loop_
_atom_site_type_symbol
_atom_site_label
_atom_site_fract_x
_atom_site_fract_y
_atom_site_fract_z
Si Si1 0.749543 0.135181 0.785690
Si Si2 0.369311 0.659421 0.345006
Si Si3 0.020630 0.411420 0.847629
Si Si4 0.528925 0.811811 0.816134
Si Si5 0.669509 0.118920 0.419255
Si Si6 0.702559 0.910043 0.323635
Si Si7 0.275976 0.345973 0.831708
O O1 0.674177 0.212834 0.830880
O O2 0.920308 0.252983 0.805629
O O3 0.715030 0.153794 0.704923
O O4 0.684668 0.962427 0.799989
O O5 0.300436 0.565237 0.414625
O O6 0.286462 0.531846 0.284822
O O7 0.547732 0.759550 0.346242
O O8 0.983590 0.531089 0.812017
O O9 0.185098 0.436948 0.834370
O O10 0.973587 0.382414 0.929390
O O11 0.431293 0.868502 0.858502
O O12 0.748568 0.036059 0.382975
O O13 0.661737 0.956325 0.249839
O O14 0.806392 0.834716 0.313854
#
# Coordination Sequence:
#
# PCOD9579912 Si02
#       7
#     6   6   6   6   6   6   6
#     4  10  21  39  68  91 128 160 211 277 308 379
#     4  10  22  38  62  91 122 168 205 255 329 375
#     4   9  19  38  66  95 117 160 222 257 309 375
#     4  10  20  41  62  95 127 160 212 261 323 373
#     4  10  22  40  62  90 131 162 204 274 314 377
#     4  11  22  42  61  94 132 161 208 264 322 375
#     4  10  22  38  63  92 123 165 210 260 307 384
#
# _framework density 24.088069999999998
#
# number of rings (size 3 to 8) (size 9 to 14) (size 15 to 20)
#    0.000    2.286    1.429    2.571    2.000    4.571 
#   15.429    0.000   22.000    0.000    0.000    0.000 
#    0.000    0.000    0.000    0.000    0.000    0.000 
#
# Total GULP energy -234097.616703 kJ/mol
# GULP energy per Si atom -5573.752779 kJ/mol
# Density = 2.403324 g / cm^3
# Si number density = 24.088070 Si / 1000 Ang^3
#
#
#
# Elastic Constant Matrix: (Units=GPa)
#
#
# Indices 1 2 3 4 5 6 
#
# 1 40.8302 6.8484 21.0509 0.0000 0.0000 0.0000
# 2 6.8484 40.8302 21.0509 0.0000 0.0000 0.0000
# 3 21.0509 21.0509 143.9231 0.0000 0.0000 0.0000
# 4 0.0000 0.0000 0.0000 26.3955 0.0000 0.0000
# 5 0.0000 0.0000 0.0000 0.0000 26.3955 0.0000
# 6 0.0000 0.0000 0.0000 0.0000 0.0000 16.9909
#
#
#
# Elastic Compliance Matrix: (Units=1/GPa)
#
#
# Indices 1 2 3 4 5 6 
#
# 1 0.026756 -0.002672 -0.003523 0.000000 0.000000 0.000000
# 2 -0.002672 0.026756 -0.003523 0.000000 0.000000 0.000000
# 3 -0.003523 -0.003523 0.007979 0.000000 0.000000 0.000000
# 4 0.000000 0.000000 0.000000 0.037885 0.000000 0.000000
# 5 0.000000 0.000000 0.000000 0.000000 0.037885 0.000000
# 6 0.000000 0.000000 0.000000 0.000000 0.000000 0.058855
#
#
# Mechanical properties :
#
#
# Convention : Reuss Voigt Hill
#
# Bulk Modulus (GPa) = 23.77743 35.94265 29.86004
# Shear Modulus (GPa) = 21.77994 25.73193 23.75593
#
# Velocity S-wave (km/s) = 3.01022 3.27195 3.14381
# Velocity P-wave (km/s) = 4.68768 5.40628 5.05976
#
# Compressibility (1/GPa) = 0.04205669
#
# Stress axis : x y z
#
# Youngs Moduli (GPa) = 37.37480 37.37480 125.33444
#
# Poissons Ratio (x) = 0.09985 0.44152
# Poissons Ratio (y) = 0.09985 0.44152
# Poissons Ratio (z) = 0.13166 0.13166
#
# Static dielectric constant tensor:
#      x y z
#    x 2.106610 0.000000 0.000000 
#    y 0.000000 2.106610 0.000000 
#    z 0.000000 0.000000 1.984960 
# 
# From -- ./inp_files/1399.got.cif
#   From: 2010.05.17/outbox.cif.g08.bks.cpg/sg169_cif.got.tgz:1399.got - 2010.05.20 11:12:54.
