data_PCOD9579935
_publ_section_title
;
Structure prediction by ZEFSAII (Michael W. Deem and Ramdas Pophale) SiO2 
 PCOD9579935
Probable space group: P 61
;
_chemical_formula_sum "Si O2"
_cell_formula_units_Z 42
_cell_length_a 8.619136
_cell_length_b 8.619136
_cell_length_c 27.560432
_cell_angle_alpha 90.000000
_cell_angle_beta 90.000000
_cell_angle_gamma 120.000000
_cell_volume 1773.144459
_symmetry_space_group_name_H-M "P 61"
_symmetry_group_IT_number 169
_symmetry_cell_setting 'hexagonal'
loop_
_space_group_symop_operation_xyz
x,y,z
x-y,x,1/6+z
-y,x-y,1/3+z
-x,-y,1/2+z
-x+y,-x,2/3+z
y,-x+y,5/6+z
loop_
_atom_site_type_symbol
_atom_site_label
_atom_site_fract_x
_atom_site_fract_y
_atom_site_fract_z
Si Si1 0.633223 0.035435 0.258570
Si Si2 0.118068 0.300637 0.993543
Si Si3 0.673525 0.832562 0.090871
Si Si4 0.735168 0.509189 0.069968
Si Si5 0.342901 0.607029 0.150191
Si Si6 0.386863 0.930715 0.049861
Si Si7 0.311810 0.486251 0.301213
O O1 0.674371 0.984212 0.312194
O O2 0.421369 0.905906 0.249745
O O3 0.759074 0.040233 0.214103
O O4 0.695460 0.241908 0.265975
O O5 0.140287 0.490227 0.977275
O O6 0.997146 0.162477 0.951934
O O7 0.733492 0.693973 0.072952
O O8 0.543776 0.746464 0.136848
O O9 0.549289 0.883139 0.056684
O O10 0.573524 0.360548 0.103818
O O11 0.693323 0.440624 0.015291
O O12 0.359797 0.463753 0.182290
O O13 0.356516 0.005534 0.100883
O O14 0.217093 0.785372 0.019573
#
# Coordination Sequence:
#
# PCOD9579935 Si02
#       7
#     6   6   6   6   6   6   6
#     4  11  24  43  68 101 139 182 244 294 357 434
#     4  10  23  42  69  98 140 188 231 291 364 441
#     4  11  22  40  72  93 137 177 228 301 354 429
#     4  10  22  38  64 103 131 173 237 290 353 431
#     4  11  23  39  69 100 130 182 242 282 352 434
#     4  10  21  37  65 101 130 181 237 292 354 427
#     4   9  19  37  63  98 133 173 235 296 346 422
#
# _framework density 23.686734000000001
#
# number of rings (size 3 to 8) (size 9 to 14) (size 15 to 20)
#    0.000    1.714    2.857    1.714    6.000    0.000 
#    0.000    0.000   15.714    0.000    0.000    0.000 
#    0.000    0.000    0.000    0.000    0.000    0.000 
#
# Total GULP energy -234015.330165 kJ/mol
# GULP energy per Si atom -5571.793575 kJ/mol
# Density = 2.363282 g / cm^3
# Si number density = 23.686734 Si / 1000 Ang^3
#
#
#
# Elastic Constant Matrix: (Units=GPa)
#
#
# Indices 1 2 3 4 5 6 
#
# 1 81.3041 24.3658 38.9249 0.0000 0.0000 0.0000
# 2 24.3658 81.3041 38.9249 0.0000 0.0000 0.0000
# 3 38.9249 38.9249 115.1293 0.0000 0.0000 0.0000
# 4 0.0000 0.0000 0.0000 40.2693 0.0000 0.0000
# 5 0.0000 0.0000 0.0000 0.0000 40.2693 0.0000
# 6 0.0000 0.0000 0.0000 0.0000 0.0000 28.4691
#
#
#
# Elastic Compliance Matrix: (Units=1/GPa)
#
#
# Indices 1 2 3 4 5 6 
#
# 1 0.015083 -0.002480 -0.004261 0.000000 0.000000 0.000000
# 2 -0.002480 0.015083 -0.004261 0.000000 0.000000 0.000000
# 3 -0.004261 -0.004261 0.011567 0.000000 0.000000 0.000000
# 4 0.000000 0.000000 0.000000 0.024833 0.000000 0.000000
# 5 0.000000 0.000000 0.000000 0.000000 0.024833 0.000000
# 6 0.000000 0.000000 0.000000 0.000000 0.000000 0.035126
#
#
# Mechanical properties :
#
#
# Convention : Reuss Voigt Hill
#
# Bulk Modulus (GPa) = 50.68782 53.57431 52.13106
# Shear Modulus (GPa) = 32.23645 33.50300 32.86973
#
# Velocity S-wave (km/s) = 3.69311 3.76496 3.72921
# Velocity P-wave (km/s) = 6.29532 6.44723 6.37173
#
# Compressibility (1/GPa) = 0.01972861
#
# Stress axis : x y z
#
# Youngs Moduli (GPa) = 66.30112 66.30112 86.45233
#
# Poissons Ratio (x) = 0.16444 0.36836
# Poissons Ratio (y) = 0.16444 0.36836
# Poissons Ratio (z) = 0.28250 0.28250
#
# Static dielectric constant tensor:
#      x y z
#    x 1.954900 0.000000 0.000000 
#    y 0.000000 1.954900 0.000000 
#    z 0.000000 0.000000 1.946380 
# 
# From -- ./inp_files/1834.got.cif
#   From: 2010.05.17/outbox.cif.g08.bks.cpg/sg169_cif.got.tgz:1834.got - 2010.05.20 11:12:54.
