data_PCOD9579536
_publ_section_title
;
Structure prediction by ZEFSAII (Michael W. Deem and Ramdas Pophale) SiO2 
 PCOD9579536
Probable space group: R -3 C 
;
_chemical_formula_sum "Si O2"
_cell_formula_units_Z 138
_cell_length_a 15.603327
_cell_length_b 15.603327
_cell_length_c 29.065282
_cell_angle_alpha 90.000000
_cell_angle_beta 90.000000
_cell_angle_gamma 120.000000
_cell_volume 6128.294012
_symmetry_space_group_name_H-M "R -3 C "
_symmetry_group_IT_number 167
_symmetry_cell_setting 'hexagonal'
loop_
_space_group_symop_operation_xyz
x,y,z
-y,x-y,z
-x+y,-x,z
x-y,-y,1/2-z
-x,-x+y,1/2-z
y,x,1/2-z
-x,-y,-z
y,-x+y,-z
x-y,x,-z
-x+y,y,1/2+z
x,x-y,1/2+z
-y,-x,1/2+z
2/3+x,1/3+y,1/3+z
2/3-y,1/3+x-y,1/3+z
2/3-x+y,1/3-x,1/3+z
2/3+x-y,1/3-y,5/6-z
2/3-x,1/3-x+y,5/6-z
2/3+y,1/3+x,5/6-z
2/3-x,1/3-y,1/3-z
2/3+y,1/3-x+y,1/3-z
2/3+x-y,1/3+x,1/3-z
2/3-x+y,1/3+y,5/6+z
2/3+x,1/3+x-y,5/6+z
2/3-y,1/3-x,5/6+z
1/3+x,2/3+y,2/3+z
1/3-y,2/3+x-y,2/3+z
1/3-x+y,2/3-x,2/3+z
1/3+x-y,2/3-y,1/6-z
1/3-x,2/3-x+y,1/6-z
1/3+y,2/3+x,1/6-z
1/3-x,2/3-y,2/3-z
1/3+y,2/3-x+y,2/3-z
1/3+x-y,2/3+x,2/3-z
1/3-x+y,2/3+y,1/6+z
1/3+x,2/3+x-y,1/6+z
1/3-y,2/3-x,1/6+z
loop_
_atom_site_type_symbol
_atom_site_label
_atom_site_fract_x
_atom_site_fract_y
_atom_site_fract_z
Si Si1 0.000000 0.000000 0.696179
Si Si2 0.513950 0.866392 0.997883
Si Si3 0.989446 0.656113 0.583334
Si Si4 0.305920 0.165023 0.978844
Si Si5 0.443441 0.070677 0.905677
O O1 0.110564 0.035754 0.680946
O O2 0.000000 0.000000 0.750000
O O3 0.567296 0.940058 0.955159
O O4 0.586186 0.824121 0.014248
O O5 0.503376 0.910704 0.045808
O O6 0.044772 0.747466 0.546172
O O7 0.244551 0.066106 0.948696
O O8 0.275847 0.163315 0.031620
O O9 0.333334 0.979331 0.916667
#
# Coordination Sequence:
#
# PCOD9579536 Si02
#       5
#    12  36  18  36  36
#     4  12  27  48  57  91 146 178 222 282 324 391
#     4  11  25  43  67  95 136 179 221 271 337 397
#     4  12  20  42  72  96 132 182 210 270 342 388
#     4  11  21  41  69 100 132 169 221 279 330 392
#     4  10  21  38  64  99 132 165 221 278 321 395
#
# _framework density 22.518502000000002
#
# number of rings (size 3 to 8) (size 9 to 14) (size 15 to 20)
#    0.000    1.043   10.435    0.000    0.000    5.217 
#    0.000    2.609    0.000    2.087    0.000    0.000 
#    0.000    0.000    0.000    0.000    0.000    0.000 
#
# Total GULP energy -256099.750636 kJ/mol
# GULP energy per Si atom -5567.385883 kJ/mol
# Density = 2.246725 g / cm^3
# Si number density = 22.518502 Si / 1000 Ang^3
#
#
#
# Elastic Constant Matrix: (Units=GPa)
#
#
# Indices 1 2 3 4 5 6 
#
# 1 52.6738 30.6585 25.6595 3.0814 0.0000 0.0000
# 2 30.6585 52.6738 25.6595 -3.0814 0.0000 0.0000
# 3 25.6595 25.6595 235.7814 0.0000 0.0000 0.0000
# 4 3.0814 -3.0814 0.0000 9.9222 0.0000 0.0000
# 5 0.0000 0.0000 0.0000 0.0000 9.9222 3.0814
# 6 0.0000 0.0000 0.0000 0.0000 3.0814 11.0076
#
#
#
# Elastic Compliance Matrix: (Units=1/GPa)
#
#
# Indices 1 2 3 4 5 6 
#
# 1 0.031305 -0.018443 -0.001400 -0.015449 0.000000 0.000000
# 2 -0.018443 0.031305 -0.001400 0.015449 0.000000 0.000000
# 3 -0.001400 -0.001400 0.004546 0.000000 0.000000 0.000000
# 4 -0.015449 0.015449 0.000000 0.110379 0.000000 0.000000
# 5 0.000000 0.000000 0.000000 0.000000 0.110379 -0.030898
# 6 0.000000 0.000000 0.000000 0.000000 -0.030898 0.099496
#
#
# Mechanical properties :
#
#
# Convention : Reuss Voigt Hill
#
# Bulk Modulus (GPa) = 40.53310 56.12045 48.32678
# Shear Modulus (GPa) = 11.41244 23.44718 17.42981
#
# Velocity S-wave (km/s) = 2.25367 3.23033 2.78514
# Velocity P-wave (km/s) = 4.98107 6.23613 5.64360
#
# Compressibility (1/GPa) = 0.02467119
#
# Stress axis : x y z
#
# Youngs Moduli (GPa) = 31.94379 31.94379 219.97932
#
# Poissons Ratio (x) = 0.58913 0.30792
# Poissons Ratio (y) = 0.58913 0.30792
# Poissons Ratio (z) = 0.04471 0.04471
#
# Static dielectric constant tensor:
#      x y z
#    x 1.859060 0.000000 0.000000 
#    y 0.000000 1.859060 0.000000 
#    z 0.000000 0.000000 1.895600 
# 
# From -- ./inp_files/6060.got.cif
#   From: 2010.05.17/outbox.cif.g08.bks.cpg/sg167_4_cif.got.tgz:6060.got - 2010.05.20 11:09:15.
