data_PCOD9579993
_publ_section_title
;
Structure prediction by ZEFSAII (Michael W. Deem and Ramdas Pophale) SiO2 
 PCOD9579993
Probable space group: P 61
;
_chemical_formula_sum "Si O2"
_cell_formula_units_Z 24
_cell_length_a 11.341505
_cell_length_b 11.341505
_cell_length_c 9.708894
_cell_angle_alpha 90.000000
_cell_angle_beta 90.000000
_cell_angle_gamma 120.000000
_cell_volume 1081.537964
_symmetry_space_group_name_H-M "P 61"
_symmetry_group_IT_number 169
_symmetry_cell_setting 'hexagonal'
loop_
_space_group_symop_operation_xyz
x,y,z
x-y,x,1/6+z
-y,x-y,1/3+z
-x,-y,1/2+z
-x+y,-x,2/3+z
y,-x+y,5/6+z
loop_
_atom_site_type_symbol
_atom_site_label
_atom_site_fract_x
_atom_site_fract_y
_atom_site_fract_z
Si Si1 0.734976 0.925093 0.984400
Si Si2 0.630511 0.539479 0.562658
Si Si3 0.630511 0.091032 0.147206
Si Si4 0.265024 0.190117 0.225464
O O1 0.654931 0.827465 0.854932
O O2 0.852822 0.058183 0.911384
O O3 0.658782 0.977847 0.079940
O O4 0.528787 0.528787 0.438265
O O5 0.772868 0.545736 0.521598
O O6 0.566010 0.433990 0.688265
O O7 0.658783 0.680935 0.629924
O O8 0.147178 0.205361 0.298480
#
# Coordination Sequence:
#
# PCOD9579993 Si02
#       4
#     6   6   6   6
#     4  10  22  41  71 106 139 171 222 289 364 420
#     4  12  28  47  71 101 142 186 239 288 344 415
#     4  12  28  47  71 101 142 186 239 288 344 415
#     4  10  22  41  71 106 139 171 222 289 364 420
#
# _framework density 22.190622999999999
#
# number of rings (size 3 to 8) (size 9 to 14) (size 15 to 20)
#    0.000    1.000    5.000    0.000    7.000   12.000 
#    0.000    0.000    0.000    0.000    0.000    0.000 
#    0.000    0.000    0.000    0.000    0.000    0.000 
#
# Total GULP energy -133914.725180 kJ/mol
# GULP energy per Si atom -5579.780216 kJ/mol
# Density = 2.214012 g / cm^3
# Si number density = 22.190623 Si / 1000 Ang^3
#
#
#
# Elastic Constant Matrix: (Units=GPa)
#
#
# Indices 1 2 3 4 5 6 
#
# 1 30.0716 37.3225 38.6278 0.0000 0.0000 0.0000
# 2 37.3225 30.0716 38.6278 0.0000 0.0000 0.0000
# 3 38.6278 38.6278 126.6253 0.0000 0.0000 0.0000
# 4 0.0000 0.0000 0.0000 44.1776 0.0000 0.0000
# 5 0.0000 0.0000 0.0000 0.0000 44.1776 0.0000
# 6 0.0000 0.0000 0.0000 0.0000 0.0000 -3.6255
#
#
#
# Elastic Compliance Matrix: (Units=1/GPa)
#
#
# Indices 1 2 3 4 5 6 
#
# 1 -0.057548 0.080365 -0.006960 0.000000 0.000000 0.000000
# 2 0.080365 -0.057548 -0.006960 0.000000 0.000000 0.000000
# 3 -0.006960 -0.006960 0.012144 0.000000 0.000000 0.000000
# 4 0.000000 0.000000 0.000000 0.022636 0.000000 0.000000
# 5 0.000000 0.000000 0.000000 0.000000 0.022636 0.000000
# 6 0.000000 0.000000 0.000000 0.000000 0.000000 -0.275827
#
#
# Mechanical properties :
#
#
# Convention : Reuss Voigt Hill
#
# Bulk Modulus (GPa) = 33.40440 46.21389 39.80915
# Shear Modulus (GPa) = -10.95487 21.75866 5.40189
#
# Velocity S-wave (km/s) = -2.22428 3.13474 1.56192
# Velocity P-wave (km/s) = 2.91367 5.82866 4.60775
#
# Compressibility (1/GPa) = 0.02993617
#
# Stress axis : x y z
#
# Youngs Moduli (GPa) = -17.37671 -17.37671 82.34522
#
# Poissons Ratio (x) = 1.39649 0.57316
# Poissons Ratio (y) = 1.39649 0.57316
# Poissons Ratio (z) = -0.12095 -0.12095
#
# Static dielectric constant tensor:
#      x y z
#    x 1.844620 0.000000 0.000000 
#    y 0.000000 1.844620 0.000000 
#    z 0.000000 0.000000 1.977730 
# 
# From -- ./inp_files/450.got.cif
#   From: 2010.05.17/outbox.cif.g08.bks.cpg/sg169_cif.got.tgz:450.got - 2010.05.20 11:12:54.
