data_PCOD9579961
_publ_section_title
;
Structure prediction by ZEFSAII (Michael W. Deem and Ramdas Pophale) SiO2 
 PCOD9579961
Probable space group: P 61
;
_chemical_formula_sum "Si O2"
_cell_formula_units_Z 48
_cell_length_a 17.089380
_cell_length_b 17.089380
_cell_length_c 6.854989
_cell_angle_alpha 90.000000
_cell_angle_beta 90.000000
_cell_angle_gamma 120.000000
_cell_volume 1733.764107
_symmetry_space_group_name_H-M "P 61"
_symmetry_group_IT_number 169
_symmetry_cell_setting 'hexagonal'
loop_
_space_group_symop_operation_xyz
x,y,z
x-y,x,1/6+z
-y,x-y,1/3+z
-x,-y,1/2+z
-x+y,-x,2/3+z
y,-x+y,5/6+z
loop_
_atom_site_type_symbol
_atom_site_label
_atom_site_fract_x
_atom_site_fract_y
_atom_site_fract_z
Si Si1 0.079119 0.282946 0.573420
Si Si2 0.110629 0.177074 0.311140
Si Si3 0.479906 0.556583 0.921570
Si Si4 0.352888 0.038093 0.725390
Si Si5 0.681667 0.610405 0.940072
Si Si6 0.258366 0.535482 0.445517
Si Si7 0.336850 0.773561 0.542945
Si Si8 0.158845 0.374798 0.979480
O O1 0.129391 0.349083 0.750495
O O2 0.135800 0.274877 0.396241
O O3 0.004017 0.304634 0.494727
O O4 0.843219 0.018433 0.794043
O O5 0.133344 0.130918 0.134373
O O6 0.396271 0.455316 0.917051
O O7 0.571836 0.552998 0.922957
O O8 0.477445 0.632857 0.773784
O O9 0.469583 0.596495 0.127282
O O10 0.275206 0.935586 0.750826
O O11 0.353299 0.058213 0.495083
O O12 0.336972 0.110749 0.839777
O O13 0.728148 0.550251 0.907776
O O14 0.342998 0.609734 0.319970
O O15 0.275992 0.558006 0.679261
O O16 0.265123 0.782822 0.674856
#
# Coordination Sequence:
#
# PCOD9579961 Si02
#       8
#     6   6   6   6   6   6   6   6
#     4   9  16  29  54  91 131 173 241 292 370 452
#     4   8  17  25  47  86 131 165 229 297 353 444
#     4  10  23  40  67  99 153 204 263 318 409 467
#     4  11  21  40  64 102 143 202 253 316 391 468
#     4  11  20  36  68  99 148 200 247 322 389 474
#     4  10  22  42  68 106 155 209 264 334 393 489
#     4  10  21  42  65 104 152 204 261 327 398 469
#     4  11  20  38  65  99 149 195 250 318 383 475
#
# _framework density 27.685424000000001
#
# number of rings (size 3 to 8) (size 9 to 14) (size 15 to 20)
#    1.500    0.500    3.750    2.250    1.750    0.000 
#    4.500    1.250    0.000    0.000    3.250    0.000 
#    0.000    0.000    0.750    0.000    0.000    0.000 
#
# Total GULP energy -267473.140119 kJ/mol
# GULP energy per Si atom -5572.357086 kJ/mol
# Density = 2.762241 g / cm^3
# Si number density = 27.685424 Si / 1000 Ang^3
#
#
#
# Elastic Constant Matrix: (Units=GPa)
#
#
# Indices 1 2 3 4 5 6 
#
# 1 172.0918 80.7135 39.1305 0.0000 0.0000 0.0000
# 2 80.7135 172.0918 39.1305 0.0000 0.0000 0.0000
# 3 39.1305 39.1305 100.9973 0.0000 0.0000 0.0000
# 4 0.0000 0.0000 0.0000 42.5543 0.0000 0.0000
# 5 0.0000 0.0000 0.0000 0.0000 42.5543 0.0000
# 6 0.0000 0.0000 0.0000 0.0000 0.0000 45.6892
#
#
#
# Elastic Compliance Matrix: (Units=1/GPa)
#
#
# Indices 1 2 3 4 5 6 
#
# 1 0.007719 -0.003224 -0.001741 0.000000 0.000000 0.000000
# 2 -0.003224 0.007719 -0.001741 0.000000 0.000000 0.000000
# 3 -0.001741 -0.001741 0.011251 0.000000 0.000000 0.000000
# 4 0.000000 0.000000 0.000000 0.023499 0.000000 0.000000
# 5 0.000000 0.000000 0.000000 0.000000 0.023499 0.000000
# 6 0.000000 0.000000 0.000000 0.000000 0.000000 0.021887
#
#
# Mechanical properties :
#
#
# Convention : Reuss Voigt Hill
#
# Bulk Modulus (GPa) = 75.33331 84.79221 80.06276
# Shear Modulus (GPa) = 44.08625 45.23998 44.66311
#
# Velocity S-wave (km/s) = 3.99482 4.04675 4.02087
# Velocity P-wave (km/s) = 6.96761 7.24765 7.10901
#
# Compressibility (1/GPa) = 0.01327434
#
# Stress axis : x y z
#
# Youngs Moduli (GPa) = 129.54864 129.54864 88.88367
#
# Poissons Ratio (x) = 0.41772 0.15479
# Poissons Ratio (y) = 0.41772 0.15479
# Poissons Ratio (z) = 0.22560 0.22560
#
# Static dielectric constant tensor:
#      x y z
#    x 2.270450 0.000000 0.000000 
#    y 0.000000 2.270450 0.000000 
#    z 0.000000 0.000000 2.308510 
# 
# From -- ./inp_files/1082.got.cif
#   From: 2010.05.17/outbox.cif.g08.bks.cpg/sg169_cif.got.tgz:1082.got - 2010.05.20 11:12:54.
