data_PCOD9579728
_publ_section_title
;
Structure prediction by ZEFSAII (Michael W. Deem and Ramdas Pophale) SiO2 
 PCOD9579728
Probable space group: R -3 C 
;
_chemical_formula_sum "Si O2"
_cell_formula_units_Z 48
_cell_length_a 12.693292
_cell_length_b 12.693292
_cell_length_c 15.747050
_cell_angle_alpha 90.000000
_cell_angle_beta 90.000000
_cell_angle_gamma 120.000000
_cell_volume 2197.244468
_symmetry_space_group_name_H-M "R -3 C "
_symmetry_group_IT_number 167
_symmetry_cell_setting 'hexagonal'
loop_
_space_group_symop_operation_xyz
x,y,z
-y,x-y,z
-x+y,-x,z
x-y,-y,1/2-z
-x,-x+y,1/2-z
y,x,1/2-z
-x,-y,-z
y,-x+y,-z
x-y,x,-z
-x+y,y,1/2+z
x,x-y,1/2+z
-y,-x,1/2+z
2/3+x,1/3+y,1/3+z
2/3-y,1/3+x-y,1/3+z
2/3-x+y,1/3-x,1/3+z
2/3+x-y,1/3-y,5/6-z
2/3-x,1/3-x+y,5/6-z
2/3+y,1/3+x,5/6-z
2/3-x,1/3-y,1/3-z
2/3+y,1/3-x+y,1/3-z
2/3+x-y,1/3+x,1/3-z
2/3-x+y,1/3+y,5/6+z
2/3+x,1/3+x-y,5/6+z
2/3-y,1/3-x,5/6+z
1/3+x,2/3+y,2/3+z
1/3-y,2/3+x-y,2/3+z
1/3-x+y,2/3-x,2/3+z
1/3+x-y,2/3-y,1/6-z
1/3-x,2/3-x+y,1/6-z
1/3+y,2/3+x,1/6-z
1/3-x,2/3-y,2/3-z
1/3+y,2/3-x+y,2/3-z
1/3+x-y,2/3+x,2/3-z
1/3-x+y,2/3+y,1/6+z
1/3+x,2/3+x-y,1/6+z
1/3-y,2/3-x,1/6+z
loop_
_atom_site_type_symbol
_atom_site_label
_atom_site_fract_x
_atom_site_fract_y
_atom_site_fract_z
Si Si1 0.897152 0.309156 0.177698
Si Si2 0.333334 0.666668 0.563257
O O1 0.833334 0.166667 0.166667
O O2 0.793262 0.345232 0.196514
O O3 0.000000 0.365772 0.250000
O O4 0.949026 0.333334 0.083334
O O5 0.333335 0.666668 0.666667
#
# Coordination Sequence:
#
# PCOD9579728 Si02
#       2
#    36  12
#     4  12  26  46  71 104 145 193 248 312 384 466
#     4  12  25  44  73 108 148 197 251 314 391 480
#
# _framework density 21.845542999999999
#
# number of rings (size 3 to 8) (size 9 to 14) (size 15 to 20)
#    0.000    0.000    0.000   11.250    0.000    6.000 
#    0.000    0.000    0.000    0.000    0.000    0.000 
#    0.000    0.000    0.000    0.000    0.000    0.000 
#
# Total GULP energy -89201.943083 kJ/mol
# GULP energy per Si atom -5575.121443 kJ/mol
# Density = 2.179582 g / cm^3
# Si number density = 21.845543 Si / 1000 Ang^3
#
#
#
# Elastic Constant Matrix: (Units=GPa)
#
#
# Indices 1 2 3 4 5 6 
#
# 1 140.7656 36.4895 53.7912 25.1227 -0.0001 0.0000
# 2 36.4895 140.7633 53.7912 -25.1238 0.0001 0.0000
# 3 53.7912 53.7912 216.4572 0.0000 0.0000 0.0000
# 4 25.1227 -25.1238 0.0000 46.3753 0.0000 0.0001
# 5 -0.0001 0.0001 0.0000 0.0000 46.3755 25.1227
# 6 0.0000 0.0000 0.0000 0.0001 25.1227 52.1371
#
#
#
# Elastic Compliance Matrix: (Units=1/GPa)
#
#
# Indices 1 2 3 4 5 6 
#
# 1 0.009811 -0.003167 -0.001651 -0.007030 0.000000 0.000000
# 2 -0.003167 0.009811 -0.001651 0.007031 0.000000 0.000000
# 3 -0.001651 -0.001651 0.005440 0.000000 0.000000 0.000000
# 4 -0.007030 0.007031 0.000000 0.029181 0.000000 0.000000
# 5 0.000000 0.000000 0.000000 0.000000 0.029180 -0.014061
# 6 0.000000 0.000000 0.000000 0.000000 -0.014061 0.025955
#
#
# Mechanical properties :
#
#
# Convention : Reuss Voigt Hill
#
# Bulk Modulus (GPa) = 82.48258 87.34777 84.91517
# Shear Modulus (GPa) = 39.57023 52.57186 46.07105
#
# Velocity S-wave (km/s) = 4.26063 4.91096 4.59731
# Velocity P-wave (km/s) = 7.87674 8.49869 8.19362
#
# Compressibility (1/GPa) = 0.01212377
#
# Stress axis : x y z
#
# Youngs Moduli (GPa) = 101.93047 101.92733 183.80922
#
# Poissons Ratio (x) = 0.32281 0.30346
# Poissons Ratio (y) = 0.32282 0.30348
# Poissons Ratio (z) = 0.16828 0.16829
#
# Static dielectric constant tensor:
#      x y z
#    x 1.745630 0.000000 0.000000 
#    y 0.000000 1.745640 0.000000 
#    z 0.000000 0.000000 1.725110 
# 
# From -- ./inp_files/923.got.cif
#   From: 2010.05.17/outbox.cif.g08.bks.cpg/sg167_1_cif.got.tgz:923.got - 2010.05.20 11:09:15.
