data_PCOD9579088
_publ_section_title
;
Structure prediction by ZEFSAII (Michael W. Deem and Ramdas Pophale) SiO2 
 PCOD9579088
Probable space group: R -3 M
;
_chemical_formula_sum "Si O2"
_cell_formula_units_Z 216
_cell_length_a 25.787886
_cell_length_b 25.787886
_cell_length_c 20.624662
_cell_angle_alpha 90.000000
_cell_angle_beta 90.000000
_cell_angle_gamma 120.000000
_cell_volume 11878.154094
_symmetry_space_group_name_H-M "R -3 M"
_symmetry_group_IT_number 166
_symmetry_cell_setting 'hexagonal'
loop_
_space_group_symop_operation_xyz
x,y,z
-y,x-y,z
-x+y,-x,z
x-y,-y,-z
-x,-x+y,-z
y,x,-z
-x,-y,-z
y,-x+y,-z
x-y,x,-z
-x+y,y,z
x,x-y,z
-y,-x,z
2/3+x,1/3+y,1/3+z
2/3-y,1/3+x-y,1/3+z
2/3-x+y,1/3-x,1/3+z
2/3+x-y,1/3-y,1/3-z
2/3-x,1/3-x+y,1/3-z
2/3+y,1/3+x,1/3-z
2/3-x,1/3-y,1/3-z
2/3+y,1/3-x+y,1/3-z
2/3+x-y,1/3+x,1/3-z
2/3-x+y,1/3+y,1/3+z
2/3+x,1/3+x-y,1/3+z
2/3-y,1/3-x,1/3+z
1/3+x,2/3+y,2/3+z
1/3-y,2/3+x-y,2/3+z
1/3-x+y,2/3-x,2/3+z
1/3+x-y,2/3-y,2/3-z
1/3-x,2/3-x+y,2/3-z
1/3+y,2/3+x,2/3-z
1/3-x,2/3-y,2/3-z
1/3+y,2/3-x+y,2/3-z
1/3+x-y,2/3+x,2/3-z
1/3-x+y,2/3+y,2/3+z
1/3+x,2/3+x-y,2/3+z
1/3-y,2/3-x,2/3+z
loop_
_atom_site_type_symbol
_atom_site_label
_atom_site_fract_x
_atom_site_fract_y
_atom_site_fract_z
Si Si1 0.879524 0.643820 0.537863
Si Si2 0.954971 0.391906 0.411220
Si Si3 0.793246 0.037680 0.211430
Si Si4 0.496771 0.382831 0.889628
Si Si5 0.087845 0.345096 0.609133
Si Si6 0.620483 0.122710 0.679204
O O1 0.812909 0.625817 0.560162
O O2 0.899540 0.595741 0.552259
O O3 0.924615 0.709634 0.565319
O O4 0.882083 0.650557 0.459569
O O5 0.908276 0.382586 0.468099
O O6 0.953573 0.328186 0.405207
O O7 0.949853 0.409944 0.337920
O O8 0.020796 0.439258 0.435679
O O9 0.837621 0.043405 0.268132
O O10 0.560191 0.439810 0.872199
O O11 0.470715 0.333334 0.833334
O O12 0.500481 0.348858 0.952792
O O13 0.057646 0.276604 0.632756
O O14 0.563735 0.127471 0.702400
#
# Coordination Sequence:
#
# PCOD9579088 Si02
#       6
#    36  36  36  36  36  36
#     4  10  19  30  48  74 101 127 160 201 254 310
#     4   8  15  27  45  67  93 130 165 190 234 287
#     4   9  18  30  45  68  97 129 163 203 244 292
#     4  11  22  35  53  76 100 130 168 213 263 316
#     4   9  15  27  46  69  96 127 163 194 232 294
#     4  11  21  34  50  68  94 130 168 210 257 298
#
# _framework density 18.184643999999999
#
# number of rings (size 3 to 8) (size 9 to 14) (size 15 to 20)
#    0.000    2.333    1.667    2.000    2.333    2.667 
#    0.000    9.167    0.000    3.000    0.000    0.000 
#    0.000    0.000    0.000    0.000    0.000    0.000 
#
# Total GULP energy -400899.960539 kJ/mol
# GULP energy per Si atom -5568.055007 kJ/mol
# Density = 1.814326 g / cm^3
# Si number density = 18.184644 Si / 1000 Ang^3
#
#
#
# Elastic Constant Matrix: (Units=GPa)
#
#
# Indices 1 2 3 4 5 6 
#
# 1 21.1406 37.6537 7.2182 -15.7618 -0.0010 0.0000
# 2 37.6537 21.1406 7.2182 15.7618 0.0010 0.0000
# 3 7.2182 7.2182 63.0103 0.0000 0.0000 0.0000
# 4 -15.7618 15.7618 0.0000 -7.4190 0.0000 0.0010
# 5 -0.0010 0.0010 0.0000 0.0000 -7.4190 -15.7618
# 6 0.0000 0.0000 0.0000 0.0010 -15.7618 -8.2566
#
#
#
# Elastic Compliance Matrix: (Units=1/GPa)
#
#
# Indices 1 2 3 4 5 6 
#
# 1 0.018659 -0.001159 -0.002005 -0.042104 -0.000003 0.000000
# 2 -0.001159 0.018659 -0.002005 0.042104 0.000003 0.000000
# 3 -0.002005 -0.002005 0.016330 0.000000 0.000000 0.000000
# 4 -0.042104 0.042104 0.000000 0.044111 0.000000 0.000005
# 5 -0.000003 0.000003 0.000000 0.000000 0.044111 -0.084207
# 6 0.000000 0.000000 0.000000 0.000005 -0.084207 0.039636
#
#
# Mechanical properties :
#
#
# Convention : Reuss Voigt Hill
#
# Bulk Modulus (GPa) = 23.08834 23.27465 23.18149
# Shear Modulus (GPa) = 24.23888 -1.07216 11.58336
#
# Velocity S-wave (km/s) = 3.65489 -0.76868 2.52660
# Velocity P-wave (km/s) = 5.52586 3.46973 4.61379
#
# Compressibility (1/GPa) = 0.04331191
#
# Stress axis : x y z
#
# Youngs Moduli (GPa) = 53.59234 53.59234 61.23796
#
# Poissons Ratio (x) = 0.06210 0.12277
# Poissons Ratio (y) = 0.06210 0.12277
# Poissons Ratio (z) = 0.10744 0.10744
#
# Static dielectric constant tensor:
#      x y z
#    x 1.627000 0.000000 0.000000 
#    y 0.000000 1.627000 0.000000 
#    z 0.000000 0.000000 1.731870 
# 
# From -- ./inp_files/8626.got.cif
#   From: 2010.05.17/outbox.cif.g08.bks.cpg/sg166_5_cif.got.tgz:8626.got - 2010.05.20 11:04:41.
