data_PCOD9579942
_publ_section_title
;
Structure prediction by ZEFSAII (Michael W. Deem and Ramdas Pophale) SiO2 
 PCOD9579942
Probable space group: P 61
;
_chemical_formula_sum "Si O2"
_cell_formula_units_Z 36
_cell_length_a 8.838311
_cell_length_b 8.838311
_cell_length_c 28.416870
_cell_angle_alpha 90.000000
_cell_angle_beta 90.000000
_cell_angle_gamma 120.000000
_cell_volume 1922.407406
_symmetry_space_group_name_H-M "P 61"
_symmetry_group_IT_number 169
_symmetry_cell_setting 'hexagonal'
loop_
_space_group_symop_operation_xyz
x,y,z
x-y,x,1/6+z
-y,x-y,1/3+z
-x,-y,1/2+z
-x+y,-x,2/3+z
y,-x+y,5/6+z
loop_
_atom_site_type_symbol
_atom_site_label
_atom_site_fract_x
_atom_site_fract_y
_atom_site_fract_z
Si Si1 0.277195 0.139917 0.377710
Si Si2 0.394705 0.352013 0.811989
Si Si3 0.968470 0.523423 0.373579
Si Si4 0.291984 0.667187 0.159598
Si Si5 0.523355 0.196979 0.222061
Si Si6 0.000689 0.154511 0.814546
O O1 0.465175 0.172247 0.360762
O O2 0.295027 0.328535 0.384229
O O3 0.212156 0.040533 0.427069
O O4 0.139209 0.028601 0.337131
O O5 0.459997 0.363606 0.758792
O O6 0.382510 0.528359 0.819664
O O7 0.529477 0.358887 0.850329
O O8 0.198676 0.194010 0.817860
O O9 0.813657 0.355598 0.347988
O O10 0.144655 0.516786 0.379017
O O11 0.008882 0.695152 0.344272
O O12 0.207298 0.614436 0.108234
#
# Coordination Sequence:
#
# PCOD9579942 Si02
#       6
#     6   6   6   6   6   6
#     4  11  21  39  62  89 121 160 200 255 315 369
#     4   9  20  38  60  84 121 158 196 250 303 361
#     4  10  21  39  61  88 118 157 205 249 304 372
#     4   9  20  38  59  87 118 156 200 246 310 368
#     4  10  21  41  60  86 126 161 196 259 310 359
#     4  11  21  39  62  88 120 160 205 249 308 373
#
# _framework density 18.726517999999999
#
# number of rings (size 3 to 8) (size 9 to 14) (size 15 to 20)
#    0.000    2.000    3.333    0.000    2.333    0.000 
#    3.000    1.667    0.000    0.000    0.000    0.000 
#    0.000    0.000    0.000    0.000    0.000    0.000 
#
# Total GULP energy -200953.406930 kJ/mol
# GULP energy per Si atom -5582.039081 kJ/mol
# Density = 1.868390 g / cm^3
# Si number density = 18.726518 Si / 1000 Ang^3
#
#
#
# Elastic Constant Matrix: (Units=GPa)
#
#
# Indices 1 2 3 4 5 6 
#
# 1 65.7249 16.6623 29.3918 0.0000 0.0000 0.0000
# 2 16.6623 65.7249 29.3918 0.0000 0.0000 0.0000
# 3 29.3918 29.3918 114.5119 0.0000 0.0000 0.0000
# 4 0.0000 0.0000 0.0000 29.6283 0.0000 0.0000
# 5 0.0000 0.0000 0.0000 0.0000 29.6283 0.0000
# 6 0.0000 0.0000 0.0000 0.0000 0.0000 24.5313
#
#
#
# Elastic Compliance Matrix: (Units=1/GPa)
#
#
# Indices 1 2 3 4 5 6 
#
# 1 0.017621 -0.002762 -0.003814 0.000000 0.000000 0.000000
# 2 -0.002762 0.017621 -0.003814 0.000000 0.000000 0.000000
# 3 -0.003814 -0.003814 0.010691 0.000000 0.000000 0.000000
# 4 0.000000 0.000000 0.000000 0.033751 0.000000 0.000000
# 5 0.000000 0.000000 0.000000 0.000000 0.033751 0.000000
# 6 0.000000 0.000000 0.000000 0.000000 0.000000 0.040764
#
#
# Mechanical properties :
#
#
# Convention : Reuss Voigt Hill
#
# Bulk Modulus (GPa) = 39.75655 44.09485 41.92570
# Shear Modulus (GPa) = 27.26847 28.12530 27.69688
#
# Velocity S-wave (km/s) = 3.82008 3.87964 3.84997
# Velocity P-wave (km/s) = 6.38228 6.60807 6.49616
#
# Compressibility (1/GPa) = 0.02515309
#
# Stress axis : x y z
#
# Youngs Moduli (GPa) = 56.75179 56.75179 93.54065
#
# Poissons Ratio (x) = 0.15672 0.35675
# Poissons Ratio (y) = 0.15672 0.35675
# Poissons Ratio (z) = 0.21644 0.21644
#
# Static dielectric constant tensor:
#      x y z
#    x 1.638940 0.000000 0.000000 
#    y 0.000000 1.638940 0.000000 
#    z 0.000000 0.000000 1.640330 
# 
# From -- ./inp_files/1723.got.cif
#   From: 2010.05.17/outbox.cif.g08.bks.cpg/sg169_cif.got.tgz:1723.got - 2010.05.20 11:12:54.
