data_PCOD9579984
_publ_section_title
;
Structure prediction by ZEFSAII (Michael W. Deem and Ramdas Pophale) SiO2 
 PCOD9579984
Probable space group: P 61
;
_chemical_formula_sum "Si O2"
_cell_formula_units_Z 24
_cell_length_a 15.276273
_cell_length_b 15.276273
_cell_length_c 5.038035
_cell_angle_alpha 90.000000
_cell_angle_beta 90.000000
_cell_angle_gamma 120.000000
_cell_volume 1018.184858
_symmetry_space_group_name_H-M "P 61"
_symmetry_group_IT_number 169
_symmetry_cell_setting 'hexagonal'
loop_
_space_group_symop_operation_xyz
x,y,z
x-y,x,1/6+z
-y,x-y,1/3+z
-x,-y,1/2+z
-x+y,-x,2/3+z
y,-x+y,5/6+z
loop_
_atom_site_type_symbol
_atom_site_label
_atom_site_fract_x
_atom_site_fract_y
_atom_site_fract_z
Si Si1 0.390913 0.243531 0.482040
Si Si2 0.538807 0.976515 0.821935
Si Si3 0.262424 0.435532 0.150240
Si Si4 0.074238 0.850484 0.612090
O O1 0.385963 0.342419 0.553297
O O2 0.460697 0.225739 0.696089
O O3 0.282487 0.142094 0.519892
O O4 0.429649 0.250366 0.187177
O O5 0.513128 0.039448 0.607265
O O6 0.512013 0.877362 0.649122
O O7 0.235586 0.319242 0.105619
O O8 0.960496 0.821469 0.572088
#
# Coordination Sequence:
#
# PCOD9579984 Si02
#       4
#     6   6   6   6
#     4  10  22  41  67  93 142 178 217 289 347 399
#     4  12  24  40  70 106 128 178 248 282 342 430
#     4  10  22  41  67  93 142 178 217 289 347 399
#     4  10  22  40  62  96 142 184 224 264 336 414
#
# _framework density 23.571358
#
# number of rings (size 3 to 8) (size 9 to 14) (size 15 to 20)
#    1.500    0.000    0.000    6.000    3.500    0.000 
#    9.000    0.000    0.000   15.000    0.000    0.000 
#    0.000    0.000    0.000    0.000    0.000    0.000 
#
# Total GULP energy -133808.371484 kJ/mol
# GULP energy per Si atom -5575.348812 kJ/mol
# Density = 2.351771 g / cm^3
# Si number density = 23.571358 Si / 1000 Ang^3
#
#
#
# Elastic Constant Matrix: (Units=GPa)
#
#
# Indices 1 2 3 4 5 6 
#
# 1 27.4820 1.0854 -0.4336 0.0000 0.0000 0.0000
# 2 1.0854 27.4820 -0.4336 0.0000 0.0000 0.0000
# 3 -0.4336 -0.4336 117.9027 0.0000 0.0000 0.0000
# 4 0.0000 0.0000 0.0000 32.5713 0.0000 0.0000
# 5 0.0000 0.0000 0.0000 0.0000 32.5713 0.0000
# 6 0.0000 0.0000 0.0000 0.0000 0.0000 13.1983
#
#
#
# Elastic Compliance Matrix: (Units=1/GPa)
#
#
# Indices 1 2 3 4 5 6 
#
# 1 0.036446 -0.001437 0.000129 0.000000 0.000000 0.000000
# 2 -0.001437 0.036446 0.000129 0.000000 0.000000 0.000000
# 3 0.000129 0.000129 0.008483 0.000000 0.000000 0.000000
# 4 0.000000 0.000000 0.000000 0.030702 0.000000 0.000000
# 5 0.000000 0.000000 0.000000 0.000000 0.030702 0.000000
# 6 0.000000 0.000000 0.000000 0.000000 0.000000 0.075767
#
#
# Mechanical properties :
#
#
# Convention : Reuss Voigt Hill
#
# Bulk Modulus (GPa) = 12.65579 19.25588 15.95584
# Shear Modulus (GPa) = 20.22294 27.17811 23.70052
#
# Velocity S-wave (km/s) = 2.93225 3.39929 3.17437
# Velocity P-wave (km/s) = 4.10425 4.85735 4.49659
#
# Compressibility (1/GPa) = 0.07901522
#
# Stress axis : x y z
#
# Youngs Moduli (GPa) = 27.43769 27.43769 117.88949
#
# Poissons Ratio (x) = 0.03944 -0.01518
# Poissons Ratio (y) = 0.03944 -0.01518
# Poissons Ratio (z) = -0.00353 -0.00353
#
# Static dielectric constant tensor:
#      x y z
#    x 1.915800 0.000000 0.000000 
#    y 0.000000 1.915800 0.000000 
#    z 0.000000 0.000000 1.899010 
# 
# From -- ./inp_files/77.got.cif
#   From: 2010.05.17/outbox.cif.g08.bks.cpg/sg169_cif.got.tgz:77.got - 2010.05.20 11:12:54.
