data_PCOD9579852
_publ_section_title
;
Structure prediction by ZEFSAII (Michael W. Deem and Ramdas Pophale) SiO2 
 PCOD9579852
Probable space group: P 61
;
_chemical_formula_sum "Si O2"
_cell_formula_units_Z 42
_cell_length_a 11.114069
_cell_length_b 11.114069
_cell_length_c 17.717842
_cell_angle_alpha 90.000000
_cell_angle_beta 90.000000
_cell_angle_gamma 120.000000
_cell_volume 1895.342206
_symmetry_space_group_name_H-M "P 61"
_symmetry_group_IT_number 169
_symmetry_cell_setting 'hexagonal'
loop_
_space_group_symop_operation_xyz
x,y,z
x-y,x,1/6+z
-y,x-y,1/3+z
-x,-y,1/2+z
-x+y,-x,2/3+z
y,-x+y,5/6+z
loop_
_atom_site_type_symbol
_atom_site_label
_atom_site_fract_x
_atom_site_fract_y
_atom_site_fract_z
Si Si1 0.518081 0.398013 0.838010
Si Si2 0.445560 0.828046 0.826086
Si Si3 0.233318 0.347773 0.795133
Si Si4 0.044596 0.067321 0.615229
Si Si5 0.898840 0.392345 0.180912
Si Si6 0.606260 0.802505 0.963068
Si Si7 0.401121 0.838598 0.511217
O O1 0.631503 0.472792 0.903224
O O2 0.369368 0.388346 0.843417
O O3 0.482783 0.237193 0.831007
O O4 0.576194 0.469502 0.757898
O O5 0.558768 0.854068 0.889695
O O6 0.324021 0.674176 0.841921
O O7 0.390514 0.938724 0.832010
O O8 0.128774 0.184577 0.786403
O O9 0.270785 0.412961 0.710926
O O10 0.149072 0.413431 0.833848
O O11 0.966309 0.994687 0.694231
O O12 0.089082 0.230046 0.622750
O O13 0.872370 0.509086 0.140599
O O14 0.898895 0.407177 0.271021
#
# Coordination Sequence:
#
# PCOD9579852 Si02
#       7
#     6   6   6   6   6   6   6
#     4  11  21  34  55  84 115 152 195 240 294 357
#     4  11  21  32  55  81 118 152 185 243 304 347
#     4  10  20  36  62  85 114 153 205 257 294 352
#     4  10  20  36  64  95 120 156 204 260 310 357
#     4  10  21  37  56  83 117 152 195 244 292 357
#     4  10  19  37  59  84 115 149 199 256 297 350
#     4  10  20  36  53  86 115 148 197 242 297 348
#
# _framework density 22.159586000000001
#
# number of rings (size 3 to 8) (size 9 to 14) (size 15 to 20)
#    0.000    1.714    1.429    6.000    0.000    0.000 
#    0.000    0.000    0.000   10.286    0.000    0.000 
#    0.000    0.000    0.000    0.000    0.000    0.000 
#
# Total GULP energy -234055.589724 kJ/mol
# GULP energy per Si atom -5572.752136 kJ/mol
# Density = 2.210915 g / cm^3
# Si number density = 22.159586 Si / 1000 Ang^3
#
#
#
# Elastic Constant Matrix: (Units=GPa)
#
#
# Indices 1 2 3 4 5 6 
#
# 1 28.7025 5.8785 2.9695 0.0000 0.0000 0.0000
# 2 5.8785 28.7025 2.9695 0.0000 0.0000 0.0000
# 3 2.9695 2.9695 136.9179 0.0000 0.0000 0.0000
# 4 0.0000 0.0000 0.0000 27.8624 0.0000 0.0000
# 5 0.0000 0.0000 0.0000 0.0000 27.8624 0.0000
# 6 0.0000 0.0000 0.0000 0.0000 0.0000 11.4120
#
#
#
# Elastic Compliance Matrix: (Units=1/GPa)
#
#
# Indices 1 2 3 4 5 6 
#
# 1 0.036420 -0.007394 -0.000630 0.000000 0.000000 0.000000
# 2 -0.007394 0.036420 -0.000630 0.000000 0.000000 0.000000
# 3 -0.000630 -0.000630 0.007331 0.000000 0.000000 0.000000
# 4 0.000000 0.000000 0.000000 0.035891 0.000000 0.000000
# 5 0.000000 0.000000 0.000000 0.000000 0.035891 0.000000
# 6 0.000000 0.000000 0.000000 0.000000 0.000000 0.087627
#
#
# Mechanical properties :
#
#
# Convention : Reuss Voigt Hill
#
# Bulk Modulus (GPa) = 15.90729 24.21755 20.06242
# Shear Modulus (GPa) = 17.99603 25.59441 21.79522
#
# Velocity S-wave (km/s) = 2.85285 3.40222 3.13957
# Velocity P-wave (km/s) = 4.24803 5.13672 4.71337
#
# Compressibility (1/GPa) = 0.06286426
#
# Stress axis : x y z
#
# Youngs Moduli (GPa) = 27.45775 27.45775 136.40792
#
# Poissons Ratio (x) = 0.20302 0.08587
# Poissons Ratio (y) = 0.20302 0.08587
# Poissons Ratio (z) = 0.01728 0.01728
#
# Static dielectric constant tensor:
#      x y z
#    x 1.846700 0.000000 0.000000 
#    y 0.000000 1.846700 0.000000 
#    z 0.000000 0.000000 1.909740 
# 
# From -- ./inp_files/1373.got.cif
#   From: 2010.05.17/outbox.cif.g08.bks.cpg/sg169_cif.got.tgz:1373.got - 2010.05.20 11:12:54.
