data_PCOD9579921
_publ_section_title
;
Structure prediction by ZEFSAII (Michael W. Deem and Ramdas Pophale) SiO2 
 PCOD9579921
Probable space group: P 61
;
_chemical_formula_sum "Si O2"
_cell_formula_units_Z 42
_cell_length_a 11.802602
_cell_length_b 11.802602
_cell_length_c 21.647652
_cell_angle_alpha 90.000000
_cell_angle_beta 90.000000
_cell_angle_gamma 120.000000
_cell_volume 2611.541636
_symmetry_space_group_name_H-M "P 61"
_symmetry_group_IT_number 169
_symmetry_cell_setting 'hexagonal'
loop_
_space_group_symop_operation_xyz
x,y,z
x-y,x,1/6+z
-y,x-y,1/3+z
-x,-y,1/2+z
-x+y,-x,2/3+z
y,-x+y,5/6+z
loop_
_atom_site_type_symbol
_atom_site_label
_atom_site_fract_x
_atom_site_fract_y
_atom_site_fract_z
Si Si1 0.784316 0.392158 0.141080
Si Si2 0.639886 0.037114 0.707114
Si Si3 0.199931 0.335327 0.196889
Si Si4 0.439942 0.886635 0.602267
Si Si5 0.602773 0.962887 0.408379
Si Si6 0.135396 0.335327 0.418604
Si Si7 0.446692 0.886635 0.013226
O O1 0.871683 0.492125 0.088000
O O2 0.692601 0.247145 0.113039
O O3 0.871683 0.379558 0.194160
O O4 0.692601 0.445456 0.169121
O O5 0.751096 0.114608 0.655536
O O6 0.507807 0.953053 0.666940
O O7 0.674846 0.937501 0.740923
O O8 0.308829 0.458997 0.236178
O O9 0.248905 0.363512 0.126624
O O10 0.216434 0.216434 0.224413
O O11 0.062499 0.325154 0.207904
O O12 0.445749 0.000000 0.557747
O O13 0.554753 0.046947 0.448553
O O14 0.150168 0.458997 0.379315
#
# Coordination Sequence:
#
# PCOD9579921 Si02
#       7
#     6   6   6   6   6   6   6
#     4  12  22  32  56  86 118 148 190 248 284 356
#     4  10  21  31  59  83 112 148 190 241 280 355
#     4   9  17  36  57  80 108 144 189 238 281 340
#     4   9  19  37  54  77 114 146 182 235 296 335
#     4  10  21  31  59  83 112 148 190 241 280 355
#     4   9  17  36  57  80 108 144 189 238 281 340
#     4   9  19  37  54  77 114 146 182 235 296 335
#
# _framework density 16.082453000000001
#
# number of rings (size 3 to 8) (size 9 to 14) (size 15 to 20)
#    0.000    2.857    2.857    2.571    4.000    4.571 
#    0.000    0.000    0.000    5.143    0.000    0.000 
#    0.000    0.000    0.000    0.000    0.000    0.000 
#
# Total GULP energy -234000.668180 kJ/mol
# GULP energy per Si atom -5571.444480 kJ/mol
# Density = 1.604585 g / cm^3
# Si number density = 16.082453 Si / 1000 Ang^3
#
#
#
# Elastic Constant Matrix: (Units=GPa)
#
#
# Indices 1 2 3 4 5 6 
#
# 1 113.9159 66.4997 74.5039 0.0000 0.0000 0.0000
# 2 66.4997 113.9159 74.5039 0.0000 0.0000 0.0000
# 3 74.5039 74.5039 110.9485 0.0000 0.0000 0.0000
# 4 0.0000 0.0000 0.0000 10.6072 0.0000 0.0000
# 5 0.0000 0.0000 0.0000 0.0000 10.6072 0.0000
# 6 0.0000 0.0000 0.0000 0.0000 0.0000 23.7081
#
#
#
# Elastic Compliance Matrix: (Units=1/GPa)
#
#
# Indices 1 2 3 4 5 6 
#
# 1 0.016767 -0.004322 -0.008357 0.000000 0.000000 0.000000
# 2 -0.004322 0.016767 -0.008357 0.000000 0.000000 0.000000
# 3 -0.008357 -0.008357 0.020237 0.000000 0.000000 0.000000
# 4 0.000000 0.000000 0.000000 0.094275 0.000000 0.000000
# 5 0.000000 0.000000 0.000000 0.000000 0.094275 0.000000
# 6 0.000000 0.000000 0.000000 0.000000 0.000000 0.042180
#
#
# Mechanical properties :
#
#
# Convention : Reuss Voigt Hill
#
# Bulk Modulus (GPa) = 85.47874 85.53279 85.50576
# Shear Modulus (GPa) = 15.12977 17.20270 16.16623
#
# Velocity S-wave (km/s) = 3.07051 3.27411 3.17394
# Velocity P-wave (km/s) = 8.11396 8.22146 8.16789
#
# Compressibility (1/GPa) = 0.01169882
#
# Stress axis : x y z
#
# Youngs Moduli (GPa) = 59.63968 59.63968 49.41472
#
# Poissons Ratio (x) = 0.25779 0.41296
# Poissons Ratio (y) = 0.25779 0.41296
# Poissons Ratio (z) = 0.49841 0.49841
#
# Static dielectric constant tensor:
#      x y z
#    x 1.540080 0.000000 0.000000 
#    y 0.000000 1.540080 0.000000 
#    z 0.000000 0.000000 1.549120 
# 
# From -- ./inp_files/1520.got.cif
#   From: 2010.05.17/outbox.cif.g08.bks.cpg/sg169_cif.got.tgz:1520.got - 2010.05.20 11:12:54.
