data_PCOD9579344
_publ_section_title
;
Structure prediction by ZEFSAII (Michael W. Deem and Ramdas Pophale) SiO2 
 PCOD9579344
Probable space group: R -3 M
;
_chemical_formula_sum "Si O2"
_cell_formula_units_Z 90
_cell_length_a 28.277896
_cell_length_b 28.277896
_cell_length_c 7.651470
_cell_angle_alpha 90.000000
_cell_angle_beta 90.000000
_cell_angle_gamma 120.000000
_cell_volume 5298.704463
_symmetry_space_group_name_H-M "R -3 M"
_symmetry_group_IT_number 166
_symmetry_cell_setting 'hexagonal'
loop_
_space_group_symop_operation_xyz
x,y,z
-y,x-y,z
-x+y,-x,z
x-y,-y,-z
-x,-x+y,-z
y,x,-z
-x,-y,-z
y,-x+y,-z
x-y,x,-z
-x+y,y,z
x,x-y,z
-y,-x,z
2/3+x,1/3+y,1/3+z
2/3-y,1/3+x-y,1/3+z
2/3-x+y,1/3-x,1/3+z
2/3+x-y,1/3-y,1/3-z
2/3-x,1/3-x+y,1/3-z
2/3+y,1/3+x,1/3-z
2/3-x,1/3-y,1/3-z
2/3+y,1/3-x+y,1/3-z
2/3+x-y,1/3+x,1/3-z
2/3-x+y,1/3+y,1/3+z
2/3+x,1/3+x-y,1/3+z
2/3-y,1/3-x,1/3+z
1/3+x,2/3+y,2/3+z
1/3-y,2/3+x-y,2/3+z
1/3-x+y,2/3-x,2/3+z
1/3+x-y,2/3-y,2/3-z
1/3-x,2/3-x+y,2/3-z
1/3+y,2/3+x,2/3-z
1/3-x,2/3-y,2/3-z
1/3+y,2/3-x+y,2/3-z
1/3+x-y,2/3+x,2/3-z
1/3-x+y,2/3+y,2/3+z
1/3+x,2/3+x-y,2/3+z
1/3-y,2/3-x,2/3+z
loop_
_atom_site_type_symbol
_atom_site_label
_atom_site_fract_x
_atom_site_fract_y
_atom_site_fract_z
Si Si1 0.423189 0.211595 0.255021
Si Si2 0.725288 0.766648 0.351656
Si Si3 0.461857 0.333334 0.333334
Si Si4 0.694553 0.847277 0.550987
O O1 0.459532 0.276863 0.280480
O O2 0.369460 0.184730 0.385498
O O3 0.395950 0.197975 0.063246
O O4 0.760873 0.760873 0.500000
O O5 0.666667 0.712602 0.333334
O O6 0.755280 0.775999 0.167564
O O7 0.711331 0.810675 0.435205
#
# Coordination Sequence:
#
# PCOD9579344 Si02
#       4
#    18  36  18  18
#     4  11  23  40  69  88 123 171 216 263 323 390
#     4  12  25  37  58  86 124 167 210 256 303 371
#     4  12  24  42  62  89 120 167 216 254 324 376
#     4  11  22  43  60  89 128 168 208 265 318 371
#
# _framework density 16.985285000000001
#
# number of rings (size 3 to 8) (size 9 to 14) (size 15 to 20)
#    0.000    0.400    8.000    1.800    2.800    0.000 
#    0.000    0.000    0.000    0.400    0.000    0.000 
#    0.000    3.200    0.000    0.000    0.000    0.000 
#
# Total GULP energy -167134.634458 kJ/mol
# GULP energy per Si atom -5571.154482 kJ/mol
# Density = 1.694663 g / cm^3
# Si number density = 16.985285 Si / 1000 Ang^3
#
#
#
# Elastic Constant Matrix: (Units=GPa)
#
#
# Indices 1 2 3 4 5 6 
#
# 1 115.2237 62.2282 50.0475 -1.2804 0.0989 0.0097
# 2 62.2282 115.1452 50.0182 1.3056 0.0575 -0.0083
# 3 50.0475 50.0182 158.4089 0.0515 0.1718 0.0008
# 4 -1.2804 1.3056 0.0515 27.3866 0.0373 -0.0006
# 5 0.0989 0.0575 0.1718 0.0373 27.4556 -1.3034
# 6 0.0097 -0.0083 0.0008 -0.0006 -1.3034 26.4560
#
#
#
# Elastic Compliance Matrix: (Units=1/GPa)
#
#
# Indices 1 2 3 4 5 6 
#
# 1 0.012889 -0.006034 -0.002167 0.000894 -0.000022 -0.000008
# 2 -0.006034 0.012897 -0.002165 -0.000893 0.000010 0.000007
# 3 -0.002167 -0.002165 0.007681 -0.000012 -0.000036 -0.000002
# 4 0.000894 -0.000893 -0.000012 0.036599 -0.000051 -0.000002
# 5 -0.000022 0.000010 -0.000036 -0.000051 0.036508 0.001799
# 6 -0.000008 0.000007 -0.000002 -0.000002 0.001799 0.037887
#
#
# Mechanical properties :
#
#
# Convention : Reuss Voigt Hill
#
# Bulk Modulus (GPa) = 78.53493 79.26285 78.89889
# Shear Modulus (GPa) = 29.50920 31.35857 30.43388
#
# Velocity S-wave (km/s) = 4.17266 4.30143 4.23753
# Velocity P-wave (km/s) = 8.33980 8.45202 8.39610
#
# Compressibility (1/GPa) = 0.01273319
#
# Stress axis : x y z
#
# Youngs Moduli (GPa) = 77.58605 77.53974 130.18829
#
# Poissons Ratio (x) = 0.46791 0.28212
# Poissons Ratio (y) = 0.46818 0.28191
# Poissons Ratio (z) = 0.16813 0.16790
#
# Static dielectric constant tensor:
#      x y z
#    x 1.235100 0.001100 -0.000300 
#    y 0.001100 1.235210 0.000110 
#    z -0.000300 0.000110 1.613010 
# 
# From -- ./inp_files/1289.got.cif
#   From: 2010.05.17/outbox.cif.g08.bks.cpg/sg166_1_cif.got.tgz:1289.got - 2010.05.20 11:04:41.
