data_PCOD9579934
_publ_section_title
;
Structure prediction by ZEFSAII (Michael W. Deem and Ramdas Pophale) SiO2 
 PCOD9579934
Probable space group: P 61
;
_chemical_formula_sum "Si O2"
_cell_formula_units_Z 36
_cell_length_a 17.738061
_cell_length_b 17.738061
_cell_length_c 6.620409
_cell_angle_alpha 90.000000
_cell_angle_beta 90.000000
_cell_angle_gamma 120.000000
_cell_volume 1803.963476
_symmetry_space_group_name_H-M "P 61"
_symmetry_group_IT_number 169
_symmetry_cell_setting 'hexagonal'
loop_
_space_group_symop_operation_xyz
x,y,z
x-y,x,1/6+z
-y,x-y,1/3+z
-x,-y,1/2+z
-x+y,-x,2/3+z
y,-x+y,5/6+z
loop_
_atom_site_type_symbol
_atom_site_label
_atom_site_fract_x
_atom_site_fract_y
_atom_site_fract_z
Si Si1 0.156582 0.318149 0.731820
Si Si2 0.881951 0.568871 0.518302
Si Si3 0.327115 0.032388 0.887280
Si Si4 0.561962 0.815097 0.684963
Si Si5 0.371418 0.749582 0.601221
Si Si6 0.143424 0.960882 0.089441
O O1 0.209086 0.383830 0.550790
O O2 0.089262 0.226657 0.631203
O O3 0.108934 0.359119 0.858347
O O4 0.225380 0.315981 0.883910
O O5 0.818122 0.562853 0.699356
O O6 0.831737 0.474790 0.414944
O O7 0.975544 0.610366 0.622611
O O8 0.389191 0.094688 0.062142
O O9 0.230073 0.973557 0.978240
O O10 0.461441 0.783758 0.722914
O O11 0.292088 0.673329 0.727626
O O12 0.056105 0.898975 0.965594
#
# Coordination Sequence:
#
# PCOD9579934 Si02
#       6
#     6   6   6   6   6   6
#     4  11  21  40  65  83 117 175 205 246 321 378
#     4  10  21  37  63  91 122 160 208 260 311 380
#     4  11  22  41  59  89 125 163 212 254 313 381
#     4  10  21  40  62  86 124 163 208 255 317 386
#     4  10  21  40  65  97 126 161 209 263 314 379
#     4  12  24  40  60  88 120 158 208 260 308 366
#
# _framework density 19.956057000000001
#
# number of rings (size 3 to 8) (size 9 to 14) (size 15 to 20)
#    0.000    1.333    3.333    3.000    0.000    1.333 
#    3.000    0.000    0.000    0.000    0.000    0.000 
#    0.000    0.000    0.000    0.000    0.000    0.000 
#
# Total GULP energy -201061.535770 kJ/mol
# GULP energy per Si atom -5585.042660 kJ/mol
# Density = 1.991064 g / cm^3
# Si number density = 19.956057 Si / 1000 Ang^3
#
#
#
# Elastic Constant Matrix: (Units=GPa)
#
#
# Indices 1 2 3 4 5 6 
#
# 1 43.5412 12.2563 -6.6474 0.0000 0.0000 0.0000
# 2 12.2563 43.5412 -6.6474 0.0000 0.0000 0.0000
# 3 -6.6474 -6.6474 47.9869 0.0000 0.0000 0.0000
# 4 0.0000 0.0000 0.0000 20.5726 0.0000 0.0000
# 5 0.0000 0.0000 0.0000 0.0000 20.5726 0.0000
# 6 0.0000 0.0000 0.0000 0.0000 0.0000 15.6425
#
#
#
# Elastic Compliance Matrix: (Units=1/GPa)
#
#
# Indices 1 2 3 4 5 6 
#
# 1 0.025249 -0.006715 0.002567 0.000000 0.000000 0.000000
# 2 -0.006715 0.025249 0.002567 0.000000 0.000000 0.000000
# 3 0.002567 0.002567 0.021550 0.000000 0.000000 0.000000
# 4 0.000000 0.000000 0.000000 0.048608 0.000000 0.000000
# 5 0.000000 0.000000 0.000000 0.000000 0.048608 0.000000
# 6 0.000000 0.000000 0.000000 0.000000 0.000000 0.063929
#
#
# Mechanical properties :
#
#
# Convention : Reuss Voigt Hill
#
# Bulk Modulus (GPa) = 14.51646 14.77690 14.64668
# Shear Modulus (GPa) = 19.28143 20.43140 19.85642
#
# Velocity S-wave (km/s) = 3.11174 3.20319 3.15780
# Velocity P-wave (km/s) = 4.49450 4.59362 4.54433
#
# Compressibility (1/GPa) = 0.06888731
#
# Stress axis : x y z
#
# Youngs Moduli (GPa) = 39.60557 39.60557 46.40300
#
# Poissons Ratio (x) = 0.26596 -0.11913
# Poissons Ratio (y) = 0.26596 -0.11913
# Poissons Ratio (z) = -0.10168 -0.10168
#
# Static dielectric constant tensor:
#      x y z
#    x 1.708970 0.000000 0.000000 
#    y 0.000000 1.708970 0.000000 
#    z 0.000000 0.000000 1.687160 
# 
# From -- ./inp_files/259.got.cif
#   From: 2010.05.17/outbox.cif.g08.bks.cpg/sg169_cif.got.tgz:259.got - 2010.05.20 11:12:54.
