data_PCOD9579976
_publ_section_title
;
Structure prediction by ZEFSAII (Michael W. Deem and Ramdas Pophale) SiO2 
 PCOD9579976
Probable space group: P 61
;
_chemical_formula_sum "Si O2"
_cell_formula_units_Z 42
_cell_length_a 11.439698
_cell_length_b 11.439698
_cell_length_c 16.437940
_cell_angle_alpha 90.000000
_cell_angle_beta 90.000000
_cell_angle_gamma 120.000000
_cell_volume 1862.975492
_symmetry_space_group_name_H-M "P 61"
_symmetry_group_IT_number 169
_symmetry_cell_setting 'hexagonal'
loop_
_space_group_symop_operation_xyz
x,y,z
x-y,x,1/6+z
-y,x-y,1/3+z
-x,-y,1/2+z
-x+y,-x,2/3+z
y,-x+y,5/6+z
loop_
_atom_site_type_symbol
_atom_site_label
_atom_site_fract_x
_atom_site_fract_y
_atom_site_fract_z
Si Si1 0.230104 0.415304 0.921040
Si Si2 0.725143 0.157016 0.846497
Si Si3 0.350586 0.692145 0.124538
Si Si4 0.611020 0.674518 0.827652
Si Si5 0.079345 0.982382 0.107866
Si Si6 0.233922 0.238571 0.643089
Si Si7 0.516529 0.609766 0.395348
O O1 0.271921 0.548570 0.866164
O O2 0.126839 0.289635 0.865092
O O3 0.366404 0.411117 0.932441
O O4 0.154317 0.418927 0.001022
O O5 0.660387 0.239625 0.882630
O O6 0.709687 0.126022 0.752051
O O7 0.695808 0.027073 0.899073
O O8 0.885408 0.248231 0.861775
O O9 0.339657 0.825384 0.109219
O O10 0.200658 0.568907 0.131053
O O11 0.754464 0.794654 0.796632
O O12 0.585471 0.523971 0.842672
O O13 0.082997 0.085117 0.176908
O O14 0.923673 0.857512 0.120363
#
# Coordination Sequence:
#
# PCOD9579976 Si02
#       7
#     6   6   6   6   6   6   6
#     4  10  23  42  69  94 128 175 227 278 335 408
#     4  11  21  37  64 102 122 174 225 285 336 408
#     4  10  22  37  62  93 131 164 215 273 343 410
#     4  11  22  38  63  94 133 172 222 283 340 414
#     4  12  22  37  62 101 138 179 233 295 353 411
#     4  11  19  36  64  96 128 169 239 275 328 411
#     4  11  23  43  66  94 132 173 221 277 345 412
#
# _framework density 22.544578000000001
#
# number of rings (size 3 to 8) (size 9 to 14) (size 15 to 20)
#    0.000    1.143    2.857    5.143    2.000    0.000 
#    0.000    1.429    0.000    0.000    0.000    0.000 
#    0.000    0.000    0.000    0.000    0.000    0.000 
#
# Total GULP energy -234426.527455 kJ/mol
# GULP energy per Si atom -5581.583987 kJ/mol
# Density = 2.249327 g / cm^3
# Si number density = 22.544578 Si / 1000 Ang^3
#
#
#
# Elastic Constant Matrix: (Units=GPa)
#
#
# Indices 1 2 3 4 5 6 
#
# 1 93.1534 25.9371 15.0159 0.0000 0.0000 0.0000
# 2 25.9371 93.1534 15.0159 0.0000 0.0000 0.0000
# 3 15.0159 15.0159 68.5045 0.0000 0.0000 0.0000
# 4 0.0000 0.0000 0.0000 24.0056 0.0000 0.0000
# 5 0.0000 0.0000 0.0000 0.0000 24.0056 0.0000
# 6 0.0000 0.0000 0.0000 0.0000 0.0000 33.6082
#
#
#
# Elastic Compliance Matrix: (Units=1/GPa)
#
#
# Indices 1 2 3 4 5 6 
#
# 1 0.011883 -0.002995 -0.001948 0.000000 0.000000 0.000000
# 2 -0.002995 0.011883 -0.001948 0.000000 0.000000 0.000000
# 3 -0.001948 -0.001948 0.015452 0.000000 0.000000 0.000000
# 4 0.000000 0.000000 0.000000 0.041657 0.000000 0.000000
# 5 0.000000 0.000000 0.000000 0.000000 0.041657 0.000000
# 6 0.000000 0.000000 0.000000 0.000000 0.000000 0.029755
#
#
# Mechanical properties :
#
#
# Convention : Reuss Voigt Hill
#
# Bulk Modulus (GPa) = 39.31565 40.74990 40.03277
# Shear Modulus (GPa) = 28.64567 29.58003 29.11285
#
# Velocity S-wave (km/s) = 3.56845 3.62618 3.59743
# Velocity P-wave (km/s) = 5.86987 5.97049 5.92039
#
# Compressibility (1/GPa) = 0.02543516
#
# Stress axis : x y z
#
# Youngs Moduli (GPa) = 84.15517 84.15517 64.71780
#
# Poissons Ratio (x) = 0.25200 0.12609
# Poissons Ratio (y) = 0.25200 0.12609
# Poissons Ratio (z) = 0.16396 0.16396
#
# Static dielectric constant tensor:
#      x y z
#    x 1.874600 0.000000 0.000000 
#    y 0.000000 1.874600 0.000000 
#    z 0.000000 0.000000 1.885560 
# 
# From -- ./inp_files/1390.got.cif
#   From: 2010.05.17/outbox.cif.g08.bks.cpg/sg169_cif.got.tgz:1390.got - 2010.05.20 11:12:54.
