data_PCOD9579543
_publ_section_title
;
Structure prediction by ZEFSAII (Michael W. Deem and Ramdas Pophale) SiO2 
 PCOD9579543
Probable space group: R -3 C 
;
_chemical_formula_sum "Si O2"
_cell_formula_units_Z 162
_cell_length_a 20.587196
_cell_length_b 20.587196
_cell_length_c 21.901489
_cell_angle_alpha 90.000000
_cell_angle_beta 90.000000
_cell_angle_gamma 120.000000
_cell_volume 8038.937868
_symmetry_space_group_name_H-M "R -3 C "
_symmetry_group_IT_number 167
_symmetry_cell_setting 'hexagonal'
loop_
_space_group_symop_operation_xyz
x,y,z
-y,x-y,z
-x+y,-x,z
x-y,-y,1/2-z
-x,-x+y,1/2-z
y,x,1/2-z
-x,-y,-z
y,-x+y,-z
x-y,x,-z
-x+y,y,1/2+z
x,x-y,1/2+z
-y,-x,1/2+z
2/3+x,1/3+y,1/3+z
2/3-y,1/3+x-y,1/3+z
2/3-x+y,1/3-x,1/3+z
2/3+x-y,1/3-y,5/6-z
2/3-x,1/3-x+y,5/6-z
2/3+y,1/3+x,5/6-z
2/3-x,1/3-y,1/3-z
2/3+y,1/3-x+y,1/3-z
2/3+x-y,1/3+x,1/3-z
2/3-x+y,1/3+y,5/6+z
2/3+x,1/3+x-y,5/6+z
2/3-y,1/3-x,5/6+z
1/3+x,2/3+y,2/3+z
1/3-y,2/3+x-y,2/3+z
1/3-x+y,2/3-x,2/3+z
1/3+x-y,2/3-y,1/6-z
1/3-x,2/3-x+y,1/6-z
1/3+y,2/3+x,1/6-z
1/3-x,2/3-y,2/3-z
1/3+y,2/3-x+y,2/3-z
1/3+x-y,2/3+x,2/3-z
1/3-x+y,2/3+y,1/6+z
1/3+x,2/3+x-y,1/6+z
1/3-y,2/3-x,1/6+z
loop_
_atom_site_type_symbol
_atom_site_label
_atom_site_fract_x
_atom_site_fract_y
_atom_site_fract_z
Si Si1 0.333334 0.890590 0.916667
Si Si2 0.795179 0.308507 0.255406
Si Si3 0.622036 0.695429 0.790378
Si Si4 0.105488 0.514626 0.456702
Si Si5 0.532610 0.174845 0.774813
O O1 0.336999 0.938757 0.858199
O O2 0.407241 0.883481 0.929863
O O3 0.810867 0.277328 0.193621
O O4 0.705759 0.262279 0.268612
O O5 0.830530 0.397620 0.249619
O O6 0.820878 0.297676 0.322651
O O7 0.654431 0.654431 0.750000
O O8 0.685062 0.782891 0.788716
O O9 0.542888 0.676293 0.762943
O O10 0.151910 0.485244 0.416667
#
# Coordination Sequence:
#
# PCOD9579543 Si02
#       5
#    18  36  36  36  36
#     4  12  24  44  74  94 138 178 220 284 338 398
#     4  10  21  39  66  95 133 164 218 272 336 402
#     4  11  26  43  65  96 133 179 232 272 334 398
#     4  11  25  44  64 100 135 176 225 275 336 404
#     4  10  21  40  67  98 128 173 214 277 337 398
#
# _framework density 20.151914999999999
#
# number of rings (size 3 to 8) (size 9 to 14) (size 15 to 20)
#    0.000    1.333    2.222    2.444    3.111    3.556 
#    0.667    0.000    0.000    0.000    0.000    0.000 
#    0.000    0.000    0.000    0.000    0.000    0.000 
#
# Total GULP energy -301191.567419 kJ/mol
# GULP energy per Si atom -5577.621619 kJ/mol
# Density = 2.010605 g / cm^3
# Si number density = 20.151915 Si / 1000 Ang^3
#
#
#
# Elastic Constant Matrix: (Units=GPa)
#
#
# Indices 1 2 3 4 5 6 
#
# 1 110.8489 61.2522 65.3963 3.3386 0.0002 0.0000
# 2 61.2522 110.8489 65.3963 -3.3386 -0.0002 0.0000
# 3 65.3963 65.3963 161.2486 0.0000 0.0000 0.0000
# 4 3.3386 -3.3386 0.0000 32.1852 0.0000 -0.0002
# 5 0.0002 -0.0002 0.0000 0.0000 32.1852 3.3386
# 6 0.0000 0.0000 0.0000 -0.0002 3.3386 24.7984
#
#
#
# Elastic Compliance Matrix: (Units=1/GPa)
#
#
# Indices 1 2 3 4 5 6 
#
# 1 0.014424 -0.006024 -0.003406 -0.002121 0.000000 0.000000
# 2 -0.006024 0.014424 -0.003406 0.002121 0.000000 0.000000
# 3 -0.003406 -0.003406 0.008965 0.000000 0.000000 0.000000
# 4 -0.002121 0.002121 0.000000 0.031510 0.000000 0.000000
# 5 0.000000 0.000000 0.000000 0.000000 0.031510 -0.004242
# 6 0.000000 0.000000 0.000000 0.000000 -0.004242 0.040896
#
#
# Mechanical properties :
#
#
# Convention : Reuss Voigt Hill
#
# Bulk Modulus (GPa) = 82.38898 85.22623 83.80760
# Shear Modulus (GPa) = 29.16311 30.56054 29.86183
#
# Velocity S-wave (km/s) = 3.80829 3.89846 3.85364
# Velocity P-wave (km/s) = 7.76596 7.91503 7.84085
#
# Compressibility (1/GPa) = 0.01213755
#
# Stress axis : x y z
#
# Youngs Moduli (GPa) = 69.33000 69.33000 111.54897
#
# Poissons Ratio (x) = 0.41767 0.37999
# Poissons Ratio (y) = 0.41767 0.37999
# Poissons Ratio (z) = 0.23617 0.23617
#
# Static dielectric constant tensor:
#      x y z
#    x 1.737700 0.000000 0.000000 
#    y 0.000000 1.737700 0.000000 
#    z 0.000000 0.000000 1.741250 
# 
# From -- ./inp_files/4408.got.cif
#   From: 2010.05.17/outbox.cif.g08.bks.cpg/sg167_3_cif.got.tgz:4408.got - 2010.05.20 11:09:15.
