data_PCOD9579416
_publ_section_title
;
Structure prediction by ZEFSAII (Michael W. Deem and Ramdas Pophale) SiO2 
 PCOD9579416
Probable space group: R -3 C 
;
_chemical_formula_sum "Si O2"
_cell_formula_units_Z 126
_cell_length_a 25.473339
_cell_length_b 25.473339
_cell_length_c 13.338474
_cell_angle_alpha 90.000000
_cell_angle_beta 90.000000
_cell_angle_gamma 120.000000
_cell_volume 7495.636697
_symmetry_space_group_name_H-M "R -3 C "
_symmetry_group_IT_number 167
_symmetry_cell_setting 'hexagonal'
loop_
_space_group_symop_operation_xyz
x,y,z
-y,x-y,z
-x+y,-x,z
x-y,-y,1/2-z
-x,-x+y,1/2-z
y,x,1/2-z
-x,-y,-z
y,-x+y,-z
x-y,x,-z
-x+y,y,1/2+z
x,x-y,1/2+z
-y,-x,1/2+z
2/3+x,1/3+y,1/3+z
2/3-y,1/3+x-y,1/3+z
2/3-x+y,1/3-x,1/3+z
2/3+x-y,1/3-y,5/6-z
2/3-x,1/3-x+y,5/6-z
2/3+y,1/3+x,5/6-z
2/3-x,1/3-y,1/3-z
2/3+y,1/3-x+y,1/3-z
2/3+x-y,1/3+x,1/3-z
2/3-x+y,1/3+y,5/6+z
2/3+x,1/3+x-y,5/6+z
2/3-y,1/3-x,5/6+z
1/3+x,2/3+y,2/3+z
1/3-y,2/3+x-y,2/3+z
1/3-x+y,2/3-x,2/3+z
1/3+x-y,2/3-y,1/6-z
1/3-x,2/3-x+y,1/6-z
1/3+y,2/3+x,1/6-z
1/3-x,2/3-y,2/3-z
1/3+y,2/3-x+y,2/3-z
1/3+x-y,2/3+x,2/3-z
1/3-x+y,2/3+y,1/6+z
1/3+x,2/3+x-y,1/6+z
1/3-y,2/3-x,1/6+z
loop_
_atom_site_type_symbol
_atom_site_label
_atom_site_fract_x
_atom_site_fract_y
_atom_site_fract_z
Si Si1 0.666667 0.930875 0.083334
Si Si2 0.825175 0.072149 0.250151
Si Si3 0.849056 0.574630 0.012015
Si Si4 0.281300 0.220110 0.033426
O O1 0.696681 0.913629 0.175067
O O2 0.612519 0.940959 0.120245
O O3 0.893006 0.115204 0.286230
O O4 0.818031 0.084189 0.134876
O O5 0.799087 0.000000 0.250000
O O6 0.876829 0.543496 0.083334
O O7 0.892286 0.647428 0.020488
O O8 0.850760 0.569930 0.891556
#
# Coordination Sequence:
#
# PCOD9579416 Si02
#       4
#    18  36  36  36
#     4  10  18  34  52  78 110 142 170 206 274 332
#     4  10  22  35  50  73 107 142 175 218 267 314
#     4  11  21  33  52  78 103 137 185 219 258 316
#     4  10  20  32  54  76 107 139 168 214 267 331
#
# _framework density 16.80978
#
# number of rings (size 3 to 8) (size 9 to 14) (size 15 to 20)
#    0.000    1.714    1.429    4.286    8.000    4.571 
#    0.000    0.000    0.000    0.571    0.000    0.000 
#    0.000   11.429    0.000    0.000    0.000    0.000 
#
# Total GULP energy -234015.520091 kJ/mol
# GULP energy per Si atom -5571.798097 kJ/mol
# Density = 1.677152 g / cm^3
# Si number density = 16.809780 Si / 1000 Ang^3
#
#
#
# Elastic Constant Matrix: (Units=GPa)
#
#
# Indices 1 2 3 4 5 6 
#
# 1 45.8462 41.7136 44.4073 -1.1021 -0.0001 0.0000
# 2 41.7136 45.8462 44.4073 1.1021 0.0001 0.0000
# 3 44.4073 44.4073 144.6263 0.0000 0.0000 0.0000
# 4 -1.1021 1.1021 0.0000 13.3078 0.0000 0.0001
# 5 -0.0001 0.0001 0.0000 0.0000 13.3078 -1.1021
# 6 0.0000 0.0000 0.0000 0.0001 -1.1021 2.0663
#
#
#
# Elastic Compliance Matrix: (Units=1/GPa)
#
#
# Indices 1 2 3 4 5 6 
#
# 1 0.134872 -0.118285 -0.005093 0.020965 0.000003 0.000000
# 2 -0.118285 0.134872 -0.005093 -0.020965 -0.000003 0.000000
# 3 -0.005093 -0.005093 0.010042 0.000000 0.000000 0.000000
# 4 0.020965 -0.020965 0.000000 0.078616 0.000000 -0.000005
# 5 0.000003 -0.000003 0.000000 0.000000 0.078616 0.041930
# 6 0.000000 0.000000 0.000000 -0.000005 0.041930 0.506313
#
#
# Mechanical properties :
#
#
# Convention : Reuss Voigt Hill
#
# Bulk Modulus (GPa) = 43.77593 55.26389 49.51991
# Shear Modulus (GPa) = 4.13946 12.78909 8.46428
#
# Velocity S-wave (km/s) = 1.57095 2.76128 2.24639
# Velocity P-wave (km/s) = 5.42116 6.56609 6.02090
#
# Compressibility (1/GPa) = 0.02284360
#
# Stress axis : x y z
#
# Youngs Moduli (GPa) = 7.41446 7.41446 99.58259
#
# Poissons Ratio (x) = 0.87702 0.50717
# Poissons Ratio (y) = 0.87702 0.50716
# Poissons Ratio (z) = 0.03776 0.03776
#
# Static dielectric constant tensor:
#      x y z
#    x 1.556960 0.000000 0.000000 
#    y 0.000000 1.556960 0.000000 
#    z 0.000000 0.000000 1.679700 
# 
# From -- ./inp_files/1400.got.cif
#   From: 2010.05.17/outbox.cif.g08.bks.cpg/sg167_1_cif.got.tgz:1400.got - 2010.05.20 11:09:15.
