data_PCOD9579122
_publ_section_title
;
Structure prediction by ZEFSAII (Michael W. Deem and Ramdas Pophale) SiO2 
 PCOD9579122
Probable space group: R -3 M
;
_chemical_formula_sum "Si O2"
_cell_formula_units_Z 216
_cell_length_a 26.773203
_cell_length_b 26.773203
_cell_length_c 20.093006
_cell_angle_alpha 90.000000
_cell_angle_beta 90.000000
_cell_angle_gamma 120.000000
_cell_volume 12473.151790
_symmetry_space_group_name_H-M "R -3 M"
_symmetry_group_IT_number 166
_symmetry_cell_setting 'hexagonal'
loop_
_space_group_symop_operation_xyz
x,y,z
-y,x-y,z
-x+y,-x,z
x-y,-y,-z
-x,-x+y,-z
y,x,-z
-x,-y,-z
y,-x+y,-z
x-y,x,-z
-x+y,y,z
x,x-y,z
-y,-x,z
2/3+x,1/3+y,1/3+z
2/3-y,1/3+x-y,1/3+z
2/3-x+y,1/3-x,1/3+z
2/3+x-y,1/3-y,1/3-z
2/3-x,1/3-x+y,1/3-z
2/3+y,1/3+x,1/3-z
2/3-x,1/3-y,1/3-z
2/3+y,1/3-x+y,1/3-z
2/3+x-y,1/3+x,1/3-z
2/3-x+y,1/3+y,1/3+z
2/3+x,1/3+x-y,1/3+z
2/3-y,1/3-x,1/3+z
1/3+x,2/3+y,2/3+z
1/3-y,2/3+x-y,2/3+z
1/3-x+y,2/3-x,2/3+z
1/3+x-y,2/3-y,2/3-z
1/3-x,2/3-x+y,2/3-z
1/3+y,2/3+x,2/3-z
1/3-x,2/3-y,2/3-z
1/3+y,2/3-x+y,2/3-z
1/3+x-y,2/3+x,2/3-z
1/3-x+y,2/3+y,2/3+z
1/3+x,2/3+x-y,2/3+z
1/3-y,2/3-x,2/3+z
loop_
_atom_site_type_symbol
_atom_site_label
_atom_site_fract_x
_atom_site_fract_y
_atom_site_fract_z
Si Si1 0.047375 0.213282 0.057449
Si Si2 0.975046 0.831695 0.695277
Si Si3 0.700451 0.910790 0.268553
Si Si4 0.219703 0.667995 0.831172
Si Si5 0.505787 0.375668 0.770641
Si Si6 0.772448 0.666287 0.455226
O O1 0.106784 0.213568 0.039607
O O2 0.021583 0.171597 0.121589
O O3 0.063774 0.277922 0.077792
O O4 0.000000 0.187344 0.000000
O O5 0.916521 0.833041 0.679427
O O6 0.955061 0.767543 0.721345
O O7 0.004468 0.873124 0.757991
O O8 0.012788 0.844115 0.629721
O O9 0.694732 0.847366 0.267478
O O10 0.666667 0.912381 0.333334
O O11 0.676386 0.916702 0.197877
O O12 0.236985 0.618493 0.824790
O O13 0.271096 0.728905 0.807296
O O14 0.565947 0.434054 0.783681
O O15 0.489539 0.333334 0.833334
O O16 0.456822 0.393889 0.763481
O O17 0.832177 0.664353 0.456962
#
# Coordination Sequence:
#
# PCOD9579122 Si02
#       6
#    36  36  36  36  36  36
#     4  10  19  34  56  80 110 147 186 226 275 333
#     4  10  19  33  53  79 110 145 183 225 272 329
#     4   9  15  27  50  75  97 126 168 221 274 315
#     4  10  19  32  52  80 113 147 187 230 273 323
#     4  11  22  36  55  79 109 146 186 227 275 330
#     4   9  18  34  52  74 102 134 176 226 275 320
#
# _framework density 17.317195000000002
#
# number of rings (size 3 to 8) (size 9 to 14) (size 15 to 20)
#    0.000    2.167    1.667    2.667    0.000    2.667 
#    0.000    2.500    0.000    6.667    0.000    4.667 
#    0.000    0.000    0.000    0.000    0.000    0.000 
#
# Total GULP energy -401540.810387 kJ/mol
# GULP energy per Si atom -5576.955700 kJ/mol
# Density = 1.727778 g / cm^3
# Si number density = 17.317195 Si / 1000 Ang^3
#
#
#
# Elastic Constant Matrix: (Units=GPa)
#
#
# Indices 1 2 3 4 5 6 
#
# 1 74.6210 33.3402 36.5705 -1.6109 0.0000 0.0000
# 2 33.3402 74.6210 36.5705 1.6109 0.0000 0.0000
# 3 36.5705 36.5705 94.4119 0.0000 0.0000 0.0000
# 4 -1.6109 1.6109 0.0000 24.0501 0.0000 0.0000
# 5 0.0000 0.0000 0.0000 0.0000 24.0501 -1.6109
# 6 0.0000 0.0000 0.0000 0.0000 -1.6109 20.6404
#
#
#
# Elastic Compliance Matrix: (Units=1/GPa)
#
#
# Indices 1 2 3 4 5 6 
#
# 1 0.018455 -0.005897 -0.004864 0.001631 0.000000 0.000000
# 2 -0.005897 0.018455 -0.004864 -0.001631 0.000000 0.000000
# 3 -0.004864 -0.004864 0.014360 0.000000 0.000000 0.000000
# 4 0.001631 -0.001631 0.000000 0.041798 0.000000 0.000000
# 5 0.000000 0.000000 0.000000 0.000000 0.041798 0.003262
# 6 0.000000 0.000000 0.000000 0.000000 0.003262 0.048703
#
#
# Mechanical properties :
#
#
# Convention : Reuss Voigt Hill
#
# Bulk Modulus (GPa) = 49.95263 50.73515 50.34389
# Shear Modulus (GPa) = 22.57396 22.89297 22.73346
#
# Velocity S-wave (km/s) = 3.61440 3.63985 3.62715
# Velocity P-wave (km/s) = 6.80638 6.85754 6.83201
#
# Compressibility (1/GPa) = 0.02001897
#
# Stress axis : x y z
#
# Youngs Moduli (GPa) = 54.18621 54.18621 69.63631
#
# Poissons Ratio (x) = 0.31953 0.33874
# Poissons Ratio (y) = 0.31953 0.33874
# Poissons Ratio (z) = 0.26358 0.26358
#
# Static dielectric constant tensor:
#      x y z
#    x 1.582970 0.000000 0.000000 
#    y 0.000000 1.582970 0.000000 
#    z 0.000000 0.000000 1.573430 
# 
# From -- ./inp_files/7152.got.cif
#   From: 2010.05.17/outbox.cif.g08.bks.cpg/sg166_4_cif.got.tgz:7152.got - 2010.05.20 11:04:41.
