data_PCOD9579058
_publ_section_title
;
Structure prediction by ZEFSAII (Michael W. Deem and Ramdas Pophale) SiO2 
 PCOD9579058
Probable space group: R -3 M
;
_chemical_formula_sum "Si O2"
_cell_formula_units_Z 126
_cell_length_a 16.769580
_cell_length_b 16.769580
_cell_length_c 27.777275
_cell_angle_alpha 90.000000
_cell_angle_beta 90.000000
_cell_angle_gamma 120.000000
_cell_volume 6764.950786
_symmetry_space_group_name_H-M "R -3 M"
_symmetry_group_IT_number 166
_symmetry_cell_setting 'hexagonal'
loop_
_space_group_symop_operation_xyz
x,y,z
-y,x-y,z
-x+y,-x,z
x-y,-y,-z
-x,-x+y,-z
y,x,-z
-x,-y,-z
y,-x+y,-z
x-y,x,-z
-x+y,y,z
x,x-y,z
-y,-x,z
2/3+x,1/3+y,1/3+z
2/3-y,1/3+x-y,1/3+z
2/3-x+y,1/3-x,1/3+z
2/3+x-y,1/3-y,1/3-z
2/3-x,1/3-x+y,1/3-z
2/3+y,1/3+x,1/3-z
2/3-x,1/3-y,1/3-z
2/3+y,1/3-x+y,1/3-z
2/3+x-y,1/3+x,1/3-z
2/3-x+y,1/3+y,1/3+z
2/3+x,1/3+x-y,1/3+z
2/3-y,1/3-x,1/3+z
1/3+x,2/3+y,2/3+z
1/3-y,2/3+x-y,2/3+z
1/3-x+y,2/3-x,2/3+z
1/3+x-y,2/3-y,2/3-z
1/3-x,2/3-x+y,2/3-z
1/3+y,2/3+x,2/3-z
1/3-x,2/3-y,2/3-z
1/3+y,2/3-x+y,2/3-z
1/3+x-y,2/3+x,2/3-z
1/3-x+y,2/3+y,2/3+z
1/3+x,2/3+x-y,2/3+z
1/3-y,2/3-x,2/3+z
loop_
_atom_site_type_symbol
_atom_site_label
_atom_site_fract_x
_atom_site_fract_y
_atom_site_fract_z
Si Si1 0.516641 0.849986 0.224752
Si Si2 0.367975 0.047003 0.241586
Si Si3 0.666667 0.518187 0.333334
Si Si4 0.667085 0.147164 0.145455
O O1 0.413189 0.826377 0.235408
O O2 0.532262 0.766131 0.238355
O O3 0.528857 0.862191 0.166667
O O4 0.589055 0.946903 0.247284
O O5 0.412749 0.106659 0.288552
O O6 0.434333 0.098354 0.196173
O O7 0.267674 0.029280 0.226807
O O8 0.753633 0.507266 0.347029
O O9 0.568461 0.136922 0.135681
O O10 0.747220 0.252781 0.148083
#
# Coordination Sequence:
#
# PCOD9579058 Si02
#       4
#    36  36  18  36
#     4  10  18  31  53  83 116 150 189 236 284 334
#     4  11  22  37  60  83 115 154 193 236 287 346
#     4  12  25  42  61  86 116 152 194 240 287 338
#     4  11  21  37  59  86 114 147 188 237 289 345
#
# _framework density 18.625412000000001
#
# number of rings (size 3 to 8) (size 9 to 14) (size 15 to 20)
#    0.000    1.143    2.857    7.571    0.000    1.143 
#    0.000    5.714    0.000    0.000    0.000    4.000 
#    0.000    0.000    0.000    0.000    0.000    0.000 
#
# Total GULP energy -234769.670193 kJ/mol
# GULP energy per Si atom -5589.754052 kJ/mol
# Density = 1.858302 g / cm^3
# Si number density = 18.625412 Si / 1000 Ang^3
#
#
#
# Elastic Constant Matrix: (Units=GPa)
#
#
# Indices 1 2 3 4 5 6 
#
# 1 112.0967 46.6586 29.5906 -1.4033 0.0002 0.0000
# 2 46.6586 112.0967 29.5906 1.4033 -0.0002 0.0000
# 3 29.5906 29.5906 59.9219 0.0000 0.0000 0.0000
# 4 -1.4033 1.4033 0.0000 13.7012 0.0000 -0.0002
# 5 0.0002 -0.0002 0.0000 0.0000 13.7012 -1.4033
# 6 0.0000 0.0000 0.0000 -0.0002 -1.4033 32.7191
#
#
#
# Elastic Compliance Matrix: (Units=1/GPa)
#
#
# Indices 1 2 3 4 5 6 
#
# 1 0.011535 -0.003814 -0.003812 0.001572 0.000000 0.000000
# 2 -0.003814 0.011535 -0.003812 -0.001572 0.000000 0.000000
# 3 -0.003812 -0.003812 0.020454 0.000000 0.000000 0.000000
# 4 0.001572 -0.001572 0.000000 0.073308 0.000000 0.000000
# 5 0.000000 0.000000 0.000000 0.000000 0.073308 0.003144
# 6 0.000000 0.000000 0.000000 0.000000 0.003144 0.030698
#
#
# Mechanical properties :
#
#
# Convention : Reuss Voigt Hill
#
# Bulk Modulus (GPa) = 48.43904 55.08834 51.76369
# Shear Modulus (GPa) = 19.95229 23.90932 21.93081
#
# Velocity S-wave (km/s) = 3.27653 3.58675 3.43515
# Velocity P-wave (km/s) = 6.35434 6.84063 6.60197
#
# Compressibility (1/GPa) = 0.02064451
#
# Stress axis : x y z
#
# Youngs Moduli (GPa) = 86.69558 86.69558 48.89097
#
# Poissons Ratio (x) = 0.33069 0.18639
# Poissons Ratio (y) = 0.33069 0.18639
# Poissons Ratio (z) = 0.33052 0.33052
#
# Static dielectric constant tensor:
#      x y z
#    x 1.638310 0.000000 0.000000 
#    y 0.000000 1.638310 0.000000 
#    z 0.000000 0.000000 1.614960 
# 
# From -- ./inp_files/9145.got.cif
#   From: 2010.05.17/outbox.cif.g08.bks.cpg/sg166_5_cif.got.tgz:9145.got - 2010.05.20 11:04:41.
