data_PCOD9579253
_publ_section_title
;
Structure prediction by ZEFSAII (Michael W. Deem and Ramdas Pophale) SiO2 
 PCOD9579253
Probable space group: R -3 M
;
_chemical_formula_sum "Si O2"
_cell_formula_units_Z 126
_cell_length_a 21.203424
_cell_length_b 21.203424
_cell_length_c 17.530442
_cell_angle_alpha 90.000000
_cell_angle_beta 90.000000
_cell_angle_gamma 120.000000
_cell_volume 6825.516074
_symmetry_space_group_name_H-M "R -3 M"
_symmetry_group_IT_number 166
_symmetry_cell_setting 'hexagonal'
loop_
_space_group_symop_operation_xyz
x,y,z
-y,x-y,z
-x+y,-x,z
x-y,-y,-z
-x,-x+y,-z
y,x,-z
-x,-y,-z
y,-x+y,-z
x-y,x,-z
-x+y,y,z
x,x-y,z
-y,-x,z
2/3+x,1/3+y,1/3+z
2/3-y,1/3+x-y,1/3+z
2/3-x+y,1/3-x,1/3+z
2/3+x-y,1/3-y,1/3-z
2/3-x,1/3-x+y,1/3-z
2/3+y,1/3+x,1/3-z
2/3-x,1/3-y,1/3-z
2/3+y,1/3-x+y,1/3-z
2/3+x-y,1/3+x,1/3-z
2/3-x+y,1/3+y,1/3+z
2/3+x,1/3+x-y,1/3+z
2/3-y,1/3-x,1/3+z
1/3+x,2/3+y,2/3+z
1/3-y,2/3+x-y,2/3+z
1/3-x+y,2/3-x,2/3+z
1/3+x-y,2/3-y,2/3-z
1/3-x,2/3-x+y,2/3-z
1/3+y,2/3+x,2/3-z
1/3-x,2/3-y,2/3-z
1/3+y,2/3-x+y,2/3-z
1/3+x-y,2/3+x,2/3-z
1/3-x+y,2/3+y,2/3+z
1/3+x,2/3+x-y,2/3+z
1/3-y,2/3-x,2/3+z
loop_
_atom_site_type_symbol
_atom_site_label
_atom_site_fract_x
_atom_site_fract_y
_atom_site_fract_z
Si Si1 0.180200 0.666667 0.166667
Si Si2 0.527538 0.912334 0.011185
Si Si3 0.932625 0.538340 0.544470
Si Si4 0.999670 0.855653 0.082913
O O1 0.187850 0.593925 0.180934
O O2 0.124965 0.645337 0.094141
O O3 0.444157 0.888314 0.989334
O O4 0.568380 0.887166 0.953195
O O5 0.571503 0.000000 0.000000
O O6 0.954116 0.477058 0.562921
O O7 0.868886 0.506757 0.482531
O O8 0.000000 0.603490 0.500000
O O9 0.078726 0.921275 0.100285
O O10 0.941706 0.883412 0.074344
O O11 0.000000 0.822976 0.000000
#
# Coordination Sequence:
#
# PCOD9579253 Si02
#       4
#    18  36  36  36
#     4  10  21  40  66  94 121 152 196 252 310 360
#     4  10  22  39  59  85 114 151 193 237 291 348
#     4  10  21  36  54  79 111 147 187 230 276 329
#     4   9  17  31  52  79 108 139 175 219 271 326
#
# _framework density 18.460142999999999
#
# number of rings (size 3 to 8) (size 9 to 14) (size 15 to 20)
#    0.000    2.286    0.000    2.143    2.000    2.286 
#    0.000    0.000    0.000    9.143    0.000    0.000 
#    0.000    0.000    0.000    0.000    0.000    0.000 
#
# Total GULP energy -233836.635877 kJ/mol
# GULP energy per Si atom -5567.538949 kJ/mol
# Density = 1.841813 g / cm^3
# Si number density = 18.460143 Si / 1000 Ang^3
#
#
#
# Elastic Constant Matrix: (Units=GPa)
#
#
# Indices 1 2 3 4 5 6 
#
# 1 73.9144 38.8056 54.2569 -3.1629 0.0001 0.0000
# 2 38.8056 73.9144 54.2569 3.1629 -0.0001 0.0000
# 3 54.2569 54.2569 112.7871 0.0000 0.0000 0.0000
# 4 -3.1629 3.1629 0.0000 24.2527 0.0000 -0.0001
# 5 0.0001 -0.0001 0.0000 0.0000 24.2527 -3.1629
# 6 0.0000 0.0000 0.0000 -0.0001 -3.1629 17.5544
#
#
#
# Elastic Compliance Matrix: (Units=1/GPa)
#
#
# Indices 1 2 3 4 5 6 
#
# 1 0.022846 -0.006322 -0.007949 0.003804 0.000000 0.000000
# 2 -0.006322 0.022846 -0.007949 -0.003804 0.000000 0.000000
# 3 -0.007949 -0.007949 0.016514 0.000000 0.000000 0.000000
# 4 0.003804 -0.003804 0.000000 0.042225 0.000000 0.000000
# 5 0.000000 0.000000 0.000000 0.000000 0.042225 0.007608
# 6 0.000000 0.000000 0.000000 0.000000 0.007608 0.058337
#
#
# Mechanical properties :
#
#
# Convention : Reuss Voigt Hill
#
# Bulk Modulus (GPa) = 56.28705 61.69495 58.99100
# Shear Modulus (GPa) = 19.58067 20.76507 20.17287
#
# Velocity S-wave (km/s) = 3.26037 3.35753 3.30931
# Velocity P-wave (km/s) = 6.68810 6.96591 6.82842
#
# Compressibility (1/GPa) = 0.01776608
#
# Stress axis : x y z
#
# Youngs Moduli (GPa) = 43.77127 43.77127 60.55496
#
# Poissons Ratio (x) = 0.27673 0.48134
# Poissons Ratio (y) = 0.27673 0.48134
# Poissons Ratio (z) = 0.34793 0.34793
#
# Static dielectric constant tensor:
#      x y z
#    x 1.653740 0.000000 0.000000 
#    y 0.000000 1.653740 0.000000 
#    z 0.000000 0.000000 1.630250 
# 
# From -- ./inp_files/4894.got.cif
#   From: 2010.05.17/outbox.cif.g08.bks.cpg/sg166_3_cif.got.tgz:4894.got - 2010.05.20 11:04:41.
