data_PCOD9579755
_publ_section_title
;
Structure prediction by ZEFSAII (Michael W. Deem and Ramdas Pophale) SiO2 
 PCOD9579755
Probable space group: P 6
;
_chemical_formula_sum "Si O2"
_cell_formula_units_Z 42
_cell_length_a 10.779483
_cell_length_b 10.779483
_cell_length_c 19.166772
_cell_angle_alpha 90.000000
_cell_angle_beta 90.000000
_cell_angle_gamma 120.000000
_cell_volume 1928.747927
_symmetry_space_group_name_H-M "P 6"
_symmetry_group_IT_number 168
_symmetry_cell_setting 'hexagonal'
loop_
_space_group_symop_operation_xyz
x,y,z
x-y,x,z
-y,x-y,z
-x,-y,z
-x+y,-x,z
y,-x+y,z
loop_
_atom_site_type_symbol
_atom_site_label
_atom_site_fract_x
_atom_site_fract_y
_atom_site_fract_z
Si Si1 0.927293 0.254708 0.639910
Si Si2 0.672585 0.927295 0.187123
Si Si3 0.663936 0.493904 0.776932
Si Si4 0.258360 0.322393 0.913517
Si Si5 0.493903 0.829970 0.050102
Si Si6 0.746926 0.671673 0.488161
Si Si7 0.328327 0.075252 0.338872
O O1 0.898637 0.329312 0.704627
O O2 0.908803 0.308998 0.563517
O O3 0.086017 0.276455 0.644090
O O4 0.723545 0.809565 0.182943
O O5 0.599806 0.908805 0.263516
O O6 0.569325 0.898640 0.122407
O O7 0.532851 0.332201 0.779112
O O8 0.673709 0.582812 0.844739
O O9 0.276088 0.184450 0.913518
O O10 0.326295 0.417192 0.982294
O O11 0.332199 0.799348 0.047923
O O12 0.724645 0.808827 0.488152
O O13 0.687969 0.594141 0.413517
O O14 0.275355 0.191172 0.338881
#
# Coordination Sequence:
#
# PCOD9579755 Si02
#       7
#     6   6   6   6   6   6   6
#     4  10  19  32  54  82 113 144 178 230 286 334
#     4  10  19  32  54  82 113 144 178 230 286 334
#     4  10  24  42  57  83 106 149 196 222 253 301
#     4  12  25  42  66  92 117 138 164 216 278 332
#     4  10  24  42  57  83 106 149 196 222 253 301
#     4   8  13  22  40  70 106 141 175 215 272 336
#     4   8  13  22  40  70 106 141 175 215 272 336
#
# _framework density 21.775784000000002
#
# number of rings (size 3 to 8) (size 9 to 14) (size 15 to 20)
#    0.571    1.714    0.000    3.286    0.000    9.143 
#    0.000    2.857    0.000    1.714    0.000    8.000 
#    0.000    0.000    0.000    0.000    0.000    0.000 
#
# Total GULP energy -234444.246163 kJ/mol
# GULP energy per Si atom -5582.005861 kJ/mol
# Density = 2.172622 g / cm^3
# Si number density = 21.775784 Si / 1000 Ang^3
#
#
#
# Elastic Constant Matrix: (Units=GPa)
#
#
# Indices 1 2 3 4 5 6 
#
# 1 81.0722 14.7507 51.1365 0.0000 0.0000 0.0000
# 2 14.7507 81.0722 51.1365 0.0000 0.0000 0.0000
# 3 51.1365 51.1365 238.6581 0.0000 0.0000 0.0000
# 4 0.0000 0.0000 0.0000 -38.8159 0.0000 0.0000
# 5 0.0000 0.0000 0.0000 0.0000 -38.8159 0.0000
# 6 0.0000 0.0000 0.0000 0.0000 0.0000 33.1608
#
#
#
# Elastic Compliance Matrix: (Units=1/GPa)
#
#
# Indices 1 2 3 4 5 6 
#
# 1 0.014304 -0.000774 -0.002899 0.000000 0.000000 0.000000
# 2 -0.000774 0.014304 -0.002899 0.000000 0.000000 0.000000
# 3 -0.002899 -0.002899 0.005432 0.000000 0.000000 0.000000
# 4 0.000000 0.000000 0.000000 -0.025763 0.000000 0.000000
# 5 0.000000 0.000000 0.000000 0.000000 -0.025763 0.000000
# 6 0.000000 0.000000 0.000000 0.000000 0.000000 0.030156
#
#
# Mechanical properties :
#
#
# Convention : Reuss Voigt Hill
#
# Bulk Modulus (GPa) = 47.85501 70.53889 59.19695
# Shear Modulus (GPa) = 152.52690 10.02438 81.27564
#
# Velocity S-wave (km/s) = 8.37833 2.14789 6.11595
# Velocity P-wave (km/s) = 10.75263 6.21409 8.78163
#
# Compressibility (1/GPa) = 0.02089645
#
# Stress axis : x y z
#
# Youngs Moduli (GPa) = 69.91006 69.91006 184.07936
#
# Poissons Ratio (x) = 0.05411 0.53366
# Poissons Ratio (y) = 0.05411 0.53366
# Poissons Ratio (z) = 0.20267 0.20267
#
# Static dielectric constant tensor:
#      x y z
#    x 1.772410 0.000000 0.000000 
#    y 0.000000 1.772410 0.000000 
#    z 0.000000 0.000000 1.822870 
# 
# From -- ./inp_files/476.got.cif
#   From: 2010.05.17/outbox.cif.g08.bks.cpg/sg168_cif.got.tgz:476.got - 2010.05.20 11:12:33.
