data_PCOD9579747
_publ_section_title
;
Structure prediction by ZEFSAII (Michael W. Deem and Ramdas Pophale) SiO2 
 PCOD9579747
Probable space group: P 6
;
_chemical_formula_sum "Si O2"
_cell_formula_units_Z 40
_cell_length_a 14.391649
_cell_length_b 14.391649
_cell_length_c 12.351099
_cell_angle_alpha 90.000000
_cell_angle_beta 90.000000
_cell_angle_gamma 120.000000
_cell_volume 2215.426526
_symmetry_space_group_name_H-M "P 6"
_symmetry_group_IT_number 168
_symmetry_cell_setting 'hexagonal'
loop_
_space_group_symop_operation_xyz
x,y,z
x-y,x,z
-y,x-y,z
-x,-y,z
-x+y,-x,z
y,-x+y,z
loop_
_atom_site_type_symbol
_atom_site_label
_atom_site_fract_x
_atom_site_fract_y
_atom_site_fract_z
Si Si1 0.333334 0.666667 0.513456
Si Si2 0.109655 0.515912 0.008010
Si Si3 0.270399 0.469443 0.107162
Si Si4 0.729601 0.530556 0.663143
Si Si5 0.182063 0.247842 0.012417
Si Si6 0.666668 0.333334 0.256850
Si Si7 0.890345 0.484088 0.762295
Si Si8 0.065779 0.817937 0.757887
O O1 0.239794 0.688963 0.560571
O O2 0.333334 0.666667 0.385153
O O3 0.157497 0.457088 0.075268
O O4 0.187406 0.643234 0.016762
O O5 0.000000 0.500000 0.055736
O O6 0.091764 0.477864 0.885152
O O7 0.250735 0.349917 0.091252
O O8 0.311037 0.550831 0.209734
O O9 0.842503 0.542912 0.695037
O O10 0.643234 0.455828 0.753543
O O11 0.749265 0.650083 0.679052
O O12 0.206166 0.150758 0.027717
O O13 0.207272 0.282992 0.885152
O O14 0.000000 0.500000 0.714569
O O15 0.944592 0.793834 0.742586
#
# Coordination Sequence:
#
# PCOD9579747 Si02
#       8
#     2   6   6   6   6   2   6   6
#     4   9  21  39  55  74  97 123 165 219 274 326
#     4  10  18  27  42  68 100 129 158 194 238 294
#     4  10  19  30  49  70  95 131 167 204 250 301
#     4  10  19  30  49  70  95 131 167 204 250 301
#     4  10  19  31  49  76 111 147 177 202 232 280
#     4   9  21  39  55  74  97 123 165 219 274 326
#     4  10  18  27  42  68 100 129 158 194 238 294
#     4  10  19  31  49  76 111 147 177 202 232 280
#
# _framework density 18.055213999999999
#
# number of rings (size 3 to 8) (size 9 to 14) (size 15 to 20)
#    0.000    2.100    0.000    5.400    0.000    6.000 
#    0.000    0.000    0.000   32.400    0.000    0.000 
#    0.000    2.400    0.000    0.000    0.000    0.000 
#
# Total GULP energy -222681.580062 kJ/mol
# GULP energy per Si atom -5567.039502 kJ/mol
# Density = 1.801412 g / cm^3
# Si number density = 18.055214 Si / 1000 Ang^3
#
#
#
# Elastic Constant Matrix: (Units=GPa)
#
#
# Indices 1 2 3 4 5 6 
#
# 1 88.1635 26.4068 26.2598 0.0000 0.0000 0.0000
# 2 26.4068 88.1636 26.2599 0.0000 0.0000 0.0000
# 3 26.2598 26.2599 63.1348 0.0000 0.0000 0.0000
# 4 0.0000 0.0000 0.0000 33.1738 0.0012 0.0000
# 5 0.0000 0.0000 0.0000 0.0012 33.1735 0.0000
# 6 0.0000 0.0000 0.0000 0.0000 0.0000 30.8784
#
#
#
# Elastic Compliance Matrix: (Units=1/GPa)
#
#
# Indices 1 2 3 4 5 6 
#
# 1 0.013489 -0.002704 -0.004486 0.000000 0.000000 0.000000
# 2 -0.002704 0.013489 -0.004486 0.000000 0.000000 0.000000
# 3 -0.004486 -0.004486 0.019571 0.000000 0.000000 0.000000
# 4 0.000000 0.000000 0.000000 0.030144 -0.000001 0.000000
# 5 0.000000 0.000000 0.000000 -0.000001 0.030145 0.000000
# 6 0.000000 0.000000 0.000000 0.000000 0.000000 0.032385
#
#
# Mechanical properties :
#
#
# Convention : Reuss Voigt Hill
#
# Bulk Modulus (GPa) = 43.10892 44.14609 43.62751
# Shear Modulus (GPa) = 29.35918 30.14751 29.75335
#
# Velocity S-wave (km/s) = 4.03684 4.09068 4.06385
# Velocity P-wave (km/s) = 6.75693 6.84216 6.79968
#
# Compressibility (1/GPa) = 0.02319705
#
# Stress axis : x y z
#
# Youngs Moduli (GPa) = 74.13702 74.13710 51.09711
#
# Poissons Ratio (x) = 0.20047 0.22920
# Poissons Ratio (y) = 0.20047 0.22920
# Poissons Ratio (z) = 0.33255 0.33255
#
# Static dielectric constant tensor:
#      x y z
#    x 1.702330 0.000000 0.000000 
#    y 0.000000 1.702330 0.000000 
#    z 0.000000 0.000000 1.585710 
# 
# From -- ./inp_files/399.got.cif
#   From: 2010.05.17/outbox.cif.g08.bks.cpg/sg168_cif.got.tgz:399.got - 2010.05.20 11:12:33.
