data_PCOD9579857
_publ_section_title
;
Structure prediction by ZEFSAII (Michael W. Deem and Ramdas Pophale) SiO2 
 PCOD9579857
Probable space group: P 61
;
_chemical_formula_sum "Si O2"
_cell_formula_units_Z 42
_cell_length_a 13.884413
_cell_length_b 13.884413
_cell_length_c 11.643662
_cell_angle_alpha 90.000000
_cell_angle_beta 90.000000
_cell_angle_gamma 120.000000
_cell_volume 1943.906038
_symmetry_space_group_name_H-M "P 61"
_symmetry_group_IT_number 169
_symmetry_cell_setting 'hexagonal'
loop_
_space_group_symop_operation_xyz
x,y,z
x-y,x,1/6+z
-y,x-y,1/3+z
-x,-y,1/2+z
-x+y,-x,2/3+z
y,-x+y,5/6+z
loop_
_atom_site_type_symbol
_atom_site_label
_atom_site_fract_x
_atom_site_fract_y
_atom_site_fract_z
Si Si1 0.850593 0.820658 0.586670
Si Si2 0.417691 0.125563 0.991620
Si Si3 0.493848 0.990094 0.625197
Si Si4 0.182111 0.308091 0.399115
Si Si5 0.733879 0.413179 0.509074
Si Si6 0.784242 0.306598 0.927133
Si Si7 0.099124 0.389621 0.603420
O O1 0.968994 0.851416 0.638203
O O2 0.774707 0.688011 0.576675
O O3 0.790641 0.854904 0.686598
O O4 0.521658 0.235597 0.945393
O O5 0.377669 0.141122 0.116814
O O6 0.447614 0.030028 0.014702
O O7 0.463002 0.082364 0.588494
O O8 0.583227 0.045705 0.727368
O O9 0.406451 0.865403 0.665467
O O10 0.164947 0.379957 0.494329
O O11 0.264983 0.269601 0.450764
O O12 0.702755 0.451609 0.392140
O O13 0.643011 0.283454 0.530204
O O14 0.739391 0.185161 0.872465
#
# Coordination Sequence:
#
# PCOD9579857 Si02
#       7
#     6   6   6   6   6   6   6
#     4  10  19  38  65 100 135 180 245 294 352 435
#     4  10  23  43  72 100 137 185 242 290 366 430
#     4  11  25  46  73 103 139 196 233 304 368 429
#     4  10  20  40  71 101 131 185 237 293 348 435
#     4  12  27  50  70 108 145 192 241 306 369 446
#     4  12  28  48  71 108 149 187 249 299 371 445
#     4  11  24  43  70 104 134 189 239 292 362 430
#
# _framework density 21.605983999999999
#
# number of rings (size 3 to 8) (size 9 to 14) (size 15 to 20)
#    0.000    1.143    7.143    0.000    6.000    2.286 
#    5.143    2.857    0.000    0.000    0.000    0.000 
#    0.000    0.000    0.000    0.000    0.000    0.000 
#
# Total GULP energy -234693.844659 kJ/mol
# GULP energy per Si atom -5587.948682 kJ/mol
# Density = 2.155681 g / cm^3
# Si number density = 21.605984 Si / 1000 Ang^3
#
#
#
# Elastic Constant Matrix: (Units=GPa)
#
#
# Indices 1 2 3 4 5 6 
#
# 1 76.1018 12.3170 3.4326 0.0000 0.0000 0.0000
# 2 12.3170 76.1018 3.4326 0.0000 0.0000 0.0000
# 3 3.4326 3.4326 46.1142 0.0000 0.0000 0.0000
# 4 0.0000 0.0000 0.0000 19.7655 0.0000 0.0000
# 5 0.0000 0.0000 0.0000 0.0000 19.7655 0.0000
# 6 0.0000 0.0000 0.0000 0.0000 0.0000 31.8924
#
#
#
# Elastic Compliance Matrix: (Units=1/GPa)
#
#
# Indices 1 2 3 4 5 6 
#
# 1 0.013527 -0.002151 -0.000847 0.000000 0.000000 0.000000
# 2 -0.002151 0.013527 -0.000847 0.000000 0.000000 0.000000
# 3 -0.000847 -0.000847 0.021811 0.000000 0.000000 0.000000
# 4 0.000000 0.000000 0.000000 0.050593 0.000000 0.000000
# 5 0.000000 0.000000 0.000000 0.000000 0.050593 0.000000
# 6 0.000000 0.000000 0.000000 0.000000 0.000000 0.031355
#
#
# Mechanical properties :
#
#
# Convention : Reuss Voigt Hill
#
# Bulk Modulus (GPa) = 24.28634 26.29802 25.29218
# Shear Modulus (GPa) = 24.65233 26.22707 25.43970
#
# Velocity S-wave (km/s) = 3.38153 3.48786 3.43510
# Velocity P-wave (km/s) = 5.14891 5.33088 5.24068
#
# Compressibility (1/GPa) = 0.04117542
#
# Stress axis : x y z
#
# Youngs Moduli (GPa) = 73.92822 73.92822 45.84768
#
# Poissons Ratio (x) = 0.15903 0.03882
# Poissons Ratio (y) = 0.15903 0.03882
# Poissons Ratio (z) = 0.06260 0.06260
#
# Static dielectric constant tensor:
#      x y z
#    x 1.830770 0.000000 0.000000 
#    y 0.000000 1.830770 0.000000 
#    z 0.000000 0.000000 1.766330 
# 
# From -- ./inp_files/964.got.cif
#   From: 2010.05.17/outbox.cif.g08.bks.cpg/sg169_cif.got.tgz:964.got - 2010.05.20 11:12:54.
