data_PCOD9579803
_publ_section_title
;
Structure prediction by ZEFSAII (Michael W. Deem and Ramdas Pophale) SiO2 
 PCOD9579803
Probable space group: P 61
;
_chemical_formula_sum "Si O2"
_cell_formula_units_Z 48
_cell_length_a 12.004829
_cell_length_b 12.004829
_cell_length_c 17.342552
_cell_angle_alpha 90.000000
_cell_angle_beta 90.000000
_cell_angle_gamma 120.000000
_cell_volume 2164.490049
_symmetry_space_group_name_H-M "P 61"
_symmetry_group_IT_number 169
_symmetry_cell_setting 'hexagonal'
loop_
_space_group_symop_operation_xyz
x,y,z
x-y,x,1/6+z
-y,x-y,1/3+z
-x,-y,1/2+z
-x+y,-x,2/3+z
y,-x+y,5/6+z
loop_
_atom_site_type_symbol
_atom_site_label
_atom_site_fract_x
_atom_site_fract_y
_atom_site_fract_z
Si Si1 0.139771 0.315391 0.411780
Si Si2 0.199787 0.561916 0.142808
Si Si3 0.438169 0.995315 0.425770
Si Si4 0.180911 0.540340 0.526409
Si Si5 0.492704 0.085042 0.171180
Si Si6 0.901745 0.934498 0.989685
Si Si7 0.807272 0.205634 0.840713
Si Si8 0.601626 0.905249 0.506445
O O1 0.156938 0.437368 0.459202
O O2 0.277931 0.367865 0.371791
O O3 0.103637 0.199382 0.469559
O O4 0.021907 0.276632 0.353124
O O5 0.335263 0.679204 0.173704
O O6 0.192156 0.580796 0.052083
O O7 0.187902 0.426361 0.161099
O O8 0.092822 0.584315 0.186702
O O9 0.292547 0.882084 0.407819
O O10 0.530577 0.937790 0.440310
O O11 0.446234 0.088366 0.497030
O O12 0.185058 0.478109 0.606560
O O13 0.047616 0.538545 0.522908
O O14 0.479727 0.104115 0.082634
O O15 0.969260 0.019252 0.912164
O O16 0.752602 0.895104 0.989466
#
# Coordination Sequence:
#
# PCOD9579803 Si02
#       8
#     6   6   6   6   6   6   6   6
#     4  10  18  34  61  89 115 147 208 266 309 356
#     4  10  21  37  58  87 124 158 201 246 305 380
#     4  11  23  36  61  92 124 159 204 259 326 377
#     4   9  16  31  61  90 109 141 195 266 310 340
#     4  10  18  36  60  84 114 151 207 253 299 354
#     4  12  20  34  64  96 119 155 208 285 334 369
#     4  11  18  36  60  92 117 146 208 269 319 364
#     4  11  24  36  55  88 126 165 191 244 314 384
#
# _framework density 22.176124000000002
#
# number of rings (size 3 to 8) (size 9 to 14) (size 15 to 20)
#    0.000    1.500    5.000    2.250    0.000    5.000 
#    0.000    0.000    2.750    0.000    0.000    0.000 
#    0.000    0.000    0.000    0.000    0.000    0.000 
#
# Total GULP energy -267300.985536 kJ/mol
# GULP energy per Si atom -5568.770532 kJ/mol
# Density = 2.212565 g / cm^3
# Si number density = 22.176124 Si / 1000 Ang^3
#
#
#
# Elastic Constant Matrix: (Units=GPa)
#
#
# Indices 1 2 3 4 5 6 
#
# 1 41.4149 13.2576 -0.1659 0.0000 0.0000 0.0000
# 2 13.2576 41.4149 -0.1659 0.0000 0.0000 0.0000
# 3 -0.1659 -0.1659 62.0527 0.0000 0.0000 0.0000
# 4 0.0000 0.0000 0.0000 23.7783 0.0000 0.0000
# 5 0.0000 0.0000 0.0000 0.0000 23.7783 0.0000
# 6 0.0000 0.0000 0.0000 0.0000 0.0000 14.0787
#
#
#
# Elastic Compliance Matrix: (Units=1/GPa)
#
#
# Indices 1 2 3 4 5 6 
#
# 1 0.026903 -0.008612 0.000049 0.000000 0.000000 0.000000
# 2 -0.008612 0.026903 0.000049 0.000000 0.000000 0.000000
# 3 0.000049 0.000049 0.016116 0.000000 0.000000 0.000000
# 4 0.000000 0.000000 0.000000 0.042055 0.000000 0.000000
# 5 0.000000 0.000000 0.000000 0.000000 0.042055 0.000000
# 6 0.000000 0.000000 0.000000 0.000000 0.000000 0.071029
#
#
# Mechanical properties :
#
#
# Convention : Reuss Voigt Hill
#
# Bulk Modulus (GPa) = 18.90599 18.97045 18.93822
# Shear Modulus (GPa) = 19.25150 21.12419 20.18784
#
# Velocity S-wave (km/s) = 2.94958 3.08971 3.02046
# Velocity P-wave (km/s) = 4.48820 4.61535 4.55222
#
# Compressibility (1/GPa) = 0.05289328
#
# Stress axis : x y z
#
# Youngs Moduli (GPa) = 37.17078 37.17078 62.05169
#
# Poissons Ratio (x) = 0.32011 -0.00304
# Poissons Ratio (y) = 0.32011 -0.00304
# Poissons Ratio (z) = -0.00182 -0.00182
#
# Static dielectric constant tensor:
#      x y z
#    x 1.899690 0.000000 0.000000 
#    y 0.000000 1.899690 0.000000 
#    z 0.000000 0.000000 1.880440 
# 
# From -- ./inp_files/1422.got.cif
#   From: 2010.05.17/outbox.cif.g08.bks.cpg/sg169_cif.got.tgz:1422.got - 2010.05.20 11:12:54.
