data_PCOD9579187
_publ_section_title
;
Structure prediction by ZEFSAII (Michael W. Deem and Ramdas Pophale) SiO2 
 PCOD9579187
Probable space group: R -3 M
;
_chemical_formula_sum "Si O2"
_cell_formula_units_Z 270
_cell_length_a 32.234421
_cell_length_b 32.234421
_cell_length_c 15.045411
_cell_angle_alpha 90.000000
_cell_angle_beta 90.000000
_cell_angle_gamma 120.000000
_cell_volume 13538.621137
_symmetry_space_group_name_H-M "R -3 M"
_symmetry_group_IT_number 166
_symmetry_cell_setting 'hexagonal'
loop_
_space_group_symop_operation_xyz
x,y,z
-y,x-y,z
-x+y,-x,z
x-y,-y,-z
-x,-x+y,-z
y,x,-z
-x,-y,-z
y,-x+y,-z
x-y,x,-z
-x+y,y,z
x,x-y,z
-y,-x,z
2/3+x,1/3+y,1/3+z
2/3-y,1/3+x-y,1/3+z
2/3-x+y,1/3-x,1/3+z
2/3+x-y,1/3-y,1/3-z
2/3-x,1/3-x+y,1/3-z
2/3+y,1/3+x,1/3-z
2/3-x,1/3-y,1/3-z
2/3+y,1/3-x+y,1/3-z
2/3+x-y,1/3+x,1/3-z
2/3-x+y,1/3+y,1/3+z
2/3+x,1/3+x-y,1/3+z
2/3-y,1/3-x,1/3+z
1/3+x,2/3+y,2/3+z
1/3-y,2/3+x-y,2/3+z
1/3-x+y,2/3-x,2/3+z
1/3+x-y,2/3-y,2/3-z
1/3-x,2/3-x+y,2/3-z
1/3+y,2/3+x,2/3-z
1/3-x,2/3-y,2/3-z
1/3+y,2/3-x+y,2/3-z
1/3+x-y,2/3+x,2/3-z
1/3-x+y,2/3+y,2/3+z
1/3+x,2/3+x-y,2/3+z
1/3-y,2/3-x,2/3+z
loop_
_atom_site_type_symbol
_atom_site_label
_atom_site_fract_x
_atom_site_fract_y
_atom_site_fract_z
Si Si1 0.307553 0.870536 0.463899
Si Si2 0.118548 0.510131 0.689210
Si Si3 0.756405 0.149801 0.706938
Si Si4 0.095760 0.342829 0.679858
Si Si5 0.666667 0.998064 0.333334
Si Si6 0.666201 0.933789 0.185301
Si Si7 0.832527 0.074842 0.269725
Si Si8 0.801888 0.854102 0.533666
O O1 0.277812 0.830821 0.536999
O O2 0.283414 0.861232 0.367324
O O3 0.306234 0.917988 0.490723
O O4 0.361853 0.883687 0.458025
O O5 0.130899 0.565450 0.668852
O O6 0.154048 0.487381 0.666667
O O7 0.063834 0.473547 0.653338
O O8 0.804395 0.195606 0.677481
O O9 0.766166 0.109533 0.749261
O O10 0.736558 0.162903 0.795136
O O11 0.080102 0.323822 0.578148
O O12 0.098288 0.299884 0.727815
O O13 0.047061 0.340788 0.709479
O O14 0.645518 0.959363 0.252115
O O15 0.884713 0.115288 0.241910
O O16 0.836203 0.056614 0.368607
O O17 0.840210 0.840210 0.500000
O O18 0.820843 0.910422 0.531896
#
# Coordination Sequence:
#
# PCOD9579187 Si02
#       8
#    36  36  36  36  18  36  36  36
#     4  11  22  37  58  85 117 154 202 258 308 355
#     4  11  26  48  70  91 116 152 199 261 330 385
#     4  11  20  32  52  84 122 161 205 248 295 345
#     4  11  22  37  57  86 124 167 215 249 285 345
#     4  12  20  34  51  78 118 176 215 252 288 330
#     4  11  21  31  51  80 119 169 214 256 287 337
#     4  11  21  36  58  87 126 168 208 241 291 361
#     4  10  20  33  54  82 120 166 202 240 290 353
#
# _framework density 19.942947
#
# number of rings (size 3 to 8) (size 9 to 14) (size 15 to 20)
#    0.000    1.067    6.000    1.200    0.000    3.733 
#    0.000    0.667    0.000    1.867    0.000    0.000 
#    0.000    1.067    0.000    0.000    0.000    0.000 
#
# Total GULP energy -501321.723863 kJ/mol
# GULP energy per Si atom -5570.241376 kJ/mol
# Density = 1.989756 g / cm^3
# Si number density = 19.942947 Si / 1000 Ang^3
#
#
#
# Elastic Constant Matrix: (Units=GPa)
#
#
# Indices 1 2 3 4 5 6 
#
# 1 76.1836 -3.1745 5.9630 -5.3445 0.0004 0.0003
# 2 -3.1745 76.1827 5.9616 5.3445 0.0003 0.0000
# 3 5.9630 5.9616 47.8342 0.0000 0.0018 0.0006
# 4 -5.3445 5.3445 0.0000 27.2415 0.0001 0.0000
# 5 0.0004 0.0003 0.0018 0.0001 27.2423 -5.3445
# 6 0.0003 0.0000 0.0006 0.0000 -5.3445 39.6789
#
#
#
# Elastic Compliance Matrix: (Units=1/GPa)
#
#
# Indices 1 2 3 4 5 6 
#
# 1 0.013462 0.000519 -0.001743 0.002539 0.000000 0.000000
# 2 0.000519 0.013462 -0.001743 -0.002539 0.000000 0.000000
# 3 -0.001743 -0.001743 0.021340 0.000000 -0.000001 -0.000001
# 4 0.002539 -0.002539 0.000000 0.037705 0.000000 0.000000
# 5 0.000000 0.000000 -0.000001 0.000000 0.037704 0.005078
# 6 0.000000 0.000000 -0.000001 0.000000 0.005078 0.025886
#
#
# Mechanical properties :
#
#
# Convention : Reuss Voigt Hill
#
# Bulk Modulus (GPa) = 23.62261 24.18896 23.90579
# Shear Modulus (GPa) = 29.48052 31.59590 30.53821
#
# Velocity S-wave (km/s) = 3.84896 3.98466 3.91740
# Velocity P-wave (km/s) = 5.62348 5.77282 5.69864
#
# Compressibility (1/GPa) = 0.04233232
#
# Stress axis : x y z
#
# Youngs Moduli (GPa) = 74.28107 74.28054 46.86038
#
# Poissons Ratio (x) = -0.03857 0.08167
# Poissons Ratio (y) = -0.03857 0.08166
# Poissons Ratio (z) = 0.12947 0.12944
#
# Static dielectric constant tensor:
#      x y z
#    x 1.777610 0.000000 0.000000 
#    y 0.000000 1.777610 0.000000 
#    z 0.000000 0.000000 1.790660 
# 
# From -- ./inp_files/5923.got.cif
#   From: 2010.05.17/outbox.cif.g08.bks.cpg/sg166_3_cif.got.tgz:5923.got - 2010.05.20 11:04:41.
