data_PCOD9579655
_publ_section_title
;
Structure prediction by ZEFSAII (Michael W. Deem and Ramdas Pophale) SiO2 
 PCOD9579655
Probable space group: R -3 C 
;
_chemical_formula_sum "Si O2"
_cell_formula_units_Z 102
_cell_length_a 20.288764
_cell_length_b 20.288764
_cell_length_c 13.396738
_cell_angle_alpha 90.000000
_cell_angle_beta 90.000000
_cell_angle_gamma 120.000000
_cell_volume 4775.742216
_symmetry_space_group_name_H-M "R -3 C "
_symmetry_group_IT_number 167
_symmetry_cell_setting 'hexagonal'
loop_
_space_group_symop_operation_xyz
x,y,z
-y,x-y,z
-x+y,-x,z
x-y,-y,1/2-z
-x,-x+y,1/2-z
y,x,1/2-z
-x,-y,-z
y,-x+y,-z
x-y,x,-z
-x+y,y,1/2+z
x,x-y,1/2+z
-y,-x,1/2+z
2/3+x,1/3+y,1/3+z
2/3-y,1/3+x-y,1/3+z
2/3-x+y,1/3-x,1/3+z
2/3+x-y,1/3-y,5/6-z
2/3-x,1/3-x+y,5/6-z
2/3+y,1/3+x,5/6-z
2/3-x,1/3-y,1/3-z
2/3+y,1/3-x+y,1/3-z
2/3+x-y,1/3+x,1/3-z
2/3-x+y,1/3+y,5/6+z
2/3+x,1/3+x-y,5/6+z
2/3-y,1/3-x,5/6+z
1/3+x,2/3+y,2/3+z
1/3-y,2/3+x-y,2/3+z
1/3-x+y,2/3-x,2/3+z
1/3+x-y,2/3-y,1/6-z
1/3-x,2/3-x+y,1/6-z
1/3+y,2/3+x,1/6-z
1/3-x,2/3-y,2/3-z
1/3+y,2/3-x+y,2/3-z
1/3+x-y,2/3+x,2/3-z
1/3-x+y,2/3+y,1/6+z
1/3+x,2/3+x-y,1/6+z
1/3-y,2/3-x,1/6+z
loop_
_atom_site_type_symbol
_atom_site_label
_atom_site_fract_x
_atom_site_fract_y
_atom_site_fract_z
Si Si1 0.117439 0.863806 0.886134
Si Si2 0.262697 0.988614 0.993336
Si Si3 0.000000 0.000000 0.383307
Si Si4 0.666667 0.451196 0.583334
O O1 0.166667 0.833334 0.833334
O O2 0.065909 0.873843 0.802817
O O3 0.180617 0.938743 0.941955
O O4 0.061286 0.799079 0.961647
O O5 0.333334 0.015412 0.916667
O O6 0.276503 0.943170 0.083334
O O7 0.083213 0.029334 0.336813
O O8 0.000000 0.000000 0.500000
#
# Coordination Sequence:
#
# PCOD9579655 Si02
#       4
#    36  36  12  18
#     4  12  26  47  76 106 153 194 249 307 375 457
#     4  12  26  48  76 107 150 201 253 312 384 446
#     4  10  26  49  76 107 142 190 251 316 379 431
#     4  10  26  46  76 108 148 190 252 306 384 440
#
# _framework density 21.357938000000001
#
# number of rings (size 3 to 8) (size 9 to 14) (size 15 to 20)
#    0.000    0.706    3.529    3.176    4.941    8.471 
#    0.000    0.000    0.000    0.000    0.000    0.000 
#    0.000    0.000    0.000    0.000    0.000    0.000 
#
# Total GULP energy -190203.730037 kJ/mol
# GULP energy per Si atom -5594.227354 kJ/mol
# Density = 2.130933 g / cm^3
# Si number density = 21.357938 Si / 1000 Ang^3
#
#
#
# Elastic Constant Matrix: (Units=GPa)
#
#
# Indices 1 2 3 4 5 6 
#
# 1 148.4275 79.1850 85.5784 -8.2074 0.0000 0.0000
# 2 79.1850 148.4275 85.5784 8.2074 0.0000 0.0000
# 3 85.5784 85.5784 173.6045 0.0000 0.0000 0.0000
# 4 -8.2074 8.2074 0.0000 60.3292 0.0000 0.0000
# 5 0.0000 0.0000 0.0000 0.0000 60.3292 -8.2074
# 6 0.0000 0.0000 0.0000 0.0000 -8.2074 34.6212
#
#
#
# Elastic Compliance Matrix: (Units=1/GPa)
#
#
# Indices 1 2 3 4 5 6 
#
# 1 0.010952 -0.003971 -0.003441 0.002030 0.000000 0.000000
# 2 -0.003971 0.010952 -0.003441 -0.002030 0.000000 0.000000
# 3 -0.003441 -0.003441 0.009153 0.000000 0.000000 0.000000
# 4 0.002030 -0.002030 0.000000 0.017128 0.000000 0.000000
# 5 0.000000 0.000000 0.000000 0.000000 0.017128 0.004060
# 6 0.000000 0.000000 0.000000 0.000000 0.004060 0.029847
#
#
# Mechanical properties :
#
#
# Convention : Reuss Voigt Hill
#
# Bulk Modulus (GPa) = 106.95218 107.90478 107.42848
# Shear Modulus (GPa) = 41.67195 45.73045 43.70120
#
# Velocity S-wave (km/s) = 4.42194 4.63227 4.52833
# Velocity P-wave (km/s) = 8.73248 8.90182 8.81756
#
# Compressibility (1/GPa) = 0.00934997
#
# Stress axis : x y z
#
# Youngs Moduli (GPa) = 91.30526 91.30526 109.25248
#
# Poissons Ratio (x) = 0.36257 0.37598
# Poissons Ratio (y) = 0.36257 0.37598
# Poissons Ratio (z) = 0.31422 0.31422
#
# Static dielectric constant tensor:
#      x y z
#    x 1.839940 0.000000 0.000000 
#    y 0.000000 1.839940 0.000000 
#    z 0.000000 0.000000 1.732570 
# 
# From -- ./inp_files/2128.got.cif
#   From: 2010.05.17/outbox.cif.g08.bks.cpg/sg167_2_cif.got.tgz:2128.got - 2010.05.20 11:09:15.
