data_PCOD9579351
_publ_section_title
;
Structure prediction by ZEFSAII (Michael W. Deem and Ramdas Pophale) SiO2 
 PCOD9579351
Probable space group: R -3 M
;
_chemical_formula_sum "Si O2"
_cell_formula_units_Z 84
_cell_length_a 14.022055
_cell_length_b 14.022055
_cell_length_c 25.985514
_cell_angle_alpha 90.000000
_cell_angle_beta 90.000000
_cell_angle_gamma 120.000000
_cell_volume 4424.714728
_symmetry_space_group_name_H-M "R -3 M"
_symmetry_group_IT_number 166
_symmetry_cell_setting 'hexagonal'
loop_
_space_group_symop_operation_xyz
x,y,z
-y,x-y,z
-x+y,-x,z
x-y,-y,-z
-x,-x+y,-z
y,x,-z
-x,-y,-z
y,-x+y,-z
x-y,x,-z
-x+y,y,z
x,x-y,z
-y,-x,z
2/3+x,1/3+y,1/3+z
2/3-y,1/3+x-y,1/3+z
2/3-x+y,1/3-x,1/3+z
2/3+x-y,1/3-y,1/3-z
2/3-x,1/3-x+y,1/3-z
2/3+y,1/3+x,1/3-z
2/3-x,1/3-y,1/3-z
2/3+y,1/3-x+y,1/3-z
2/3+x-y,1/3+x,1/3-z
2/3-x+y,1/3+y,1/3+z
2/3+x,1/3+x-y,1/3+z
2/3-y,1/3-x,1/3+z
1/3+x,2/3+y,2/3+z
1/3-y,2/3+x-y,2/3+z
1/3-x+y,2/3-x,2/3+z
1/3+x-y,2/3-y,2/3-z
1/3-x,2/3-x+y,2/3-z
1/3+y,2/3+x,2/3-z
1/3-x,2/3-y,2/3-z
1/3+y,2/3-x+y,2/3-z
1/3+x-y,2/3+x,2/3-z
1/3-x+y,2/3+y,2/3+z
1/3+x,2/3+x-y,2/3+z
1/3-y,2/3-x,2/3+z
loop_
_atom_site_type_symbol
_atom_site_label
_atom_site_fract_x
_atom_site_fract_y
_atom_site_fract_z
Si Si1 0.328630 0.995296 0.833334
Si Si2 0.118627 0.237254 0.767554
Si Si3 0.333334 0.666668 0.074416
Si Si4 0.403552 0.201776 0.326686
Si Si5 0.333334 0.666668 0.382198
Si Si6 0.258099 0.129050 0.427792
O O1 0.217003 0.967696 0.803724
O O2 0.424476 0.032401 0.791839
O O3 0.169913 0.339825 0.727742
O O4 0.062042 0.124083 0.736768
O O5 0.459455 0.729728 0.092669
O O6 0.333334 0.666667 0.012547
O O7 0.477379 0.333334 0.333334
O O8 0.311086 0.155543 0.371241
#
# Coordination Sequence:
#
# PCOD9579351 Si02
#       6
#    18  18   6  18   6  18
#     4  11  24  43  68  94 134 177 222 283 332 396
#     4  11  24  44  66  98 136 174 229 272 333 406
#     4  12  27  40  67  99 138 174 232 280 312 409
#     4  12  24  46  71 101 135 171 221 274 333 404
#     4  12  24  42  64 100 132 175 223 273 330 394
#     4  12  24  44  68  99 135 180 224 274 338 389
#
# _framework density 18.984275
#
# number of rings (size 3 to 8) (size 9 to 14) (size 15 to 20)
#    0.000    0.429    6.429    2.786    0.000    0.857 
#    0.000    4.286    0.000    0.000    0.000    0.000 
#    0.000    0.000    0.000    0.000    0.000    0.000 
#
# Total GULP energy -156655.984647 kJ/mol
# GULP energy per Si atom -5594.856595 kJ/mol
# Density = 1.894107 g / cm^3
# Si number density = 18.984275 Si / 1000 Ang^3
#
#
#
# Elastic Constant Matrix: (Units=GPa)
#
#
# Indices 1 2 3 4 5 6 
#
# 1 127.8459 78.9872 41.6467 -5.9770 -0.0015 0.0000
# 2 78.9872 127.8451 41.6467 5.9778 0.0015 0.0000
# 3 41.6467 41.6467 99.0258 -0.0002 0.0000 0.0000
# 4 -5.9770 5.9778 -0.0002 31.3814 0.0000 0.0015
# 5 -0.0015 0.0015 0.0000 0.0000 31.3854 -5.9763
# 6 0.0000 0.0000 0.0000 0.0015 -5.9763 24.4296
#
#
#
# Elastic Compliance Matrix: (Units=1/GPa)
#
#
# Indices 1 2 3 4 5 6 
#
# 1 0.013644 -0.007824 -0.002448 0.004089 0.000001 0.000000
# 2 -0.007824 0.013644 -0.002448 -0.004089 -0.000001 0.000000
# 3 -0.002448 -0.002448 0.012157 0.000000 0.000000 0.000000
# 4 0.004089 -0.004089 0.000000 0.033424 0.000000 -0.000002
# 5 0.000001 -0.000001 0.000000 0.000000 0.033419 0.008175
# 6 0.000000 0.000000 0.000000 -0.000002 0.008175 0.042934
#
#
# Mechanical properties :
#
#
# Convention : Reuss Voigt Hill
#
# Bulk Modulus (GPa) = 71.39343 75.47533 73.43438
# Shear Modulus (GPa) = 27.88154 30.26838 29.07496
#
# Velocity S-wave (km/s) = 3.83647 3.99732 3.91772
# Velocity P-wave (km/s) = 7.57053 7.81970 7.69613
#
# Compressibility (1/GPa) = 0.01400689
#
# Stress axis : x y z
#
# Youngs Moduli (GPa) = 73.29126 73.29049 82.25428
#
# Poissons Ratio (x) = 0.57340 0.20135
# Poissons Ratio (y) = 0.57340 0.20136
# Poissons Ratio (z) = 0.17941 0.17941
#
# Static dielectric constant tensor:
#      x y z
#    x 1.637170 0.000000 0.000000 
#    y 0.000000 1.637170 0.000000 
#    z 0.000000 0.000000 1.641910 
# 
# From -- ./inp_files/7622.got.cif
#   From: 2010.05.17/outbox.cif.g08.bks.cpg/sg166_4_cif.got.tgz:7622.got - 2010.05.20 11:04:41.
