data_PCOD9579630
_publ_section_title
;
Structure prediction by ZEFSAII (Michael W. Deem and Ramdas Pophale) SiO2 
 PCOD9579630
Probable space group: R -3 C 
;
_chemical_formula_sum "Si O2"
_cell_formula_units_Z 144
_cell_length_a 18.524547
_cell_length_b 18.524547
_cell_length_c 18.081469
_cell_angle_alpha 90.000000
_cell_angle_beta 90.000000
_cell_angle_gamma 120.000000
_cell_volume 5373.528243
_symmetry_space_group_name_H-M "R -3 C "
_symmetry_group_IT_number 167
_symmetry_cell_setting 'hexagonal'
loop_
_space_group_symop_operation_xyz
x,y,z
-y,x-y,z
-x+y,-x,z
x-y,-y,1/2-z
-x,-x+y,1/2-z
y,x,1/2-z
-x,-y,-z
y,-x+y,-z
x-y,x,-z
-x+y,y,1/2+z
x,x-y,1/2+z
-y,-x,1/2+z
2/3+x,1/3+y,1/3+z
2/3-y,1/3+x-y,1/3+z
2/3-x+y,1/3-x,1/3+z
2/3+x-y,1/3-y,5/6-z
2/3-x,1/3-x+y,5/6-z
2/3+y,1/3+x,5/6-z
2/3-x,1/3-y,1/3-z
2/3+y,1/3-x+y,1/3-z
2/3+x-y,1/3+x,1/3-z
2/3-x+y,1/3+y,5/6+z
2/3+x,1/3+x-y,5/6+z
2/3-y,1/3-x,5/6+z
1/3+x,2/3+y,2/3+z
1/3-y,2/3+x-y,2/3+z
1/3-x+y,2/3-x,2/3+z
1/3+x-y,2/3-y,1/6-z
1/3-x,2/3-x+y,1/6-z
1/3+y,2/3+x,1/6-z
1/3-x,2/3-y,2/3-z
1/3+y,2/3-x+y,2/3-z
1/3+x-y,2/3+x,2/3-z
1/3-x+y,2/3+y,1/6+z
1/3+x,2/3+x-y,1/6+z
1/3-y,2/3-x,1/6+z
loop_
_atom_site_type_symbol
_atom_site_label
_atom_site_fract_x
_atom_site_fract_y
_atom_site_fract_z
Si Si1 0.830166 0.972281 0.855667
Si Si2 0.319443 0.244845 0.120041
Si Si3 0.255414 0.090817 0.465751
Si Si4 0.699308 0.187516 0.482346
O O1 0.736427 0.923580 0.824543
O O2 0.872686 0.915701 0.858058
O O3 0.827526 0.004513 0.938208
O O4 0.890770 0.062440 0.815258
O O5 0.349225 0.333334 0.083334
O O6 0.241794 0.223174 0.173472
O O7 0.284075 0.181248 0.049983
O O8 0.333334 0.101818 0.416667
O O9 0.229632 0.152392 0.425505
#
# Coordination Sequence:
#
# PCOD9579630 Si02
#       4
#    36  36  36  36
#     4  10  24  47  77 118 164 212 272 345 420 486
#     4  12  23  44  79 109 161 221 273 327 416 497
#     4  10  23  46  72 114 159 209 270 337 403 488
#     4  10  24  45  77 116 161 211 270 351 410 492
#
# _framework density 26.798036
#
# number of rings (size 3 to 8) (size 9 to 14) (size 15 to 20)
#    1.500    0.000    2.500    2.000    3.500    0.000 
#    0.000    6.250    0.000    0.000    0.000    0.000 
#    0.000    0.000    0.000    0.000    0.000    0.000 
#
# Total GULP energy -267711.187945 kJ/mol
# GULP energy per Si atom -5577.316416 kJ/mol
# Density = 2.673704 g / cm^3
# Si number density = 26.798036 Si / 1000 Ang^3
#
#
#
# Elastic Constant Matrix: (Units=GPa)
#
#
# Indices 1 2 3 4 5 6 
#
# 1 163.1689 51.8242 41.3190 3.2455 0.0001 0.0000
# 2 51.8242 163.1689 41.3190 -3.2455 -0.0001 0.0000
# 3 41.3190 41.3190 131.2603 0.0000 0.0000 0.0000
# 4 3.2455 -3.2455 0.0000 27.4678 0.0000 -0.0001
# 5 0.0001 -0.0001 0.0000 0.0000 27.4678 3.2455
# 6 0.0000 0.0000 0.0000 -0.0001 3.2455 55.6723
#
#
#
# Elastic Compliance Matrix: (Units=1/GPa)
#
#
# Indices 1 2 3 4 5 6 
#
# 1 0.007167 -0.001876 -0.001666 -0.001069 0.000000 0.000000
# 2 -0.001876 0.007167 -0.001666 0.001069 0.000000 0.000000
# 3 -0.001666 -0.001666 0.008667 0.000000 0.000000 0.000000
# 4 -0.001069 0.001069 0.000000 0.036659 0.000000 0.000000
# 5 0.000000 0.000000 0.000000 0.000000 0.036659 -0.002137
# 6 0.000000 0.000000 0.000000 0.000000 -0.002137 0.018087
#
#
# Mechanical properties :
#
#
# Convention : Reuss Voigt Hill
#
# Bulk Modulus (GPa) = 79.44441 80.72473 80.08457
# Shear Modulus (GPa) = 38.75455 43.66396 41.20925
#
# Velocity S-wave (km/s) = 3.80698 4.04093 3.92570
# Velocity P-wave (km/s) = 7.00244 7.20839 7.10616
#
# Compressibility (1/GPa) = 0.01258742
#
# Stress axis : x y z
#
# Youngs Moduli (GPa) = 139.51877 139.51877 115.37827
#
# Poissons Ratio (x) = 0.26173 0.19219
# Poissons Ratio (y) = 0.26173 0.19219
# Poissons Ratio (z) = 0.23240 0.23240
#
# Static dielectric constant tensor:
#      x y z
#    x 2.139440 0.000000 0.000000 
#    y 0.000000 2.139440 0.000000 
#    z 0.000000 0.000000 2.244800 
# 
# From -- ./inp_files/3338.got.cif
#   From: 2010.05.17/outbox.cif.g08.bks.cpg/sg167_2_cif.got.tgz:3338.got - 2010.05.20 11:09:15.
