data_PCOD9579007
_publ_section_title
;
Structure prediction by ZEFSAII (Michael W. Deem and Ramdas Pophale) SiO2 
 PCOD9579007
Probable space group: P -3 C 1
;
_chemical_formula_sum "Si O2"
_cell_formula_units_Z 84
_cell_length_a 21.000000
_cell_length_b 21.000000
_cell_length_c 12.000000
_cell_angle_alpha 90.000000
_cell_angle_beta 90.000000
_cell_angle_gamma 120.000000
_cell_volume 4583.006437
_symmetry_space_group_name_H-M "P -3 C 1"
_symmetry_group_IT_number 165
_symmetry_cell_setting 'hexagonal'
loop_
_space_group_symop_operation_xyz
x,y,z
-y,x-y,z
-x+y,-x,z
x-y,-y,1/2-z
-x,-x+y,1/2-z
y,x,1/2-z
-x,-y,-z
y,-x+y,-z
x-y,x,-z
-x+y,y,1/2+z
x,x-y,1/2+z
-y,-x,1/2+z
loop_
_atom_site_type_symbol
_atom_site_label
_atom_site_fract_x
_atom_site_fract_y
_atom_site_fract_z
Si Si1 0.415305 0.035965 0.628058
Si Si2 0.182012 0.530042 0.787091
Si Si3 0.310169 0.212793 0.543117
Si Si4 0.200104 0.677907 0.825018
Si Si5 0.380070 0.081949 0.270388
Si Si6 0.542710 0.881849 0.049986
Si Si7 0.302280 0.236861 0.003792
O O1 0.493778 0.108612 0.637322
O O2 0.357617 0.061005 0.591689
O O3 0.394524 0.000000 0.750000
O O4 0.401271 0.968229 0.549361
O O5 0.219840 0.617272 0.788522
O O6 0.240511 0.508630 0.829958
O O7 0.155498 0.497461 0.664000
O O8 0.339502 0.243387 0.667038
O O9 0.380475 0.262355 0.463840
O O10 0.248874 0.233245 0.510128
O O11 0.285219 0.128522 0.534314
O O12 0.141431 0.676631 0.738170
O O13 0.161272 0.656568 0.944477
O O14 0.344793 0.084131 0.386132
O O15 0.365277 0.000000 0.250000
#
# Coordination Sequence:
#
# PCOD9579007 Si02
#       7
#    12  12  12  12  12  12  12
#     4   9  19  35  55  79 102 129 167 217 267 300
#     4  11  23  37  53  75 106 137 171 207 248 309
#     4   9  18  32  52  78 105 134 169 207 258 308
#     4  11  23  37  54  77 104 139 175 203 251 312
#     4   9  19  34  53  77 101 130 172 219 258 296
#     4   9  20  37  55  77 101 130 170 219 261 294
#     4  10  18  32  54  77 105 135 168 212 257 300
#
# _framework density 18.328579999999999
#
# number of rings (size 3 to 8) (size 9 to 14) (size 15 to 20)
#    0.000    2.286    0.000    3.714    0.000    6.857 
#    0.000    0.000    0.000    0.286    0.000    0.000 
#    0.000    3.429    0.000    0.000    0.000    0.143 
#
# Total GULP energy -468537.269540 kJ/mol
# GULP energy per Si atom -5577.824637 kJ/mol
# Density = 1.828686 g / cm^3
# Si number density = 18.328580 Si / 1000 Ang^3
#
#
#
# Elastic Constant Matrix: (Units=GPa)
#
#
# Indices 1 2 3 4 5 6 
#
# 1 55.4537 54.5990 25.5185 -0.0224 0.0000 0.0000
# 2 54.5990 55.4537 25.5185 0.0224 0.0000 0.0000
# 3 25.5185 25.5185 19.7143 0.0000 0.0000 0.0000
# 4 -0.0224 0.0224 0.0000 4.1287 0.0000 0.0000
# 5 0.0000 0.0000 0.0000 0.0000 4.1287 -0.0224
# 6 0.0000 0.0000 0.0000 0.0000 -0.0224 0.4274
#
#
#
# Elastic Compliance Matrix: (Units=1/GPa)
#
#
# Indices 1 2 3 4 5 6 
#
# 1 0.596516 -0.573784 -0.029426 0.006344 0.000000 0.000000
# 2 -0.573784 0.596516 -0.029426 -0.006344 0.000000 0.000000
# 3 -0.029426 -0.029426 0.126903 0.000000 0.000000 0.000000
# 4 0.006344 -0.006344 0.000000 0.242278 0.000000 0.000000
# 5 0.000000 0.000000 0.000000 0.000000 0.242278 0.012688
# 6 0.000000 0.000000 0.000000 0.000000 0.012688 2.340600
#
#
# Mechanical properties :
#
#
# Convention : Reuss Voigt Hill
#
# Bulk Modulus (GPa) = 18.29302 37.98818 28.14060
# Shear Modulus (GPa) = 0.92105 3.40265 2.16185
#
# Velocity S-wave (km/s) = 0.70966 1.36400 1.08722
# Velocity P-wave (km/s) = 3.26707 4.82202 4.11859
#
# Compressibility (1/GPa) = 0.05466566
#
# Stress axis : x y z
#
# Youngs Moduli (GPa) = 1.67640 1.67640 7.88006
#
# Poissons Ratio (x) = 0.96189 0.23188
# Poissons Ratio (y) = 0.96189 0.23188
# Poissons Ratio (z) = 0.04933 0.04933
#
# Static dielectric constant tensor:
#      x y z
#    x 1.642140 0.000000 0.000000 
#    y 0.000000 1.642140 0.000000 
#    z 0.000000 0.000000 1.629810 
# 
# From -- ./inp_files/1226.got.cif
#   From: 2010.05.17/outbox.ucp.g08.bks.cvg/sg165_1_cif.got.tgz:1226.got - 2010.06.11 15:16:31.
