data_PCOD9579127
_publ_section_title
;
Structure prediction by ZEFSAII (Michael W. Deem and Ramdas Pophale) SiO2 
 PCOD9579127
Probable space group: R -3 M
;
_chemical_formula_sum "Si O2"
_cell_formula_units_Z 144
_cell_length_a 28.624415
_cell_length_b 28.624415
_cell_length_c 10.315770
_cell_angle_alpha 90.000000
_cell_angle_beta 90.000000
_cell_angle_gamma 120.000000
_cell_volume 7319.906298
_symmetry_space_group_name_H-M "R -3 M"
_symmetry_group_IT_number 166
_symmetry_cell_setting 'hexagonal'
loop_
_space_group_symop_operation_xyz
x,y,z
-y,x-y,z
-x+y,-x,z
x-y,-y,-z
-x,-x+y,-z
y,x,-z
-x,-y,-z
y,-x+y,-z
x-y,x,-z
-x+y,y,z
x,x-y,z
-y,-x,z
2/3+x,1/3+y,1/3+z
2/3-y,1/3+x-y,1/3+z
2/3-x+y,1/3-x,1/3+z
2/3+x-y,1/3-y,1/3-z
2/3-x,1/3-x+y,1/3-z
2/3+y,1/3+x,1/3-z
2/3-x,1/3-y,1/3-z
2/3+y,1/3-x+y,1/3-z
2/3+x-y,1/3+x,1/3-z
2/3-x+y,1/3+y,1/3+z
2/3+x,1/3+x-y,1/3+z
2/3-y,1/3-x,1/3+z
1/3+x,2/3+y,2/3+z
1/3-y,2/3+x-y,2/3+z
1/3-x+y,2/3-x,2/3+z
1/3+x-y,2/3-y,2/3-z
1/3-x,2/3-x+y,2/3-z
1/3+y,2/3+x,2/3-z
1/3-x,2/3-y,2/3-z
1/3+y,2/3-x+y,2/3-z
1/3+x-y,2/3+x,2/3-z
1/3-x+y,2/3+y,2/3+z
1/3+x,2/3+x-y,2/3+z
1/3-y,2/3-x,2/3+z
loop_
_atom_site_type_symbol
_atom_site_label
_atom_site_fract_x
_atom_site_fract_y
_atom_site_fract_z
Si Si1 0.333202 0.777526 0.519316
Si Si2 0.955425 0.683108 0.801046
Si Si3 0.708683 0.522672 0.948184
Si Si4 0.771162 0.075233 0.288011
O O1 0.382399 0.764797 0.514503
O O2 0.276589 0.723412 0.495836
O O3 0.333334 0.796752 0.666667
O O4 0.345675 0.821931 0.410114
O O5 0.922513 0.666667 0.666667
O O6 0.969228 0.635895 0.833334
O O7 0.014008 0.733847 0.770300
O O8 0.925578 0.681835 0.932041
O O9 0.753296 0.506591 0.909597
O O10 0.666667 0.509544 0.833334
O O11 0.739590 0.585593 0.983207
O O12 0.779618 0.112951 0.166667
#
# Coordination Sequence:
#
# PCOD9579127 Si02
#       4
#    36  36  36  36
#     4   9  18  34  57  84 113 148 192 240 291 349
#     4   8  14  27  48  74 100 132 176 222 265 319
#     4  11  23  38  57  82 117 157 193 235 288 345
#     4  10  19  32  54  80 107 141 185 232 281 332
#
# _framework density 19.672381999999999
#
# number of rings (size 3 to 8) (size 9 to 14) (size 15 to 20)
#    0.000    2.500    0.000    5.500    0.000    3.500 
#    0.000    0.000    0.000   12.250    0.000    0.000 
#    0.000    0.000    0.000    0.000    0.000    0.000 
#
# Total GULP energy -267406.148112 kJ/mol
# GULP energy per Si atom -5570.961419 kJ/mol
# Density = 1.962761 g / cm^3
# Si number density = 19.672382 Si / 1000 Ang^3
#
#
#
# Elastic Constant Matrix: (Units=GPa)
#
#
# Indices 1 2 3 4 5 6 
#
# 1 56.4133 18.2160 43.8618 1.3260 -0.0057 0.0014
# 2 18.2160 56.4072 43.8486 -1.3255 -0.0137 0.0017
# 3 43.8618 43.8486 133.9407 -0.0044 -0.0219 0.0019
# 4 1.3260 -1.3255 -0.0044 16.7695 -0.0004 0.0004
# 5 -0.0057 -0.0137 -0.0219 -0.0004 16.7415 1.3325
# 6 0.0014 0.0017 0.0019 0.0004 1.3325 19.0908
#
#
#
# Elastic Compliance Matrix: (Units=1/GPa)
#
#
# Indices 1 2 3 4 5 6 
#
# 1 0.024055 -0.002272 -0.007134 -0.002084 -0.000003 -0.000001
# 2 -0.002272 0.024054 -0.007131 0.002079 0.000010 -0.000002
# 3 -0.007134 -0.007131 0.012136 0.000004 0.000008 -0.000001
# 4 -0.002084 0.002079 0.000004 0.059961 0.000003 -0.000001
# 5 -0.000003 0.000010 0.000008 0.000003 0.060066 -0.004192
# 6 -0.000001 -0.000002 -0.000001 -0.000001 -0.004192 0.052674
#
#
# Mechanical properties :
#
#
# Convention : Reuss Voigt Hill
#
# Bulk Modulus (GPa) = 36.80079 50.95709 43.87894
# Shear Modulus (GPa) = 18.17678 19.90936 19.04307
#
# Velocity S-wave (km/s) = 3.04299 3.18472 3.11466
# Velocity P-wave (km/s) = 5.57619 6.28350 5.94038
#
# Compressibility (1/GPa) = 0.02717333
#
# Stress axis : x y z
#
# Youngs Moduli (GPa) = 41.57059 41.57359 82.39638
#
# Poissons Ratio (x) = 0.09445 0.58780
# Poissons Ratio (y) = 0.09444 0.58753
# Poissons Ratio (z) = 0.29656 0.29644
#
# Static dielectric constant tensor:
#      x y z
#    x 1.691030 0.000000 -0.000010 
#    y 0.000000 1.691040 0.000000 
#    z -0.000010 0.000000 1.738840 
# 
# From -- ./inp_files/1812.got.cif
#   From: 2010.05.17/outbox.cif.g08.bks.cpg/sg166_1_cif.got.tgz:1812.got - 2010.05.20 11:04:41.
