data_PCOD9579794
_publ_section_title
;
Structure prediction by ZEFSAII (Michael W. Deem and Ramdas Pophale) SiO2 
 PCOD9579794
Probable space group: P 61
;
_chemical_formula_sum "Si O2"
_cell_formula_units_Z 36
_cell_length_a 17.132616
_cell_length_b 17.132616
_cell_length_c 8.468276
_cell_angle_alpha 90.000000
_cell_angle_beta 90.000000
_cell_angle_gamma 120.000000
_cell_volume 2152.647890
_symmetry_space_group_name_H-M "P 61"
_symmetry_group_IT_number 169
_symmetry_cell_setting 'hexagonal'
loop_
_space_group_symop_operation_xyz
x,y,z
x-y,x,1/6+z
-y,x-y,1/3+z
-x,-y,1/2+z
-x+y,-x,2/3+z
y,-x+y,5/6+z
loop_
_atom_site_type_symbol
_atom_site_label
_atom_site_fract_x
_atom_site_fract_y
_atom_site_fract_z
Si Si1 0.969948 0.392898 0.030440
Si Si2 0.792638 0.494735 0.859365
Si Si3 0.388232 0.967661 0.202133
Si Si4 0.521836 0.659361 0.183083
Si Si5 0.665723 0.532269 0.679209
Si Si6 0.203735 0.689986 0.347250
O O1 0.974785 0.489132 0.047535
O O2 0.918273 0.338015 0.185489
O O3 0.900779 0.345348 0.884861
O O4 0.072190 0.419822 0.992455
O O5 0.656750 0.591142 0.819543
O O6 0.782604 0.396334 0.850287
O O7 0.897262 0.562184 0.895031
O O8 0.738367 0.496249 0.014447
O O9 0.340635 0.919288 0.363155
O O10 0.566770 0.141994 0.015418
O O11 0.517229 0.768337 0.545859
O O12 0.500001 0.738559 0.151564
#
# Coordination Sequence:
#
# PCOD9579794 Si02
#       6
#     6   6   6   6   6   6
#     4   9  18  29  42  60  80 108 143 181 228 273
#     4  10  19  29  43  62  84 108 143 188 225 269
#     4   8  17  30  40  56  79 108 142 175 220 267
#     4   9  17  30  43  56  81 111 144 184 223 273
#     4  10  18  28  43  60  81 110 142 183 231 272
#     4  10  19  30  43  62  83 109 146 185 227 266
#
# _framework density 16.723590000000002
#
# number of rings (size 3 to 8) (size 9 to 14) (size 15 to 20)
#    0.000    2.667    0.000    3.000    0.000    6.667 
#    0.000    0.000    0.000    0.000    0.000    0.000 
#    0.000    0.000    0.000    0.000    0.000   40.000 
#
# Total GULP energy -200595.779426 kJ/mol
# GULP energy per Si atom -5572.104984 kJ/mol
# Density = 1.668553 g / cm^3
# Si number density = 16.723590 Si / 1000 Ang^3
#
#
#
# Elastic Constant Matrix: (Units=GPa)
#
#
# Indices 1 2 3 4 5 6 
#
# 1 58.7324 37.2469 16.1162 0.0000 0.0000 0.0000
# 2 37.2469 58.7324 16.1162 0.0000 0.0000 0.0000
# 3 16.1162 16.1162 53.0043 0.0000 0.0000 0.0000
# 4 0.0000 0.0000 0.0000 20.7722 0.0000 0.0000
# 5 0.0000 0.0000 0.0000 0.0000 20.7722 0.0000
# 6 0.0000 0.0000 0.0000 0.0000 0.0000 10.7428
#
#
#
# Elastic Compliance Matrix: (Units=1/GPa)
#
#
# Indices 1 2 3 4 5 6 
#
# 1 0.029073 -0.017470 -0.003528 0.000000 0.000000 0.000000
# 2 -0.017470 0.029073 -0.003528 0.000000 0.000000 0.000000
# 3 -0.003528 -0.003528 0.021012 0.000000 0.000000 0.000000
# 4 0.000000 0.000000 0.000000 0.048141 0.000000 0.000000
# 5 0.000000 0.000000 0.000000 0.000000 0.048141 0.000000
# 6 0.000000 0.000000 0.000000 0.000000 0.000000 0.093086
#
#
# Mechanical properties :
#
#
# Convention : Reuss Voigt Hill
#
# Bulk Modulus (GPa) = 33.21517 34.38085 33.79801
# Shear Modulus (GPa) = 15.26185 17.19010 16.22597
#
# Velocity S-wave (km/s) = 3.02419 3.20956 3.11825
# Velocity P-wave (km/s) = 5.66557 5.85986 5.76353
#
# Compressibility (1/GPa) = 0.03010673
#
# Stress axis : x y z
#
# Youngs Moduli (GPa) = 34.39576 34.39576 47.59208
#
# Poissons Ratio (x) = 0.60088 0.16791
# Poissons Ratio (y) = 0.60088 0.16791
# Poissons Ratio (z) = 0.12135 0.12135
#
# Static dielectric constant tensor:
#      x y z
#    x 1.550410 0.000000 0.000000 
#    y 0.000000 1.550410 0.000000 
#    z 0.000000 0.000000 1.686350 
# 
# From -- ./inp_files/652.got.cif
#   From: 2010.05.17/outbox.cif.g08.bks.cpg/sg169_cif.got.tgz:652.got - 2010.05.20 11:12:54.
