data_PCOD9579819
_publ_section_title
;
Structure prediction by ZEFSAII (Michael W. Deem and Ramdas Pophale) SiO2 
 PCOD9579819
Probable space group: P 61
;
_chemical_formula_sum "Si O2"
_cell_formula_units_Z 36
_cell_length_a 22.022129
_cell_length_b 22.022129
_cell_length_c 5.138116
_cell_angle_alpha 90.000000
_cell_angle_beta 90.000000
_cell_angle_gamma 120.000000
_cell_volume 2158.008451
_symmetry_space_group_name_H-M "P 61"
_symmetry_group_IT_number 169
_symmetry_cell_setting 'hexagonal'
loop_
_space_group_symop_operation_xyz
x,y,z
x-y,x,1/6+z
-y,x-y,1/3+z
-x,-y,1/2+z
-x+y,-x,2/3+z
y,-x+y,5/6+z
loop_
_atom_site_type_symbol
_atom_site_label
_atom_site_fract_x
_atom_site_fract_y
_atom_site_fract_z
Si Si1 0.076611 0.781842 0.696780
Si Si2 0.265543 0.880260 0.185700
Si Si3 0.706411 0.780673 0.355363
Si Si4 0.420204 0.505488 0.505890
Si Si5 0.876715 0.263997 0.694922
Si Si6 0.916364 0.497733 0.171245
O O1 0.139118 0.862497 0.700083
O O2 0.094953 0.740370 0.478729
O O3 0.001212 0.768998 0.608793
O O4 0.079684 0.750798 0.976017
O O5 0.246441 0.921321 0.402931
O O6 0.202355 0.800420 0.184060
O O7 0.338009 0.886200 0.268260
O O8 0.264249 0.909737 0.900589
O O9 0.337646 0.455761 0.474723
O O10 0.453705 0.454670 0.498375
O O11 0.440025 0.543778 0.781747
O O12 0.458807 0.562525 0.280350
#
# Coordination Sequence:
#
# PCOD9579819 Si02
#       6
#     6   6   6   6   6   6
#     4  10  19  31  49  73  99 128 159 196 240 285
#     4  10  20  33  50  71  97 127 159 197 241 288
#     4  10  19  31  49  73  99 128 159 196 240 285
#     4  10  19  30  47  70  94 121 152 191 236 279
#     4  10  20  33  50  71  97 127 159 197 241 288
#     4  10  19  30  47  70  94 121 152 191 236 279
#
# _framework density 16.682048000000002
#
# number of rings (size 3 to 8) (size 9 to 14) (size 15 to 20)
#    0.000    2.000    0.000    5.000    0.000    2.667 
#    0.000    0.000    0.000    2.000    0.000    7.000 
#    0.000    0.000    0.000    0.000    0.000    0.000 
#
# Total GULP energy -200870.291048 kJ/mol
# GULP energy per Si atom -5579.730307 kJ/mol
# Density = 1.664408 g / cm^3
# Si number density = 16.682048 Si / 1000 Ang^3
#
#
#
# Elastic Constant Matrix: (Units=GPa)
#
#
# Indices 1 2 3 4 5 6 
#
# 1 59.4709 29.5763 -2.8068 0.0000 0.0000 0.0000
# 2 29.5763 59.4709 -2.8068 0.0000 0.0000 0.0000
# 3 -2.8068 -2.8068 57.7433 0.0000 0.0000 0.0000
# 4 0.0000 0.0000 0.0000 19.5626 0.0000 0.0000
# 5 0.0000 0.0000 0.0000 0.0000 19.5626 0.0000
# 6 0.0000 0.0000 0.0000 0.0000 0.0000 14.9473
#
#
#
# Elastic Compliance Matrix: (Units=1/GPa)
#
#
# Indices 1 2 3 4 5 6 
#
# 1 0.022358 -0.011093 0.000548 0.000000 0.000000 0.000000
# 2 -0.011093 0.022358 0.000548 0.000000 0.000000 0.000000
# 3 0.000548 0.000548 0.017371 0.000000 0.000000 0.000000
# 4 0.000000 0.000000 0.000000 0.051118 0.000000 0.000000
# 5 0.000000 0.000000 0.000000 0.000000 0.051118 0.000000
# 6 0.000000 0.000000 0.000000 0.000000 0.000000 0.066902
#
#
# Mechanical properties :
#
#
# Convention : Reuss Voigt Hill
#
# Bulk Modulus (GPa) = 23.75832 24.95671 24.35752
# Shear Modulus (GPa) = 18.85013 20.99602 19.92307
#
# Velocity S-wave (km/s) = 3.36514 3.55152 3.45959
# Velocity P-wave (km/s) = 5.41956 5.64008 5.53092
#
# Compressibility (1/GPa) = 0.04209051
#
# Stress axis : x y z
#
# Youngs Moduli (GPa) = 44.72738 44.72738 57.56634
#
# Poissons Ratio (x) = 0.49617 -0.03152
# Poissons Ratio (y) = 0.49617 -0.03152
# Poissons Ratio (z) = -0.02449 -0.02449
#
# Static dielectric constant tensor:
#      x y z
#    x 1.546550 0.000000 0.000000 
#    y 0.000000 1.546550 0.000000 
#    z 0.000000 0.000000 1.572950 
# 
# From -- ./inp_files/237.got.cif
#   From: 2010.05.17/outbox.cif.g08.bks.cpg/sg169_cif.got.tgz:237.got - 2010.05.20 11:12:54.
