data_PCOD9579804
_publ_section_title
;
Structure prediction by ZEFSAII (Michael W. Deem and Ramdas Pophale) SiO2 
 PCOD9579804
Probable space group: P 61
;
_chemical_formula_sum "Si O2"
_cell_formula_units_Z 48
_cell_length_a 11.872612
_cell_length_b 11.872612
_cell_length_c 16.098730
_cell_angle_alpha 90.000000
_cell_angle_beta 90.000000
_cell_angle_gamma 120.000000
_cell_volume 1965.236396
_symmetry_space_group_name_H-M "P 61"
_symmetry_group_IT_number 169
_symmetry_cell_setting 'hexagonal'
loop_
_space_group_symop_operation_xyz
x,y,z
x-y,x,1/6+z
-y,x-y,1/3+z
-x,-y,1/2+z
-x+y,-x,2/3+z
y,-x+y,5/6+z
loop_
_atom_site_type_symbol
_atom_site_label
_atom_site_fract_x
_atom_site_fract_y
_atom_site_fract_z
Si Si1 0.575861 0.291071 0.530450
Si Si2 0.988333 0.087177 0.382524
Si Si3 0.889985 0.720013 0.498745
Si Si4 0.596752 0.089303 0.424111
Si Si5 0.504039 0.832063 0.767446
Si Si6 0.463293 0.369143 0.373789
Si Si7 0.405975 0.139602 0.670585
Si Si8 0.761483 0.622502 0.663949
O O1 0.552077 0.153658 0.494334
O O2 0.728055 0.358666 0.555482
O O3 0.525504 0.345440 0.457258
O O4 0.489837 0.263191 0.612950
O O5 0.972167 0.210244 0.364111
O O6 0.078473 0.073364 0.313786
O O7 0.845874 0.966825 0.355374
O O8 0.794654 0.627560 0.428465
O O9 0.857921 0.647052 0.586437
O O10 0.035300 0.768668 0.468198
O O11 0.526857 0.094020 0.340283
O O12 0.749057 0.192713 0.400286
O O13 0.569381 0.948755 0.454477
O O14 0.552254 0.742175 0.811041
O O15 0.613342 0.952440 0.716321
O O16 0.578445 0.507555 0.342396
#
# Coordination Sequence:
#
# PCOD9579804 Si02
#       8
#     6   6   6   6   6   6   6   6
#     4  10  26  46  62 102 134 184 240 282 368 438
#     4  10  18  34  62  96 140 182 242 298 352 422
#     4  11  19  36  63 102 135 180 237 298 351 421
#     4  11  23  38  67 100 139 187 233 300 363 427
#     4  10  23  43  68  98 138 181 234 294 356 434
#     4  10  23  43  68  98 138 181 234 294 356 434
#     4  11  23  38  67 100 139 187 233 300 363 427
#     4  11  19  36  63 102 135 180 237 298 351 421
#
# _framework density 24.424544000000001
#
# number of rings (size 3 to 8) (size 9 to 14) (size 15 to 20)
#    0.000    1.500    5.000    1.500    5.250    4.000 
#    2.250    0.000    2.750    0.000    0.000    0.000 
#    0.000    0.000    0.000    0.000    0.000    0.000 
#
# Total GULP energy -268171.199393 kJ/mol
# GULP energy per Si atom -5586.899987 kJ/mol
# Density = 2.436895 g / cm^3
# Si number density = 24.424544 Si / 1000 Ang^3
#
#
#
# Elastic Constant Matrix: (Units=GPa)
#
#
# Indices 1 2 3 4 5 6 
#
# 1 86.2182 31.1712 16.6906 0.0000 0.0000 0.0000
# 2 31.1712 86.2182 16.6906 0.0000 0.0000 0.0000
# 3 16.6906 16.6906 80.2814 0.0000 0.0000 0.0000
# 4 0.0000 0.0000 0.0000 34.4811 0.0000 0.0000
# 5 0.0000 0.0000 0.0000 0.0000 34.4811 0.0000
# 6 0.0000 0.0000 0.0000 0.0000 0.0000 27.5235
#
#
#
# Elastic Compliance Matrix: (Units=1/GPa)
#
#
# Indices 1 2 3 4 5 6 
#
# 1 0.013610 -0.004556 -0.001882 0.000000 0.000000 0.000000
# 2 -0.004556 0.013610 -0.001882 0.000000 0.000000 0.000000
# 3 -0.001882 -0.001882 0.013239 0.000000 0.000000 0.000000
# 4 0.000000 0.000000 0.000000 0.029001 0.000000 0.000000
# 5 0.000000 0.000000 0.000000 0.000000 0.029001 0.000000
# 6 0.000000 0.000000 0.000000 0.000000 0.000000 0.036333
#
#
# Mechanical properties :
#
#
# Convention : Reuss Voigt Hill
#
# Bulk Modulus (GPa) = 41.98609 42.42474 42.20541
# Shear Modulus (GPa) = 31.37252 31.84152 31.60702
#
# Velocity S-wave (km/s) = 3.58783 3.61455 3.60122
# Velocity P-wave (km/s) = 5.86437 5.90148 5.88295
#
# Compressibility (1/GPa) = 0.02381741
#
# Stress axis : x y z
#
# Youngs Moduli (GPa) = 73.47486 73.47486 75.53524
#
# Poissons Ratio (x) = 0.33477 0.14218
# Poissons Ratio (y) = 0.33477 0.14218
# Poissons Ratio (z) = 0.13830 0.13830
#
# Static dielectric constant tensor:
#      x y z
#    x 1.950820 0.000000 0.000000 
#    y 0.000000 1.950820 0.000000 
#    z 0.000000 0.000000 1.992560 
# 
# From -- ./inp_files/1429.got.cif
#   From: 2010.05.17/outbox.cif.g08.bks.cpg/sg169_cif.got.tgz:1429.got - 2010.05.20 11:12:54.
