data_PCOD9579108
_publ_section_title
;
Structure prediction by ZEFSAII (Michael W. Deem and Ramdas Pophale) SiO2 
 PCOD9579108
Probable space group: R -3 M
;
_chemical_formula_sum "Si O2"
_cell_formula_units_Z 252
_cell_length_a 28.744810
_cell_length_b 28.744810
_cell_length_c 20.063925
_cell_angle_alpha 90.000000
_cell_angle_beta 90.000000
_cell_angle_gamma 120.000000
_cell_volume 14357.056588
_symmetry_space_group_name_H-M "R -3 M"
_symmetry_group_IT_number 166
_symmetry_cell_setting 'hexagonal'
loop_
_space_group_symop_operation_xyz
x,y,z
-y,x-y,z
-x+y,-x,z
x-y,-y,-z
-x,-x+y,-z
y,x,-z
-x,-y,-z
y,-x+y,-z
x-y,x,-z
-x+y,y,z
x,x-y,z
-y,-x,z
2/3+x,1/3+y,1/3+z
2/3-y,1/3+x-y,1/3+z
2/3-x+y,1/3-x,1/3+z
2/3+x-y,1/3-y,1/3-z
2/3-x,1/3-x+y,1/3-z
2/3+y,1/3+x,1/3-z
2/3-x,1/3-y,1/3-z
2/3+y,1/3-x+y,1/3-z
2/3+x-y,1/3+x,1/3-z
2/3-x+y,1/3+y,1/3+z
2/3+x,1/3+x-y,1/3+z
2/3-y,1/3-x,1/3+z
1/3+x,2/3+y,2/3+z
1/3-y,2/3+x-y,2/3+z
1/3-x+y,2/3-x,2/3+z
1/3+x-y,2/3-y,2/3-z
1/3-x,2/3-x+y,2/3-z
1/3+y,2/3+x,2/3-z
1/3-x,2/3-y,2/3-z
1/3+y,2/3-x+y,2/3-z
1/3+x-y,2/3+x,2/3-z
1/3-x+y,2/3+y,2/3+z
1/3+x,2/3+x-y,2/3+z
1/3-y,2/3-x,2/3+z
loop_
_atom_site_type_symbol
_atom_site_label
_atom_site_fract_x
_atom_site_fract_y
_atom_site_fract_z
Si Si1 0.109909 0.109909 0.500000
Si Si2 0.555783 0.333334 0.333334
Si Si3 0.750251 0.025110 0.846746
Si Si4 0.303662 0.805278 0.532036
Si Si5 0.955801 0.656698 0.055079
Si Si6 0.296430 0.815928 0.049889
Si Si7 0.666381 0.224267 0.063121
Si Si8 0.455721 0.431156 0.728163
O O1 0.104258 0.052129 0.496906
O O2 0.142546 0.143578 0.436326
O O3 0.561527 0.280764 0.334668
O O4 0.523899 0.332520 0.398864
O O5 0.806812 0.027814 0.847539
O O6 0.758582 0.080790 0.879918
O O7 0.709479 0.980677 0.898833
O O8 0.723236 0.004557 0.773804
O O9 0.242141 0.757860 0.538600
O O10 0.329236 0.787271 0.473471
O O11 0.907253 0.653795 0.010826
O O12 0.000000 0.664728 0.000000
O O13 0.239741 0.760260 0.051091
O O14 0.280281 0.859602 0.069566
O O15 0.321949 0.816768 0.978600
O O16 0.610505 0.221009 0.043639
O O17 0.715919 0.284082 0.051206
O O18 0.509166 0.490835 0.727616
#
# Coordination Sequence:
#
# PCOD9579108 Si02
#       8
#    18  18  36  36  36  36  36  36
#     4  10  19  32  50  76 108 142 176 216 263 322
#     4  10  21  36  54  78 108 148 190 232 279 336
#     4  10  20  37  56  81 110 139 184 235 289 347
#     4  10  21  34  52  77 107 142 179 229 283 333
#     4   9  20  36  58  82 106 139 183 233 284 345
#     4   9  19  32  49  74 103 135 177 221 264 317
#     4  10  19  33  52  76 107 146 186 227 276 337
#     4  10  20  36  57  79 107 145 183 228 288 350
#
# _framework density 17.552344000000002
#
# number of rings (size 3 to 8) (size 9 to 14) (size 15 to 20)
#    0.000    2.286    0.000    2.429    3.000    2.286 
#    0.000    5.714    0.000    1.714    0.000    0.000 
#    0.000    0.000    0.000    0.000    0.000    0.000 
#
# Total GULP energy -467820.501282 kJ/mol
# GULP energy per Si atom -5569.291682 kJ/mol
# Density = 1.751239 g / cm^3
# Si number density = 17.552344 Si / 1000 Ang^3
#
#
#
# Elastic Constant Matrix: (Units=GPa)
#
#
# Indices 1 2 3 4 5 6 
#
# 1 45.7416 35.9295 6.2072 7.7941 -0.0003 0.0000
# 2 35.9295 45.7416 6.2072 -7.7941 0.0003 0.0000
# 3 6.2072 6.2072 72.9091 0.0000 0.0000 0.0000
# 4 7.7941 -7.7941 0.0000 15.3823 0.0000 0.0003
# 5 -0.0003 0.0003 0.0000 0.0000 15.3823 7.7941
# 6 0.0000 0.0000 0.0000 0.0003 7.7941 4.9061
#
#
#
# Elastic Compliance Matrix: (Units=1/GPa)
#
#
# Indices 1 2 3 4 5 6 
#
# 1 0.267478 -0.255074 -0.001056 -0.264774 0.000009 0.000000
# 2 -0.255074 0.267478 -0.001056 0.264774 -0.000009 0.000000
# 3 -0.001056 -0.001056 0.013896 0.000000 0.000000 0.000000
# 4 -0.264774 0.264774 0.000000 0.333329 0.000000 -0.000017
# 5 0.000009 -0.000009 0.000000 0.000000 0.333329 -0.529548
# 6 0.000000 0.000000 0.000000 -0.000017 -0.529548 1.045104
#
#
# Mechanical properties :
#
#
# Convention : Reuss Voigt Hill
#
# Bulk Modulus (GPa) = 29.00174 29.00889 29.00531
# Shear Modulus (GPa) = 1.79438 14.87067 8.33253
#
# Velocity S-wave (km/s) = 1.01219 2.91386 2.18118
# Velocity P-wave (km/s) = 4.23378 5.28050 4.78584
#
# Compressibility (1/GPa) = 0.03448070
#
# Stress axis : x y z
#
# Youngs Moduli (GPa) = 3.73862 3.73862 71.96552
#
# Poissons Ratio (x) = 0.95362 0.07600
# Poissons Ratio (y) = 0.95362 0.07600
# Poissons Ratio (z) = 0.00395 0.00395
#
# Static dielectric constant tensor:
#      x y z
#    x 1.592530 0.000000 0.000000 
#    y 0.000000 1.592530 0.000000 
#    z 0.000000 0.000000 1.618970 
# 
# From -- ./inp_files/5919.got.cif
#   From: 2010.05.17/outbox.cif.g08.bks.cpg/sg166_3_cif.got.tgz:5919.got - 2010.05.20 11:04:41.
