data_PCOD9579823
_publ_section_title
;
Structure prediction by ZEFSAII (Michael W. Deem and Ramdas Pophale) SiO2 
 PCOD9579823
Probable space group: P 61
;
_chemical_formula_sum "Si O2"
_cell_formula_units_Z 42
_cell_length_a 20.330379
_cell_length_b 20.330379
_cell_length_c 5.263443
_cell_angle_alpha 90.000000
_cell_angle_beta 90.000000
_cell_angle_gamma 120.000000
_cell_volume 1884.046015
_symmetry_space_group_name_H-M "P 61"
_symmetry_group_IT_number 169
_symmetry_cell_setting 'hexagonal'
loop_
_space_group_symop_operation_xyz
x,y,z
x-y,x,1/6+z
-y,x-y,1/3+z
-x,-y,1/2+z
-x+y,-x,2/3+z
y,-x+y,5/6+z
loop_
_atom_site_type_symbol
_atom_site_label
_atom_site_fract_x
_atom_site_fract_y
_atom_site_fract_z
Si Si1 0.725405 0.004924 0.744410
Si Si2 0.210492 0.415594 0.121440
Si Si3 0.639037 0.579002 0.601293
Si Si4 0.352923 0.816692 0.581319
Si Si5 0.323301 0.589658 0.554558
Si Si6 0.163494 0.317535 0.618281
Si Si7 0.571139 0.593653 0.092827
O O1 0.808566 0.075318 0.713496
O O2 0.670264 0.974567 0.496251
O O3 0.721953 0.934955 0.893275
O O4 0.679326 0.036687 0.903005
O O5 0.175082 0.470664 0.106340
O O6 0.174763 0.351643 0.901105
O O7 0.300883 0.449907 0.076427
O O8 0.196544 0.384962 0.409026
O O9 0.589314 0.564614 0.351823
O O10 0.584796 0.554735 0.847879
O O11 0.415830 0.800617 0.709150
O O12 0.287595 0.744360 0.421146
O O13 0.396801 0.894678 0.426160
O O14 0.383485 0.663486 0.703108
#
# Coordination Sequence:
#
# PCOD9579823 Si02
#       7
#     6   6   6   6   6   6   6
#     4   9  20  32  51  83 127 154 199 249 307 364
#     4  11  20  34  60  89 123 155 194 257 311 370
#     4   9  18  34  49  90 119 146 191 247 303 374
#     4  11  22  36  65  89 120 162 204 254 312 351
#     4   9  22  41  55  88 115 146 202 252 285 357
#     4  11  21  33  54  87 129 155 205 249 316 366
#     4  10  19  32  58  84 121 150 191 244 310 360
#
# _framework density 22.292448
#
# number of rings (size 3 to 8) (size 9 to 14) (size 15 to 20)
#    0.857    1.143    2.857    0.857    4.000    0.000 
#    0.000    0.000    0.000    0.000   11.143    4.000 
#    0.000    0.000    0.000    0.000    0.000    0.000 
#
# Total GULP energy -234003.751963 kJ/mol
# GULP energy per Si atom -5571.517904 kJ/mol
# Density = 2.224171 g / cm^3
# Si number density = 22.292448 Si / 1000 Ang^3
#
#
#
# Elastic Constant Matrix: (Units=GPa)
#
#
# Indices 1 2 3 4 5 6 
#
# 1 57.9912 45.6443 16.2328 0.0000 0.0000 0.0000
# 2 45.6443 57.9912 16.2328 0.0000 0.0000 0.0000
# 3 16.2328 16.2328 106.6110 0.0000 0.0000 0.0000
# 4 0.0000 0.0000 0.0000 5.2649 0.0000 0.0000
# 5 0.0000 0.0000 0.0000 0.0000 5.2649 0.0000
# 6 0.0000 0.0000 0.0000 0.0000 0.0000 6.1735
#
#
#
# Elastic Compliance Matrix: (Units=1/GPa)
#
#
# Indices 1 2 3 4 5 6 
#
# 1 0.045562 -0.035430 -0.001543 0.000000 0.000000 0.000000
# 2 -0.035430 0.045562 -0.001543 0.000000 0.000000 0.000000
# 3 -0.001543 -0.001543 0.009850 0.000000 0.000000 0.000000
# 4 0.000000 0.000000 0.000000 0.189936 0.000000 0.000000
# 5 0.000000 0.000000 0.000000 0.000000 0.189936 0.000000
# 6 0.000000 0.000000 0.000000 0.000000 0.000000 0.161984
#
#
# Mechanical properties :
#
#
# Convention : Reuss Voigt Hill
#
# Bulk Modulus (GPa) = 41.76489 42.09035 41.92762
# Shear Modulus (GPa) = 6.86963 12.97291 9.92127
#
# Velocity S-wave (km/s) = 1.75735 2.41496 2.11191
# Velocity P-wave (km/s) = 4.78470 5.16702 4.97953
#
# Compressibility (1/GPa) = 0.02394356
#
# Stress axis : x y z
#
# Youngs Moduli (GPa) = 21.94800 21.94800 101.52584
#
# Poissons Ratio (x) = 0.77761 0.15663
# Poissons Ratio (y) = 0.77761 0.15663
# Poissons Ratio (z) = 0.03386 0.03386
#
# Static dielectric constant tensor:
#      x y z
#    x 1.936110 0.000000 0.000000 
#    y 0.000000 1.936110 0.000000 
#    z 0.000000 0.000000 1.716600 
# 
# From -- ./inp_files/297.got.cif
#   From: 2010.05.17/outbox.cif.g08.bks.cpg/sg169_cif.got.tgz:297.got - 2010.05.20 11:12:54.
