data_PCOD9579686
_publ_section_title
;
Structure prediction by ZEFSAII (Michael W. Deem and Ramdas Pophale) SiO2 
 PCOD9579686
Probable space group: R -3 C 
;
_chemical_formula_sum "Si O2"
_cell_formula_units_Z 84
_cell_length_a 11.629810
_cell_length_b 11.629810
_cell_length_c 32.064229
_cell_angle_alpha 90.000000
_cell_angle_beta 90.000000
_cell_angle_gamma 120.000000
_cell_volume 3755.749970
_symmetry_space_group_name_H-M "R -3 C "
_symmetry_group_IT_number 167
_symmetry_cell_setting 'hexagonal'
loop_
_space_group_symop_operation_xyz
x,y,z
-y,x-y,z
-x+y,-x,z
x-y,-y,1/2-z
-x,-x+y,1/2-z
y,x,1/2-z
-x,-y,-z
y,-x+y,-z
x-y,x,-z
-x+y,y,1/2+z
x,x-y,1/2+z
-y,-x,1/2+z
2/3+x,1/3+y,1/3+z
2/3-y,1/3+x-y,1/3+z
2/3-x+y,1/3-x,1/3+z
2/3+x-y,1/3-y,5/6-z
2/3-x,1/3-x+y,5/6-z
2/3+y,1/3+x,5/6-z
2/3-x,1/3-y,1/3-z
2/3+y,1/3-x+y,1/3-z
2/3+x-y,1/3+x,1/3-z
2/3-x+y,1/3+y,5/6+z
2/3+x,1/3+x-y,5/6+z
2/3-y,1/3-x,5/6+z
1/3+x,2/3+y,2/3+z
1/3-y,2/3+x-y,2/3+z
1/3-x+y,2/3-x,2/3+z
1/3+x-y,2/3-y,1/6-z
1/3-x,2/3-x+y,1/6-z
1/3+y,2/3+x,1/6-z
1/3-x,2/3-y,2/3-z
1/3+y,2/3-x+y,2/3-z
1/3+x-y,2/3+x,2/3-z
1/3-x+y,2/3+y,1/6+z
1/3+x,2/3+x-y,1/6+z
1/3-y,2/3-x,1/6+z
loop_
_atom_site_type_symbol
_atom_site_label
_atom_site_fract_x
_atom_site_fract_y
_atom_site_fract_z
Si Si1 0.497048 0.792893 0.360468
Si Si2 0.666667 0.333334 0.883139
Si Si3 0.738788 0.922203 0.900055
O O1 0.366098 0.803053 0.367728
O O2 0.626688 0.854799 0.388571
O O3 0.531270 0.834651 0.312592
O O4 0.666668 0.333335 0.833334
O O5 0.582936 0.398155 0.901840
O O6 0.676718 0.010052 0.916667
#
# Coordination Sequence:
#
# PCOD9579686 Si02
#       3
#    36  12  36
#     4   9  20  46  78 106 138 179 255 313 347 412
#     4  12  27  54  66 108 163 194 232 288 381 465
#     4  11  23  44  74 108 144 197 240 297 366 434
#
# _framework density 22.365707
#
# number of rings (size 3 to 8) (size 9 to 14) (size 15 to 20)
#    0.857    0.857    4.286    0.000    0.000    5.143 
#    7.714    0.000    0.000    0.000    0.000    0.000 
#    0.000    0.000    0.000    0.000    0.000    0.000 
#
# Total GULP energy -156185.857389 kJ/mol
# GULP energy per Si atom -5578.066335 kJ/mol
# Density = 2.231480 g / cm^3
# Si number density = 22.365707 Si / 1000 Ang^3
#
#
#
# Elastic Constant Matrix: (Units=GPa)
#
#
# Indices 1 2 3 4 5 6 
#
# 1 93.6511 40.7562 82.0516 18.6424 0.0001 0.0000
# 2 40.7562 93.6499 82.0515 -18.6420 -0.0001 0.0000
# 3 82.0516 82.0515 215.9876 0.0003 0.0000 0.0000
# 4 18.6424 -18.6420 0.0003 47.3116 0.0000 -0.0001
# 5 0.0001 -0.0001 0.0000 0.0000 47.3117 18.6424
# 6 0.0000 0.0000 0.0000 -0.0001 18.6424 26.4474
#
#
#
# Elastic Compliance Matrix: (Units=1/GPa)
#
#
# Indices 1 2 3 4 5 6 
#
# 1 0.020026 -0.006150 -0.005271 -0.010314 0.000000 0.000000
# 2 -0.006150 0.020026 -0.005272 0.010314 0.000000 0.000000
# 3 -0.005271 -0.005272 0.008635 0.000000 0.000000 0.000000
# 4 -0.010314 0.010314 0.000000 0.029265 0.000000 0.000000
# 5 0.000000 0.000000 0.000000 0.000000 0.029265 -0.020628
# 6 0.000000 0.000000 0.000000 0.000000 -0.020628 0.052351
#
#
# Mechanical properties :
#
#
# Convention : Reuss Voigt Hill
#
# Bulk Modulus (GPa) = 65.35203 90.33413 77.84308
# Shear Modulus (GPa) = 25.24566 37.44274 31.34420
#
# Velocity S-wave (km/s) = 3.36336 4.09603 3.74764
# Velocity P-wave (km/s) = 6.66079 7.92762 7.32166
#
# Compressibility (1/GPa) = 0.01530174
#
# Stress axis : x y z
#
# Youngs Moduli (GPa) = 49.93534 49.93448 115.80718
#
# Poissons Ratio (x) = 0.30709 0.61046
# Poissons Ratio (y) = 0.30709 0.61048
# Poissons Ratio (z) = 0.26323 0.26323
#
# Static dielectric constant tensor:
#      x y z
#    x 1.866040 0.000000 0.000000 
#    y 0.000000 1.866040 0.000000 
#    z 0.000000 0.000000 1.881680 
# 
# From -- ./inp_files/6732.got.cif
#   From: 2010.05.17/outbox.cif.g08.bks.cpg/sg167_4_cif.got.tgz:6732.got - 2010.05.20 11:09:15.
