data_PCOD9579678
_publ_section_title
;
Structure prediction by ZEFSAII (Michael W. Deem and Ramdas Pophale) SiO2 
 PCOD9579678
Probable space group: R -3 C 
;
_chemical_formula_sum "Si O2"
_cell_formula_units_Z 252
_cell_length_a 30.887971
_cell_length_b 30.887971
_cell_length_c 17.527277
_cell_angle_alpha 90.000000
_cell_angle_beta 90.000000
_cell_angle_gamma 120.000000
_cell_volume 14481.843293
_symmetry_space_group_name_H-M "R -3 C "
_symmetry_group_IT_number 167
_symmetry_cell_setting 'hexagonal'
loop_
_space_group_symop_operation_xyz
x,y,z
-y,x-y,z
-x+y,-x,z
x-y,-y,1/2-z
-x,-x+y,1/2-z
y,x,1/2-z
-x,-y,-z
y,-x+y,-z
x-y,x,-z
-x+y,y,1/2+z
x,x-y,1/2+z
-y,-x,1/2+z
2/3+x,1/3+y,1/3+z
2/3-y,1/3+x-y,1/3+z
2/3-x+y,1/3-x,1/3+z
2/3+x-y,1/3-y,5/6-z
2/3-x,1/3-x+y,5/6-z
2/3+y,1/3+x,5/6-z
2/3-x,1/3-y,1/3-z
2/3+y,1/3-x+y,1/3-z
2/3+x-y,1/3+x,1/3-z
2/3-x+y,1/3+y,5/6+z
2/3+x,1/3+x-y,5/6+z
2/3-y,1/3-x,5/6+z
1/3+x,2/3+y,2/3+z
1/3-y,2/3+x-y,2/3+z
1/3-x+y,2/3-x,2/3+z
1/3+x-y,2/3-y,1/6-z
1/3-x,2/3-x+y,1/6-z
1/3+y,2/3+x,1/6-z
1/3-x,2/3-y,2/3-z
1/3+y,2/3-x+y,2/3-z
1/3+x-y,2/3+x,2/3-z
1/3-x+y,2/3+y,1/6+z
1/3+x,2/3+x-y,1/6+z
1/3-y,2/3-x,1/6+z
loop_
_atom_site_type_symbol
_atom_site_label
_atom_site_fract_x
_atom_site_fract_y
_atom_site_fract_z
Si Si1 0.386063 0.950975 0.458392
Si Si2 0.789345 0.860306 0.474371
Si Si3 0.526913 0.061228 0.508440
Si Si4 0.825787 0.288412 0.377106
Si Si5 0.970942 0.396627 0.327896
Si Si6 0.299184 0.048552 0.530954
Si Si7 0.794501 0.743435 0.298702
O O1 0.333334 0.919673 0.416667
O O2 0.416442 0.922094 0.469724
O O3 0.379826 0.967057 0.543290
O O4 0.419792 0.997459 0.403046
O O5 0.761641 0.861268 0.395940
O O6 0.829325 0.841246 0.467105
O O7 0.807616 0.911850 0.519213
O O8 0.743593 0.813125 0.515461
O O9 0.498148 0.070620 0.575616
O O10 0.500000 0.000000 0.500000
O O11 0.863322 0.276383 0.327196
O O12 0.842153 0.286764 0.463757
O O13 0.954654 0.338826 0.335632
O O14 0.000000 0.415911 0.250000
O O15 0.354288 0.089094 0.505478
O O16 0.765298 0.765298 0.250000
#
# Coordination Sequence:
#
# PCOD9579678 Si02
#       7
#    36  36  36  36  36  36  36
#     4  12  24  38  57  82 121 170 206 255 302 360
#     4  11  23  42  60  86 118 157 198 257 311 370
#     4  12  22  40  60  84 123 167 206 253 308 356
#     4  11  25  41  64  88 122 155 210 255 317 379
#     4  11  23  34  54  86 119 158 207 250 291 358
#     4  11  23  37  56  85 121 164 210 250 297 353
#     4  12  24  39  61  88 119 170 212 261 301 356
#
# _framework density 17.401098999999999
#
# number of rings (size 3 to 8) (size 9 to 14) (size 15 to 20)
#    0.000    0.571    7.143    0.857    4.000    0.000 
#    0.000    0.000    0.000    0.286    0.000    0.000 
#    0.000    0.000    0.000    0.000    0.000    0.000 
#
# Total GULP energy -469037.062721 kJ/mol
# GULP energy per Si atom -5583.774556 kJ/mol
# Density = 1.736149 g / cm^3
# Si number density = 17.401099 Si / 1000 Ang^3
#
#
#
# Elastic Constant Matrix: (Units=GPa)
#
#
# Indices 1 2 3 4 5 6 
#
# 1 97.9225 66.7199 34.9872 0.8837 0.0000 0.0000
# 2 66.7199 97.9225 34.9872 -0.8837 0.0000 0.0000
# 3 34.9872 34.9872 61.9702 0.0000 0.0000 0.0000
# 4 0.8837 -0.8837 0.0000 25.6168 0.0000 0.0000
# 5 0.0000 0.0000 0.0000 0.0000 25.6168 0.8837
# 6 0.0000 0.0000 0.0000 0.0000 0.8837 15.6013
#
#
#
# Elastic Compliance Matrix: (Units=1/GPa)
#
#
# Indices 1 2 3 4 5 6 
#
# 1 0.020051 -0.012060 -0.004512 -0.001108 0.000000 0.000000
# 2 -0.012060 0.020051 -0.004512 0.001108 0.000000 0.000000
# 3 -0.004512 -0.004512 0.021231 0.000000 0.000000 0.000000
# 4 -0.001108 0.001108 0.000000 0.039113 0.000000 0.000000
# 5 0.000000 0.000000 0.000000 0.000000 0.039113 -0.002216
# 6 0.000000 0.000000 0.000000 0.000000 -0.002216 0.064223
#
#
# Mechanical properties :
#
#
# Convention : Reuss Voigt Hill
#
# Bulk Modulus (GPa) = 52.17320 59.02264 55.59792
# Shear Modulus (GPa) = 19.81459 21.44171 20.62815
#
# Velocity S-wave (km/s) = 3.37812 3.51408 3.44677
# Velocity P-wave (km/s) = 6.72781 7.10335 6.91813
#
# Compressibility (1/GPa) = 0.01916693
#
# Stress axis : x y z
#
# Youngs Moduli (GPa) = 49.87201 49.87201 47.10038
#
# Poissons Ratio (x) = 0.60146 0.21250
# Poissons Ratio (y) = 0.60146 0.21250
# Poissons Ratio (z) = 0.22501 0.22501
#
# Static dielectric constant tensor:
#      x y z
#    x 1.606550 0.000000 0.000000 
#    y 0.000000 1.606550 0.000000 
#    z 0.000000 0.000000 1.623490 
# 
# From -- ./inp_files/3669.got.cif
#   From: 2010.05.17/outbox.cif.g08.bks.cpg/sg167_2_cif.got.tgz:3669.got - 2010.05.20 11:09:15.
