data_PCOD9579040
_publ_section_title
;
Structure prediction by ZEFSAII (Michael W. Deem and Ramdas Pophale) SiO2 
 PCOD9579040
Probable space group: R -3 M
;
_chemical_formula_sum "Si O2"
_cell_formula_units_Z 216
_cell_length_a 22.880235
_cell_length_b 22.880235
_cell_length_c 24.498807
_cell_angle_alpha 90.000000
_cell_angle_beta 90.000000
_cell_angle_gamma 120.000000
_cell_volume 11106.993802
_symmetry_space_group_name_H-M "R -3 M"
_symmetry_group_IT_number 166
_symmetry_cell_setting 'hexagonal'
loop_
_space_group_symop_operation_xyz
x,y,z
-y,x-y,z
-x+y,-x,z
x-y,-y,-z
-x,-x+y,-z
y,x,-z
-x,-y,-z
y,-x+y,-z
x-y,x,-z
-x+y,y,z
x,x-y,z
-y,-x,z
2/3+x,1/3+y,1/3+z
2/3-y,1/3+x-y,1/3+z
2/3-x+y,1/3-x,1/3+z
2/3+x-y,1/3-y,1/3-z
2/3-x,1/3-x+y,1/3-z
2/3+y,1/3+x,1/3-z
2/3-x,1/3-y,1/3-z
2/3+y,1/3-x+y,1/3-z
2/3+x-y,1/3+x,1/3-z
2/3-x+y,1/3+y,1/3+z
2/3+x,1/3+x-y,1/3+z
2/3-y,1/3-x,1/3+z
1/3+x,2/3+y,2/3+z
1/3-y,2/3+x-y,2/3+z
1/3-x+y,2/3-x,2/3+z
1/3+x-y,2/3-y,2/3-z
1/3-x,2/3-x+y,2/3-z
1/3+y,2/3+x,2/3-z
1/3-x,2/3-y,2/3-z
1/3+y,2/3-x+y,2/3-z
1/3+x-y,2/3+x,2/3-z
1/3-x+y,2/3+y,2/3+z
1/3+x,2/3+x-y,2/3+z
1/3-y,2/3-x,2/3+z
loop_
_atom_site_type_symbol
_atom_site_label
_atom_site_fract_x
_atom_site_fract_y
_atom_site_fract_z
Si Si1 0.890351 0.250098 0.228159
Si Si2 0.482302 0.096042 0.215324
Si Si3 0.941447 0.406285 0.955988
Si Si4 0.865200 0.865533 0.219208
Si Si5 0.575436 0.720065 0.980456
Si Si6 0.922188 0.715995 0.500732
O O1 0.816441 0.183560 0.226159
O O2 0.921157 0.254490 0.166667
O O3 0.885631 0.315910 0.243389
O O4 0.932100 0.236495 0.274251
O O5 0.553619 0.107238 0.238994
O O6 0.502263 0.140407 0.159844
O O7 0.436953 0.016681 0.202393
O O8 0.908105 0.454053 0.960589
O O9 0.974853 0.420949 0.896869
O O10 0.891866 0.328336 0.968901
O O11 0.000000 0.432526 0.000000
O O12 0.885465 0.942733 0.227583
O O13 0.838036 0.822886 0.274420
O O14 0.929478 0.858956 0.201182
O O15 0.583846 0.791923 0.996310
O O16 0.872493 0.744986 0.490191
O O17 0.000000 0.770037 0.500000
#
# Coordination Sequence:
#
# PCOD9579040 Si02
#       6
#    36  36  36  36  36  36
#     4  10  18  30  50  75 105 140 178 217 262 318
#     4  10  19  30  48  73 101 136 179 218 256 308
#     4  10  21  36  53  76 106 140 176 220 272 322
#     4  10  18  28  43  68 101 136 174 213 256 310
#     4  10  20  32  51  76 101 137 177 213 263 326
#     4  10  22  37  56  80 104 136 179 226 274 319
#
# _framework density 19.447206999999999
#
# number of rings (size 3 to 8) (size 9 to 14) (size 15 to 20)
#    0.000    2.000    1.667    2.667    2.333    3.333 
#    0.000    0.000    0.000    0.833    0.000    0.000 
#    0.000    0.000    0.000    0.000    0.000    6.667 
#
# Total GULP energy -401686.199805 kJ/mol
# GULP energy per Si atom -5578.974997 kJ/mol
# Density = 1.940294 g / cm^3
# Si number density = 19.447207 Si / 1000 Ang^3
#
#
#
# Elastic Constant Matrix: (Units=GPa)
#
#
# Indices 1 2 3 4 5 6 
#
# 1 82.9419 21.3435 -2.7785 1.4953 0.0000 0.0000
# 2 21.3435 82.9419 -2.7785 -1.4953 0.0000 0.0000
# 3 -2.7785 -2.7785 7.3652 0.0000 0.0000 0.0000
# 4 1.4953 -1.4953 0.0000 17.6304 0.0000 0.0000
# 5 0.0000 0.0000 0.0000 0.0000 17.6304 1.4953
# 6 0.0000 0.0000 0.0000 0.0000 1.4953 30.7992
#
#
#
# Elastic Compliance Matrix: (Units=1/GPa)
#
#
# Indices 1 2 3 4 5 6 
#
# 1 0.013044 -0.003258 0.003692 -0.001383 0.000000 0.000000
# 2 -0.003258 0.013044 0.003692 0.001383 0.000000 0.000000
# 3 0.003692 0.003692 0.138559 0.000000 0.000000 0.000000
# 4 -0.001383 0.001383 0.000000 0.056955 0.000000 0.000000
# 5 0.000000 0.000000 0.000000 0.000000 0.056955 -0.002765
# 6 0.000000 0.000000 0.000000 0.000000 -0.002765 0.032603
#
#
# Mechanical properties :
#
#
# Convention : Reuss Voigt Hill
#
# Bulk Modulus (GPa) = 5.78377 22.75800 14.27088
# Shear Modulus (GPa) = 13.86810 23.70951 18.78880
#
# Velocity S-wave (km/s) = 2.67332 3.49545 3.11166
# Velocity P-wave (km/s) = 3.53686 5.29328 4.50156
#
# Compressibility (1/GPa) = 0.17289749
#
# Stress axis : x y z
#
# Youngs Moduli (GPa) = 76.66625 76.66625 7.21712
#
# Poissons Ratio (x) = 0.24976 -0.02664
# Poissons Ratio (y) = 0.24976 -0.02664
# Poissons Ratio (z) = -0.28302 -0.28302
#
# Static dielectric constant tensor:
#      x y z
#    x 1.702440 0.000000 0.000000 
#    y 0.000000 1.702440 0.000000 
#    z 0.000000 0.000000 1.699390 
# 
# From -- ./inp_files/8445.got.cif
#   From: 2010.05.17/outbox.cif.g08.bks.cpg/sg166_5_cif.got.tgz:8445.got - 2010.05.20 11:04:41.
