data_PCOD9579891
_publ_section_title
;
Structure prediction by ZEFSAII (Michael W. Deem and Ramdas Pophale) SiO2 
 PCOD9579891
Probable space group: P 61
;
_chemical_formula_sum "Si O2"
_cell_formula_units_Z 48
_cell_length_a 17.288152
_cell_length_b 17.288152
_cell_length_c 9.372063
_cell_angle_alpha 90.000000
_cell_angle_beta 90.000000
_cell_angle_gamma 120.000000
_cell_volume 2425.844595
_symmetry_space_group_name_H-M "P 61"
_symmetry_group_IT_number 169
_symmetry_cell_setting 'hexagonal'
loop_
_space_group_symop_operation_xyz
x,y,z
x-y,x,1/6+z
-y,x-y,1/3+z
-x,-y,1/2+z
-x+y,-x,2/3+z
y,-x+y,5/6+z
loop_
_atom_site_type_symbol
_atom_site_label
_atom_site_fract_x
_atom_site_fract_y
_atom_site_fract_z
Si Si1 0.378289 0.483924 0.260700
Si Si2 0.875942 0.511949 0.614372
Si Si3 0.455366 0.090632 0.778524
Si Si4 0.354586 0.193453 0.772838
Si Si5 0.909129 0.219675 0.544729
Si Si6 0.904053 0.090375 0.293050
Si Si7 0.645472 0.760201 0.944417
Si Si8 0.111118 0.503155 0.437217
O O1 0.422543 0.568514 0.363541
O O2 0.281111 0.408412 0.310828
O O3 0.440825 0.438087 0.265161
O O4 0.377477 0.505393 0.095312
O O5 0.839554 0.567421 0.531204
O O6 0.851580 0.495084 0.780431
O O7 0.983872 0.573764 0.610861
O O8 0.376951 0.113718 0.770551
O O9 0.529686 0.128891 0.655497
O O10 0.261009 0.164978 0.849865
O O11 0.357748 0.221687 0.610080
O O12 0.913579 0.157526 0.421068
O O13 0.846783 0.164283 0.676194
O O14 0.009248 0.287633 0.594019
O O15 0.995303 0.125831 0.203060
O O16 0.548743 0.687751 0.882430
#
# Coordination Sequence:
#
# PCOD9579891 Si02
#       8
#     6   6   6   6   6   6   6   6
#     4   9  19  36  64  92 119 160 206 265 324 392
#     4  10  21  38  65  94 127 166 215 267 333 399
#     4  10  20  37  63  93 125 161 216 267 328 391
#     4  12  25  39  68  98 134 176 228 283 337 420
#     4  11  22  42  68  96 129 174 225 283 347 414
#     4  12  26  49  69  97 137 189 243 299 361 419
#     4  11  25  39  64  96 133 171 226 282 342 409
#     4   9  20  38  61  90 124 161 207 262 322 398
#
# _framework density 19.786922000000001
#
# number of rings (size 3 to 8) (size 9 to 14) (size 15 to 20)
#    0.000    1.500    2.500    2.250    7.000    2.000 
#    2.250    0.000    5.500    0.000    0.000    0.000 
#    0.000    0.000    0.000    0.000    0.000    0.000 
#
# Total GULP energy -268090.099244 kJ/mol
# GULP energy per Si atom -5585.210401 kJ/mol
# Density = 1.974189 g / cm^3
# Si number density = 19.786922 Si / 1000 Ang^3
#
#
#
# Elastic Constant Matrix: (Units=GPa)
#
#
# Indices 1 2 3 4 5 6 
#
# 1 71.3853 15.6814 31.4570 0.0000 0.0000 0.0000
# 2 15.6814 71.3853 31.4570 0.0000 0.0000 0.0000
# 3 31.4570 31.4570 136.5419 0.0000 0.0000 0.0000
# 4 0.0000 0.0000 0.0000 32.5434 0.0000 0.0000
# 5 0.0000 0.0000 0.0000 0.0000 32.5434 0.0000
# 6 0.0000 0.0000 0.0000 0.0000 0.0000 27.8520
#
#
#
# Elastic Compliance Matrix: (Units=1/GPa)
#
#
# Indices 1 2 3 4 5 6 
#
# 1 0.015866 -0.002086 -0.003175 0.000000 0.000000 0.000000
# 2 -0.002086 0.015866 -0.003175 0.000000 0.000000 0.000000
# 3 -0.003175 -0.003175 0.008786 0.000000 0.000000 0.000000
# 4 0.000000 0.000000 0.000000 0.030728 0.000000 0.000000
# 5 0.000000 0.000000 0.000000 0.000000 0.030728 0.000000
# 6 0.000000 0.000000 0.000000 0.000000 0.000000 0.035904
#
#
# Mechanical properties :
#
#
# Convention : Reuss Voigt Hill
#
# Bulk Modulus (GPa) = 42.28860 48.50038 45.39449
# Shear Modulus (GPa) = 30.74434 31.96890 31.35662
#
# Velocity S-wave (km/s) = 3.94607 4.02389 3.98517
# Velocity P-wave (km/s) = 6.49464 6.79363 6.64582
#
# Compressibility (1/GPa) = 0.02364703
#
# Stress axis : x y z
#
# Youngs Moduli (GPa) = 63.02907 63.02907 113.81119
#
# Poissons Ratio (x) = 0.13150 0.36130
# Poissons Ratio (y) = 0.13150 0.36130
# Poissons Ratio (z) = 0.20009 0.20009
#
# Static dielectric constant tensor:
#      x y z
#    x 1.693640 0.000000 0.000000 
#    y 0.000000 1.693640 0.000000 
#    z 0.000000 0.000000 1.682260 
# 
# From -- ./inp_files/765.got.cif
#   From: 2010.05.17/outbox.cif.g08.bks.cpg/sg169_cif.got.tgz:765.got - 2010.05.20 11:12:54.
