data_PCOD9579129
_publ_section_title
;
Structure prediction by ZEFSAII (Michael W. Deem and Ramdas Pophale) SiO2 
 PCOD9579129
Probable space group: R -3 M
;
_chemical_formula_sum "Si O2"
_cell_formula_units_Z 90
_cell_length_a 20.730837
_cell_length_b 20.730837
_cell_length_c 13.146921
_cell_angle_alpha 90.000000
_cell_angle_beta 90.000000
_cell_angle_gamma 120.000000
_cell_volume 4893.148079
_symmetry_space_group_name_H-M "R -3 M"
_symmetry_group_IT_number 166
_symmetry_cell_setting 'hexagonal'
loop_
_space_group_symop_operation_xyz
x,y,z
-y,x-y,z
-x+y,-x,z
x-y,-y,-z
-x,-x+y,-z
y,x,-z
-x,-y,-z
y,-x+y,-z
x-y,x,-z
-x+y,y,z
x,x-y,z
-y,-x,z
2/3+x,1/3+y,1/3+z
2/3-y,1/3+x-y,1/3+z
2/3-x+y,1/3-x,1/3+z
2/3+x-y,1/3-y,1/3-z
2/3-x,1/3-x+y,1/3-z
2/3+y,1/3+x,1/3-z
2/3-x,1/3-y,1/3-z
2/3+y,1/3-x+y,1/3-z
2/3+x-y,1/3+x,1/3-z
2/3-x+y,1/3+y,1/3+z
2/3+x,1/3+x-y,1/3+z
2/3-y,1/3-x,1/3+z
1/3+x,2/3+y,2/3+z
1/3-y,2/3+x-y,2/3+z
1/3-x+y,2/3-x,2/3+z
1/3+x-y,2/3-y,2/3-z
1/3-x,2/3-x+y,2/3-z
1/3+y,2/3+x,2/3-z
1/3-x,2/3-y,2/3-z
1/3+y,2/3-x+y,2/3-z
1/3+x-y,2/3+x,2/3-z
1/3-x+y,2/3+y,2/3+z
1/3+x,2/3+x-y,2/3+z
1/3-y,2/3-x,2/3+z
loop_
_atom_site_type_symbol
_atom_site_label
_atom_site_fract_x
_atom_site_fract_y
_atom_site_fract_z
Si Si1 0.333334 0.819697 0.166667
Si Si2 0.619854 0.537193 0.025768
Si Si3 0.512514 0.179561 0.216197
O O1 0.406124 0.812248 0.164441
O O2 0.333123 0.862957 0.267490
O O3 0.539999 0.460002 0.026210
O O4 0.656326 0.538309 0.133715
O O5 0.601972 0.601972 0.000000
O O6 0.596431 0.192862 0.205405
O O7 0.513503 0.256752 0.197778
O O8 0.489915 0.156582 0.333334
#
# Coordination Sequence:
#
# PCOD9579129 Si02
#       3
#    18  36  36
#     4  10  19  32  54  82 109 136 174 230 290 340
#     4   9  18  32  48  68 100 141 177 209 255 321
#     4   9  16  27  47  76 108 138 170 216 276 338
#
# _framework density 18.393066999999999
#
# number of rings (size 3 to 8) (size 9 to 14) (size 15 to 20)
#    0.000    2.800    0.000    1.800    0.000    1.600 
#    0.000    6.000    0.000    0.000    0.000   16.800 
#    0.000    0.000    0.000    0.000    0.000    0.000 
#
# Total GULP energy -167262.295570 kJ/mol
# GULP energy per Si atom -5575.409852 kJ/mol
# Density = 1.835120 g / cm^3
# Si number density = 18.393067 Si / 1000 Ang^3
#
#
#
# Elastic Constant Matrix: (Units=GPa)
#
#
# Indices 1 2 3 4 5 6 
#
# 1 53.0978 52.6669 69.5631 -7.2673 -0.0001 0.0000
# 2 52.6669 53.0978 69.5631 7.2673 0.0001 0.0000
# 3 69.5631 69.5631 171.4204 0.0000 0.0000 0.0000
# 4 -7.2673 7.2673 0.0000 15.6580 0.0000 0.0001
# 5 -0.0001 0.0001 0.0000 0.0000 15.6580 -7.2673
# 6 0.0000 0.0000 0.0000 0.0001 -7.2673 0.2155
#
#
#
# Elastic Compliance Matrix: (Units=1/GPa)
#
#
# Indices 1 2 3 4 5 6 
#
# 1 -0.069035 0.089316 -0.008230 -0.073496 -0.000001 0.000000
# 2 0.089316 -0.069035 -0.008230 0.073496 0.000001 0.000000
# 3 -0.008230 -0.008230 0.012513 0.000000 0.000000 0.000000
# 4 -0.073496 0.073496 0.000000 -0.004358 0.000000 0.000002
# 5 -0.000001 0.000001 0.000000 0.000000 -0.004358 -0.146991
# 6 0.000000 0.000000 0.000000 0.000002 -0.146991 -0.316703
#
#
# Mechanical properties :
#
#
# Convention : Reuss Voigt Hill
#
# Bulk Modulus (GPa) = 49.61563 73.46688 61.54126
# Shear Modulus (GPa) = -8.47502 12.02782 1.77640
#
# Velocity S-wave (km/s) = -2.14889 2.55998 0.98382
# Velocity P-wave (km/s) = 4.56911 6.98337 5.90103
#
# Compressibility (1/GPa) = 0.02015494
#
# Stress axis : x y z
#
# Youngs Moduli (GPa) = -14.48538 -14.48538 79.91505
#
# Poissons Ratio (x) = 1.29378 0.65772
# Poissons Ratio (y) = 1.29378 0.65772
# Poissons Ratio (z) = -0.11922 -0.11922
#
# Static dielectric constant tensor:
#      x y z
#    x 1.613690 0.000000 0.000000 
#    y 0.000000 1.613690 0.000000 
#    z 0.000000 0.000000 1.676740 
# 
# From -- ./inp_files/2573.got.cif
#   From: 2010.05.17/outbox.cif.g08.bks.cpg/sg166_2_cif.got.tgz:2573.got - 2010.05.20 11:04:41.
