data_PCOD9579588
_publ_section_title
;
Structure prediction by ZEFSAII (Michael W. Deem and Ramdas Pophale) SiO2 
 PCOD9579588
Probable space group: R -3 C 
;
_chemical_formula_sum "Si O2"
_cell_formula_units_Z 162
_cell_length_a 20.953486
_cell_length_b 20.953486
_cell_length_c 20.894810
_cell_angle_alpha 90.000000
_cell_angle_beta 90.000000
_cell_angle_gamma 120.000000
_cell_volume 7944.775517
_symmetry_space_group_name_H-M "R -3 C "
_symmetry_group_IT_number 167
_symmetry_cell_setting 'hexagonal'
loop_
_space_group_symop_operation_xyz
x,y,z
-y,x-y,z
-x+y,-x,z
x-y,-y,1/2-z
-x,-x+y,1/2-z
y,x,1/2-z
-x,-y,-z
y,-x+y,-z
x-y,x,-z
-x+y,y,1/2+z
x,x-y,1/2+z
-y,-x,1/2+z
2/3+x,1/3+y,1/3+z
2/3-y,1/3+x-y,1/3+z
2/3-x+y,1/3-x,1/3+z
2/3+x-y,1/3-y,5/6-z
2/3-x,1/3-x+y,5/6-z
2/3+y,1/3+x,5/6-z
2/3-x,1/3-y,1/3-z
2/3+y,1/3-x+y,1/3-z
2/3+x-y,1/3+x,1/3-z
2/3-x+y,1/3+y,5/6+z
2/3+x,1/3+x-y,5/6+z
2/3-y,1/3-x,5/6+z
1/3+x,2/3+y,2/3+z
1/3-y,2/3+x-y,2/3+z
1/3-x+y,2/3-x,2/3+z
1/3+x-y,2/3-y,1/6-z
1/3-x,2/3-x+y,1/6-z
1/3+y,2/3+x,1/6-z
1/3-x,2/3-y,2/3-z
1/3+y,2/3-x+y,2/3-z
1/3+x-y,2/3+x,2/3-z
1/3-x+y,2/3+y,1/6+z
1/3+x,2/3+x-y,1/6+z
1/3-y,2/3-x,1/6+z
loop_
_atom_site_type_symbol
_atom_site_label
_atom_site_fract_x
_atom_site_fract_y
_atom_site_fract_z
Si Si1 0.947244 0.666667 0.416667
Si Si2 0.513413 0.873149 0.844045
Si Si3 0.051843 0.466757 0.660002
Si Si4 0.385018 0.884602 0.794779
Si Si5 0.196854 0.785687 0.296908
O O1 0.890383 0.617522 0.472584
O O2 0.949464 0.600782 0.378579
O O3 0.540780 0.874113 0.916667
O O4 0.428554 0.850011 0.831337
O O5 0.534121 0.816175 0.812821
O O6 0.110931 0.501901 0.717285
O O7 0.062573 0.530316 0.611216
O O8 0.969610 0.427351 0.686147
O O9 0.299879 0.849270 0.813070
O O10 0.166667 0.833334 0.333334
#
# Coordination Sequence:
#
# PCOD9579588 Si02
#       5
#    18  36  36  36  36
#     4  10  22  40  66 104 134 178 226 284 362 418
#     4  11  25  41  67  97 138 179 232 294 354 438
#     4  10  23  38  67  98 136 176 222 288 351 429
#     4  11  24  41  65  99 134 180 230 286 362 421
#     4  11  25  43  66  97 135 179 235 292 352 428
#
# _framework density 20.390758999999999
#
# number of rings (size 3 to 8) (size 9 to 14) (size 15 to 20)
#    0.000    1.333    0.000    5.333   15.556    2.667 
#    1.333    0.000    0.000    1.333    0.000    0.000 
#    0.000    0.000    0.000    0.000    0.000    0.000 
#
# Total GULP energy -301113.015316 kJ/mol
# GULP energy per Si atom -5576.166950 kJ/mol
# Density = 2.034435 g / cm^3
# Si number density = 20.390759 Si / 1000 Ang^3
#
#
#
# Elastic Constant Matrix: (Units=GPa)
#
#
# Indices 1 2 3 4 5 6 
#
# 1 117.2525 63.6176 40.2656 10.2338 -0.0003 0.0000
# 2 63.6176 117.2525 40.2656 -10.2338 0.0003 0.0000
# 3 40.2656 40.2656 116.5379 0.0000 0.0000 0.0000
# 4 10.2338 -10.2338 0.0000 24.2664 0.0000 0.0003
# 5 -0.0003 0.0003 0.0000 0.0000 24.2664 10.2338
# 6 0.0000 0.0000 0.0000 0.0003 10.2338 26.8175
#
#
#
# Elastic Compliance Matrix: (Units=1/GPa)
#
#
# Indices 1 2 3 4 5 6 
#
# 1 0.014377 -0.007843 -0.002258 -0.009371 0.000000 0.000000
# 2 -0.007843 0.014377 -0.002258 0.009371 0.000000 0.000000
# 3 -0.002258 -0.002258 0.010141 0.000000 0.000000 0.000000
# 4 -0.009371 0.009371 0.000000 0.049113 0.000000 -0.000001
# 5 0.000000 0.000000 0.000000 0.000000 0.049113 -0.018742
# 6 0.000000 0.000000 0.000000 -0.000001 -0.018742 0.044441
#
#
# Mechanical properties :
#
#
# Convention : Reuss Voigt Hill
#
# Bulk Modulus (GPa) = 70.52885 71.03782 70.78333
# Shear Modulus (GPa) = 23.69593 28.86300 26.27947
#
# Velocity S-wave (km/s) = 3.41265 3.76639 3.59387
# Velocity P-wave (km/s) = 7.08463 7.33676 7.21180
#
# Compressibility (1/GPa) = 0.01417860
#
# Stress axis : x y z
#
# Youngs Moduli (GPa) = 69.55394 69.55394 98.60992
#
# Poissons Ratio (x) = 0.54553 0.22262
# Poissons Ratio (y) = 0.54553 0.22262
# Poissons Ratio (z) = 0.15702 0.15702
#
# Static dielectric constant tensor:
#      x y z
#    x 1.732530 0.000000 0.000000 
#    y 0.000000 1.732530 0.000000 
#    z 0.000000 0.000000 1.711780 
# 
# From -- ./inp_files/4433.got.cif
#   From: 2010.05.17/outbox.cif.g08.bks.cpg/sg167_3_cif.got.tgz:4433.got - 2010.05.20 11:09:15.
