data_PCOD9579410
_publ_section_title
;
Structure prediction by ZEFSAII (Michael W. Deem and Ramdas Pophale) SiO2 
 PCOD9579410
Probable space group: R -3 C 
;
_chemical_formula_sum "Si O2"
_cell_formula_units_Z 180
_cell_length_a 26.817997
_cell_length_b 26.817997
_cell_length_c 15.542924
_cell_angle_alpha 90.000000
_cell_angle_beta 90.000000
_cell_angle_gamma 120.000000
_cell_volume 9680.906616
_symmetry_space_group_name_H-M "R -3 C "
_symmetry_group_IT_number 167
_symmetry_cell_setting 'hexagonal'
loop_
_space_group_symop_operation_xyz
x,y,z
-y,x-y,z
-x+y,-x,z
x-y,-y,1/2-z
-x,-x+y,1/2-z
y,x,1/2-z
-x,-y,-z
y,-x+y,-z
x-y,x,-z
-x+y,y,1/2+z
x,x-y,1/2+z
-y,-x,1/2+z
2/3+x,1/3+y,1/3+z
2/3-y,1/3+x-y,1/3+z
2/3-x+y,1/3-x,1/3+z
2/3+x-y,1/3-y,5/6-z
2/3-x,1/3-x+y,5/6-z
2/3+y,1/3+x,5/6-z
2/3-x,1/3-y,1/3-z
2/3+y,1/3-x+y,1/3-z
2/3+x-y,1/3+x,1/3-z
2/3-x+y,1/3+y,5/6+z
2/3+x,1/3+x-y,5/6+z
2/3-y,1/3-x,5/6+z
1/3+x,2/3+y,2/3+z
1/3-y,2/3+x-y,2/3+z
1/3-x+y,2/3-x,2/3+z
1/3+x-y,2/3-y,1/6-z
1/3-x,2/3-x+y,1/6-z
1/3+y,2/3+x,1/6-z
1/3-x,2/3-y,2/3-z
1/3+y,2/3-x+y,2/3-z
1/3+x-y,2/3+x,2/3-z
1/3-x+y,2/3+y,1/6+z
1/3+x,2/3+x-y,1/6+z
1/3-y,2/3-x,1/6+z
loop_
_atom_site_type_symbol
_atom_site_label
_atom_site_fract_x
_atom_site_fract_y
_atom_site_fract_z
Si Si1 0.869438 0.234957 0.192108
Si Si2 0.197508 0.462019 0.569827
Si Si3 0.115496 0.624573 0.182276
Si Si4 0.733772 0.707606 0.090434
Si Si5 0.333334 0.475653 0.916667
Si Si6 0.894666 0.666667 0.416667
O O1 0.833334 0.166667 0.166667
O O2 0.852982 0.248932 0.285355
O O3 0.934144 0.249563 0.174119
O O4 0.867109 0.285332 0.134121
O O5 0.160223 0.479663 0.629696
O O6 0.257075 0.477539 0.611786
O O7 0.194149 0.488258 0.479710
O O8 0.163118 0.392083 0.559804
O O9 0.093464 0.651379 0.254229
O O10 0.666667 0.679155 0.083334
O O11 0.751061 0.685602 0.002646
#
# Coordination Sequence:
#
# PCOD9579410 Si02
#       6
#    36  36  36  36  18  18
#     4  11  20  35  55  81 118 165 207 257 308 371
#     4  10  20  38  56  85 113 165 204 259 308 374
#     4  10  23  34  57  84 116 160 206 257 314 375
#     4  11  19  32  49  79 118 158 206 252 299 364
#     4  10  20  36  57  80 120 164 209 250 310 364
#     4  10  18  30  53  74 116 154 205 246 290 362
#
# _framework density 18.593299999999999
#
# number of rings (size 3 to 8) (size 9 to 14) (size 15 to 20)
#    0.000    1.600    3.000    4.800    1.400    0.000 
#    0.000    0.000    0.000   10.000    0.000    0.000 
#    0.000    0.000    0.000    0.000    0.000    0.000 
#
# Total GULP energy -334185.234845 kJ/mol
# GULP energy per Si atom -5569.753914 kJ/mol
# Density = 1.855098 g / cm^3
# Si number density = 18.593300 Si / 1000 Ang^3
#
#
#
# Elastic Constant Matrix: (Units=GPa)
#
#
# Indices 1 2 3 4 5 6 
#
# 1 84.4842 37.2688 24.9314 -7.0911 0.0006 0.0000
# 2 37.2688 84.4842 24.9314 7.0911 -0.0006 0.0000
# 3 24.9314 24.9314 56.6841 0.0000 0.0000 0.0000
# 4 -7.0911 7.0911 0.0000 20.8012 0.0000 -0.0006
# 5 0.0006 -0.0006 0.0000 0.0000 20.8012 -7.0911
# 6 0.0000 0.0000 0.0000 -0.0006 -7.0911 23.6077
#
#
#
# Elastic Compliance Matrix: (Units=1/GPa)
#
#
# Indices 1 2 3 4 5 6 
#
# 1 0.016807 -0.006789 -0.004406 0.008044 -0.000001 0.000000
# 2 -0.006789 0.016807 -0.004406 -0.008044 0.000001 0.000000
# 3 -0.004406 -0.004406 0.021518 0.000000 0.000000 0.000000
# 4 0.008044 -0.008044 0.000000 0.053558 0.000000 0.000001
# 5 -0.000001 0.000001 0.000000 0.000000 0.053558 0.016088
# 6 0.000000 0.000000 0.000000 0.000001 0.016088 0.047191
#
#
# Mechanical properties :
#
#
# Convention : Reuss Voigt Hill
#
# Bulk Modulus (GPa) = 41.79095 44.43508 43.11302
# Shear Modulus (GPa) = 20.11121 22.27677 21.19399
#
# Velocity S-wave (km/s) = 3.29239 3.46512 3.37986
# Velocity P-wave (km/s) = 6.08098 6.32137 6.20234
#
# Compressibility (1/GPa) = 0.02392862
#
# Stress axis : x y z
#
# Youngs Moduli (GPa) = 59.49992 59.49991 46.47370
#
# Poissons Ratio (x) = 0.40394 0.20477
# Poissons Ratio (y) = 0.40394 0.20477
# Poissons Ratio (z) = 0.26217 0.26217
#
# Static dielectric constant tensor:
#      x y z
#    x 1.647720 0.000000 0.000000 
#    y 0.000000 1.647720 0.000000 
#    z 0.000000 0.000000 1.738840 
# 
# From -- ./inp_files/3586.got.cif
#   From: 2010.05.17/outbox.cif.g08.bks.cpg/sg167_2_cif.got.tgz:3586.got - 2010.05.20 11:09:15.
