data_PCOD9579886
_publ_section_title
;
Structure prediction by ZEFSAII (Michael W. Deem and Ramdas Pophale) SiO2 
 PCOD9579886
Probable space group: P 61
;
_chemical_formula_sum "Si O2"
_cell_formula_units_Z 36
_cell_length_a 14.643870
_cell_length_b 14.643870
_cell_length_c 8.810788
_cell_angle_alpha 90.000000
_cell_angle_beta 90.000000
_cell_angle_gamma 120.000000
_cell_volume 1636.278082
_symmetry_space_group_name_H-M "P 61"
_symmetry_group_IT_number 169
_symmetry_cell_setting 'hexagonal'
loop_
_space_group_symop_operation_xyz
x,y,z
x-y,x,1/6+z
-y,x-y,1/3+z
-x,-y,1/2+z
-x+y,-x,2/3+z
y,-x+y,5/6+z
loop_
_atom_site_type_symbol
_atom_site_label
_atom_site_fract_x
_atom_site_fract_y
_atom_site_fract_z
Si Si1 0.439726 0.260748 0.645200
Si Si2 0.043323 0.339348 0.110830
Si Si3 0.783464 0.906507 0.104339
Si Si4 0.169858 0.651693 0.261890
Si Si5 0.461909 0.302605 0.203528
Si Si6 0.504851 0.455689 0.471859
O O1 0.397744 0.269323 0.809102
O O2 0.328767 0.192199 0.552215
O O3 0.497787 0.196672 0.598856
O O4 0.519753 0.376782 0.581588
O O5 0.105470 0.357742 0.268516
O O6 0.965363 0.218465 0.062639
O O7 0.981386 0.404461 0.130929
O O8 0.849821 0.853308 0.161020
O O9 0.199664 0.560577 0.254924
O O10 0.230045 0.744961 0.144093
O O11 0.048648 0.595938 0.217107
O O12 0.470621 0.397171 0.309761
#
# Coordination Sequence:
#
# PCOD9579886 Si02
#       6
#     6   6   6   6   6   6
#     4  10  20  37  64  87 117 161 203 253 316 389
#     4  10  20  37  60  88 120 163 208 254 318 386
#     4  10  21  39  62  88 118 159 214 264 315 373
#     4  10  21  38  54  85 120 154 203 250 310 385
#     4  10  22  36  57  84 116 155 197 255 316 379
#     4  10  20  37  59  86 121 156 199 252 311 388
#
# _framework density 22.001148000000001
#
# number of rings (size 3 to 8) (size 9 to 14) (size 15 to 20)
#    0.000    2.000    0.000    5.000    0.000    5.333 
#    0.000   11.667    0.000    0.000    0.000    0.000 
#    0.000    0.000    0.000    0.000    0.000    0.000 
#
# Total GULP energy -200675.708470 kJ/mol
# GULP energy per Si atom -5574.325235 kJ/mol
# Density = 2.195107 g / cm^3
# Si number density = 22.001148 Si / 1000 Ang^3
#
#
#
# Elastic Constant Matrix: (Units=GPa)
#
#
# Indices 1 2 3 4 5 6 
#
# 1 70.6172 3.8579 3.0367 0.0000 0.0000 0.0000
# 2 3.8579 70.6172 3.0367 0.0000 0.0000 0.0000
# 3 3.0367 3.0367 53.6129 0.0000 0.0000 0.0000
# 4 0.0000 0.0000 0.0000 37.2171 0.0000 0.0000
# 5 0.0000 0.0000 0.0000 0.0000 37.2171 0.0000
# 6 0.0000 0.0000 0.0000 0.0000 0.0000 33.3796
#
#
#
# Elastic Compliance Matrix: (Units=1/GPa)
#
#
# Indices 1 2 3 4 5 6 
#
# 1 0.014234 -0.000745 -0.000764 0.000000 0.000000 0.000000
# 2 -0.000745 0.014234 -0.000764 0.000000 0.000000 0.000000
# 3 -0.000764 -0.000764 0.018739 0.000000 0.000000 0.000000
# 4 0.000000 0.000000 0.000000 0.026869 0.000000 0.000000
# 5 0.000000 0.000000 0.000000 0.000000 0.026869 0.000000
# 6 0.000000 0.000000 0.000000 0.000000 0.000000 0.029958
#
#
# Mechanical properties :
#
#
# Convention : Reuss Voigt Hill
#
# Bulk Modulus (GPa) = 23.44022 23.85667 23.64845
# Shear Modulus (GPa) = 33.40655 33.89048 33.64852
#
# Velocity S-wave (km/s) = 3.90089 3.92905 3.91499
# Velocity P-wave (km/s) = 5.56476 5.60804 5.58644
#
# Compressibility (1/GPa) = 0.04266171
#
# Stress axis : x y z
#
# Youngs Moduli (GPa) = 70.25230 70.25230 53.36526
#
# Poissons Ratio (x) = 0.05232 0.04078
# Poissons Ratio (y) = 0.05232 0.04078
# Poissons Ratio (z) = 0.05368 0.05368
#
# Static dielectric constant tensor:
#      x y z
#    x 1.841990 0.000000 0.000000 
#    y 0.000000 1.841990 0.000000 
#    z 0.000000 0.000000 1.874680 
# 
# From -- ./inp_files/601.got.cif
#   From: 2010.05.17/outbox.cif.g08.bks.cpg/sg169_cif.got.tgz:601.got - 2010.05.20 11:12:54.
