data_PCOD9579470
_publ_section_title
;
Structure prediction by ZEFSAII (Michael W. Deem and Ramdas Pophale) SiO2 
 PCOD9579470
Probable space group: R -3 C 
;
_chemical_formula_sum "Si O2"
_cell_formula_units_Z 144
_cell_length_a 30.182635
_cell_length_b 30.182635
_cell_length_c 9.430430
_cell_angle_alpha 90.000000
_cell_angle_beta 90.000000
_cell_angle_gamma 120.000000
_cell_volume 7440.059883
_symmetry_space_group_name_H-M "R -3 C "
_symmetry_group_IT_number 167
_symmetry_cell_setting 'hexagonal'
loop_
_space_group_symop_operation_xyz
x,y,z
-y,x-y,z
-x+y,-x,z
x-y,-y,1/2-z
-x,-x+y,1/2-z
y,x,1/2-z
-x,-y,-z
y,-x+y,-z
x-y,x,-z
-x+y,y,1/2+z
x,x-y,1/2+z
-y,-x,1/2+z
2/3+x,1/3+y,1/3+z
2/3-y,1/3+x-y,1/3+z
2/3-x+y,1/3-x,1/3+z
2/3+x-y,1/3-y,5/6-z
2/3-x,1/3-x+y,5/6-z
2/3+y,1/3+x,5/6-z
2/3-x,1/3-y,1/3-z
2/3+y,1/3-x+y,1/3-z
2/3+x-y,1/3+x,1/3-z
2/3-x+y,1/3+y,5/6+z
2/3+x,1/3+x-y,5/6+z
2/3-y,1/3-x,5/6+z
1/3+x,2/3+y,2/3+z
1/3-y,2/3+x-y,2/3+z
1/3-x+y,2/3-x,2/3+z
1/3+x-y,2/3-y,1/6-z
1/3-x,2/3-x+y,1/6-z
1/3+y,2/3+x,1/6-z
1/3-x,2/3-y,2/3-z
1/3+y,2/3-x+y,2/3-z
1/3+x-y,2/3+x,2/3-z
1/3-x+y,2/3+y,1/6+z
1/3+x,2/3+x-y,1/6+z
1/3-y,2/3-x,1/6+z
loop_
_atom_site_type_symbol
_atom_site_label
_atom_site_fract_x
_atom_site_fract_y
_atom_site_fract_z
Si Si1 0.765626 0.620735 0.825527
Si Si2 0.426862 0.474526 0.323054
Si Si3 0.625847 0.461258 0.700077
Si Si4 0.154054 0.638277 0.777211
O O1 0.766922 0.666667 0.916667
O O2 0.812768 0.616996 0.895110
O O3 0.772272 0.630272 0.657176
O O4 0.717823 0.565374 0.857162
O O5 0.425024 0.425024 0.250000
O O6 0.383622 0.490410 0.314818
O O7 0.666667 0.467459 0.583334
O O8 0.571629 0.409501 0.687401
O O9 0.652530 0.466955 0.850409
O O10 0.151881 0.666667 0.916667
#
# Coordination Sequence:
#
# PCOD9579470 Si02
#       4
#    36  36  36  36
#     4  10  20  34  56  87 118 147 192 239 305 375
#     4  10  20  33  58  85 119 150 186 245 302 376
#     4  11  22  41  60  91 125 162 220 269 327 375
#     4  11  24  37  64  89 122 168 214 274 323 375
#
# _framework density 19.354683000000001
#
# number of rings (size 3 to 8) (size 9 to 14) (size 15 to 20)
#    0.000    1.500    2.500    4.500   14.000    0.000 
#    0.000    0.000    0.000   13.000    0.000    0.000 
#    0.000    0.000    0.000    0.000    0.000    0.000 
#
# Total GULP energy -267328.512177 kJ/mol
# GULP energy per Si atom -5569.344004 kJ/mol
# Density = 1.931063 g / cm^3
# Si number density = 19.354683 Si / 1000 Ang^3
#
#
#
# Elastic Constant Matrix: (Units=GPa)
#
#
# Indices 1 2 3 4 5 6 
#
# 1 52.3088 43.9221 27.6930 10.0141 0.0063 0.0070
# 2 43.9221 52.3306 27.7735 -9.9807 0.0206 0.0077
# 3 27.6930 27.7735 156.2583 0.0583 0.0095 0.0426
# 4 10.0141 -9.9807 0.0583 -4.2716 0.0151 0.0450
# 5 0.0063 0.0206 0.0095 0.0151 -4.2918 10.0552
# 6 0.0070 0.0077 0.0426 0.0450 10.0552 4.1979
#
#
#
# Elastic Compliance Matrix: (Units=1/GPa)
#
#
# Indices 1 2 3 4 5 6 
#
# 1 0.014840 -0.003272 -0.002064 0.042404 -0.000137 -0.000123
# 2 -0.003272 0.014853 -0.002044 -0.042402 0.000148 0.000100
# 3 -0.002064 -0.002044 0.007129 0.000035 -0.000023 -0.000011
# 4 0.042404 -0.042402 0.000035 -0.035617 0.000097 0.000155
# 5 -0.000137 0.000148 -0.000023 0.000097 -0.035241 0.084410
# 6 -0.000123 0.000100 -0.000011 0.000155 0.084410 0.036028
#
#
# Mechanical properties :
#
#
# Convention : Reuss Voigt Hill
#
# Bulk Modulus (GPa) = 45.32966 51.07498 48.20232
# Shear Modulus (GPa) = 207.41477 9.89418 108.65448
#
# Velocity S-wave (km/s) = 10.36329 2.26343 7.50070
# Velocity P-wave (km/s) = 12.91001 5.76863 9.99864
#
# Compressibility (1/GPa) = 0.02206061
#
# Stress axis : x y z
#
# Youngs Moduli (GPa) = 67.38731 67.32495 140.27524
#
# Poissons Ratio (x) = 0.22029 0.28955
# Poissons Ratio (y) = 0.22049 0.28677
# Poissons Ratio (z) = 0.13910 0.13764
#
# Static dielectric constant tensor:
#      x y z
#    x 1.718630 0.000000 -0.000170 
#    y 0.000000 1.718630 0.000020 
#    z -0.000170 0.000020 2.264100 
# 
# From -- ./inp_files/831.got.cif
#   From: 2010.05.17/outbox.cif.g08.bks.cpg/sg167_1_cif.got.tgz:831.got - 2010.05.20 11:09:15.
