data_PCOD9579158
_publ_section_title
;
Structure prediction by ZEFSAII (Michael W. Deem and Ramdas Pophale) SiO2 
 PCOD9579158
Probable space group: R -3 M
;
_chemical_formula_sum "Si O2"
_cell_formula_units_Z 126
_cell_length_a 27.904193
_cell_length_b 27.904193
_cell_length_c 9.569387
_cell_angle_alpha 90.000000
_cell_angle_beta 90.000000
_cell_angle_gamma 120.000000
_cell_volume 6452.881417
_symmetry_space_group_name_H-M "R -3 M"
_symmetry_group_IT_number 166
_symmetry_cell_setting 'hexagonal'
loop_
_space_group_symop_operation_xyz
x,y,z
-y,x-y,z
-x+y,-x,z
x-y,-y,-z
-x,-x+y,-z
y,x,-z
-x,-y,-z
y,-x+y,-z
x-y,x,-z
-x+y,y,z
x,x-y,z
-y,-x,z
2/3+x,1/3+y,1/3+z
2/3-y,1/3+x-y,1/3+z
2/3-x+y,1/3-x,1/3+z
2/3+x-y,1/3-y,1/3-z
2/3-x,1/3-x+y,1/3-z
2/3+y,1/3+x,1/3-z
2/3-x,1/3-y,1/3-z
2/3+y,1/3-x+y,1/3-z
2/3+x-y,1/3+x,1/3-z
2/3-x+y,1/3+y,1/3+z
2/3+x,1/3+x-y,1/3+z
2/3-y,1/3-x,1/3+z
1/3+x,2/3+y,2/3+z
1/3-y,2/3+x-y,2/3+z
1/3-x+y,2/3-x,2/3+z
1/3+x-y,2/3-y,2/3-z
1/3-x,2/3-x+y,2/3-z
1/3+y,2/3+x,2/3-z
1/3-x,2/3-y,2/3-z
1/3+y,2/3-x+y,2/3-z
1/3+x-y,2/3+x,2/3-z
1/3-x+y,2/3+y,2/3+z
1/3+x,2/3+x-y,2/3+z
1/3-y,2/3-x,2/3+z
loop_
_atom_site_type_symbol
_atom_site_label
_atom_site_fract_x
_atom_site_fract_y
_atom_site_fract_z
Si Si1 0.945638 0.417561 0.899954
Si Si2 0.928771 0.272248 0.327409
Si Si3 0.165618 0.445743 0.497985
Si Si4 0.552793 0.219460 0.333334
O O1 0.934273 0.467137 0.861846
O O2 0.961805 0.397446 0.762169
O O3 0.899422 0.376071 0.006917
O O4 0.000000 0.444540 0.000000
O O5 0.981997 0.333334 0.333334
O O6 0.879130 0.279140 0.396215
O O7 0.919685 0.253018 0.166667
O O8 0.218106 0.436211 0.501618
O O9 0.188586 0.508655 0.542732
O O10 0.612294 0.224588 0.355725
#
# Coordination Sequence:
#
# PCOD9579158 Si02
#       4
#    36  36  36  18
#     4   8  16  33  56  76 103 146 194 241 295 351
#     4  11  22  34  49  80 114 155 199 255 303 348
#     4   9  18  36  59  81 113 157 196 242 300 365
#     4  10  19  34  62  98 132 158 196 252 317 378
#
# _framework density 19.526160999999998
#
# number of rings (size 3 to 8) (size 9 to 14) (size 15 to 20)
#    0.000    2.571    1.429    2.714    0.000    5.714 
#    0.000    0.000    0.000    0.000    0.000    2.000 
#    0.000    1.143    0.000   24.286    0.000    0.000 
#
# Total GULP energy -234337.865315 kJ/mol
# GULP energy per Si atom -5579.472984 kJ/mol
# Density = 1.948172 g / cm^3
# Si number density = 19.526161 Si / 1000 Ang^3
#
#
#
# Elastic Constant Matrix: (Units=GPa)
#
#
# Indices 1 2 3 4 5 6 
#
# 1 97.8420 65.0481 72.1189 -2.8040 -0.0019 -0.0016
# 2 65.0481 97.8352 72.1195 2.8054 -0.0035 -0.0034
# 3 72.1189 72.1195 186.1010 0.0026 0.0006 -0.0081
# 4 -2.8040 2.8054 0.0026 18.4522 0.0046 0.0013
# 5 -0.0019 -0.0035 0.0006 0.0046 18.4491 -2.8089
# 6 -0.0016 -0.0034 -0.0081 0.0013 -2.8089 16.3950
#
#
#
# Elastic Compliance Matrix: (Units=1/GPa)
#
#
# Indices 1 2 3 4 5 6 
#
# 1 0.020328 -0.010982 -0.003622 0.004759 -0.000001 -0.000003
# 2 -0.010982 0.020330 -0.003622 -0.004759 0.000004 0.000002
# 3 -0.003622 -0.003622 0.008181 -0.000001 -0.000001 0.000003
# 4 0.004759 -0.004759 -0.000001 0.055641 -0.000015 -0.000008
# 5 -0.000001 0.000004 -0.000001 -0.000015 0.055655 0.009535
# 6 -0.000003 0.000002 0.000003 -0.000008 0.009535 0.062628
#
#
# Mechanical properties :
#
#
# Convention : Reuss Voigt Hill
#
# Bulk Modulus (GPa) = 80.73827 88.92789 84.83308
# Shear Modulus (GPa) = 18.98664 22.15870 20.57267
#
# Velocity S-wave (km/s) = 3.12167 3.37237 3.24943
# Velocity P-wave (km/s) = 7.37778 7.79780 7.59069
#
# Compressibility (1/GPa) = 0.01238570
#
# Stress axis : x y z
#
# Youngs Moduli (GPa) = 49.19400 49.18906 122.23852
#
# Poissons Ratio (x) = 0.54020 0.44271
# Poissons Ratio (y) = 0.54025 0.44280
# Poissons Ratio (z) = 0.17817 0.17818
#
# Static dielectric constant tensor:
#      x y z
#    x 1.712900 0.000000 -0.000010 
#    y 0.000000 1.712900 0.000000 
#    z -0.000010 0.000000 1.702790 
# 
# From -- ./inp_files/1649.got.cif
#   From: 2010.05.17/outbox.cif.g08.bks.cpg/sg166_1_cif.got.tgz:1649.got - 2010.05.20 11:04:41.
