data_PCOD9579643
_publ_section_title
;
Structure prediction by ZEFSAII (Michael W. Deem and Ramdas Pophale) SiO2 
 PCOD9579643
Probable space group: R -3 C 
;
_chemical_formula_sum "Si O2"
_cell_formula_units_Z 90
_cell_length_a 24.347050
_cell_length_b 24.347050
_cell_length_c 7.436861
_cell_angle_alpha 90.000000
_cell_angle_beta 90.000000
_cell_angle_gamma 120.000000
_cell_volume 3817.798397
_symmetry_space_group_name_H-M "R -3 C "
_symmetry_group_IT_number 167
_symmetry_cell_setting 'hexagonal'
loop_
_space_group_symop_operation_xyz
x,y,z
-y,x-y,z
-x+y,-x,z
x-y,-y,1/2-z
-x,-x+y,1/2-z
y,x,1/2-z
-x,-y,-z
y,-x+y,-z
x-y,x,-z
-x+y,y,1/2+z
x,x-y,1/2+z
-y,-x,1/2+z
2/3+x,1/3+y,1/3+z
2/3-y,1/3+x-y,1/3+z
2/3-x+y,1/3-x,1/3+z
2/3+x-y,1/3-y,5/6-z
2/3-x,1/3-x+y,5/6-z
2/3+y,1/3+x,5/6-z
2/3-x,1/3-y,1/3-z
2/3+y,1/3-x+y,1/3-z
2/3+x-y,1/3+x,1/3-z
2/3-x+y,1/3+y,5/6+z
2/3+x,1/3+x-y,5/6+z
2/3-y,1/3-x,5/6+z
1/3+x,2/3+y,2/3+z
1/3-y,2/3+x-y,2/3+z
1/3-x+y,2/3-x,2/3+z
1/3+x-y,2/3-y,1/6-z
1/3-x,2/3-x+y,1/6-z
1/3+y,2/3+x,1/6-z
1/3-x,2/3-y,2/3-z
1/3+y,2/3-x+y,2/3-z
1/3+x-y,2/3+x,2/3-z
1/3-x+y,2/3+y,1/6+z
1/3+x,2/3+x-y,1/6+z
1/3-y,2/3-x,1/6+z
loop_
_atom_site_type_symbol
_atom_site_label
_atom_site_fract_x
_atom_site_fract_y
_atom_site_fract_z
Si Si1 0.729949 0.135916 0.634352
Si Si2 0.783720 0.468338 0.876679
Si Si3 0.824119 0.666667 0.416667
O O1 0.666667 0.073246 0.583334
O O2 0.706277 0.175876 0.752231
O O3 0.774340 0.168744 0.461230
O O4 0.777588 0.124714 0.752577
O O5 0.786901 0.408849 0.792733
O O6 0.808106 0.474772 0.083334
#
# Coordination Sequence:
#
# PCOD9579643 Si02
#       3
#    36  36  18
#     4  11  23  44  70  96 132 178 221 281 342 396
#     4  12  24  40  67 103 143 181 219 266 328 411
#     4  10  24  46  68  96 132 170 232 286 336 406
#
# _framework density 23.573796000000002
#
# number of rings (size 3 to 8) (size 9 to 14) (size 15 to 20)
#    0.000    0.800    0.000    8.800    0.000    3.200 
#    3.600    0.000    0.000    0.000    0.000    0.000 
#    0.000    0.000    0.000    0.000    0.000    0.000 
#
# Total GULP energy -167674.820243 kJ/mol
# GULP energy per Si atom -5589.160675 kJ/mol
# Density = 2.352014 g / cm^3
# Si number density = 23.573796 Si / 1000 Ang^3
#
#
#
# Elastic Constant Matrix: (Units=GPa)
#
#
# Indices 1 2 3 4 5 6 
#
# 1 99.9969 28.8592 30.1166 19.0448 0.3414 -0.0340
# 2 28.8592 99.6847 29.7869 -19.1254 0.0267 0.0058
# 3 30.1166 29.7869 116.4425 -0.1054 0.2644 -0.0471
# 4 19.0448 -19.1254 -0.1054 30.9100 -0.0820 0.0127
# 5 0.3414 0.0267 0.2644 -0.0820 31.1546 19.0845
# 6 -0.0340 0.0058 -0.0471 0.0127 19.0845 35.4300
#
#
#
# Elastic Compliance Matrix: (Units=1/GPa)
#
#
# Indices 1 2 3 4 5 6 
#
# 1 0.014944 -0.006133 -0.002307 -0.013011 -0.000274 0.000164
# 2 -0.006133 0.014976 -0.002233 0.013038 0.000175 -0.000110
# 3 -0.002307 -0.002233 0.009756 0.000073 -0.000093 0.000061
# 4 -0.013011 0.013038 0.000073 0.048438 0.000414 -0.000255
# 5 -0.000274 0.000175 -0.000093 0.000414 0.047912 -0.025809
# 6 0.000164 -0.000110 0.000061 -0.000255 -0.025809 0.042127
#
#
# Mechanical properties :
#
#
# Convention : Reuss Voigt Hill
#
# Bulk Modulus (GPa) = 54.55896 54.84995 54.70445
# Shear Modulus (GPa) = 24.31774 34.65634 29.48704
#
# Velocity S-wave (km/s) = 3.21527 3.83838 3.54056
# Velocity P-wave (km/s) = 6.08096 6.55454 6.32219
#
# Compressibility (1/GPa) = 0.01832880
#
# Stress axis : x y z
#
# Youngs Moduli (GPa) = 66.91487 66.77327 102.49787
#
# Poissons Ratio (x) = 0.40954 0.23650
# Poissons Ratio (y) = 0.41041 0.22891
# Poissons Ratio (z) = 0.15440 0.14913
#
# Static dielectric constant tensor:
#      x y z
#    x 1.887210 0.000090 0.000010 
#    y 0.000090 1.887140 -0.000110 
#    z 0.000010 -0.000110 2.219540 
# 
# From -- ./inp_files/501.got.cif
#   From: 2010.05.17/outbox.cif.g08.bks.cpg/sg167_1_cif.got.tgz:501.got - 2010.05.20 11:09:15.
