data_PCOD9579483
_publ_section_title
;
Structure prediction by ZEFSAII (Michael W. Deem and Ramdas Pophale) SiO2 
 PCOD9579483
Probable space group: R -3 C 
;
_chemical_formula_sum "Si O2"
_cell_formula_units_Z 162
_cell_length_a 21.315326
_cell_length_b 21.315326
_cell_length_c 20.881162
_cell_angle_alpha 90.000000
_cell_angle_beta 90.000000
_cell_angle_gamma 120.000000
_cell_volume 8216.166901
_symmetry_space_group_name_H-M "R -3 C "
_symmetry_group_IT_number 167
_symmetry_cell_setting 'hexagonal'
loop_
_space_group_symop_operation_xyz
x,y,z
-y,x-y,z
-x+y,-x,z
x-y,-y,1/2-z
-x,-x+y,1/2-z
y,x,1/2-z
-x,-y,-z
y,-x+y,-z
x-y,x,-z
-x+y,y,1/2+z
x,x-y,1/2+z
-y,-x,1/2+z
2/3+x,1/3+y,1/3+z
2/3-y,1/3+x-y,1/3+z
2/3-x+y,1/3-x,1/3+z
2/3+x-y,1/3-y,5/6-z
2/3-x,1/3-x+y,5/6-z
2/3+y,1/3+x,5/6-z
2/3-x,1/3-y,1/3-z
2/3+y,1/3-x+y,1/3-z
2/3+x-y,1/3+x,1/3-z
2/3-x+y,1/3+y,5/6+z
2/3+x,1/3+x-y,5/6+z
2/3-y,1/3-x,5/6+z
1/3+x,2/3+y,2/3+z
1/3-y,2/3+x-y,2/3+z
1/3-x+y,2/3-x,2/3+z
1/3+x-y,2/3-y,1/6-z
1/3-x,2/3-x+y,1/6-z
1/3+y,2/3+x,1/6-z
1/3-x,2/3-y,2/3-z
1/3+y,2/3-x+y,2/3-z
1/3+x-y,2/3+x,2/3-z
1/3-x+y,2/3+y,1/6+z
1/3+x,2/3+x-y,1/6+z
1/3-y,2/3-x,1/6+z
loop_
_atom_site_type_symbol
_atom_site_label
_atom_site_fract_x
_atom_site_fract_y
_atom_site_fract_z
Si Si1 0.134194 0.854203 0.916321
Si Si2 0.666667 0.522480 0.583334
Si Si3 0.252054 0.218290 0.886712
Si Si4 0.182071 0.746325 0.887921
Si Si5 0.771858 0.499890 0.851324
O O1 0.169215 0.804401 0.925934
O O2 0.162952 0.903646 0.852210
O O3 0.049291 0.793956 0.910904
O O4 0.144050 0.907206 0.973140
O O5 0.689571 0.576860 0.522993
O O6 0.732478 0.511273 0.605407
O O7 0.333334 0.257421 0.916667
O O8 0.200719 0.135555 0.912127
O O9 0.135067 0.666667 0.916667
O O10 0.796916 0.443663 0.828437
#
# Coordination Sequence:
#
# PCOD9579483 Si02
#       5
#    36  18  36  36  36
#     4   9  20  37  56  87 113 157 201 248 308 368
#     4  10  22  36  56  90 118 160 202 248 304 374
#     4  10  20  37  61  86 124 155 200 259 303 365
#     4  10  20  36  59  81 122 155 197 251 308 365
#     4  10  21  37  59  84 118 159 205 253 305 363
#
# _framework density 19.717223000000001
#
# number of rings (size 3 to 8) (size 9 to 14) (size 15 to 20)
#    0.000    2.222    0.000    2.222    3.111    0.000 
#    0.667    0.000    4.889    0.000    0.000    0.000 
#    0.000    0.000    0.000    0.000    0.000    0.000 
#
# Total GULP energy -300685.099986 kJ/mol
# GULP energy per Si atom -5568.242592 kJ/mol
# Density = 1.967235 g / cm^3
# Si number density = 19.717223 Si / 1000 Ang^3
#
#
#
# Elastic Constant Matrix: (Units=GPa)
#
#
# Indices 1 2 3 4 5 6 
#
# 1 94.6205 53.5859 44.9901 12.6690 -0.0004 0.0000
# 2 53.5859 94.6205 44.9901 -12.6690 0.0004 0.0000
# 3 44.9901 44.9901 96.3781 0.0000 0.0000 0.0000
# 4 12.6690 -12.6690 0.0000 18.7032 0.0000 0.0004
# 5 -0.0004 0.0004 0.0000 0.0000 18.7032 12.6690
# 6 0.0000 0.0000 0.0000 0.0004 12.6690 20.5173
#
#
#
# Elastic Compliance Matrix: (Units=1/GPa)
#
#
# Indices 1 2 3 4 5 6 
#
# 1 0.025654 -0.016238 -0.004395 -0.028376 0.000001 0.000000
# 2 -0.016238 0.025654 -0.004395 0.028376 -0.000001 0.000000
# 3 -0.004395 -0.004395 0.014479 0.000000 0.000000 0.000000
# 4 -0.028376 0.028376 0.000000 0.091909 0.000000 -0.000002
# 5 0.000001 -0.000001 0.000000 0.000000 0.091909 -0.056752
# 6 0.000000 0.000000 0.000000 -0.000002 -0.056752 0.083783
#
#
# Mechanical properties :
#
#
# Convention : Reuss Voigt Hill
#
# Bulk Modulus (GPa) = 63.57451 63.63905 63.60678
# Shear Modulus (GPa) = 12.86380 21.05490 16.95935
#
# Velocity S-wave (km/s) = 2.55701 3.27133 2.93598
# Velocity P-wave (km/s) = 6.40554 6.82750 6.61988
#
# Compressibility (1/GPa) = 0.01572957
#
# Stress axis : x y z
#
# Youngs Moduli (GPa) = 38.98085 38.98085 69.06332
#
# Poissons Ratio (x) = 0.63296 0.30356
# Poissons Ratio (y) = 0.63296 0.30356
# Poissons Ratio (z) = 0.17134 0.17134
#
# Static dielectric constant tensor:
#      x y z
#    x 1.718980 0.000000 0.000000 
#    y 0.000000 1.718980 0.000000 
#    z 0.000000 0.000000 1.752070 
# 
# From -- ./inp_files/4416.got.cif
#   From: 2010.05.17/outbox.cif.g08.bks.cpg/sg167_3_cif.got.tgz:4416.got - 2010.05.20 11:09:15.
