data_PCOD9579034
_publ_section_title
;
Structure prediction by ZEFSAII (Michael W. Deem and Ramdas Pophale) SiO2 
 PCOD9579034
Probable space group: R -3 M
;
_chemical_formula_sum "Si O2"
_cell_formula_units_Z 216
_cell_length_a 26.575458
_cell_length_b 26.575458
_cell_length_c 19.822508
_cell_angle_alpha 90.000000
_cell_angle_beta 90.000000
_cell_angle_gamma 120.000000
_cell_volume 12124.134601
_symmetry_space_group_name_H-M "R -3 M"
_symmetry_group_IT_number 166
_symmetry_cell_setting 'hexagonal'
loop_
_space_group_symop_operation_xyz
x,y,z
-y,x-y,z
-x+y,-x,z
x-y,-y,-z
-x,-x+y,-z
y,x,-z
-x,-y,-z
y,-x+y,-z
x-y,x,-z
-x+y,y,z
x,x-y,z
-y,-x,z
2/3+x,1/3+y,1/3+z
2/3-y,1/3+x-y,1/3+z
2/3-x+y,1/3-x,1/3+z
2/3+x-y,1/3-y,1/3-z
2/3-x,1/3-x+y,1/3-z
2/3+y,1/3+x,1/3-z
2/3-x,1/3-y,1/3-z
2/3+y,1/3-x+y,1/3-z
2/3+x-y,1/3+x,1/3-z
2/3-x+y,1/3+y,1/3+z
2/3+x,1/3+x-y,1/3+z
2/3-y,1/3-x,1/3+z
1/3+x,2/3+y,2/3+z
1/3-y,2/3+x-y,2/3+z
1/3-x+y,2/3-x,2/3+z
1/3+x-y,2/3-y,2/3-z
1/3-x,2/3-x+y,2/3-z
1/3+y,2/3+x,2/3-z
1/3-x,2/3-y,2/3-z
1/3+y,2/3-x+y,2/3-z
1/3+x-y,2/3+x,2/3-z
1/3-x+y,2/3+y,2/3+z
1/3+x,2/3+x-y,2/3+z
1/3-y,2/3-x,2/3+z
loop_
_atom_site_type_symbol
_atom_site_label
_atom_site_fract_x
_atom_site_fract_y
_atom_site_fract_z
Si Si1 0.150785 0.961062 0.210237
Si Si2 0.881534 0.999856 0.074584
Si Si3 0.939531 0.250154 0.817236
Si Si4 0.658242 0.691433 0.737470
Si Si5 0.176301 0.941534 0.541824
Si Si6 0.603622 0.088327 0.631845
O O1 0.085821 0.914180 0.233056
O O2 0.188090 0.928868 0.203146
O O3 0.145722 0.983573 0.136476
O O4 0.188465 0.014969 0.258957
O O5 0.938201 0.061799 0.086524
O O6 0.898525 0.949263 0.071263
O O7 0.857046 0.000000 0.000000
O O8 0.885606 0.252142 0.848404
O O9 0.965843 0.294881 0.754894
O O10 0.993851 0.277797 0.870298
O O11 0.628496 0.666667 0.666667
O O12 0.698312 0.760721 0.730419
O O13 0.109881 0.890120 0.532900
O O14 0.188513 0.951900 0.621879
O O15 0.193641 0.000000 0.500000
O O16 0.540687 0.081373 0.623438
#
# Coordination Sequence:
#
# PCOD9579034 Si02
#       6
#    36  36  36  36  36  36
#     4  10  21  35  52  77 111 146 184 232 282 332
#     4   9  17  31  50  72  98 133 178 227 274 321
#     4  10  19  33  54  80 105 144 180 225 277 335
#     4  10  17  33  55  76 109 142 181 226 278 331
#     4  11  21  37  59  85 114 146 190 233 282 341
#     4  10  21  36  56  82 114 153 191 235 287 350
#
# _framework density 17.815705000000001
#
# number of rings (size 3 to 8) (size 9 to 14) (size 15 to 20)
#    0.000    2.000    3.333    1.167    0.000    2.000 
#    0.000    7.500    0.000    6.000    0.000    0.000 
#    0.000    0.000    0.000    0.000    0.000    0.000 
#
# Total GULP energy -401318.007132 kJ/mol
# GULP energy per Si atom -5573.861210 kJ/mol
# Density = 1.777516 g / cm^3
# Si number density = 17.815705 Si / 1000 Ang^3
#
#
#
# Elastic Constant Matrix: (Units=GPa)
#
#
# Indices 1 2 3 4 5 6 
#
# 1 64.7854 24.0721 19.4673 3.9890 -0.0003 0.0000
# 2 24.0721 64.7854 19.4673 -3.9890 0.0003 0.0000
# 3 19.4673 19.4673 54.9142 0.0000 0.0000 0.0000
# 4 3.9890 -3.9890 0.0000 23.3302 0.0000 0.0003
# 5 -0.0003 0.0003 0.0000 0.0000 23.3302 3.9890
# 6 0.0000 0.0000 0.0000 0.0003 3.9890 20.3566
#
#
#
# Elastic Compliance Matrix: (Units=1/GPa)
#
#
# Indices 1 2 3 4 5 6 
#
# 1 0.019369 -0.006045 -0.004723 -0.004345 0.000000 0.000000
# 2 -0.006045 0.019369 -0.004723 0.004345 0.000000 0.000000
# 3 -0.004723 -0.004723 0.021559 0.000000 0.000000 0.000000
# 4 -0.004345 0.004345 0.000000 0.044349 0.000000 -0.000001
# 5 0.000000 0.000000 0.000000 0.000000 0.044349 -0.008690
# 6 0.000000 0.000000 0.000000 -0.000001 -0.008690 0.050827
#
#
# Mechanical properties :
#
#
# Convention : Reuss Voigt Hill
#
# Bulk Modulus (GPa) = 34.11439 34.49982 34.30711
# Shear Modulus (GPa) = 20.78357 21.50196 21.14277
#
# Velocity S-wave (km/s) = 3.41924 3.47783 3.44866
# Velocity P-wave (km/s) = 5.89732 5.96104 5.92926
#
# Compressibility (1/GPa) = 0.02931315
#
# Stress axis : x y z
#
# Youngs Moduli (GPa) = 51.63016 51.63016 46.38422
#
# Poissons Ratio (x) = 0.31210 0.21908
# Poissons Ratio (y) = 0.31210 0.21908
# Poissons Ratio (z) = 0.24386 0.24386
#
# Static dielectric constant tensor:
#      x y z
#    x 1.608450 0.000000 0.000000 
#    y 0.000000 1.608450 0.000000 
#    z 0.000000 0.000000 1.630300 
# 
# From -- ./inp_files/7182.got.cif
#   From: 2010.05.17/outbox.cif.g08.bks.cpg/sg166_4_cif.got.tgz:7182.got - 2010.05.20 11:04:41.
