data_PCOD9579622
_publ_section_title
;
Structure prediction by ZEFSAII (Michael W. Deem and Ramdas Pophale) SiO2 
 PCOD9579622
Probable space group: R -3 C 
;
_chemical_formula_sum "Si O2"
_cell_formula_units_Z 162
_cell_length_a 18.481694
_cell_length_b 18.481694
_cell_length_c 25.418978
_cell_angle_alpha 90.000000
_cell_angle_beta 90.000000
_cell_angle_gamma 120.000000
_cell_volume 7519.210927
_symmetry_space_group_name_H-M "R -3 C "
_symmetry_group_IT_number 167
_symmetry_cell_setting 'hexagonal'
loop_
_space_group_symop_operation_xyz
x,y,z
-y,x-y,z
-x+y,-x,z
x-y,-y,1/2-z
-x,-x+y,1/2-z
y,x,1/2-z
-x,-y,-z
y,-x+y,-z
x-y,x,-z
-x+y,y,1/2+z
x,x-y,1/2+z
-y,-x,1/2+z
2/3+x,1/3+y,1/3+z
2/3-y,1/3+x-y,1/3+z
2/3-x+y,1/3-x,1/3+z
2/3+x-y,1/3-y,5/6-z
2/3-x,1/3-x+y,5/6-z
2/3+y,1/3+x,5/6-z
2/3-x,1/3-y,1/3-z
2/3+y,1/3-x+y,1/3-z
2/3+x-y,1/3+x,1/3-z
2/3-x+y,1/3+y,5/6+z
2/3+x,1/3+x-y,5/6+z
2/3-y,1/3-x,5/6+z
1/3+x,2/3+y,2/3+z
1/3-y,2/3+x-y,2/3+z
1/3-x+y,2/3-x,2/3+z
1/3+x-y,2/3-y,1/6-z
1/3-x,2/3-x+y,1/6-z
1/3+y,2/3+x,1/6-z
1/3-x,2/3-y,2/3-z
1/3+y,2/3-x+y,2/3-z
1/3+x-y,2/3+x,2/3-z
1/3-x+y,2/3+y,1/6+z
1/3+x,2/3+x-y,1/6+z
1/3-y,2/3-x,1/6+z
loop_
_atom_site_type_symbol
_atom_site_label
_atom_site_fract_x
_atom_site_fract_y
_atom_site_fract_z
Si Si1 0.333334 0.348378 0.916667
Si Si2 0.324121 0.843877 0.038422
Si Si3 0.135992 0.831382 0.193960
Si Si4 0.484084 0.240750 0.608959
Si Si5 0.565138 0.408972 0.316058
O O1 0.404983 0.340115 0.946471
O O2 0.382017 0.413919 0.869864
O O3 0.305092 0.800089 0.094290
O O4 0.235880 0.800706 0.007537
O O5 0.398359 0.846153 0.003533
O O6 0.148511 0.871617 0.252665
O O7 0.201315 0.807935 0.168522
O O8 0.521319 0.333334 0.583334
O O9 0.540621 0.207287 0.583334
O O10 0.664170 0.464829 0.311797
#
# Coordination Sequence:
#
# PCOD9579622 Si02
#       5
#    18  36  36  36  36
#     4  12  22  44  72 106 138 184 246 290 364 430
#     4  11  24  44  71 103 144 189 239 300 364 431
#     4  11  22  44  71 101 145 181 243 301 358 428
#     4  10  23  42  67 103 143 186 241 297 369 427
#     4  12  25  45  69 102 143 189 241 289 362 440
#
# _framework density 21.544813999999999
#
# number of rings (size 3 to 8) (size 9 to 14) (size 15 to 20)
#    0.000    0.889    5.556    0.444    0.000    6.222 
#    0.000    4.444    0.000    0.000    0.000    0.000 
#    0.000    0.000    0.000    0.000    0.000    0.000 
#
# Total GULP energy -300713.050967 kJ/mol
# GULP energy per Si atom -5568.760203 kJ/mol
# Density = 2.149578 g / cm^3
# Si number density = 21.544814 Si / 1000 Ang^3
#
#
#
# Elastic Constant Matrix: (Units=GPa)
#
#
# Indices 1 2 3 4 5 6 
#
# 1 76.2161 37.2967 42.6725 4.6605 -0.0008 0.0000
# 2 37.2967 76.2161 42.6725 -4.6605 0.0008 0.0000
# 3 42.6725 42.6725 106.6008 0.0000 0.0000 0.0000
# 4 4.6605 -4.6605 0.0000 31.5978 0.0000 0.0008
# 5 -0.0008 0.0008 0.0000 0.0000 31.5978 4.6605
# 6 0.0000 0.0000 0.0000 0.0008 4.6605 19.4597
#
#
#
# Elastic Compliance Matrix: (Units=1/GPa)
#
#
# Indices 1 2 3 4 5 6 
#
# 1 0.019619 -0.007016 -0.005045 -0.003928 0.000001 0.000000
# 2 -0.007016 0.019619 -0.005045 0.003928 -0.000001 0.000000
# 3 -0.005045 -0.005045 0.013420 0.000000 0.000000 0.000000
# 4 -0.003928 0.003928 0.000000 0.032807 0.000000 -0.000001
# 5 0.000001 -0.000001 0.000000 0.000000 0.032807 -0.007857
# 6 0.000000 0.000000 0.000000 -0.000001 -0.007857 0.053270
#
#
# Mechanical properties :
#
#
# Convention : Reuss Voigt Hill
#
# Bulk Modulus (GPa) = 54.21376 56.03515 55.12446
# Shear Modulus (GPa) = 23.59596 25.62382 24.60989
#
# Velocity S-wave (km/s) = 3.31298 3.45240 3.38341
# Velocity P-wave (km/s) = 6.31287 6.47744 6.39568
#
# Compressibility (1/GPa) = 0.01844550
#
# Stress axis : x y z
#
# Youngs Moduli (GPa) = 50.97158 50.97158 74.51740
#
# Poissons Ratio (x) = 0.35763 0.37593
# Poissons Ratio (y) = 0.35763 0.37593
# Poissons Ratio (z) = 0.25714 0.25714
#
# Static dielectric constant tensor:
#      x y z
#    x 1.845280 0.000000 0.000000 
#    y 0.000000 1.845280 0.000000 
#    z 0.000000 0.000000 1.982950 
# 
# From -- ./inp_files/7045.got.cif
#   From: 2010.05.17/outbox.cif.g08.bks.cpg/sg167_4_cif.got.tgz:7045.got - 2010.05.20 11:09:15.
