data_PCOD9579777
_publ_section_title
;
Structure prediction by ZEFSAII (Michael W. Deem and Ramdas Pophale) SiO2 
 PCOD9579777
Probable space group: P 6
;
_chemical_formula_sum "Si O2"
_cell_formula_units_Z 42
_cell_length_a 14.517012
_cell_length_b 14.517012
_cell_length_c 11.750314
_cell_angle_alpha 90.000000
_cell_angle_beta 90.000000
_cell_angle_gamma 120.000000
_cell_volume 2144.542096
_symmetry_space_group_name_H-M "P 6"
_symmetry_group_IT_number 168
_symmetry_cell_setting 'hexagonal'
loop_
_space_group_symop_operation_xyz
x,y,z
x-y,x,z
-y,x-y,z
-x,-y,z
-x+y,-x,z
y,-x+y,z
loop_
_atom_site_type_symbol
_atom_site_label
_atom_site_fract_x
_atom_site_fract_y
_atom_site_fract_z
Si Si1 0.417374 0.877434 0.478090
Si Si2 0.241665 0.466296 0.345145
Si Si3 0.640715 0.160322 0.111842
Si Si4 0.589257 0.122438 0.746643
Si Si5 0.830149 0.751884 0.250853
Si Si6 0.069157 0.676233 0.067689
Si Si7 0.744992 0.513898 0.886909
O O1 0.454616 0.807498 0.405398
O O2 0.303860 0.849019 0.430262
O O3 0.408760 0.857171 0.612590
O O4 0.500000 0.000000 0.457398
O O5 0.213892 0.507132 0.227012
O O6 0.231492 0.351682 0.330903
O O7 0.515266 0.123081 0.116978
O O8 0.645664 0.053974 0.084974
O O9 0.696223 0.230463 0.000239
O O10 0.558558 0.200861 0.811115
O O11 0.702500 0.154725 0.804014
O O12 0.500000 0.000000 0.768206
O O13 0.798314 0.842357 0.263234
O O14 0.782583 0.690955 0.131779
O O15 0.117621 0.713459 0.942858
#
# Coordination Sequence:
#
# PCOD9579777 Si02
#       7
#     6   6   6   6   6   6   6
#     4  11  26  43  64  90 124 175 222 270 319 386
#     4  12  23  41  65  90 132 168 215 266 327 393
#     4  11  24  37  63  99 129 168 215 256 321 401
#     4  11  25  43  60  89 128 169 224 267 313 383
#     4  12  24  42  62  90 126 168 214 267 323 385
#     4  11  22  40  60  95 132 165 210 258 317 393
#     4  12  21  37  63  85 130 168 205 255 319 376
#
# _framework density 19.584602
#
# number of rings (size 3 to 8) (size 9 to 14) (size 15 to 20)
#    0.000    0.571    4.286    4.143    2.000    0.000 
#    0.000    0.714    0.000    0.000    0.000    0.000 
#    0.000    0.000    0.000   13.857    0.000    0.000 
#
# Total GULP energy -234345.493219 kJ/mol
# GULP energy per Si atom -5579.654600 kJ/mol
# Density = 1.954003 g / cm^3
# Si number density = 19.584602 Si / 1000 Ang^3
#
#
#
# Elastic Constant Matrix: (Units=GPa)
#
#
# Indices 1 2 3 4 5 6 
#
# 1 100.0250 29.0912 54.5962 0.0000 0.0000 0.0000
# 2 29.0912 100.0250 54.5962 0.0000 0.0000 0.0000
# 3 54.5962 54.5962 112.1851 0.0000 0.0000 0.0000
# 4 0.0000 0.0000 0.0000 24.0011 0.0000 0.0000
# 5 0.0000 0.0000 0.0000 0.0000 24.0011 0.0000
# 6 0.0000 0.0000 0.0000 0.0000 0.0000 35.4669
#
#
#
# Elastic Compliance Matrix: (Units=1/GPa)
#
#
# Indices 1 2 3 4 5 6 
#
# 1 0.013630 -0.000468 -0.006405 0.000000 0.000000 0.000000
# 2 -0.000468 0.013630 -0.006405 0.000000 0.000000 0.000000
# 3 -0.006405 -0.006405 0.015148 0.000000 0.000000 0.000000
# 4 0.000000 0.000000 0.000000 0.041665 0.000000 0.000000
# 5 0.000000 0.000000 0.000000 0.000000 0.041665 0.000000
# 6 0.000000 0.000000 0.000000 0.000000 0.000000 0.028195
#
#
# Mechanical properties :
#
#
# Convention : Reuss Voigt Hill
#
# Bulk Modulus (GPa) = 63.08900 65.42249 64.25575
# Shear Modulus (GPa) = 26.91445 28.29057 27.60251
#
# Velocity S-wave (km/s) = 3.71113 3.80482 3.75827
# Velocity P-wave (km/s) = 7.11666 7.26497 7.19120
#
# Compressibility (1/GPa) = 0.01585062
#
# Stress axis : x y z
#
# Youngs Moduli (GPa) = 73.36850 73.36850 66.01351
#
# Poissons Ratio (x) = 0.03432 0.42285
# Poissons Ratio (y) = 0.03432 0.42285
# Poissons Ratio (z) = 0.46996 0.46996
#
# Static dielectric constant tensor:
#      x y z
#    x 1.730240 0.000000 0.000000 
#    y 0.000000 1.730240 0.000000 
#    z 0.000000 0.000000 1.718390 
# 
# From -- ./inp_files/416.got.cif
#   From: 2010.05.17/outbox.cif.g08.bks.cpg/sg168_cif.got.tgz:416.got - 2010.05.20 11:12:33.
