data_PCOD9579729
_publ_section_title
;
Structure prediction by ZEFSAII (Michael W. Deem and Ramdas Pophale) SiO2 
 PCOD9579729
Probable space group: R -3 C 
;
_chemical_formula_sum "Si O2"
_cell_formula_units_Z 84
_cell_length_a 16.203543
_cell_length_b 16.203543
_cell_length_c 14.853854
_cell_angle_alpha 90.000000
_cell_angle_beta 90.000000
_cell_angle_gamma 120.000000
_cell_volume 3377.456424
_symmetry_space_group_name_H-M "R -3 C "
_symmetry_group_IT_number 167
_symmetry_cell_setting 'hexagonal'
loop_
_space_group_symop_operation_xyz
x,y,z
-y,x-y,z
-x+y,-x,z
x-y,-y,1/2-z
-x,-x+y,1/2-z
y,x,1/2-z
-x,-y,-z
y,-x+y,-z
x-y,x,-z
-x+y,y,1/2+z
x,x-y,1/2+z
-y,-x,1/2+z
2/3+x,1/3+y,1/3+z
2/3-y,1/3+x-y,1/3+z
2/3-x+y,1/3-x,1/3+z
2/3+x-y,1/3-y,5/6-z
2/3-x,1/3-x+y,5/6-z
2/3+y,1/3+x,5/6-z
2/3-x,1/3-y,1/3-z
2/3+y,1/3-x+y,1/3-z
2/3+x-y,1/3+x,1/3-z
2/3-x+y,1/3+y,5/6+z
2/3+x,1/3+x-y,5/6+z
2/3-y,1/3-x,5/6+z
1/3+x,2/3+y,2/3+z
1/3-y,2/3+x-y,2/3+z
1/3-x+y,2/3-x,2/3+z
1/3+x-y,2/3-y,1/6-z
1/3-x,2/3-x+y,1/6-z
1/3+y,2/3+x,1/6-z
1/3-x,2/3-y,2/3-z
1/3+y,2/3-x+y,2/3-z
1/3+x-y,2/3+x,2/3-z
1/3-x+y,2/3+y,1/6+z
1/3+x,2/3+x-y,1/6+z
1/3-y,2/3-x,1/6+z
loop_
_atom_site_type_symbol
_atom_site_label
_atom_site_fract_x
_atom_site_fract_y
_atom_site_fract_z
Si Si1 0.536689 0.823749 0.513377
Si Si2 0.333334 0.666667 0.060602
Si Si3 0.340394 0.082385 0.816004
O O1 0.521065 0.854399 0.416667
O O2 0.443404 0.720941 0.530429
O O3 0.632268 0.818931 0.498603
O O4 0.542752 0.893342 0.595224
O O5 0.333335 0.666668 0.166667
O O6 0.268605 0.000000 0.750000
O O7 0.333334 0.041441 0.916667
#
# Coordination Sequence:
#
# PCOD9579729 Si02
#       3
#    36  12  36
#     4  12  26  47  76 113 157 213 275 343 417 504
#     4  12  25  44  73 114 163 218 278 344 418 504
#     4  12  27  49  76 111 155 209 273 343 418 504
#
# _framework density 24.870787
#
# number of rings (size 3 to 8) (size 9 to 14) (size 15 to 20)
#    0.000    0.000    0.000   10.286    0.000    6.857 
#    0.000    0.000    0.000    0.000    0.000    0.000 
#    0.000    0.000    0.000    0.000    0.000    0.000 
#
# Total GULP energy -156667.937769 kJ/mol
# GULP energy per Si atom -5595.283492 kJ/mol
# Density = 2.481418 g / cm^3
# Si number density = 24.870787 Si / 1000 Ang^3
#
#
#
# Elastic Constant Matrix: (Units=GPa)
#
#
# Indices 1 2 3 4 5 6 
#
# 1 102.9879 7.6769 41.0692 -11.1436 0.0012 0.0000
# 2 7.6769 102.9871 41.0685 11.1429 -0.0012 0.0000
# 3 41.0692 41.0685 246.2796 0.0003 0.0000 0.0000
# 4 -11.1436 11.1429 0.0003 48.8998 0.0000 -0.0012
# 5 0.0012 -0.0012 0.0000 0.0000 48.8987 -11.1439
# 6 0.0000 0.0000 0.0000 -0.0012 -11.1439 47.6557
#
#
#
# Elastic Compliance Matrix: (Units=1/GPa)
#
#
# Indices 1 2 3 4 5 6 
#
# 1 0.010698 -0.000385 -0.001720 0.002526 0.000000 0.000000
# 2 -0.000385 0.010698 -0.001720 -0.002525 0.000000 0.000000
# 3 -0.001720 -0.001720 0.004634 0.000000 0.000000 0.000000
# 4 0.002526 -0.002525 0.000000 0.021601 0.000000 0.000001
# 5 0.000000 0.000000 0.000000 0.000000 0.021602 0.005051
# 6 0.000000 0.000000 0.000000 0.000001 0.005051 0.022165
#
#
# Mechanical properties :
#
#
# Convention : Reuss Voigt Hill
#
# Bulk Modulus (GPa) = 54.40525 70.20932 62.30728
# Shear Modulus (GPa) = 47.54093 53.25349 50.39721
#
# Velocity S-wave (km/s) = 4.37683 4.63234 4.50640
# Velocity P-wave (km/s) = 6.88948 7.54336 7.22382
#
# Compressibility (1/GPa) = 0.01838058
#
# Stress axis : x y z
#
# Youngs Moduli (GPa) = 93.47856 93.47837 215.79729
#
# Poissons Ratio (x) = 0.03598 0.37112
# Poissons Ratio (y) = 0.03598 0.37111
# Poissons Ratio (z) = 0.16076 0.16076
#
# Static dielectric constant tensor:
#      x y z
#    x 2.066920 0.000000 0.000000 
#    y 0.000000 2.066920 0.000000 
#    z 0.000000 0.000000 2.353480 
# 
# From -- ./inp_files/1849.got.cif
#   From: 2010.05.17/outbox.cif.g08.bks.cpg/sg167_1_cif.got.tgz:1849.got - 2010.05.20 11:09:15.
