data_PCOD9579498
_publ_section_title
;
Structure prediction by ZEFSAII (Michael W. Deem and Ramdas Pophale) SiO2 
 PCOD9579498
Probable space group: R -3 C 
;
_chemical_formula_sum "Si O2"
_cell_formula_units_Z 162
_cell_length_a 21.506260
_cell_length_b 21.506260
_cell_length_c 18.355406
_cell_angle_alpha 90.000000
_cell_angle_beta 90.000000
_cell_angle_gamma 120.000000
_cell_volume 7352.320163
_symmetry_space_group_name_H-M "R -3 C "
_symmetry_group_IT_number 167
_symmetry_cell_setting 'hexagonal'
loop_
_space_group_symop_operation_xyz
x,y,z
-y,x-y,z
-x+y,-x,z
x-y,-y,1/2-z
-x,-x+y,1/2-z
y,x,1/2-z
-x,-y,-z
y,-x+y,-z
x-y,x,-z
-x+y,y,1/2+z
x,x-y,1/2+z
-y,-x,1/2+z
2/3+x,1/3+y,1/3+z
2/3-y,1/3+x-y,1/3+z
2/3-x+y,1/3-x,1/3+z
2/3+x-y,1/3-y,5/6-z
2/3-x,1/3-x+y,5/6-z
2/3+y,1/3+x,5/6-z
2/3-x,1/3-y,1/3-z
2/3+y,1/3-x+y,1/3-z
2/3+x-y,1/3+x,1/3-z
2/3-x+y,1/3+y,5/6+z
2/3+x,1/3+x-y,5/6+z
2/3-y,1/3-x,5/6+z
1/3+x,2/3+y,2/3+z
1/3-y,2/3+x-y,2/3+z
1/3-x+y,2/3-x,2/3+z
1/3+x-y,2/3-y,1/6-z
1/3-x,2/3-x+y,1/6-z
1/3+y,2/3+x,1/6-z
1/3-x,2/3-y,2/3-z
1/3+y,2/3-x+y,2/3-z
1/3+x-y,2/3+x,2/3-z
1/3-x+y,2/3+y,1/6+z
1/3+x,2/3+x-y,1/6+z
1/3-y,2/3-x,1/6+z
loop_
_atom_site_type_symbol
_atom_site_label
_atom_site_fract_x
_atom_site_fract_y
_atom_site_fract_z
Si Si1 0.846787 0.923479 0.232285
Si Si2 0.214458 0.365421 0.679956
Si Si3 0.018243 0.684910 0.583334
Si Si4 0.605309 0.873019 0.834605
Si Si5 0.563430 0.815487 0.063197
O O1 0.857234 0.857234 0.250000
O O2 0.782523 0.923842 0.279457
O O3 0.836945 0.925083 0.146020
O O4 0.914640 0.000000 0.250000
O O5 0.283622 0.365179 0.644072
O O6 0.214247 0.363972 0.766655
O O7 0.204103 0.428645 0.645249
O O8 0.146683 0.295131 0.647118
O O9 0.942398 0.664177 0.621316
O O10 0.555121 0.898293 0.790857
#
# Coordination Sequence:
#
# PCOD9579498 Si02
#       5
#    36  36  18  36  36
#     4  10  21  39  61  85 117 159 211 264 318 365
#     4  10  24  35  61  94 121 174 206 253 326 375
#     4  10  20  38  60  92 126 168 210 254 320 388
#     4  11  21  40  64  86 127 174 203 268 324 371
#     4   9  21  40  52  88 124 151 213 254 303 380
#
# _framework density 22.033861000000002
#
# number of rings (size 3 to 8) (size 9 to 14) (size 15 to 20)
#    0.000    2.222    3.333    0.889    6.222    6.222 
#    4.000    0.000    0.000    0.000    0.000    7.778 
#    0.000    0.000    0.000    0.000    0.000    0.000 
#
# Total GULP energy -301094.301434 kJ/mol
# GULP energy per Si atom -5575.820397 kJ/mol
# Density = 2.198371 g / cm^3
# Si number density = 22.033861 Si / 1000 Ang^3
#
#
#
# Elastic Constant Matrix: (Units=GPa)
#
#
# Indices 1 2 3 4 5 6 
#
# 1 74.1931 22.7913 15.1546 -9.2883 0.0000 0.0000
# 2 22.7913 74.1931 15.1546 9.2883 0.0000 0.0000
# 3 15.1546 15.1546 122.2476 0.0000 0.0000 0.0000
# 4 -9.2883 9.2883 0.0000 19.2469 0.0000 0.0000
# 5 0.0000 0.0000 0.0000 0.0000 19.2469 -9.2883
# 6 0.0000 0.0000 0.0000 0.0000 -9.2883 25.7009
#
#
#
# Elastic Compliance Matrix: (Units=1/GPa)
#
#
# Indices 1 2 3 4 5 6 
#
# 1 0.017145 -0.006419 -0.001330 0.011372 0.000000 0.000000
# 2 -0.006419 0.017145 -0.001330 -0.011372 0.000000 0.000000
# 3 -0.001330 -0.001330 0.008510 0.000000 0.000000 0.000000
# 4 0.011372 -0.011372 0.000000 0.062932 0.000000 0.000000
# 5 0.000000 0.000000 0.000000 0.000000 0.062932 0.022744
# 6 0.000000 0.000000 0.000000 0.000000 0.022744 0.047129
#
#
# Mechanical properties :
#
#
# Convention : Reuss Voigt Hill
#
# Bulk Modulus (GPa) = 40.57798 41.87051 41.22425
# Shear Modulus (GPa) = 20.64707 27.34114 23.99411
#
# Velocity S-wave (km/s) = 3.06447 3.52642 3.30353
# Velocity P-wave (km/s) = 5.56574 5.96866 5.77072
#
# Compressibility (1/GPa) = 0.02464391
#
# Stress axis : x y z
#
# Youngs Moduli (GPa) = 58.32465 58.32465 117.51155
#
# Poissons Ratio (x) = 0.37438 0.15626
# Poissons Ratio (y) = 0.37438 0.15626
# Poissons Ratio (z) = 0.07756 0.07756
#
# Static dielectric constant tensor:
#      x y z
#    x 1.933380 0.000000 0.000000 
#    y 0.000000 1.933380 0.000000 
#    z 0.000000 0.000000 1.539340 
# 
# From -- ./inp_files/5282.got.cif
#   From: 2010.05.17/outbox.cif.g08.bks.cpg/sg167_3_cif.got.tgz:5282.got - 2010.05.20 11:09:15.
