data_PCOD9579160
_publ_section_title
;
Structure prediction by ZEFSAII (Michael W. Deem and Ramdas Pophale) SiO2 
 PCOD9579160
Probable space group: R -3 M
;
_chemical_formula_sum "Si O2"
_cell_formula_units_Z 216
_cell_length_a 23.071774
_cell_length_b 23.071774
_cell_length_c 28.801129
_cell_angle_alpha 90.000000
_cell_angle_beta 90.000000
_cell_angle_gamma 120.000000
_cell_volume 13277.066238
_symmetry_space_group_name_H-M "R -3 M"
_symmetry_group_IT_number 166
_symmetry_cell_setting 'hexagonal'
loop_
_space_group_symop_operation_xyz
x,y,z
-y,x-y,z
-x+y,-x,z
x-y,-y,-z
-x,-x+y,-z
y,x,-z
-x,-y,-z
y,-x+y,-z
x-y,x,-z
-x+y,y,z
x,x-y,z
-y,-x,z
2/3+x,1/3+y,1/3+z
2/3-y,1/3+x-y,1/3+z
2/3-x+y,1/3-x,1/3+z
2/3+x-y,1/3-y,1/3-z
2/3-x,1/3-x+y,1/3-z
2/3+y,1/3+x,1/3-z
2/3-x,1/3-y,1/3-z
2/3+y,1/3-x+y,1/3-z
2/3+x-y,1/3+x,1/3-z
2/3-x+y,1/3+y,1/3+z
2/3+x,1/3+x-y,1/3+z
2/3-y,1/3-x,1/3+z
1/3+x,2/3+y,2/3+z
1/3-y,2/3+x-y,2/3+z
1/3-x+y,2/3-x,2/3+z
1/3+x-y,2/3-y,2/3-z
1/3-x,2/3-x+y,2/3-z
1/3+y,2/3+x,2/3-z
1/3-x,2/3-y,2/3-z
1/3+y,2/3-x+y,2/3-z
1/3+x-y,2/3+x,2/3-z
1/3-x+y,2/3+y,2/3+z
1/3+x,2/3+x-y,2/3+z
1/3-y,2/3-x,2/3+z
loop_
_atom_site_type_symbol
_atom_site_label
_atom_site_fract_x
_atom_site_fract_y
_atom_site_fract_z
Si Si1 0.818674 0.769167 0.543541
Si Si2 0.200254 0.261121 0.118249
Si Si3 0.466677 0.066038 0.731965
Si Si4 0.105318 0.483338 0.620055
Si Si5 0.932235 0.304200 0.029934
Si Si6 0.794696 0.723876 0.776071
O O1 0.789731 0.789731 0.500000
O O2 0.895838 0.791675 0.537883
O O3 0.797944 0.797909 0.586550
O O4 0.779180 0.689825 0.551761
O O5 0.131052 0.262104 0.116723
O O6 0.253576 0.331598 0.092598
O O7 0.193772 0.199266 0.089243
O O8 0.214136 0.254943 0.172111
O O9 0.536446 0.072891 0.745687
O O10 0.455642 0.059340 0.677185
O O11 0.111774 0.555887 0.621500
O O12 0.134039 0.467372 0.666667
O O13 0.027866 0.424886 0.615909
O O14 0.924124 0.349805 0.068688
O O15 0.000000 0.350218 0.000000
O O16 0.872676 0.745352 0.767376
#
# Coordination Sequence:
#
# PCOD9579160 Si02
#       6
#    36  36  36  36  36  36
#     4  11  20  31  50  78 107 138 178 223 271 321
#     4  10  19  35  57  77 105 142 182 224 267 323
#     4  11  20  34  54  76 104 145 186 219 266 323
#     4  11  21  34  54  81 111 145 180 217 270 329
#     4  11  20  32  50  77 112 141 172 219 270 323
#     4  10  21  34  53  79 107 141 180 222 270 320
#
# _framework density 16.268654000000002
#
# number of rings (size 3 to 8) (size 9 to 14) (size 15 to 20)
#    0.000    1.333    6.667    1.500    0.000    1.000 
#    0.000    2.500    0.000    6.000    0.000    0.000 
#    0.000    1.333    0.000    0.000    0.000    0.000 
#
# Total GULP energy -401166.670022 kJ/mol
# GULP energy per Si atom -5571.759306 kJ/mol
# Density = 1.623163 g / cm^3
# Si number density = 16.268654 Si / 1000 Ang^3
#
#
#
# Elastic Constant Matrix: (Units=GPa)
#
#
# Indices 1 2 3 4 5 6 
#
# 1 40.8578 28.8040 22.9039 -25.6919 0.0007 0.0000
# 2 28.8040 40.8578 22.9039 25.6919 -0.0007 0.0000
# 3 22.9039 22.9039 82.2747 0.0000 0.0000 0.0000
# 4 -25.6919 25.6919 0.0000 -31.6208 0.0000 -0.0007
# 5 0.0007 -0.0007 0.0000 0.0000 -31.6208 -25.6919
# 6 0.0000 0.0000 0.0000 -0.0007 -25.6919 6.0269
#
#
#
# Elastic Compliance Matrix: (Units=1/GPa)
#
#
# Indices 1 2 3 4 5 6 
#
# 1 0.018079 -0.000507 -0.004892 -0.015101 0.000000 0.000000
# 2 -0.000507 0.018079 -0.004892 0.015101 0.000000 0.000000
# 3 -0.004892 -0.004892 0.014878 0.000000 0.000000 0.000000
# 4 -0.015101 0.015101 0.000000 -0.007085 0.000000 -0.000001
# 5 0.000000 0.000000 0.000000 0.000000 -0.007085 -0.030203
# 6 0.000000 0.000000 0.000000 -0.000001 -0.030203 0.037173
#
#
# Mechanical properties :
#
#
# Convention : Reuss Voigt Hill
#
# Bulk Modulus (GPa) = 32.83569 34.80154 33.81862
# Shear Modulus (GPa) = 47.72306 -5.48438 21.11934
#
# Velocity S-wave (km/s) = 5.42200 -1.83806 3.60691
# Velocity P-wave (km/s) = 7.70874 4.11505 6.17893
#
# Compressibility (1/GPa) = 0.03045467
#
# Stress axis : x y z
#
# Youngs Moduli (GPa) = 55.31280 55.31280 67.21364
#
# Poissons Ratio (x) = 0.02806 0.32879
# Poissons Ratio (y) = 0.02806 0.32879
# Poissons Ratio (z) = 0.27057 0.27057
#
# Static dielectric constant tensor:
#      x y z
#    x 1.570850 0.000000 0.000000 
#    y 0.000000 1.570850 0.000000 
#    z 0.000000 0.000000 1.605590 
# 
# From -- ./inp_files/9710.got.cif
#   From: 2010.05.17/outbox.cif.g08.bks.cpg/sg166_5_cif.got.tgz:9710.got - 2010.05.20 11:04:41.
