data_PCOD9579512
_publ_section_title
;
Structure prediction by ZEFSAII (Michael W. Deem and Ramdas Pophale) SiO2 
 PCOD9579512
Probable space group: R -3 C 
;
_chemical_formula_sum "Si O2"
_cell_formula_units_Z 84
_cell_length_a 15.503170
_cell_length_b 15.503170
_cell_length_c 17.927554
_cell_angle_alpha 90.000000
_cell_angle_beta 90.000000
_cell_angle_gamma 120.000000
_cell_volume 3731.579424
_symmetry_space_group_name_H-M "R -3 C "
_symmetry_group_IT_number 167
_symmetry_cell_setting 'hexagonal'
loop_
_space_group_symop_operation_xyz
x,y,z
-y,x-y,z
-x+y,-x,z
x-y,-y,1/2-z
-x,-x+y,1/2-z
y,x,1/2-z
-x,-y,-z
y,-x+y,-z
x-y,x,-z
-x+y,y,1/2+z
x,x-y,1/2+z
-y,-x,1/2+z
2/3+x,1/3+y,1/3+z
2/3-y,1/3+x-y,1/3+z
2/3-x+y,1/3-x,1/3+z
2/3+x-y,1/3-y,5/6-z
2/3-x,1/3-x+y,5/6-z
2/3+y,1/3+x,5/6-z
2/3-x,1/3-y,1/3-z
2/3+y,1/3-x+y,1/3-z
2/3+x-y,1/3+x,1/3-z
2/3-x+y,1/3+y,5/6+z
2/3+x,1/3+x-y,5/6+z
2/3-y,1/3-x,5/6+z
1/3+x,2/3+y,2/3+z
1/3-y,2/3+x-y,2/3+z
1/3-x+y,2/3-x,2/3+z
1/3+x-y,2/3-y,1/6-z
1/3-x,2/3-x+y,1/6-z
1/3+y,2/3+x,1/6-z
1/3-x,2/3-y,2/3-z
1/3+y,2/3-x+y,2/3-z
1/3+x-y,2/3+x,2/3-z
1/3-x+y,2/3+y,1/6+z
1/3+x,2/3+x-y,1/6+z
1/3-y,2/3-x,1/6+z
loop_
_atom_site_type_symbol
_atom_site_label
_atom_site_fract_x
_atom_site_fract_y
_atom_site_fract_z
Si Si1 0.666668 0.333334 0.744501
Si Si2 0.056550 0.504060 0.896418
Si Si3 0.870435 0.518945 0.466165
O O1 0.666668 0.333335 0.833334
O O2 0.696924 0.254669 0.715763
O O3 0.136046 0.469379 0.916667
O O4 0.078707 0.569592 0.822095
O O5 0.949659 0.403770 0.899990
O O6 0.070561 0.581429 0.962215
#
# Coordination Sequence:
#
# PCOD9579512 Si02
#       3
#    12  36  36
#     4  12  24  40  62  94 132 174 223 275 337 414
#     4  10  20  39  68  92 125 168 220 274 335 407
#     4  10  22  39  64  98 124 167 223 274 332 404
#
# _framework density 22.510574999999999
#
# number of rings (size 3 to 8) (size 9 to 14) (size 15 to 20)
#    0.000    1.714    4.286    0.000    0.000    3.429 
#    0.000    0.000    0.000    0.000    0.000    0.000 
#    0.000    0.000    0.000    0.000    0.000    0.000 
#
# Total GULP energy -156204.871655 kJ/mol
# GULP energy per Si atom -5578.745416 kJ/mol
# Density = 2.245934 g / cm^3
# Si number density = 22.510575 Si / 1000 Ang^3
#
#
#
# Elastic Constant Matrix: (Units=GPa)
#
#
# Indices 1 2 3 4 5 6 
#
# 1 113.2277 71.8559 30.2426 -13.3166 0.0000 0.0000
# 2 71.8559 113.2289 30.2441 13.3165 0.0000 0.0000
# 3 30.2426 30.2441 35.5333 -0.0003 0.0000 0.0000
# 4 -13.3166 13.3165 -0.0003 17.4794 0.0000 0.0000
# 5 0.0000 0.0000 0.0000 0.0000 17.4789 -13.3162
# 6 0.0000 0.0000 0.0000 0.0000 -13.3162 20.6868
#
#
#
# Elastic Compliance Matrix: (Units=1/GPa)
#
#
# Indices 1 2 3 4 5 6 
#
# 1 0.027459 -0.019974 -0.006369 0.036136 0.000000 0.000000
# 2 -0.019974 0.027460 -0.006372 -0.036137 0.000000 0.000000
# 3 -0.006369 -0.006372 0.038987 0.000003 0.000000 0.000000
# 4 0.036136 -0.036137 0.000003 0.112271 0.000000 0.000000
# 5 0.000000 0.000000 0.000000 0.000000 0.112270 0.072269
# 6 0.000000 0.000000 0.000000 0.000000 0.072269 0.094860
#
#
# Mechanical properties :
#
#
# Convention : Reuss Voigt Hill
#
# Bulk Modulus (GPa) = 35.11929 58.51948 46.81938
# Shear Modulus (GPa) = 10.24110 19.77215 15.00663
#
# Velocity S-wave (km/s) = 2.13526 2.96691 2.58475
# Velocity P-wave (km/s) = 4.65985 6.14733 5.45453
#
# Compressibility (1/GPa) = 0.02847438
#
# Stress axis : x y z
#
# Youngs Moduli (GPa) = 36.41829 36.41727 25.64956
#
# Poissons Ratio (x) = 0.72741 0.16336
# Poissons Ratio (y) = 0.72743 0.16345
# Poissons Ratio (z) = 0.23195 0.23206
#
# Static dielectric constant tensor:
#      x y z
#    x 1.841500 0.000000 0.000000 
#    y 0.000000 1.841490 0.000000 
#    z 0.000000 0.000000 1.884510 
# 
# From -- ./inp_files/1870.got.cif
#   From: 2010.05.17/outbox.cif.g08.bks.cpg/sg167_1_cif.got.tgz:1870.got - 2010.05.20 11:09:15.
