data_PCOD9579444
_publ_section_title
;
Structure prediction by ZEFSAII (Michael W. Deem and Ramdas Pophale) SiO2 
 PCOD9579444
Probable space group: R -3 C 
;
_chemical_formula_sum "Si O2"
_cell_formula_units_Z 108
_cell_length_a 23.096635
_cell_length_b 23.096635
_cell_length_c 10.688041
_cell_angle_alpha 90.000000
_cell_angle_beta 90.000000
_cell_angle_gamma 120.000000
_cell_volume 4937.716659
_symmetry_space_group_name_H-M "R -3 C "
_symmetry_group_IT_number 167
_symmetry_cell_setting 'hexagonal'
loop_
_space_group_symop_operation_xyz
x,y,z
-y,x-y,z
-x+y,-x,z
x-y,-y,1/2-z
-x,-x+y,1/2-z
y,x,1/2-z
-x,-y,-z
y,-x+y,-z
x-y,x,-z
-x+y,y,1/2+z
x,x-y,1/2+z
-y,-x,1/2+z
2/3+x,1/3+y,1/3+z
2/3-y,1/3+x-y,1/3+z
2/3-x+y,1/3-x,1/3+z
2/3+x-y,1/3-y,5/6-z
2/3-x,1/3-x+y,5/6-z
2/3+y,1/3+x,5/6-z
2/3-x,1/3-y,1/3-z
2/3+y,1/3-x+y,1/3-z
2/3+x-y,1/3+x,1/3-z
2/3-x+y,1/3+y,5/6+z
2/3+x,1/3+x-y,5/6+z
2/3-y,1/3-x,5/6+z
1/3+x,2/3+y,2/3+z
1/3-y,2/3+x-y,2/3+z
1/3-x+y,2/3-x,2/3+z
1/3+x-y,2/3-y,1/6-z
1/3-x,2/3-x+y,1/6-z
1/3+y,2/3+x,1/6-z
1/3-x,2/3-y,2/3-z
1/3+y,2/3-x+y,2/3-z
1/3+x-y,2/3+x,2/3-z
1/3-x+y,2/3+y,1/6+z
1/3+x,2/3+x-y,1/6+z
1/3-y,2/3-x,1/6+z
loop_
_atom_site_type_symbol
_atom_site_label
_atom_site_fract_x
_atom_site_fract_y
_atom_site_fract_z
Si Si1 0.410483 0.043759 0.449405
Si Si2 0.247704 0.413089 0.619029
Si Si3 0.836136 0.079315 0.228950
O O1 0.407818 0.074484 0.583334
O O2 0.436044 0.109576 0.366237
O O3 0.565895 0.097881 0.422366
O O4 0.333334 0.997607 0.416667
O O5 0.210248 0.333334 0.583334
O O6 0.233356 0.344312 0.897868
O O7 0.223548 0.439806 0.503846
O O8 0.801053 0.000000 0.250000
#
# Coordination Sequence:
#
# PCOD9579444 Si02
#       3
#    36  36  36
#     4  10  19  35  54  80 115 164 219 254 313 364
#     4  11  23  38  56  89 119 169 230 265 306 387
#     4  11  25  40  63  86 131 178 222 266 324 386
#
# _framework density 21.872458000000002
#
# number of rings (size 3 to 8) (size 9 to 14) (size 15 to 20)
#    0.000    1.333    6.667    1.000    4.667    0.000 
#    0.000    0.000    0.000    0.000    0.000    0.000 
#    0.000    0.000    0.000   71.000    0.000    0.000 
#
# Total GULP energy -200690.011651 kJ/mol
# GULP energy per Si atom -5574.722546 kJ/mol
# Density = 2.182268 g / cm^3
# Si number density = 21.872458 Si / 1000 Ang^3
#
#
#
# Elastic Constant Matrix: (Units=GPa)
#
#
# Indices 1 2 3 4 5 6 
#
# 1 79.5371 16.3649 25.4856 -2.1341 -0.0009 -0.0001
# 2 16.3649 79.5376 25.4872 2.1338 0.0002 0.0000
# 3 25.4856 25.4872 168.0242 -0.0008 -0.0026 -0.0003
# 4 -2.1341 2.1338 -0.0008 31.8676 -0.0004 0.0001
# 5 -0.0009 0.0002 -0.0026 -0.0004 31.8665 -2.1340
# 6 -0.0001 0.0000 -0.0003 0.0001 -2.1340 31.5864
#
#
#
# Elastic Compliance Matrix: (Units=1/GPa)
#
#
# Indices 1 2 3 4 5 6 
#
# 1 0.013622 -0.002280 -0.001720 0.001065 0.000000 0.000000
# 2 -0.002280 0.013622 -0.001720 -0.001065 0.000000 0.000000
# 3 -0.001720 -0.001720 0.006473 0.000000 0.000000 0.000000
# 4 0.001065 -0.001065 0.000000 0.031522 0.000000 0.000000
# 5 0.000000 0.000000 0.000000 0.000000 0.031524 0.002130
# 6 0.000000 0.000000 0.000000 0.000000 0.002130 0.031803
#
#
# Mechanical properties :
#
#
# Convention : Reuss Voigt Hill
#
# Bulk Modulus (GPa) = 44.89261 51.30826 48.10043
# Shear Modulus (GPa) = 33.91389 36.38151 35.14770
#
# Velocity S-wave (km/s) = 3.94195 4.08284 4.01301
# Velocity P-wave (km/s) = 6.42556 6.76276 6.59632
#
# Compressibility (1/GPa) = 0.02227538
#
# Stress axis : x y z
#
# Youngs Moduli (GPa) = 73.41262 73.41263 154.47799
#
# Poissons Ratio (x) = 0.16738 0.26574
# Poissons Ratio (y) = 0.16738 0.26577
# Poissons Ratio (z) = 0.12629 0.12630
#
# Static dielectric constant tensor:
#      x y z
#    x 1.817480 0.000000 0.000000 
#    y 0.000000 1.817480 0.000000 
#    z 0.000000 0.000000 1.833400 
# 
# From -- ./inp_files/1211.got.cif
#   From: 2010.05.17/outbox.cif.g08.bks.cpg/sg167_1_cif.got.tgz:1211.got - 2010.05.20 11:09:15.
