data_PCOD9579432
_publ_section_title
;
Structure prediction by ZEFSAII (Michael W. Deem and Ramdas Pophale) SiO2 
 PCOD9579432
Probable space group: R -3 C 
;
_chemical_formula_sum "Si O2"
_cell_formula_units_Z 144
_cell_length_a 18.018789
_cell_length_b 18.018789
_cell_length_c 27.885636
_cell_angle_alpha 90.000000
_cell_angle_beta 90.000000
_cell_angle_gamma 120.000000
_cell_volume 7840.836272
_symmetry_space_group_name_H-M "R -3 C "
_symmetry_group_IT_number 167
_symmetry_cell_setting 'hexagonal'
loop_
_space_group_symop_operation_xyz
x,y,z
-y,x-y,z
-x+y,-x,z
x-y,-y,1/2-z
-x,-x+y,1/2-z
y,x,1/2-z
-x,-y,-z
y,-x+y,-z
x-y,x,-z
-x+y,y,1/2+z
x,x-y,1/2+z
-y,-x,1/2+z
2/3+x,1/3+y,1/3+z
2/3-y,1/3+x-y,1/3+z
2/3-x+y,1/3-x,1/3+z
2/3+x-y,1/3-y,5/6-z
2/3-x,1/3-x+y,5/6-z
2/3+y,1/3+x,5/6-z
2/3-x,1/3-y,1/3-z
2/3+y,1/3-x+y,1/3-z
2/3+x-y,1/3+x,1/3-z
2/3-x+y,1/3+y,5/6+z
2/3+x,1/3+x-y,5/6+z
2/3-y,1/3-x,5/6+z
1/3+x,2/3+y,2/3+z
1/3-y,2/3+x-y,2/3+z
1/3-x+y,2/3-x,2/3+z
1/3+x-y,2/3-y,1/6-z
1/3-x,2/3-x+y,1/6-z
1/3+y,2/3+x,1/6-z
1/3-x,2/3-y,2/3-z
1/3+y,2/3-x+y,2/3-z
1/3+x-y,2/3+x,2/3-z
1/3-x+y,2/3+y,1/6+z
1/3+x,2/3+x-y,1/6+z
1/3-y,2/3-x,1/6+z
loop_
_atom_site_type_symbol
_atom_site_label
_atom_site_fract_x
_atom_site_fract_y
_atom_site_fract_z
Si Si1 0.630282 0.095113 0.489405
Si Si2 0.188379 0.369611 0.482275
Si Si3 0.114906 0.781572 0.583334
Si Si4 0.590944 0.528250 0.438834
Si Si5 0.000000 0.709430 0.750000
O O1 0.721925 0.168251 0.508108
O O2 0.560142 0.116725 0.468035
O O3 0.583806 0.025357 0.531372
O O4 0.641707 0.040287 0.446940
O O5 0.171687 0.322085 0.533263
O O6 0.120428 0.301776 0.445498
O O7 0.278708 0.396686 0.455582
O O8 0.106084 0.690731 0.570337
#
# Coordination Sequence:
#
# PCOD9579432 Si02
#       5
#    36  36  18  36  18
#     4  10  19  35  56  85 121 152 183 248 300 337
#     4  11  20  32  56  84 119 149 197 238 293 343
#     4  12  21  36  58  90 117 150 198 242 282 357
#     4  10  20  36  56  85 119 146 190 241 296 332
#     4  10  19  32  54  86 115 150 194 238 288 363
#
# _framework density 18.365387999999999
#
# number of rings (size 3 to 8) (size 9 to 14) (size 15 to 20)
#    0.000    1.500    5.000    0.750    0.000    2.000 
#    0.000    0.000    0.000    1.000    6.500    1.750 
#    0.000    0.000    0.000    0.000    0.000    0.000 
#
# Total GULP energy -267514.654509 kJ/mol
# GULP energy per Si atom -5573.221969 kJ/mol
# Density = 1.832359 g / cm^3
# Si number density = 18.365388 Si / 1000 Ang^3
#
#
#
# Elastic Constant Matrix: (Units=GPa)
#
#
# Indices 1 2 3 4 5 6 
#
# 1 29.8224 17.4631 6.9356 0.2999 -0.0002 0.0000
# 2 17.4631 29.8224 6.9356 -0.2999 0.0002 0.0000
# 3 6.9356 6.9356 135.1538 0.0000 0.0000 0.0000
# 4 0.2999 -0.2999 0.0000 29.5724 0.0000 0.0002
# 5 -0.0002 0.0002 0.0000 0.0000 29.5724 0.2999
# 6 0.0000 0.0000 0.0000 0.0002 0.2999 6.1796
#
#
#
# Elastic Compliance Matrix: (Units=1/GPa)
#
#
# Indices 1 2 3 4 5 6 
#
# 1 0.051211 -0.029740 -0.001102 -0.000821 0.000001 0.000000
# 2 -0.029740 0.051211 -0.001102 0.000821 -0.000001 0.000000
# 3 -0.001102 -0.001102 0.007512 0.000000 0.000000 0.000000
# 4 -0.000821 0.000821 0.000000 0.033832 0.000000 -0.000001
# 5 0.000001 -0.000001 0.000000 0.000000 0.033832 -0.001642
# 6 0.000000 0.000000 0.000000 -0.000001 -0.001642 0.161902
#
#
# Mechanical properties :
#
#
# Convention : Reuss Voigt Hill
#
# Bulk Modulus (GPa) = 21.71674 28.60747 25.16210
# Shear Modulus (GPa) = 11.94071 23.96252 17.95161
#
# Velocity S-wave (km/s) = 2.55262 3.61607 3.12984
# Velocity P-wave (km/s) = 4.53192 5.74850 5.17608
#
# Compressibility (1/GPa) = 0.04604743
#
# Stress axis : x y z
#
# Youngs Moduli (GPa) = 19.52703 19.52703 133.11930
#
# Poissons Ratio (x) = 0.58073 0.14667
# Poissons Ratio (y) = 0.58073 0.14667
# Poissons Ratio (z) = 0.02152 0.02152
#
# Static dielectric constant tensor:
#      x y z
#    x 1.672690 0.000000 0.000000 
#    y 0.000000 1.672690 0.000000 
#    z 0.000000 0.000000 1.428800 
# 
# From -- ./inp_files/5249.got.cif
#   From: 2010.05.17/outbox.cif.g08.bks.cpg/sg167_3_cif.got.tgz:5249.got - 2010.05.20 11:09:15.
