data_PCOD9579690
_publ_section_title
;
Structure prediction by ZEFSAII (Michael W. Deem and Ramdas Pophale) SiO2 
 PCOD9579690
Probable space group: R -3 C 
;
_chemical_formula_sum "Si O2"
_cell_formula_units_Z 144
_cell_length_a 28.748264
_cell_length_b 28.748264
_cell_length_c 9.580617
_cell_angle_alpha 90.000000
_cell_angle_beta 90.000000
_cell_angle_gamma 120.000000
_cell_volume 6857.208573
_symmetry_space_group_name_H-M "R -3 C "
_symmetry_group_IT_number 167
_symmetry_cell_setting 'hexagonal'
loop_
_space_group_symop_operation_xyz
x,y,z
-y,x-y,z
-x+y,-x,z
x-y,-y,1/2-z
-x,-x+y,1/2-z
y,x,1/2-z
-x,-y,-z
y,-x+y,-z
x-y,x,-z
-x+y,y,1/2+z
x,x-y,1/2+z
-y,-x,1/2+z
2/3+x,1/3+y,1/3+z
2/3-y,1/3+x-y,1/3+z
2/3-x+y,1/3-x,1/3+z
2/3+x-y,1/3-y,5/6-z
2/3-x,1/3-x+y,5/6-z
2/3+y,1/3+x,5/6-z
2/3-x,1/3-y,1/3-z
2/3+y,1/3-x+y,1/3-z
2/3+x-y,1/3+x,1/3-z
2/3-x+y,1/3+y,5/6+z
2/3+x,1/3+x-y,5/6+z
2/3-y,1/3-x,5/6+z
1/3+x,2/3+y,2/3+z
1/3-y,2/3+x-y,2/3+z
1/3-x+y,2/3-x,2/3+z
1/3+x-y,2/3-y,1/6-z
1/3-x,2/3-x+y,1/6-z
1/3+y,2/3+x,1/6-z
1/3-x,2/3-y,2/3-z
1/3+y,2/3-x+y,2/3-z
1/3+x-y,2/3+x,2/3-z
1/3-x+y,2/3+y,1/6+z
1/3+x,2/3+x-y,1/6+z
1/3-y,2/3-x,1/6+z
loop_
_atom_site_type_symbol
_atom_site_label
_atom_site_fract_x
_atom_site_fract_y
_atom_site_fract_z
Si Si1 0.219120 0.858418 0.435602
Si Si2 0.517453 0.706623 0.534905
Si Si3 0.146606 0.185155 0.625993
Si Si4 0.569507 0.604929 0.887075
O O1 0.197539 0.864206 0.583334
O O2 0.166667 0.833334 0.333334
O O3 0.169948 0.926634 0.702473
O O4 0.249518 0.913876 0.354159
O O5 0.478188 0.666667 0.416667
O O6 0.505094 0.753507 0.580523
O O7 0.512093 0.668161 0.664644
O O8 0.148432 0.148432 0.750000
O O9 0.177154 0.246285 0.687219
O O10 0.585348 0.585348 0.750000
O O11 0.602900 0.666667 0.916667
#
# Coordination Sequence:
#
# PCOD9579690 Si02
#       4
#    36  36  36  36
#     4  12  25  42  69 101 146 189 240 298 360 440
#     4  12  26  43  74 103 137 191 245 296 372 439
#     4  11  24  44  68  99 139 179 243 300 358 439
#     4  11  24  42  66  97 144 188 237 298 356 422
#
# _framework density 20.999797000000001
#
# number of rings (size 3 to 8) (size 9 to 14) (size 15 to 20)
#    0.000    0.500    2.500    6.750    3.500    4.000 
#    0.000    0.000    0.000   10.000    0.000    0.000 
#    0.000    0.000    0.000    0.000    0.000    0.000 
#
# Total GULP energy -267746.738257 kJ/mol
# GULP energy per Si atom -5578.057047 kJ/mol
# Density = 2.095200 g / cm^3
# Si number density = 20.999797 Si / 1000 Ang^3
#
#
#
# Elastic Constant Matrix: (Units=GPa)
#
#
# Indices 1 2 3 4 5 6 
#
# 1 74.0274 61.8439 32.5720 -8.8066 -0.0278 0.0118
# 2 61.8439 74.0539 32.6216 8.8136 0.0115 -0.0062
# 3 32.5720 32.6216 144.1699 0.0184 -0.0927 0.0136
# 4 -8.8066 8.8136 0.0184 24.2698 0.0067 -0.0076
# 5 -0.0278 0.0115 -0.0927 0.0067 24.2377 -8.8156
# 6 0.0118 -0.0062 0.0136 -0.0076 -8.8156 6.0991
#
#
#
# Elastic Compliance Matrix: (Units=1/GPa)
#
#
# Indices 1 2 3 4 5 6 
#
# 1 0.090330 -0.082072 -0.001845 0.062583 0.000115 -0.000010
# 2 -0.082072 0.090323 -0.001887 -0.062580 -0.000132 -0.000015
# 3 -0.001845 -0.001887 0.007780 0.000010 0.000048 0.000054
# 4 0.062583 -0.062580 0.000010 0.086638 0.000105 0.000076
# 5 0.000115 -0.000132 0.000048 0.000105 0.086991 0.125737
# 6 -0.000010 -0.000015 0.000054 0.000076 0.125737 0.345702
#
#
# Mechanical properties :
#
#
# Convention : Reuss Voigt Hill
#
# Bulk Modulus (GPa) = 59.43883 60.70290 60.07087
# Shear Modulus (GPa) = 5.64984 21.93557 13.79270
#
# Velocity S-wave (km/s) = 1.64203 3.23547 2.56559
# Velocity P-wave (km/s) = 5.65340 6.55186 6.11914
#
# Compressibility (1/GPa) = 0.01682402
#
# Stress axis : x y z
#
# Youngs Moduli (GPa) = 11.07052 11.07140 128.53029
#
# Poissons Ratio (x) = 0.90865 0.23719
# Poissons Ratio (y) = 0.90858 0.24258
# Poissons Ratio (z) = 0.02043 0.02090
#
# Static dielectric constant tensor:
#      x y z
#    x 1.908620 0.000090 -0.000520 
#    y 0.000090 1.908410 -0.000790 
#    z -0.000520 -0.000790 1.965390 
# 
# From -- ./inp_files/807.got.cif
#   From: 2010.05.17/outbox.cif.g08.bks.cpg/sg167_1_cif.got.tgz:807.got - 2010.05.20 11:09:15.
