data_PCOD9579790
_publ_section_title
;
Structure prediction by ZEFSAII (Michael W. Deem and Ramdas Pophale) SiO2 
 PCOD9579790
Probable space group: P 61
;
_chemical_formula_sum "Si O2"
_cell_formula_units_Z 42
_cell_length_a 17.824779
_cell_length_b 17.824779
_cell_length_c 8.277897
_cell_angle_alpha 90.000000
_cell_angle_beta 90.000000
_cell_angle_gamma 120.000000
_cell_volume 2277.712776
_symmetry_space_group_name_H-M "P 61"
_symmetry_group_IT_number 169
_symmetry_cell_setting 'hexagonal'
loop_
_space_group_symop_operation_xyz
x,y,z
x-y,x,1/6+z
-y,x-y,1/3+z
-x,-y,1/2+z
-x+y,-x,2/3+z
y,-x+y,5/6+z
loop_
_atom_site_type_symbol
_atom_site_label
_atom_site_fract_x
_atom_site_fract_y
_atom_site_fract_z
Si Si1 0.279641 0.494978 0.658370
Si Si2 0.299134 0.335678 0.252529
Si Si3 0.351256 0.626540 0.130995
Si Si4 0.521465 0.522865 0.838779
Si Si5 0.123227 0.655884 0.649353
Si Si6 0.397748 0.874315 0.878727
Si Si7 0.159777 0.380164 0.369076
O O1 0.242507 0.552345 0.734082
O O2 0.295761 0.450054 0.812228
O O3 0.375352 0.563189 0.586508
O O4 0.215404 0.432211 0.524848
O O5 0.378642 0.404631 0.367081
O O6 0.210787 0.333531 0.300310
O O7 0.312535 0.253164 0.244212
O O8 0.320637 0.380634 0.076319
O O9 0.353571 0.653065 0.319336
O O10 0.325282 0.527998 0.100084
O O11 0.445114 0.523652 0.938337
O O12 0.500603 0.545441 0.663960
O O13 0.513848 0.430158 0.869593
O O14 0.298911 0.843415 0.925886
#
# Coordination Sequence:
#
# PCOD9579790 Si02
#       7
#     6   6   6   6   6   6   6
#     4  10  20  36  54  81 120 154 203 249 289 361
#     4  11  23  39  61  84 119 156 209 252 318 370
#     4  10  21  33  49  77 119 155 205 246 289 348
#     4  10  17  36  54  79 113 155 185 240 292 360
#     4  10  21  37  53  84 115 159 198 240 300 367
#     4  10  20  33  57  82 119 156 199 235 296 363
#     4  11  22  40  60  87 117 159 205 258 312 367
#
# _framework density 18.439550000000001
#
# number of rings (size 3 to 8) (size 9 to 14) (size 15 to 20)
#    0.000    1.714    4.286    3.429    4.000    0.000 
#    2.571    1.429    0.000    0.000    0.000    2.000 
#    0.000    0.000    0.000    0.000    0.000    0.000 
#
# Total GULP energy -233857.663303 kJ/mol
# GULP energy per Si atom -5568.039602 kJ/mol
# Density = 1.839758 g / cm^3
# Si number density = 18.439550 Si / 1000 Ang^3
#
#
#
# Elastic Constant Matrix: (Units=GPa)
#
#
# Indices 1 2 3 4 5 6 
#
# 1 98.0332 53.7250 44.8258 0.0000 0.0000 0.0000
# 2 53.7250 98.0332 44.8258 0.0000 0.0000 0.0000
# 3 44.8258 44.8258 69.3795 0.0000 0.0000 0.0000
# 4 0.0000 0.0000 0.0000 28.8177 0.0000 0.0000
# 5 0.0000 0.0000 0.0000 0.0000 28.8177 0.0000
# 6 0.0000 0.0000 0.0000 0.0000 0.0000 22.1541
#
#
#
# Elastic Compliance Matrix: (Units=1/GPa)
#
#
# Indices 1 2 3 4 5 6 
#
# 1 0.016613 -0.005956 -0.006885 0.000000 0.000000 0.000000
# 2 -0.005956 0.016613 -0.006885 0.000000 0.000000 0.000000
# 3 -0.006885 -0.006885 0.023311 0.000000 0.000000 0.000000
# 4 0.000000 0.000000 0.000000 0.034701 0.000000 0.000000
# 5 0.000000 0.000000 0.000000 0.000000 0.034701 0.000000
# 6 0.000000 0.000000 0.000000 0.000000 0.000000 0.045138
#
#
# Mechanical properties :
#
#
# Convention : Reuss Voigt Hill
#
# Bulk Modulus (GPa) = 58.53764 61.35546 59.94655
# Shear Modulus (GPa) = 23.12400 24.09584 23.60992
#
# Velocity S-wave (km/s) = 3.54509 3.61882 3.58214
# Velocity P-wave (km/s) = 6.96933 7.12792 7.04907
#
# Compressibility (1/GPa) = 0.01708303
#
# Stress axis : x y z
#
# Youngs Moduli (GPa) = 60.19346 60.19346 42.89855
#
# Poissons Ratio (x) = 0.35852 0.29538
# Poissons Ratio (y) = 0.35852 0.29538
# Poissons Ratio (z) = 0.41446 0.41446
#
# Static dielectric constant tensor:
#      x y z
#    x 1.703660 0.000000 0.000000 
#    y 0.000000 1.703660 0.000000 
#    z 0.000000 0.000000 1.759600 
# 
# From -- ./inp_files/697.got.cif
#   From: 2010.05.17/outbox.cif.g08.bks.cpg/sg169_cif.got.tgz:697.got - 2010.05.20 11:12:54.
