data_PCOD9579380
_publ_section_title
;
Structure prediction by ZEFSAII (Michael W. Deem and Ramdas Pophale) SiO2 
 PCOD9579380
Probable space group: R -3 M
;
_chemical_formula_sum "Si O2"
_cell_formula_units_Z 54
_cell_length_a 30.000000
_cell_length_b 30.000000
_cell_length_c 12.000000
_cell_angle_alpha 90.000000
_cell_angle_beta 90.000000
_cell_angle_gamma 120.000000
_cell_volume 9353.074361
_symmetry_space_group_name_H-M "R -3 M"
_symmetry_group_IT_number 166
_symmetry_cell_setting 'hexagonal'
loop_
_space_group_symop_operation_xyz
x,y,z
-y,x-y,z
-x+y,-x,z
x-y,-y,-z
-x,-x+y,-z
y,x,-z
-x,-y,-z
y,-x+y,-z
x-y,x,-z
-x+y,y,z
x,x-y,z
-y,-x,z
2/3+x,1/3+y,1/3+z
2/3-y,1/3+x-y,1/3+z
2/3-x+y,1/3-x,1/3+z
2/3+x-y,1/3-y,1/3-z
2/3-x,1/3-x+y,1/3-z
2/3+y,1/3+x,1/3-z
2/3-x,1/3-y,1/3-z
2/3+y,1/3-x+y,1/3-z
2/3+x-y,1/3+x,1/3-z
2/3-x+y,1/3+y,1/3+z
2/3+x,1/3+x-y,1/3+z
2/3-y,1/3-x,1/3+z
1/3+x,2/3+y,2/3+z
1/3-y,2/3+x-y,2/3+z
1/3-x+y,2/3-x,2/3+z
1/3+x-y,2/3-y,2/3-z
1/3-x,2/3-x+y,2/3-z
1/3+y,2/3+x,2/3-z
1/3-x,2/3-y,2/3-z
1/3+y,2/3-x+y,2/3-z
1/3+x-y,2/3+x,2/3-z
1/3-x+y,2/3+y,2/3+z
1/3+x,2/3+x-y,2/3+z
1/3-y,2/3-x,2/3+z
loop_
_atom_site_type_symbol
_atom_site_label
_atom_site_fract_x
_atom_site_fract_y
_atom_site_fract_z
Si Si1 0.441848 0.666238 0.300109
Si Si2 0.085667 0.711001 0.070242
Si Si3 0.666667 0.589809 0.333334
Si Si4 0.674235 0.135199 0.561902
Si Si5 0.853037 0.146964 0.497985
Si Si6 0.461907 0.538094 0.925998
O O1 0.442449 0.721225 0.320613
O O2 0.384172 0.615829 0.315436
O O3 0.454666 0.666667 0.166667
O O4 0.483051 0.660082 0.380353
O O5 0.056630 0.666667 0.166667
O O6 0.140853 0.761629 0.105381
O O7 0.047406 0.732304 0.029157
O O8 0.100080 0.680676 0.978250
O O9 0.658102 0.551916 0.439956
O O10 0.736160 0.171037 0.556048
O O11 0.824073 0.175928 0.545511
O O12 0.871366 0.128635 0.606087
#
# Coordination Sequence:
#
# PCOD9579380 Si02
#       6
#    36  36  18  36  18  18
#     4  10  22  41  70 102 131 159 202 268 333 386
#     4  12  24  42  69  95 127 164 219 274 326 383
#     4  12  28  44  58  89 131 182 216 260 310 374
#     4  12  24  43  65  93 131 173 220 256 319 387
#     4  11  24  40  66 101 127 158 217 285 330 368
#     4  11  22  42  65  96 125 169 217 273 317 386
#
# _framework density 5.7735029999999998
#
# number of rings (size 3 to 8) (size 9 to 14) (size 15 to 20)
#    0.000    0.667    5.556    2.889    1.556    0.889 
#    4.000    1.111    0.000    0.000    0.000    1.556 
#    0.000    0.000    0.000    0.000    0.000    0.000 
#
# Total GULP energy -300760.136799 kJ/mol
# GULP energy per Si atom -5569.632163 kJ/mol
# Density = 0.576036 g / cm^3
# Si number density = 5.773503 Si / 1000 Ang^3
#
#
#
# Elastic Constant Matrix: (Units=GPa)
#
#
# Indices 1 2 3 4 5 6 
#
# 1 121.5066 35.2968 53.7858 -0.2270 -0.0006 0.0005
# 2 35.2968 121.5066 53.7898 0.2273 -0.0001 -0.0001
# 3 53.7858 53.7898 128.7427 -0.0002 -0.0071 0.0005
# 4 -0.2270 0.2273 -0.0002 35.5375 0.0002 0.0001
# 5 -0.0006 -0.0001 -0.0071 0.0002 35.5359 -0.2273
# 6 0.0005 -0.0001 0.0005 0.0001 -0.2273 43.1048
#
#
#
# Elastic Compliance Matrix: (Units=1/GPa)
#
#
# Indices 1 2 3 4 5 6 
#
# 1 0.010270 -0.001330 -0.003735 0.000074 -0.000001 0.000000
# 2 -0.001330 0.010270 -0.003735 -0.000074 -0.000001 0.000000
# 3 -0.003735 -0.003735 0.010888 0.000000 0.000002 0.000000
# 4 0.000074 -0.000074 0.000000 0.028140 0.000000 0.000000
# 5 -0.000001 -0.000001 0.000002 0.000000 0.028142 0.000148
# 6 0.000000 0.000000 0.000000 0.000000 0.000148 0.023200
#
#
# Mechanical properties :
#
#
# Convention : Reuss Voigt Hill
#
# Bulk Modulus (GPa) = 72.31703 73.05564 72.68634
# Shear Modulus (GPa) = 37.56025 38.09454 37.82740
#
# Velocity S-wave (km/s) = 4.66181 4.69485 4.67836
# Velocity P-wave (km/s) = 8.41544 8.46517 8.44034
#
# Compressibility (1/GPa) = 0.01382800
#
# Stress axis : x y z
#
# Youngs Moduli (GPa) = 97.37350 97.37022 91.84136
#
# Poissons Ratio (x) = 0.12951 0.34300
# Poissons Ratio (y) = 0.12952 0.34305
# Poissons Ratio (z) = 0.36366 0.36370
#
# Static dielectric constant tensor:
#      x y z
#    x 1.603850 0.000000 0.000000 
#    y 0.000000 1.603850 0.000000 
#    z 0.000000 0.000000 1.620620 
# 
# From -- ./inp_files/3150.got.cif
#   From: 2010.05.17/outbox.ucp.g08.bks.cvg/sg166_2_cif.got.tgz:3150.got - 2010.06.11 15:16:39.
