data_PCOD9579808
_publ_section_title
;
Structure prediction by ZEFSAII (Michael W. Deem and Ramdas Pophale) SiO2 
 PCOD9579808
Probable space group: P 61
;
_chemical_formula_sum "Si O2"
_cell_formula_units_Z 36
_cell_length_a 9.200530
_cell_length_b 9.200530
_cell_length_c 25.151826
_cell_angle_alpha 90.000000
_cell_angle_beta 90.000000
_cell_angle_gamma 120.000000
_cell_volume 1843.851085
_symmetry_space_group_name_H-M "P 61"
_symmetry_group_IT_number 169
_symmetry_cell_setting 'hexagonal'
loop_
_space_group_symop_operation_xyz
x,y,z
x-y,x,1/6+z
-y,x-y,1/3+z
-x,-y,1/2+z
-x+y,-x,2/3+z
y,-x+y,5/6+z
loop_
_atom_site_type_symbol
_atom_site_label
_atom_site_fract_x
_atom_site_fract_y
_atom_site_fract_z
Si Si1 0.970161 0.692553 0.341170
Si Si2 0.390853 0.326056 0.983638
Si Si3 0.076565 0.494118 0.953291
Si Si4 0.078571 0.232579 0.039091
Si Si5 0.614116 0.284997 0.618132
Si Si6 0.734825 0.412966 0.160640
O O1 0.938048 0.589699 0.396170
O O2 0.934293 0.842831 0.355042
O O3 0.831206 0.563430 0.300599
O O4 0.151939 0.739660 0.320440
O O5 0.289386 0.228277 0.930849
O O6 0.563335 0.323922 0.983916
O O7 0.434167 0.518720 0.981030
O O8 0.254780 0.239611 0.030583
O O9 0.256357 0.660116 0.959689
O O10 0.900226 0.488236 0.961312
O O11 0.084089 0.372578 0.998502
O O12 0.638483 0.326636 0.555735
#
# Coordination Sequence:
#
# PCOD9579808 Si02
#       6
#     6   6   6   6   6   6
#     4  10  20  36  60  90 117 156 205 251 311 370
#     4  11  19  37  61  87 119 160 206 248 303 378
#     4   9  18  36  59  83 119 157 202 253 302 362
#     4  10  18  35  62  84 119 163 200 246 309 370
#     4  10  21  35  58  92 115 159 206 248 312 378
#     4  10  20  37  60  86 121 157 205 252 301 374
#
# _framework density 19.524352
#
# number of rings (size 3 to 8) (size 9 to 14) (size 15 to 20)
#    0.000    2.000    6.667    0.000    0.000    1.333 
#    0.000    1.667    3.667    0.000    0.000    0.000 
#    0.000    0.000    0.000    0.000    0.000    0.000 
#
# Total GULP energy -200603.578790 kJ/mol
# GULP energy per Si atom -5572.321633 kJ/mol
# Density = 1.947991 g / cm^3
# Si number density = 19.524352 Si / 1000 Ang^3
#
#
#
# Elastic Constant Matrix: (Units=GPa)
#
#
# Indices 1 2 3 4 5 6 
#
# 1 83.0608 25.5278 -13.4128 0.0000 0.0000 0.0000
# 2 25.5278 83.0608 -13.4128 0.0000 0.0000 0.0000
# 3 -13.4128 -13.4128 35.3024 0.0000 0.0000 0.0000
# 4 0.0000 0.0000 0.0000 26.2017 0.0000 0.0000
# 5 0.0000 0.0000 0.0000 0.0000 26.2017 0.0000
# 6 0.0000 0.0000 0.0000 0.0000 0.0000 28.7665
#
#
#
# Elastic Compliance Matrix: (Units=1/GPa)
#
#
# Indices 1 2 3 4 5 6 
#
# 1 0.013772 -0.003609 0.003861 0.000000 0.000000 0.000000
# 2 -0.003609 0.013772 0.003861 0.000000 0.000000 0.000000
# 3 0.003861 0.003861 0.031261 0.000000 0.000000 0.000000
# 4 0.000000 0.000000 0.000000 0.038165 0.000000 0.000000
# 5 0.000000 0.000000 0.000000 0.000000 0.038165 0.000000
# 6 0.000000 0.000000 0.000000 0.000000 0.000000 0.034763
#
#
# Mechanical properties :
#
#
# Convention : Reuss Voigt Hill
#
# Bulk Modulus (GPa) = 14.91823 22.09203 18.50513
# Shear Modulus (GPa) = 27.17156 29.74875 28.46016
#
# Velocity S-wave (km/s) = 3.73456 3.90766 3.82209
# Velocity P-wave (km/s) = 5.12380 5.63023 5.38297
#
# Compressibility (1/GPa) = 0.06703210
#
# Stress axis : x y z
#
# Youngs Moduli (GPa) = 72.61026 72.61026 31.98888
#
# Poissons Ratio (x) = 0.26206 -0.12352
# Poissons Ratio (y) = 0.26206 -0.12352
# Poissons Ratio (z) = -0.28037 -0.28037
#
# Static dielectric constant tensor:
#      x y z
#    x 1.737770 0.000000 0.000000 
#    y 0.000000 1.737770 0.000000 
#    z 0.000000 0.000000 1.699080 
# 
# From -- ./inp_files/1749.got.cif
#   From: 2010.05.17/outbox.cif.g08.bks.cpg/sg169_cif.got.tgz:1749.got - 2010.05.20 11:12:54.
