data_PCOD9579150
_publ_section_title
;
Structure prediction by ZEFSAII (Michael W. Deem and Ramdas Pophale) SiO2 
 PCOD9579150
Probable space group: R -3 M
;
_chemical_formula_sum "Si O2"
_cell_formula_units_Z 144
_cell_length_a 21.403784
_cell_length_b 21.403784
_cell_length_c 17.181233
_cell_angle_alpha 90.000000
_cell_angle_beta 90.000000
_cell_angle_gamma 120.000000
_cell_volume 6816.572816
_symmetry_space_group_name_H-M "R -3 M"
_symmetry_group_IT_number 166
_symmetry_cell_setting 'hexagonal'
loop_
_space_group_symop_operation_xyz
x,y,z
-y,x-y,z
-x+y,-x,z
x-y,-y,-z
-x,-x+y,-z
y,x,-z
-x,-y,-z
y,-x+y,-z
x-y,x,-z
-x+y,y,z
x,x-y,z
-y,-x,z
2/3+x,1/3+y,1/3+z
2/3-y,1/3+x-y,1/3+z
2/3-x+y,1/3-x,1/3+z
2/3+x-y,1/3-y,1/3-z
2/3-x,1/3-x+y,1/3-z
2/3+y,1/3+x,1/3-z
2/3-x,1/3-y,1/3-z
2/3+y,1/3-x+y,1/3-z
2/3+x-y,1/3+x,1/3-z
2/3-x+y,1/3+y,1/3+z
2/3+x,1/3+x-y,1/3+z
2/3-y,1/3-x,1/3+z
1/3+x,2/3+y,2/3+z
1/3-y,2/3+x-y,2/3+z
1/3-x+y,2/3-x,2/3+z
1/3+x-y,2/3-y,2/3-z
1/3-x,2/3-x+y,2/3-z
1/3+y,2/3+x,2/3-z
1/3-x,2/3-y,2/3-z
1/3+y,2/3-x+y,2/3-z
1/3+x-y,2/3+x,2/3-z
1/3-x+y,2/3+y,2/3+z
1/3+x,2/3+x-y,2/3+z
1/3-y,2/3-x,2/3+z
loop_
_atom_site_type_symbol
_atom_site_label
_atom_site_fract_x
_atom_site_fract_y
_atom_site_fract_z
Si Si1 0.982292 0.562133 0.233250
Si Si2 0.580008 0.718964 0.826269
Si Si3 0.387763 0.285863 0.731657
Si Si4 0.522584 0.332148 0.641554
O O1 0.984629 0.492315 0.261811
O O2 0.902573 0.550287 0.225615
O O3 0.031560 0.635452 0.278401
O O4 0.019746 0.584194 0.147347
O O5 0.568496 0.784248 0.798420
O O6 0.666667 0.752865 0.833334
O O7 0.538189 0.691809 0.908584
O O8 0.333334 0.235003 0.666667
O O9 0.468126 0.303210 0.714181
O O10 0.530625 0.265313 0.611801
O O11 0.599473 0.400528 0.661319
#
# Coordination Sequence:
#
# PCOD9579150 Si02
#       4
#    36  36  36  36
#     4  11  21  35  56  84 113 145 193 239 282 345
#     4  10  19  34  54  77 107 141 181 233 287 334
#     4  11  21  36  56  82 114 151 188 236 292 337
#     4  11  22  36  55  80 113 152 190 228 277 341
#
# _framework density 21.124984999999999
#
# number of rings (size 3 to 8) (size 9 to 14) (size 15 to 20)
#    0.000    1.250    5.000    2.500    0.000    1.000 
#    0.000    1.250    0.000    0.500    0.000    8.750 
#    0.000    1.000    0.000    0.000    0.000    0.000 
#
# Total GULP energy -268165.768555 kJ/mol
# GULP energy per Si atom -5586.786845 kJ/mol
# Density = 2.107690 g / cm^3
# Si number density = 21.124985 Si / 1000 Ang^3
#
#
#
# Elastic Constant Matrix: (Units=GPa)
#
#
# Indices 1 2 3 4 5 6 
#
# 1 97.7854 77.9246 22.9563 8.6013 -0.0002 0.0000
# 2 77.9246 97.7854 22.9563 -8.6013 0.0002 0.0000
# 3 22.9563 22.9563 30.1340 0.0000 0.0000 0.0000
# 4 8.6013 -8.6013 0.0000 13.4253 0.0000 0.0002
# 5 -0.0002 0.0002 0.0000 0.0000 13.4253 8.6013
# 6 0.0000 0.0000 0.0000 0.0002 8.6013 9.9304
#
#
#
# Elastic Compliance Matrix: (Units=1/GPa)
#
#
# Indices 1 2 3 4 5 6 
#
# 1 0.060117 -0.053012 -0.005413 -0.072480 0.000002 0.000000
# 2 -0.053012 0.060117 -0.005413 0.072480 -0.000002 0.000000
# 3 -0.005413 -0.005413 0.041433 0.000000 0.000000 0.000000
# 4 -0.072480 0.072480 0.000000 0.167359 0.000000 -0.000004
# 5 0.000002 -0.000002 0.000000 0.000000 0.167359 -0.144959
# 6 0.000000 0.000000 0.000000 -0.000004 -0.144959 0.226259
#
#
# Mechanical properties :
#
#
# Convention : Reuss Voigt Hill
#
# Bulk Modulus (GPa) = 29.41921 52.59771 41.00846
# Shear Modulus (GPa) = 5.80282 14.14739 9.97510
#
# Velocity S-wave (km/s) = 1.65917 2.59066 2.17536
# Velocity P-wave (km/s) = 4.19845 5.82247 5.07583
#
# Compressibility (1/GPa) = 0.03399139
#
# Stress axis : x y z
#
# Youngs Moduli (GPa) = 16.63409 16.63409 24.13555
#
# Poissons Ratio (x) = 0.88180 0.13065
# Poissons Ratio (y) = 0.88180 0.13065
# Poissons Ratio (z) = 0.09004 0.09004
#
# Static dielectric constant tensor:
#      x y z
#    x 1.765530 0.000000 0.000000 
#    y 0.000000 1.765530 0.000000 
#    z 0.000000 0.000000 1.824880 
# 
# From -- ./inp_files/6614.got.cif
#   From: 2010.05.17/outbox.cif.g08.bks.cpg/sg166_4_cif.got.tgz:6614.got - 2010.05.20 11:04:41.
