data_PCOD9579216
_publ_section_title
;
Structure prediction by ZEFSAII (Michael W. Deem and Ramdas Pophale) SiO2 
 PCOD9579216
Probable space group: R -3 M
;
_chemical_formula_sum "Si O2"
_cell_formula_units_Z 162
_cell_length_a 21.296026
_cell_length_b 21.296026
_cell_length_c 22.502021
_cell_angle_alpha 90.000000
_cell_angle_beta 90.000000
_cell_angle_gamma 120.000000
_cell_volume 8837.904290
_symmetry_space_group_name_H-M "R -3 M"
_symmetry_group_IT_number 166
_symmetry_cell_setting 'hexagonal'
loop_
_space_group_symop_operation_xyz
x,y,z
-y,x-y,z
-x+y,-x,z
x-y,-y,-z
-x,-x+y,-z
y,x,-z
-x,-y,-z
y,-x+y,-z
x-y,x,-z
-x+y,y,z
x,x-y,z
-y,-x,z
2/3+x,1/3+y,1/3+z
2/3-y,1/3+x-y,1/3+z
2/3-x+y,1/3-x,1/3+z
2/3+x-y,1/3-y,1/3-z
2/3-x,1/3-x+y,1/3-z
2/3+y,1/3+x,1/3-z
2/3-x,1/3-y,1/3-z
2/3+y,1/3-x+y,1/3-z
2/3+x-y,1/3+x,1/3-z
2/3-x+y,1/3+y,1/3+z
2/3+x,1/3+x-y,1/3+z
2/3-y,1/3-x,1/3+z
1/3+x,2/3+y,2/3+z
1/3-y,2/3+x-y,2/3+z
1/3-x+y,2/3-x,2/3+z
1/3+x-y,2/3-y,2/3-z
1/3-x,2/3-x+y,2/3-z
1/3+y,2/3+x,2/3-z
1/3-x,2/3-y,2/3-z
1/3+y,2/3-x+y,2/3-z
1/3+x-y,2/3+x,2/3-z
1/3-x+y,2/3+y,2/3+z
1/3+x,2/3+x-y,2/3+z
1/3-y,2/3-x,2/3+z
loop_
_atom_site_type_symbol
_atom_site_label
_atom_site_fract_x
_atom_site_fract_y
_atom_site_fract_z
Si Si1 0.060690 0.788707 0.161111
Si Si2 0.667242 0.479805 0.725245
Si Si3 0.459056 0.387936 0.036486
Si Si4 0.235887 0.000000 0.500000
Si Si5 0.816045 0.483288 0.264398
O O1 0.133432 0.866569 0.162574
O O2 0.032168 0.770976 0.228858
O O3 0.084273 0.730490 0.144461
O O4 0.009019 0.797407 0.114407
O O5 0.728788 0.457576 0.719039
O O6 0.589690 0.410311 0.736986
O O7 0.668775 0.523654 0.666692
O O8 0.690038 0.536470 0.779344
O O9 0.534021 0.465979 0.037212
O O10 0.402271 0.402271 0.000000
O O11 0.740872 0.481743 0.253552
O O12 0.804665 0.402333 0.257380
O O13 0.837459 0.504126 0.333334
#
# Coordination Sequence:
#
# PCOD9579216 Si02
#       5
#    36  36  36  18  36
#     4  10  20  36  57  82 112 149 196 240 278 338
#     4  11  22  36  57  86 118 149 190 243 297 349
#     4   9  17  34  56  75 103 148 194 233 280 343
#     4  12  22  36  56  78 110 162 202 232 280 344
#     4   9  18  35  60  88 118 150 187 237 300 362
#
# _framework density 18.330138000000002
#
# number of rings (size 3 to 8) (size 9 to 14) (size 15 to 20)
#    0.000    2.000    2.222    2.444    0.000    1.778 
#    4.000    1.667    0.000    2.667    0.000    0.000 
#    0.000    0.000    0.000    0.000    0.000    0.000 
#
# Total GULP energy -301258.653244 kJ/mol
# GULP energy per Si atom -5578.863949 kJ/mol
# Density = 1.828842 g / cm^3
# Si number density = 18.330138 Si / 1000 Ang^3
#
#
#
# Elastic Constant Matrix: (Units=GPa)
#
#
# Indices 1 2 3 4 5 6 
#
# 1 76.2929 27.9039 42.1818 -3.8766 -0.0001 0.0000
# 2 27.9039 76.2929 42.1818 3.8766 0.0001 0.0000
# 3 42.1818 42.1818 93.5364 0.0000 0.0000 0.0000
# 4 -3.8766 3.8766 0.0000 24.9973 0.0000 0.0001
# 5 -0.0001 0.0001 0.0000 0.0000 24.9973 -3.8766
# 6 0.0000 0.0000 0.0000 0.0001 -3.8766 24.1945
#
#
#
# Elastic Compliance Matrix: (Units=1/GPa)
#
#
# Indices 1 2 3 4 5 6 
#
# 1 0.018155 -0.003038 -0.006817 0.003287 0.000000 0.000000
# 2 -0.003038 0.018155 -0.006817 -0.003287 0.000000 0.000000
# 3 -0.006817 -0.006817 0.016840 0.000000 0.000000 0.000000
# 4 0.003287 -0.003287 0.000000 0.041024 0.000000 0.000000
# 5 0.000000 0.000000 0.000000 0.000000 0.041024 0.006573
# 6 0.000000 0.000000 0.000000 0.000000 0.006573 0.042385
#
#
# Mechanical properties :
#
#
# Convention : Reuss Voigt Hill
#
# Bulk Modulus (GPa) = 50.49340 52.29522 51.39431
# Shear Modulus (GPa) = 22.98565 23.76147 23.37356
#
# Velocity S-wave (km/s) = 3.54500 3.60433 3.57479
# Velocity P-wave (km/s) = 6.66052 6.77593 6.71847
#
# Compressibility (1/GPa) = 0.01980457
#
# Stress axis : x y z
#
# Youngs Moduli (GPa) = 55.08238 55.08238 59.38365
#
# Poissons Ratio (x) = 0.16733 0.40483
# Poissons Ratio (y) = 0.16733 0.40483
# Poissons Ratio (z) = 0.37551 0.37551
#
# Static dielectric constant tensor:
#      x y z
#    x 1.619650 0.000000 0.000000 
#    y 0.000000 1.619650 0.000000 
#    z 0.000000 0.000000 1.654580 
# 
# From -- ./inp_files/6761.got.cif
#   From: 2010.05.17/outbox.cif.g08.bks.cpg/sg166_4_cif.got.tgz:6761.got - 2010.05.20 11:04:41.
