data_PCOD9579199
_publ_section_title
;
Structure prediction by ZEFSAII (Michael W. Deem and Ramdas Pophale) SiO2 
 PCOD9579199
Probable space group: R -3 M
;
_chemical_formula_sum "Si O2"
_cell_formula_units_Z 234
_cell_length_a 27.963497
_cell_length_b 27.963497
_cell_length_c 20.836179
_cell_angle_alpha 90.000000
_cell_angle_beta 90.000000
_cell_angle_gamma 120.000000
_cell_volume 14110.151427
_symmetry_space_group_name_H-M "R -3 M"
_symmetry_group_IT_number 166
_symmetry_cell_setting 'hexagonal'
loop_
_space_group_symop_operation_xyz
x,y,z
-y,x-y,z
-x+y,-x,z
x-y,-y,-z
-x,-x+y,-z
y,x,-z
-x,-y,-z
y,-x+y,-z
x-y,x,-z
-x+y,y,z
x,x-y,z
-y,-x,z
2/3+x,1/3+y,1/3+z
2/3-y,1/3+x-y,1/3+z
2/3-x+y,1/3-x,1/3+z
2/3+x-y,1/3-y,1/3-z
2/3-x,1/3-x+y,1/3-z
2/3+y,1/3+x,1/3-z
2/3-x,1/3-y,1/3-z
2/3+y,1/3-x+y,1/3-z
2/3+x-y,1/3+x,1/3-z
2/3-x+y,1/3+y,1/3+z
2/3+x,1/3+x-y,1/3+z
2/3-y,1/3-x,1/3+z
1/3+x,2/3+y,2/3+z
1/3-y,2/3+x-y,2/3+z
1/3-x+y,2/3-x,2/3+z
1/3+x-y,2/3-y,2/3-z
1/3-x,2/3-x+y,2/3-z
1/3+y,2/3+x,2/3-z
1/3-x,2/3-y,2/3-z
1/3+y,2/3-x+y,2/3-z
1/3+x-y,2/3+x,2/3-z
1/3-x+y,2/3+y,2/3+z
1/3+x,2/3+x-y,2/3+z
1/3-y,2/3-x,2/3+z
loop_
_atom_site_type_symbol
_atom_site_label
_atom_site_fract_x
_atom_site_fract_y
_atom_site_fract_z
Si Si1 0.504286 0.608061 0.428066
Si Si2 0.731596 0.064929 0.166667
Si Si3 0.025073 0.275832 0.067191
Si Si4 0.504636 0.609007 0.848339
Si Si5 0.340335 0.112025 0.738968
Si Si6 0.421268 0.950196 0.294509
Si Si7 0.558761 0.832733 0.176491
O O1 0.442147 0.557854 0.436572
O O2 0.546634 0.594377 0.466181
O O3 0.516009 0.667039 0.454272
O O4 0.520163 0.610645 0.353105
O O5 0.684935 0.050175 0.221199
O O6 0.046488 0.242455 0.110151
O O7 0.076069 0.334408 0.047172
O O8 0.000000 0.246657 0.000000
O O9 0.442854 0.557146 0.852240
O O10 0.544708 0.592316 0.886975
O O11 0.344491 0.172246 0.737310
O O12 0.333334 0.090695 0.666667
O O13 0.395744 0.123028 0.774581
O O14 0.486235 0.972470 0.308291
O O15 0.409154 0.920827 0.226032
O O16 0.544830 0.772415 0.197800
O O17 0.506986 0.840319 0.166667
#
# Coordination Sequence:
#
# PCOD9579199 Si02
#       7
#    36  18  36  36  36  36  36
#     4  10  21  36  53  75 106 142 179 219 268 318
#     4  10  21  34  50  80 104 142 180 214 255 314
#     4  11  20  34  52  79 108 144 182 212 258 314
#     4  10  21  38  56  79 108 140 179 224 269 317
#     4   9  18  33  52  75 103 137 176 217 267 316
#     4  10  20  35  51  72 107 148 181 221 267 313
#     4  10  21  35  52  74 104 142 182 223 266 315
#
# _framework density 16.583805000000002
#
# number of rings (size 3 to 8) (size 9 to 14) (size 15 to 20)
#    0.000    2.000    3.077    0.692    3.231    0.000 
#    0.000    0.769    0.000    0.462    0.000    0.000 
#    0.000    0.615    0.000    0.000    0.000    0.000 
#
# Total GULP energy -435082.671938 kJ/mol
# GULP energy per Si atom -5577.982974 kJ/mol
# Density = 1.654606 g / cm^3
# Si number density = 16.583805 Si / 1000 Ang^3
#
#
#
# Elastic Constant Matrix: (Units=GPa)
#
#
# Indices 1 2 3 4 5 6 
#
# 1 116.0141 7.0687 31.2670 98.2424 -0.0038 0.0000
# 2 7.0687 116.0141 31.2670 -98.2424 0.0038 0.0000
# 3 31.2670 31.2670 113.8780 0.0000 0.0000 0.0000
# 4 98.2424 -98.2424 0.0000 319.1577 0.0000 0.0038
# 5 -0.0038 0.0038 0.0000 0.0000 319.1577 98.2424
# 6 0.0000 0.0000 0.0000 0.0038 98.2424 54.4727
#
#
#
# Elastic Compliance Matrix: (Units=1/GPa)
#
#
# Indices 1 2 3 4 5 6 
#
# 1 0.015038 -0.005596 -0.002592 -0.006351 0.000000 0.000000
# 2 -0.005596 0.015038 -0.002592 0.006351 0.000000 0.000000
# 3 -0.002592 -0.002592 0.010205 0.000000 0.000000 0.000000
# 4 -0.006351 0.006351 0.000000 0.007043 0.000000 0.000000
# 5 0.000000 0.000000 0.000000 0.000000 0.007043 -0.012703
# 6 0.000000 0.000000 0.000000 0.000000 -0.012703 0.041268
#
#
# Mechanical properties :
#
#
# Convention : Reuss Voigt Hill
#
# Bulk Modulus (GPa) = 53.42218 53.90127 53.66172
# Shear Modulus (GPa) = 40.50664 156.97786 98.74225
#
# Velocity S-wave (km/s) = 4.94757 9.73975 7.72468
# Velocity P-wave (km/s) = 8.05738 12.61177 10.58249
#
# Compressibility (1/GPa) = 0.01871882
#
# Stress axis : x y z
#
# Youngs Moduli (GPa) = 66.49902 66.49902 97.99241
#
# Poissons Ratio (x) = 0.37214 0.25403
# Poissons Ratio (y) = 0.37214 0.25403
# Poissons Ratio (z) = 0.17239 0.17239
#
# Static dielectric constant tensor:
#      x y z
#    x 1.576510 0.000000 0.000000 
#    y 0.000000 1.576510 0.000000 
#    z 0.000000 0.000000 1.581900 
# 
# From -- ./inp_files/7234.got.cif
#   From: 2010.05.17/outbox.cif.g08.bks.cpg/sg166_4_cif.got.tgz:7234.got - 2010.05.20 11:04:41.
