data_PCOD9579693
_publ_section_title
;
Structure prediction by ZEFSAII (Michael W. Deem and Ramdas Pophale) SiO2 
 PCOD9579693
Probable space group: R -3 C 
;
_chemical_formula_sum "Si O2"
_cell_formula_units_Z 108
_cell_length_a 19.698461
_cell_length_b 19.698461
_cell_length_c 13.411489
_cell_angle_alpha 90.000000
_cell_angle_beta 90.000000
_cell_angle_gamma 120.000000
_cell_volume 4506.840863
_symmetry_space_group_name_H-M "R -3 C "
_symmetry_group_IT_number 167
_symmetry_cell_setting 'hexagonal'
loop_
_space_group_symop_operation_xyz
x,y,z
-y,x-y,z
-x+y,-x,z
x-y,-y,1/2-z
-x,-x+y,1/2-z
y,x,1/2-z
-x,-y,-z
y,-x+y,-z
x-y,x,-z
-x+y,y,1/2+z
x,x-y,1/2+z
-y,-x,1/2+z
2/3+x,1/3+y,1/3+z
2/3-y,1/3+x-y,1/3+z
2/3-x+y,1/3-x,1/3+z
2/3+x-y,1/3-y,5/6-z
2/3-x,1/3-x+y,5/6-z
2/3+y,1/3+x,5/6-z
2/3-x,1/3-y,1/3-z
2/3+y,1/3-x+y,1/3-z
2/3+x-y,1/3+x,1/3-z
2/3-x+y,1/3+y,5/6+z
2/3+x,1/3+x-y,5/6+z
2/3-y,1/3-x,5/6+z
1/3+x,2/3+y,2/3+z
1/3-y,2/3+x-y,2/3+z
1/3-x+y,2/3-x,2/3+z
1/3+x-y,2/3-y,1/6-z
1/3-x,2/3-x+y,1/6-z
1/3+y,2/3+x,1/6-z
1/3-x,2/3-y,2/3-z
1/3+y,2/3-x+y,2/3-z
1/3+x-y,2/3+x,2/3-z
1/3-x+y,2/3+y,1/6+z
1/3+x,2/3+x-y,1/6+z
1/3-y,2/3-x,1/6+z
loop_
_atom_site_type_symbol
_atom_site_label
_atom_site_fract_x
_atom_site_fract_y
_atom_site_fract_z
Si Si1 0.639855 0.163144 0.827562
Si Si2 0.900788 0.613616 0.167247
Si Si3 0.764043 0.843539 0.716691
O O1 0.574665 0.185613 0.862953
O O2 0.598132 0.104408 0.734861
O O3 0.658019 0.116332 0.911779
O O4 0.966238 0.632904 0.083334
O O5 0.918690 0.691553 0.225299
O O6 0.825353 0.578192 0.093850
O O7 0.841446 0.841446 0.750000
#
# Coordination Sequence:
#
# PCOD9579693 Si02
#       3
#    36  36  36
#     4  12  24  43  71 105 145 187 234 292 356 428
#     4  11  24  44  71 100 138 187 238 293 354 417
#     4  11  24  45  69 100 139 186 237 293 353 414
#
# _framework density 23.963571000000002
#
# number of rings (size 3 to 8) (size 9 to 14) (size 15 to 20)
#    0.000    0.667    6.667    1.333    0.000    2.667 
#    0.000    0.000    0.000    0.000    0.000    0.000 
#    0.000    0.000    0.000    0.000    0.000    0.000 
#
# Total GULP energy -200845.596457 kJ/mol
# GULP energy per Si atom -5579.044346 kJ/mol
# Density = 2.390903 g / cm^3
# Si number density = 23.963571 Si / 1000 Ang^3
#
#
#
# Elastic Constant Matrix: (Units=GPa)
#
#
# Indices 1 2 3 4 5 6 
#
# 1 70.3461 14.7794 46.2433 4.9499 -0.0001 0.0000
# 2 14.7794 70.3461 46.2433 -4.9499 0.0001 0.0000
# 3 46.2433 46.2433 189.1134 0.0000 0.0000 0.0000
# 4 4.9499 -4.9499 0.0000 37.7328 0.0000 0.0001
# 5 -0.0001 0.0001 0.0000 0.0000 37.7328 4.9499
# 6 0.0000 0.0000 0.0000 0.0001 4.9499 27.7834
#
#
#
# Elastic Compliance Matrix: (Units=1/GPa)
#
#
# Indices 1 2 3 4 5 6 
#
# 1 0.017212 -0.001215 -0.003912 -0.002417 0.000000 0.000000
# 2 -0.001215 0.017212 -0.003912 0.002417 0.000000 0.000000
# 3 -0.003912 -0.003912 0.007201 0.000000 0.000000 0.000000
# 4 -0.002417 0.002417 0.000000 0.027136 0.000000 0.000000
# 5 0.000000 0.000000 0.000000 0.000000 0.027136 -0.004835
# 6 0.000000 0.000000 0.000000 0.000000 -0.004835 0.036854
#
#
# Mechanical properties :
#
#
# Convention : Reuss Voigt Hill
#
# Bulk Modulus (GPa) = 42.46541 60.48195 51.47368
# Shear Modulus (GPa) = 31.51025 35.48577 33.49801
#
# Velocity S-wave (km/s) = 3.63012 3.85232 3.74287
# Velocity P-wave (km/s) = 5.94388 6.71424 6.34077
#
# Compressibility (1/GPa) = 0.02354858
#
# Stress axis : x y z
#
# Youngs Moduli (GPa) = 58.09820 58.09820 138.87124
#
# Poissons Ratio (x) = 0.07058 0.54324
# Poissons Ratio (y) = 0.07058 0.54324
# Poissons Ratio (z) = 0.22727 0.22727
#
# Static dielectric constant tensor:
#      x y z
#    x 1.995260 0.000000 0.000000 
#    y 0.000000 1.995260 0.000000 
#    z 0.000000 0.000000 1.962890 
# 
# From -- ./inp_files/1219.got.cif
#   From: 2010.05.17/outbox.cif.g08.bks.cpg/sg167_1_cif.got.tgz:1219.got - 2010.05.20 11:09:15.
