data_PCOD9579228
_publ_section_title
;
Structure prediction by ZEFSAII (Michael W. Deem and Ramdas Pophale) SiO2 
 PCOD9579228
Probable space group: R -3 M
;
_chemical_formula_sum "Si O2"
_cell_formula_units_Z 126
_cell_length_a 26.116718
_cell_length_b 26.116718
_cell_length_c 12.101345
_cell_angle_alpha 90.000000
_cell_angle_beta 90.000000
_cell_angle_gamma 120.000000
_cell_volume 7148.278651
_symmetry_space_group_name_H-M "R -3 M"
_symmetry_group_IT_number 166
_symmetry_cell_setting 'hexagonal'
loop_
_space_group_symop_operation_xyz
x,y,z
-y,x-y,z
-x+y,-x,z
x-y,-y,-z
-x,-x+y,-z
y,x,-z
-x,-y,-z
y,-x+y,-z
x-y,x,-z
-x+y,y,z
x,x-y,z
-y,-x,z
2/3+x,1/3+y,1/3+z
2/3-y,1/3+x-y,1/3+z
2/3-x+y,1/3-x,1/3+z
2/3+x-y,1/3-y,1/3-z
2/3-x,1/3-x+y,1/3-z
2/3+y,1/3+x,1/3-z
2/3-x,1/3-y,1/3-z
2/3+y,1/3-x+y,1/3-z
2/3+x-y,1/3+x,1/3-z
2/3-x+y,1/3+y,1/3+z
2/3+x,1/3+x-y,1/3+z
2/3-y,1/3-x,1/3+z
1/3+x,2/3+y,2/3+z
1/3-y,2/3+x-y,2/3+z
1/3-x+y,2/3-x,2/3+z
1/3+x-y,2/3-y,2/3-z
1/3-x,2/3-x+y,2/3-z
1/3+y,2/3+x,2/3-z
1/3-x,2/3-y,2/3-z
1/3+y,2/3-x+y,2/3-z
1/3+x-y,2/3+x,2/3-z
1/3-x+y,2/3+y,2/3+z
1/3+x,2/3+x-y,2/3+z
1/3-y,2/3-x,2/3+z
loop_
_atom_site_type_symbol
_atom_site_label
_atom_site_fract_x
_atom_site_fract_y
_atom_site_fract_z
Si Si1 0.118134 0.000000 0.500000
Si Si2 0.043934 0.207166 0.702996
Si Si3 0.209420 0.165980 0.909019
Si Si4 0.896977 0.671691 0.040042
O O1 0.111094 0.055547 0.530146
O O2 0.161496 0.017754 0.396350
O O3 0.103825 0.207650 0.744593
O O4 0.065928 0.273244 0.659506
O O5 0.995757 0.189492 0.798980
O O6 0.207086 0.103543 0.892563
O O7 0.162777 0.162777 0.000000
O O8 0.273501 0.212432 0.962345
O O9 0.839838 0.679675 0.050919
O O10 0.914713 0.666667 0.166667
#
# Coordination Sequence:
#
# PCOD9579228 Si02
#       4
#    18  36  36  36
#     4  10  21  38  60  84 116 158 201 238 280 338
#     4  10  20  37  58  81 111 150 193 237 285 341
#     4  11  20  32  55  84 112 144 186 232 284 342
#     4   9  17  32  53  76 104 142 182 223 277 343
#
# _framework density 17.626621
#
# number of rings (size 3 to 8) (size 9 to 14) (size 15 to 20)
#    0.000    2.000    2.857    1.857    0.000    0.000 
#    0.000    4.286    0.000   13.714    0.000    0.000 
#    0.000    0.000    0.000    0.000    0.000    0.000 
#
# Total GULP energy -233946.874475 kJ/mol
# GULP energy per Si atom -5570.163678 kJ/mol
# Density = 1.758650 g / cm^3
# Si number density = 17.626621 Si / 1000 Ang^3
#
#
#
# Elastic Constant Matrix: (Units=GPa)
#
#
# Indices 1 2 3 4 5 6 
#
# 1 115.7480 66.3664 49.8237 -0.9762 -0.0001 -0.0001
# 2 66.3664 115.7481 49.8239 0.9761 -0.0001 0.0000
# 3 49.8237 49.8239 67.6569 0.0000 -0.0004 -0.0003
# 4 -0.9762 0.9761 0.0000 30.7050 0.0000 -0.0001
# 5 -0.0001 -0.0001 -0.0004 0.0000 30.7048 -0.9762
# 6 -0.0001 0.0000 -0.0003 -0.0001 -0.9762 24.6908
#
#
#
# Elastic Compliance Matrix: (Units=1/GPa)
#
#
# Indices 1 2 3 4 5 6 
#
# 1 0.014736 -0.005539 -0.006773 0.000645 0.000000 0.000000
# 2 -0.005539 0.014736 -0.006773 -0.000645 0.000000 0.000000
# 3 -0.006773 -0.006773 0.024756 0.000000 0.000000 0.000000
# 4 0.000645 -0.000645 0.000000 0.032609 0.000000 0.000000
# 5 0.000000 0.000000 0.000000 0.000000 0.032609 0.001289
# 6 0.000000 0.000000 0.000000 0.000000 0.001289 0.040552
#
#
# Mechanical properties :
#
#
# Convention : Reuss Voigt Hill
#
# Bulk Modulus (GPa) = 62.27280 70.13122 66.20201
# Shear Modulus (GPa) = 24.56742 26.09605 25.33174
#
# Velocity S-wave (km/s) = 3.73737 3.85189 3.79506
# Velocity P-wave (km/s) = 7.35047 7.72374 7.53942
#
# Compressibility (1/GPa) = 0.01605838
#
# Stress axis : x y z
#
# Youngs Moduli (GPa) = 67.85918 67.85901 40.39472
#
# Poissons Ratio (x) = 0.37590 0.27358
# Poissons Ratio (y) = 0.37590 0.27359
# Poissons Ratio (z) = 0.45959 0.45960
#
# Static dielectric constant tensor:
#      x y z
#    x 1.622280 0.000000 0.000000 
#    y 0.000000 1.622280 0.000000 
#    z 0.000000 0.000000 1.596410 
# 
# From -- ./inp_files/2841.got.cif
#   From: 2010.05.17/outbox.cif.g08.bks.cpg/sg166_2_cif.got.tgz:2841.got - 2010.05.20 11:04:41.
