data_PCOD9579683
_publ_section_title
;
Structure prediction by ZEFSAII (Michael W. Deem and Ramdas Pophale) SiO2 
 PCOD9579683
Probable space group: R -3 C 
;
_chemical_formula_sum "Si O2"
_cell_formula_units_Z 84
_cell_length_a 14.119587
_cell_length_b 14.119587
_cell_length_c 19.546201
_cell_angle_alpha 90.000000
_cell_angle_beta 90.000000
_cell_angle_gamma 120.000000
_cell_volume 3374.714050
_symmetry_space_group_name_H-M "R -3 C "
_symmetry_group_IT_number 167
_symmetry_cell_setting 'hexagonal'
loop_
_space_group_symop_operation_xyz
x,y,z
-y,x-y,z
-x+y,-x,z
x-y,-y,1/2-z
-x,-x+y,1/2-z
y,x,1/2-z
-x,-y,-z
y,-x+y,-z
x-y,x,-z
-x+y,y,1/2+z
x,x-y,1/2+z
-y,-x,1/2+z
2/3+x,1/3+y,1/3+z
2/3-y,1/3+x-y,1/3+z
2/3-x+y,1/3-x,1/3+z
2/3+x-y,1/3-y,5/6-z
2/3-x,1/3-x+y,5/6-z
2/3+y,1/3+x,5/6-z
2/3-x,1/3-y,1/3-z
2/3+y,1/3-x+y,1/3-z
2/3+x-y,1/3+x,1/3-z
2/3-x+y,1/3+y,5/6+z
2/3+x,1/3+x-y,5/6+z
2/3-y,1/3-x,5/6+z
1/3+x,2/3+y,2/3+z
1/3-y,2/3+x-y,2/3+z
1/3-x+y,2/3-x,2/3+z
1/3+x-y,2/3-y,1/6-z
1/3-x,2/3-x+y,1/6-z
1/3+y,2/3+x,1/6-z
1/3-x,2/3-y,2/3-z
1/3+y,2/3-x+y,2/3-z
1/3+x-y,2/3+x,2/3-z
1/3-x+y,2/3+y,1/6+z
1/3+x,2/3+x-y,1/6+z
1/3-y,2/3-x,1/6+z
loop_
_atom_site_type_symbol
_atom_site_label
_atom_site_fract_x
_atom_site_fract_y
_atom_site_fract_z
Si Si1 0.666667 0.333334 0.666177
Si Si2 0.793410 0.667219 0.242390
Si Si3 0.905507 0.472654 0.707504
O O1 0.666668 0.333334 0.583334
O O2 0.787367 0.369356 0.693647
O O3 0.758662 0.758662 0.250000
O O4 0.833334 0.666667 0.166667
O O5 0.884691 0.701507 0.300786
O O6 0.677708 0.555248 0.248089
O O7 0.000000 0.466300 0.750000
#
# Coordination Sequence:
#
# PCOD9579683 Si02
#       3
#    12  36  36
#     4  12  24  48  79 104 142 204 250 284 361 462
#     4  11  23  42  67  97 138 186 236 291 354 427
#     4  11  26  44  70 107 145 186 242 305 361 423
#
# _framework density 24.890998
#
# number of rings (size 3 to 8) (size 9 to 14) (size 15 to 20)
#    0.000    0.857    0.000    7.714    0.000   13.714 
#    0.000    2.143    0.000    0.000    0.000    0.000 
#    0.000    0.000    0.000    0.000    0.000    0.000 
#
# Total GULP energy -156412.427801 kJ/mol
# GULP energy per Si atom -5586.158136 kJ/mol
# Density = 2.483435 g / cm^3
# Si number density = 24.890998 Si / 1000 Ang^3
#
#
#
# Elastic Constant Matrix: (Units=GPa)
#
#
# Indices 1 2 3 4 5 6 
#
# 1 112.0637 40.8796 42.4727 22.0590 -0.0006 0.0000
# 2 40.8796 112.0621 42.4723 -22.0587 0.0005 -0.0001
# 3 42.4727 42.4723 129.2511 0.0002 0.0000 -0.0001
# 4 22.0590 -22.0587 0.0002 38.7265 0.0000 0.0003
# 5 -0.0006 0.0005 0.0000 0.0000 38.7260 22.0592
# 6 0.0000 -0.0001 -0.0001 0.0003 22.0592 35.5923
#
#
#
# Elastic Compliance Matrix: (Units=1/GPa)
#
#
# Indices 1 2 3 4 5 6 
#
# 1 0.014856 -0.006858 -0.002628 -0.012368 0.000000 0.000000
# 2 -0.006858 0.014856 -0.002628 0.012368 0.000000 0.000000
# 3 -0.002628 -0.002628 0.009464 0.000000 0.000000 0.000000
# 4 -0.012368 0.012368 0.000000 0.039912 0.000000 0.000000
# 5 0.000000 0.000000 0.000000 0.000000 0.039913 -0.024737
# 6 0.000000 0.000000 0.000000 0.000000 -0.024737 0.043428
#
#
# Mechanical properties :
#
#
# Convention : Reuss Voigt Hill
#
# Bulk Modulus (GPa) = 66.90061 67.22511 67.06286
# Shear Modulus (GPa) = 26.09054 37.77911 31.93483
#
# Velocity S-wave (km/s) = 3.24109 3.90010 3.58577
# Velocity P-wave (km/s) = 6.39859 6.88095 6.64415
#
# Compressibility (1/GPa) = 0.01494755
#
# Stress axis : x y z
#
# Youngs Moduli (GPa) = 67.31348 67.31249 105.66163
#
# Poissons Ratio (x) = 0.46162 0.27770
# Poissons Ratio (y) = 0.46163 0.27770
# Poissons Ratio (z) = 0.17691 0.17691
#
# Static dielectric constant tensor:
#      x y z
#    x 2.022140 0.000000 0.000000 
#    y 0.000000 2.022140 0.000000 
#    z 0.000000 0.000000 2.012390 
# 
# From -- ./inp_files/1878.got.cif
#   From: 2010.05.17/outbox.cif.g08.bks.cpg/sg167_1_cif.got.tgz:1878.got - 2010.05.20 11:09:15.
