data_PCOD9579834
_publ_section_title
;
Structure prediction by ZEFSAII (Michael W. Deem and Ramdas Pophale) SiO2 
 PCOD9579834
Probable space group: P 61
;
_chemical_formula_sum "Si O2"
_cell_formula_units_Z 36
_cell_length_a 20.083631
_cell_length_b 20.083631
_cell_length_c 5.902658
_cell_angle_alpha 90.000000
_cell_angle_beta 90.000000
_cell_angle_gamma 120.000000
_cell_volume 2061.876835
_symmetry_space_group_name_H-M "P 61"
_symmetry_group_IT_number 169
_symmetry_cell_setting 'hexagonal'
loop_
_space_group_symop_operation_xyz
x,y,z
x-y,x,1/6+z
-y,x-y,1/3+z
-x,-y,1/2+z
-x+y,-x,2/3+z
y,-x+y,5/6+z
loop_
_atom_site_type_symbol
_atom_site_label
_atom_site_fract_x
_atom_site_fract_y
_atom_site_fract_z
Si Si1 0.020189 0.649868 0.787990
Si Si2 0.534979 0.679137 0.726399
Si Si3 0.523924 0.450509 0.559663
Si Si4 0.654442 0.596661 0.130849
Si Si5 0.472628 0.766135 0.976393
Si Si6 0.578462 0.351324 0.843743
O O1 0.040788 0.581382 0.754643
O O2 0.042835 0.687341 0.534704
O O3 0.928988 0.614232 0.822658
O O4 0.054894 0.684358 0.039757
O O5 0.530237 0.734207 0.913621
O O6 0.490752 0.688515 0.519591
O O7 0.485425 0.592254 0.821491
O O8 0.436109 0.427248 0.619325
O O9 0.557481 0.408763 0.713546
O O10 0.667810 0.524888 0.161785
O O11 0.406865 0.747731 0.793147
O O12 0.427675 0.717990 0.196103
#
# Coordination Sequence:
#
# PCOD9579834 Si02
#       6
#     6   6   6   6   6   6
#     4  11  20  35  59  77  92 120 176 214 249 305
#     4  10  23  35  53  77  99 128 161 222 274 323
#     4  10  19  35  58  76  91 121 183 220 246 312
#     4  11  21  35  59  79  92 125 170 222 252 315
#     4  11  25  38  54  74 107 137 167 215 290 352
#     4  11  22  40  53  71 103 137 169 209 281 349
#
# _framework density 17.459821000000002
#
# number of rings (size 3 to 8) (size 9 to 14) (size 15 to 20)
#    0.000    1.333    3.333    4.000    2.333    4.000 
#    0.000    0.000    0.000    0.000    0.000    0.000 
#    0.000    0.000    0.000    0.000    0.000    0.000 
#
# Total GULP energy -200627.406357 kJ/mol
# GULP energy per Si atom -5572.983510 kJ/mol
# Density = 1.742008 g / cm^3
# Si number density = 17.459821 Si / 1000 Ang^3
#
#
#
# Elastic Constant Matrix: (Units=GPa)
#
#
# Indices 1 2 3 4 5 6 
#
# 1 51.4374 32.2927 24.2505 0.0000 0.0000 0.0000
# 2 32.2927 51.4374 24.2505 0.0000 0.0000 0.0000
# 3 24.2505 24.2505 124.2908 0.0000 0.0000 0.0000
# 4 0.0000 0.0000 0.0000 25.0909 0.0000 0.0000
# 5 0.0000 0.0000 0.0000 0.0000 25.0909 0.0000
# 6 0.0000 0.0000 0.0000 0.0000 0.0000 9.5723
#
#
#
# Elastic Compliance Matrix: (Units=1/GPa)
#
#
# Indices 1 2 3 4 5 6 
#
# 1 0.032849 -0.019385 -0.002627 0.000000 0.000000 0.000000
# 2 -0.019385 0.032849 -0.002627 0.000000 0.000000 0.000000
# 3 -0.002627 -0.002627 0.009071 0.000000 0.000000 0.000000
# 4 0.000000 0.000000 0.000000 0.039855 0.000000 0.000000
# 5 0.000000 0.000000 0.000000 0.000000 0.039855 0.000000
# 6 0.000000 0.000000 0.000000 0.000000 0.000000 0.104468
#
#
# Mechanical properties :
#
#
# Convention : Reuss Voigt Hill
#
# Bulk Modulus (GPa) = 39.22790 43.19476 41.21133
# Shear Modulus (GPa) = 15.78667 21.70894 18.74781
#
# Velocity S-wave (km/s) = 3.01021 3.52996 3.28040
# Velocity P-wave (km/s) = 5.88201 6.43486 6.16464
#
# Compressibility (1/GPa) = 0.02549206
#
# Stress axis : x y z
#
# Youngs Moduli (GPa) = 30.44191 30.44191 110.24358
#
# Poissons Ratio (x) = 0.59010 0.28963
# Poissons Ratio (y) = 0.59010 0.28963
# Poissons Ratio (z) = 0.07998 0.07998
#
# Static dielectric constant tensor:
#      x y z
#    x 1.613020 0.000000 0.000000 
#    y 0.000000 1.613020 0.000000 
#    z 0.000000 0.000000 1.788950 
# 
# From -- ./inp_files/254.got.cif
#   From: 2010.05.17/outbox.cif.g08.bks.cpg/sg169_cif.got.tgz:254.got - 2010.05.20 11:12:54.
