data_PCOD9579751
_publ_section_title
;
Structure prediction by ZEFSAII (Michael W. Deem and Ramdas Pophale) SiO2 
 PCOD9579751
Probable space group: P 6
;
_chemical_formula_sum "Si O2"
_cell_formula_units_Z 48
_cell_length_a 19.215555
_cell_length_b 19.215555
_cell_length_c 9.697455
_cell_angle_alpha 90.000000
_cell_angle_beta 90.000000
_cell_angle_gamma 120.000000
_cell_volume 3100.946475
_symmetry_space_group_name_H-M "P 6"
_symmetry_group_IT_number 168
_symmetry_cell_setting 'hexagonal'
loop_
_space_group_symop_operation_xyz
x,y,z
x-y,x,z
-y,x-y,z
-x,-y,z
-x+y,-x,z
y,-x+y,z
loop_
_atom_site_type_symbol
_atom_site_label
_atom_site_fract_x
_atom_site_fract_y
_atom_site_fract_z
Si Si1 0.373320 0.904374 0.632010
Si Si2 0.251390 0.343123 0.161226
Si Si3 0.468946 0.095626 0.632010
Si Si4 0.170704 0.666628 0.332264
Si Si5 0.908160 0.659748 0.832233
Si Si6 0.343123 0.251390 0.161226
Si Si7 0.504076 0.333372 0.332264
Si Si8 0.659748 0.908160 0.832233
O O1 0.443479 0.886957 0.679764
O O2 0.306776 0.886943 0.746211
O O3 0.337347 0.856978 0.490547
O O4 0.417617 1.000000 0.601901
O O5 0.308959 0.426492 0.238259
O O6 0.278006 0.278006 0.196699
O O7 0.159886 0.319771 0.196123
O O8 0.260468 0.355929 0.996143
O O9 0.480369 0.143022 0.490547
O O10 0.419833 0.113057 0.746211
O O11 0.160833 0.580417 0.298141
O O12 0.262519 0.737481 0.317342
O O13 0.843037 0.686074 0.799797
O O14 1.000000 0.725180 0.798671
O O15 0.904539 0.644071 0.996143
O O16 0.426492 0.308959 0.238259
#
# Coordination Sequence:
#
# PCOD9579751 Si02
#       8
#     6   6   6   6   6   6   6   6
#     4   9  17  28  43  64  88 114 146 183 217 250
#     4   9  18  31  47  66  87 113 144 179 218 260
#     4   9  17  28  43  64  88 114 146 183 217 250
#     4  10  19  30  44  63  89 119 150 182 216 253
#     4   9  17  30  47  66  88 114 145 179 216 258
#     4   9  18  31  47  66  87 113 144 179 218 260
#     4  10  19  30  44  63  89 119 150 182 216 253
#     4   9  17  30  47  66  88 114 145 179 216 258
#
# _framework density 15.479145000000001
#
# number of rings (size 3 to 8) (size 9 to 14) (size 15 to 20)
#    0.000    2.750    0.000    1.750    0.000    2.500 
#    0.000    2.500    0.000    1.000    0.000    3.500 
#    0.000    0.000    0.000    8.000    0.000   11.000 
#
# Total GULP energy -267359.500520 kJ/mol
# GULP energy per Si atom -5569.989594 kJ/mol
# Density = 1.544391 g / cm^3
# Si number density = 15.479145 Si / 1000 Ang^3
#
#
#
# Elastic Constant Matrix: (Units=GPa)
#
#
# Indices 1 2 3 4 5 6 
#
# 1 106.7838 74.7274 41.9237 0.0000 0.0000 0.0000
# 2 74.7274 106.7838 41.9237 0.0000 0.0000 0.0000
# 3 41.9237 41.9237 29.5222 0.0000 0.0000 0.0000
# 4 0.0000 0.0000 0.0000 23.1218 0.0000 0.0000
# 5 0.0000 0.0000 0.0000 0.0000 23.1218 0.0000
# 6 0.0000 0.0000 0.0000 0.0000 0.0000 16.0282
#
#
#
# Elastic Compliance Matrix: (Units=1/GPa)
#
#
# Indices 1 2 3 4 5 6 
#
# 1 0.023605 -0.007590 -0.022742 0.000000 0.000000 0.000000
# 2 -0.007590 0.023605 -0.022742 0.000000 0.000000 0.000000
# 3 -0.022742 -0.022742 0.098465 0.000000 0.000000 0.000000
# 4 0.000000 0.000000 0.000000 0.043249 0.000000 0.000000
# 5 0.000000 0.000000 0.000000 0.000000 0.043249 0.000000
# 6 0.000000 0.000000 0.000000 0.000000 0.000000 0.062390
#
#
# Mechanical properties :
#
#
# Convention : Reuss Voigt Hill
#
# Bulk Modulus (GPa) = 25.30052 62.24882 43.77467
# Shear Modulus (GPa) = 12.08055 18.08867 15.08461
#
# Velocity S-wave (km/s) = 2.79667 3.42216 3.12510
# Velocity P-wave (km/s) = 5.17773 7.47776 6.43140
#
# Compressibility (1/GPa) = 0.03952488
#
# Stress axis : x y z
#
# Youngs Moduli (GPa) = 42.36389 42.36389 10.15592
#
# Poissons Ratio (x) = 0.32154 0.23097
# Poissons Ratio (y) = 0.32154 0.23097
# Poissons Ratio (z) = 0.96346 0.96346
#
# Static dielectric constant tensor:
#      x y z
#    x 1.512770 0.000000 0.000000 
#    y 0.000000 1.512770 0.000000 
#    z 0.000000 0.000000 1.499110 
# 
# From -- ./inp_files/338.got.cif
#   From: 2010.05.17/outbox.cif.g08.bks.cpg/sg168_cif.got.tgz:338.got - 2010.05.20 11:12:33.
