data_PCOD9579789
_publ_section_title
;
Structure prediction by ZEFSAII (Michael W. Deem and Ramdas Pophale) SiO2 
 PCOD9579789
Probable space group: P 61
;
_chemical_formula_sum "Si O2"
_cell_formula_units_Z 48
_cell_length_a 19.813690
_cell_length_b 19.813690
_cell_length_c 8.658510
_cell_angle_alpha 90.000000
_cell_angle_beta 90.000000
_cell_angle_gamma 120.000000
_cell_volume 2943.774387
_symmetry_space_group_name_H-M "P 61"
_symmetry_group_IT_number 169
_symmetry_cell_setting 'hexagonal'
loop_
_space_group_symop_operation_xyz
x,y,z
x-y,x,1/6+z
-y,x-y,1/3+z
-x,-y,1/2+z
-x+y,-x,2/3+z
y,-x+y,5/6+z
loop_
_atom_site_type_symbol
_atom_site_label
_atom_site_fract_x
_atom_site_fract_y
_atom_site_fract_z
Si Si1 0.886941 0.541428 0.762360
Si Si2 0.604937 0.973227 0.234796
Si Si3 0.256446 0.449168 0.797242
Si Si4 0.448428 0.964934 0.202588
Si Si5 0.101398 0.443691 0.804881
Si Si6 0.714071 0.344560 0.052256
Si Si7 0.749284 0.507164 0.956292
Si Si8 0.420186 0.564304 0.337321
O O1 0.823902 0.555702 0.848654
O O2 0.846102 0.475084 0.631086
O O3 0.961965 0.618503 0.695274
O O4 0.923989 0.503320 0.872726
O O5 0.602029 0.892601 0.203531
O O6 0.515611 0.950294 0.268486
O O7 0.628551 0.026894 0.081544
O O8 0.165425 0.418352 0.826120
O O9 0.304442 0.537711 0.863693
O O10 0.264171 0.455187 0.609899
O O11 0.370955 0.931525 0.302878
O O12 0.491353 0.057710 0.188760
O O13 0.144282 0.535553 0.849956
O O14 0.655622 0.315619 0.898002
O O15 0.760592 0.436831 0.020260
O O16 0.670093 0.467950 0.857911
#
# Coordination Sequence:
#
# PCOD9579789 Si02
#       8
#     6   6   6   6   6   6   6   6
#     4  10  19  34  48  67  97 120 162 215 257 316
#     4  10  21  35  49  68  97 130 162 214 266 315
#     4  11  21  33  53  69  95 137 170 215 269 321
#     4  10  17  35  49  68  93 124 169 201 257 307
#     4  10  20  34  50  73  94 127 176 203 251 325
#     4  10  21  33  48  73 107 130 169 226 283 326
#     4  11  19  32  49  69  98 126 165 217 270 311
#     4  10  20  32  48  71  93 130 157 215 255 311
#
# _framework density 16.305598
#
# number of rings (size 3 to 8) (size 9 to 14) (size 15 to 20)
#    0.000    2.000    1.250    7.500    1.750    1.000 
#   11.250    0.000    0.000    0.000    0.000    0.000 
#    0.000    0.000    0.000    0.000    9.500    0.000 
#
# Total GULP energy -267494.269202 kJ/mol
# GULP energy per Si atom -5572.797275 kJ/mol
# Density = 1.626849 g / cm^3
# Si number density = 16.305598 Si / 1000 Ang^3
#
#
#
# Elastic Constant Matrix: (Units=GPa)
#
#
# Indices 1 2 3 4 5 6 
#
# 1 72.4685 33.5122 12.6329 0.0000 0.0000 0.0000
# 2 33.5122 72.4685 12.6329 0.0000 0.0000 0.0000
# 3 12.6329 12.6329 41.7356 0.0000 0.0000 0.0000
# 4 0.0000 0.0000 0.0000 19.2334 0.0000 0.0000
# 5 0.0000 0.0000 0.0000 0.0000 19.2334 0.0000
# 6 0.0000 0.0000 0.0000 0.0000 0.0000 19.4781
#
#
#
# Elastic Compliance Matrix: (Units=1/GPa)
#
#
# Indices 1 2 3 4 5 6 
#
# 1 0.017920 -0.007750 -0.003078 0.000000 0.000000 0.000000
# 2 -0.007750 0.017920 -0.003078 0.000000 0.000000 0.000000
# 3 -0.003078 -0.003078 0.025824 0.000000 0.000000 0.000000
# 4 0.000000 0.000000 0.000000 0.051993 0.000000 0.000000
# 5 0.000000 0.000000 0.000000 0.000000 0.051993 0.000000
# 6 0.000000 0.000000 0.000000 0.000000 0.000000 0.051340
#
#
# Mechanical properties :
#
#
# Convention : Reuss Voigt Hill
#
# Bulk Modulus (GPa) = 29.54205 33.80320 31.67262
# Shear Modulus (GPa) = 19.52476 20.11528 19.82002
#
# Velocity S-wave (km/s) = 3.46414 3.51614 3.49023
# Velocity P-wave (km/s) = 5.84443 6.10412 5.97569
#
# Compressibility (1/GPa) = 0.03385006
#
# Stress axis : x y z
#
# Youngs Moduli (GPa) = 55.80458 55.80458 38.72391
#
# Poissons Ratio (x) = 0.43249 0.11920
# Poissons Ratio (y) = 0.43249 0.11920
# Poissons Ratio (z) = 0.17178 0.17178
#
# Static dielectric constant tensor:
#      x y z
#    x 1.562610 0.000000 0.000000 
#    y 0.000000 1.562610 0.000000 
#    z 0.000000 0.000000 1.660130 
# 
# From -- ./inp_files/816.got.cif
#   From: 2010.05.17/outbox.cif.g08.bks.cpg/sg169_cif.got.tgz:816.got - 2010.05.20 11:12:54.
