data_PCOD9579535
_publ_section_title
;
Structure prediction by ZEFSAII (Michael W. Deem and Ramdas Pophale) SiO2 
 PCOD9579535
Probable space group: R -3 C 
;
_chemical_formula_sum "Si O2"
_cell_formula_units_Z 216
_cell_length_a 22.127978
_cell_length_b 22.127978
_cell_length_c 23.711931
_cell_angle_alpha 90.000000
_cell_angle_beta 90.000000
_cell_angle_gamma 120.000000
_cell_volume 10054.975488
_symmetry_space_group_name_H-M "R -3 C "
_symmetry_group_IT_number 167
_symmetry_cell_setting 'hexagonal'
loop_
_space_group_symop_operation_xyz
x,y,z
-y,x-y,z
-x+y,-x,z
x-y,-y,1/2-z
-x,-x+y,1/2-z
y,x,1/2-z
-x,-y,-z
y,-x+y,-z
x-y,x,-z
-x+y,y,1/2+z
x,x-y,1/2+z
-y,-x,1/2+z
2/3+x,1/3+y,1/3+z
2/3-y,1/3+x-y,1/3+z
2/3-x+y,1/3-x,1/3+z
2/3+x-y,1/3-y,5/6-z
2/3-x,1/3-x+y,5/6-z
2/3+y,1/3+x,5/6-z
2/3-x,1/3-y,1/3-z
2/3+y,1/3-x+y,1/3-z
2/3+x-y,1/3+x,1/3-z
2/3-x+y,1/3+y,5/6+z
2/3+x,1/3+x-y,5/6+z
2/3-y,1/3-x,5/6+z
1/3+x,2/3+y,2/3+z
1/3-y,2/3+x-y,2/3+z
1/3-x+y,2/3-x,2/3+z
1/3+x-y,2/3-y,1/6-z
1/3-x,2/3-x+y,1/6-z
1/3+y,2/3+x,1/6-z
1/3-x,2/3-y,2/3-z
1/3+y,2/3-x+y,2/3-z
1/3+x-y,2/3+x,2/3-z
1/3-x+y,2/3+y,1/6+z
1/3+x,2/3+x-y,1/6+z
1/3-y,2/3-x,1/6+z
loop_
_atom_site_type_symbol
_atom_site_label
_atom_site_fract_x
_atom_site_fract_y
_atom_site_fract_z
Si Si1 0.679391 0.148376 0.452118
Si Si2 0.407037 0.183931 0.379124
Si Si3 0.690190 0.608913 0.739643
Si Si4 0.989465 0.434050 0.536289
Si Si5 0.293318 0.130061 0.803569
Si Si6 0.285630 0.758788 0.198332
O O1 0.739585 0.172668 0.404627
O O2 0.623578 0.065756 0.453814
O O3 0.725342 0.166920 0.509536
O O4 0.643138 0.192293 0.429194
O O5 0.431691 0.134201 0.408190
O O6 0.327060 0.150999 0.359971
O O7 0.446524 0.198184 0.318979
O O8 0.655651 0.655651 0.750000
O O9 0.705369 0.611490 0.673334
O O10 0.762077 0.649856 0.775846
O O11 0.952032 0.438659 0.592473
O O12 0.000000 0.500000 0.500000
O O13 0.346265 0.778640 0.151841
#
# Coordination Sequence:
#
# PCOD9579535 Si02
#       6
#    36  36  36  36  36  36
#     4  11  21  40  59  92 129 177 215 273 339 403
#     4  11  23  37  60  94 131 170 213 276 334 402
#     4  11  21  39  60  90 127 174 223 269 330 407
#     4  10  23  39  64  91 128 175 222 272 335 408
#     4  11  22  39  62  92 132 178 221 270 344 406
#     4  10  21  38  64  94 130 167 216 274 343 408
#
# _framework density 21.481901000000001
#
# number of rings (size 3 to 8) (size 9 to 14) (size 15 to 20)
#    0.000    1.333    3.333    3.667    2.333    0.000 
#    0.000    3.333    0.000    0.000    0.000    0.000 
#    0.000    0.000    0.000    0.000    0.000    0.000 
#
# Total GULP energy -401001.424733 kJ/mol
# GULP energy per Si atom -5569.464232 kJ/mol
# Density = 2.143301 g / cm^3
# Si number density = 21.481901 Si / 1000 Ang^3
#
#
#
# Elastic Constant Matrix: (Units=GPa)
#
#
# Indices 1 2 3 4 5 6 
#
# 1 91.8250 32.2666 40.0076 8.9002 0.0000 0.0000
# 2 32.2666 91.8250 40.0076 -8.9002 0.0000 0.0000
# 3 40.0076 40.0076 102.0275 0.0000 0.0000 0.0000
# 4 8.9002 -8.9002 0.0000 50.1996 0.0000 0.0000
# 5 0.0000 0.0000 0.0000 0.0000 50.1996 8.9002
# 6 0.0000 0.0000 0.0000 0.0000 8.9002 29.7792
#
#
#
# Elastic Compliance Matrix: (Units=1/GPa)
#
#
# Indices 1 2 3 4 5 6 
#
# 1 0.014258 -0.003472 -0.004229 -0.003143 0.000000 0.000000
# 2 -0.003472 0.014258 -0.004229 0.003143 0.000000 0.000000
# 3 -0.004229 -0.004229 0.013118 0.000000 0.000000 0.000000
# 4 -0.003143 0.003143 0.000000 0.021035 0.000000 0.000000
# 5 0.000000 0.000000 0.000000 0.000000 0.021035 -0.006287
# 6 0.000000 0.000000 0.000000 0.000000 -0.006287 0.035459
#
#
# Mechanical properties :
#
#
# Convention : Reuss Voigt Hill
#
# Bulk Modulus (GPa) = 56.26787 56.69347 56.48067
# Shear Modulus (GPa) = 33.56861 37.59540 35.58200
#
# Velocity S-wave (km/s) = 3.95732 4.18795 4.07427
# Velocity P-wave (km/s) = 6.86517 7.05931 6.96292
#
# Compressibility (1/GPa) = 0.01777213
#
# Stress axis : x y z
#
# Youngs Moduli (GPa) = 70.13752 70.13752 76.23023
#
# Poissons Ratio (x) = 0.24352 0.32240
# Poissons Ratio (y) = 0.24352 0.32240
# Poissons Ratio (z) = 0.29664 0.29664
#
# Static dielectric constant tensor:
#      x y z
#    x 1.865520 0.000000 0.000000 
#    y 0.000000 1.865520 0.000000 
#    z 0.000000 0.000000 1.925230 
# 
# From -- ./inp_files/5531.got.cif
#   From: 2010.05.17/outbox.cif.g08.bks.cpg/sg167_3_cif.got.tgz:5531.got - 2010.05.20 11:09:15.
