data_PCOD9579095
_publ_section_title
;
Structure prediction by ZEFSAII (Michael W. Deem and Ramdas Pophale) SiO2 
 PCOD9579095
Probable space group: R -3 M
;
_chemical_formula_sum "Si O2"
_cell_formula_units_Z 126
_cell_length_a 16.703281
_cell_length_b 16.703281
_cell_length_c 33.786832
_cell_angle_alpha 90.000000
_cell_angle_beta 90.000000
_cell_angle_gamma 120.000000
_cell_volume 8163.599280
_symmetry_space_group_name_H-M "R -3 M"
_symmetry_group_IT_number 166
_symmetry_cell_setting 'hexagonal'
loop_
_space_group_symop_operation_xyz
x,y,z
-y,x-y,z
-x+y,-x,z
x-y,-y,-z
-x,-x+y,-z
y,x,-z
-x,-y,-z
y,-x+y,-z
x-y,x,-z
-x+y,y,z
x,x-y,z
-y,-x,z
2/3+x,1/3+y,1/3+z
2/3-y,1/3+x-y,1/3+z
2/3-x+y,1/3-x,1/3+z
2/3+x-y,1/3-y,1/3-z
2/3-x,1/3-x+y,1/3-z
2/3+y,1/3+x,1/3-z
2/3-x,1/3-y,1/3-z
2/3+y,1/3-x+y,1/3-z
2/3+x-y,1/3+x,1/3-z
2/3-x+y,1/3+y,1/3+z
2/3+x,1/3+x-y,1/3+z
2/3-y,1/3-x,1/3+z
1/3+x,2/3+y,2/3+z
1/3-y,2/3+x-y,2/3+z
1/3-x+y,2/3-x,2/3+z
1/3+x-y,2/3-y,2/3-z
1/3-x,2/3-x+y,2/3-z
1/3+y,2/3+x,2/3-z
1/3-x,2/3-y,2/3-z
1/3+y,2/3-x+y,2/3-z
1/3+x-y,2/3+x,2/3-z
1/3-x+y,2/3+y,2/3+z
1/3+x,2/3+x-y,2/3+z
1/3-y,2/3-x,2/3+z
loop_
_atom_site_type_symbol
_atom_site_label
_atom_site_fract_x
_atom_site_fract_y
_atom_site_fract_z
Si Si1 0.333407 0.476634 0.048647
Si Si2 0.025858 0.607355 0.205902
Si Si3 0.302819 0.302819 0.000000
Si Si4 0.188722 0.001626 0.073424
O O1 0.247281 0.494562 0.047294
O O2 0.429933 0.570068 0.043665
O O3 0.327889 0.429246 0.091243
O O4 0.317015 0.399873 0.015804
O O5 0.035861 0.517931 0.197561
O O6 0.046658 0.666667 0.166667
O O7 0.923453 0.569611 0.223366
O O8 0.232168 0.257345 0.963667
O O9 0.170358 0.085179 0.080903
O O10 0.093616 0.906385 0.064544
#
# Coordination Sequence:
#
# PCOD9579095 Si02
#       4
#    36  36  18  36
#     4  10  19  31  48  69  94 122 153 189 227 268
#     4   9  18  31  47  67  91 119 151 186 224 268
#     4  10  19  32  47  68  94 122 152 186 227 272
#     4  10  19  31  48  69  93 119 150 189 230 272
#
# _framework density 15.434369
#
# number of rings (size 3 to 8) (size 9 to 14) (size 15 to 20)
#    0.000    2.286    0.000    6.143    0.000    0.571 
#    0.000    1.429    0.000    4.571    0.000    0.000 
#    0.000   18.286    0.000    0.000    0.000    0.000 
#
# Total GULP energy -234202.462390 kJ/mol
# GULP energy per Si atom -5576.249105 kJ/mol
# Density = 1.539924 g / cm^3
# Si number density = 15.434369 Si / 1000 Ang^3
#
#
#
# Elastic Constant Matrix: (Units=GPa)
#
#
# Indices 1 2 3 4 5 6 
#
# 1 111.0467 57.6295 59.7838 1.1488 0.0001 0.0000
# 2 57.6295 111.0467 59.7838 -1.1488 -0.0001 0.0000
# 3 59.7838 59.7838 109.0783 0.0000 0.0000 0.0000
# 4 1.1488 -1.1488 0.0000 14.9750 0.0000 -0.0001
# 5 0.0001 -0.0001 0.0000 0.0000 14.9750 1.1488
# 6 0.0000 0.0000 0.0000 -0.0001 1.1488 26.7086
#
#
#
# Elastic Compliance Matrix: (Units=1/GPa)
#
#
# Indices 1 2 3 4 5 6 
#
# 1 0.014239 -0.004544 -0.005314 -0.001441 0.000000 0.000000
# 2 -0.004544 0.014239 -0.005314 0.001441 0.000000 0.000000
# 3 -0.005314 -0.005314 0.014993 0.000000 0.000000 0.000000
# 4 -0.001441 0.001441 0.000000 0.066999 0.000000 0.000000
# 5 0.000000 0.000000 0.000000 0.000000 0.066999 -0.002882
# 6 0.000000 0.000000 0.000000 0.000000 -0.002882 0.037565
#
#
# Mechanical properties :
#
#
# Convention : Reuss Voigt Hill
#
# Bulk Modulus (GPa) = 76.17393 76.17399 76.17396
# Shear Modulus (GPa) = 20.01985 21.59667 20.80826
#
# Velocity S-wave (km/s) = 3.60543 3.74472 3.67574
# Velocity P-wave (km/s) = 8.17268 8.25578 8.21434
#
# Compressibility (1/GPa) = 0.01312785
#
# Stress axis : x y z
#
# Youngs Moduli (GPa) = 70.23017 70.23017 66.69993
#
# Poissons Ratio (x) = 0.31910 0.35443
# Poissons Ratio (y) = 0.31910 0.35443
# Poissons Ratio (z) = 0.37319 0.37319
#
# Static dielectric constant tensor:
#      x y z
#    x 1.501320 0.000000 0.000000 
#    y 0.000000 1.501320 0.000000 
#    z 0.000000 0.000000 1.493560 
# 
# From -- ./inp_files/9184.got.cif
#   From: 2010.05.17/outbox.cif.g08.bks.cpg/sg166_5_cif.got.tgz:9184.got - 2010.05.20 11:04:41.
