data_PCOD9579295
_publ_section_title
;
Structure prediction by ZEFSAII (Michael W. Deem and Ramdas Pophale) SiO2 
 PCOD9579295
Probable space group: R -3 M
;
_chemical_formula_sum "Si O2"
_cell_formula_units_Z 162
_cell_length_a 20.769552
_cell_length_b 20.769552
_cell_length_c 23.003665
_cell_angle_alpha 90.000000
_cell_angle_beta 90.000000
_cell_angle_gamma 120.000000
_cell_volume 8593.734335
_symmetry_space_group_name_H-M "R -3 M"
_symmetry_group_IT_number 166
_symmetry_cell_setting 'hexagonal'
loop_
_space_group_symop_operation_xyz
x,y,z
-y,x-y,z
-x+y,-x,z
x-y,-y,-z
-x,-x+y,-z
y,x,-z
-x,-y,-z
y,-x+y,-z
x-y,x,-z
-x+y,y,z
x,x-y,z
-y,-x,z
2/3+x,1/3+y,1/3+z
2/3-y,1/3+x-y,1/3+z
2/3-x+y,1/3-x,1/3+z
2/3+x-y,1/3-y,1/3-z
2/3-x,1/3-x+y,1/3-z
2/3+y,1/3+x,1/3-z
2/3-x,1/3-y,1/3-z
2/3+y,1/3-x+y,1/3-z
2/3+x-y,1/3+x,1/3-z
2/3-x+y,1/3+y,1/3+z
2/3+x,1/3+x-y,1/3+z
2/3-y,1/3-x,1/3+z
1/3+x,2/3+y,2/3+z
1/3-y,2/3+x-y,2/3+z
1/3-x+y,2/3-x,2/3+z
1/3+x-y,2/3-y,2/3-z
1/3-x,2/3-x+y,2/3-z
1/3+y,2/3+x,2/3-z
1/3-x,2/3-y,2/3-z
1/3+y,2/3-x+y,2/3-z
1/3+x-y,2/3+x,2/3-z
1/3-x+y,2/3+y,2/3+z
1/3+x,2/3+x-y,2/3+z
1/3-y,2/3-x,2/3+z
loop_
_atom_site_type_symbol
_atom_site_label
_atom_site_fract_x
_atom_site_fract_y
_atom_site_fract_z
Si Si1 0.059395 0.792379 0.169849
Si Si2 0.818859 0.486254 0.713603
Si Si3 0.403143 0.276946 0.058293
Si Si4 0.229793 0.000000 0.500000
Si Si5 0.854764 0.560610 0.274410
O O1 0.126261 0.873740 0.184407
O O2 0.092676 0.737835 0.161125
O O3 0.999699 0.759891 0.221498
O O4 0.018311 0.794053 0.111328
O O5 0.742943 0.485885 0.700725
O O6 0.806111 0.403056 0.713952
O O7 0.881049 0.531553 0.664816
O O8 0.849781 0.522999 0.776134
O O9 0.415881 0.207941 0.072782
O O10 0.315521 0.240703 0.047043
O O11 0.774185 0.548370 0.258483
O O12 0.852027 0.518694 0.333334
#
# Coordination Sequence:
#
# PCOD9579295 Si02
#       5
#    36  36  36  18  36
#     4  12  23  39  63  90 123 159 200 250 299 354
#     4  11  23  40  60  85 118 158 200 244 300 363
#     4  10  22  40  63  90 121 155 199 250 300 358
#     4  12  24  40  58  88 122 156 204 248 300 350
#     4  11  22  40  64  91 123 158 200 248 300 359
#
# _framework density 18.850943000000001
#
# number of rings (size 3 to 8) (size 9 to 14) (size 15 to 20)
#    0.000    0.889    2.222    5.556    0.000    3.556 
#    0.000    3.333    0.000    9.778    0.000    0.000 
#    0.000    0.000    0.000    0.000    0.000    0.000 
#
# Total GULP energy -302122.258593 kJ/mol
# GULP energy per Si atom -5594.856641 kJ/mol
# Density = 1.880804 g / cm^3
# Si number density = 18.850943 Si / 1000 Ang^3
#
#
#
# Elastic Constant Matrix: (Units=GPa)
#
#
# Indices 1 2 3 4 5 6 
#
# 1 33.2032 13.1539 -16.4934 -13.0202 -0.0137 0.0000
# 2 13.1539 33.2032 -16.4934 13.0202 0.0137 0.0000
# 3 -16.4934 -16.4934 31.4775 0.0000 0.0000 0.0000
# 4 -13.0202 13.0202 0.0000 -90.9135 0.0000 0.0137
# 5 -0.0137 0.0137 0.0000 0.0000 -90.9135 -13.0202
# 6 0.0000 0.0000 0.0000 0.0137 -13.0202 10.0246
#
#
#
# Elastic Compliance Matrix: (Units=1/GPa)
#
#
# Indices 1 2 3 4 5 6 
#
# 1 0.038225 -0.003829 0.018023 -0.006023 -0.000006 0.000000
# 2 -0.003829 0.038225 0.018023 0.006023 0.000006 0.000000
# 3 0.018023 0.018023 0.050656 0.000000 0.000000 0.000000
# 4 -0.006023 0.006023 0.000000 -0.009274 0.000000 0.000013
# 5 -0.000006 0.000006 0.000000 0.000000 -0.009274 -0.012046
# 6 0.000000 0.000000 0.000000 0.000013 -0.012046 0.084109
#
#
# Mechanical properties :
#
#
# Convention : Reuss Voigt Hill
#
# Bulk Modulus (GPa) = 5.22087 6.46869 5.84478
# Shear Modulus (GPa) = 26.03070 -26.51272 -0.24101
#
# Velocity S-wave (km/s) = 3.72004 -3.75432 -0.35795
# Velocity P-wave (km/s) = 4.60729 3.91846 1.71360
#
# Compressibility (1/GPa) = 0.19153912
#
# Stress axis : x y z
#
# Youngs Moduli (GPa) = 26.16058 26.16058 19.74114
#
# Poissons Ratio (x) = 0.10017 -0.35579
# Poissons Ratio (y) = 0.10017 -0.35579
# Poissons Ratio (z) = -0.47149 -0.47149
#
# Static dielectric constant tensor:
#      x y z
#    x 1.641040 0.000000 0.000000 
#    y 0.000000 1.641040 0.000000 
#    z 0.000000 0.000000 1.615820 
# 
# From -- ./inp_files/6724.got.cif
#   From: 2010.05.17/outbox.cif.g08.bks.cpg/sg166_4_cif.got.tgz:6724.got - 2010.05.20 11:04:41.
