data_PCOD9579413
_publ_section_title
;
Structure prediction by ZEFSAII (Michael W. Deem and Ramdas Pophale) SiO2 
 PCOD9579413
Probable space group: R -3 C 
;
_chemical_formula_sum "Si O2"
_cell_formula_units_Z 252
_cell_length_a 28.520519
_cell_length_b 28.520519
_cell_length_c 20.367841
_cell_angle_alpha 90.000000
_cell_angle_beta 90.000000
_cell_angle_gamma 120.000000
_cell_volume 14347.970541
_symmetry_space_group_name_H-M "R -3 C "
_symmetry_group_IT_number 167
_symmetry_cell_setting 'hexagonal'
loop_
_space_group_symop_operation_xyz
x,y,z
-y,x-y,z
-x+y,-x,z
x-y,-y,1/2-z
-x,-x+y,1/2-z
y,x,1/2-z
-x,-y,-z
y,-x+y,-z
x-y,x,-z
-x+y,y,1/2+z
x,x-y,1/2+z
-y,-x,1/2+z
2/3+x,1/3+y,1/3+z
2/3-y,1/3+x-y,1/3+z
2/3-x+y,1/3-x,1/3+z
2/3+x-y,1/3-y,5/6-z
2/3-x,1/3-x+y,5/6-z
2/3+y,1/3+x,5/6-z
2/3-x,1/3-y,1/3-z
2/3+y,1/3-x+y,1/3-z
2/3+x-y,1/3+x,1/3-z
2/3-x+y,1/3+y,5/6+z
2/3+x,1/3+x-y,5/6+z
2/3-y,1/3-x,5/6+z
1/3+x,2/3+y,2/3+z
1/3-y,2/3+x-y,2/3+z
1/3-x+y,2/3-x,2/3+z
1/3+x-y,2/3-y,1/6-z
1/3-x,2/3-x+y,1/6-z
1/3+y,2/3+x,1/6-z
1/3-x,2/3-y,2/3-z
1/3+y,2/3-x+y,2/3-z
1/3+x-y,2/3+x,2/3-z
1/3-x+y,2/3+y,1/6+z
1/3+x,2/3+x-y,1/6+z
1/3-y,2/3-x,1/6+z
loop_
_atom_site_type_symbol
_atom_site_label
_atom_site_fract_x
_atom_site_fract_y
_atom_site_fract_z
Si Si1 0.267795 0.113823 0.975836
Si Si2 0.639039 0.702633 0.244414
Si Si3 0.109895 0.714876 0.609217
Si Si4 0.580758 0.730501 0.920065
Si Si5 0.437455 0.935535 0.332973
Si Si6 0.615536 0.574430 0.053364
Si Si7 0.415210 0.270652 0.223176
O O1 0.258837 0.163631 0.959269
O O2 0.251268 0.081035 0.907143
O O3 0.332443 0.140876 0.989796
O O4 0.239363 0.083657 0.042902
O O5 0.660542 0.660542 0.250000
O O6 0.604666 0.688454 0.178840
O O7 0.693243 0.762237 0.238605
O O8 0.610121 0.705330 0.310768
O O9 0.076648 0.743315 0.583334
O O10 0.106890 0.668761 0.561747
O O11 0.537953 0.666667 0.916667
O O12 0.579126 0.770220 0.974390
O O13 0.574788 0.748974 0.846465
O O14 0.396309 0.925326 0.392472
O O15 0.666667 0.627660 0.083334
O O16 0.563829 0.581661 0.054174
#
# Coordination Sequence:
#
# PCOD9579413 Si02
#       7
#    36  36  36  36  36  36  36
#     4  10  20  33  46  69  91 125 157 203 253 300
#     4  10  19  28  47  65  85 114 154 196 238 283
#     4  12  19  33  51  66  96 128 162 203 259 301
#     4  10  18  32  48  69  85 115 159 205 239 291
#     4  10  19  33  48  61  94 121 155 196 252 294
#     4  10  21  32  44  65  92 121 159 196 247 290
#     4  10  22  30  49  70  93 118 169 209 241 289
#
# _framework density 17.563459000000002
#
# number of rings (size 3 to 8) (size 9 to 14) (size 15 to 20)
#    0.000    1.714    2.857    4.714    4.000    1.714 
#    0.000    0.000    0.000    0.000    0.000    0.000 
#    0.000    0.000    0.000    0.857    0.000    4.857 
#
# Total GULP energy -468309.900756 kJ/mol
# GULP energy per Si atom -5575.117866 kJ/mol
# Density = 1.752348 g / cm^3
# Si number density = 17.563459 Si / 1000 Ang^3
#
#
#
# Elastic Constant Matrix: (Units=GPa)
#
#
# Indices 1 2 3 4 5 6 
#
# 1 20.3401 5.8284 23.9577 2.2643 -0.0008 0.0000
# 2 5.8284 20.3401 23.9577 -2.2643 0.0008 0.0000
# 3 23.9577 23.9577 148.8034 0.0000 0.0000 0.0000
# 4 2.2643 -2.2643 0.0000 17.4763 0.0000 0.0008
# 5 -0.0008 0.0008 0.0000 0.0000 17.4763 2.2643
# 6 0.0000 0.0000 0.0000 0.0008 2.2643 7.2558
#
#
#
# Elastic Compliance Matrix: (Units=1/GPa)
#
#
# Indices 1 2 3 4 5 6 
#
# 1 0.063001 -0.008812 -0.008724 -0.009304 0.000003 0.000000
# 2 -0.008812 0.063001 -0.008724 0.009304 -0.000003 0.000000
# 3 -0.008724 -0.008724 0.009530 0.000000 0.000000 0.000000
# 4 -0.009304 0.009304 0.000000 0.059631 0.000000 -0.000006
# 5 0.000003 -0.000003 0.000000 0.000000 0.059631 -0.018608
# 6 0.000000 0.000000 0.000000 -0.000006 -0.018608 0.143627
#
#
# Mechanical properties :
#
#
# Convention : Reuss Voigt Hill
#
# Bulk Modulus (GPa) = 12.04691 32.99680 22.52185
# Shear Modulus (GPa) = 10.44685 17.49102 13.96893
#
# Velocity S-wave (km/s) = 2.44151 3.15917 2.82324
# Velocity P-wave (km/s) = 3.84993 5.66879 4.84546
#
# Compressibility (1/GPa) = 0.08300886
#
# Stress axis : x y z
#
# Youngs Moduli (GPa) = 15.87276 15.87276 104.93622
#
# Poissons Ratio (x) = 0.13988 0.91551
# Poissons Ratio (y) = 0.13988 0.91551
# Poissons Ratio (z) = 0.13848 0.13848
#
# Static dielectric constant tensor:
#      x y z
#    x 1.617960 0.000000 0.000000 
#    y 0.000000 1.617960 0.000000 
#    z 0.000000 0.000000 1.707400 
# 
# From -- ./inp_files/3697.got.cif
#   From: 2010.05.17/outbox.cif.g08.bks.cpg/sg167_2_cif.got.tgz:3697.got - 2010.05.20 11:09:15.
