data_PCOD9579896
_publ_section_title
;
Structure prediction by ZEFSAII (Michael W. Deem and Ramdas Pophale) SiO2 
 PCOD9579896
Probable space group: P 61
;
_chemical_formula_sum "Si O2"
_cell_formula_units_Z 30
_cell_length_a 16.683754
_cell_length_b 16.683754
_cell_length_c 6.399283
_cell_angle_alpha 90.000000
_cell_angle_beta 90.000000
_cell_angle_gamma 120.000000
_cell_volume 1542.586419
_symmetry_space_group_name_H-M "P 61"
_symmetry_group_IT_number 169
_symmetry_cell_setting 'hexagonal'
loop_
_space_group_symop_operation_xyz
x,y,z
x-y,x,1/6+z
-y,x-y,1/3+z
-x,-y,1/2+z
-x+y,-x,2/3+z
y,-x+y,5/6+z
loop_
_atom_site_type_symbol
_atom_site_label
_atom_site_fract_x
_atom_site_fract_y
_atom_site_fract_z
Si Si1 0.936697 0.140410 0.023140
Si Si2 0.228602 0.394271 0.587026
Si Si3 0.054446 0.726854 0.870761
Si Si4 0.953206 0.403299 0.003966
Si Si5 0.644630 0.081122 0.824250
O O1 0.961531 0.201329 0.236371
O O2 0.870124 0.032227 0.077808
O O3 0.881082 0.178554 0.884362
O O4 0.221496 0.367506 0.344674
O O5 0.334626 0.450376 0.661627
O O6 0.183805 0.456390 0.638240
O O7 0.060841 0.656966 0.708469
O O8 0.976726 0.662341 0.038745
O O9 0.939990 0.489476 0.050291
O O10 0.051147 0.431441 0.897754
#
# Coordination Sequence:
#
# PCOD9579896 Si02
#       5
#     6   6   6   6   6
#     4  11  23  42  59  90 126 166 209 262 306 371
#     4  10  22  38  61  89 122 158 207 258 312 372
#     4  10  20  38  63  89 116 161 207 250 313 361
#     4  10  21  37  61  90 116 157 208 250 306 366
#     4  11  20  39  62  88 122 160 207 258 299 378
#
# _framework density 19.447856000000002
#
# number of rings (size 3 to 8) (size 9 to 14) (size 15 to 20)
#    0.000    1.600    2.000    4.800    0.000    1.600 
#    7.200    2.000    0.000    0.000    0.000    0.000 
#    0.000    0.000    0.000    0.000    0.000    0.000 
#
# Total GULP energy -167397.750222 kJ/mol
# GULP energy per Si atom -5579.925007 kJ/mol
# Density = 1.940359 g / cm^3
# Si number density = 19.447856 Si / 1000 Ang^3
#
#
#
# Elastic Constant Matrix: (Units=GPa)
#
#
# Indices 1 2 3 4 5 6 
#
# 1 64.7168 22.4416 26.2682 0.0000 0.0000 0.0000
# 2 22.4416 64.7168 26.2682 0.0000 0.0000 0.0000
# 3 26.2682 26.2682 93.9136 0.0000 0.0000 0.0000
# 4 0.0000 0.0000 0.0000 28.0918 0.0000 0.0000
# 5 0.0000 0.0000 0.0000 0.0000 28.0918 0.0000
# 6 0.0000 0.0000 0.0000 0.0000 0.0000 21.1376
#
#
#
# Elastic Compliance Matrix: (Units=1/GPa)
#
#
# Indices 1 2 3 4 5 6 
#
# 1 0.018727 -0.004927 -0.003860 0.000000 0.000000 0.000000
# 2 -0.004927 0.018727 -0.003860 0.000000 0.000000 0.000000
# 3 -0.003860 -0.003860 0.012807 0.000000 0.000000 0.000000
# 4 0.000000 0.000000 0.000000 0.035598 0.000000 0.000000
# 5 0.000000 0.000000 0.000000 0.000000 0.035598 0.000000
# 6 0.000000 0.000000 0.000000 0.000000 0.000000 0.047309
#
#
# Mechanical properties :
#
#
# Convention : Reuss Voigt Hill
#
# Bulk Modulus (GPa) = 40.05185 41.47813 40.76499
# Shear Modulus (GPa) = 24.70563 25.35552 25.03057
#
# Velocity S-wave (km/s) = 3.56807 3.61469 3.59146
# Velocity P-wave (km/s) = 6.13302 6.22860 6.18100
#
# Compressibility (1/GPa) = 0.02496764
#
# Stress axis : x y z
#
# Youngs Moduli (GPa) = 53.39803 53.39803 78.07990
#
# Poissons Ratio (x) = 0.26311 0.30138
# Poissons Ratio (y) = 0.26311 0.30138
# Poissons Ratio (z) = 0.20611 0.20611
#
# Static dielectric constant tensor:
#      x y z
#    x 1.698880 0.000000 0.000000 
#    y 0.000000 1.698880 0.000000 
#    z 0.000000 0.000000 1.714030 
# 
# From -- ./inp_files/162.got.cif
#   From: 2010.05.17/outbox.cif.g08.bks.cpg/sg169_cif.got.tgz:162.got - 2010.05.20 11:12:54.
