data_PCOD9579509
_publ_section_title
;
Structure prediction by ZEFSAII (Michael W. Deem and Ramdas Pophale) SiO2 
 PCOD9579509
Probable space group: R -3 C 
;
_chemical_formula_sum "Si O2"
_cell_formula_units_Z 204
_cell_length_a 19.006373
_cell_length_b 19.006373
_cell_length_c 27.910688
_cell_angle_alpha 90.000000
_cell_angle_beta 90.000000
_cell_angle_gamma 120.000000
_cell_volume 8731.717367
_symmetry_space_group_name_H-M "R -3 C "
_symmetry_group_IT_number 167
_symmetry_cell_setting 'hexagonal'
loop_
_space_group_symop_operation_xyz
x,y,z
-y,x-y,z
-x+y,-x,z
x-y,-y,1/2-z
-x,-x+y,1/2-z
y,x,1/2-z
-x,-y,-z
y,-x+y,-z
x-y,x,-z
-x+y,y,1/2+z
x,x-y,1/2+z
-y,-x,1/2+z
2/3+x,1/3+y,1/3+z
2/3-y,1/3+x-y,1/3+z
2/3-x+y,1/3-x,1/3+z
2/3+x-y,1/3-y,5/6-z
2/3-x,1/3-x+y,5/6-z
2/3+y,1/3+x,5/6-z
2/3-x,1/3-y,1/3-z
2/3+y,1/3-x+y,1/3-z
2/3+x-y,1/3+x,1/3-z
2/3-x+y,1/3+y,5/6+z
2/3+x,1/3+x-y,5/6+z
2/3-y,1/3-x,5/6+z
1/3+x,2/3+y,2/3+z
1/3-y,2/3+x-y,2/3+z
1/3-x+y,2/3-x,2/3+z
1/3+x-y,2/3-y,1/6-z
1/3-x,2/3-x+y,1/6-z
1/3+y,2/3+x,1/6-z
1/3-x,2/3-y,2/3-z
1/3+y,2/3-x+y,2/3-z
1/3+x-y,2/3+x,2/3-z
1/3-x+y,2/3+y,1/6+z
1/3+x,2/3+x-y,1/6+z
1/3-y,2/3-x,1/6+z
loop_
_atom_site_type_symbol
_atom_site_label
_atom_site_fract_x
_atom_site_fract_y
_atom_site_fract_z
Si Si1 0.715528 0.498270 0.156012
Si Si2 0.584176 0.917509 0.916667
Si Si3 0.779685 0.061295 0.523610
Si Si4 0.811549 0.811549 0.250000
Si Si5 0.000000 0.000000 0.442673
Si Si6 0.333334 0.666667 0.472806
Si Si7 0.145738 0.993108 0.406770
Si Si8 0.697876 0.787681 0.160974
O O1 0.677183 0.547938 0.133392
O O2 0.777917 0.506282 0.114359
O O3 0.649140 0.403058 0.156390
O O4 0.764468 0.516107 0.204839
O O5 0.667635 0.920453 0.926723
O O6 0.844502 0.038193 0.541784
O O7 0.823710 0.144973 0.493874
O O8 0.702015 0.975418 0.507945
O O9 0.742703 0.796340 0.211589
O O10 0.088801 0.030248 0.420081
O O11 0.000000 0.000000 0.500000
O O12 0.333334 0.666668 0.416667
O O13 0.232061 0.052495 0.380425
#
# Coordination Sequence:
#
# PCOD9579509 Si02
#       8
#    36  18  36  18  12  12  36  36
#     4  11  21  36  68 103 151 180 234 303 387 454
#     4  12  22  41  67 108 146 186 224 314 380 448
#     4  12  27  49  72 103 148 203 253 313 373 446
#     4  10  20  39  63 110 138 182 232 300 378 460
#     4  12  31  53  76 106 152 205 261 310 371 463
#     4  12  19  32  61 108 142 188 229 295 392 457
#     4  11  27  49  74 110 144 197 258 312 379 462
#     4  11  26  49  76 108 151 191 255 312 389 453
#
# _framework density 23.363102000000001
#
# number of rings (size 3 to 8) (size 9 to 14) (size 15 to 20)
#    0.000    0.706    5.294    1.059    7.412    2.118 
#    3.176    0.000    0.000    0.000    0.000    0.000 
#    0.000    0.000    0.000    0.000    0.000    0.000 
#
# Total GULP energy -379588.006881 kJ/mol
# GULP energy per Si atom -5582.176572 kJ/mol
# Density = 2.330993 g / cm^3
# Si number density = 23.363102 Si / 1000 Ang^3
#
#
#
# Elastic Constant Matrix: (Units=GPa)
#
#
# Indices 1 2 3 4 5 6 
#
# 1 104.4685 55.0647 33.1106 0.4805 0.0001 -0.0001
# 2 55.0647 104.4682 33.1104 -0.4804 -0.0001 0.0001
# 3 33.1106 33.1104 104.3815 0.0000 0.0000 0.0000
# 4 0.4805 -0.4804 0.0000 27.0421 0.0000 -0.0002
# 5 0.0001 -0.0001 0.0000 0.0000 27.0422 0.4807
# 6 -0.0001 0.0001 0.0000 -0.0002 0.4807 24.7020
#
#
#
# Elastic Compliance Matrix: (Units=1/GPa)
#
#
# Indices 1 2 3 4 5 6 
#
# 1 0.013734 -0.006515 -0.002290 -0.000360 0.000000 0.000000
# 2 -0.006515 0.013734 -0.002290 0.000360 0.000000 0.000000
# 3 -0.002290 -0.002290 0.011033 0.000000 0.000000 0.000000
# 4 -0.000360 0.000360 0.000000 0.036992 0.000000 0.000000
# 5 0.000000 0.000000 0.000000 0.000000 0.036992 -0.000720
# 6 0.000000 0.000000 0.000000 0.000000 -0.000720 0.040496
#
#
# Mechanical properties :
#
#
# Convention : Reuss Voigt Hill
#
# Bulk Modulus (GPa) = 61.30778 61.76550 61.53664
# Shear Modulus (GPa) = 27.68443 28.55943 28.12193
#
# Velocity S-wave (km/s) = 3.44606 3.50010 3.47319
# Velocity P-wave (km/s) = 6.49092 6.54438 6.51770
#
# Compressibility (1/GPa) = 0.01631114
#
# Stress axis : x y z
#
# Youngs Moduli (GPa) = 72.81419 72.81408 90.63760
#
# Poissons Ratio (x) = 0.47437 0.20755
# Poissons Ratio (y) = 0.47437 0.20755
# Poissons Ratio (z) = 0.16673 0.16673
#
# Static dielectric constant tensor:
#      x y z
#    x 1.931390 0.000000 0.000000 
#    y 0.000000 1.931400 0.000000 
#    z 0.000000 0.000000 1.876440 
# 
# From -- ./inp_files/7157.got.cif
#   From: 2010.05.17/outbox.cif.g08.bks.cpg/sg167_4_cif.got.tgz:7157.got - 2010.05.20 11:09:15.
