data_PCOD9579307
_publ_section_title
;
Structure prediction by ZEFSAII (Michael W. Deem and Ramdas Pophale) SiO2 
 PCOD9579307
Probable space group: R -3 M
;
_chemical_formula_sum "Si O2"
_cell_formula_units_Z 108
_cell_length_a 29.947963
_cell_length_b 29.947963
_cell_length_c 7.672049
_cell_angle_alpha 90.000000
_cell_angle_beta 90.000000
_cell_angle_gamma 120.000000
_cell_volume 5959.043770
_symmetry_space_group_name_H-M "R -3 M"
_symmetry_group_IT_number 166
_symmetry_cell_setting 'hexagonal'
loop_
_space_group_symop_operation_xyz
x,y,z
-y,x-y,z
-x+y,-x,z
x-y,-y,-z
-x,-x+y,-z
y,x,-z
-x,-y,-z
y,-x+y,-z
x-y,x,-z
-x+y,y,z
x,x-y,z
-y,-x,z
2/3+x,1/3+y,1/3+z
2/3-y,1/3+x-y,1/3+z
2/3-x+y,1/3-x,1/3+z
2/3+x-y,1/3-y,1/3-z
2/3-x,1/3-x+y,1/3-z
2/3+y,1/3+x,1/3-z
2/3-x,1/3-y,1/3-z
2/3+y,1/3-x+y,1/3-z
2/3+x-y,1/3+x,1/3-z
2/3-x+y,1/3+y,1/3+z
2/3+x,1/3+x-y,1/3+z
2/3-y,1/3-x,1/3+z
1/3+x,2/3+y,2/3+z
1/3-y,2/3+x-y,2/3+z
1/3-x+y,2/3-x,2/3+z
1/3+x-y,2/3-y,2/3-z
1/3-x,2/3-x+y,2/3-z
1/3+y,2/3+x,2/3-z
1/3-x,2/3-y,2/3-z
1/3+y,2/3-x+y,2/3-z
1/3+x-y,2/3+x,2/3-z
1/3-x+y,2/3+y,2/3+z
1/3+x,2/3+x-y,2/3+z
1/3-y,2/3-x,2/3+z
loop_
_atom_site_type_symbol
_atom_site_label
_atom_site_fract_x
_atom_site_fract_y
_atom_site_fract_z
Si Si1 0.059729 0.940272 0.549348
Si Si2 0.000000 0.703821 0.000000
Si Si3 0.767842 0.232159 0.589331
Si Si4 0.273444 0.726557 0.710672
Si Si5 0.962578 0.429954 0.164254
O O1 0.084461 0.915540 0.427478
O O2 0.066396 0.933605 0.752510
O O3 0.000000 0.913642 0.500000
O O4 0.052164 0.758165 0.046309
O O5 0.986787 0.666667 0.166667
O O6 0.750648 0.249353 0.417208
O O7 0.829145 0.256711 0.579897
O O8 0.246856 0.666667 0.666667
O O9 0.974938 0.487469 0.235392
O O10 0.000000 0.440868 0.000000
#
# Coordination Sequence:
#
# PCOD9579307 Si02
#       5
#    18  18  18  18  36
#     4  12  23  40  62  91 129 175 219 270 343 388
#     4  12  24  44  73 108 132 181 236 278 338 422
#     4  10  23  42  63  92 130 170 220 272 334 406
#     4  12  23  40  60  92 130 171 223 276 325 405
#     4   9  22  47  67  96 140 174 217 282 343 404
#
# _framework density 18.123712999999999
#
# number of rings (size 3 to 8) (size 9 to 14) (size 15 to 20)
#    1.000    0.333    5.000    0.333    2.333    0.667 
#   12.000    0.000    0.000    0.000    0.000    0.000 
#    0.000    0.000    0.000    0.000    0.000    0.000 
#
# Total GULP energy -200471.674476 kJ/mol
# GULP energy per Si atom -5568.657624 kJ/mol
# Density = 1.808246 g / cm^3
# Si number density = 18.123713 Si / 1000 Ang^3
#
#
#
# Elastic Constant Matrix: (Units=GPa)
#
#
# Indices 1 2 3 4 5 6 
#
# 1 -111.8311 296.8111 70.7000 -75.1998 0.4855 4.4047
# 2 296.8111 -111.0370 72.5259 75.1408 -0.2304 -3.6864
# 3 70.7000 72.5259 169.3133 -0.2124 0.2231 0.2920
# 4 -75.1998 75.1408 -0.2124 22.2650 -0.0009 0.7387
# 5 0.4855 -0.2304 0.2231 -0.0009 22.8960 -73.2092
# 6 4.4047 -3.6864 0.2920 0.7387 -73.2092 -197.8531
#
#
#
# Elastic Compliance Matrix: (Units=1/GPa)
#
#
# Indices 1 2 3 4 5 6 
#
# 1 0.003467 0.004553 -0.003402 -0.003685 -0.000036 -0.000013
# 2 0.004553 0.003453 -0.003376 0.003688 0.000054 0.000026
# 3 -0.003402 -0.003376 0.008773 -0.000016 -0.000022 0.000008
# 4 -0.003685 0.003688 -0.000016 0.020020 -0.000058 -0.000055
# 5 -0.000036 0.000054 -0.000022 -0.000058 0.020004 -0.007404
# 6 -0.000013 0.000026 0.000008 -0.000055 -0.007404 -0.002316
#
#
# Mechanical properties :
#
#
# Convention : Reuss Voigt Hill
#
# Bulk Modulus (GPa) = 88.94989 91.83545 90.39267
# Shear Modulus (GPa) = 81.16770 -63.44453 8.86159
#
# Velocity S-wave (km/s) = 6.69945 -5.92304 2.21362
# Velocity P-wave (km/s) = 10.44171 2.00124 7.51779
#
# Compressibility (1/GPa) = 0.01124228
#
# Stress axis : x y z
#
# Youngs Moduli (GPa) = 288.40872 289.56885 113.98605
#
# Poissons Ratio (x) = -1.31827 0.38784
# Poissons Ratio (y) = -1.31299 0.38479
# Poissons Ratio (z) = 0.98131 0.97752
#
# Static dielectric constant tensor:
#      x y z
#    x 1.644380 0.000000 0.000080 
#    y 0.000000 1.644380 -0.000050 
#    z 0.000080 -0.000050 1.611680 
# 
# From -- ./inp_files/1559.got.cif
#   From: 2010.05.17/outbox.cif.g08.bks.cpg/sg166_1_cif.got.tgz:1559.got - 2010.05.20 11:04:41.
