data_PCOD9579188
_publ_section_title
;
Structure prediction by ZEFSAII (Michael W. Deem and Ramdas Pophale) SiO2 
 PCOD9579188
Probable space group: R -3 M
;
_chemical_formula_sum "Si O2"
_cell_formula_units_Z 216
_cell_length_a 22.916790
_cell_length_b 22.916790
_cell_length_c 25.476031
_cell_angle_alpha 90.000000
_cell_angle_beta 90.000000
_cell_angle_gamma 120.000000
_cell_volume 11586.972347
_symmetry_space_group_name_H-M "R -3 M"
_symmetry_group_IT_number 166
_symmetry_cell_setting 'hexagonal'
loop_
_space_group_symop_operation_xyz
x,y,z
-y,x-y,z
-x+y,-x,z
x-y,-y,-z
-x,-x+y,-z
y,x,-z
-x,-y,-z
y,-x+y,-z
x-y,x,-z
-x+y,y,z
x,x-y,z
-y,-x,z
2/3+x,1/3+y,1/3+z
2/3-y,1/3+x-y,1/3+z
2/3-x+y,1/3-x,1/3+z
2/3+x-y,1/3-y,1/3-z
2/3-x,1/3-x+y,1/3-z
2/3+y,1/3+x,1/3-z
2/3-x,1/3-y,1/3-z
2/3+y,1/3-x+y,1/3-z
2/3+x-y,1/3+x,1/3-z
2/3-x+y,1/3+y,1/3+z
2/3+x,1/3+x-y,1/3+z
2/3-y,1/3-x,1/3+z
1/3+x,2/3+y,2/3+z
1/3-y,2/3+x-y,2/3+z
1/3-x+y,2/3-x,2/3+z
1/3+x-y,2/3-y,2/3-z
1/3-x,2/3-x+y,2/3-z
1/3+y,2/3+x,2/3-z
1/3-x,2/3-y,2/3-z
1/3+y,2/3-x+y,2/3-z
1/3+x-y,2/3+x,2/3-z
1/3-x+y,2/3+y,2/3+z
1/3+x,2/3+x-y,2/3+z
1/3-y,2/3-x,2/3+z
loop_
_atom_site_type_symbol
_atom_site_label
_atom_site_fract_x
_atom_site_fract_y
_atom_site_fract_z
Si Si1 0.508106 0.818407 0.896241
Si Si2 0.540733 0.334675 0.218529
Si Si3 0.196480 0.254422 0.955380
Si Si4 0.970226 0.343647 0.558400
Si Si5 0.408078 0.951423 0.051024
Si Si6 0.132143 0.000183 0.652062
O O1 0.541833 0.770917 0.895005
O O2 0.463658 0.799119 0.844213
O O3 0.562792 0.895763 0.892690
O O4 0.470142 0.803457 0.951247
O O5 0.566387 0.283194 0.233231
O O6 0.591488 0.408513 0.239113
O O7 0.466778 0.302790 0.241896
O O8 0.132880 0.265759 0.969346
O O9 0.262387 0.319399 0.932488
O O10 0.221153 0.221153 0.000000
O O11 0.962026 0.272870 0.576710
O O12 0.000000 0.363072 0.500000
O O13 0.478539 0.957077 0.069973
O O14 0.358649 0.873828 0.035392
O O15 0.428307 0.000000 0.000000
O O16 0.113544 0.056772 0.636398
O O17 0.074040 0.925961 0.635794
#
# Coordination Sequence:
#
# PCOD9579188 Si02
#       6
#    36  36  36  36  36  36
#     4  10  20  33  54  84 117 153 194 241 293 346
#     4  10  20  35  54  79 112 152 197 243 292 342
#     4  11  24  40  59  84 118 156 201 249 293 344
#     4  12  23  40  59  86 117 155 201 243 290 346
#     4  10  21  39  61  85 117 154 192 236 297 366
#     4  10  20  36  61  91 122 153 193 244 301 363
#
# _framework density 18.641625000000001
#
# number of rings (size 3 to 8) (size 9 to 14) (size 15 to 20)
#    0.000    1.500    3.333    2.333    0.000    1.333 
#    0.000    3.333    0.000    2.667    0.000    0.000 
#    0.000    3.333    0.000    0.000    0.000    0.000 
#
# Total GULP energy -401518.820188 kJ/mol
# GULP energy per Si atom -5576.650280 kJ/mol
# Density = 1.859920 g / cm^3
# Si number density = 18.641625 Si / 1000 Ang^3
#
#
#
# Elastic Constant Matrix: (Units=GPa)
#
#
# Indices 1 2 3 4 5 6 
#
# 1 92.7410 49.7362 17.5190 -2.2582 0.0000 0.0000
# 2 49.7362 92.7410 17.5190 2.2582 0.0000 0.0000
# 3 17.5190 17.5190 43.5236 0.0000 0.0000 0.0000
# 4 -2.2582 2.2582 0.0000 19.7523 0.0000 0.0000
# 5 0.0000 0.0000 0.0000 0.0000 19.7523 -2.2582
# 6 0.0000 0.0000 0.0000 0.0000 -2.2582 21.5024
#
#
#
# Elastic Compliance Matrix: (Units=1/GPa)
#
#
# Indices 1 2 3 4 5 6 
#
# 1 0.015663 -0.007873 -0.003135 0.002691 0.000000 0.000000
# 2 -0.007873 0.015663 -0.003135 -0.002691 0.000000 0.000000
# 3 -0.003135 -0.003135 0.025500 0.000000 0.000000 0.000000
# 4 0.002691 -0.002691 0.000000 0.051242 0.000000 0.000000
# 5 0.000000 0.000000 0.000000 0.000000 0.051242 0.005381
# 6 0.000000 0.000000 0.000000 0.000000 0.005381 0.047072
#
#
# Mechanical properties :
#
#
# Convention : Reuss Voigt Hill
#
# Bulk Modulus (GPa) = 35.04135 44.28377 39.66256
# Shear Modulus (GPa) = 20.47647 21.81682 21.14665
#
# Velocity S-wave (km/s) = 3.31785 3.42472 3.37171
# Velocity P-wave (km/s) = 5.78927 6.28054 6.03990
#
# Compressibility (1/GPa) = 0.02853771
#
# Stress axis : x y z
#
# Youngs Moduli (GPa) = 63.84563 63.84563 39.21535
#
# Poissons Ratio (x) = 0.50266 0.12296
# Poissons Ratio (y) = 0.50266 0.12296
# Poissons Ratio (z) = 0.20019 0.20019
#
# Static dielectric constant tensor:
#      x y z
#    x 1.658960 0.000000 0.000000 
#    y 0.000000 1.658960 0.000000 
#    z 0.000000 0.000000 1.635060 
# 
# From -- ./inp_files/8423.got.cif
#   From: 2010.05.17/outbox.cif.g08.bks.cpg/sg166_5_cif.got.tgz:8423.got - 2010.05.20 11:04:41.
