data_PCOD9579442
_publ_section_title
;
Structure prediction by ZEFSAII (Michael W. Deem and Ramdas Pophale) SiO2 
 PCOD9579442
Probable space group: R -3 C 
;
_chemical_formula_sum "Si O2"
_cell_formula_units_Z 216
_cell_length_a 27.740029
_cell_length_b 27.740029
_cell_length_c 19.263225
_cell_angle_alpha 90.000000
_cell_angle_beta 90.000000
_cell_angle_gamma 120.000000
_cell_volume 12837.292907
_symmetry_space_group_name_H-M "R -3 C "
_symmetry_group_IT_number 167
_symmetry_cell_setting 'hexagonal'
loop_
_space_group_symop_operation_xyz
x,y,z
-y,x-y,z
-x+y,-x,z
x-y,-y,1/2-z
-x,-x+y,1/2-z
y,x,1/2-z
-x,-y,-z
y,-x+y,-z
x-y,x,-z
-x+y,y,1/2+z
x,x-y,1/2+z
-y,-x,1/2+z
2/3+x,1/3+y,1/3+z
2/3-y,1/3+x-y,1/3+z
2/3-x+y,1/3-x,1/3+z
2/3+x-y,1/3-y,5/6-z
2/3-x,1/3-x+y,5/6-z
2/3+y,1/3+x,5/6-z
2/3-x,1/3-y,1/3-z
2/3+y,1/3-x+y,1/3-z
2/3+x-y,1/3+x,1/3-z
2/3-x+y,1/3+y,5/6+z
2/3+x,1/3+x-y,5/6+z
2/3-y,1/3-x,5/6+z
1/3+x,2/3+y,2/3+z
1/3-y,2/3+x-y,2/3+z
1/3-x+y,2/3-x,2/3+z
1/3+x-y,2/3-y,1/6-z
1/3-x,2/3-x+y,1/6-z
1/3+y,2/3+x,1/6-z
1/3-x,2/3-y,2/3-z
1/3+y,2/3-x+y,2/3-z
1/3+x-y,2/3+x,2/3-z
1/3-x+y,2/3+y,1/6+z
1/3+x,2/3+x-y,1/6+z
1/3-y,2/3-x,1/6+z
loop_
_atom_site_type_symbol
_atom_site_label
_atom_site_fract_x
_atom_site_fract_y
_atom_site_fract_z
Si Si1 0.066049 0.556444 0.265875
Si Si2 0.954594 0.560779 0.101285
Si Si3 0.117439 0.415867 0.568747
Si Si4 0.007559 0.383677 0.130213
Si Si5 0.075094 0.825336 0.449428
Si Si6 0.512051 0.558310 0.032321
O O1 0.071732 0.595403 0.330461
O O2 0.081759 0.508003 0.274101
O O3 0.094039 0.592285 0.197589
O O4 0.000000 0.521207 0.250000
O O5 0.945831 0.612498 0.083334
O O6 0.020238 0.580734 0.105755
O O7 0.926350 0.521404 0.034976
O O8 0.078068 0.384114 0.503430
O O9 0.083873 0.384044 0.639965
O O10 0.124180 0.475967 0.577589
O O11 0.017636 0.431521 0.076021
O O12 0.005357 0.333334 0.083334
O O13 0.128015 0.877793 0.415914
O O14 0.500000 0.500000 0.000000
#
# Coordination Sequence:
#
# PCOD9579442 Si02
#       6
#    36  36  36  36  36  36
#     4  10  19  37  49  68 103 138 166 223 278 310
#     4  10  22  32  51  75  99 131 176 220 265 310
#     4  11  21  34  51  68  97 137 183 217 263 316
#     4  11  21  31  48  70  98 130 179 226 253 303
#     4  10  21  33  51  71  98 139 177 217 260 307
#     4  10  19  35  47  67 102 130 169 222 265 297
#
# _framework density 16.825977000000002
#
# number of rings (size 3 to 8) (size 9 to 14) (size 15 to 20)
#    0.000    1.667    3.333    4.000    7.000    0.667 
#    0.000    0.000    0.000    0.000    0.000    0.000 
#    0.000    0.000    0.000   15.000    0.000    2.000 
#
# Total GULP energy -401298.946636 kJ/mol
# GULP energy per Si atom -5573.596481 kJ/mol
# Density = 1.678768 g / cm^3
# Si number density = 16.825977 Si / 1000 Ang^3
#
#
#
# Elastic Constant Matrix: (Units=GPa)
#
#
# Indices 1 2 3 4 5 6 
#
# 1 47.5614 10.2767 20.0883 3.1840 0.0001 0.0000
# 2 10.2767 47.5614 20.0883 -3.1840 -0.0001 0.0000
# 3 20.0883 20.0883 115.2695 0.0000 0.0000 0.0000
# 4 3.1840 -3.1840 0.0000 19.7987 0.0000 -0.0001
# 5 0.0001 -0.0001 0.0000 0.0000 19.7987 3.1840
# 6 0.0000 0.0000 0.0000 -0.0001 3.1840 18.6423
#
#
#
# Elastic Compliance Matrix: (Units=1/GPa)
#
#
# Indices 1 2 3 4 5 6 
#
# 1 0.023625 -0.003954 -0.003428 -0.004435 0.000000 0.000000
# 2 -0.003954 0.023625 -0.003428 0.004435 0.000000 0.000000
# 3 -0.003428 -0.003428 0.009870 0.000000 0.000000 0.000000
# 4 -0.004435 0.004435 0.000000 0.051935 0.000000 0.000000
# 5 0.000000 0.000000 0.000000 0.000000 0.051935 -0.008870
# 6 0.000000 0.000000 0.000000 0.000000 -0.008870 0.055156
#
#
# Mechanical properties :
#
#
# Convention : Reuss Voigt Hill
#
# Bulk Modulus (GPa) = 28.16928 34.58874 31.37901
# Shear Modulus (GPa) = 20.03219 22.31054 21.17137
#
# Velocity S-wave (km/s) = 3.45418 3.64532 3.55104
# Velocity P-wave (km/s) = 5.71720 6.19025 5.95842
#
# Compressibility (1/GPa) = 0.03549966
#
# Stress axis : x y z
#
# Youngs Moduli (GPa) = 42.32886 42.32886 101.31544
#
# Poissons Ratio (x) = 0.16735 0.34732
# Poissons Ratio (y) = 0.16735 0.34732
# Poissons Ratio (z) = 0.14511 0.14511
#
# Static dielectric constant tensor:
#      x y z
#    x 1.324150 0.000000 0.000000 
#    y 0.000000 1.324150 0.000000 
#    z 0.000000 0.000000 1.634670 
# 
# From -- ./inp_files/4660.got.cif
#   From: 2010.05.17/outbox.cif.g08.bks.cpg/sg167_3_cif.got.tgz:4660.got - 2010.05.20 11:09:15.
