data_PCOD9579933
_publ_section_title
;
Structure prediction by ZEFSAII (Michael W. Deem and Ramdas Pophale) SiO2 
 PCOD9579933
Probable space group: P 61
;
_chemical_formula_sum "Si O2"
_cell_formula_units_Z 42
_cell_length_a 13.981575
_cell_length_b 13.981575
_cell_length_c 9.942979
_cell_angle_alpha 90.000000
_cell_angle_beta 90.000000
_cell_angle_gamma 120.000000
_cell_volume 1683.291565
_symmetry_space_group_name_H-M "P 61"
_symmetry_group_IT_number 169
_symmetry_cell_setting 'hexagonal'
loop_
_space_group_symop_operation_xyz
x,y,z
x-y,x,1/6+z
-y,x-y,1/3+z
-x,-y,1/2+z
-x+y,-x,2/3+z
y,-x+y,5/6+z
loop_
_atom_site_type_symbol
_atom_site_label
_atom_site_fract_x
_atom_site_fract_y
_atom_site_fract_z
Si Si1 0.214258 0.113328 0.149970
Si Si2 0.886412 0.588216 0.135621
Si Si3 0.827876 0.022243 0.927975
Si Si4 0.231700 0.609465 0.987722
Si Si5 0.145754 0.644777 0.709594
Si Si6 0.947199 0.610758 0.840511
Si Si7 0.367388 0.542190 0.612282
O O1 0.140590 0.169927 0.191383
O O2 0.341510 0.209800 0.127265
O O3 0.202744 0.053159 0.293048
O O4 0.937591 0.675575 0.255852
O O5 0.885697 0.473820 0.149852
O O6 0.757591 0.557044 0.122526
O O7 0.954004 0.639879 0.997959
O O8 0.948479 0.124914 0.887371
O O9 0.257989 0.510743 0.970789
O O10 0.167778 0.602196 0.122092
O O11 0.182149 0.634440 0.859974
O O12 0.353694 0.714976 0.006238
O O13 0.044867 0.663682 0.732916
O O14 0.916246 0.482405 0.841942
#
# Coordination Sequence:
#
# PCOD9579933 Si02
#       7
#     6   6   6   6   6   6   6
#     4  10  22  41  69  99 130 168 236 288 334 399
#     4  11  23  41  64  99 131 182 224 275 344 424
#     4  10  21  40  71  94 126 164 234 288 334 400
#     4   9  20  42  59  84 129 181 205 266 337 397
#     4  10  25  38  64  91 138 170 223 275 338 425
#     4  12  24  37  68  99 129 180 227 286 341 421
#     4  10  21  37  63  90 129 169 223 262 336 408
#
# _framework density 24.951111999999998
#
# number of rings (size 3 to 8) (size 9 to 14) (size 15 to 20)
#    0.000    1.714    4.286    0.000   10.000    0.000 
#    0.000    0.000   15.714    0.000    0.000    0.000 
#    0.000    0.000    0.000    0.000    0.000    0.000 
#
# Total GULP energy -234346.571232 kJ/mol
# GULP energy per Si atom -5579.680267 kJ/mol
# Density = 2.489432 g / cm^3
# Si number density = 24.951112 Si / 1000 Ang^3
#
#
#
# Elastic Constant Matrix: (Units=GPa)
#
#
# Indices 1 2 3 4 5 6 
#
# 1 56.1502 14.6505 2.2924 0.0000 0.0000 0.0000
# 2 14.6505 56.1502 2.2924 0.0000 0.0000 0.0000
# 3 2.2924 2.2924 46.0033 0.0000 0.0000 0.0000
# 4 0.0000 0.0000 0.0000 16.9353 0.0000 0.0000
# 5 0.0000 0.0000 0.0000 0.0000 16.9353 0.0000
# 6 0.0000 0.0000 0.0000 0.0000 0.0000 20.7499
#
#
#
# Elastic Compliance Matrix: (Units=1/GPa)
#
#
# Indices 1 2 3 4 5 6 
#
# 1 0.019133 -0.004963 -0.000706 0.000000 0.000000 0.000000
# 2 -0.004963 0.019133 -0.000706 0.000000 0.000000 0.000000
# 3 -0.000706 -0.000706 0.021808 0.000000 0.000000 0.000000
# 4 0.000000 0.000000 0.000000 0.059048 0.000000 0.000000
# 5 0.000000 0.000000 0.000000 0.000000 0.059048 0.000000
# 6 0.000000 0.000000 0.000000 0.000000 0.000000 0.048193
#
#
# Mechanical properties :
#
#
# Convention : Reuss Voigt Hill
#
# Bulk Modulus (GPa) = 21.13126 21.86382 21.49754
# Shear Modulus (GPa) = 19.61633 20.19531 19.90582
#
# Velocity S-wave (km/s) = 2.80695 2.84807 2.82759
# Velocity P-wave (km/s) = 4.35807 4.42686 4.39260
#
# Compressibility (1/GPa) = 0.04732326
#
# Stress axis : x y z
#
# Youngs Moduli (GPa) = 52.26516 52.26516 45.85488
#
# Poissons Ratio (x) = 0.25941 0.03238
# Poissons Ratio (y) = 0.25941 0.03238
# Poissons Ratio (z) = 0.03690 0.03690
#
# Static dielectric constant tensor:
#      x y z
#    x 2.077000 0.000000 0.000000 
#    y 0.000000 2.077000 0.000000 
#    z 0.000000 0.000000 1.949500 
# 
# From -- ./inp_files/924.got.cif
#   From: 2010.05.17/outbox.cif.g08.bks.cpg/sg169_cif.got.tgz:924.got - 2010.05.20 11:12:54.
