data_PCOD9579192
_publ_section_title
;
Structure prediction by ZEFSAII (Michael W. Deem and Ramdas Pophale) SiO2 
 PCOD9579192
Probable space group: R -3 M
;
_chemical_formula_sum "Si O2"
_cell_formula_units_Z 216
_cell_length_a 25.390205
_cell_length_b 25.390205
_cell_length_c 22.921018
_cell_angle_alpha 90.000000
_cell_angle_beta 90.000000
_cell_angle_gamma 120.000000
_cell_volume 12796.669356
_symmetry_space_group_name_H-M "R -3 M"
_symmetry_group_IT_number 166
_symmetry_cell_setting 'hexagonal'
loop_
_space_group_symop_operation_xyz
x,y,z
-y,x-y,z
-x+y,-x,z
x-y,-y,-z
-x,-x+y,-z
y,x,-z
-x,-y,-z
y,-x+y,-z
x-y,x,-z
-x+y,y,z
x,x-y,z
-y,-x,z
2/3+x,1/3+y,1/3+z
2/3-y,1/3+x-y,1/3+z
2/3-x+y,1/3-x,1/3+z
2/3+x-y,1/3-y,1/3-z
2/3-x,1/3-x+y,1/3-z
2/3+y,1/3+x,1/3-z
2/3-x,1/3-y,1/3-z
2/3+y,1/3-x+y,1/3-z
2/3+x-y,1/3+x,1/3-z
2/3-x+y,1/3+y,1/3+z
2/3+x,1/3+x-y,1/3+z
2/3-y,1/3-x,1/3+z
1/3+x,2/3+y,2/3+z
1/3-y,2/3+x-y,2/3+z
1/3-x+y,2/3-x,2/3+z
1/3+x-y,2/3-y,2/3-z
1/3-x,2/3-x+y,2/3-z
1/3+y,2/3+x,2/3-z
1/3-x,2/3-y,2/3-z
1/3+y,2/3-x+y,2/3-z
1/3+x-y,2/3+x,2/3-z
1/3-x+y,2/3+y,2/3+z
1/3+x,2/3+x-y,2/3+z
1/3-y,2/3-x,2/3+z
loop_
_atom_site_type_symbol
_atom_site_label
_atom_site_fract_x
_atom_site_fract_y
_atom_site_fract_z
Si Si1 0.339563 0.402461 0.310408
Si Si2 0.454639 0.090106 0.461402
Si Si3 0.881021 0.999664 0.930648
Si Si4 0.371901 0.125120 0.080962
Si Si5 0.722027 0.156360 0.792999
Si Si6 0.343538 0.233231 0.449791
O O1 0.300691 0.333334 0.333334
O O2 0.367853 0.443300 0.367445
O O3 0.301747 0.421365 0.267365
O O4 0.398234 0.415125 0.271832
O O5 0.509778 0.150087 0.434222
O O6 0.469131 0.070086 0.522809
O O7 0.401569 0.106224 0.469353
O O8 0.431625 0.030111 0.421142
O O9 0.904803 0.952402 0.920983
O O10 0.932604 0.067397 0.913002
O O11 0.870403 0.000000 0.000000
O O12 0.367774 0.183887 0.064051
O O13 0.774843 0.225158 0.783995
O O14 0.666667 0.149211 0.833334
O O15 0.750145 0.123179 0.832138
O O16 0.355825 0.177913 0.436265
#
# Coordination Sequence:
#
# PCOD9579192 Si02
#       6
#    36  36  36  36  36  36
#     4  11  20  34  54  79 110 146 180 221 270 324
#     4  11  21  36  52  75 105 145 185 223 270 323
#     4  10  21  36  54  75 100 133 178 234 284 321
#     4  11  23  36  52  75 109 148 183 222 270 332
#     4   9  20  37  59  84 113 146 181 224 275 327
#     4  10  20  34  53  79 110 143 184 224 266 321
#
# _framework density 16.879390999999998
#
# number of rings (size 3 to 8) (size 9 to 14) (size 15 to 20)
#    0.000    1.667    1.667    4.167    7.000    1.667 
#    0.000    1.667    0.000    0.167    0.000    0.000 
#    0.000    0.000    0.000    0.000    0.000    0.000 
#
# Total GULP energy -401774.684899 kJ/mol
# GULP energy per Si atom -5580.203957 kJ/mol
# Density = 1.684097 g / cm^3
# Si number density = 16.879391 Si / 1000 Ang^3
#
#
#
# Elastic Constant Matrix: (Units=GPa)
#
#
# Indices 1 2 3 4 5 6 
#
# 1 96.3922 61.1892 36.2837 5.7314 0.0004 0.0000
# 2 61.1892 96.3922 36.2837 -5.7314 -0.0004 0.0000
# 3 36.2837 36.2837 76.0210 0.0000 0.0000 0.0000
# 4 5.7314 -5.7314 0.0000 16.3160 0.0000 -0.0004
# 5 0.0004 -0.0004 0.0000 0.0000 16.3160 5.7314
# 6 0.0000 0.0000 0.0000 -0.0004 5.7314 17.6015
#
#
#
# Elastic Compliance Matrix: (Units=1/GPa)
#
#
# Indices 1 2 3 4 5 6 
#
# 1 0.020105 -0.011971 -0.003882 -0.011267 -0.000001 0.000000
# 2 -0.011971 0.020105 -0.003882 0.011267 0.000001 0.000000
# 3 -0.003882 -0.003882 0.016860 0.000000 0.000000 0.000000
# 4 -0.011267 0.011267 0.000000 0.069205 0.000000 0.000002
# 5 -0.000001 0.000001 0.000000 0.000000 0.069205 -0.022534
# 6 0.000000 0.000000 0.000000 0.000002 -0.022534 0.064151
#
#
# Mechanical properties :
#
#
# Convention : Reuss Voigt Hill
#
# Bulk Modulus (GPa) = 56.82145 59.59096 58.20620
# Shear Modulus (GPa) = 16.39521 19.04995 17.72258
#
# Velocity S-wave (km/s) = 3.11997 3.36310 3.24381
# Velocity P-wave (km/s) = 6.83486 7.10360 6.97053
#
# Compressibility (1/GPa) = 0.01759899
#
# Stress axis : x y z
#
# Youngs Moduli (GPa) = 49.73986 49.73986 59.31210
#
# Poissons Ratio (x) = 0.59543 0.23025
# Poissons Ratio (y) = 0.59543 0.23025
# Poissons Ratio (z) = 0.19309 0.19309
#
# Static dielectric constant tensor:
#      x y z
#    x 1.565660 0.000000 0.000000 
#    y 0.000000 1.565660 0.000000 
#    z 0.000000 0.000000 1.570030 
# 
# From -- ./inp_files/8437.got.cif
#   From: 2010.05.17/outbox.cif.g08.bks.cpg/sg166_5_cif.got.tgz:8437.got - 2010.05.20 11:04:41.
