data_PCOD9579033
_publ_section_title
;
Structure prediction by ZEFSAII (Michael W. Deem and Ramdas Pophale) SiO2 
 PCOD9579033
Probable space group: R -3 M
;
_chemical_formula_sum "Si O2"
_cell_formula_units_Z 252
_cell_length_a 31.669387
_cell_length_b 31.669387
_cell_length_c 17.679143
_cell_angle_alpha 90.000000
_cell_angle_beta 90.000000
_cell_angle_gamma 120.000000
_cell_volume 15355.754304
_symmetry_space_group_name_H-M "R -3 M"
_symmetry_group_IT_number 166
_symmetry_cell_setting 'hexagonal'
loop_
_space_group_symop_operation_xyz
x,y,z
-y,x-y,z
-x+y,-x,z
x-y,-y,-z
-x,-x+y,-z
y,x,-z
-x,-y,-z
y,-x+y,-z
x-y,x,-z
-x+y,y,z
x,x-y,z
-y,-x,z
2/3+x,1/3+y,1/3+z
2/3-y,1/3+x-y,1/3+z
2/3-x+y,1/3-x,1/3+z
2/3+x-y,1/3-y,1/3-z
2/3-x,1/3-x+y,1/3-z
2/3+y,1/3+x,1/3-z
2/3-x,1/3-y,1/3-z
2/3+y,1/3-x+y,1/3-z
2/3+x-y,1/3+x,1/3-z
2/3-x+y,1/3+y,1/3+z
2/3+x,1/3+x-y,1/3+z
2/3-y,1/3-x,1/3+z
1/3+x,2/3+y,2/3+z
1/3-y,2/3+x-y,2/3+z
1/3-x+y,2/3-x,2/3+z
1/3+x-y,2/3-y,2/3-z
1/3-x,2/3-x+y,2/3-z
1/3+y,2/3+x,2/3-z
1/3-x,2/3-y,2/3-z
1/3+y,2/3-x+y,2/3-z
1/3+x-y,2/3+x,2/3-z
1/3-x+y,2/3+y,2/3+z
1/3+x,2/3+x-y,2/3+z
1/3-y,2/3-x,2/3+z
loop_
_atom_site_type_symbol
_atom_site_label
_atom_site_fract_x
_atom_site_fract_y
_atom_site_fract_z
Si Si1 0.334199 0.762024 0.329952
Si Si2 0.189310 0.477874 0.110572
Si Si3 0.524162 0.946972 0.334507
Si Si4 0.853483 0.473948 0.280131
Si Si5 0.945457 0.716601 0.000222
Si Si6 0.253762 0.842795 0.828724
Si Si7 0.311224 0.782952 0.835489
O O1 0.369875 0.739750 0.323193
O O2 0.279083 0.720918 0.317115
O O3 0.353901 0.806388 0.272294
O O4 0.342669 0.784940 0.413348
O O5 0.236142 0.472284 0.139435
O O6 0.154799 0.488133 0.166667
O O7 0.157965 0.432024 0.054626
O O8 0.476859 0.953719 0.336715
O O9 0.533495 0.938069 0.421886
O O10 0.570961 0.996784 0.309116
O O11 0.857102 0.428551 0.310413
O O12 0.824077 0.490744 0.333334
O O13 0.907987 0.520169 0.280669
O O14 0.819250 0.458130 0.206898
O O15 0.935199 0.726951 0.086529
O O16 0.000000 0.726056 0.000000
O O17 0.196827 0.803174 0.821280
O O18 0.282299 0.812696 0.831810
O O19 0.271915 0.728086 0.806010
#
# Coordination Sequence:
#
# PCOD9579033 Si02
#       7
#    36  36  36  36  36  36  36
#     4  10  19  32  51  76 105 135 171 211 252 293
#     4  10  20  35  55  77 102 132 169 211 257 308
#     4  10  20  35  56  77  99 130 169 210 254 307
#     4  11  20  30  46  68 100 137 171 207 243 288
#     4  11  21  32  50  78 106 129 160 207 261 308
#     4  10  17  32  53  75  99 127 165 208 251 296
#     4  10  18  31  49  71  99 135 173 204 241 291
#
# _framework density 16.410786000000002
#
# number of rings (size 3 to 8) (size 9 to 14) (size 15 to 20)
#    0.000    1.714    4.286    3.143    0.000    1.143 
#    0.000    1.429    0.000    5.714    0.000    0.000 
#    0.000    8.000    0.000    0.000    0.000    0.000 
#
# Total GULP energy -467741.274712 kJ/mol
# GULP energy per Si atom -5568.348508 kJ/mol
# Density = 1.637343 g / cm^3
# Si number density = 16.410786 Si / 1000 Ang^3
#
#
#
# Elastic Constant Matrix: (Units=GPa)
#
#
# Indices 1 2 3 4 5 6 
#
# 1 81.2710 32.5152 21.1349 2.9490 0.0001 0.0000
# 2 32.5152 81.2710 21.1349 -2.9489 -0.0001 0.0000
# 3 21.1349 21.1349 46.3742 0.0000 0.0001 0.0000
# 4 2.9490 -2.9489 0.0000 -30.2273 0.0000 -0.0001
# 5 0.0001 -0.0001 0.0001 0.0000 -30.2271 2.9489
# 6 0.0000 0.0000 0.0000 -0.0001 2.9489 24.3779
#
#
#
# Elastic Compliance Matrix: (Units=1/GPa)
#
#
# Indices 1 2 3 4 5 6 
#
# 1 0.015425 -0.004846 -0.004822 0.001978 0.000000 0.000000
# 2 -0.004846 0.015425 -0.004822 -0.001978 0.000000 0.000000
# 3 -0.004822 -0.004822 0.025959 0.000000 0.000000 0.000000
# 4 0.001978 -0.001978 0.000000 -0.032697 0.000000 0.000000
# 5 0.000000 0.000000 0.000000 0.000000 -0.032697 0.003955
# 6 0.000000 0.000000 0.000000 0.000000 0.003955 0.040542
#
#
# Mechanical properties :
#
#
# Convention : Reuss Voigt Hill
#
# Bulk Modulus (GPa) = 35.93077 39.83179 37.88128
# Shear Modulus (GPa) = 71.21206 1.72679 36.46942
#
# Velocity S-wave (km/s) = 6.59452 1.02689 4.71922
# Velocity P-wave (km/s) = 8.94012 5.07252 7.26829
#
# Compressibility (1/GPa) = 0.02783130
#
# Stress axis : x y z
#
# Youngs Moduli (GPa) = 64.82834 64.82834 38.52290
#
# Poissons Ratio (x) = 0.31414 0.18574
# Poissons Ratio (y) = 0.31414 0.18574
# Poissons Ratio (z) = 0.31258 0.31258
#
# Static dielectric constant tensor:
#      x y z
#    x 1.588220 0.000000 0.000000 
#    y 0.000000 1.588220 0.000000 
#    z 0.000000 0.000000 1.599350 
# 
# From -- ./inp_files/5813.got.cif
#   From: 2010.05.17/outbox.cif.g08.bks.cpg/sg166_3_cif.got.tgz:5813.got - 2010.05.20 11:04:41.
