data_PCOD9579532
_publ_section_title
;
Structure prediction by ZEFSAII (Michael W. Deem and Ramdas Pophale) SiO2 
 PCOD9579532
Probable space group: R -3 C 
;
_chemical_formula_sum "Si O2"
_cell_formula_units_Z 102
_cell_length_a 18.747534
_cell_length_b 18.747534
_cell_length_c 16.145780
_cell_angle_alpha 90.000000
_cell_angle_beta 90.000000
_cell_angle_gamma 120.000000
_cell_volume 4914.484414
_symmetry_space_group_name_H-M "R -3 C "
_symmetry_group_IT_number 167
_symmetry_cell_setting 'hexagonal'
loop_
_space_group_symop_operation_xyz
x,y,z
-y,x-y,z
-x+y,-x,z
x-y,-y,1/2-z
-x,-x+y,1/2-z
y,x,1/2-z
-x,-y,-z
y,-x+y,-z
x-y,x,-z
-x+y,y,1/2+z
x,x-y,1/2+z
-y,-x,1/2+z
2/3+x,1/3+y,1/3+z
2/3-y,1/3+x-y,1/3+z
2/3-x+y,1/3-x,1/3+z
2/3+x-y,1/3-y,5/6-z
2/3-x,1/3-x+y,5/6-z
2/3+y,1/3+x,5/6-z
2/3-x,1/3-y,1/3-z
2/3+y,1/3-x+y,1/3-z
2/3+x-y,1/3+x,1/3-z
2/3-x+y,1/3+y,5/6+z
2/3+x,1/3+x-y,5/6+z
2/3-y,1/3-x,5/6+z
1/3+x,2/3+y,2/3+z
1/3-y,2/3+x-y,2/3+z
1/3-x+y,2/3-x,2/3+z
1/3+x-y,2/3-y,1/6-z
1/3-x,2/3-x+y,1/6-z
1/3+y,2/3+x,1/6-z
1/3-x,2/3-y,2/3-z
1/3+y,2/3-x+y,2/3-z
1/3+x-y,2/3+x,2/3-z
1/3-x+y,2/3+y,1/6+z
1/3+x,2/3+x-y,1/6+z
1/3-y,2/3-x,1/6+z
loop_
_atom_site_type_symbol
_atom_site_label
_atom_site_fract_x
_atom_site_fract_y
_atom_site_fract_z
Si Si1 0.795044 0.519433 0.713143
Si Si2 0.000000 0.000000 0.101532
Si Si3 0.927099 0.593765 0.583334
Si Si4 0.391508 0.142444 0.850609
O O1 0.717354 0.428144 0.701872
O O2 0.842232 0.568850 0.631352
O O3 0.774567 0.575331 0.771095
O O4 0.862304 0.508311 0.765141
O O5 0.000000 0.000000 0.000000
O O6 0.949225 0.666423 0.518235
O O7 0.333334 0.154293 0.916667
#
# Coordination Sequence:
#
# PCOD9579532 Si02
#       4
#    36  12  18  36
#     4  11  21  40  62  90 120 161 207 251 310 360
#     4  12  21  40  68  88 117 166 203 259 300 361
#     4  10  24  38  58  92 126 158 200 256 304 378
#     4  10  21  37  60  86 120 159 203 247 307 366
#
# _framework density 20.754974000000001
#
# number of rings (size 3 to 8) (size 9 to 14) (size 15 to 20)
#    0.000    1.412    3.529    1.059    2.471    1.412 
#    0.000    0.000    0.000    0.000    0.000    0.000 
#    0.000    0.000    0.000    0.000    0.000    0.000 
#
# Total GULP energy -189704.196873 kJ/mol
# GULP energy per Si atom -5579.535202 kJ/mol
# Density = 2.070773 g / cm^3
# Si number density = 20.754974 Si / 1000 Ang^3
#
#
#
# Elastic Constant Matrix: (Units=GPa)
#
#
# Indices 1 2 3 4 5 6 
#
# 1 61.6286 21.0185 0.6282 8.5876 0.0001 0.0000
# 2 21.0185 61.6286 0.6282 -8.5876 -0.0001 0.0000
# 3 0.6282 0.6282 40.8766 0.0000 0.0000 0.0000
# 4 8.5876 -8.5876 0.0000 21.3503 0.0000 -0.0001
# 5 0.0001 -0.0001 0.0000 0.0000 21.3503 8.5876
# 6 0.0000 0.0000 0.0000 -0.0001 8.5876 20.3050
#
#
#
# Elastic Compliance Matrix: (Units=1/GPa)
#
#
# Indices 1 2 3 4 5 6 
#
# 1 0.020887 -0.008785 -0.000186 -0.011935 0.000000 0.000000
# 2 -0.008785 0.020887 -0.000186 0.011935 0.000000 0.000000
# 3 -0.000186 -0.000186 0.024470 0.000000 0.000000 0.000000
# 4 -0.011935 0.011935 0.000000 0.056439 0.000000 0.000000
# 5 0.000000 0.000000 0.000000 0.000000 0.056439 -0.023870
# 6 0.000000 0.000000 0.000000 0.000000 -0.023870 0.059344
#
#
# Mechanical properties :
#
#
# Convention : Reuss Voigt Hill
#
# Bulk Modulus (GPa) = 20.86352 23.18707 22.02529
# Shear Modulus (GPa) = 18.33143 22.05838 20.19491
#
# Velocity S-wave (km/s) = 2.97514 3.26360 3.12270
# Velocity P-wave (km/s) = 4.67719 5.03959 4.86177
#
# Compressibility (1/GPa) = 0.04793054
#
# Stress axis : x y z
#
# Youngs Moduli (GPa) = 47.87616 47.87616 40.86710
#
# Poissons Ratio (x) = 0.42058 0.00760
# Poissons Ratio (y) = 0.42058 0.00760
# Poissons Ratio (z) = 0.00890 0.00890
#
# Static dielectric constant tensor:
#      x y z
#    x 1.853020 0.000000 0.000000 
#    y 0.000000 1.853020 0.000000 
#    z 0.000000 0.000000 1.782180 
# 
# From -- ./inp_files/2090.got.cif
#   From: 2010.05.17/outbox.cif.g08.bks.cpg/sg167_2_cif.got.tgz:2090.got - 2010.05.20 11:09:15.
