data_PCOD9579909
_publ_section_title
;
Structure prediction by ZEFSAII (Michael W. Deem and Ramdas Pophale) SiO2 
 PCOD9579909
Probable space group: P 61
;
_chemical_formula_sum "Si O2"
_cell_formula_units_Z 36
_cell_length_a 15.874092
_cell_length_b 15.874092
_cell_length_c 7.476641
_cell_angle_alpha 90.000000
_cell_angle_beta 90.000000
_cell_angle_gamma 120.000000
_cell_volume 1631.604692
_symmetry_space_group_name_H-M "P 61"
_symmetry_group_IT_number 169
_symmetry_cell_setting 'hexagonal'
loop_
_space_group_symop_operation_xyz
x,y,z
x-y,x,1/6+z
-y,x-y,1/3+z
-x,-y,1/2+z
-x+y,-x,2/3+z
y,-x+y,5/6+z
loop_
_atom_site_type_symbol
_atom_site_label
_atom_site_fract_x
_atom_site_fract_y
_atom_site_fract_z
Si Si1 0.289068 0.602266 0.327360
Si Si2 0.988503 0.361694 0.202394
Si Si3 0.483107 0.911316 0.032002
Si Si4 0.714535 0.594130 0.902164
Si Si5 0.974855 0.808803 0.624031
Si Si6 0.797865 0.920423 0.836305
O O1 0.380268 0.676560 0.448281
O O2 0.203728 0.621084 0.389133
O O3 0.265425 0.494701 0.376962
O O4 0.919463 0.296626 0.366538
O O5 0.023284 0.291956 0.109863
O O6 0.056332 0.460985 0.312731
O O7 0.950315 0.401107 0.040737
O O8 0.550000 0.932412 0.856210
O O9 0.793533 0.686101 0.014493
O O10 0.902881 0.820317 0.486231
O O11 0.926527 0.800859 0.815057
O O12 0.833480 0.868692 0.975865
#
# Coordination Sequence:
#
# PCOD9579909 Si02
#       6
#     6   6   6   6   6   6
#     4  10  22  41  62  93 126 168 213 266 329 399
#     4  12  22  42  64  98 134 176 222 279 342 408
#     4  11  25  39  65  98 129 175 226 271 338 418
#     4  11  22  41  68  93 133 174 216 281 344 401
#     4  10  21  41  70  99 133 189 234 288 366 424
#     4  10  20  40  69  97 129 184 229 283 357 414
#
# _framework density 22.064170000000001
#
# number of rings (size 3 to 8) (size 9 to 14) (size 15 to 20)
#    0.000    1.333    5.000    2.000    0.000    0.000 
#    0.000   13.333    0.000    0.000    0.000    0.000 
#    0.000    0.000    0.000    0.000    0.000    0.000 
#
# Total GULP energy -200630.211184 kJ/mol
# GULP energy per Si atom -5573.061422 kJ/mol
# Density = 2.201395 g / cm^3
# Si number density = 22.064170 Si / 1000 Ang^3
#
#
#
# Elastic Constant Matrix: (Units=GPa)
#
#
# Indices 1 2 3 4 5 6 
#
# 1 110.6395 57.6701 10.4568 0.0000 0.0000 0.0000
# 2 57.6701 110.6395 10.4568 0.0000 0.0000 0.0000
# 3 10.4568 10.4568 58.3429 0.0000 0.0000 0.0000
# 4 0.0000 0.0000 0.0000 -24.9438 0.0000 0.0000
# 5 0.0000 0.0000 0.0000 0.0000 -24.9438 0.0000
# 6 0.0000 0.0000 0.0000 0.0000 0.0000 26.4847
#
#
#
# Elastic Compliance Matrix: (Units=1/GPa)
#
#
# Indices 1 2 3 4 5 6 
#
# 1 0.012478 -0.006401 -0.001089 0.000000 0.000000 0.000000
# 2 -0.006401 0.012478 -0.001089 0.000000 0.000000 0.000000
# 3 -0.001089 -0.001089 0.017530 0.000000 0.000000 0.000000
# 4 0.000000 0.000000 0.000000 -0.040090 0.000000 0.000000
# 5 0.000000 0.000000 0.000000 0.000000 -0.040090 0.000000
# 6 0.000000 0.000000 0.000000 0.000000 0.000000 0.037758
#
#
# Mechanical properties :
#
#
# Convention : Reuss Voigt Hill
#
# Bulk Modulus (GPa) = 39.48287 48.53214 44.00751
# Shear Modulus (GPa) = 194.82103 8.72196 101.77149
#
# Velocity S-wave (km/s) = 9.40687 1.99037 6.79892
# Velocity P-wave (km/s) = 11.65843 5.22740 9.03451
#
# Compressibility (1/GPa) = 0.02532744
#
# Stress axis : x y z
#
# Youngs Moduli (GPa) = 80.14234 80.14234 57.04353
#
# Poissons Ratio (x) = 0.51299 0.06213
# Poissons Ratio (y) = 0.51299 0.06213
# Poissons Ratio (z) = 0.08729 0.08729
#
# Static dielectric constant tensor:
#      x y z
#    x 1.843610 0.000000 0.000000 
#    y 0.000000 1.843610 0.000000 
#    z 0.000000 0.000000 1.833900 
# 
# From -- ./inp_files/608.got.cif
#   From: 2010.05.17/outbox.cif.g08.bks.cpg/sg169_cif.got.tgz:608.got - 2010.05.20 11:12:54.
