data_PCOD9579244
_publ_section_title
;
Structure prediction by ZEFSAII (Michael W. Deem and Ramdas Pophale) SiO2 
 PCOD9579244
Probable space group: R -3 M
;
_chemical_formula_sum "Si O2"
_cell_formula_units_Z 144
_cell_length_a 32.472246
_cell_length_b 32.472246
_cell_length_c 7.681999
_cell_angle_alpha 90.000000
_cell_angle_beta 90.000000
_cell_angle_gamma 120.000000
_cell_volume 7015.030035
_symmetry_space_group_name_H-M "R -3 M"
_symmetry_group_IT_number 166
_symmetry_cell_setting 'hexagonal'
loop_
_space_group_symop_operation_xyz
x,y,z
-y,x-y,z
-x+y,-x,z
x-y,-y,-z
-x,-x+y,-z
y,x,-z
-x,-y,-z
y,-x+y,-z
x-y,x,-z
-x+y,y,z
x,x-y,z
-y,-x,z
2/3+x,1/3+y,1/3+z
2/3-y,1/3+x-y,1/3+z
2/3-x+y,1/3-x,1/3+z
2/3+x-y,1/3-y,1/3-z
2/3-x,1/3-x+y,1/3-z
2/3+y,1/3+x,1/3-z
2/3-x,1/3-y,1/3-z
2/3+y,1/3-x+y,1/3-z
2/3+x-y,1/3+x,1/3-z
2/3-x+y,1/3+y,1/3+z
2/3+x,1/3+x-y,1/3+z
2/3-y,1/3-x,1/3+z
1/3+x,2/3+y,2/3+z
1/3-y,2/3+x-y,2/3+z
1/3-x+y,2/3-x,2/3+z
1/3+x-y,2/3-y,2/3-z
1/3-x,2/3-x+y,2/3-z
1/3+y,2/3+x,2/3-z
1/3-x,2/3-y,2/3-z
1/3+y,2/3-x+y,2/3-z
1/3+x-y,2/3+x,2/3-z
1/3-x+y,2/3+y,2/3+z
1/3+x,2/3+x-y,2/3+z
1/3-y,2/3-x,2/3+z
loop_
_atom_site_type_symbol
_atom_site_label
_atom_site_fract_x
_atom_site_fract_y
_atom_site_fract_z
Si Si1 0.385393 0.300154 0.091113
Si Si2 0.519663 0.387962 0.489296
Si Si3 0.451633 0.050893 0.967508
Si Si4 0.180570 0.134655 0.746470
O O1 0.333334 0.278193 0.166667
O O2 0.418292 0.283534 0.188465
O O3 0.412461 0.357254 0.085148
O O4 0.384473 0.281797 0.896349
O O5 0.561201 0.438800 0.553941
O O6 0.531723 0.382547 0.290446
O O7 0.513754 0.344463 0.610962
O O8 0.500110 0.099293 0.006544
O O9 0.446915 0.000000 0.000000
O O10 0.160849 0.080425 0.687910
#
# Coordination Sequence:
#
# PCOD9579244 Si02
#       4
#    36  36  36  36
#     4  10  21  33  50  73 102 137 176 217 255 300
#     4   9  18  34  54  75 100 132 170 211 259 313
#     4  10  21  33  49  74 101 137 176 215 258 298
#     4   9  18  34  54  75 101 132 169 212 259 312
#
# _framework density 20.527352
#
# number of rings (size 3 to 8) (size 9 to 14) (size 15 to 20)
#    0.000    2.500    0.000    1.500    3.500    4.000 
#    0.000    0.000    0.000    0.500    0.000    3.500 
#    0.000    0.000    0.000   12.500    0.000   13.000 
#
# Total GULP energy -267915.708189 kJ/mol
# GULP energy per Si atom -5581.577254 kJ/mol
# Density = 2.048063 g / cm^3
# Si number density = 20.527352 Si / 1000 Ang^3
#
#
#
# Elastic Constant Matrix: (Units=GPa)
#
#
# Indices 1 2 3 4 5 6 
#
# 1 65.5707 54.6427 9.9422 -1.7478 -0.0694 0.0265
# 2 54.6427 65.4370 10.1083 1.7076 0.0809 0.0033
# 3 9.9422 10.1083 35.3732 -0.0081 -0.1326 -0.0064
# 4 -1.7478 1.7076 -0.0081 12.7410 0.0212 -0.0700
# 5 -0.0694 0.0809 -0.1326 0.0212 12.7934 -1.8286
# 6 0.0265 0.0033 -0.0064 -0.0700 -1.8286 5.5069
#
#
#
# Elastic Compliance Matrix: (Units=1/GPa)
#
#
# Indices 1 2 3 4 5 6 
#
# 1 0.052393 -0.043749 -0.002219 0.013049 0.000533 0.000115
# 2 -0.043749 0.052578 -0.002734 -0.013050 -0.000604 -0.000191
# 3 -0.002219 -0.002734 0.029676 0.000081 0.000335 0.000159
# 4 0.013049 -0.013050 0.000081 0.082031 0.000167 0.001044
# 5 0.000533 -0.000604 0.000335 0.000167 0.082070 0.027251
# 6 0.000115 -0.000191 0.000159 0.001044 0.027251 0.190652
#
#
# Mechanical properties :
#
#
# Convention : Reuss Voigt Hill
#
# Bulk Modulus (GPa) = 26.85023 35.08523 30.96773
# Shear Modulus (GPa) = 8.34421 12.32080 10.33250
#
# Velocity S-wave (km/s) = 2.01835 2.45258 2.24599
# Velocity P-wave (km/s) = 4.30584 5.01490 4.67384
#
# Compressibility (1/GPa) = 0.03724364
#
# Stress axis : x y z
#
# Youngs Moduli (GPa) = 19.08642 19.01948 33.69703
#
# Poissons Ratio (x) = 0.83208 0.07478
# Poissons Ratio (y) = 0.83501 0.09211
# Poissons Ratio (z) = 0.04236 0.05199
#
# Static dielectric constant tensor:
#      x y z
#    x 1.755140 0.000010 -0.000210 
#    y 0.000010 1.755190 -0.000010 
#    z -0.000210 -0.000010 1.806110 
# 
# From -- ./inp_files/1756.got.cif
#   From: 2010.05.17/outbox.cif.g08.bks.cpg/sg166_1_cif.got.tgz:1756.got - 2010.05.20 11:04:41.
