data_PCOD9579603
_publ_section_title
;
Structure prediction by ZEFSAII (Michael W. Deem and Ramdas Pophale) SiO2 
 PCOD9579603
Probable space group: R -3 C 
;
_chemical_formula_sum "Si O2"
_cell_formula_units_Z 162
_cell_length_a 21.558724
_cell_length_b 21.558724
_cell_length_c 18.768454
_cell_angle_alpha 90.000000
_cell_angle_beta 90.000000
_cell_angle_gamma 120.000000
_cell_volume 7554.491505
_symmetry_space_group_name_H-M "R -3 C "
_symmetry_group_IT_number 167
_symmetry_cell_setting 'hexagonal'
loop_
_space_group_symop_operation_xyz
x,y,z
-y,x-y,z
-x+y,-x,z
x-y,-y,1/2-z
-x,-x+y,1/2-z
y,x,1/2-z
-x,-y,-z
y,-x+y,-z
x-y,x,-z
-x+y,y,1/2+z
x,x-y,1/2+z
-y,-x,1/2+z
2/3+x,1/3+y,1/3+z
2/3-y,1/3+x-y,1/3+z
2/3-x+y,1/3-x,1/3+z
2/3+x-y,1/3-y,5/6-z
2/3-x,1/3-x+y,5/6-z
2/3+y,1/3+x,5/6-z
2/3-x,1/3-y,1/3-z
2/3+y,1/3-x+y,1/3-z
2/3+x-y,1/3+x,1/3-z
2/3-x+y,1/3+y,5/6+z
2/3+x,1/3+x-y,5/6+z
2/3-y,1/3-x,5/6+z
1/3+x,2/3+y,2/3+z
1/3-y,2/3+x-y,2/3+z
1/3-x+y,2/3-x,2/3+z
1/3+x-y,2/3-y,1/6-z
1/3-x,2/3-x+y,1/6-z
1/3+y,2/3+x,1/6-z
1/3-x,2/3-y,2/3-z
1/3+y,2/3-x+y,2/3-z
1/3+x-y,2/3+x,2/3-z
1/3-x+y,2/3+y,1/6+z
1/3+x,2/3+x-y,1/6+z
1/3-y,2/3-x,1/6+z
loop_
_atom_site_type_symbol
_atom_site_label
_atom_site_fract_x
_atom_site_fract_y
_atom_site_fract_z
Si Si1 0.871007 0.982510 0.452737
Si Si2 0.957001 0.523102 0.399355
Si Si3 0.915971 0.666667 0.916667
Si Si4 0.608118 0.066814 0.987206
Si Si5 0.940603 0.872507 0.201650
O O1 0.865057 0.921277 0.506974
O O2 0.791145 0.964446 0.433510
O O3 0.900365 0.973970 0.376492
O O4 0.961421 0.456752 0.431599
O O5 0.979160 0.533094 0.318154
O O6 0.009977 0.588535 0.449433
O O7 0.921149 0.598498 0.944625
O O8 0.606802 0.136153 0.019572
O O9 0.922196 0.922196 0.250000
O O10 0.000000 0.866224 0.250000
#
# Coordination Sequence:
#
# PCOD9579603 Si02
#       5
#    36  36  18  36  36
#     4  11  23  41  64  95 134 167 223 279 337 414
#     4  10  22  43  64  97 132 175 223 274 347 403
#     4  12  22  44  74  94 132 182 222 290 340 396
#     4  10  24  45  65 100 138 170 234 284 334 417
#     4  11  22  39  65  95 131 175 220 271 342 406
#
# _framework density 21.444196999999999
#
# number of rings (size 3 to 8) (size 9 to 14) (size 15 to 20)
#    0.000    1.333    0.000    6.444    0.000    1.778 
#   26.000    0.000    0.000    0.000    0.000    0.000 
#    0.000    0.000    0.000    0.000    0.000    0.000 
#
# Total GULP energy -301493.104380 kJ/mol
# GULP energy per Si atom -5583.205637 kJ/mol
# Density = 2.139539 g / cm^3
# Si number density = 21.444197 Si / 1000 Ang^3
#
#
#
# Elastic Constant Matrix: (Units=GPa)
#
#
# Indices 1 2 3 4 5 6 
#
# 1 88.3884 37.2509 54.4603 16.5488 0.0011 0.0000
# 2 37.2509 88.3884 54.4603 -16.5488 -0.0011 0.0000
# 3 54.4603 54.4603 206.8850 0.0000 0.0000 0.0000
# 4 16.5488 -16.5488 0.0000 29.6798 0.0000 -0.0011
# 5 0.0011 -0.0011 0.0000 0.0000 29.6798 16.5488
# 6 0.0000 0.0000 0.0000 -0.0011 16.5488 25.5687
#
#
#
# Elastic Compliance Matrix: (Units=1/GPa)
#
#
# Indices 1 2 3 4 5 6 
#
# 1 0.020455 -0.010142 -0.002715 -0.017060 -0.000001 0.000000
# 2 -0.010142 0.020455 -0.002715 0.017060 0.000001 0.000000
# 3 -0.002715 -0.002715 0.006263 0.000000 0.000000 0.000000
# 4 -0.017060 0.017060 0.000000 0.052718 0.000000 0.000002
# 5 -0.000001 0.000001 0.000000 0.000000 0.052718 -0.034121
# 6 0.000000 0.000000 0.000000 0.000002 -0.034121 0.061194
#
#
# Mechanical properties :
#
#
# Convention : Reuss Voigt Hill
#
# Bulk Modulus (GPa) = 62.38502 75.11163 68.74833
# Shear Modulus (GPa) = 19.97688 32.81834 26.39761
#
# Velocity S-wave (km/s) = 3.05548 3.91628 3.51235
# Velocity P-wave (km/s) = 6.45003 7.45334 6.96976
#
# Compressibility (1/GPa) = 0.01602949
#
# Stress axis : x y z
#
# Youngs Moduli (GPa) = 48.88794 48.88794 159.67173
#
# Poissons Ratio (x) = 0.49583 0.43347
# Poissons Ratio (y) = 0.49583 0.43347
# Poissons Ratio (z) = 0.13272 0.13272
#
# Static dielectric constant tensor:
#      x y z
#    x 1.850890 0.000000 0.000000 
#    y 0.000000 1.850890 0.000000 
#    z 0.000000 0.000000 1.767590 
# 
# From -- ./inp_files/3477.got.cif
#   From: 2010.05.17/outbox.cif.g08.bks.cpg/sg167_2_cif.got.tgz:3477.got - 2010.05.20 11:09:15.
