data_PCOD9579616
_publ_section_title
;
Structure prediction by ZEFSAII (Michael W. Deem and Ramdas Pophale) SiO2 
 PCOD9579616
Probable space group: R -3 C 
;
_chemical_formula_sum "Si O2"
_cell_formula_units_Z 204
_cell_length_a 20.501828
_cell_length_b 20.501828
_cell_length_c 27.001242
_cell_angle_alpha 90.000000
_cell_angle_beta 90.000000
_cell_angle_gamma 120.000000
_cell_volume 9828.778417
_symmetry_space_group_name_H-M "R -3 C "
_symmetry_group_IT_number 167
_symmetry_cell_setting 'hexagonal'
loop_
_space_group_symop_operation_xyz
x,y,z
-y,x-y,z
-x+y,-x,z
x-y,-y,1/2-z
-x,-x+y,1/2-z
y,x,1/2-z
-x,-y,-z
y,-x+y,-z
x-y,x,-z
-x+y,y,1/2+z
x,x-y,1/2+z
-y,-x,1/2+z
2/3+x,1/3+y,1/3+z
2/3-y,1/3+x-y,1/3+z
2/3-x+y,1/3-x,1/3+z
2/3+x-y,1/3-y,5/6-z
2/3-x,1/3-x+y,5/6-z
2/3+y,1/3+x,5/6-z
2/3-x,1/3-y,1/3-z
2/3+y,1/3-x+y,1/3-z
2/3+x-y,1/3+x,1/3-z
2/3-x+y,1/3+y,5/6+z
2/3+x,1/3+x-y,5/6+z
2/3-y,1/3-x,5/6+z
1/3+x,2/3+y,2/3+z
1/3-y,2/3+x-y,2/3+z
1/3-x+y,2/3-x,2/3+z
1/3+x-y,2/3-y,1/6-z
1/3-x,2/3-x+y,1/6-z
1/3+y,2/3+x,1/6-z
1/3-x,2/3-y,2/3-z
1/3+y,2/3-x+y,2/3-z
1/3+x-y,2/3+x,2/3-z
1/3-x+y,2/3+y,1/6+z
1/3+x,2/3+x-y,1/6+z
1/3-y,2/3-x,1/6+z
loop_
_atom_site_type_symbol
_atom_site_label
_atom_site_fract_x
_atom_site_fract_y
_atom_site_fract_z
Si Si1 0.051528 0.589261 0.503384
Si Si2 0.703586 0.000000 0.250000
Si Si3 0.245702 0.412926 0.608648
Si Si4 0.649228 0.982561 0.416667
Si Si5 0.000000 0.000000 0.807893
Si Si6 0.008057 0.122085 0.125596
Si Si7 0.897141 0.620621 0.330351
Si Si8 0.333334 0.666667 0.608048
O O1 0.040604 0.617361 0.450302
O O2 0.137132 0.617438 0.519528
O O3 0.000000 0.500000 0.500000
O O4 0.020972 0.625541 0.544139
O O5 0.693496 0.939160 0.206319
O O6 0.219864 0.333334 0.583334
O O7 0.255845 0.472068 0.566182
O O8 0.182935 0.397874 0.649044
O O9 0.326690 0.442995 0.633139
O O10 0.717222 0.012711 0.456045
O O11 0.082517 0.053902 0.830669
O O12 0.000000 0.000000 0.750000
O O13 0.977565 0.058665 0.082235
O O14 0.333335 0.666668 0.666667
#
# Coordination Sequence:
#
# PCOD9579616 Si02
#       8
#    36  18  36  18  12  36  36  12
#     4  11  24  45  69  97 139 179 225 285 352 419
#     4  10  22  47  62 100 143 170 226 288 336 434
#     4  12  24  42  71  99 141 184 225 295 356 416
#     4  10  24  41  62  98 131 172 232 266 336 432
#     4  10  26  52  73  98 145 190 248 301 355 425
#     4  10  24  46  71 103 139 179 242 294 353 427
#     4  11  23  42  68  95 140 181 225 282 358 410
#     4  10  26  46  70 104 136 184 242 295 358 425
#
# _framework density 20.755375999999998
#
# number of rings (size 3 to 8) (size 9 to 14) (size 15 to 20)
#    0.000    1.412    3.529    1.059    6.176    4.235 
#    1.588    0.000    0.000    0.000    0.000    0.000 
#    0.000    0.000    0.000    0.000    0.000    0.000 
#
# Total GULP energy -378675.713184 kJ/mol
# GULP energy per Si atom -5568.760488 kJ/mol
# Density = 2.070814 g / cm^3
# Si number density = 20.755376 Si / 1000 Ang^3
#
#
#
# Elastic Constant Matrix: (Units=GPa)
#
#
# Indices 1 2 3 4 5 6 
#
# 1 44.7787 0.0691 8.0775 6.5299 0.0006 0.0000
# 2 0.0691 44.7791 8.0775 -6.5299 -0.0006 0.0000
# 3 8.0775 8.0775 134.3873 -0.0001 0.0000 0.0000
# 4 6.5299 -6.5299 -0.0001 36.5754 0.0000 -0.0006
# 5 0.0006 -0.0006 0.0000 0.0000 36.5753 6.5299
# 6 0.0000 0.0000 0.0000 -0.0006 6.5299 22.3548
#
#
#
# Elastic Compliance Matrix: (Units=1/GPa)
#
#
# Indices 1 2 3 4 5 6 
#
# 1 0.023194 -0.000403 -0.001370 -0.004213 0.000000 0.000000
# 2 -0.000403 0.023194 -0.001370 0.004213 0.000000 0.000000
# 3 -0.001370 -0.001370 0.007606 0.000000 0.000000 0.000000
# 4 -0.004213 0.004213 0.000000 0.028845 0.000000 0.000001
# 5 0.000000 0.000000 0.000000 0.000000 0.028845 -0.008426
# 6 0.000000 0.000000 0.000000 0.000001 -0.008426 0.047194
#
#
# Mechanical properties :
#
#
# Convention : Reuss Voigt Hill
#
# Bulk Modulus (GPa) = 20.96071 28.48815 24.72443
# Shear Modulus (GPa) = 27.61416 32.94919 30.28168
#
# Velocity S-wave (km/s) = 3.65150 3.98867 3.82380
# Velocity P-wave (km/s) = 5.28193 5.91338 5.60655
#
# Compressibility (1/GPa) = 0.04770831
#
# Stress axis : x y z
#
# Youngs Moduli (GPa) = 43.11441 43.11474 131.47762
#
# Poissons Ratio (x) = 0.01738 0.18011
# Poissons Ratio (y) = 0.01738 0.18011
# Poissons Ratio (z) = 0.05906 0.05906
#
# Static dielectric constant tensor:
#      x y z
#    x 1.759110 0.000000 0.000000 
#    y 0.000000 1.759110 0.000000 
#    z 0.000000 0.000000 1.779610 
# 
# From -- ./inp_files/6319.got.cif
#   From: 2010.05.17/outbox.cif.g08.bks.cpg/sg167_4_cif.got.tgz:6319.got - 2010.05.20 11:09:15.
