data_PCOD9579372
_publ_section_title
;
Structure prediction by ZEFSAII (Michael W. Deem and Ramdas Pophale) SiO2 
 PCOD9579372
Probable space group: R -3 M
;
_chemical_formula_sum "Si O2"
_cell_formula_units_Z 84
_cell_length_a 30.000000
_cell_length_b 30.000000
_cell_length_c 18.000000
_cell_angle_alpha 90.000000
_cell_angle_beta 90.000000
_cell_angle_gamma 120.000000
_cell_volume 14029.611541
_symmetry_space_group_name_H-M "R -3 M"
_symmetry_group_IT_number 166
_symmetry_cell_setting 'hexagonal'
loop_
_space_group_symop_operation_xyz
x,y,z
-y,x-y,z
-x+y,-x,z
x-y,-y,-z
-x,-x+y,-z
y,x,-z
-x,-y,-z
y,-x+y,-z
x-y,x,-z
-x+y,y,z
x,x-y,z
-y,-x,z
2/3+x,1/3+y,1/3+z
2/3-y,1/3+x-y,1/3+z
2/3-x+y,1/3-x,1/3+z
2/3+x-y,1/3-y,1/3-z
2/3-x,1/3-x+y,1/3-z
2/3+y,1/3+x,1/3-z
2/3-x,1/3-y,1/3-z
2/3+y,1/3-x+y,1/3-z
2/3+x-y,1/3+x,1/3-z
2/3-x+y,1/3+y,1/3+z
2/3+x,1/3+x-y,1/3+z
2/3-y,1/3-x,1/3+z
1/3+x,2/3+y,2/3+z
1/3-y,2/3+x-y,2/3+z
1/3-x+y,2/3-x,2/3+z
1/3+x-y,2/3-y,2/3-z
1/3-x,2/3-x+y,2/3-z
1/3+y,2/3+x,2/3-z
1/3-x,2/3-y,2/3-z
1/3+y,2/3-x+y,2/3-z
1/3+x-y,2/3+x,2/3-z
1/3-x+y,2/3+y,2/3+z
1/3+x,2/3+x-y,2/3+z
1/3-y,2/3-x,2/3+z
loop_
_atom_site_type_symbol
_atom_site_label
_atom_site_fract_x
_atom_site_fract_y
_atom_site_fract_z
Si Si1 0.851132 0.802025 0.594334
Si Si2 0.168471 0.440493 0.522196
Si Si3 0.952613 0.569469 0.631340
Si Si4 0.108694 0.605764 0.238366
Si Si5 0.116956 0.383880 0.379530
Si Si6 0.389279 0.508778 0.494108
Si Si7 0.478696 0.060100 0.350128
O O1 0.911743 0.823486 0.594116
O O2 0.830472 0.841891 0.591586
O O3 0.829627 0.769809 0.517295
O O4 0.825592 0.765055 0.664174
O O5 0.227972 0.455943 0.521535
O O6 0.138753 0.393662 0.463118
O O7 0.158541 0.486291 0.495440
O O8 0.147983 0.421817 0.606078
O O9 0.931500 0.544039 0.712049
O O10 0.933874 0.610446 0.618241
O O11 0.923309 0.525629 0.568025
O O12 0.012689 0.589907 0.632041
O O13 0.106063 0.553032 0.258502
O O14 0.104550 0.333334 0.333334
O O15 0.431122 0.568879 0.479725
O O16 0.400908 0.496511 0.576958
O O17 0.520378 0.040756 0.340797
#
# Coordination Sequence:
#
# PCOD9579372 Si02
#       7
#    36  36  36  36  36  36  36
#     4   9  18  31  48  68  95 129 164 203 246 297
#     4  10  22  37  54  78 106 137 174 215 260 311
#     4  10  20  34  52  76 103 132 174 213 254 298
#     4   9  17  30  49  72  95 123 163 208 250 294
#     4  10  22  36  49  72 103 140 173 207 253 302
#     4  10  20  36  57  78 103 136 173 214 262 312
#     4  10  20  34  54  78 104 135 173 215 257 306
#
# _framework density 5.987336
#
# number of rings (size 3 to 8) (size 9 to 14) (size 15 to 20)
#    0.000    2.286    0.000    2.571    2.000    3.429 
#    0.000    1.429    0.000    0.571    0.000    2.000 
#    0.000   10.286    0.000    0.286    0.000    1.143 
#
# Total GULP energy -468386.713969 kJ/mol
# GULP energy per Si atom -5576.032309 kJ/mol
# Density = 0.597371 g / cm^3
# Si number density = 5.987336 Si / 1000 Ang^3
#
#
#
# Elastic Constant Matrix: (Units=GPa)
#
#
# Indices 1 2 3 4 5 6 
#
# 1 49.9440 19.7414 2.2317 -0.1105 0.0002 0.0000
# 2 19.7414 49.9440 2.2317 0.1105 -0.0002 0.0000
# 3 2.2317 2.2317 74.8883 0.0000 0.0000 0.0000
# 4 -0.1105 0.1105 0.0000 20.6898 0.0000 -0.0002
# 5 0.0002 -0.0002 0.0000 0.0000 20.6898 -0.1105
# 6 0.0000 0.0000 0.0000 -0.0002 -0.1105 15.1013
#
#
#
# Elastic Compliance Matrix: (Units=1/GPa)
#
#
# Indices 1 2 3 4 5 6 
#
# 1 0.023744 -0.009367 -0.000428 0.000177 0.000000 0.000000
# 2 -0.009367 0.023744 -0.000428 -0.000177 0.000000 0.000000
# 3 -0.000428 -0.000428 0.013379 0.000000 0.000000 0.000000
# 4 0.000177 -0.000177 0.000000 0.048335 0.000000 0.000001
# 5 0.000000 0.000000 0.000000 0.000000 0.048335 0.000354
# 6 0.000000 0.000000 0.000000 0.000001 0.000354 0.066222
#
#
# Mechanical properties :
#
#
# Convention : Reuss Voigt Hill
#
# Bulk Modulus (GPa) = 24.74008 24.79842 24.76925
# Shear Modulus (GPa) = 19.40392 21.33428 20.36910
#
# Velocity S-wave (km/s) = 3.29032 3.45011 3.37116
# Velocity P-wave (km/s) = 5.31398 5.45041 5.38263
#
# Compressibility (1/GPa) = 0.04042024
#
# Stress axis : x y z
#
# Youngs Moduli (GPa) = 42.11530 42.11530 74.74534
#
# Poissons Ratio (x) = 0.39448 0.03203
# Poissons Ratio (y) = 0.39448 0.03203
# Poissons Ratio (z) = 0.01804 0.01804
#
# Static dielectric constant tensor:
#      x y z
#    x 1.627740 0.000000 0.000000 
#    y 0.000000 1.627740 0.000000 
#    z 0.000000 0.000000 1.630660 
# 
# From -- ./inp_files/5853.got.cif
#   From: 2010.05.17/outbox.ucp.g08.bks.cvg/sg166_3_cif.got.tgz:5853.got - 2010.06.11 15:16:39.
