data_PCOD9579031
_publ_section_title
;
Structure prediction by ZEFSAII (Michael W. Deem and Ramdas Pophale) SiO2 
 PCOD9579031
Probable space group: R -3 M
;
_chemical_formula_sum "Si O2"
_cell_formula_units_Z 198
_cell_length_a 21.956324
_cell_length_b 21.956324
_cell_length_c 29.358201
_cell_angle_alpha 90.000000
_cell_angle_beta 90.000000
_cell_angle_gamma 120.000000
_cell_volume 12256.863031
_symmetry_space_group_name_H-M "R -3 M"
_symmetry_group_IT_number 166
_symmetry_cell_setting 'hexagonal'
loop_
_space_group_symop_operation_xyz
x,y,z
-y,x-y,z
-x+y,-x,z
x-y,-y,-z
-x,-x+y,-z
y,x,-z
-x,-y,-z
y,-x+y,-z
x-y,x,-z
-x+y,y,z
x,x-y,z
-y,-x,z
2/3+x,1/3+y,1/3+z
2/3-y,1/3+x-y,1/3+z
2/3-x+y,1/3-x,1/3+z
2/3+x-y,1/3-y,1/3-z
2/3-x,1/3-x+y,1/3-z
2/3+y,1/3+x,1/3-z
2/3-x,1/3-y,1/3-z
2/3+y,1/3-x+y,1/3-z
2/3+x-y,1/3+x,1/3-z
2/3-x+y,1/3+y,1/3+z
2/3+x,1/3+x-y,1/3+z
2/3-y,1/3-x,1/3+z
1/3+x,2/3+y,2/3+z
1/3-y,2/3+x-y,2/3+z
1/3-x+y,2/3-x,2/3+z
1/3+x-y,2/3-y,2/3-z
1/3-x,2/3-x+y,2/3-z
1/3+y,2/3+x,2/3-z
1/3-x,2/3-y,2/3-z
1/3+y,2/3-x+y,2/3-z
1/3+x-y,2/3+x,2/3-z
1/3-x+y,2/3+y,2/3+z
1/3+x,2/3+x-y,2/3+z
1/3-y,2/3-x,2/3+z
loop_
_atom_site_type_symbol
_atom_site_label
_atom_site_fract_x
_atom_site_fract_y
_atom_site_fract_z
Si Si1 0.037586 0.447838 0.344815
Si Si2 0.865388 0.362478 0.528216
Si Si3 0.475540 0.668658 0.373501
Si Si4 0.858787 0.000394 0.904619
Si Si5 0.018281 0.333334 0.833334
Si Si6 0.273412 0.292759 0.072080
O O1 0.025628 0.512814 0.355999
O O2 0.120979 0.478480 0.346255
O O3 0.004766 0.414959 0.296131
O O4 0.999079 0.385820 0.381590
O O5 0.886994 0.443497 0.534536
O O6 0.826018 0.324575 0.574169
O O7 0.816658 0.335015 0.483619
O O8 0.935186 0.359547 0.518088
O O9 0.481774 0.740887 0.357915
O O10 0.394900 0.605101 0.372322
O O11 0.933664 0.066337 0.917841
O O12 0.795047 0.010440 0.922486
O O13 0.851997 0.925999 0.918359
O O14 0.003744 0.365508 0.787898
#
# Coordination Sequence:
#
# PCOD9579031 Si02
#       6
#    36  36  36  36  18  36
#     4  10  20  35  53  73 101 135 170 211 257 306
#     4   9  17  27  45  71 100 132 165 206 249 299
#     4  10  19  32  51  75 102 129 160 200 256 318
#     4  10  19  30  46  70 102 137 172 211 252 295
#     4  10  17  30  50  72 102 130 177 216 252 294
#     4  10  20  33  52  74  98 133 178 218 254 296
#
# _framework density 16.154216000000002
#
# number of rings (size 3 to 8) (size 9 to 14) (size 15 to 20)
#    0.000    2.182    1.818    2.273    0.000    1.455 
#    0.000    3.636    0.000    0.000    0.000    6.364 
#    0.000    0.000    0.000    5.545    0.000    0.000 
#
# Total GULP energy -367888.605818 kJ/mol
# GULP energy per Si atom -5574.069785 kJ/mol
# Density = 1.611745 g / cm^3
# Si number density = 16.154216 Si / 1000 Ang^3
#
#
#
# Elastic Constant Matrix: (Units=GPa)
#
#
# Indices 1 2 3 4 5 6 
#
# 1 73.0267 43.1287 23.4237 0.7939 -0.0001 0.0000
# 2 43.1287 73.0267 23.4237 -0.7939 0.0001 0.0000
# 3 23.4237 23.4237 72.7548 0.0000 0.0000 0.0000
# 4 0.7939 -0.7939 0.0000 17.9696 0.0000 0.0001
# 5 -0.0001 0.0001 0.0000 0.0000 17.9696 0.7939
# 6 0.0000 0.0000 0.0000 0.0001 0.7939 14.9490
#
#
#
# Elastic Compliance Matrix: (Units=1/GPa)
#
#
# Indices 1 2 3 4 5 6 
#
# 1 0.021710 -0.011816 -0.003185 -0.001481 0.000000 0.000000
# 2 -0.011816 0.021710 -0.003185 0.001481 0.000000 0.000000
# 3 -0.003185 -0.003185 0.015796 0.000000 0.000000 0.000000
# 4 -0.001481 0.001481 0.000000 0.055780 0.000000 0.000000
# 5 0.000000 0.000000 0.000000 0.000000 0.055780 -0.002962
# 6 0.000000 0.000000 0.000000 0.000000 -0.002962 0.067052
#
#
# Mechanical properties :
#
#
# Convention : Reuss Voigt Hill
#
# Bulk Modulus (GPa) = 43.77874 44.30671 44.04272
# Shear Modulus (GPa) = 17.74210 18.76643 18.25427
#
# Velocity S-wave (km/s) = 3.31765 3.41208 3.36519
# Velocity P-wave (km/s) = 6.46800 6.55819 6.51325
#
# Compressibility (1/GPa) = 0.02284214
#
# Stress axis : x y z
#
# Youngs Moduli (GPa) = 46.06209 46.06209 63.30762
#
# Poissons Ratio (x) = 0.54427 0.20166
# Poissons Ratio (y) = 0.54427 0.20166
# Poissons Ratio (z) = 0.14672 0.14672
#
# Static dielectric constant tensor:
#      x y z
#    x 1.529090 0.000000 0.000000 
#    y 0.000000 1.529090 0.000000 
#    z 0.000000 0.000000 1.568010 
# 
# From -- ./inp_files/10639.got.cif
#   From: 2010.05.17/outbox.cif.g08.bks.cpg/sg166_6_cif.got.tgz:10639.got - 2010.05.20 11:04:41.
