data_PCOD9579742
_publ_section_title
;
Structure prediction by ZEFSAII (Michael W. Deem and Ramdas Pophale) SiO2 
 PCOD9579742
Probable space group: R -3 C 
;
_chemical_formula_sum "Si O2"
_cell_formula_units_Z 48
_cell_length_a 30.000000
_cell_length_b 30.000000
_cell_length_c 9.000000
_cell_angle_alpha 90.000000
_cell_angle_beta 90.000000
_cell_angle_gamma 120.000000
_cell_volume 7014.805771
_symmetry_space_group_name_H-M "R -3 C "
_symmetry_group_IT_number 167
_symmetry_cell_setting 'hexagonal'
loop_
_space_group_symop_operation_xyz
x,y,z
-y,x-y,z
-x+y,-x,z
x-y,-y,1/2-z
-x,-x+y,1/2-z
y,x,1/2-z
-x,-y,-z
y,-x+y,-z
x-y,x,-z
-x+y,y,1/2+z
x,x-y,1/2+z
-y,-x,1/2+z
2/3+x,1/3+y,1/3+z
2/3-y,1/3+x-y,1/3+z
2/3-x+y,1/3-x,1/3+z
2/3+x-y,1/3-y,5/6-z
2/3-x,1/3-x+y,5/6-z
2/3+y,1/3+x,5/6-z
2/3-x,1/3-y,1/3-z
2/3+y,1/3-x+y,1/3-z
2/3+x-y,1/3+x,1/3-z
2/3-x+y,1/3+y,5/6+z
2/3+x,1/3+x-y,5/6+z
2/3-y,1/3-x,5/6+z
1/3+x,2/3+y,2/3+z
1/3-y,2/3+x-y,2/3+z
1/3-x+y,2/3-x,2/3+z
1/3+x-y,2/3-y,1/6-z
1/3-x,2/3-x+y,1/6-z
1/3+y,2/3+x,1/6-z
1/3-x,2/3-y,2/3-z
1/3+y,2/3-x+y,2/3-z
1/3+x-y,2/3+x,2/3-z
1/3-x+y,2/3+y,1/6+z
1/3+x,2/3+x-y,1/6+z
1/3-y,2/3-x,1/6+z
loop_
_atom_site_type_symbol
_atom_site_label
_atom_site_fract_x
_atom_site_fract_y
_atom_site_fract_z
Si Si1 0.417052 0.766909 0.585607
Si Si2 0.252412 0.802347 0.699241
Si Si3 0.842442 0.274415 0.123696
Si Si4 0.676163 0.886062 0.907033
O O1 0.415872 0.749205 0.416667
O O2 0.428107 0.731402 0.694937
O O3 0.458941 0.826915 0.600159
O O4 0.247761 0.809962 0.525122
O O5 0.199660 0.752192 0.749303
O O6 0.257268 0.853543 0.776590
O O7 0.865895 0.333334 0.083334
O O8 0.888476 0.261753 0.150546
O O9 0.666667 0.833334 0.833334
O O10 0.666667 0.879840 0.083334
#
# Coordination Sequence:
#
# PCOD9579742 Si02
#       4
#    36  36  36  36
#     4  12  25  41  59  82 117 159 205 258 310 363
#     4  10  20  36  58  84 113 152 200 244 292 357
#     4  10  19  34  57  88 122 158 197 245 300 356
#     4   8  16  31  54  82 111 139 178 231 287 342
#
# _framework density 6.84267
#
# number of rings (size 3 to 8) (size 9 to 14) (size 15 to 20)
#    0.000    2.000    0.000    4.000    0.000    0.000 
#    0.000    0.000    0.000    4.500    0.000   42.000 
#    0.000    0.000    0.000    0.000    0.000    0.000 
#
# Total GULP energy -267225.142242 kJ/mol
# GULP energy per Si atom -5567.190463 kJ/mol
# Density = 0.682710 g / cm^3
# Si number density = 6.842670 Si / 1000 Ang^3
#
#
#
# Elastic Constant Matrix: (Units=GPa)
#
#
# Indices 1 2 3 4 5 6 
#
# 1 118.2216 49.8586 50.9601 0.8056 0.0272 -0.0060
# 2 49.8586 118.1890 50.9474 -0.7832 -0.0051 -0.0029
# 3 50.9601 50.9474 19.6297 -0.0435 0.0586 -0.0022
# 4 0.8056 -0.7832 -0.0435 15.9850 0.0007 0.0074
# 5 0.0272 -0.0051 0.0586 0.0007 16.0264 0.7922
# 6 -0.0060 -0.0029 -0.0022 0.0074 0.7922 34.1738
#
#
#
# Elastic Compliance Matrix: (Units=1/GPa)
#
#
# Indices 1 2 3 4 5 6 
#
# 1 0.002137 -0.012507 0.026914 -0.000647 -0.000106 0.000004
# 2 -0.012507 0.002145 0.026904 0.000809 -0.000077 0.000001
# 3 0.026914 0.026904 -0.088755 -0.000279 0.000288 -0.000005
# 4 -0.000647 0.000809 -0.000279 0.062630 0.000000 -0.000014
# 5 -0.000106 -0.000077 0.000288 0.000000 0.062468 -0.001448
# 6 0.000004 0.000001 -0.000005 -0.000014 -0.001448 0.029296
#
#
# Mechanical properties :
#
#
# Convention : Reuss Voigt Hill
#
# Bulk Modulus (GPa) = -539.83963 62.17473 -238.83245
# Shear Modulus (GPa) = -375.45902 20.18867 -177.63517
#
# Velocity S-wave (km/s) = -13.53876 3.13943 -9.31241
# Velocity P-wave (km/s) = 22.53764 6.59507 15.23894
#
# Compressibility (1/GPa) = -0.00185240
#
# Stress axis : x y z
#
# Youngs Moduli (GPa) = 468.03776 466.12076 -11.26702
#
# Poissons Ratio (x) = 5.82988 0.30324
# Poissons Ratio (y) = 5.85386 0.30312
# Poissons Ratio (z) = -12.59665 -12.54033
#
# Static dielectric constant tensor:
#      x y z
#    x 1.810280 0.000300 -0.000640 
#    y 0.000300 1.810250 0.000460 
#    z -0.000640 0.000460 1.697230 
# 
# From -- ./inp_files/824.got.cif
#   From: 2010.05.17/outbox.ucp.g08.bks.cvg/sg167_1_cif.got.tgz:824.got - 2010.06.11 15:17:31.
