data_PCOD9579284
_publ_section_title
;
Structure prediction by ZEFSAII (Michael W. Deem and Ramdas Pophale) SiO2 
 PCOD9579284
Probable space group: R -3 M
;
_chemical_formula_sum "Si O2"
_cell_formula_units_Z 144
_cell_length_a 29.113196
_cell_length_b 29.113196
_cell_length_c 9.370430
_cell_angle_alpha 90.000000
_cell_angle_beta 90.000000
_cell_angle_gamma 120.000000
_cell_volume 6878.122729
_symmetry_space_group_name_H-M "R -3 M"
_symmetry_group_IT_number 166
_symmetry_cell_setting 'hexagonal'
loop_
_space_group_symop_operation_xyz
x,y,z
-y,x-y,z
-x+y,-x,z
x-y,-y,-z
-x,-x+y,-z
y,x,-z
-x,-y,-z
y,-x+y,-z
x-y,x,-z
-x+y,y,z
x,x-y,z
-y,-x,z
2/3+x,1/3+y,1/3+z
2/3-y,1/3+x-y,1/3+z
2/3-x+y,1/3-x,1/3+z
2/3+x-y,1/3-y,1/3-z
2/3-x,1/3-x+y,1/3-z
2/3+y,1/3+x,1/3-z
2/3-x,1/3-y,1/3-z
2/3+y,1/3-x+y,1/3-z
2/3+x-y,1/3+x,1/3-z
2/3-x+y,1/3+y,1/3+z
2/3+x,1/3+x-y,1/3+z
2/3-y,1/3-x,1/3+z
1/3+x,2/3+y,2/3+z
1/3-y,2/3+x-y,2/3+z
1/3-x+y,2/3-x,2/3+z
1/3+x-y,2/3-y,2/3-z
1/3-x,2/3-x+y,2/3-z
1/3+y,2/3+x,2/3-z
1/3-x,2/3-y,2/3-z
1/3+y,2/3-x+y,2/3-z
1/3+x-y,2/3+x,2/3-z
1/3-x+y,2/3+y,2/3+z
1/3+x,2/3+x-y,2/3+z
1/3-y,2/3-x,2/3+z
loop_
_atom_site_type_symbol
_atom_site_label
_atom_site_fract_x
_atom_site_fract_y
_atom_site_fract_z
Si Si1 0.528967 0.581602 0.080085
Si Si2 0.996668 0.825497 0.751250
Si Si3 0.196768 0.282783 0.742910
Si Si4 0.439121 0.772454 0.166667
Si Si5 0.438597 0.666667 0.666667
O O1 0.474942 0.525059 0.086601
O O2 0.545477 0.597780 0.244415
O O3 0.572210 0.572210 0.000000
O O4 0.514525 0.619523 0.990202
O O5 0.042616 0.815367 0.808564
O O6 0.979501 0.851109 0.875334
O O7 0.017762 0.869569 0.626858
O O8 0.142256 0.284511 0.741464
O O9 0.238293 0.333334 0.833334
O O10 0.383135 0.766269 0.121921
O O11 0.431560 0.715780 0.716014
#
# Coordination Sequence:
#
# PCOD9579284 Si02
#       5
#    36  36  36  18  18
#     4  10  21  39  64  93 126 165 213 271 336 408
#     4  12  24  42  67  97 134 180 226 282 346 416
#     4  10  21  39  64  94 127 165 214 273 334 406
#     4  12  23  40  66  98 136 180 232 288 343 406
#     4  12  27  44  66  98 142 192 244 296 345 404
#
# _framework density 20.935945
#
# number of rings (size 3 to 8) (size 9 to 14) (size 15 to 20)
#    0.000    1.000    2.500    4.750    3.500    0.000 
#    0.000    5.000    0.000    0.000    0.000    0.000 
#    0.000    0.000    0.000    0.000    0.000    0.000 
#
# Total GULP energy -268209.450490 kJ/mol
# GULP energy per Si atom -5587.696885 kJ/mol
# Density = 2.088829 g / cm^3
# Si number density = 20.935945 Si / 1000 Ang^3
#
#
#
# Elastic Constant Matrix: (Units=GPa)
#
#
# Indices 1 2 3 4 5 6 
#
# 1 97.0938 38.5783 25.9892 4.3416 -0.0629 0.0032
# 2 38.5783 97.1489 26.0836 -4.3409 0.0073 -0.0042
# 3 25.9892 26.0836 69.4162 0.0189 -0.0716 0.0150
# 4 4.3416 -4.3409 0.0189 25.6368 0.0102 -0.0112
# 5 -0.0629 0.0073 -0.0716 0.0102 25.5839 4.3430
# 6 0.0032 -0.0042 0.0150 -0.0112 4.3430 29.2766
#
#
#
# Elastic Compliance Matrix: (Units=1/GPa)
#
#
# Indices 1 2 3 4 5 6 
#
# 1 0.013063 -0.004457 -0.003215 -0.002965 0.000026 -0.000006
# 2 -0.004457 0.013066 -0.003242 0.002970 -0.000026 0.000009
# 3 -0.003215 -0.003242 0.016828 -0.000017 0.000043 -0.000015
# 4 -0.002965 0.002970 -0.000017 0.040011 -0.000028 0.000020
# 5 0.000026 -0.000026 0.000043 -0.000028 0.040097 -0.005948
# 6 -0.000006 0.000009 -0.000015 0.000020 -0.005948 0.035039
#
#
# Mechanical properties :
#
#
# Convention : Reuss Voigt Hill
#
# Bulk Modulus (GPa) = 47.32735 49.44010 48.38373
# Shear Modulus (GPa) = 26.74126 27.63331 27.18729
#
# Velocity S-wave (km/s) = 3.57780 3.63698 3.60751
# Velocity P-wave (km/s) = 6.30257 6.42674 6.36496
#
# Compressibility (1/GPa) = 0.02112943
#
# Stress axis : x y z
#
# Youngs Moduli (GPa) = 76.55007 76.53214 59.42485
#
# Poissons Ratio (x) = 0.34108 0.19108
# Poissons Ratio (y) = 0.34116 0.19266
# Poissons Ratio (z) = 0.24614 0.24812
#
# Static dielectric constant tensor:
#      x y z
#    x 1.738900 0.000020 -0.000020 
#    y 0.000020 1.738910 0.000010 
#    z -0.000020 0.000010 1.782480 
# 
# From -- ./inp_files/1851.got.cif
#   From: 2010.05.17/outbox.cif.g08.bks.cpg/sg166_1_cif.got.tgz:1851.got - 2010.05.20 11:04:41.
