data_PCOD9579836
_publ_section_title
;
Structure prediction by ZEFSAII (Michael W. Deem and Ramdas Pophale) SiO2 
 PCOD9579836
Probable space group: P 61
;
_chemical_formula_sum "Si O2"
_cell_formula_units_Z 48
_cell_length_a 11.085727
_cell_length_b 11.085727
_cell_length_c 22.245736
_cell_angle_alpha 90.000000
_cell_angle_beta 90.000000
_cell_angle_gamma 120.000000
_cell_volume 2367.586033
_symmetry_space_group_name_H-M "P 61"
_symmetry_group_IT_number 169
_symmetry_cell_setting 'hexagonal'
loop_
_space_group_symop_operation_xyz
x,y,z
x-y,x,1/6+z
-y,x-y,1/3+z
-x,-y,1/2+z
-x+y,-x,2/3+z
y,-x+y,5/6+z
loop_
_atom_site_type_symbol
_atom_site_label
_atom_site_fract_x
_atom_site_fract_y
_atom_site_fract_z
Si Si1 0.748169 0.425208 0.662620
Si Si2 0.575455 0.758489 0.615262
Si Si3 0.428215 0.319540 0.649834
Si Si4 0.996427 0.694513 0.087364
Si Si5 0.691055 0.055996 0.567212
Si Si6 0.599151 0.960996 0.101854
Si Si7 0.709134 0.619153 0.044637
Si Si8 0.586515 0.144051 0.197034
O O1 0.835336 0.537541 0.714355
O O2 0.589951 0.389148 0.668758
O O3 0.783766 0.307585 0.684255
O O4 0.787252 0.452494 0.592323
O O5 0.638162 0.692395 0.660847
O O6 0.448283 0.756265 0.654755
O O7 0.671368 0.922195 0.602503
O O8 0.394345 0.172930 0.621942
O O9 0.345019 0.312740 0.709338
O O10 0.388342 0.401007 0.601147
O O11 0.870326 0.709570 0.062741
O O12 0.152394 0.824153 0.081178
O O13 0.978442 0.663947 0.158059
O O14 0.015731 0.577609 0.053100
O O15 0.561204 0.076875 0.586312
O O16 0.650771 0.075716 0.154412
#
# Coordination Sequence:
#
# PCOD9579836 Si02
#       8
#     6   6   6   6   6   6   6   6
#     4  11  22  38  62  92 130 164 212 270 334 389
#     4  10  19  35  60  91 124 166 209 269 321 389
#     4  12  23  40  64  92 134 170 213 276 329 395
#     4  10  19  36  59  89 122 155 203 262 303 378
#     4  10  19  37  65  92 128 163 213 262 336 382
#     4  11  22  41  60  95 127 174 209 264 340 395
#     4  11  23  36  59  97 121 159 211 259 323 383
#     4   9  19  37  59  88 120 163 206 258 328 383
#
# _framework density 20.273814999999999
#
# number of rings (size 3 to 8) (size 9 to 14) (size 15 to 20)
#    0.000    1.500    2.500    6.750    0.000    1.000 
#    4.500    0.000    0.000    9.000    0.000    0.000 
#    0.000    0.000    0.000    0.000    0.000    0.000 
#
# Total GULP energy -267591.860087 kJ/mol
# GULP energy per Si atom -5574.830418 kJ/mol
# Density = 2.022767 g / cm^3
# Si number density = 20.273815 Si / 1000 Ang^3
#
#
#
# Elastic Constant Matrix: (Units=GPa)
#
#
# Indices 1 2 3 4 5 6 
#
# 1 57.3582 14.8983 20.3108 0.0000 0.0000 0.0000
# 2 14.8983 57.3582 20.3108 0.0000 0.0000 0.0000
# 3 20.3108 20.3108 146.3824 0.0000 0.0000 0.0000
# 4 0.0000 0.0000 0.0000 32.1289 0.0000 0.0000
# 5 0.0000 0.0000 0.0000 0.0000 32.1289 0.0000
# 6 0.0000 0.0000 0.0000 0.0000 0.0000 21.2299
#
#
#
# Elastic Compliance Matrix: (Units=1/GPa)
#
#
# Indices 1 2 3 4 5 6 
#
# 1 0.019281 -0.004271 -0.002083 0.000000 0.000000 0.000000
# 2 -0.004271 0.019281 -0.002083 0.000000 0.000000 0.000000
# 3 -0.002083 -0.002083 0.007409 0.000000 0.000000 0.000000
# 4 0.000000 0.000000 0.000000 0.031125 0.000000 0.000000
# 5 0.000000 0.000000 0.000000 0.000000 0.031125 0.000000
# 6 0.000000 0.000000 0.000000 0.000000 0.000000 0.047103
#
#
# Mechanical properties :
#
#
# Convention : Reuss Voigt Hill
#
# Bulk Modulus (GPa) = 34.36497 41.34874 37.85685
# Shear Modulus (GPa) = 27.48823 30.80279 29.14551
#
# Velocity S-wave (km/s) = 3.68618 3.90210 3.79567
# Velocity P-wave (km/s) = 5.92490 6.38289 6.15815
#
# Compressibility (1/GPa) = 0.02909940
#
# Stress axis : x y z
#
# Youngs Moduli (GPa) = 51.86434 51.86434 134.96388
#
# Poissons Ratio (x) = 0.22149 0.28109
# Poissons Ratio (y) = 0.22149 0.28109
# Poissons Ratio (z) = 0.10802 0.10802
#
# Static dielectric constant tensor:
#      x y z
#    x 1.731490 0.000000 0.000000 
#    y 0.000000 1.731490 0.000000 
#    z 0.000000 0.000000 1.796880 
# 
# From -- ./inp_files/1556.got.cif
#   From: 2010.05.17/outbox.cif.g08.bks.cpg/sg169_cif.got.tgz:1556.got - 2010.05.20 11:12:54.
