data_PCOD9579513
_publ_section_title
;
Structure prediction by ZEFSAII (Michael W. Deem and Ramdas Pophale) SiO2 
 PCOD9579513
Probable space group: R -3 C 
;
_chemical_formula_sum "Si O2"
_cell_formula_units_Z 144
_cell_length_a 17.235649
_cell_length_b 17.235649
_cell_length_c 28.927904
_cell_angle_alpha 90.000000
_cell_angle_beta 90.000000
_cell_angle_gamma 120.000000
_cell_volume 7442.226470
_symmetry_space_group_name_H-M "R -3 C "
_symmetry_group_IT_number 167
_symmetry_cell_setting 'hexagonal'
loop_
_space_group_symop_operation_xyz
x,y,z
-y,x-y,z
-x+y,-x,z
x-y,-y,1/2-z
-x,-x+y,1/2-z
y,x,1/2-z
-x,-y,-z
y,-x+y,-z
x-y,x,-z
-x+y,y,1/2+z
x,x-y,1/2+z
-y,-x,1/2+z
2/3+x,1/3+y,1/3+z
2/3-y,1/3+x-y,1/3+z
2/3-x+y,1/3-x,1/3+z
2/3+x-y,1/3-y,5/6-z
2/3-x,1/3-x+y,5/6-z
2/3+y,1/3+x,5/6-z
2/3-x,1/3-y,1/3-z
2/3+y,1/3-x+y,1/3-z
2/3+x-y,1/3+x,1/3-z
2/3-x+y,1/3+y,5/6+z
2/3+x,1/3+x-y,5/6+z
2/3-y,1/3-x,5/6+z
1/3+x,2/3+y,2/3+z
1/3-y,2/3+x-y,2/3+z
1/3-x+y,2/3-x,2/3+z
1/3+x-y,2/3-y,1/6-z
1/3-x,2/3-x+y,1/6-z
1/3+y,2/3+x,1/6-z
1/3-x,2/3-y,2/3-z
1/3+y,2/3-x+y,2/3-z
1/3+x-y,2/3+x,2/3-z
1/3-x+y,2/3+y,1/6+z
1/3+x,2/3+x-y,1/6+z
1/3-y,2/3-x,1/6+z
loop_
_atom_site_type_symbol
_atom_site_label
_atom_site_fract_x
_atom_site_fract_y
_atom_site_fract_z
Si Si1 0.089750 0.468353 0.273741
Si Si2 0.799514 0.282762 0.312557
Si Si3 0.936514 0.440106 0.641518
Si Si4 0.041937 0.468223 0.961209
O O1 0.170017 0.505012 0.236584
O O2 0.100677 0.516760 0.322226
O O3 0.070006 0.368907 0.283539
O O4 0.000000 0.457419 0.250000
O O5 0.695858 0.206935 0.317746
O O6 0.857237 0.232645 0.319067
O O7 0.936190 0.459309 0.586716
O O8 0.875928 0.333133 0.645065
O O9 0.000000 0.500000 0.000000
#
# Coordination Sequence:
#
# PCOD9579513 Si02
#       4
#    36  36  36  36
#     4  11  20  38  59  86 121 156 195 243 302 351
#     4  11  21  36  58  86 123 157 190 249 301 356
#     4  10  20  40  61  84 121 157 196 245 298 358
#     4  10  21  39  59  90 118 152 205 250 287 358
#
# _framework density 19.349049000000001
#
# number of rings (size 3 to 8) (size 9 to 14) (size 15 to 20)
#    0.000    1.500    7.500    0.250    0.000    5.000 
#    4.500    0.000    0.000    1.000    0.000    0.000 
#    0.000    0.000    0.000    0.000    0.000    0.000 
#
# Total GULP energy -267500.068783 kJ/mol
# GULP energy per Si atom -5572.918100 kJ/mol
# Density = 1.930501 g / cm^3
# Si number density = 19.349049 Si / 1000 Ang^3
#
#
#
# Elastic Constant Matrix: (Units=GPa)
#
#
# Indices 1 2 3 4 5 6 
#
# 1 40.0693 4.7787 33.3315 8.2242 0.0000 0.0000
# 2 4.7787 40.0693 33.3315 -8.2242 0.0000 0.0000
# 3 33.3315 33.3315 112.7829 0.0000 0.0000 0.0000
# 4 8.2242 -8.2242 0.0000 42.5314 0.0000 0.0000
# 5 0.0000 0.0000 0.0000 0.0000 42.5314 8.2242
# 6 0.0000 0.0000 0.0000 0.0000 8.2242 17.6453
#
#
#
# Elastic Compliance Matrix: (Units=1/GPa)
#
#
# Indices 1 2 3 4 5 6 
#
# 1 0.035455 0.004312 -0.011753 -0.006022 0.000000 0.000000
# 2 0.004312 0.035455 -0.011753 0.006022 0.000000 0.000000
# 3 -0.011753 -0.011753 0.015813 0.000000 0.000000 0.000000
# 4 -0.006022 0.006022 0.000000 0.025841 0.000000 0.000000
# 5 0.000000 0.000000 0.000000 0.000000 0.025841 -0.012044
# 6 0.000000 0.000000 0.000000 0.000000 -0.012044 0.062286
#
#
# Mechanical properties :
#
#
# Convention : Reuss Voigt Hill
#
# Bulk Modulus (GPa) = 20.68831 37.31166 28.99999
# Shear Modulus (GPa) = 19.59331 28.64027 24.11679
#
# Velocity S-wave (km/s) = 3.18563 3.85150 3.53428
# Velocity P-wave (km/s) = 4.92406 6.25332 5.62807
#
# Compressibility (1/GPa) = 0.04833647
#
# Stress axis : x y z
#
# Youngs Moduli (GPa) = 28.20491 28.20491 63.23830
#
# Poissons Ratio (x) = -0.12162 0.74321
# Poissons Ratio (y) = -0.12162 0.74321
# Poissons Ratio (z) = 0.33148 0.33148
#
# Static dielectric constant tensor:
#      x y z
#    x 1.910770 0.000000 0.000000 
#    y 0.000000 1.910770 0.000000 
#    z 0.000000 0.000000 1.588820 
# 
# From -- ./inp_files/6191.got.cif
#   From: 2010.05.17/outbox.cif.g08.bks.cpg/sg167_4_cif.got.tgz:6191.got - 2010.05.20 11:09:15.
