data_PCOD9579114
_publ_section_title
;
Structure prediction by ZEFSAII (Michael W. Deem and Ramdas Pophale) SiO2 
 PCOD9579114
Probable space group: R -3 M
;
_chemical_formula_sum "Si O2"
_cell_formula_units_Z 144
_cell_length_a 21.582805
_cell_length_b 21.582805
_cell_length_c 20.400633
_cell_angle_alpha 90.000000
_cell_angle_beta 90.000000
_cell_angle_gamma 120.000000
_cell_volume 8229.814544
_symmetry_space_group_name_H-M "R -3 M"
_symmetry_group_IT_number 166
_symmetry_cell_setting 'hexagonal'
loop_
_space_group_symop_operation_xyz
x,y,z
-y,x-y,z
-x+y,-x,z
x-y,-y,-z
-x,-x+y,-z
y,x,-z
-x,-y,-z
y,-x+y,-z
x-y,x,-z
-x+y,y,z
x,x-y,z
-y,-x,z
2/3+x,1/3+y,1/3+z
2/3-y,1/3+x-y,1/3+z
2/3-x+y,1/3-x,1/3+z
2/3+x-y,1/3-y,1/3-z
2/3-x,1/3-x+y,1/3-z
2/3+y,1/3+x,1/3-z
2/3-x,1/3-y,1/3-z
2/3+y,1/3-x+y,1/3-z
2/3+x-y,1/3+x,1/3-z
2/3-x+y,1/3+y,1/3+z
2/3+x,1/3+x-y,1/3+z
2/3-y,1/3-x,1/3+z
1/3+x,2/3+y,2/3+z
1/3-y,2/3+x-y,2/3+z
1/3-x+y,2/3-x,2/3+z
1/3+x-y,2/3-y,2/3-z
1/3-x,2/3-x+y,2/3-z
1/3+y,2/3+x,2/3-z
1/3-x,2/3-y,2/3-z
1/3+y,2/3-x+y,2/3-z
1/3+x-y,2/3+x,2/3-z
1/3-x+y,2/3+y,2/3+z
1/3+x,2/3+x-y,2/3+z
1/3-y,2/3-x,2/3+z
loop_
_atom_site_type_symbol
_atom_site_label
_atom_site_fract_x
_atom_site_fract_y
_atom_site_fract_z
Si Si1 0.207541 0.267410 0.106404
Si Si2 0.812043 0.333334 0.833334
Si Si3 0.419809 0.334501 0.723718
Si Si4 0.479711 0.666667 0.666667
Si Si5 0.599693 0.727455 0.411578
O O1 0.141563 0.283125 0.108436
O O2 0.275071 0.337233 0.076038
O O3 0.183325 0.199001 0.061089
O O4 0.218463 0.250918 0.180975
O O5 0.805354 0.402677 0.845446
O O6 0.863101 0.346779 0.770988
O O7 0.433687 0.330268 0.646710
O O8 0.352132 0.256370 0.738714
O O9 0.472573 0.736287 0.677304
O O10 0.580409 0.790205 0.403028
#
# Coordination Sequence:
#
# PCOD9579114 Si02
#       5
#    36  18  36  18  36
#     4  10  20  35  54  79 108 138 177 227 275 326
#     4  12  23  36  52  78 115 160 204 242 282 340
#     4  11  19  32  56  79 109 143 188 230 285 334
#     4  10  21  38  60  82 109 142 180 222 280 350
#     4  10  19  32  51  79 108 140 180 228 280 332
#
# _framework density 17.497357000000001
#
# number of rings (size 3 to 8) (size 9 to 14) (size 15 to 20)
#    0.000    1.500    2.500    5.500    0.000    0.000 
#    0.000    2.500    0.000    6.000    0.000    3.500 
#    0.000    0.000    0.000    0.000    0.000    0.000 
#
# Total GULP energy -267886.946562 kJ/mol
# GULP energy per Si atom -5580.978053 kJ/mol
# Density = 1.745753 g / cm^3
# Si number density = 17.497357 Si / 1000 Ang^3
#
#
#
# Elastic Constant Matrix: (Units=GPa)
#
#
# Indices 1 2 3 4 5 6 
#
# 1 83.7772 43.9405 55.6283 -1.1460 -0.0010 0.0000
# 2 43.9405 83.7772 55.6283 1.1460 0.0010 0.0000
# 3 55.6283 55.6283 178.0856 0.0000 0.0000 0.0000
# 4 -1.1460 1.1460 0.0000 11.0320 0.0000 0.0010
# 5 -0.0010 0.0010 0.0000 0.0000 11.0320 -1.1460
# 6 0.0000 0.0000 0.0000 0.0010 -1.1460 19.9184
#
#
#
# Elastic Compliance Matrix: (Units=1/GPa)
#
#
# Indices 1 2 3 4 5 6 
#
# 1 0.018005 -0.007248 -0.003360 0.002623 0.000002 0.000000
# 2 -0.007248 0.018005 -0.003360 -0.002623 -0.000002 0.000000
# 3 -0.003360 -0.003360 0.007714 0.000000 0.000000 0.000000
# 4 0.002623 -0.002623 0.000000 0.091191 0.000000 -0.000005
# 5 0.000002 -0.000002 0.000000 0.000000 0.091191 0.005247
# 6 0.000000 0.000000 0.000000 -0.000005 0.005247 0.050507
#
#
# Mechanical properties :
#
#
# Convention : Reuss Voigt Hill
#
# Bulk Modulus (GPa) = 63.34052 72.89271 68.11661
# Shear Modulus (GPa) = 16.13883 21.09266 18.61574
#
# Velocity S-wave (km/s) = 3.04033 3.47576 3.26531
# Velocity P-wave (km/s) = 6.97162 7.60642 7.29593
#
# Compressibility (1/GPa) = 0.01578768
#
# Stress axis : x y z
#
# Youngs Moduli (GPa) = 55.53987 55.53987 129.62694
#
# Poissons Ratio (x) = 0.40257 0.43556
# Poissons Ratio (y) = 0.40257 0.43556
# Poissons Ratio (z) = 0.18662 0.18662
#
# Static dielectric constant tensor:
#      x y z
#    x 1.576620 0.000000 0.000000 
#    y 0.000000 1.576620 0.000000 
#    z 0.000000 0.000000 1.642780 
# 
# From -- ./inp_files/6643.got.cif
#   From: 2010.05.17/outbox.cif.g08.bks.cpg/sg166_4_cif.got.tgz:6643.got - 2010.05.20 11:04:41.
