data_PCOD9579176
_publ_section_title
;
Structure prediction by ZEFSAII (Michael W. Deem and Ramdas Pophale) SiO2 
 PCOD9579176
Probable space group: R -3 M
;
_chemical_formula_sum "Si O2"
_cell_formula_units_Z 90
_cell_length_a 13.297201
_cell_length_b 13.297201
_cell_length_c 38.661686
_cell_angle_alpha 90.000000
_cell_angle_beta 90.000000
_cell_angle_gamma 120.000000
_cell_volume 5920.138788
_symmetry_space_group_name_H-M "R -3 M"
_symmetry_group_IT_number 166
_symmetry_cell_setting 'hexagonal'
loop_
_space_group_symop_operation_xyz
x,y,z
-y,x-y,z
-x+y,-x,z
x-y,-y,-z
-x,-x+y,-z
y,x,-z
-x,-y,-z
y,-x+y,-z
x-y,x,-z
-x+y,y,z
x,x-y,z
-y,-x,z
2/3+x,1/3+y,1/3+z
2/3-y,1/3+x-y,1/3+z
2/3-x+y,1/3-x,1/3+z
2/3+x-y,1/3-y,1/3-z
2/3-x,1/3-x+y,1/3-z
2/3+y,1/3+x,1/3-z
2/3-x,1/3-y,1/3-z
2/3+y,1/3-x+y,1/3-z
2/3+x-y,1/3+x,1/3-z
2/3-x+y,1/3+y,1/3+z
2/3+x,1/3+x-y,1/3+z
2/3-y,1/3-x,1/3+z
1/3+x,2/3+y,2/3+z
1/3-y,2/3+x-y,2/3+z
1/3-x+y,2/3-x,2/3+z
1/3+x-y,2/3-y,2/3-z
1/3-x,2/3-x+y,2/3-z
1/3+y,2/3+x,2/3-z
1/3-x,2/3-y,2/3-z
1/3+y,2/3-x+y,2/3-z
1/3+x-y,2/3+x,2/3-z
1/3-x+y,2/3+y,2/3+z
1/3+x,2/3+x-y,2/3+z
1/3-y,2/3-x,2/3+z
loop_
_atom_site_type_symbol
_atom_site_label
_atom_site_fract_x
_atom_site_fract_y
_atom_site_fract_z
Si Si1 0.759950 0.759950 0.500000
Si Si2 0.761766 0.999317 0.694474
Si Si3 0.095824 0.666741 0.441064
O O1 0.771342 0.885671 0.504657
O O2 0.699228 0.675931 0.532767
O O3 0.891085 0.108916 0.690460
O O4 0.682908 0.016241 0.666667
O O5 0.763093 0.881547 0.688652
O O6 0.727126 0.000129 0.734443
O O7 0.086021 0.543011 0.448447
O O8 0.229961 0.770040 0.444082
#
# Coordination Sequence:
#
# PCOD9579176 Si02
#       3
#    18  36  36
#     4  10  20  32  46  66  94 124 150 178 218 270
#     4   9  17  29  46  68  92 118 149 186 226 265
#     4   9  17  30  48  68  89 115 150 191 229 262
#
# _framework density 15.202346
#
# number of rings (size 3 to 8) (size 9 to 14) (size 15 to 20)
#    0.000    2.800    0.000    1.600    0.000    4.800 
#    0.000    0.000    0.000    6.000    0.000    0.000 
#    0.000    0.000    0.000    0.000    0.000    0.000 
#
# Total GULP energy -167129.965767 kJ/mol
# GULP energy per Si atom -5570.998859 kJ/mol
# Density = 1.516775 g / cm^3
# Si number density = 15.202346 Si / 1000 Ang^3
#
#
#
# Elastic Constant Matrix: (Units=GPa)
#
#
# Indices 1 2 3 4 5 6 
#
# 1 97.8916 57.1293 82.4914 -1.2614 -0.0005 0.0000
# 2 57.1293 97.8916 82.4914 1.2614 0.0005 0.0000
# 3 82.4914 82.4914 118.5318 0.0000 0.0000 0.0000
# 4 -1.2614 1.2614 0.0000 25.4019 0.0000 0.0005
# 5 -0.0005 0.0005 0.0000 0.0000 25.4019 -1.2614
# 6 0.0000 0.0000 0.0000 0.0005 -1.2614 20.3812
#
#
#
# Elastic Compliance Matrix: (Units=1/GPa)
#
#
# Indices 1 2 3 4 5 6 
#
# 1 0.024741 0.000133 -0.017311 0.001222 0.000001 0.000000
# 2 0.000133 0.024741 -0.017311 -0.001222 -0.000001 0.000000
# 3 -0.017311 -0.017311 0.032531 0.000000 0.000000 0.000000
# 4 0.001222 -0.001222 0.000000 0.039488 0.000000 -0.000001
# 5 0.000001 -0.000001 0.000000 0.000000 0.039488 0.002444
# 6 0.000000 0.000000 0.000000 -0.000001 0.002444 0.049216
#
#
# Mechanical properties :
#
#
# Convention : Reuss Voigt Hill
#
# Bulk Modulus (GPa) = 76.71169 84.28213 80.49691
# Shear Modulus (GPa) = 17.63482 20.38387 19.00935
#
# Velocity S-wave (km/s) = 3.40958 3.66572 3.53997
# Velocity P-wave (km/s) = 8.12836 8.57188 8.35307
#
# Compressibility (1/GPa) = 0.01303582
#
# Stress axis : x y z
#
# Youngs Moduli (GPa) = 40.41853 40.41853 30.73946
#
# Poissons Ratio (x) = -0.00538 0.53213
# Poissons Ratio (y) = -0.00538 0.53213
# Poissons Ratio (z) = 0.69968 0.69968
#
# Static dielectric constant tensor:
#      x y z
#    x 1.477960 0.000000 0.000000 
#    y 0.000000 1.477960 0.000000 
#    z 0.000000 0.000000 1.510140 
# 
# From -- ./inp_files/8999.got.cif
#   From: 2010.05.17/outbox.cif.g08.bks.cpg/sg166_5_cif.got.tgz:8999.got - 2010.05.20 11:04:41.
