data_PCOD9579895
_publ_section_title
;
Structure prediction by ZEFSAII (Michael W. Deem and Ramdas Pophale) SiO2 
 PCOD9579895
Probable space group: P 61
;
_chemical_formula_sum "Si O2"
_cell_formula_units_Z 42
_cell_length_a 11.267453
_cell_length_b 11.267453
_cell_length_c 21.481028
_cell_angle_alpha 90.000000
_cell_angle_beta 90.000000
_cell_angle_gamma 120.000000
_cell_volume 2361.767833
_symmetry_space_group_name_H-M "P 61"
_symmetry_group_IT_number 169
_symmetry_cell_setting 'hexagonal'
loop_
_space_group_symop_operation_xyz
x,y,z
x-y,x,1/6+z
-y,x-y,1/3+z
-x,-y,1/2+z
-x+y,-x,2/3+z
y,-x+y,5/6+z
loop_
_atom_site_type_symbol
_atom_site_label
_atom_site_fract_x
_atom_site_fract_y
_atom_site_fract_z
Si Si1 0.650693 0.633843 0.902080
Si Si2 0.349307 0.983150 0.737998
Si Si3 0.879338 0.314955 0.199107
Si Si4 0.469363 0.252586 0.500596
Si Si5 0.216777 0.747414 0.472816
Si Si6 0.435617 0.314955 0.274305
Si Si7 0.487967 0.000000 0.986706
O O1 0.515240 0.484760 0.903372
O O2 0.625788 0.723985 0.953003
O O3 0.652859 0.687544 0.832951
O O4 0.775663 0.612900 0.919242
O O5 0.224337 0.837237 0.720837
O O6 0.347141 0.034685 0.807128
O O7 0.374212 0.098197 0.687075
O O8 0.798798 0.395533 0.177406
O O9 0.971069 0.399719 0.257709
O O10 0.409587 0.204794 0.570039
O O11 0.499936 0.135801 0.476683
O O12 0.201202 0.596735 0.462673
O O13 0.364135 0.864199 0.496728
O O14 0.428650 0.399719 0.215703
#
# Coordination Sequence:
#
# PCOD9579895 Si02
#       7
#     6   6   6   6   6   6   6
#     4  10  21  36  59  86 123 146 195 251 295 353
#     4  10  21  36  59  86 123 146 195 251 295 353
#     4  10  22  38  58  93 117 154 197 250 305 350
#     4   9  20  36  57  87 118 151 199 237 306 349
#     4   9  20  36  57  87 118 151 199 237 306 349
#     4  10  22  38  58  93 117 154 197 250 305 350
#     4  10  20  38  60  86 118 160 202 236 296 372
#
# _framework density 17.783287999999999
#
# number of rings (size 3 to 8) (size 9 to 14) (size 15 to 20)
#    0.000    2.286    0.000    2.571   12.000    1.143 
#   10.286    0.000    0.000    5.143    0.000    0.000 
#    0.000    0.000    0.000    0.000    0.000    0.000 
#
# Total GULP energy -234305.993795 kJ/mol
# GULP energy per Si atom -5578.714138 kJ/mol
# Density = 1.774281 g / cm^3
# Si number density = 17.783288 Si / 1000 Ang^3
#
#
#
# Elastic Constant Matrix: (Units=GPa)
#
#
# Indices 1 2 3 4 5 6 
#
# 1 94.8555 49.3358 92.0183 0.0000 0.0000 0.0000
# 2 49.3358 94.8555 92.0183 0.0000 0.0000 0.0000
# 3 92.0183 92.0183 167.6607 0.0000 0.0000 0.0000
# 4 0.0000 0.0000 0.0000 28.3137 0.0000 0.0000
# 5 0.0000 0.0000 0.0000 0.0000 28.3137 0.0000
# 6 0.0000 0.0000 0.0000 0.0000 0.0000 22.7599
#
#
#
# Elastic Compliance Matrix: (Units=1/GPa)
#
#
# Indices 1 2 3 4 5 6 
#
# 1 0.022562 0.000594 -0.012709 0.000000 0.000000 0.000000
# 2 0.000594 0.022562 -0.012709 0.000000 0.000000 0.000000
# 3 -0.012709 -0.012709 0.019915 0.000000 0.000000 0.000000
# 4 0.000000 0.000000 0.000000 0.035319 0.000000 0.000000
# 5 0.000000 0.000000 0.000000 0.000000 0.035319 0.000000
# 6 0.000000 0.000000 0.000000 0.000000 0.000000 0.043937
#
#
# Mechanical properties :
#
#
# Convention : Reuss Voigt Hill
#
# Bulk Modulus (GPa) = 64.97227 91.56848 78.27038
# Shear Modulus (GPa) = 21.33183 24.14409 22.73796
#
# Velocity S-wave (km/s) = 3.46720 3.68867 3.57965
# Velocity P-wave (km/s) = 7.25559 8.35134 7.82267
#
# Compressibility (1/GPa) = 0.01539118
#
# Stress axis : x y z
#
# Youngs Moduli (GPa) = 44.32181 44.32181 50.21443
#
# Poissons Ratio (x) = -0.02632 0.63817
# Poissons Ratio (y) = -0.02632 0.63817
# Poissons Ratio (z) = 0.56328 0.56328
#
# Static dielectric constant tensor:
#      x y z
#    x 1.591010 0.000000 0.000000 
#    y 0.000000 1.591010 0.000000 
#    z 0.000000 0.000000 1.632580 
# 
# From -- ./inp_files/1519.got.cif
#   From: 2010.05.17/outbox.cif.g08.bks.cpg/sg169_cif.got.tgz:1519.got - 2010.05.20 11:12:54.
