data_PCOD9579296
_publ_section_title
;
Structure prediction by ZEFSAII (Michael W. Deem and Ramdas Pophale) SiO2 
 PCOD9579296
Probable space group: R -3 M
;
_chemical_formula_sum "Si O2"
_cell_formula_units_Z 162
_cell_length_a 29.433913
_cell_length_b 29.433913
_cell_length_c 10.518536
_cell_angle_alpha 90.000000
_cell_angle_beta 90.000000
_cell_angle_gamma 120.000000
_cell_volume 7891.906533
_symmetry_space_group_name_H-M "R -3 M"
_symmetry_group_IT_number 166
_symmetry_cell_setting 'hexagonal'
loop_
_space_group_symop_operation_xyz
x,y,z
-y,x-y,z
-x+y,-x,z
x-y,-y,-z
-x,-x+y,-z
y,x,-z
-x,-y,-z
y,-x+y,-z
x-y,x,-z
-x+y,y,z
x,x-y,z
-y,-x,z
2/3+x,1/3+y,1/3+z
2/3-y,1/3+x-y,1/3+z
2/3-x+y,1/3-x,1/3+z
2/3+x-y,1/3-y,1/3-z
2/3-x,1/3-x+y,1/3-z
2/3+y,1/3+x,1/3-z
2/3-x,1/3-y,1/3-z
2/3+y,1/3-x+y,1/3-z
2/3+x-y,1/3+x,1/3-z
2/3-x+y,1/3+y,1/3+z
2/3+x,1/3+x-y,1/3+z
2/3-y,1/3-x,1/3+z
1/3+x,2/3+y,2/3+z
1/3-y,2/3+x-y,2/3+z
1/3-x+y,2/3-x,2/3+z
1/3+x-y,2/3-y,2/3-z
1/3-x,2/3-x+y,2/3-z
1/3+y,2/3+x,2/3-z
1/3-x,2/3-y,2/3-z
1/3+y,2/3-x+y,2/3-z
1/3+x-y,2/3+x,2/3-z
1/3-x+y,2/3+y,2/3+z
1/3+x,2/3+x-y,2/3+z
1/3-y,2/3-x,2/3+z
loop_
_atom_site_type_symbol
_atom_site_label
_atom_site_fract_x
_atom_site_fract_y
_atom_site_fract_z
Si Si1 0.437750 0.667120 0.013688
Si Si2 0.086152 0.729588 0.978251
Si Si3 0.666667 0.581615 0.333334
Si Si4 0.673070 0.133235 0.581818
Si Si5 0.850354 0.149647 0.457026
Si Si6 0.461905 0.538096 0.938294
O O1 0.428019 0.714010 0.971035
O O2 0.389893 0.610108 0.971667
O O3 0.437182 0.666667 0.166667
O O4 0.495238 0.679024 0.971875
O O5 0.074496 0.741163 0.833334
O O6 0.088251 0.675978 0.989476
O O7 0.141963 0.771765 0.032896
O O8 0.043408 0.738230 0.052808
O O9 0.648329 0.539322 0.445112
O O10 0.734853 0.171345 0.566769
O O11 0.823047 0.176954 0.534107
O O12 0.870677 0.129324 0.573914
#
# Coordination Sequence:
#
# PCOD9579296 Si02
#       6
#    36  36  18  36  18  18
#     4  10  22  40  64  93 127 162 203 256 318 382
#     4  10  23  40  64  87 120 166 214 252 299 374
#     4  10  22  46  60  85 123 170 208 254 306 370
#     4  11  23  41  63  91 124 163 210 255 312 373
#     4  11  23  40  62  92 126 160 207 259 317 367
#     4  11  24  40  62  94 130 167 193 268 327 367
#
# _framework density 20.527359000000001
#
# number of rings (size 3 to 8) (size 9 to 14) (size 15 to 20)
#    0.000    1.556    3.333    0.556    4.667    2.667 
#    8.000    0.000    0.000    0.000    0.000    1.556 
#    0.000    0.000    0.000    0.000    0.000    0.000 
#
# Total GULP energy -300822.715913 kJ/mol
# GULP energy per Si atom -5570.791035 kJ/mol
# Density = 2.048064 g / cm^3
# Si number density = 20.527359 Si / 1000 Ang^3
#
#
#
# Elastic Constant Matrix: (Units=GPa)
#
#
# Indices 1 2 3 4 5 6 
#
# 1 66.9358 72.0773 12.0478 1.4216 -0.0074 0.0221
# 2 72.0773 66.8922 12.0143 -1.4246 -0.0209 -0.0277
# 3 12.0478 12.0143 22.1455 -0.0107 -0.0234 -0.0216
# 4 1.4216 -1.4246 -0.0107 24.4114 -0.0051 0.0036
# 5 -0.0074 -0.0209 -0.0234 -0.0051 24.3918 1.4206
# 6 0.0221 -0.0277 -0.0216 0.0036 1.4206 -2.5660
#
#
#
# Elastic Compliance Matrix: (Units=1/GPa)
#
#
# Indices 1 2 3 4 5 6 
#
# 1 -0.089854 0.097800 -0.004171 0.010938 0.000153 -0.001692
# 2 0.097800 -0.089863 -0.004458 -0.010942 -0.000156 0.001746
# 3 -0.004171 -0.004458 0.049843 0.000005 0.000064 -0.000372
# 4 0.010938 -0.010942 0.000005 0.039689 -0.000013 0.000260
# 5 0.000153 -0.000156 0.000064 -0.000013 0.039717 0.021990
# 6 -0.001692 0.001746 -0.000372 0.000260 0.021990 -0.377562
#
#
# Mechanical properties :
#
#
# Convention : Reuss Voigt Hill
#
# Bulk Modulus (GPa) = 20.63190 38.69471 29.66330
# Shear Modulus (GPa) = -8.47148 13.23637 2.38245
#
# Velocity S-wave (km/s) = -2.03369 2.54208 1.07849
# Velocity P-wave (km/s) = 2.13500 5.24475 4.00410
#
# Compressibility (1/GPa) = 0.04846862
#
# Stress axis : x y z
#
# Youngs Moduli (GPa) = -11.12922 -11.12804 20.06295
#
# Poissons Ratio (x) = 1.08832 0.08369
# Poissons Ratio (y) = 1.08844 0.08943
# Poissons Ratio (z) = -0.04642 -0.04960
#
# Static dielectric constant tensor:
#      x y z
#    x 1.747240 0.000000 -0.000010 
#    y 0.000000 1.747260 0.000000 
#    z -0.000010 0.000000 1.785180 
# 
# From -- ./inp_files/3151.got.cif
#   From: 2010.05.17/outbox.cif.g08.bks.cpg/sg166_2_cif.got.tgz:3151.got - 2010.05.20 11:04:41.
