data_PCOD9579202
_publ_section_title
;
Structure prediction by ZEFSAII (Michael W. Deem and Ramdas Pophale) SiO2 
 PCOD9579202
Probable space group: R -3 M
;
_chemical_formula_sum "Si O2"
_cell_formula_units_Z 216
_cell_length_a 23.679498
_cell_length_b 23.679498
_cell_length_c 24.611520
_cell_angle_alpha 90.000000
_cell_angle_beta 90.000000
_cell_angle_gamma 120.000000
_cell_volume 11951.269795
_symmetry_space_group_name_H-M "R -3 M"
_symmetry_group_IT_number 166
_symmetry_cell_setting 'hexagonal'
loop_
_space_group_symop_operation_xyz
x,y,z
-y,x-y,z
-x+y,-x,z
x-y,-y,-z
-x,-x+y,-z
y,x,-z
-x,-y,-z
y,-x+y,-z
x-y,x,-z
-x+y,y,z
x,x-y,z
-y,-x,z
2/3+x,1/3+y,1/3+z
2/3-y,1/3+x-y,1/3+z
2/3-x+y,1/3-x,1/3+z
2/3+x-y,1/3-y,1/3-z
2/3-x,1/3-x+y,1/3-z
2/3+y,1/3+x,1/3-z
2/3-x,1/3-y,1/3-z
2/3+y,1/3-x+y,1/3-z
2/3+x-y,1/3+x,1/3-z
2/3-x+y,1/3+y,1/3+z
2/3+x,1/3+x-y,1/3+z
2/3-y,1/3-x,1/3+z
1/3+x,2/3+y,2/3+z
1/3-y,2/3+x-y,2/3+z
1/3-x+y,2/3-x,2/3+z
1/3+x-y,2/3-y,2/3-z
1/3-x,2/3-x+y,2/3-z
1/3+y,2/3+x,2/3-z
1/3-x,2/3-y,2/3-z
1/3+y,2/3-x+y,2/3-z
1/3+x-y,2/3+x,2/3-z
1/3-x+y,2/3+y,2/3+z
1/3+x,2/3+x-y,2/3+z
1/3-y,2/3-x,2/3+z
loop_
_atom_site_type_symbol
_atom_site_label
_atom_site_fract_x
_atom_site_fract_y
_atom_site_fract_z
Si Si1 0.480248 0.092850 0.976845
Si Si2 0.830688 0.169312 0.248258
Si Si3 0.775268 0.550536 0.154441
Si Si4 0.617067 0.687708 0.728164
Si Si5 0.367236 0.081023 0.581075
Si Si6 0.704069 0.542359 0.482796
Si Si7 0.199313 0.667428 0.106521
O O1 0.550388 0.100775 0.990211
O O2 0.489460 0.153539 0.942039
O O3 0.443282 0.030594 0.936960
O O4 0.441955 0.080900 0.032827
O O5 0.804969 0.195032 0.197871
O O6 0.868921 0.131080 0.232763
O O7 0.877709 0.236209 0.276951
O O8 0.697396 0.510246 0.163470
O O9 0.615559 0.666667 0.666667
O O10 0.673632 0.683451 0.761099
O O11 0.549513 0.649159 0.761533
O O12 0.402607 0.125147 0.529312
O O13 0.765277 0.530553 0.475562
O O14 0.204534 0.602267 0.103216
O O15 0.269747 0.730254 0.102880
O O16 0.171572 0.666667 0.166667
#
# Coordination Sequence:
#
# PCOD9579202 Si02
#       7
#    36  18  18  36  36  36  36
#     4  10  20  35  53  77 116 161 196 235 285 337
#     4   9  18  36  62  80 113 154 199 235 280 350
#     4   9  18  38  62  86 108 155 196 231 287 352
#     4  11  22  38  60  89 119 154 193 240 291 349
#     4  11  20  38  57  84 114 155 197 232 283 344
#     4  11  23  39  63  91 117 149 192 244 295 348
#     4   9  18  34  55  79 110 152 199 242 284 331
#
# _framework density 18.073392999999999
#
# number of rings (size 3 to 8) (size 9 to 14) (size 15 to 20)
#    0.000    1.833    3.333    2.667    1.167    2.000 
#    3.500    2.500    0.000    0.000    0.000    0.583 
#    0.000    0.000    0.000    0.000    0.000    0.000 
#
# Total GULP energy -401317.431453 kJ/mol
# GULP energy per Si atom -5573.853215 kJ/mol
# Density = 1.803226 g / cm^3
# Si number density = 18.073393 Si / 1000 Ang^3
#
#
#
# Elastic Constant Matrix: (Units=GPa)
#
#
# Indices 1 2 3 4 5 6 
#
# 1 -361.9345 462.8155 16.3853 -28.8414 -0.0676 0.0000
# 2 462.8155 -361.9345 16.3853 28.8414 0.0676 0.0000
# 3 16.3853 16.3853 46.0949 0.0000 0.0000 0.0000
# 4 -28.8414 28.8414 0.0000 22.6946 0.0000 0.0676
# 5 -0.0676 0.0676 0.0000 0.0000 22.6946 -28.8414
# 6 0.0000 0.0000 0.0000 0.0676 -28.8414 -412.3750
#
#
#
# Elastic Compliance Matrix: (Units=1/GPa)
#
#
# Indices 1 2 3 4 5 6 
#
# 1 0.005047 0.006160 -0.003984 -0.001415 -0.000003 0.000000
# 2 0.006160 0.005047 -0.003984 0.001415 0.000003 0.000000
# 3 -0.003984 -0.003984 0.024526 0.000000 0.000000 0.000000
# 4 -0.001415 0.001415 0.000000 0.040467 0.000000 0.000007
# 5 -0.000003 0.000003 0.000000 0.000000 0.040467 -0.002830
# 6 0.000000 0.000000 0.000000 0.000007 -0.002830 -0.002227
#
#
# Mechanical properties :
#
#
# Convention : Reuss Voigt Hill
#
# Bulk Modulus (GPa) = 32.25245 34.82200 33.53722
# Shear Modulus (GPa) = 39.28491 -151.62118 -56.16814
#
# Velocity S-wave (km/s) = 4.66728 -9.16919 -5.58079
# Velocity P-wave (km/s) = 6.85045 9.63275 4.78859
#
# Compressibility (1/GPa) = 0.03100540
#
# Stress axis : x y z
#
# Youngs Moduli (GPa) = 198.15281 198.15281 40.77223
#
# Poissons Ratio (x) = -1.22065 0.16242
# Poissons Ratio (y) = -1.22065 0.16242
# Poissons Ratio (z) = 0.78937 0.78937
#
# Static dielectric constant tensor:
#      x y z
#    x 1.627240 0.000000 0.000000 
#    y 0.000000 1.627240 0.000000 
#    z 0.000000 0.000000 1.628740 
# 
# From -- ./inp_files/8515.got.cif
#   From: 2010.05.17/outbox.cif.g08.bks.cpg/sg166_5_cif.got.tgz:8515.got - 2010.05.20 11:04:41.
