data_PCOD9579478
_publ_section_title
;
Structure prediction by ZEFSAII (Michael W. Deem and Ramdas Pophale) SiO2 
 PCOD9579478
Probable space group: R -3 C 
;
_chemical_formula_sum "Si O2"
_cell_formula_units_Z 234
_cell_length_a 27.067134
_cell_length_b 27.067134
_cell_length_c 18.672325
_cell_angle_alpha 90.000000
_cell_angle_beta 90.000000
_cell_angle_gamma 120.000000
_cell_volume 11847.141498
_symmetry_space_group_name_H-M "R -3 C "
_symmetry_group_IT_number 167
_symmetry_cell_setting 'hexagonal'
loop_
_space_group_symop_operation_xyz
x,y,z
-y,x-y,z
-x+y,-x,z
x-y,-y,1/2-z
-x,-x+y,1/2-z
y,x,1/2-z
-x,-y,-z
y,-x+y,-z
x-y,x,-z
-x+y,y,1/2+z
x,x-y,1/2+z
-y,-x,1/2+z
2/3+x,1/3+y,1/3+z
2/3-y,1/3+x-y,1/3+z
2/3-x+y,1/3-x,1/3+z
2/3+x-y,1/3-y,5/6-z
2/3-x,1/3-x+y,5/6-z
2/3+y,1/3+x,5/6-z
2/3-x,1/3-y,1/3-z
2/3+y,1/3-x+y,1/3-z
2/3+x-y,1/3+x,1/3-z
2/3-x+y,1/3+y,5/6+z
2/3+x,1/3+x-y,5/6+z
2/3-y,1/3-x,5/6+z
1/3+x,2/3+y,2/3+z
1/3-y,2/3+x-y,2/3+z
1/3-x+y,2/3-x,2/3+z
1/3+x-y,2/3-y,1/6-z
1/3-x,2/3-x+y,1/6-z
1/3+y,2/3+x,1/6-z
1/3-x,2/3-y,2/3-z
1/3+y,2/3-x+y,2/3-z
1/3+x-y,2/3+x,2/3-z
1/3-x+y,2/3+y,1/6+z
1/3+x,2/3+x-y,1/6+z
1/3-y,2/3-x,1/6+z
loop_
_atom_site_type_symbol
_atom_site_label
_atom_site_fract_x
_atom_site_fract_y
_atom_site_fract_z
Si Si1 0.658910 0.497905 0.426022
Si Si2 0.116275 0.911829 0.209189
Si Si3 0.851445 0.600857 0.424593
Si Si4 0.110728 0.394848 0.857258
Si Si5 0.710917 0.594871 0.203088
Si Si6 0.910601 0.117195 0.526221
Si Si7 0.333334 0.503111 0.916667
O O1 0.697905 0.506990 0.495237
O O2 0.639175 0.543845 0.448535
O O3 0.700652 0.511333 0.358095
O O4 0.602414 0.437248 0.411962
O O5 0.102129 0.857383 0.159395
O O6 0.160380 0.917351 0.270768
O O7 0.053385 0.896443 0.230548
O O8 0.874301 0.666667 0.416667
O O9 0.904649 0.590094 0.430337
O O10 0.810820 0.567368 0.358463
O O11 0.075049 0.408382 0.916667
O O12 0.077601 0.327092 0.846245
O O13 0.749829 0.585881 0.260426
O O14 0.694814 0.547962 0.141248
#
# Coordination Sequence:
#
# PCOD9579478 Si02
#       7
#    36  36  36  36  36  36  18
#     4  10  22  38  64  90 121 160 208 263 309 376
#     4   9  20  38  59  89 120 164 208 253 312 366
#     4  10  20  35  58  90 127 164 205 257 305 365
#     4  10  21  40  59  91 128 167 208 251 304 366
#     4  11  22  37  60  91 127 170 209 250 302 377
#     4  11  21  40  62  94 120 165 214 255 321 361
#     4  10  22  38  58  94 122 164 210 256 310 370
#
# _framework density 19.7516
#
# number of rings (size 3 to 8) (size 9 to 14) (size 15 to 20)
#    0.000    1.846    1.538    2.308    0.000    4.923 
#    2.769    0.000    0.000    0.308    0.000    0.000 
#    0.000    0.000    0.000    0.000    0.000    0.000 
#
# Total GULP energy -434661.070462 kJ/mol
# GULP energy per Si atom -5572.577826 kJ/mol
# Density = 1.970664 g / cm^3
# Si number density = 19.751600 Si / 1000 Ang^3
#
#
#
# Elastic Constant Matrix: (Units=GPa)
#
#
# Indices 1 2 3 4 5 6 
#
# 1 81.2521 57.1989 15.9164 4.1464 -0.0006 0.0000
# 2 57.1989 81.2521 15.9164 -4.1464 0.0006 0.0000
# 3 15.9164 15.9164 43.2368 0.0000 0.0000 0.0000
# 4 4.1464 -4.1464 0.0000 6.3615 0.0000 0.0006
# 5 -0.0006 0.0006 0.0000 0.0000 6.3615 4.1464
# 6 0.0000 0.0000 0.0000 0.0006 4.1464 12.0266
#
#
#
# Elastic Compliance Matrix: (Units=1/GPa)
#
#
# Indices 1 2 3 4 5 6 
#
# 1 0.030758 -0.022867 -0.002905 -0.034953 0.000005 0.000000
# 2 -0.022867 0.030758 -0.002905 0.034953 -0.000005 0.000000
# 3 -0.002905 -0.002905 0.025267 0.000000 0.000000 0.000000
# 4 -0.034953 0.034953 0.000000 0.202758 0.000000 -0.000009
# 5 0.000005 -0.000005 0.000000 0.000000 0.202758 -0.069905
# 6 0.000000 0.000000 0.000000 -0.000009 -0.069905 0.107251
#
#
# Mechanical properties :
#
#
# Convention : Reuss Voigt Hill
#
# Bulk Modulus (GPa) = 33.97960 42.64495 38.31227
# Shear Modulus (GPa) = 7.49947 12.73053 10.11500
#
# Velocity S-wave (km/s) = 1.95067 2.54152 2.26544
# Velocity P-wave (km/s) = 4.72380 5.49999 5.12661
#
# Compressibility (1/GPa) = 0.02942942
#
# Stress axis : x y z
#
# Youngs Moduli (GPa) = 32.51186 32.51186 39.57725
#
# Poissons Ratio (x) = 0.74346 0.11496
# Poissons Ratio (y) = 0.74346 0.11496
# Poissons Ratio (z) = 0.09444 0.09444
#
# Static dielectric constant tensor:
#      x y z
#    x 1.698390 0.000000 0.000000 
#    y 0.000000 1.698390 0.000000 
#    z 0.000000 0.000000 1.695430 
# 
# From -- ./inp_files/4698.got.cif
#   From: 2010.05.17/outbox.cif.g08.bks.cpg/sg167_3_cif.got.tgz:4698.got - 2010.05.20 11:09:15.
