data_PCOD9579266
_publ_section_title
;
Structure prediction by ZEFSAII (Michael W. Deem and Ramdas Pophale) SiO2 
 PCOD9579266
Probable space group: R -3 M
;
_chemical_formula_sum "Si O2"
_cell_formula_units_Z 144
_cell_length_a 20.938055
_cell_length_b 20.938055
_cell_length_c 19.870682
_cell_angle_alpha 90.000000
_cell_angle_beta 90.000000
_cell_angle_gamma 120.000000
_cell_volume 7544.250102
_symmetry_space_group_name_H-M "R -3 M"
_symmetry_group_IT_number 166
_symmetry_cell_setting 'hexagonal'
loop_
_space_group_symop_operation_xyz
x,y,z
-y,x-y,z
-x+y,-x,z
x-y,-y,-z
-x,-x+y,-z
y,x,-z
-x,-y,-z
y,-x+y,-z
x-y,x,-z
-x+y,y,z
x,x-y,z
-y,-x,z
2/3+x,1/3+y,1/3+z
2/3-y,1/3+x-y,1/3+z
2/3-x+y,1/3-x,1/3+z
2/3+x-y,1/3-y,1/3-z
2/3-x,1/3-x+y,1/3-z
2/3+y,1/3+x,1/3-z
2/3-x,1/3-y,1/3-z
2/3+y,1/3-x+y,1/3-z
2/3+x-y,1/3+x,1/3-z
2/3-x+y,1/3+y,1/3+z
2/3+x,1/3+x-y,1/3+z
2/3-y,1/3-x,1/3+z
1/3+x,2/3+y,2/3+z
1/3-y,2/3+x-y,2/3+z
1/3-x+y,2/3-x,2/3+z
1/3+x-y,2/3-y,2/3-z
1/3-x,2/3-x+y,2/3-z
1/3+y,2/3+x,2/3-z
1/3-x,2/3-y,2/3-z
1/3+y,2/3-x+y,2/3-z
1/3+x-y,2/3+x,2/3-z
1/3-x+y,2/3+y,2/3+z
1/3+x,2/3+x-y,2/3+z
1/3-y,2/3-x,2/3+z
loop_
_atom_site_type_symbol
_atom_site_label
_atom_site_fract_x
_atom_site_fract_y
_atom_site_fract_z
Si Si1 0.438545 0.145955 0.146067
Si Si2 0.685849 0.040214 0.256728
Si Si3 0.200750 0.252381 0.438226
Si Si4 0.525249 0.190037 0.019290
O O1 0.445964 0.222982 0.168976
O O2 0.367784 0.104036 0.096038
O O3 0.504232 0.162086 0.095588
O O4 0.422535 0.089652 0.207201
O O5 0.666667 0.044656 0.333334
O O6 0.647166 0.953158 0.238332
O O7 0.792503 0.972049 0.368529
O O8 0.202778 0.202778 0.500000
O O9 0.137490 0.274979 0.449832
O O10 0.611821 0.223642 0.009790
O O11 0.502093 0.251047 0.008222
#
# Coordination Sequence:
#
# PCOD9579266 Si02
#       4
#    36  36  36  36
#     4  10  21  39  59  81 115 151 190 236 284 340
#     4  11  20  36  56  84 111 147 188 228 289 339
#     4  11  22  36  55  83 119 151 188 234 282 340
#     4  10  21  38  59  83 112 152 196 237 282 335
#
# _framework density 19.087384
#
# number of rings (size 3 to 8) (size 9 to 14) (size 15 to 20)
#    0.000    1.500    5.000    2.500    0.000    1.500 
#    0.000    2.500    0.000    4.000    0.000    0.000 
#    0.000    5.000    0.000    0.000    0.000    0.250 
#
# Total GULP energy -267288.008030 kJ/mol
# GULP energy per Si atom -5568.500167 kJ/mol
# Density = 1.904394 g / cm^3
# Si number density = 19.087384 Si / 1000 Ang^3
#
#
#
# Elastic Constant Matrix: (Units=GPa)
#
#
# Indices 1 2 3 4 5 6 
#
# 1 79.4005 33.2864 40.6358 5.1114 0.0002 0.0000
# 2 33.2864 79.4005 40.6358 -5.1114 -0.0002 0.0000
# 3 40.6358 40.6358 135.0299 0.0000 0.0000 0.0000
# 4 5.1114 -5.1114 0.0000 23.1012 0.0000 -0.0002
# 5 0.0002 -0.0002 0.0000 0.0000 23.1012 5.1114
# 6 0.0000 0.0000 0.0000 -0.0002 5.1114 23.0571
#
#
#
# Elastic Compliance Matrix: (Units=1/GPa)
#
#
# Indices 1 2 3 4 5 6 
#
# 1 0.017069 -0.005735 -0.003411 -0.005046 0.000000 0.000000
# 2 -0.005735 0.017069 -0.003411 0.005046 0.000000 0.000000
# 3 -0.003411 -0.003411 0.009459 0.000000 0.000000 0.000000
# 4 -0.005046 0.005046 0.000000 0.045521 0.000000 0.000000
# 5 0.000000 0.000000 0.000000 0.000000 0.045521 -0.010091
# 6 0.000000 0.000000 0.000000 0.000000 -0.010091 0.045608
#
#
# Mechanical properties :
#
#
# Convention : Reuss Voigt Hill
#
# Bulk Modulus (GPa) = 54.10252 58.10521 56.10386
# Shear Modulus (GPa) = 23.63844 25.80342 24.72093
#
# Velocity S-wave (km/s) = 3.52296 3.68075 3.60272
# Velocity P-wave (km/s) = 6.70481 6.96934 6.83835
#
# Compressibility (1/GPa) = 0.01848343
#
# Stress axis : x y z
#
# Youngs Moduli (GPa) = 58.58578 58.58578 105.72263
#
# Poissons Ratio (x) = 0.33598 0.36061
# Poissons Ratio (y) = 0.33598 0.36061
# Poissons Ratio (z) = 0.19983 0.19983
#
# Static dielectric constant tensor:
#      x y z
#    x 1.699320 0.000000 0.000000 
#    y 0.000000 1.699320 0.000000 
#    z 0.000000 0.000000 1.697990 
# 
# From -- ./inp_files/9395.got.cif
#   From: 2010.05.17/outbox.cif.g08.bks.cpg/sg166_5_cif.got.tgz:9395.got - 2010.05.20 11:04:41.
