data_PCOD9579848
_publ_section_title
;
Structure prediction by ZEFSAII (Michael W. Deem and Ramdas Pophale) SiO2 
 PCOD9579848
Probable space group: P 61
;
_chemical_formula_sum "Si O2"
_cell_formula_units_Z 48
_cell_length_a 11.228142
_cell_length_b 11.228142
_cell_length_c 17.989193
_cell_angle_alpha 90.000000
_cell_angle_beta 90.000000
_cell_angle_gamma 120.000000
_cell_volume 1964.075172
_symmetry_space_group_name_H-M "P 61"
_symmetry_group_IT_number 169
_symmetry_cell_setting 'hexagonal'
loop_
_space_group_symop_operation_xyz
x,y,z
x-y,x,1/6+z
-y,x-y,1/3+z
-x,-y,1/2+z
-x+y,-x,2/3+z
y,-x+y,5/6+z
loop_
_atom_site_type_symbol
_atom_site_label
_atom_site_fract_x
_atom_site_fract_y
_atom_site_fract_z
Si Si1 0.363338 0.852502 0.326920
Si Si2 0.963581 0.035903 0.222440
Si Si3 0.548014 0.891383 0.910028
Si Si4 0.750003 0.252547 0.388020
Si Si5 0.234962 0.924402 0.534854
Si Si6 0.788056 0.602606 0.565781
Si Si7 0.460249 0.782675 0.136621
Si Si8 0.485313 0.552619 0.321432
O O1 0.260460 0.785063 0.257558
O O2 0.505535 0.850723 0.345999
O O3 0.267553 0.742499 0.389657
O O4 0.391694 0.006652 0.339318
O O5 0.898462 0.135850 0.210015
O O6 0.051258 0.050320 0.145796
O O7 0.843628 0.875574 0.219714
O O8 0.394751 0.871522 0.915844
O O9 0.657947 0.984012 0.971935
O O10 0.834737 0.233747 0.321914
O O11 0.708989 0.355372 0.346297
O O12 0.836613 0.332418 0.459628
O O13 0.158064 0.768838 0.506028
O O14 0.328341 0.918050 0.599063
O O15 0.878434 0.524482 0.561296
O O16 0.437970 0.910692 0.142383
#
# Coordination Sequence:
#
# PCOD9579848 Si02
#       8
#     6   6   6   6   6   6   6   6
#     4  10  22  38  63  99 140 186 238 311 385 466
#     4  12  26  45  76 108 146 197 268 339 398 483
#     4  11  22  38  63  97 138 182 239 306 391 447
#     4  10  24  36  59  99 143 185 234 307 382 462
#     4  10  19  36  65  98 128 181 243 319 369 439
#     4  11  23  40  67 102 141 196 250 321 391 463
#     4   9  18  34  57  92 125 174 233 290 365 434
#     4  11  18  37  66  93 137 181 243 307 367 456
#
# _framework density 24.438983
#
# number of rings (size 3 to 8) (size 9 to 14) (size 15 to 20)
#    0.000    1.500    5.000    0.750    3.500    1.000 
#    0.000    0.000    2.750    0.000    0.000    0.000 
#    0.000    0.000    0.000    0.000    0.000    0.000 
#
# Total GULP energy -267230.358012 kJ/mol
# GULP energy per Si atom -5567.299125 kJ/mol
# Density = 2.438336 g / cm^3
# Si number density = 24.438983 Si / 1000 Ang^3
#
#
#
# Elastic Constant Matrix: (Units=GPa)
#
#
# Indices 1 2 3 4 5 6 
#
# 1 68.9889 10.6842 34.1385 0.0000 0.0000 0.0000
# 2 10.6842 68.9889 34.1385 0.0000 0.0000 0.0000
# 3 34.1385 34.1385 84.3889 0.0000 0.0000 0.0000
# 4 0.0000 0.0000 0.0000 38.1878 0.0000 0.0000
# 5 0.0000 0.0000 0.0000 0.0000 38.1878 0.0000
# 6 0.0000 0.0000 0.0000 0.0000 0.0000 29.1524
#
#
#
# Elastic Compliance Matrix: (Units=1/GPa)
#
#
# Indices 1 2 3 4 5 6 
#
# 1 0.018181 0.001030 -0.007772 0.000000 0.000000 0.000000
# 2 0.001030 0.018181 -0.007772 0.000000 0.000000 0.000000
# 3 -0.007772 -0.007772 0.018138 0.000000 0.000000 0.000000
# 4 0.000000 0.000000 0.000000 0.026186 0.000000 0.000000
# 5 0.000000 0.000000 0.000000 0.000000 0.026186 0.000000
# 6 0.000000 0.000000 0.000000 0.000000 0.000000 0.034303
#
#
# Mechanical properties :
#
#
# Convention : Reuss Voigt Hill
#
# Bulk Modulus (GPa) = 39.25624 42.25436 40.75530
# Shear Modulus (GPa) = 27.98082 30.66595 29.32339
#
# Velocity S-wave (km/s) = 3.38735 3.54615 3.46766
# Velocity P-wave (km/s) = 5.60327 5.83902 5.72236
#
# Compressibility (1/GPa) = 0.02547366
#
# Stress axis : x y z
#
# Youngs Moduli (GPa) = 55.00148 55.00148 55.13334
#
# Poissons Ratio (x) = -0.05666 0.42848
# Poissons Ratio (y) = -0.05666 0.42848
# Poissons Ratio (z) = 0.42746 0.42746
#
# Static dielectric constant tensor:
#      x y z
#    x 2.017140 0.000000 0.000000 
#    y 0.000000 2.017140 0.000000 
#    z 0.000000 0.000000 2.143700 
# 
# From -- ./inp_files/1555.got.cif
#   From: 2010.05.17/outbox.cif.g08.bks.cpg/sg169_cif.got.tgz:1555.got - 2010.05.20 11:12:54.
