data_PCOD9579405
_publ_section_title
;
Structure prediction by ZEFSAII (Michael W. Deem and Ramdas Pophale) SiO2 
 PCOD9579405
Probable space group: R -3 C 
;
_chemical_formula_sum "Si O2"
_cell_formula_units_Z 162
_cell_length_a 23.683240
_cell_length_b 23.683240
_cell_length_c 15.122977
_cell_angle_alpha 90.000000
_cell_angle_beta 90.000000
_cell_angle_gamma 120.000000
_cell_volume 7345.987000
_symmetry_space_group_name_H-M "R -3 C "
_symmetry_group_IT_number 167
_symmetry_cell_setting 'hexagonal'
loop_
_space_group_symop_operation_xyz
x,y,z
-y,x-y,z
-x+y,-x,z
x-y,-y,1/2-z
-x,-x+y,1/2-z
y,x,1/2-z
-x,-y,-z
y,-x+y,-z
x-y,x,-z
-x+y,y,1/2+z
x,x-y,1/2+z
-y,-x,1/2+z
2/3+x,1/3+y,1/3+z
2/3-y,1/3+x-y,1/3+z
2/3-x+y,1/3-x,1/3+z
2/3+x-y,1/3-y,5/6-z
2/3-x,1/3-x+y,5/6-z
2/3+y,1/3+x,5/6-z
2/3-x,1/3-y,1/3-z
2/3+y,1/3-x+y,1/3-z
2/3+x-y,1/3+x,1/3-z
2/3-x+y,1/3+y,5/6+z
2/3+x,1/3+x-y,5/6+z
2/3-y,1/3-x,5/6+z
1/3+x,2/3+y,2/3+z
1/3-y,2/3+x-y,2/3+z
1/3-x+y,2/3-x,2/3+z
1/3+x-y,2/3-y,1/6-z
1/3-x,2/3-x+y,1/6-z
1/3+y,2/3+x,1/6-z
1/3-x,2/3-y,2/3-z
1/3+y,2/3-x+y,2/3-z
1/3+x-y,2/3+x,2/3-z
1/3-x+y,2/3+y,1/6+z
1/3+x,2/3+x-y,1/6+z
1/3-y,2/3-x,1/6+z
loop_
_atom_site_type_symbol
_atom_site_label
_atom_site_fract_x
_atom_site_fract_y
_atom_site_fract_z
Si Si1 0.737598 0.808256 0.434605
Si Si2 0.704052 0.666667 0.916667
Si Si3 0.876819 0.232930 0.274661
Si Si4 0.050220 0.914144 0.032867
Si Si5 0.058035 0.229761 0.126939
O O1 0.684143 0.751413 0.497607
O O2 0.718311 0.858800 0.395827
O O3 0.799713 0.850913 0.497724
O O4 0.768646 0.783499 0.361638
O O5 0.632739 0.602568 0.931247
O O6 0.897762 0.180819 0.303020
O O7 0.857133 0.255196 0.366297
O O8 0.101488 0.936528 0.114382
O O9 0.974305 0.892206 0.037119
#
# Coordination Sequence:
#
# PCOD9579405 Si02
#       5
#    36  18  36  36  36
#     4   9  16  26  41  60  83 112 143 175 213 255
#     4  10  18  28  44  64  84 112 146 174 214 260
#     4   9  16  27  42  60  83 112 144 176 210 254
#     4   9  15  23  38  62  89 113 139 175 218 260
#     4   8  15  26  40  58  83 112 141 175 213 251
#
# _framework density 22.052855999999998
#
# number of rings (size 3 to 8) (size 9 to 14) (size 15 to 20)
#    0.000    3.111    0.000    4.222    0.000    0.000 
#    0.000    1.111    0.000    0.000    0.000    0.000 
#    0.000    0.000    0.000    8.667    0.000    0.889 
#
# Total GULP energy -300711.802782 kJ/mol
# GULP energy per Si atom -5568.737089 kJ/mol
# Density = 2.200266 g / cm^3
# Si number density = 22.052856 Si / 1000 Ang^3
#
#
#
# Elastic Constant Matrix: (Units=GPa)
#
#
# Indices 1 2 3 4 5 6 
#
# 1 105.9735 14.1748 12.8887 14.0937 0.0001 0.0000
# 2 14.1748 105.9735 12.8887 -14.0937 -0.0001 0.0000
# 3 12.8887 12.8887 33.5409 0.0000 0.0000 0.0000
# 4 14.0937 -14.0937 0.0000 8.0249 0.0000 -0.0001
# 5 0.0001 -0.0001 0.0000 0.0000 8.0249 14.0937
# 6 0.0000 0.0000 0.0000 -0.0001 14.0937 45.8994
#
#
#
# Elastic Compliance Matrix: (Units=1/GPa)
#
#
# Indices 1 2 3 4 5 6 
#
# 1 0.016357 -0.007286 -0.003486 -0.041524 0.000000 0.000000
# 2 -0.007286 0.016357 -0.003486 0.041524 0.000000 0.000000
# 3 -0.003486 -0.003486 0.032493 0.000000 0.000000 0.000000
# 4 -0.041524 0.041524 0.000000 0.270467 0.000000 0.000001
# 5 0.000000 0.000000 0.000000 0.000000 0.270467 -0.083048
# 6 0.000000 0.000000 0.000000 0.000001 -0.083048 0.047287
#
#
# Mechanical properties :
#
#
# Convention : Reuss Voigt Hill
#
# Bulk Modulus (GPa) = 27.25366 36.15470 31.70418
# Shear Modulus (GPa) = 7.20279 26.09219 16.64749
#
# Velocity S-wave (km/s) = 1.80921 3.44345 2.75051
# Velocity P-wave (km/s) = 4.09261 5.67802 4.94921
#
# Compressibility (1/GPa) = 0.03669232
#
# Stress axis : x y z
#
# Youngs Moduli (GPa) = 61.13487 61.13487 30.77570
#
# Poissons Ratio (x) = 0.44545 0.10727
# Poissons Ratio (y) = 0.44545 0.10727
# Poissons Ratio (z) = 0.21310 0.21310
#
# Static dielectric constant tensor:
#      x y z
#    x 1.874200 0.000000 0.000000 
#    y 0.000000 1.874200 0.000000 
#    z 0.000000 0.000000 1.844950 
# 
# From -- ./inp_files/5300.got.cif
#   From: 2010.05.17/outbox.cif.g08.bks.cpg/sg167_3_cif.got.tgz:5300.got - 2010.05.20 11:09:15.
