data_PCOD9579522
_publ_section_title
;
Structure prediction by ZEFSAII (Michael W. Deem and Ramdas Pophale) SiO2 
 PCOD9579522
Probable space group: R -3 C 
;
_chemical_formula_sum "Si O2"
_cell_formula_units_Z 108
_cell_length_a 18.289751
_cell_length_b 18.289751
_cell_length_c 15.057116
_cell_angle_alpha 90.000000
_cell_angle_beta 90.000000
_cell_angle_gamma 120.000000
_cell_volume 4362.023629
_symmetry_space_group_name_H-M "R -3 C "
_symmetry_group_IT_number 167
_symmetry_cell_setting 'hexagonal'
loop_
_space_group_symop_operation_xyz
x,y,z
-y,x-y,z
-x+y,-x,z
x-y,-y,1/2-z
-x,-x+y,1/2-z
y,x,1/2-z
-x,-y,-z
y,-x+y,-z
x-y,x,-z
-x+y,y,1/2+z
x,x-y,1/2+z
-y,-x,1/2+z
2/3+x,1/3+y,1/3+z
2/3-y,1/3+x-y,1/3+z
2/3-x+y,1/3-x,1/3+z
2/3+x-y,1/3-y,5/6-z
2/3-x,1/3-x+y,5/6-z
2/3+y,1/3+x,5/6-z
2/3-x,1/3-y,1/3-z
2/3+y,1/3-x+y,1/3-z
2/3+x-y,1/3+x,1/3-z
2/3-x+y,1/3+y,5/6+z
2/3+x,1/3+x-y,5/6+z
2/3-y,1/3-x,5/6+z
1/3+x,2/3+y,2/3+z
1/3-y,2/3+x-y,2/3+z
1/3-x+y,2/3-x,2/3+z
1/3+x-y,2/3-y,1/6-z
1/3-x,2/3-x+y,1/6-z
1/3+y,2/3+x,1/6-z
1/3-x,2/3-y,2/3-z
1/3+y,2/3-x+y,2/3-z
1/3+x-y,2/3+x,2/3-z
1/3-x+y,2/3+y,1/6+z
1/3+x,2/3+x-y,1/6+z
1/3-y,2/3-x,1/6+z
loop_
_atom_site_type_symbol
_atom_site_label
_atom_site_fract_x
_atom_site_fract_y
_atom_site_fract_z
Si Si1 0.187065 0.728609 0.551526
Si Si2 0.335865 0.431233 0.106463
Si Si3 0.776846 0.243938 0.129539
O O1 0.270736 0.803405 0.596789
O O2 0.117289 0.702407 0.627066
O O3 0.184443 0.765750 0.454687
O O4 0.182048 0.642095 0.519305
O O5 0.286239 0.333334 0.083334
O O6 0.403560 0.481637 0.029804
O O7 0.801871 0.333334 0.083334
#
# Coordination Sequence:
#
# PCOD9579522 Si02
#       3
#    36  36  36
#     4  10  20  42  70 106 156 193 263 329 393 477
#     4  11  22  41  73 112 157 203 264 325 407 488
#     4   9  20  41  68 105 149 196 257 331 392 470
#
# _framework density 24.759150999999999
#
# number of rings (size 3 to 8) (size 9 to 14) (size 15 to 20)
#    0.000    2.000    3.333    0.000    0.000    0.000 
#   52.000   26.667   14.667    0.000    0.000    0.000 
#    0.000    0.000    0.000    0.000    0.000    0.000 
#
# Total GULP energy -201167.236319 kJ/mol
# GULP energy per Si atom -5587.978787 kJ/mol
# Density = 2.470280 g / cm^3
# Si number density = 24.759151 Si / 1000 Ang^3
#
#
#
# Elastic Constant Matrix: (Units=GPa)
#
#
# Indices 1 2 3 4 5 6 
#
# 1 98.6521 66.7740 102.7927 -1.4690 -0.0014 0.0000
# 2 66.7740 98.6521 102.7927 1.4690 0.0014 0.0000
# 3 102.7927 102.7927 245.0335 0.0000 0.0000 0.0000
# 4 -1.4690 1.4690 0.0000 15.6369 0.0000 0.0014
# 5 -0.0014 0.0014 0.0000 0.0000 15.6369 -1.4690
# 6 0.0000 0.0000 0.0000 0.0014 -1.4690 15.9391
#
#
#
# Elastic Compliance Matrix: (Units=1/GPa)
#
#
# Indices 1 2 3 4 5 6 
#
# 1 0.022136 -0.009507 -0.005298 0.002973 0.000003 0.000000
# 2 -0.009507 0.022136 -0.005298 -0.002973 -0.000003 0.000000
# 3 -0.005298 -0.005298 0.008526 0.000000 0.000000 0.000000
# 4 0.002973 -0.002973 0.000000 0.064510 0.000000 -0.000005
# 5 0.000003 -0.000003 0.000000 0.000000 0.064510 0.005945
# 6 0.000000 0.000000 0.000000 -0.000005 0.005945 0.063287
#
#
# Mechanical properties :
#
#
# Convention : Reuss Voigt Hill
#
# Bulk Modulus (GPa) = 79.41260 109.67294 94.54277
# Shear Modulus (GPa) = 17.27064 20.77448 19.02256
#
# Velocity S-wave (km/s) = 2.64397 2.89980 2.77484
# Velocity P-wave (km/s) = 6.43929 7.45680 6.96665
#
# Compressibility (1/GPa) = 0.01259246
#
# Stress axis : x y z
#
# Youngs Moduli (GPa) = 45.17472 45.17472 117.28667
#
# Poissons Ratio (x) = 0.42948 0.62138
# Poissons Ratio (y) = 0.42948 0.62138
# Poissons Ratio (z) = 0.23933 0.23933
#
# Static dielectric constant tensor:
#      x y z
#    x 1.991900 0.000000 0.000000 
#    y 0.000000 1.991900 0.000000 
#    z 0.000000 0.000000 1.953360 
# 
# From -- ./inp_files/2079.got.cif
#   From: 2010.05.17/outbox.cif.g08.bks.cpg/sg167_2_cif.got.tgz:2079.got - 2010.05.20 11:09:15.
