data_PCOD9579605
_publ_section_title
;
Structure prediction by ZEFSAII (Michael W. Deem and Ramdas Pophale) SiO2 
 PCOD9579605
Probable space group: R -3 C 
;
_chemical_formula_sum "Si O2"
_cell_formula_units_Z 90
_cell_length_a 19.433797
_cell_length_b 19.433797
_cell_length_c 12.553439
_cell_angle_alpha 90.000000
_cell_angle_beta 90.000000
_cell_angle_gamma 120.000000
_cell_volume 4105.902876
_symmetry_space_group_name_H-M "R -3 C "
_symmetry_group_IT_number 167
_symmetry_cell_setting 'hexagonal'
loop_
_space_group_symop_operation_xyz
x,y,z
-y,x-y,z
-x+y,-x,z
x-y,-y,1/2-z
-x,-x+y,1/2-z
y,x,1/2-z
-x,-y,-z
y,-x+y,-z
x-y,x,-z
-x+y,y,1/2+z
x,x-y,1/2+z
-y,-x,1/2+z
2/3+x,1/3+y,1/3+z
2/3-y,1/3+x-y,1/3+z
2/3-x+y,1/3-x,1/3+z
2/3+x-y,1/3-y,5/6-z
2/3-x,1/3-x+y,5/6-z
2/3+y,1/3+x,5/6-z
2/3-x,1/3-y,1/3-z
2/3+y,1/3-x+y,1/3-z
2/3+x-y,1/3+x,1/3-z
2/3-x+y,1/3+y,5/6+z
2/3+x,1/3+x-y,5/6+z
2/3-y,1/3-x,5/6+z
1/3+x,2/3+y,2/3+z
1/3-y,2/3+x-y,2/3+z
1/3-x+y,2/3-x,2/3+z
1/3+x-y,2/3-y,1/6-z
1/3-x,2/3-x+y,1/6-z
1/3+y,2/3+x,1/6-z
1/3-x,2/3-y,2/3-z
1/3+y,2/3-x+y,2/3-z
1/3+x-y,2/3+x,2/3-z
1/3-x+y,2/3+y,1/6+z
1/3+x,2/3+x-y,1/6+z
1/3-y,2/3-x,1/6+z
loop_
_atom_site_type_symbol
_atom_site_label
_atom_site_fract_x
_atom_site_fract_y
_atom_site_fract_z
Si Si1 0.807214 0.225901 0.397862
Si Si2 0.851655 0.362531 0.976792
Si Si3 0.497505 0.666667 0.916667
O O1 0.816409 0.149743 0.416667
O O2 0.717413 0.208081 0.413478
O O3 0.835797 0.254075 0.278796
O O4 0.852939 0.290513 0.490368
O O5 0.875845 0.333334 0.083334
O O6 0.819225 0.418005 0.025167
#
# Coordination Sequence:
#
# PCOD9579605 Si02
#       3
#    36  36  18
#     4  11  23  45  68 101 142 179 233 294 355 429
#     4  10  22  43  68  96 136 181 231 292 347 421
#     4  10  22  44  68 102 136 180 240 288 350 428
#
# _framework density 21.919661999999999
#
# number of rings (size 3 to 8) (size 9 to 14) (size 15 to 20)
#    0.000    1.600    4.000    0.000    0.000    6.400 
#   36.000    8.000    0.000    0.000    0.000    0.000 
#    0.000    0.000    0.000    0.000    0.000    0.000 
#
# Total GULP energy -167045.648762 kJ/mol
# GULP energy per Si atom -5568.188292 kJ/mol
# Density = 2.186977 g / cm^3
# Si number density = 21.919662 Si / 1000 Ang^3
#
#
#
# Elastic Constant Matrix: (Units=GPa)
#
#
# Indices 1 2 3 4 5 6 
#
# 1 56.9795 26.6633 37.6330 -1.6407 0.0000 0.0000
# 2 26.6633 56.9795 37.6330 1.6407 0.0000 0.0000
# 3 37.6330 37.6330 160.6509 0.0000 0.0000 0.0000
# 4 -1.6407 1.6407 0.0000 0.8695 0.0000 0.0000
# 5 0.0000 0.0000 0.0000 0.0000 0.8695 -1.6407
# 6 0.0000 0.0000 0.0000 0.0000 -1.6407 15.1581
#
#
#
# Elastic Compliance Matrix: (Units=1/GPa)
#
#
# Indices 1 2 3 4 5 6 
#
# 1 0.028300 -0.013151 -0.003549 0.078212 -0.000002 0.000000
# 2 -0.013151 0.028300 -0.003549 -0.078212 0.000002 0.000000
# 3 -0.003549 -0.003549 0.007887 0.000000 0.000000 0.000000
# 4 0.078212 -0.078212 0.000000 1.445197 0.000000 0.000004
# 5 -0.000002 0.000002 0.000000 0.000000 1.445197 0.156424
# 6 0.000000 0.000000 0.000000 0.000004 0.156424 0.082902
#
#
# Mechanical properties :
#
#
# Convention : Reuss Voigt Hill
#
# Bulk Modulus (GPa) = 41.68352 53.16319 47.42335
# Shear Modulus (GPa) = 1.62007 14.89147 8.25577
#
# Velocity S-wave (km/s) = 0.86064 2.60929 1.94282
# Velocity P-wave (km/s) = 4.47721 5.77790 5.16863
#
# Compressibility (1/GPa) = 0.02399030
#
# Stress axis : x y z
#
# Youngs Moduli (GPa) = 35.33566 35.33566 126.78687
#
# Poissons Ratio (x) = 0.46470 0.44993
# Poissons Ratio (y) = 0.46470 0.44993
# Poissons Ratio (z) = 0.12539 0.12539
#
# Static dielectric constant tensor:
#      x y z
#    x 1.814800 0.000000 0.000000 
#    y 0.000000 1.814800 0.000000 
#    z 0.000000 0.000000 1.867550 
# 
# From -- ./inp_files/1977.got.cif
#   From: 2010.05.17/outbox.cif.g08.bks.cpg/sg167_1_cif.got.tgz:1977.got - 2010.05.20 11:09:15.
