data_PCOD9579779
_publ_section_title
;
Structure prediction by ZEFSAII (Michael W. Deem and Ramdas Pophale) SiO2 
 PCOD9579779
Probable space group: P 61
;
_chemical_formula_sum "Si O2"
_cell_formula_units_Z 36
_cell_length_a 14.783541
_cell_length_b 14.783541
_cell_length_c 9.900160
_cell_angle_alpha 90.000000
_cell_angle_beta 90.000000
_cell_angle_gamma 120.000000
_cell_volume 1873.828264
_symmetry_space_group_name_H-M "P 61"
_symmetry_group_IT_number 169
_symmetry_cell_setting 'hexagonal'
loop_
_space_group_symop_operation_xyz
x,y,z
x-y,x,1/6+z
-y,x-y,1/3+z
-x,-y,1/2+z
-x+y,-x,2/3+z
y,-x+y,5/6+z
loop_
_atom_site_type_symbol
_atom_site_label
_atom_site_fract_x
_atom_site_fract_y
_atom_site_fract_z
Si Si1 0.196016 0.074596 0.989780
Si Si2 0.570583 0.141166 0.370974
Si Si3 0.579887 0.766848 0.857930
Si Si4 0.813040 0.233153 0.384019
Si Si5 0.803984 0.878580 0.918835
Si Si6 0.545830 0.545830 0.787641
O O1 0.138870 0.997444 0.868278
O O2 0.317448 0.153175 0.963478
O O3 0.181719 1.000000 0.120974
O O4 0.515796 0.212221 0.379551
O O5 0.696425 0.212221 0.362397
O O6 0.534580 0.066336 0.239348
O O7 0.531757 0.066337 0.502601
O O8 0.612652 0.806326 0.704308
O O9 0.682552 0.835727 0.945138
O O10 0.559503 0.649770 0.861480
O O11 0.909734 0.350230 0.380468
O O12 0.858574 0.997444 0.873669
#
# Coordination Sequence:
#
# PCOD9579779 Si02
#       6
#     6   6   6   6   6   6
#     4  10  16  27  53  80 105 140 194 241 269 333
#     4  10  22  36  62  88 118 152 210 242 300 360
#     4  10  17  35  60  81 105 155 201 238 284 363
#     4  10  17  35  60  81 105 155 201 238 284 363
#     4  10  16  27  53  80 105 140 194 241 269 333
#     4  10  20  40  60  86 114 154 192 258 296 354
#
# _framework density 19.212007
#
# number of rings (size 3 to 8) (size 9 to 14) (size 15 to 20)
#    0.000    2.000    5.000    2.000    0.000    0.000 
#    9.000    0.000   18.333    0.000    0.000    0.000 
#    0.000    0.000    0.000    0.000    0.000    0.000 
#
# Total GULP energy -200535.044646 kJ/mol
# GULP energy per Si atom -5570.417907 kJ/mol
# Density = 1.916828 g / cm^3
# Si number density = 19.212007 Si / 1000 Ang^3
#
#
#
# Elastic Constant Matrix: (Units=GPa)
#
#
# Indices 1 2 3 4 5 6 
#
# 1 133.8763 75.6901 22.5367 0.0000 0.0000 0.0000
# 2 75.6901 133.8763 22.5367 0.0000 0.0000 0.0000
# 3 22.5367 22.5367 27.8143 0.0000 0.0000 0.0000
# 4 0.0000 0.0000 0.0000 13.2262 0.0000 0.0000
# 5 0.0000 0.0000 0.0000 0.0000 13.2262 0.0000
# 6 0.0000 0.0000 0.0000 0.0000 0.0000 29.0931
#
#
#
# Elastic Compliance Matrix: (Units=1/GPa)
#
#
# Indices 1 2 3 4 5 6 
#
# 1 0.011483 -0.005704 -0.004682 0.000000 0.000000 0.000000
# 2 -0.005704 0.011483 -0.004682 0.000000 0.000000 0.000000
# 3 -0.004682 -0.004682 0.043541 0.000000 0.000000 0.000000
# 4 0.000000 0.000000 0.000000 0.075608 0.000000 0.000000
# 5 0.000000 0.000000 0.000000 0.000000 0.075608 0.000000
# 6 0.000000 0.000000 0.000000 0.000000 0.000000 0.034372
#
#
# Mechanical properties :
#
#
# Convention : Reuss Voigt Hill
#
# Bulk Modulus (GPa) = 27.49602 59.67708 43.58655
# Shear Modulus (GPa) = 16.98639 22.76263 19.87451
#
# Velocity S-wave (km/s) = 2.97670 3.44585 3.21983
# Velocity P-wave (km/s) = 5.11442 6.85286 6.04644
#
# Compressibility (1/GPa) = 0.03636889
#
# Stress axis : x y z
#
# Youngs Moduli (GPa) = 87.08885 87.08885 22.96707
#
# Poissons Ratio (x) = 0.49673 0.10754
# Poissons Ratio (y) = 0.49673 0.10754
# Poissons Ratio (z) = 0.40778 0.40778
#
# Static dielectric constant tensor:
#      x y z
#    x 1.694830 0.000000 0.000000 
#    y 0.000000 1.694830 0.000000 
#    z 0.000000 0.000000 1.708700 
# 
# From -- ./inp_files/885.got.cif
#   From: 2010.05.17/outbox.cif.g08.bks.cpg/sg169_cif.got.tgz:885.got - 2010.05.20 11:12:54.
