data_PCOD9579203
_publ_section_title
;
Structure prediction by ZEFSAII (Michael W. Deem and Ramdas Pophale) SiO2 
 PCOD9579203
Probable space group: R -3 M
;
_chemical_formula_sum "Si O2"
_cell_formula_units_Z 144
_cell_length_a 28.043528
_cell_length_b 28.043528
_cell_length_c 12.287842
_cell_angle_alpha 90.000000
_cell_angle_beta 90.000000
_cell_angle_gamma 120.000000
_cell_volume 8368.961076
_symmetry_space_group_name_H-M "R -3 M"
_symmetry_group_IT_number 166
_symmetry_cell_setting 'hexagonal'
loop_
_space_group_symop_operation_xyz
x,y,z
-y,x-y,z
-x+y,-x,z
x-y,-y,-z
-x,-x+y,-z
y,x,-z
-x,-y,-z
y,-x+y,-z
x-y,x,-z
-x+y,y,z
x,x-y,z
-y,-x,z
2/3+x,1/3+y,1/3+z
2/3-y,1/3+x-y,1/3+z
2/3-x+y,1/3-x,1/3+z
2/3+x-y,1/3-y,1/3-z
2/3-x,1/3-x+y,1/3-z
2/3+y,1/3+x,1/3-z
2/3-x,1/3-y,1/3-z
2/3+y,1/3-x+y,1/3-z
2/3+x-y,1/3+x,1/3-z
2/3-x+y,1/3+y,1/3+z
2/3+x,1/3+x-y,1/3+z
2/3-y,1/3-x,1/3+z
1/3+x,2/3+y,2/3+z
1/3-y,2/3+x-y,2/3+z
1/3-x+y,2/3-x,2/3+z
1/3+x-y,2/3-y,2/3-z
1/3-x,2/3-x+y,2/3-z
1/3+y,2/3+x,2/3-z
1/3-x,2/3-y,2/3-z
1/3+y,2/3-x+y,2/3-z
1/3+x-y,2/3+x,2/3-z
1/3-x+y,2/3+y,2/3+z
1/3+x,2/3+x-y,2/3+z
1/3-y,2/3-x,2/3+z
loop_
_atom_site_type_symbol
_atom_site_label
_atom_site_fract_x
_atom_site_fract_y
_atom_site_fract_z
Si Si1 0.837694 0.567335 0.109848
Si Si2 0.021138 0.294261 0.617736
Si Si3 0.943561 0.418450 0.311389
Si Si4 0.690474 0.203700 0.448348
O O1 0.788714 0.577428 0.070237
O O2 0.857855 0.598331 0.226419
O O3 0.811797 0.502877 0.138177
O O4 0.889567 0.589379 0.030748
O O5 0.080457 0.349430 0.606165
O O6 0.000000 0.268227 0.500000
O O7 0.979593 0.312926 0.666667
O O8 0.966134 0.483067 0.293656
O O9 0.884745 0.386872 0.252148
O O10 0.737485 0.262516 0.490230
O O11 0.666667 0.210384 0.333334
#
# Coordination Sequence:
#
# PCOD9579203 Si02
#       4
#    36  36  36  36
#     4  10  20  35  54  74  99 134 172 207 248 301
#     4  12  22  32  48  72 104 136 171 212 251 293
#     4   9  17  31  52  75 101 133 168 205 247 300
#     4   9  16  29  51  78 105 130 157 198 254 307
#
# _framework density 17.206437000000001
#
# number of rings (size 3 to 8) (size 9 to 14) (size 15 to 20)
#    0.000    2.000    0.000    9.000    0.000    2.000 
#    0.000    2.500    0.000   11.250    0.000    0.000 
#    0.000    1.000    0.000    0.000    0.000    0.000 
#
# Total GULP energy -267891.484063 kJ/mol
# GULP energy per Si atom -5581.072585 kJ/mol
# Density = 1.716727 g / cm^3
# Si number density = 17.206437 Si / 1000 Ang^3
#
#
#
# Elastic Constant Matrix: (Units=GPa)
#
#
# Indices 1 2 3 4 5 6 
#
# 1 73.5453 27.7077 26.0904 -3.1520 -0.0005 0.0000
# 2 27.7077 73.5453 26.0911 3.1519 0.0004 0.0000
# 3 26.0904 26.0911 51.3600 -0.0003 0.0003 -0.0005
# 4 -3.1520 3.1519 -0.0003 17.3856 -0.0004 0.0002
# 5 -0.0005 0.0004 0.0003 -0.0004 17.3866 -3.1523
# 6 0.0000 0.0000 -0.0005 0.0002 -3.1523 22.9188
#
#
#
# Elastic Compliance Matrix: (Units=1/GPa)
#
#
# Indices 1 2 3 4 5 6 
#
# 1 0.017876 -0.004498 -0.006796 0.004056 0.000001 0.000000
# 2 -0.004498 0.017877 -0.006797 -0.004056 -0.000001 0.000000
# 3 -0.006796 -0.006797 0.026376 0.000001 0.000000 0.000001
# 4 0.004056 -0.004056 0.000001 0.058989 0.000001 0.000000
# 5 0.000001 -0.000001 0.000000 0.000001 0.058986 0.008113
# 6 0.000000 0.000000 0.000001 0.000000 0.008113 0.044748
#
#
# Mechanical properties :
#
#
# Convention : Reuss Voigt Hill
#
# Bulk Modulus (GPa) = 38.53931 39.80323 39.17127
# Shear Modulus (GPa) = 18.54033 19.44230 18.99132
#
# Velocity S-wave (km/s) = 3.28613 3.36511 3.32585
# Velocity P-wave (km/s) = 6.07001 6.18721 6.12889
#
# Compressibility (1/GPa) = 0.02594753
#
# Stress axis : x y z
#
# Youngs Moduli (GPa) = 55.94005 55.93922 37.91396
#
# Poissons Ratio (x) = 0.25159 0.25767
# Poissons Ratio (y) = 0.25160 0.25769
# Poissons Ratio (z) = 0.38018 0.38020
#
# Static dielectric constant tensor:
#      x y z
#    x 1.613420 0.000000 0.000000 
#    y 0.000000 1.613420 0.000000 
#    z 0.000000 0.000000 1.563780 
# 
# From -- ./inp_files/1802.got.cif
#   From: 2010.05.17/outbox.cif.g08.bks.cpg/sg166_1_cif.got.tgz:1802.got - 2010.05.20 11:04:41.
