data_PCOD9579301
_publ_section_title
;
Structure prediction by ZEFSAII (Michael W. Deem and Ramdas Pophale) SiO2 
 PCOD9579301
Probable space group: R -3 M
;
_chemical_formula_sum "Si O2"
_cell_formula_units_Z 90
_cell_length_a 15.794222
_cell_length_b 15.794222
_cell_length_c 23.855534
_cell_angle_alpha 90.000000
_cell_angle_beta 90.000000
_cell_angle_gamma 120.000000
_cell_volume 5153.665776
_symmetry_space_group_name_H-M "R -3 M"
_symmetry_group_IT_number 166
_symmetry_cell_setting 'hexagonal'
loop_
_space_group_symop_operation_xyz
x,y,z
-y,x-y,z
-x+y,-x,z
x-y,-y,-z
-x,-x+y,-z
y,x,-z
-x,-y,-z
y,-x+y,-z
x-y,x,-z
-x+y,y,z
x,x-y,z
-y,-x,z
2/3+x,1/3+y,1/3+z
2/3-y,1/3+x-y,1/3+z
2/3-x+y,1/3-x,1/3+z
2/3+x-y,1/3-y,1/3-z
2/3-x,1/3-x+y,1/3-z
2/3+y,1/3+x,1/3-z
2/3-x,1/3-y,1/3-z
2/3+y,1/3-x+y,1/3-z
2/3+x-y,1/3+x,1/3-z
2/3-x+y,1/3+y,1/3+z
2/3+x,1/3+x-y,1/3+z
2/3-y,1/3-x,1/3+z
1/3+x,2/3+y,2/3+z
1/3-y,2/3+x-y,2/3+z
1/3-x+y,2/3-x,2/3+z
1/3+x-y,2/3-y,2/3-z
1/3-x,2/3-x+y,2/3-z
1/3+y,2/3+x,2/3-z
1/3-x,2/3-y,2/3-z
1/3+y,2/3-x+y,2/3-z
1/3+x-y,2/3+x,2/3-z
1/3-x+y,2/3+y,2/3+z
1/3+x,2/3+x-y,2/3+z
1/3-y,2/3-x,2/3+z
loop_
_atom_site_type_symbol
_atom_site_label
_atom_site_fract_x
_atom_site_fract_y
_atom_site_fract_z
Si Si1 0.872526 0.936263 0.651139
Si Si2 0.184356 0.815645 0.101168
Si Si3 0.680686 0.014019 0.166667
Si Si4 0.469259 0.938517 0.424456
Si Si5 0.447228 0.894455 0.661855
O O1 0.809343 0.904672 0.594264
O O2 0.806767 0.903384 0.707344
O O3 0.946933 0.893866 0.651994
O O4 0.086108 0.741636 0.134712
O O5 0.150530 0.849471 0.046748
O O6 0.716334 0.110814 0.127531
O O7 0.522038 0.044075 0.394833
O O8 0.333334 0.829827 0.666667
#
# Coordination Sequence:
#
# PCOD9579301 Si02
#       5
#    18  18  18  18  18
#     4   9  23  42  61  87 120 164 206 244 290 369
#     4  11  24  38  63  89 123 161 200 253 312 347
#     4  11  24  40  63  92 124 158 201 260 308 357
#     4  10  22  42  63  87 124 159 209 251 296 368
#     4  11  20  40  59  88 121 159 197 246 309 374
#
# _framework density 17.463297000000001
#
# number of rings (size 3 to 8) (size 9 to 14) (size 15 to 20)
#    0.400    1.200    4.000    0.200    5.600    0.000 
#    0.000    3.000    4.400    0.000    0.000    0.000 
#    0.000    0.000    0.000    0.000    0.000    0.000 
#
# Total GULP energy -167100.044076 kJ/mol
# GULP energy per Si atom -5570.001469 kJ/mol
# Density = 1.742355 g / cm^3
# Si number density = 17.463297 Si / 1000 Ang^3
#
#
#
# Elastic Constant Matrix: (Units=GPa)
#
#
# Indices 1 2 3 4 5 6 
#
# 1 113.1067 48.7297 51.1105 1.5828 0.0005 0.0000
# 2 48.7297 113.1067 51.1105 -1.5828 -0.0005 0.0000
# 3 51.1105 51.1105 97.8578 0.0000 0.0000 0.0000
# 4 1.5828 -1.5828 0.0000 18.9466 0.0000 -0.0005
# 5 0.0005 -0.0005 0.0000 0.0000 18.9466 1.5828
# 6 0.0000 0.0000 0.0000 -0.0005 1.5828 32.1885
#
#
#
# Elastic Compliance Matrix: (Units=1/GPa)
#
#
# Indices 1 2 3 4 5 6 
#
# 1 0.012409 -0.003188 -0.004816 -0.001303 0.000000 0.000000
# 2 -0.003188 0.012409 -0.004816 0.001303 0.000000 0.000000
# 3 -0.004816 -0.004816 0.015250 0.000000 0.000000 0.000000
# 4 -0.001303 0.001303 0.000000 0.052997 0.000000 0.000001
# 5 0.000000 0.000000 0.000000 0.000000 0.052997 -0.002606
# 6 0.000000 0.000000 0.000000 0.000001 -0.002606 0.031195
#
#
# Mechanical properties :
#
#
# Convention : Reuss Voigt Hill
#
# Bulk Modulus (GPa) = 69.31217 69.55250 69.43234
# Shear Modulus (GPa) = 24.07218 25.55772 24.81495
#
# Velocity S-wave (km/s) = 3.71677 3.82974 3.77367
# Velocity P-wave (km/s) = 7.62860 7.71169 7.67026
#
# Compressibility (1/GPa) = 0.01442748
#
# Stress axis : x y z
#
# Youngs Moduli (GPa) = 80.58452 80.58452 65.57474
#
# Poissons Ratio (x) = 0.25692 0.31582
# Poissons Ratio (y) = 0.25692 0.31582
# Poissons Ratio (z) = 0.38810 0.38810
#
# Static dielectric constant tensor:
#      x y z
#    x 1.577520 0.000000 0.000000 
#    y 0.000000 1.577520 0.000000 
#    z 0.000000 0.000000 1.600220 
# 
# From -- ./inp_files/7668.got.cif
#   From: 2010.05.17/outbox.cif.g08.bks.cpg/sg166_4_cif.got.tgz:7668.got - 2010.05.20 11:04:41.
