data_PCOD9579036
_publ_section_title
;
Structure prediction by ZEFSAII (Michael W. Deem and Ramdas Pophale) SiO2 
 PCOD9579036
Probable space group: R -3 M
;
_chemical_formula_sum "Si O2"
_cell_formula_units_Z 216
_cell_length_a 25.443600
_cell_length_b 25.443600
_cell_length_c 20.876161
_cell_angle_alpha 90.000000
_cell_angle_beta 90.000000
_cell_angle_gamma 120.000000
_cell_volume 11704.109817
_symmetry_space_group_name_H-M "R -3 M"
_symmetry_group_IT_number 166
_symmetry_cell_setting 'hexagonal'
loop_
_space_group_symop_operation_xyz
x,y,z
-y,x-y,z
-x+y,-x,z
x-y,-y,-z
-x,-x+y,-z
y,x,-z
-x,-y,-z
y,-x+y,-z
x-y,x,-z
-x+y,y,z
x,x-y,z
-y,-x,z
2/3+x,1/3+y,1/3+z
2/3-y,1/3+x-y,1/3+z
2/3-x+y,1/3-x,1/3+z
2/3+x-y,1/3-y,1/3-z
2/3-x,1/3-x+y,1/3-z
2/3+y,1/3+x,1/3-z
2/3-x,1/3-y,1/3-z
2/3+y,1/3-x+y,1/3-z
2/3+x-y,1/3+x,1/3-z
2/3-x+y,1/3+y,1/3+z
2/3+x,1/3+x-y,1/3+z
2/3-y,1/3-x,1/3+z
1/3+x,2/3+y,2/3+z
1/3-y,2/3+x-y,2/3+z
1/3-x+y,2/3-x,2/3+z
1/3+x-y,2/3-y,2/3-z
1/3-x,2/3-x+y,2/3-z
1/3+y,2/3+x,2/3-z
1/3-x,2/3-y,2/3-z
1/3+y,2/3-x+y,2/3-z
1/3+x-y,2/3+x,2/3-z
1/3-x+y,2/3+y,2/3+z
1/3+x,2/3+x-y,2/3+z
1/3-y,2/3-x,2/3+z
loop_
_atom_site_type_symbol
_atom_site_label
_atom_site_fract_x
_atom_site_fract_y
_atom_site_fract_z
Si Si1 0.902685 0.097316 0.632611
Si Si2 0.131997 0.263993 0.490728
Si Si3 0.177023 0.701404 0.986626
Si Si4 0.878016 0.537326 0.144157
Si Si5 0.033580 0.428914 0.258006
Si Si6 0.614324 0.107439 0.281117
Si Si7 0.279326 0.139663 0.748126
Si Si8 0.666667 0.677668 0.833334
O O1 0.896385 0.103616 0.556875
O O2 0.871394 0.128607 0.674876
O O3 0.972876 0.134357 0.653692
O O4 0.085103 0.271244 0.536351
O O5 0.160075 0.320149 0.441763
O O6 0.239219 0.760782 0.005690
O O7 0.170716 0.697706 0.909608
O O8 0.121461 0.707513 0.016896
O O9 0.861302 0.507158 0.213816
O O10 0.916108 0.509551 0.112004
O O11 0.924267 0.607975 0.156405
O O12 0.021783 0.366011 0.227363
O O13 0.965924 0.416236 0.273709
O O14 0.560062 0.120123 0.296427
O O15 0.666667 0.130795 0.333334
#
# Coordination Sequence:
#
# PCOD9579036 Si02
#       8
#    18  18  36  36  36  36  18  18
#     4  10  25  36  64  89 110 162 210 261 316 354
#     4  12  17  38  62  83 124 158 193 240 304 359
#     4  11  24  42  58  87 120 155 205 259 310 367
#     4  10  21  37  59  82 121 156 198 242 294 353
#     4  11  21  37  57  88 129 161 191 244 298 360
#     4  11  22  40  64  92 126 165 203 246 306 369
#     4  10  17  38  56  86 117 149 197 254 290 352
#     4  10  20  32  55  88 118 159 200 232 282 364
#
# _framework density 18.455055999999999
#
# number of rings (size 3 to 8) (size 9 to 14) (size 15 to 20)
#    0.000    1.333    5.833    1.250    4.667    0.667 
#    0.500    0.417    0.000    0.167    0.000    1.167 
#    0.000    0.000    0.000    0.000    0.000    0.000 
#
# Total GULP energy -401725.884827 kJ/mol
# GULP energy per Si atom -5579.526178 kJ/mol
# Density = 1.841305 g / cm^3
# Si number density = 18.455056 Si / 1000 Ang^3
#
#
#
# Elastic Constant Matrix: (Units=GPa)
#
#
# Indices 1 2 3 4 5 6 
#
# 1 64.0027 21.6556 22.7807 9.8974 -0.0009 0.0000
# 2 21.6556 64.0027 22.7807 -9.8974 0.0009 0.0000
# 3 22.7807 22.7807 98.6057 0.0000 0.0000 0.0000
# 4 9.8974 -9.8974 0.0000 28.6579 0.0000 0.0009
# 5 -0.0009 0.0009 0.0000 0.0000 28.6579 9.8974
# 6 0.0000 0.0000 0.0000 0.0009 9.8974 21.1736
#
#
#
# Elastic Compliance Matrix: (Units=1/GPa)
#
#
# Indices 1 2 3 4 5 6 
#
# 1 0.020735 -0.007425 -0.003075 -0.009726 0.000001 0.000000
# 2 -0.007425 0.020735 -0.003075 0.009726 -0.000001 0.000000
# 3 -0.003075 -0.003075 0.011562 0.000000 0.000000 0.000000
# 4 -0.009726 0.009726 0.000000 0.041612 0.000000 -0.000002
# 5 0.000001 -0.000001 0.000000 0.000000 0.041612 -0.019451
# 6 0.000000 0.000000 0.000000 -0.000002 -0.019451 0.056321
#
#
# Mechanical properties :
#
#
# Convention : Reuss Voigt Hill
#
# Bulk Modulus (GPa) = 38.63672 40.11610 39.37641
# Shear Modulus (GPa) = 21.89568 26.32417 24.10992
#
# Velocity S-wave (km/s) = 3.44820 3.78086 3.61835
# Velocity P-wave (km/s) = 6.06914 6.39095 6.23212
#
# Compressibility (1/GPa) = 0.02588212
#
# Stress axis : x y z
#
# Youngs Moduli (GPa) = 48.22721 48.22721 86.48876
#
# Poissons Ratio (x) = 0.35810 0.26595
# Poissons Ratio (y) = 0.35810 0.26595
# Poissons Ratio (z) = 0.14830 0.14830
#
# Static dielectric constant tensor:
#      x y z
#    x 1.622190 0.000000 0.000000 
#    y 0.000000 1.622190 0.000000 
#    z 0.000000 0.000000 1.687050 
# 
# From -- ./inp_files/8546.got.cif
#   From: 2010.05.17/outbox.cif.g08.bks.cpg/sg166_5_cif.got.tgz:8546.got - 2010.05.20 11:04:41.
