data_PCOD9579871
_publ_section_title
;
Structure prediction by ZEFSAII (Michael W. Deem and Ramdas Pophale) SiO2 
 PCOD9579871
Probable space group: P 61
;
_chemical_formula_sum "Si O2"
_cell_formula_units_Z 42
_cell_length_a 14.659540
_cell_length_b 14.659540
_cell_length_c 9.723650
_cell_angle_alpha 90.000000
_cell_angle_beta 90.000000
_cell_angle_gamma 120.000000
_cell_volume 1809.675203
_symmetry_space_group_name_H-M "P 61"
_symmetry_group_IT_number 169
_symmetry_cell_setting 'hexagonal'
loop_
_space_group_symop_operation_xyz
x,y,z
x-y,x,1/6+z
-y,x-y,1/3+z
-x,-y,1/2+z
-x+y,-x,2/3+z
y,-x+y,5/6+z
loop_
_atom_site_type_symbol
_atom_site_label
_atom_site_fract_x
_atom_site_fract_y
_atom_site_fract_z
Si Si1 0.456168 0.617657 0.058920
Si Si2 0.215984 0.608334 0.419750
Si Si3 0.177239 0.757704 0.790002
Si Si4 0.364305 0.009339 0.282525
Si Si5 0.402290 0.830989 0.779427
Si Si6 0.704175 0.755274 0.664608
Si Si7 0.191914 0.061604 0.345457
O O1 0.463034 0.729083 0.076980
O O2 0.358227 0.524048 0.138973
O O3 0.571066 0.634466 0.070833
O O4 0.428227 0.586799 0.897494
O O5 0.156705 0.557001 0.279041
O O6 0.319126 0.595629 0.423982
O O7 0.293855 0.816246 0.716143
O O8 0.058023 0.731855 0.752864
O O9 0.205335 0.841365 0.913808
O O10 0.484573 0.077951 0.238147
O O11 0.305784 0.069593 0.340110
O O12 0.301216 0.952511 0.143182
O O13 0.803657 0.862086 0.721305
O O14 0.166262 0.107701 0.478774
#
# Coordination Sequence:
#
# PCOD9579871 Si02
#       7
#     6   6   6   6   6   6   6
#     4  10  22  37  56  91 132 178 227 274 363 421
#     4   9  20  36  58  79 133 176 212 272 342 435
#     4  11  21  38  62 101 136 188 230 303 347 439
#     4  11  22  36  66 102 132 175 228 302 347 446
#     4  10  20  35  58  94 133 178 225 276 365 418
#     4  11  21  38  68  98 134 177 252 290 353 416
#     4  10  22  40  70 101 130 174 246 301 359 423
#
# _framework density 23.208583999999998
#
# number of rings (size 3 to 8) (size 9 to 14) (size 15 to 20)
#    0.000    1.714    2.857    2.571    8.000    1.143 
#    0.000    1.429    3.143    0.000    0.000    0.000 
#    0.000    0.000    0.000    0.000    0.000    0.000 
#
# Total GULP energy -234058.556219 kJ/mol
# GULP energy per Si atom -5572.822767 kJ/mol
# Density = 2.315576 g / cm^3
# Si number density = 23.208584 Si / 1000 Ang^3
#
#
#
# Elastic Constant Matrix: (Units=GPa)
#
#
# Indices 1 2 3 4 5 6 
#
# 1 110.1421 34.3341 9.4193 0.0000 0.0000 0.0000
# 2 34.3341 110.1422 9.4193 0.0000 0.0000 0.0000
# 3 9.4193 9.4193 73.5474 0.0000 0.0000 0.0000
# 4 0.0000 0.0000 0.0000 29.2812 0.0000 0.0000
# 5 0.0000 0.0000 0.0000 0.0000 29.2812 0.0000
# 6 0.0000 0.0000 0.0000 0.0000 0.0000 37.9040
#
#
#
# Elastic Compliance Matrix: (Units=1/GPa)
#
#
# Indices 1 2 3 4 5 6 
#
# 1 0.010115 -0.003076 -0.000902 0.000000 0.000000 0.000000
# 2 -0.003076 0.010115 -0.000902 0.000000 0.000000 0.000000
# 3 -0.000902 -0.000902 0.013828 0.000000 0.000000 0.000000
# 4 0.000000 0.000000 0.000000 0.034152 0.000000 0.000000
# 5 0.000000 0.000000 0.000000 0.000000 0.034152 0.000000
# 6 0.000000 0.000000 0.000000 0.000000 0.000000 0.026382
#
#
# Mechanical properties :
#
#
# Convention : Reuss Voigt Hill
#
# Bulk Modulus (GPa) = 41.15264 44.46411 42.80838
# Shear Modulus (GPa) = 34.10603 35.33721 34.72162
#
# Velocity S-wave (km/s) = 3.83762 3.90627 3.87210
# Velocity P-wave (km/s) = 6.11609 6.28851 6.20290
#
# Compressibility (1/GPa) = 0.02429978
#
# Stress axis : x y z
#
# Youngs Moduli (GPa) = 98.86153 98.86153 72.31923
#
# Poissons Ratio (x) = 0.30410 0.06520
# Poissons Ratio (y) = 0.30410 0.06520
# Poissons Ratio (z) = 0.08912 0.08912
#
# Static dielectric constant tensor:
#      x y z
#    x 1.953500 0.000000 0.000000 
#    y 0.000000 1.953500 0.000000 
#    z 0.000000 0.000000 1.958900 
# 
# From -- ./inp_files/946.got.cif
#   From: 2010.05.17/outbox.cif.g08.bks.cpg/sg169_cif.got.tgz:946.got - 2010.05.20 11:12:54.
