data_PCOD9579555
_publ_section_title
;
Structure prediction by ZEFSAII (Michael W. Deem and Ramdas Pophale) SiO2 
 PCOD9579555
Probable space group: R -3 C 
;
_chemical_formula_sum "Si O2"
_cell_formula_units_Z 162
_cell_length_a 20.429301
_cell_length_b 20.429301
_cell_length_c 20.838722
_cell_angle_alpha 90.000000
_cell_angle_beta 90.000000
_cell_angle_gamma 120.000000
_cell_volume 7531.972526
_symmetry_space_group_name_H-M "R -3 C "
_symmetry_group_IT_number 167
_symmetry_cell_setting 'hexagonal'
loop_
_space_group_symop_operation_xyz
x,y,z
-y,x-y,z
-x+y,-x,z
x-y,-y,1/2-z
-x,-x+y,1/2-z
y,x,1/2-z
-x,-y,-z
y,-x+y,-z
x-y,x,-z
-x+y,y,1/2+z
x,x-y,1/2+z
-y,-x,1/2+z
2/3+x,1/3+y,1/3+z
2/3-y,1/3+x-y,1/3+z
2/3-x+y,1/3-x,1/3+z
2/3+x-y,1/3-y,5/6-z
2/3-x,1/3-x+y,5/6-z
2/3+y,1/3+x,5/6-z
2/3-x,1/3-y,1/3-z
2/3+y,1/3-x+y,1/3-z
2/3+x-y,1/3+x,1/3-z
2/3-x+y,1/3+y,5/6+z
2/3+x,1/3+x-y,5/6+z
2/3-y,1/3-x,5/6+z
1/3+x,2/3+y,2/3+z
1/3-y,2/3+x-y,2/3+z
1/3-x+y,2/3-x,2/3+z
1/3+x-y,2/3-y,1/6-z
1/3-x,2/3-x+y,1/6-z
1/3+y,2/3+x,1/6-z
1/3-x,2/3-y,2/3-z
1/3+y,2/3-x+y,2/3-z
1/3+x-y,2/3+x,2/3-z
1/3-x+y,2/3+y,1/6+z
1/3+x,2/3+x-y,1/6+z
1/3-y,2/3-x,1/6+z
loop_
_atom_site_type_symbol
_atom_site_label
_atom_site_fract_x
_atom_site_fract_y
_atom_site_fract_z
Si Si1 0.172145 0.127807 0.065035
Si Si2 0.450126 0.256802 0.053962
Si Si3 0.717922 0.647125 0.210730
Si Si4 0.425691 0.092358 0.083334
Si Si5 0.794374 0.289420 0.412242
O O1 0.236604 0.186321 0.110232
O O2 0.098067 0.135095 0.074609
O O3 0.150777 0.043275 0.080620
O O4 0.205402 0.151480 0.992616
O O5 0.522529 0.333334 0.083334
O O6 0.381621 0.252953 0.095205
O O7 0.442661 0.175132 0.060526
O O8 0.447472 0.270146 0.977560
O O9 0.653367 0.653367 0.250000
O O10 0.701926 0.640897 0.135886
#
# Coordination Sequence:
#
# PCOD9579555 Si02
#       5
#    36  36  36  18  36
#     4  10  21  42  70 104 140 185 229 292 352 415
#     4  11  25  43  67 104 139 182 237 289 351 419
#     4  11  26  44  68 100 140 190 233 286 350 419
#     4  12  24  48  72  98 146 184 232 294 360 418
#     4  10  21  40  68 103 141 179 235 288 348 415
#
# _framework density 21.508310999999999
#
# number of rings (size 3 to 8) (size 9 to 14) (size 15 to 20)
#    0.000    1.333    2.222    2.444    0.000   11.556 
#    0.667    0.000    0.000    0.000    0.000    0.000 
#    0.000    0.000    0.000    0.000    0.000    0.000 
#
# Total GULP energy -301383.912209 kJ/mol
# GULP energy per Si atom -5581.183559 kJ/mol
# Density = 2.145936 g / cm^3
# Si number density = 21.508311 Si / 1000 Ang^3
#
#
#
# Elastic Constant Matrix: (Units=GPa)
#
#
# Indices 1 2 3 4 5 6 
#
# 1 27.3997 55.6555 37.1704 50.2374 -0.0006 0.0000
# 2 55.6555 27.3997 37.1704 -50.2374 0.0006 0.0000
# 3 37.1704 37.1704 172.1772 0.0000 0.0000 0.0000
# 4 50.2374 -50.2374 0.0000 -25.0113 0.0000 0.0006
# 5 -0.0006 0.0006 0.0000 0.0000 -25.0113 50.2374
# 6 0.0000 0.0000 0.0000 0.0006 50.2374 -14.1279
#
#
#
# Elastic Compliance Matrix: (Units=1/GPa)
#
#
# Indices 1 2 3 4 5 6 
#
# 1 0.010343 0.004581 -0.003222 0.011573 0.000000 0.000000
# 2 0.004581 0.010343 -0.003222 -0.011573 0.000000 0.000000
# 3 -0.003222 -0.003222 0.007199 0.000000 0.000000 0.000000
# 4 0.011573 -0.011573 0.000000 0.006509 0.000000 0.000000
# 5 0.000000 0.000000 0.000000 0.000000 0.006509 0.023146
# 6 0.000000 0.000000 0.000000 0.000000 0.023146 0.011524
#
#
# Mechanical properties :
#
#
# Convention : Reuss Voigt Hill
#
# Bulk Modulus (GPa) = 41.39135 54.10767 47.74951
# Shear Modulus (GPa) = 77.87506 -6.36475 35.75516
#
# Velocity S-wave (km/s) = 6.02375 -1.72210 4.08166
# Velocity P-wave (km/s) = 8.22599 4.61054 6.66798
#
# Compressibility (1/GPa) = 0.02415964
#
# Stress axis : x y z
#
# Youngs Moduli (GPa) = 96.68464 96.68464 138.90677
#
# Poissons Ratio (x) = -0.44292 0.44754
# Poissons Ratio (y) = -0.44292 0.44754
# Poissons Ratio (z) = 0.31150 0.31150
#
# Static dielectric constant tensor:
#      x y z
#    x 1.773170 0.000000 0.000000 
#    y 0.000000 1.773170 0.000000 
#    z 0.000000 0.000000 1.848640 
# 
# From -- ./inp_files/4437.got.cif
#   From: 2010.05.17/outbox.cif.g08.bks.cpg/sg167_3_cif.got.tgz:4437.got - 2010.05.20 11:09:15.
