data_PCOD9579257
_publ_section_title
;
Structure prediction by ZEFSAII (Michael W. Deem and Ramdas Pophale) SiO2 
 PCOD9579257
Probable space group: R -3 M
;
_chemical_formula_sum "Si O2"
_cell_formula_units_Z 144
_cell_length_a 22.598478
_cell_length_b 22.598478
_cell_length_c 17.623667
_cell_angle_alpha 90.000000
_cell_angle_beta 90.000000
_cell_angle_gamma 120.000000
_cell_volume 7794.446689
_symmetry_space_group_name_H-M "R -3 M"
_symmetry_group_IT_number 166
_symmetry_cell_setting 'hexagonal'
loop_
_space_group_symop_operation_xyz
x,y,z
-y,x-y,z
-x+y,-x,z
x-y,-y,-z
-x,-x+y,-z
y,x,-z
-x,-y,-z
y,-x+y,-z
x-y,x,-z
-x+y,y,z
x,x-y,z
-y,-x,z
2/3+x,1/3+y,1/3+z
2/3-y,1/3+x-y,1/3+z
2/3-x+y,1/3-x,1/3+z
2/3+x-y,1/3-y,1/3-z
2/3-x,1/3-x+y,1/3-z
2/3+y,1/3+x,1/3-z
2/3-x,1/3-y,1/3-z
2/3+y,1/3-x+y,1/3-z
2/3+x-y,1/3+x,1/3-z
2/3-x+y,1/3+y,1/3+z
2/3+x,1/3+x-y,1/3+z
2/3-y,1/3-x,1/3+z
1/3+x,2/3+y,2/3+z
1/3-y,2/3+x-y,2/3+z
1/3-x+y,2/3-x,2/3+z
1/3+x-y,2/3-y,2/3-z
1/3-x,2/3-x+y,2/3-z
1/3+y,2/3+x,2/3-z
1/3-x,2/3-y,2/3-z
1/3+y,2/3-x+y,2/3-z
1/3+x-y,2/3+x,2/3-z
1/3-x+y,2/3+y,2/3+z
1/3+x,2/3+x-y,2/3+z
1/3-y,2/3-x,2/3+z
loop_
_atom_site_type_symbol
_atom_site_label
_atom_site_fract_x
_atom_site_fract_y
_atom_site_fract_z
Si Si1 0.852466 0.569983 0.558316
Si Si2 0.920334 0.217416 0.304105
Si Si3 0.208432 0.923062 0.519823
Si Si4 0.513867 0.627898 0.588175
O O1 0.776712 0.553424 0.580982
O O2 0.898729 0.557840 0.617767
O O3 0.894089 0.649413 0.534680
O O4 0.851725 0.529039 0.482874
O O5 0.858666 0.141335 0.285959
O O6 0.917128 0.228672 0.393727
O O7 0.902759 0.268771 0.259205
O O8 0.127770 0.872231 0.514123
O O9 0.232820 0.000000 0.500000
O O10 0.440419 0.559582 0.582668
O O11 0.520538 0.666667 0.666667
#
# Coordination Sequence:
#
# PCOD9579257 Si02
#       4
#    36  36  36  36
#     4  11  22  35  54  82 113 144 183 230 277 327
#     4  10  21  37  57  81 110 149 189 225 272 331
#     4  10  21  36  55  82 113 143 179 228 280 330
#     4  11  20  34  57  83 112 146 183 226 274 329
#
# _framework density 18.474691
#
# number of rings (size 3 to 8) (size 9 to 14) (size 15 to 20)
#    0.000    1.500    2.500    3.750    0.000    3.000 
#    0.000    2.500    0.000    9.750    0.000    0.000 
#    0.000    0.000    0.000    0.000    0.000    0.000 
#
# Total GULP energy -268239.885877 kJ/mol
# GULP energy per Si atom -5588.330956 kJ/mol
# Density = 1.843264 g / cm^3
# Si number density = 18.474691 Si / 1000 Ang^3
#
#
#
# Elastic Constant Matrix: (Units=GPa)
#
#
# Indices 1 2 3 4 5 6 
#
# 1 97.9879 39.0959 -0.2761 0.0731 0.0002 0.0000
# 2 39.0959 97.9879 -0.2761 -0.0731 -0.0002 0.0000
# 3 -0.2761 -0.2761 4.7687 0.0000 0.0000 0.0000
# 4 0.0731 -0.0731 0.0000 25.5020 0.0000 -0.0002
# 5 0.0002 -0.0002 0.0000 0.0000 25.5020 0.0731
# 6 0.0000 0.0000 0.0000 -0.0002 0.0731 29.4460
#
#
#
# Elastic Compliance Matrix: (Units=1/GPa)
#
#
# Indices 1 2 3 4 5 6 
#
# 1 0.012138 -0.004842 0.000422 -0.000049 0.000000 0.000000
# 2 -0.004842 0.012138 0.000422 0.000049 0.000000 0.000000
# 3 0.000422 0.000422 0.209750 0.000000 0.000000 0.000000
# 4 -0.000049 0.000049 0.000000 0.039213 0.000000 0.000000
# 5 0.000000 0.000000 0.000000 0.000000 0.039213 -0.000097
# 6 0.000000 0.000000 0.000000 0.000000 -0.000097 0.033961
#
#
# Mechanical properties :
#
#
# Convention : Reuss Voigt Hill
#
# Bulk Modulus (GPa) = 4.42414 30.87022 17.64718
# Shear Modulus (GPa) = 11.63464 26.90339 19.26901
#
# Velocity S-wave (km/s) = 2.51223 3.82020 3.23305
# Velocity P-wave (km/s) = 3.28861 6.01700 4.84867
#
# Compressibility (1/GPa) = 0.22603245
#
# Stress axis : x y z
#
# Youngs Moduli (GPa) = 82.38295 82.38295 4.76759
#
# Poissons Ratio (x) = 0.39889 -0.00201
# Poissons Ratio (y) = 0.39889 -0.00201
# Poissons Ratio (z) = -0.03480 -0.03480
#
# Static dielectric constant tensor:
#      x y z
#    x 1.629460 0.000000 0.000000 
#    y 0.000000 1.629460 0.000000 
#    z 0.000000 0.000000 1.663770 
# 
# From -- ./inp_files/5232.got.cif
#   From: 2010.05.17/outbox.cif.g08.bks.cpg/sg166_3_cif.got.tgz:5232.got - 2010.05.20 11:04:41.
