data_PCOD9579667
_publ_section_title
;
Structure prediction by ZEFSAII (Michael W. Deem and Ramdas Pophale) SiO2 
 PCOD9579667
Probable space group: R -3 C 
;
_chemical_formula_sum "Si O2"
_cell_formula_units_Z 144
_cell_length_a 21.870223
_cell_length_b 21.870223
_cell_length_c 19.622793
_cell_angle_alpha 90.000000
_cell_angle_beta 90.000000
_cell_angle_gamma 120.000000
_cell_volume 8128.265426
_symmetry_space_group_name_H-M "R -3 C "
_symmetry_group_IT_number 167
_symmetry_cell_setting 'hexagonal'
loop_
_space_group_symop_operation_xyz
x,y,z
-y,x-y,z
-x+y,-x,z
x-y,-y,1/2-z
-x,-x+y,1/2-z
y,x,1/2-z
-x,-y,-z
y,-x+y,-z
x-y,x,-z
-x+y,y,1/2+z
x,x-y,1/2+z
-y,-x,1/2+z
2/3+x,1/3+y,1/3+z
2/3-y,1/3+x-y,1/3+z
2/3-x+y,1/3-x,1/3+z
2/3+x-y,1/3-y,5/6-z
2/3-x,1/3-x+y,5/6-z
2/3+y,1/3+x,5/6-z
2/3-x,1/3-y,1/3-z
2/3+y,1/3-x+y,1/3-z
2/3+x-y,1/3+x,1/3-z
2/3-x+y,1/3+y,5/6+z
2/3+x,1/3+x-y,5/6+z
2/3-y,1/3-x,5/6+z
1/3+x,2/3+y,2/3+z
1/3-y,2/3+x-y,2/3+z
1/3-x+y,2/3-x,2/3+z
1/3+x-y,2/3-y,1/6-z
1/3-x,2/3-x+y,1/6-z
1/3+y,2/3+x,1/6-z
1/3-x,2/3-y,2/3-z
1/3+y,2/3-x+y,2/3-z
1/3+x-y,2/3+x,2/3-z
1/3-x+y,2/3+y,1/6+z
1/3+x,2/3+x-y,1/6+z
1/3-y,2/3-x,1/6+z
loop_
_atom_site_type_symbol
_atom_site_label
_atom_site_fract_x
_atom_site_fract_y
_atom_site_fract_z
Si Si1 0.916113 0.722173 0.859583
Si Si2 0.584876 0.716269 0.479781
Si Si3 0.405485 0.943659 0.065202
Si Si4 0.626116 0.740991 0.263499
O O1 0.867150 0.666667 0.916667
O O2 0.874371 0.757457 0.826011
O O3 0.923275 0.673505 0.801773
O O4 0.992002 0.776168 0.890729
O O5 0.538968 0.666667 0.416667
O O6 0.665629 0.747439 0.455184
O O7 0.569862 0.669346 0.546699
O O8 0.467349 0.925911 0.078893
O O9 0.426000 0.987168 0.994248
#
# Coordination Sequence:
#
# PCOD9579667 Si02
#       4
#    36  36  36  36
#     4  11  21  30  49  77 103 136 175 214 261 315
#     4   9  19  34  50  72 103 135 171 215 262 310
#     4   9  18  32  50  74 100 132 172 208 257 313
#     4   9  18  32  49  69 101 136 164 210 261 305
#
# _framework density 17.715957
#
# number of rings (size 3 to 8) (size 9 to 14) (size 15 to 20)
#    0.000    2.500    0.000    4.500    0.000    8.000 
#    0.000    0.000    0.000    1.000    0.000    7.000 
#    0.000   10.000    0.000    0.000    0.000    0.000 
#
# Total GULP energy -267742.477804 kJ/mol
# GULP energy per Si atom -5577.968288 kJ/mol
# Density = 1.767563 g / cm^3
# Si number density = 17.715957 Si / 1000 Ang^3
#
#
#
# Elastic Constant Matrix: (Units=GPa)
#
#
# Indices 1 2 3 4 5 6 
#
# 1 96.0342 49.3187 22.3234 5.0309 0.0002 0.0000
# 2 49.3187 96.0342 22.3234 -5.0309 -0.0002 0.0000
# 3 22.3234 22.3234 39.5636 0.0000 0.0000 0.0000
# 4 5.0309 -5.0309 0.0000 25.2082 0.0000 -0.0002
# 5 0.0002 -0.0002 0.0000 0.0000 25.2082 5.0309
# 6 0.0000 0.0000 0.0000 -0.0002 5.0309 23.3577
#
#
#
# Elastic Compliance Matrix: (Units=1/GPa)
#
#
# Indices 1 2 3 4 5 6 
#
# 1 0.015345 -0.007023 -0.004696 -0.004464 0.000000 0.000000
# 2 -0.007023 0.015345 -0.004696 0.004464 0.000000 0.000000
# 3 -0.004696 -0.004696 0.030575 0.000000 0.000000 0.000000
# 4 -0.004464 0.004464 0.000000 0.041451 0.000000 0.000000
# 5 0.000000 0.000000 0.000000 0.000000 0.041451 -0.008928
# 6 0.000000 0.000000 0.000000 0.000000 -0.008928 0.044735
#
#
# Mechanical properties :
#
#
# Convention : Reuss Voigt Hill
#
# Bulk Modulus (GPa) = 35.16632 46.61809 40.89221
# Shear Modulus (GPa) = 21.62537 23.93258 22.77897
#
# Velocity S-wave (km/s) = 3.49760 3.67945 3.58968
# Velocity P-wave (km/s) = 6.01699 6.66502 6.34928
#
# Compressibility (1/GPa) = 0.02843630
#
# Stress axis : x y z
#
# Youngs Moduli (GPa) = 65.16822 65.16822 32.70669
#
# Poissons Ratio (x) = 0.45766 0.15358
# Poissons Ratio (y) = 0.45766 0.15358
# Poissons Ratio (z) = 0.30601 0.30601
#
# Static dielectric constant tensor:
#      x y z
#    x 1.610310 0.000000 0.000000 
#    y 0.000000 1.610310 0.000000 
#    z 0.000000 0.000000 1.663120 
# 
# From -- ./inp_files/3325.got.cif
#   From: 2010.05.17/outbox.cif.g08.bks.cpg/sg167_2_cif.got.tgz:3325.got - 2010.05.20 11:09:15.
