data_PCOD9579175
_publ_section_title
;
Structure prediction by ZEFSAII (Michael W. Deem and Ramdas Pophale) SiO2 
 PCOD9579175
Probable space group: R -3 M
;
_chemical_formula_sum "Si O2"
_cell_formula_units_Z 54
_cell_length_a 28.824751
_cell_length_b 28.824751
_cell_length_c 5.013032
_cell_angle_alpha 90.000000
_cell_angle_beta 90.000000
_cell_angle_gamma 120.000000
_cell_volume 3607.133678
_symmetry_space_group_name_H-M "R -3 M"
_symmetry_group_IT_number 166
_symmetry_cell_setting 'hexagonal'
loop_
_space_group_symop_operation_xyz
x,y,z
-y,x-y,z
-x+y,-x,z
x-y,-y,-z
-x,-x+y,-z
y,x,-z
-x,-y,-z
y,-x+y,-z
x-y,x,-z
-x+y,y,z
x,x-y,z
-y,-x,z
2/3+x,1/3+y,1/3+z
2/3-y,1/3+x-y,1/3+z
2/3-x+y,1/3-x,1/3+z
2/3+x-y,1/3-y,1/3-z
2/3-x,1/3-x+y,1/3-z
2/3+y,1/3+x,1/3-z
2/3-x,1/3-y,1/3-z
2/3+y,1/3-x+y,1/3-z
2/3+x-y,1/3+x,1/3-z
2/3-x+y,1/3+y,1/3+z
2/3+x,1/3+x-y,1/3+z
2/3-y,1/3-x,1/3+z
1/3+x,2/3+y,2/3+z
1/3-y,2/3+x-y,2/3+z
1/3-x+y,2/3-x,2/3+z
1/3+x-y,2/3-y,2/3-z
1/3-x,2/3-x+y,2/3-z
1/3+y,2/3+x,2/3-z
1/3-x,2/3-y,2/3-z
1/3+y,2/3-x+y,2/3-z
1/3+x-y,2/3+x,2/3-z
1/3-x+y,2/3+y,2/3+z
1/3+x,2/3+x-y,2/3+z
1/3-y,2/3-x,2/3+z
loop_
_atom_site_type_symbol
_atom_site_label
_atom_site_fract_x
_atom_site_fract_y
_atom_site_fract_z
Si Si1 0.765529 0.036719 0.750529
Si Si2 0.626288 0.813144 0.578124
O O1 0.733869 0.067202 0.666667
O O2 0.822825 0.082628 0.867136
O O3 0.762898 0.000000 0.500000
O O4 0.735563 0.000000 0.000000
O O5 0.666667 0.833334 0.333334
O O6 0.666667 0.833334 0.833334
#
# Coordination Sequence:
#
# PCOD9579175 Si02
#       2
#    36  18
#     4  11  20  30  45  64  86 116 152 186 216 257
#     4  10  20  32  44  62  90 118 146 186 232 262
#
# _framework density 14.970333999999999
#
# number of rings (size 3 to 8) (size 9 to 14) (size 15 to 20)
#    0.000    1.333    0.000   12.000    0.000    0.000 
#    0.000    0.000    0.000    0.000    0.000    0.000 
#    0.000    0.000    0.000   20.000    0.000    0.000 
#
# Total GULP energy -100240.853255 kJ/mol
# GULP energy per Si atom -5568.936292 kJ/mol
# Density = 1.493626 g / cm^3
# Si number density = 14.970334 Si / 1000 Ang^3
#
#
#
# Elastic Constant Matrix: (Units=GPa)
#
#
# Indices 1 2 3 4 5 6 
#
# 1 78.2501 41.8615 31.7347 -4.4586 -0.1459 -0.0279
# 2 41.8615 78.3099 31.8434 4.2895 -0.0034 -0.0442
# 3 31.7347 31.8434 128.0031 -0.2933 -0.2411 -0.0808
# 4 -4.4586 4.2895 -0.2933 18.6534 -0.1252 0.0539
# 5 -0.1459 -0.0034 -0.2411 -0.1252 18.2657 -4.4520
# 6 -0.0279 -0.0442 -0.0808 0.0539 -4.4520 18.2738
#
#
#
# Elastic Compliance Matrix: (Units=1/GPa)
#
#
# Indices 1 2 3 4 5 6 
#
# 1 0.019343 -0.009758 -0.002352 0.006831 0.000173 0.000017
# 2 -0.009758 0.019338 -0.002408 -0.006818 -0.000152 0.000004
# 3 -0.002352 -0.002408 0.008995 0.000133 0.000115 0.000058
# 4 0.006831 -0.006818 0.000133 0.056815 0.000428 -0.000069
# 5 0.000173 -0.000152 0.000115 0.000428 0.058210 0.014181
# 6 0.000017 0.000004 0.000058 -0.000069 0.014181 0.058178
#
#
# Mechanical properties :
#
#
# Convention : Reuss Voigt Hill
#
# Bulk Modulus (GPa) = 53.64386 55.04913 54.34650
# Shear Modulus (GPa) = 19.52142 22.98015 21.25079
#
# Velocity S-wave (km/s) = 3.61502 3.92222 3.77175
# Velocity P-wave (km/s) = 7.30313 7.57388 7.43974
#
# Compressibility (1/GPa) = 0.01864146
#
# Stress axis : x y z
#
# Youngs Moduli (GPa) = 51.69776 51.71049 111.17360
#
# Poissons Ratio (x) = 0.50458 0.26149
# Poissons Ratio (y) = 0.50446 0.26766
# Poissons Ratio (z) = 0.12160 0.12450
#
# Static dielectric constant tensor:
#      x y z
#    x 1.566850 0.000150 -0.000170 
#    y 0.000150 1.567210 0.000110 
#    z -0.000170 0.000110 1.514840 
# 
# From -- ./inp_files/96.got.cif
#   From: 2010.05.17/outbox.cif.g08.bks.cpg/sg166_1_cif.got.tgz:96.got - 2010.05.20 11:04:41.
