data_PCOD9579926
_publ_section_title
;
Structure prediction by ZEFSAII (Michael W. Deem and Ramdas Pophale) SiO2 
 PCOD9579926
Probable space group: P 61
;
_chemical_formula_sum "Si O2"
_cell_formula_units_Z 36
_cell_length_a 15.785455
_cell_length_b 15.785455
_cell_length_c 9.552206
_cell_angle_alpha 90.000000
_cell_angle_beta 90.000000
_cell_angle_gamma 120.000000
_cell_volume 2061.334730
_symmetry_space_group_name_H-M "P 61"
_symmetry_group_IT_number 169
_symmetry_cell_setting 'hexagonal'
loop_
_space_group_symop_operation_xyz
x,y,z
x-y,x,1/6+z
-y,x-y,1/3+z
-x,-y,1/2+z
-x+y,-x,2/3+z
y,-x+y,5/6+z
loop_
_atom_site_type_symbol
_atom_site_label
_atom_site_fract_x
_atom_site_fract_y
_atom_site_fract_z
Si Si1 0.757424 0.254102 0.708880
Si Si2 0.218151 0.554207 0.084912
Si Si3 0.633702 0.136204 0.956618
Si Si4 0.104638 0.660220 0.689343
Si Si5 0.638749 0.580758 0.211008
Si Si6 0.550422 0.629269 0.673365
O O1 0.734506 0.336095 0.647179
O O2 0.711127 0.222448 0.862400
O O3 0.871291 0.303268 0.748247
O O4 0.710586 0.158515 0.610897
O O5 0.278434 0.497742 0.061351
O O6 0.132489 0.486452 0.190937
O O7 0.176693 0.559521 0.934263
O O8 0.536880 0.087039 0.862372
O O9 0.657438 0.052756 0.001799
O O10 0.086093 0.684959 0.532866
O O11 0.024117 0.648342 0.805068
O O12 0.538462 0.475398 0.224192
#
# Coordination Sequence:
#
# PCOD9579926 Si02
#       6
#     6   6   6   6   6   6
#     4  11  23  36  55  76 103 144 190 230 268 330
#     4  11  23  35  54  79 101 142 188 228 265 331
#     4  11  22  35  53  73 105 135 181 233 270 320
#     4  11  21  34  53  74 102 139 180 232 278 315
#     4  10  21  36  52  72 101 141 179 223 281 322
#     4  10  22  36  49  76 106 131 180 238 276 308
#
# _framework density 17.464413
#
# number of rings (size 3 to 8) (size 9 to 14) (size 15 to 20)
#    0.000    1.333    5.000    1.000    7.000    1.333 
#    0.000    0.000    0.000    0.000    0.000    0.000 
#    0.000    0.000    0.000   15.000    0.000    3.333 
#
# Total GULP energy -200502.100938 kJ/mol
# GULP energy per Si atom -5569.502804 kJ/mol
# Density = 1.742466 g / cm^3
# Si number density = 17.464413 Si / 1000 Ang^3
#
#
#
# Elastic Constant Matrix: (Units=GPa)
#
#
# Indices 1 2 3 4 5 6 
#
# 1 51.8724 27.3118 24.5957 0.0000 0.0000 0.0000
# 2 27.3118 51.8724 24.5957 0.0000 0.0000 0.0000
# 3 24.5957 24.5957 104.4731 0.0000 0.0000 0.0000
# 4 0.0000 0.0000 0.0000 21.8129 0.0000 0.0000
# 5 0.0000 0.0000 0.0000 0.0000 21.8129 0.0000
# 6 0.0000 0.0000 0.0000 0.0000 0.0000 12.2803
#
#
#
# Elastic Compliance Matrix: (Units=1/GPa)
#
#
# Indices 1 2 3 4 5 6 
#
# 1 0.027754 -0.012962 -0.003482 0.000000 0.000000 0.000000
# 2 -0.012962 0.027754 -0.003482 0.000000 0.000000 0.000000
# 3 -0.003482 -0.003482 0.011212 0.000000 0.000000 0.000000
# 4 0.000000 0.000000 0.000000 0.045844 0.000000 0.000000
# 5 0.000000 0.000000 0.000000 0.000000 0.045844 0.000000
# 6 0.000000 0.000000 0.000000 0.000000 0.000000 0.081431
#
#
# Mechanical properties :
#
#
# Convention : Reuss Voigt Hill
#
# Bulk Modulus (GPa) = 37.22164 40.13601 38.67882
# Shear Modulus (GPa) = 17.32213 19.96221 18.64217
#
# Velocity S-wave (km/s) = 3.15279 3.38453 3.27071
# Velocity P-wave (km/s) = 5.88324 6.18909 6.03810
#
# Compressibility (1/GPa) = 0.02686609
#
# Stress axis : x y z
#
# Youngs Moduli (GPa) = 36.03097 36.03097 89.19365
#
# Poissons Ratio (x) = 0.46702 0.31061
# Poissons Ratio (y) = 0.46702 0.31061
# Poissons Ratio (z) = 0.12548 0.12548
#
# Static dielectric constant tensor:
#      x y z
#    x 1.650940 0.000000 0.000000 
#    y 0.000000 1.650940 0.000000 
#    z 0.000000 0.000000 1.644950 
# 
# From -- ./inp_files/658.got.cif
#   From: 2010.05.17/outbox.cif.g08.bks.cpg/sg169_cif.got.tgz:658.got - 2010.05.20 11:12:54.
