data_PCOD9579002
_publ_section_title
;
Structure prediction by ZEFSAII (Michael W. Deem and Ramdas Pophale) SiO2 
 PCOD9579002
Probable space group: P -3 C 1
;
_chemical_formula_sum "Si O2"
_cell_formula_units_Z 72
_cell_length_a 14.691828
_cell_length_b 14.691828
_cell_length_c 17.950757
_cell_angle_alpha 90.000000
_cell_angle_beta 90.000000
_cell_angle_gamma 120.000000
_cell_volume 3355.560475
_symmetry_space_group_name_H-M "P -3 C 1"
_symmetry_group_IT_number 165
_symmetry_cell_setting 'hexagonal'
loop_
_space_group_symop_operation_xyz
x,y,z
-y,x-y,z
-x+y,-x,z
x-y,-y,1/2-z
-x,-x+y,1/2-z
y,x,1/2-z
-x,-y,-z
y,-x+y,-z
x-y,x,-z
-x+y,y,1/2+z
x,x-y,1/2+z
-y,-x,1/2+z
loop_
_atom_site_type_symbol
_atom_site_label
_atom_site_fract_x
_atom_site_fract_y
_atom_site_fract_z
Si Si1 0.571163 0.770854 0.924836
Si Si2 0.555627 0.093090 0.293974
Si Si3 0.519606 0.449583 0.571601
Si Si4 0.893638 0.107749 0.295933
Si Si5 0.903767 0.134208 0.469443
Si Si6 0.785498 0.559919 0.747836
O O1 0.529912 0.853914 0.934252
O O2 0.492560 0.644945 0.923415
O O3 0.600079 0.786502 0.836406
O O4 0.653739 0.795138 0.992386
O O5 0.672539 0.191692 0.284700
O O6 0.486286 0.136196 0.254470
O O7 0.560034 0.000000 0.250000
O O8 0.494218 0.023823 0.366125
O O9 0.500000 0.500000 0.500000
O O10 0.906737 0.101727 0.383682
O O11 0.828047 0.166446 0.296932
O O12 0.000000 0.176823 0.250000
O O13 0.835798 0.000000 0.250000
O O14 0.024098 0.191767 0.491465
#
# Coordination Sequence:
#
# PCOD9579002 Si02
#       6
#    12  12  12  12  12  12
#     4  12  25  48  73 107 147 200 241 310 379 444
#     4  12  25  46  73 111 144 200 259 316 371 448
#     4  12  29  46  77 109 156 194 257 318 383 459
#     4  12  27  46  74 105 141 190 241 298 359 440
#     4  12  27  46  72 105 145 186 239 297 370 431
#     4  12  25  44  75 103 151 193 256 299 374 439
#
# _framework density 21.456921000000001
#
# number of rings (size 3 to 8) (size 9 to 14) (size 15 to 20)
#    0.000    0.000    3.333    6.000    9.333    0.000 
#    0.000    0.000    0.000    0.000    0.000    0.000 
#    0.000    0.000    0.000    0.000    0.000    0.000 
#
# Total GULP energy -400866.549390 kJ/mol
# GULP energy per Si atom -5567.590964 kJ/mol
# Density = 2.140808 g / cm^3
# Si number density = 21.456921 Si / 1000 Ang^3
#
#
#
# Elastic Constant Matrix: (Units=GPa)
#
#
# Indices 1 2 3 4 5 6 
#
# 1 91.7896 -8.5466 2.6671 -10.5720 0.0000 0.0000
# 2 -8.5466 91.7896 2.6671 10.5720 0.0000 0.0000
# 3 2.6671 2.6671 91.4224 0.0000 0.0000 0.0000
# 4 -10.5720 10.5720 0.0000 76.6517 0.0000 0.0000
# 5 0.0000 0.0000 0.0000 0.0000 76.6517 -10.5720
# 6 0.0000 0.0000 0.0000 0.0000 -10.5720 50.1681
#
#
#
# Elastic Compliance Matrix: (Units=1/GPa)
#
#
# Indices 1 2 3 4 5 6 
#
# 1 0.011150 0.000885 -0.000351 0.001416 0.000000 0.000000
# 2 0.000885 0.011150 -0.000351 -0.001416 0.000000 0.000000
# 3 -0.000351 -0.000351 0.010959 0.000000 0.000000 0.000000
# 4 0.001416 -0.001416 0.000000 0.013437 0.000000 0.000000
# 5 0.000000 0.000000 0.000000 0.000000 0.013437 0.002831
# 6 0.000000 0.000000 0.000000 0.000000 0.002831 0.020530
#
#
# Mechanical properties :
#
#
# Convention : Reuss Voigt Hill
#
# Bulk Modulus (GPa) = 29.73951 29.84187 29.79069
# Shear Modulus (GPa) = 54.64237 59.24188 56.94213
#
# Velocity S-wave (km/s) = 5.05187 5.26019 5.15708
# Velocity P-wave (km/s) = 6.92233 7.12957 7.02672
#
# Compressibility (1/GPa) = 0.03362530
#
# Stress axis : x y z
#
# Youngs Moduli (GPa) = 89.68467 89.68467 91.25152
#
# Poissons Ratio (x) = -0.07940 0.03204
# Poissons Ratio (y) = -0.07940 0.03204
# Poissons Ratio (z) = 0.03149 0.03149
#
# Static dielectric constant tensor:
#      x y z
#    x 1.722980 0.000000 0.000000 
#    y 0.000000 1.722980 0.000000 
#    z 0.000000 0.000000 1.862490 
# 
# From -- ./inp_files/2255.got.cif
#   From: 2010.05.17/outbox.cif.g08.bks.cpg/sg165_2_cif.got.tgz:2255.got - 2010.05.20 11:02:39.
