data_PCOD9579546
_publ_section_title
;
Structure prediction by ZEFSAII (Michael W. Deem and Ramdas Pophale) SiO2 
 PCOD9579546
Probable space group: R -3 C 
;
_chemical_formula_sum "Si O2"
_cell_formula_units_Z 144
_cell_length_a 26.602667
_cell_length_b 26.602667
_cell_length_c 10.404073
_cell_angle_alpha 90.000000
_cell_angle_beta 90.000000
_cell_angle_gamma 120.000000
_cell_volume 6376.529582
_symmetry_space_group_name_H-M "R -3 C "
_symmetry_group_IT_number 167
_symmetry_cell_setting 'hexagonal'
loop_
_space_group_symop_operation_xyz
x,y,z
-y,x-y,z
-x+y,-x,z
x-y,-y,1/2-z
-x,-x+y,1/2-z
y,x,1/2-z
-x,-y,-z
y,-x+y,-z
x-y,x,-z
-x+y,y,1/2+z
x,x-y,1/2+z
-y,-x,1/2+z
2/3+x,1/3+y,1/3+z
2/3-y,1/3+x-y,1/3+z
2/3-x+y,1/3-x,1/3+z
2/3+x-y,1/3-y,5/6-z
2/3-x,1/3-x+y,5/6-z
2/3+y,1/3+x,5/6-z
2/3-x,1/3-y,1/3-z
2/3+y,1/3-x+y,1/3-z
2/3+x-y,1/3+x,1/3-z
2/3-x+y,1/3+y,5/6+z
2/3+x,1/3+x-y,5/6+z
2/3-y,1/3-x,5/6+z
1/3+x,2/3+y,2/3+z
1/3-y,2/3+x-y,2/3+z
1/3-x+y,2/3-x,2/3+z
1/3+x-y,2/3-y,1/6-z
1/3-x,2/3-x+y,1/6-z
1/3+y,2/3+x,1/6-z
1/3-x,2/3-y,2/3-z
1/3+y,2/3-x+y,2/3-z
1/3+x-y,2/3+x,2/3-z
1/3-x+y,2/3+y,1/6+z
1/3+x,2/3+x-y,1/6+z
1/3-y,2/3-x,1/6+z
loop_
_atom_site_type_symbol
_atom_site_label
_atom_site_fract_x
_atom_site_fract_y
_atom_site_fract_z
Si Si1 0.855938 0.789774 0.897183
Si Si2 0.181454 0.123898 0.670072
Si Si3 0.574569 0.970249 0.474770
Si Si4 0.817143 0.150477 0.916667
Si Si5 0.249590 0.249590 0.250000
O O1 0.890682 0.810720 0.762232
O O2 0.848909 0.726369 0.918277
O O3 0.792085 0.780720 0.872199
O O4 0.889854 0.830172 0.018802
O O5 0.139426 0.139426 0.750000
O O6 0.243073 0.184513 0.658538
O O7 0.619674 0.953008 0.416667
O O8 0.551762 0.998877 0.372447
O O9 0.610362 0.020479 0.575816
#
# Coordination Sequence:
#
# PCOD9579546 Si02
#       5
#    36  36  36  18  18
#     4  11  24  39  62  86 123 168 213 266 319 382
#     4  10  24  43  63  88 126 167 213 264 318 375
#     4  10  22  35  57  86 123 172 223 274 307 371
#     4  10  21  40  58  80 124 172 220 266 325 366
#     4  12  25  32  60  90 122 168 226 266 319 372
#
# _framework density 22.582816000000001
#
# number of rings (size 3 to 8) (size 9 to 14) (size 15 to 20)
#    0.000    1.500    0.000    3.750   19.250    4.000 
#    0.000    0.000    0.000    0.000    0.000    0.000 
#    1.250    2.000    0.000    0.000    0.000    0.000 
#
# Total GULP energy -268199.687846 kJ/mol
# GULP energy per Si atom -5587.493497 kJ/mol
# Density = 2.253142 g / cm^3
# Si number density = 22.582816 Si / 1000 Ang^3
#
#
#
# Elastic Constant Matrix: (Units=GPa)
#
#
# Indices 1 2 3 4 5 6 
#
# 1 48.7086 20.6261 13.0652 2.9341 -0.0024 0.0009
# 2 20.6261 48.7106 13.0625 -2.9332 -0.0043 -0.0006
# 3 13.0652 13.0625 110.2341 -0.0003 -0.0201 -0.0027
# 4 2.9341 -2.9332 -0.0003 29.2631 0.0000 0.0001
# 5 -0.0024 -0.0043 -0.0201 0.0000 29.2537 2.9335
# 6 0.0009 -0.0006 -0.0027 0.0001 2.9335 14.0416
#
#
#
# Elastic Compliance Matrix: (Units=1/GPa)
#
#
# Indices 1 2 3 4 5 6 
#
# 1 0.025734 -0.010637 -0.001790 -0.003646 0.000000 -0.000002
# 2 -0.010637 0.025733 -0.001789 0.003646 0.000002 0.000001
# 3 -0.001790 -0.001789 0.009496 0.000000 0.000006 0.000001
# 4 -0.003646 0.003646 0.000000 0.034904 0.000000 0.000000
# 5 0.000000 0.000002 0.000006 0.000000 0.034915 -0.007294
# 6 -0.000002 0.000001 0.000001 0.000000 -0.007294 0.072741
#
#
# Mechanical properties :
#
#
# Convention : Reuss Voigt Hill
#
# Bulk Modulus (GPa) = 30.73826 33.46231 32.10028
# Shear Modulus (GPa) = 20.59344 25.23831 22.91587
#
# Velocity S-wave (km/s) = 3.02306 3.34666 3.18897
# Velocity P-wave (km/s) = 5.08193 5.45741 5.27301
#
# Compressibility (1/GPa) = 0.03253275
#
# Stress axis : x y z
#
# Youngs Moduli (GPa) = 38.85898 38.86130 105.31121
#
# Poissons Ratio (x) = 0.41335 0.18847
# Poissons Ratio (y) = 0.41332 0.18836
# Poissons Ratio (z) = 0.06954 0.06951
#
# Static dielectric constant tensor:
#      x y z
#    x 1.837150 0.000000 0.000000 
#    y 0.000000 1.837140 0.000000 
#    z 0.000000 0.000000 1.944390 
# 
# From -- ./inp_files/851.got.cif
#   From: 2010.05.17/outbox.cif.g08.bks.cpg/sg167_1_cif.got.tgz:851.got - 2010.05.20 11:09:15.
