data_PCOD9579533
_publ_section_title
;
Structure prediction by ZEFSAII (Michael W. Deem and Ramdas Pophale) SiO2 
 PCOD9579533
Probable space group: R -3 C 
;
_chemical_formula_sum "Si O2"
_cell_formula_units_Z 144
_cell_length_a 22.023673
_cell_length_b 22.023673
_cell_length_c 16.767175
_cell_angle_alpha 90.000000
_cell_angle_beta 90.000000
_cell_angle_gamma 120.000000
_cell_volume 7043.200134
_symmetry_space_group_name_H-M "R -3 C "
_symmetry_group_IT_number 167
_symmetry_cell_setting 'hexagonal'
loop_
_space_group_symop_operation_xyz
x,y,z
-y,x-y,z
-x+y,-x,z
x-y,-y,1/2-z
-x,-x+y,1/2-z
y,x,1/2-z
-x,-y,-z
y,-x+y,-z
x-y,x,-z
-x+y,y,1/2+z
x,x-y,1/2+z
-y,-x,1/2+z
2/3+x,1/3+y,1/3+z
2/3-y,1/3+x-y,1/3+z
2/3-x+y,1/3-x,1/3+z
2/3+x-y,1/3-y,5/6-z
2/3-x,1/3-x+y,5/6-z
2/3+y,1/3+x,5/6-z
2/3-x,1/3-y,1/3-z
2/3+y,1/3-x+y,1/3-z
2/3+x-y,1/3+x,1/3-z
2/3-x+y,1/3+y,5/6+z
2/3+x,1/3+x-y,5/6+z
2/3-y,1/3-x,5/6+z
1/3+x,2/3+y,2/3+z
1/3-y,2/3+x-y,2/3+z
1/3-x+y,2/3-x,2/3+z
1/3+x-y,2/3-y,1/6-z
1/3-x,2/3-x+y,1/6-z
1/3+y,2/3+x,1/6-z
1/3-x,2/3-y,2/3-z
1/3+y,2/3-x+y,2/3-z
1/3+x-y,2/3+x,2/3-z
1/3-x+y,2/3+y,1/6+z
1/3+x,2/3+x-y,1/6+z
1/3-y,2/3-x,1/6+z
loop_
_atom_site_type_symbol
_atom_site_label
_atom_site_fract_x
_atom_site_fract_y
_atom_site_fract_z
Si Si1 0.922884 0.175514 0.263710
Si Si2 0.059643 0.597523 0.814384
Si Si3 0.535626 0.609779 0.639858
Si Si4 0.805406 0.070529 0.580373
O O1 0.872148 0.107193 0.313997
O O2 0.917077 0.239684 0.303779
O O3 0.905414 0.177586 0.171140
O O4 0.000000 0.189307 0.250000
O O5 0.106364 0.669788 0.768717
O O6 0.000000 0.548393 0.750000
O O7 0.007499 0.590584 0.885408
O O8 0.457203 0.545368 0.629923
O O9 0.546862 0.658205 0.716937
#
# Coordination Sequence:
#
# PCOD9579533 Si02
#       4
#    36  36  36  36
#     4  11  23  32  55  89 117 150 191 240 294 359
#     4   9  19  35  54  80 114 152 185 232 291 342
#     4  10  21  38  58  83 119 157 192 241 289 359
#     4  10  22  36  57  84 114 155 197 232 299 350
#
# _framework density 20.445252
#
# number of rings (size 3 to 8) (size 9 to 14) (size 15 to 20)
#    0.000    2.000    0.000    5.250   10.500    6.000 
#    0.000    0.000    0.000    0.500    0.000    0.000 
#    0.000    0.000    0.000    0.000    0.000    0.000 
#
# Total GULP energy -267407.853363 kJ/mol
# GULP energy per Si atom -5570.996945 kJ/mol
# Density = 2.039872 g / cm^3
# Si number density = 20.445252 Si / 1000 Ang^3
#
#
#
# Elastic Constant Matrix: (Units=GPa)
#
#
# Indices 1 2 3 4 5 6 
#
# 1 85.1492 27.7831 30.9155 -3.2360 0.0000 0.0000
# 2 27.7831 85.1492 30.9155 3.2360 0.0000 0.0000
# 3 30.9155 30.9155 60.7636 0.0000 0.0000 0.0000
# 4 -3.2360 3.2360 0.0000 40.2418 0.0000 0.0000
# 5 0.0000 0.0000 0.0000 0.0000 40.2418 -3.2360
# 6 0.0000 0.0000 0.0000 0.0000 -3.2360 28.6831
#
#
#
# Elastic Compliance Matrix: (Units=1/GPa)
#
#
# Indices 1 2 3 4 5 6 
#
# 1 0.014933 -0.002659 -0.006245 0.001415 0.000000 0.000000
# 2 -0.002659 0.014933 -0.006245 -0.001415 0.000000 0.000000
# 3 -0.006245 -0.006245 0.022812 0.000000 0.000000 0.000000
# 4 0.001415 -0.001415 0.000000 0.025077 0.000000 0.000000
# 5 0.000000 0.000000 0.000000 0.000000 0.025077 0.002829
# 6 0.000000 0.000000 0.000000 0.000000 0.002829 0.035183
#
#
# Mechanical properties :
#
#
# Convention : Reuss Voigt Hill
#
# Bulk Modulus (GPa) = 44.68186 45.58781 45.13483
# Shear Modulus (GPa) = 28.44605 31.26319 29.85462
#
# Velocity S-wave (km/s) = 3.73410 3.91464 3.82543
# Velocity P-wave (km/s) = 6.36342 6.54052 6.45258
#
# Compressibility (1/GPa) = 0.02238045
#
# Stress axis : x y z
#
# Youngs Moduli (GPa) = 66.96718 66.96718 43.83728
#
# Poissons Ratio (x) = 0.17805 0.27375
# Poissons Ratio (y) = 0.17805 0.27375
# Poissons Ratio (z) = 0.41819 0.41819
#
# Static dielectric constant tensor:
#      x y z
#    x 1.820490 0.000000 0.000000 
#    y 0.000000 1.820490 0.000000 
#    z 0.000000 0.000000 2.132120 
# 
# From -- ./inp_files/3291.got.cif
#   From: 2010.05.17/outbox.cif.g08.bks.cpg/sg167_2_cif.got.tgz:3291.got - 2010.05.20 11:09:15.
