data_PCOD9579025
_publ_section_title
;
Structure prediction by ZEFSAII (Michael W. Deem and Ramdas Pophale) SiO2 
 PCOD9579025
Probable space group: R -3 M
;
_chemical_formula_sum "Si O2"
_cell_formula_units_Z 144
_cell_length_a 20.660387
_cell_length_b 20.660387
_cell_length_c 20.183742
_cell_angle_alpha 90.000000
_cell_angle_beta 90.000000
_cell_angle_gamma 120.000000
_cell_volume 7461.209291
_symmetry_space_group_name_H-M "R -3 M"
_symmetry_group_IT_number 166
_symmetry_cell_setting 'hexagonal'
loop_
_space_group_symop_operation_xyz
x,y,z
-y,x-y,z
-x+y,-x,z
x-y,-y,-z
-x,-x+y,-z
y,x,-z
-x,-y,-z
y,-x+y,-z
x-y,x,-z
-x+y,y,z
x,x-y,z
-y,-x,z
2/3+x,1/3+y,1/3+z
2/3-y,1/3+x-y,1/3+z
2/3-x+y,1/3-x,1/3+z
2/3+x-y,1/3-y,1/3-z
2/3-x,1/3-x+y,1/3-z
2/3+y,1/3+x,1/3-z
2/3-x,1/3-y,1/3-z
2/3+y,1/3-x+y,1/3-z
2/3+x-y,1/3+x,1/3-z
2/3-x+y,1/3+y,1/3+z
2/3+x,1/3+x-y,1/3+z
2/3-y,1/3-x,1/3+z
1/3+x,2/3+y,2/3+z
1/3-y,2/3+x-y,2/3+z
1/3-x+y,2/3-x,2/3+z
1/3+x-y,2/3-y,2/3-z
1/3-x,2/3-x+y,2/3-z
1/3+y,2/3+x,2/3-z
1/3-x,2/3-y,2/3-z
1/3+y,2/3-x+y,2/3-z
1/3+x-y,2/3+x,2/3-z
1/3-x+y,2/3+y,2/3+z
1/3+x,2/3+x-y,2/3+z
1/3-y,2/3-x,2/3+z
loop_
_atom_site_type_symbol
_atom_site_label
_atom_site_fract_x
_atom_site_fract_y
_atom_site_fract_z
Si Si1 0.336363 0.093597 0.263128
Si Si2 0.741507 0.629037 0.421167
Si Si3 0.504905 0.866363 0.235509
Si Si4 0.054461 0.803720 0.303276
O O1 0.333404 0.166702 0.241240
O O2 0.356757 0.105431 0.341668
O O3 0.402091 0.082549 0.231039
O O4 0.255415 0.017486 0.261375
O O5 0.800555 0.601109 0.438381
O O6 0.775356 0.712615 0.449260
O O7 0.430283 0.860565 0.262270
O O8 0.491056 0.824390 0.166667
O O9 0.536486 0.842082 0.296069
O O10 0.121093 0.878907 0.270790
O O11 0.090387 0.757054 0.333334
#
# Coordination Sequence:
#
# PCOD9579025 Si02
#       4
#    36  36  36  36
#     4   9  14  25  43  63  85 113 148 189 235 279
#     4   8  14  25  40  62  87 111 146 186 228 274
#     4  10  18  29  44  65  95 123 153 190 231 285
#     4  10  17  27  43  65  89 116 158 200 231 266
#
# _framework density 19.299821000000001
#
# number of rings (size 3 to 8) (size 9 to 14) (size 15 to 20)
#    0.000    2.750    5.000    3.000    0.000    0.000 
#    0.000    0.000    0.000   10.750    0.000    3.500 
#    0.000    0.000    0.000    3.250    0.000    3.500 
#
# Total GULP energy -267252.071696 kJ/mol
# GULP energy per Si atom -5567.751494 kJ/mol
# Density = 1.925589 g / cm^3
# Si number density = 19.299821 Si / 1000 Ang^3
#
#
#
# Elastic Constant Matrix: (Units=GPa)
#
#
# Indices 1 2 3 4 5 6 
#
# 1 116.3432 105.8517 11.8803 6.1346 0.0002 0.0000
# 2 105.8517 116.3432 11.8803 -6.1346 -0.0002 0.0000
# 3 11.8803 11.8803 59.0113 0.0000 0.0000 0.0000
# 4 6.1346 -6.1346 0.0000 3.3516 0.0000 -0.0002
# 5 0.0002 -0.0002 0.0000 0.0000 3.3516 6.1346
# 6 0.0000 0.0000 0.0000 -0.0002 6.1346 5.2458
#
#
#
# Elastic Compliance Matrix: (Units=1/GPa)
#
#
# Indices 1 2 3 4 5 6 
#
# 1 -0.039486 0.044086 -0.000926 0.152967 0.000006 0.000000
# 2 0.044086 -0.039486 -0.000926 -0.152967 -0.000006 0.000000
# 3 -0.000926 -0.000926 0.017319 0.000000 0.000000 0.000000
# 4 0.152967 -0.152967 0.000000 -0.261607 0.000000 -0.000012
# 5 0.000006 -0.000006 0.000000 0.000000 -0.261607 0.305934
# 6 0.000000 0.000000 0.000000 -0.000012 0.305934 -0.167143
#
#
# Mechanical properties :
#
#
# Convention : Reuss Voigt Hill
#
# Bulk Modulus (GPa) = 43.83292 61.21360 52.52326
# Shear Modulus (GPa) = -6.03229 13.19549 3.58160
#
# Velocity S-wave (km/s) = -1.76985 2.61762 1.36374
# Velocity P-wave (km/s) = 4.31096 6.39703 5.45465
#
# Compressibility (1/GPa) = 0.02281390
#
# Stress axis : x y z
#
# Youngs Moduli (GPa) = -25.32545 -25.32545 57.74091
#
# Poissons Ratio (x) = 1.11649 0.05347
# Poissons Ratio (y) = 1.11649 0.05347
# Poissons Ratio (z) = -0.02345 -0.02345
#
# Static dielectric constant tensor:
#      x y z
#    x 1.940140 0.000000 0.000000 
#    y 0.000000 1.940140 0.000000 
#    z 0.000000 0.000000 1.676430 
# 
# From -- ./inp_files/9355.got.cif
#   From: 2010.05.17/outbox.cif.g08.bks.cpg/sg166_5_cif.got.tgz:9355.got - 2010.05.20 11:04:41.
