data_PCOD9579096
_publ_section_title
;
Structure prediction by ZEFSAII (Michael W. Deem and Ramdas Pophale) SiO2 
 PCOD9579096
Probable space group: R -3 M
;
_chemical_formula_sum "Si O2"
_cell_formula_units_Z 252
_cell_length_a 26.925038
_cell_length_b 26.925038
_cell_length_c 19.320455
_cell_angle_alpha 90.000000
_cell_angle_beta 90.000000
_cell_angle_gamma 120.000000
_cell_volume 12129.995267
_symmetry_space_group_name_H-M "R -3 M"
_symmetry_group_IT_number 166
_symmetry_cell_setting 'hexagonal'
loop_
_space_group_symop_operation_xyz
x,y,z
-y,x-y,z
-x+y,-x,z
x-y,-y,-z
-x,-x+y,-z
y,x,-z
-x,-y,-z
y,-x+y,-z
x-y,x,-z
-x+y,y,z
x,x-y,z
-y,-x,z
2/3+x,1/3+y,1/3+z
2/3-y,1/3+x-y,1/3+z
2/3-x+y,1/3-x,1/3+z
2/3+x-y,1/3-y,1/3-z
2/3-x,1/3-x+y,1/3-z
2/3+y,1/3+x,1/3-z
2/3-x,1/3-y,1/3-z
2/3+y,1/3-x+y,1/3-z
2/3+x-y,1/3+x,1/3-z
2/3-x+y,1/3+y,1/3+z
2/3+x,1/3+x-y,1/3+z
2/3-y,1/3-x,1/3+z
1/3+x,2/3+y,2/3+z
1/3-y,2/3+x-y,2/3+z
1/3-x+y,2/3-x,2/3+z
1/3+x-y,2/3-y,2/3-z
1/3-x,2/3-x+y,2/3-z
1/3+y,2/3+x,2/3-z
1/3-x,2/3-y,2/3-z
1/3+y,2/3-x+y,2/3-z
1/3+x-y,2/3+x,2/3-z
1/3-x+y,2/3+y,2/3+z
1/3+x,2/3+x-y,2/3+z
1/3-y,2/3-x,2/3+z
loop_
_atom_site_type_symbol
_atom_site_label
_atom_site_fract_x
_atom_site_fract_y
_atom_site_fract_z
Si Si1 0.362170 0.121725 0.003255
Si Si2 0.610665 0.507874 0.375936
Si Si3 0.636130 0.479188 0.898716
Si Si4 0.805159 0.308921 0.619538
Si Si5 0.959625 0.419963 0.817106
Si Si6 0.299522 0.207903 0.731597
Si Si7 0.766888 0.826392 0.800099
O O1 0.374686 0.187343 0.003637
O O2 0.294104 0.081828 0.010951
O O3 0.394123 0.117554 0.071899
O O4 0.379786 0.110207 0.927581
O O5 0.558375 0.441626 0.374294
O O6 0.666667 0.520203 0.333334
O O7 0.626702 0.527761 0.455714
O O8 0.577145 0.422856 0.915735
O O9 0.666667 0.470028 0.833334
O O10 0.615840 0.522010 0.868490
O O11 0.669671 0.489499 0.970243
O O12 0.737853 0.262148 0.611008
O O13 0.839396 0.273927 0.613257
O O14 0.835023 0.357421 0.562242
O O15 0.962879 0.481440 0.807468
O O16 0.014215 0.428795 0.860628
O O17 0.318081 0.159041 0.734054
O O18 0.333334 0.247717 0.666667
O O19 0.747706 0.873853 0.808102
#
# Coordination Sequence:
#
# PCOD9579096 Si02
#       7
#    36  36  36  36  36  36  36
#     4   9  18  34  57  80 103 142 186 222 272 336
#     4  10  22  39  61  87 114 145 186 236 286 341
#     4  10  19  31  48  73 104 139 180 225 271 324
#     4  10  20  32  52  80 109 146 190 230 276 335
#     4   9  16  27  48  74  99 131 170 211 260 317
#     4   9  15  27  45  69 103 135 166 210 262 316
#     4  10  21  38  58  80 112 149 186 235 290 338
#
# _framework density 20.774944999999999
#
# number of rings (size 3 to 8) (size 9 to 14) (size 15 to 20)
#    0.000    2.429    1.429    1.286    2.000    4.000 
#    0.000    0.714    0.000    0.571    0.000    0.000 
#    0.000    0.000    0.000    0.000    0.000    0.000 
#
# Total GULP energy -467914.852412 kJ/mol
# GULP energy per Si atom -5570.414910 kJ/mol
# Density = 2.072766 g / cm^3
# Si number density = 20.774945 Si / 1000 Ang^3
#
#
#
# Elastic Constant Matrix: (Units=GPa)
#
#
# Indices 1 2 3 4 5 6 
#
# 1 34.4642 7.1353 18.9057 5.5252 0.0001 0.0000
# 2 7.1353 34.4642 18.9057 -5.5252 -0.0001 0.0000
# 3 18.9057 18.9057 126.1484 0.0000 0.0000 0.0000
# 4 5.5252 -5.5252 0.0000 23.5217 0.0000 -0.0001
# 5 0.0001 -0.0001 0.0000 0.0000 23.5217 5.5252
# 6 0.0000 0.0000 0.0000 -0.0001 5.5252 13.6645
#
#
#
# Elastic Compliance Matrix: (Units=1/GPa)
#
#
# Indices 1 2 3 4 5 6 
#
# 1 0.034131 -0.006301 -0.004171 -0.009497 0.000000 0.000000
# 2 -0.006301 0.034131 -0.004171 0.009497 0.000000 0.000000
# 3 -0.004171 -0.004171 0.009177 0.000000 0.000000 0.000000
# 4 -0.009497 0.009497 0.000000 0.046976 0.000000 0.000000
# 5 0.000000 0.000000 0.000000 0.000000 0.046976 -0.018995
# 6 0.000000 0.000000 0.000000 0.000000 -0.018995 0.080863
#
#
# Mechanical properties :
#
#
# Convention : Reuss Voigt Hill
#
# Bulk Modulus (GPa) = 20.76688 31.66335 26.21512
# Shear Modulus (GPa) = 16.80168 22.15025 19.47597
#
# Velocity S-wave (km/s) = 2.84693 3.26881 3.06514
# Velocity P-wave (km/s) = 4.56339 5.43333 5.01725
#
# Compressibility (1/GPa) = 0.04815359
#
# Stress axis : x y z
#
# Youngs Moduli (GPa) = 29.29919 29.29919 108.96431
#
# Poissons Ratio (x) = 0.18461 0.45447
# Poissons Ratio (y) = 0.18461 0.45447
# Poissons Ratio (z) = 0.12220 0.12220
#
# Static dielectric constant tensor:
#      x y z
#    x 1.785500 0.000000 0.000000 
#    y 0.000000 1.785500 0.000000 
#    z 0.000000 0.000000 1.767210 
# 
# From -- ./inp_files/5807.got.cif
#   From: 2010.05.17/outbox.cif.g08.bks.cpg/sg166_3_cif.got.tgz:5807.got - 2010.05.20 11:04:41.
