data_PCOD9579601
_publ_section_title
;
Structure prediction by ZEFSAII (Michael W. Deem and Ramdas Pophale) SiO2 
 PCOD9579601
Probable space group: R -3 C 
;
_chemical_formula_sum "Si O2"
_cell_formula_units_Z 186
_cell_length_a 19.175331
_cell_length_b 19.175331
_cell_length_c 26.765185
_cell_angle_alpha 90.000000
_cell_angle_beta 90.000000
_cell_angle_gamma 120.000000
_cell_volume 8522.884833
_symmetry_space_group_name_H-M "R -3 C "
_symmetry_group_IT_number 167
_symmetry_cell_setting 'hexagonal'
loop_
_space_group_symop_operation_xyz
x,y,z
-y,x-y,z
-x+y,-x,z
x-y,-y,1/2-z
-x,-x+y,1/2-z
y,x,1/2-z
-x,-y,-z
y,-x+y,-z
x-y,x,-z
-x+y,y,1/2+z
x,x-y,1/2+z
-y,-x,1/2+z
2/3+x,1/3+y,1/3+z
2/3-y,1/3+x-y,1/3+z
2/3-x+y,1/3-x,1/3+z
2/3+x-y,1/3-y,5/6-z
2/3-x,1/3-x+y,5/6-z
2/3+y,1/3+x,5/6-z
2/3-x,1/3-y,1/3-z
2/3+y,1/3-x+y,1/3-z
2/3+x-y,1/3+x,1/3-z
2/3-x+y,1/3+y,5/6+z
2/3+x,1/3+x-y,5/6+z
2/3-y,1/3-x,5/6+z
1/3+x,2/3+y,2/3+z
1/3-y,2/3+x-y,2/3+z
1/3-x+y,2/3-x,2/3+z
1/3+x-y,2/3-y,1/6-z
1/3-x,2/3-x+y,1/6-z
1/3+y,2/3+x,1/6-z
1/3-x,2/3-y,2/3-z
1/3+y,2/3-x+y,2/3-z
1/3+x-y,2/3+x,2/3-z
1/3-x+y,2/3+y,1/6+z
1/3+x,2/3+x-y,1/6+z
1/3-y,2/3-x,1/6+z
loop_
_atom_site_type_symbol
_atom_site_label
_atom_site_fract_x
_atom_site_fract_y
_atom_site_fract_z
Si Si1 0.193956 0.491188 0.840966
Si Si2 0.493600 0.058905 0.325643
Si Si3 0.333334 0.666667 0.225775
Si Si4 0.497744 0.184370 0.400020
Si Si5 0.648246 0.648246 0.250000
Si Si6 0.891645 0.170447 0.260014
Si Si7 0.000000 0.000000 0.190522
O O1 0.159843 0.471535 0.784796
O O2 0.207051 0.428698 0.874749
O O3 0.127337 0.502026 0.872269
O O4 0.276840 0.575161 0.840573
O O5 0.514950 0.140667 0.354597
O O6 0.564457 0.086103 0.284402
O O7 0.410141 0.021253 0.296584
O O8 0.484074 0.996887 0.368732
O O9 0.333335 0.666668 0.166667
O O10 0.366183 0.607007 0.240827
O O11 0.737458 0.662867 0.243152
O O12 0.000000 0.000000 0.250000
#
# Coordination Sequence:
#
# PCOD9579601 Si02
#       7
#    36  36  12  36  18  36  12
#     4  10  23  41  69  96 134 166 227 274 333 393
#     4  12  22  41  67  93 131 177 225 264 347 393
#     4  12  22  41  61 112 137 154 220 296 352 391
#     4  12  23  39  68  99 131 173 214 289 339 408
#     4  10  22  42  66  92 126 178 222 268 324 408
#     4  10  23  44  62  94 134 173 223 279 313 405
#     4  12  19  44  76  97 125 184 217 272 346 391
#
# _framework density 21.823596999999999
#
# number of rings (size 3 to 8) (size 9 to 14) (size 15 to 20)
#    0.000    1.161    5.806    2.323    0.000    0.774 
#    3.484    0.000    8.516    0.000    0.000    0.000 
#    0.000    0.000    0.000    0.000    0.000    0.000 
#
# Total GULP energy -346021.118256 kJ/mol
# GULP energy per Si atom -5580.985778 kJ/mol
# Density = 2.177393 g / cm^3
# Si number density = 21.823597 Si / 1000 Ang^3
#
#
#
# Elastic Constant Matrix: (Units=GPa)
#
#
# Indices 1 2 3 4 5 6 
#
# 1 71.0497 35.1966 34.6726 4.8404 0.0000 0.0000
# 2 35.1966 71.0502 34.6725 -4.8402 0.0000 0.0000
# 3 34.6726 34.6725 157.8433 -0.0001 0.0000 0.0000
# 4 4.8404 -4.8402 -0.0001 21.3332 0.0000 0.0000
# 5 0.0000 0.0000 0.0000 0.0000 21.3333 4.8404
# 6 0.0000 0.0000 0.0000 0.0000 4.8404 17.9267
#
#
#
# Elastic Compliance Matrix: (Units=1/GPa)
#
#
# Indices 1 2 3 4 5 6 
#
# 1 0.020350 -0.009362 -0.002414 -0.006741 0.000000 0.000000
# 2 -0.009362 0.020349 -0.002413 0.006741 0.000000 0.000000
# 3 -0.002414 -0.002413 0.007396 0.000000 0.000000 0.000000
# 4 -0.006741 0.006741 0.000000 0.049934 0.000000 0.000000
# 5 0.000000 0.000000 0.000000 0.000000 0.049934 -0.013483
# 6 0.000000 0.000000 0.000000 0.000000 -0.013483 0.059423
#
#
# Mechanical properties :
#
#
# Convention : Reuss Voigt Hill
#
# Bulk Modulus (GPa) = 50.71949 56.55852 53.63901
# Shear Modulus (GPa) = 20.63244 25.14541 22.88892
#
# Velocity S-wave (km/s) = 3.07810 3.39811 3.24206
# Velocity P-wave (km/s) = 5.99367 6.43185 6.21662
#
# Compressibility (1/GPa) = 0.01971629
#
# Stress axis : x y z
#
# Youngs Moduli (GPa) = 49.14110 49.14154 135.21320
#
# Poissons Ratio (x) = 0.46007 0.32634
# Poissons Ratio (y) = 0.46007 0.32634
# Poissons Ratio (z) = 0.11860 0.11860
#
# Static dielectric constant tensor:
#      x y z
#    x 1.819530 0.000000 0.000000 
#    y 0.000000 1.819520 0.000000 
#    z 0.000000 0.000000 1.832960 
# 
# From -- ./inp_files/6301.got.cif
#   From: 2010.05.17/outbox.cif.g08.bks.cpg/sg167_4_cif.got.tgz:6301.got - 2010.05.20 11:09:15.
