data_PCOD9579841
_publ_section_title
;
Structure prediction by ZEFSAII (Michael W. Deem and Ramdas Pophale) SiO2 
 PCOD9579841
Probable space group: P 61
;
_chemical_formula_sum "Si O2"
_cell_formula_units_Z 48
_cell_length_a 15.853982
_cell_length_b 15.853982
_cell_length_c 11.411615
_cell_angle_alpha 90.000000
_cell_angle_beta 90.000000
_cell_angle_gamma 120.000000
_cell_volume 2484.016432
_symmetry_space_group_name_H-M "P 61"
_symmetry_group_IT_number 169
_symmetry_cell_setting 'hexagonal'
loop_
_space_group_symop_operation_xyz
x,y,z
x-y,x,1/6+z
-y,x-y,1/3+z
-x,-y,1/2+z
-x+y,-x,2/3+z
y,-x+y,5/6+z
loop_
_atom_site_type_symbol
_atom_site_label
_atom_site_fract_x
_atom_site_fract_y
_atom_site_fract_z
Si Si1 0.600109 0.776957 0.411090
Si Si2 0.815698 0.938423 0.107124
Si Si3 0.287015 0.315850 0.964556
Si Si4 0.350547 0.883892 0.516404
Si Si5 0.089215 0.611255 0.447460
Si Si6 0.705941 0.232848 0.632880
Si Si7 0.410606 0.721862 0.546890
Si Si8 0.618732 0.796817 0.988832
O O1 0.663695 0.892623 0.397340
O O2 0.648274 0.732195 0.495888
O O3 0.593782 0.731395 0.281919
O O4 0.490702 0.740016 0.449963
O O5 0.862301 0.889953 0.191166
O O6 0.755876 0.967883 0.198581
O O7 0.732035 0.861059 0.019834
O O8 0.357013 0.420565 0.904259
O O9 0.373322 0.796976 0.523431
O O10 0.304146 0.882422 0.392326
O O11 0.441724 0.987493 0.547951
O O12 0.150619 0.557716 0.459925
O O13 0.148911 0.713613 0.379069
O O14 0.708458 0.320576 0.708828
O O15 0.740316 0.277891 0.505033
O O16 0.770525 0.192732 0.691608
#
# Coordination Sequence:
#
# PCOD9579841 Si02
#       8
#     6   6   6   6   6   6   6   6
#     4  11  21  37  61  90 126 160 212 266 330 387
#     4  11  21  42  75 102 124 163 217 272 337 398
#     4  10  19  35  62  97 122 156 207 267 317 386
#     4  11  21  38  60  92 121 163 213 269 320 384
#     4  10  21  35  59  92 119 160 213 252 314 378
#     4  12  23  41  60  86 130 177 221 263 325 390
#     4  12  23  39  59  86 131 180 218 270 322 392
#     4  11  21  39  66  93 129 165 215 273 325 387
#
# _framework density 19.323544999999999
#
# number of rings (size 3 to 8) (size 9 to 14) (size 15 to 20)
#    0.000    1.000    7.500    1.500    1.750    1.000 
#    6.750    0.000    2.750    0.000    0.000    0.000 
#    0.000    0.000    0.000    0.000    0.000    0.000 
#
# Total GULP energy -268076.953286 kJ/mol
# GULP energy per Si atom -5584.936527 kJ/mol
# Density = 1.927956 g / cm^3
# Si number density = 19.323545 Si / 1000 Ang^3
#
#
#
# Elastic Constant Matrix: (Units=GPa)
#
#
# Indices 1 2 3 4 5 6 
#
# 1 73.5763 30.1527 1.6018 0.0000 0.0000 0.0000
# 2 30.1527 73.5763 1.6018 0.0000 0.0000 0.0000
# 3 1.6018 1.6018 33.8511 0.0000 0.0000 0.0000
# 4 0.0000 0.0000 0.0000 21.4164 0.0000 0.0000
# 5 0.0000 0.0000 0.0000 0.0000 21.4164 0.0000
# 6 0.0000 0.0000 0.0000 0.0000 0.0000 21.7118
#
#
#
# Elastic Compliance Matrix: (Units=1/GPa)
#
#
# Indices 1 2 3 4 5 6 
#
# 1 0.016342 -0.006687 -0.000457 0.000000 0.000000 0.000000
# 2 -0.006687 0.016342 -0.000457 0.000000 0.000000 0.000000
# 3 -0.000457 -0.000457 0.029584 0.000000 0.000000 0.000000
# 4 0.000000 0.000000 0.000000 0.046693 0.000000 0.000000
# 5 0.000000 0.000000 0.000000 0.000000 0.046693 0.000000
# 6 0.000000 0.000000 0.000000 0.000000 0.000000 0.046058
#
#
# Mechanical properties :
#
#
# Convention : Reuss Voigt Hill
#
# Bulk Modulus (GPa) = 21.24669 27.52407 24.38538
# Shear Modulus (GPa) = 21.49587 22.75207 22.12397
#
# Velocity S-wave (km/s) = 3.33891 3.43509 3.38734
# Velocity P-wave (km/s) = 5.08759 5.47794 5.28637
#
# Compressibility (1/GPa) = 0.04706614
#
# Stress axis : x y z
#
# Youngs Moduli (GPa) = 61.19279 61.19279 33.80164
#
# Poissons Ratio (x) = 0.40921 0.01544
# Poissons Ratio (y) = 0.40921 0.01544
# Poissons Ratio (z) = 0.02796 0.02796
#
# Static dielectric constant tensor:
#      x y z
#    x 1.681950 0.000000 0.000000 
#    y 0.000000 1.681950 0.000000 
#    z 0.000000 0.000000 1.697790 
# 
# From -- ./inp_files/1060.got.cif
#   From: 2010.05.17/outbox.cif.g08.bks.cpg/sg169_cif.got.tgz:1060.got - 2010.05.20 11:12:54.
