data_PCOD9579120
_publ_section_title
;
Structure prediction by ZEFSAII (Michael W. Deem and Ramdas Pophale) SiO2 
 PCOD9579120
Probable space group: R -3 M
;
_chemical_formula_sum "Si O2"
_cell_formula_units_Z 144
_cell_length_a 20.815129
_cell_length_b 20.815129
_cell_length_c 20.408316
_cell_angle_alpha 90.000000
_cell_angle_beta 90.000000
_cell_angle_gamma 120.000000
_cell_volume 7657.658865
_symmetry_space_group_name_H-M "R -3 M"
_symmetry_group_IT_number 166
_symmetry_cell_setting 'hexagonal'
loop_
_space_group_symop_operation_xyz
x,y,z
-y,x-y,z
-x+y,-x,z
x-y,-y,-z
-x,-x+y,-z
y,x,-z
-x,-y,-z
y,-x+y,-z
x-y,x,-z
-x+y,y,z
x,x-y,z
-y,-x,z
2/3+x,1/3+y,1/3+z
2/3-y,1/3+x-y,1/3+z
2/3-x+y,1/3-x,1/3+z
2/3+x-y,1/3-y,1/3-z
2/3-x,1/3-x+y,1/3-z
2/3+y,1/3+x,1/3-z
2/3-x,1/3-y,1/3-z
2/3+y,1/3-x+y,1/3-z
2/3+x-y,1/3+x,1/3-z
2/3-x+y,1/3+y,1/3+z
2/3+x,1/3+x-y,1/3+z
2/3-y,1/3-x,1/3+z
1/3+x,2/3+y,2/3+z
1/3-y,2/3+x-y,2/3+z
1/3-x+y,2/3-x,2/3+z
1/3+x-y,2/3-y,2/3-z
1/3-x,2/3-x+y,2/3-z
1/3+y,2/3+x,2/3-z
1/3-x,2/3-y,2/3-z
1/3+y,2/3-x+y,2/3-z
1/3+x-y,2/3+x,2/3-z
1/3-x+y,2/3+y,2/3+z
1/3+x,2/3+x-y,2/3+z
1/3-y,2/3-x,2/3+z
loop_
_atom_site_type_symbol
_atom_site_label
_atom_site_fract_x
_atom_site_fract_y
_atom_site_fract_z
Si Si1 0.599518 0.685485 0.980644
Si Si2 0.558372 0.852050 0.227691
Si Si3 0.123447 0.397087 0.482989
Si Si4 0.381814 0.908815 0.604719
O O1 0.550189 0.652874 0.916086
O O2 0.672800 0.761269 0.962888
O O3 0.629209 0.629209 0.000000
O O4 0.557427 0.683763 0.046255
O O5 0.555656 0.777828 0.252341
O O6 0.505767 0.839100 0.166667
O O7 0.642208 0.903053 0.198196
O O8 0.205986 0.411971 0.493545
O O9 0.097788 0.425844 0.545156
O O10 0.444827 0.889653 0.585309
O O11 0.333334 0.861310 0.666667
#
# Coordination Sequence:
#
# PCOD9579120 Si02
#       4
#    36  36  36  36
#     4   9  18  32  50  76 106 134 168 213 264 315
#     4  10  19  32  52  78 107 138 172 213 265 323
#     4  10  19  33  53  76 106 142 177 215 260 313
#     4  11  22  35  53  78 108 141 178 223 272 318
#
# _framework density 18.804704000000001
#
# number of rings (size 3 to 8) (size 9 to 14) (size 15 to 20)
#    0.000    2.000    0.000    6.750    0.000    8.000 
#    0.000    0.000    0.000    4.750    0.000    0.000 
#    0.000    0.000    0.000    0.000    0.000    0.000 
#
# Total GULP energy -267771.744315 kJ/mol
# GULP energy per Si atom -5578.578007 kJ/mol
# Density = 1.876190 g / cm^3
# Si number density = 18.804704 Si / 1000 Ang^3
#
#
#
# Elastic Constant Matrix: (Units=GPa)
#
#
# Indices 1 2 3 4 5 6 
#
# 1 36.9710 40.9890 23.2332 -2.3962 0.0001 0.0000
# 2 40.9890 36.9710 23.2332 2.3962 -0.0001 0.0000
# 3 23.2332 23.2332 110.0005 0.0000 0.0000 0.0000
# 4 -2.3962 2.3962 0.0000 8.0626 0.0000 -0.0001
# 5 0.0001 -0.0001 0.0000 0.0000 8.0626 -2.3962
# 6 0.0000 0.0000 0.0000 -0.0001 -2.3962 -2.0090
#
#
#
# Elastic Compliance Matrix: (Units=1/GPa)
#
#
# Indices 1 2 3 4 5 6 
#
# 1 -0.084536 0.099211 -0.003099 -0.054609 0.000003 0.000000
# 2 0.099211 -0.084536 -0.003099 0.054609 -0.000003 0.000000
# 3 -0.003099 -0.003099 0.010400 0.000000 0.000000 0.000000
# 4 -0.054609 0.054609 0.000000 0.091570 0.000000 -0.000005
# 5 0.000003 -0.000003 0.000000 0.000000 0.091570 -0.109219
# 6 0.000000 0.000000 0.000000 -0.000005 -0.109219 -0.367493
#
#
# Mechanical properties :
#
#
# Convention : Reuss Voigt Hill
#
# Bulk Modulus (GPa) = 36.56121 39.87259 38.21690
# Shear Modulus (GPa) = -9.61664 9.25571 -0.18047
#
# Velocity S-wave (km/s) = -2.26386 2.22097 -0.31012
# Velocity P-wave (km/s) = 3.55688 5.27508 4.49877
#
# Compressibility (1/GPa) = 0.02735140
#
# Stress axis : x y z
#
# Youngs Moduli (GPa) = -11.82926 -11.82926 96.15285
#
# Poissons Ratio (x) = 1.17359 0.29801
# Poissons Ratio (y) = 1.17359 0.29801
# Poissons Ratio (z) = -0.03666 -0.03666
#
# Static dielectric constant tensor:
#      x y z
#    x 1.654670 0.000000 0.000000 
#    y 0.000000 1.654670 0.000000 
#    z 0.000000 0.000000 1.678450 
# 
# From -- ./inp_files/5235.got.cif
#   From: 2010.05.17/outbox.cif.g08.bks.cpg/sg166_3_cif.got.tgz:5235.got - 2010.05.20 11:04:41.
