data_PCOD9579388
_publ_section_title
;
Structure prediction by ZEFSAII (Michael W. Deem and Ramdas Pophale) SiO2 
 PCOD9579388
Probable space group: R -3 C 
;
_chemical_formula_sum "Si O2"
_cell_formula_units_Z 162
_cell_length_a 24.302080
_cell_length_b 24.302080
_cell_length_c 13.484713
_cell_angle_alpha 90.000000
_cell_angle_beta 90.000000
_cell_angle_gamma 120.000000
_cell_volume 6896.984210
_symmetry_space_group_name_H-M "R -3 C "
_symmetry_group_IT_number 167
_symmetry_cell_setting 'hexagonal'
loop_
_space_group_symop_operation_xyz
x,y,z
-y,x-y,z
-x+y,-x,z
x-y,-y,1/2-z
-x,-x+y,1/2-z
y,x,1/2-z
-x,-y,-z
y,-x+y,-z
x-y,x,-z
-x+y,y,1/2+z
x,x-y,1/2+z
-y,-x,1/2+z
2/3+x,1/3+y,1/3+z
2/3-y,1/3+x-y,1/3+z
2/3-x+y,1/3-x,1/3+z
2/3+x-y,1/3-y,5/6-z
2/3-x,1/3-x+y,5/6-z
2/3+y,1/3+x,5/6-z
2/3-x,1/3-y,1/3-z
2/3+y,1/3-x+y,1/3-z
2/3+x-y,1/3+x,1/3-z
2/3-x+y,1/3+y,5/6+z
2/3+x,1/3+x-y,5/6+z
2/3-y,1/3-x,5/6+z
1/3+x,2/3+y,2/3+z
1/3-y,2/3+x-y,2/3+z
1/3-x+y,2/3-x,2/3+z
1/3+x-y,2/3-y,1/6-z
1/3-x,2/3-x+y,1/6-z
1/3+y,2/3+x,1/6-z
1/3-x,2/3-y,2/3-z
1/3+y,2/3-x+y,2/3-z
1/3+x-y,2/3+x,2/3-z
1/3-x+y,2/3+y,1/6+z
1/3+x,2/3+x-y,1/6+z
1/3-y,2/3-x,1/6+z
loop_
_atom_site_type_symbol
_atom_site_label
_atom_site_fract_x
_atom_site_fract_y
_atom_site_fract_z
Si Si1 0.090805 0.214323 0.670652
Si Si2 0.350674 0.180879 0.286590
Si Si3 0.936254 0.639406 0.214414
Si Si4 0.806055 0.768992 0.619946
Si Si5 0.666667 0.518468 0.583334
O O1 0.150378 0.285572 0.657324
O O2 0.063367 0.215610 0.780041
O O3 0.123643 0.172428 0.687716
O O4 0.030780 0.199072 0.601729
O O5 0.333334 0.166667 0.166667
O O6 0.355800 0.248919 0.300046
O O7 0.411452 0.171711 0.293370
O O8 0.964487 0.704537 0.148753
O O9 0.882714 0.577919 0.158756
O O10 0.000000 0.641029 0.250000
#
# Coordination Sequence:
#
# PCOD9579388 Si02
#       5
#    36  36  36  36  18
#     4   9  15  22  42  62  84 102 152 186 215 274
#     4   8  12  24  40  60  73 108 146 171 210 264
#     4  10  16  26  43  61  85 110 147 184 217 282
#     4   9  13  27  43  60  78 113 149 184 213 268
#     4  12  18  24  40  70  86 118 148 186 248 280
#
# _framework density 23.488526
#
# number of rings (size 3 to 8) (size 9 to 14) (size 15 to 20)
#    0.000    3.111   11.111    0.000    0.000    0.000 
#    0.000    0.000    2.444    3.556    0.000    0.000 
#    0.000    0.000    0.000    0.000    0.000   28.444 
#
# Total GULP energy -300649.136623 kJ/mol
# GULP energy per Si atom -5567.576604 kJ/mol
# Density = 2.343507 g / cm^3
# Si number density = 23.488526 Si / 1000 Ang^3
#
#
#
# Elastic Constant Matrix: (Units=GPa)
#
#
# Indices 1 2 3 4 5 6 
#
# 1 127.0004 63.0551 17.1840 12.0387 -0.0001 0.0000
# 2 63.0551 127.0004 17.1839 -12.0387 0.0001 0.0000
# 3 17.1840 17.1839 56.3078 0.0000 0.0000 0.0000
# 4 12.0387 -12.0387 0.0000 24.1324 0.0000 0.0001
# 5 -0.0001 0.0001 0.0000 0.0000 24.1324 12.0387
# 6 0.0000 0.0000 0.0000 0.0001 12.0387 31.9727
#
#
#
# Elastic Compliance Matrix: (Units=1/GPa)
#
#
# Indices 1 2 3 4 5 6 
#
# 1 0.012412 -0.006843 -0.001700 -0.009606 0.000000 0.000000
# 2 -0.006843 0.012412 -0.001700 0.009606 0.000000 0.000000
# 3 -0.001700 -0.001700 0.018797 0.000000 0.000000 0.000000
# 4 -0.009606 0.009606 0.000000 0.051022 0.000000 0.000000
# 5 0.000000 0.000000 0.000000 0.000000 0.051022 -0.019211
# 6 0.000000 0.000000 0.000000 0.000000 -0.019211 0.038510
#
#
# Mechanical properties :
#
#
# Convention : Reuss Voigt Hill
#
# Bulk Modulus (GPa) = 43.22151 56.12829 49.67490
# Shear Modulus (GPa) = 23.54367 30.23987 26.89177
#
# Velocity S-wave (km/s) = 3.16942 3.59197 3.38729
# Velocity P-wave (km/s) = 5.64223 6.41490 6.04093
#
# Compressibility (1/GPa) = 0.02313663
#
# Stress axis : x y z
#
# Youngs Moduli (GPa) = 80.56684 80.56685 53.20046
#
# Poissons Ratio (x) = 0.55133 0.09042
# Poissons Ratio (y) = 0.55133 0.09042
# Poissons Ratio (z) = 0.13693 0.13692
#
# Static dielectric constant tensor:
#      x y z
#    x 2.063760 0.000000 0.000000 
#    y 0.000000 2.063760 0.000000 
#    z 0.000000 0.000000 2.286110 
# 
# From -- ./inp_files/6339.got.cif
#   From: 2010.05.17/outbox.cif.g08.bks.cpg/sg167_4_cif.got.tgz:6339.got - 2010.05.20 11:09:15.
