data_PCOD9579623
_publ_section_title
;
Structure prediction by ZEFSAII (Michael W. Deem and Ramdas Pophale) SiO2 
 PCOD9579623
Probable space group: R -3 C 
;
_chemical_formula_sum "Si O2"
_cell_formula_units_Z 144
_cell_length_a 18.528548
_cell_length_b 18.528548
_cell_length_c 21.107229
_cell_angle_alpha 90.000000
_cell_angle_beta 90.000000
_cell_angle_gamma 120.000000
_cell_volume 6275.446443
_symmetry_space_group_name_H-M "R -3 C "
_symmetry_group_IT_number 167
_symmetry_cell_setting 'hexagonal'
loop_
_space_group_symop_operation_xyz
x,y,z
-y,x-y,z
-x+y,-x,z
x-y,-y,1/2-z
-x,-x+y,1/2-z
y,x,1/2-z
-x,-y,-z
y,-x+y,-z
x-y,x,-z
-x+y,y,1/2+z
x,x-y,1/2+z
-y,-x,1/2+z
2/3+x,1/3+y,1/3+z
2/3-y,1/3+x-y,1/3+z
2/3-x+y,1/3-x,1/3+z
2/3+x-y,1/3-y,5/6-z
2/3-x,1/3-x+y,5/6-z
2/3+y,1/3+x,5/6-z
2/3-x,1/3-y,1/3-z
2/3+y,1/3-x+y,1/3-z
2/3+x-y,1/3+x,1/3-z
2/3-x+y,1/3+y,5/6+z
2/3+x,1/3+x-y,5/6+z
2/3-y,1/3-x,5/6+z
1/3+x,2/3+y,2/3+z
1/3-y,2/3+x-y,2/3+z
1/3-x+y,2/3-x,2/3+z
1/3+x-y,2/3-y,1/6-z
1/3-x,2/3-x+y,1/6-z
1/3+y,2/3+x,1/6-z
1/3-x,2/3-y,2/3-z
1/3+y,2/3-x+y,2/3-z
1/3+x-y,2/3+x,2/3-z
1/3-x+y,2/3+y,1/6+z
1/3+x,2/3+x-y,1/6+z
1/3-y,2/3-x,1/6+z
loop_
_atom_site_type_symbol
_atom_site_label
_atom_site_fract_x
_atom_site_fract_y
_atom_site_fract_z
Si Si1 0.090067 0.666667 0.416667
Si Si2 0.172526 0.030641 0.476113
Si Si3 0.905934 0.000000 0.250000
Si Si4 0.330785 0.304751 0.511096
Si Si5 0.210762 0.764113 0.008132
O O1 0.168389 0.737996 0.454005
O O2 0.018125 0.630505 0.469423
O O3 0.251942 0.021479 0.495042
O O4 0.092674 0.937618 0.481200
O O5 0.191447 0.070454 0.405807
O O6 0.864340 0.010689 0.312497
O O7 0.000000 0.075828 0.250000
O O8 0.354490 0.333334 0.583334
O O9 0.367227 0.247314 0.487348
#
# Coordination Sequence:
#
# PCOD9579623 Si02
#       5
#    18  36  18  36  36
#     4  12  25  48  78 107 152 206 254 320 394 475
#     4  12  29  50  79 113 161 210 264 326 404 481
#     4  10  23  42  70 109 146 192 252 330 372 451
#     4  12  26  49  76 113 160 200 257 331 402 471
#     4  12  26  49  78 114 150 204 269 327 393 475
#
# _framework density 22.946573999999998
#
# number of rings (size 3 to 8) (size 9 to 14) (size 15 to 20)
#    0.250    0.000    5.000    3.250    3.500    1.000 
#    4.500    0.000    0.000    0.000    0.000    0.000 
#    0.000    0.000    0.000    0.000    0.000    0.000 
#
# Total GULP energy -268386.392712 kJ/mol
# GULP energy per Si atom -5591.383181 kJ/mol
# Density = 2.289435 g / cm^3
# Si number density = 22.946574 Si / 1000 Ang^3
#
#
#
# Elastic Constant Matrix: (Units=GPa)
#
#
# Indices 1 2 3 4 5 6 
#
# 1 109.1623 65.3358 60.9295 13.2198 -0.0008 0.0000
# 2 65.3358 109.1623 60.9295 -13.2198 0.0008 0.0000
# 3 60.9295 60.9295 163.5624 0.0000 0.0000 0.0000
# 4 13.2198 -13.2198 0.0000 37.6237 0.0000 0.0008
# 5 -0.0008 0.0008 0.0000 0.0000 37.6237 13.2198
# 6 0.0000 0.0000 0.0000 0.0008 13.2198 21.9132
#
#
#
# Elastic Compliance Matrix: (Units=1/GPa)
#
#
# Indices 1 2 3 4 5 6 
#
# 1 0.018350 -0.010605 -0.002885 -0.010174 0.000001 0.000000
# 2 -0.010605 0.018350 -0.002885 0.010174 -0.000001 0.000000
# 3 -0.002885 -0.002885 0.008264 0.000000 0.000000 0.000000
# 4 -0.010174 0.010174 0.000000 0.033729 0.000000 -0.000001
# 5 0.000001 -0.000001 0.000000 0.000000 0.033729 -0.020348
# 6 0.000000 0.000000 0.000000 -0.000001 -0.020348 0.057910
#
#
# Mechanical properties :
#
#
# Convention : Reuss Voigt Hill
#
# Bulk Modulus (GPa) = 81.87717 84.03074 82.95396
# Shear Modulus (GPa) = 24.13676 32.41160 28.27418
#
# Velocity S-wave (km/s) = 3.24677 3.76238 3.51404
# Velocity P-wave (km/s) = 7.05794 7.45477 7.25907
#
# Compressibility (1/GPa) = 0.01221342
#
# Stress axis : x y z
#
# Youngs Moduli (GPa) = 54.49504 54.49504 121.01293
#
# Poissons Ratio (x) = 0.57790 0.34917
# Poissons Ratio (y) = 0.57790 0.34917
# Poissons Ratio (z) = 0.15724 0.15724
#
# Static dielectric constant tensor:
#      x y z
#    x 1.946900 0.000000 0.000000 
#    y 0.000000 1.946900 0.000000 
#    z 0.000000 0.000000 1.798400 
# 
# From -- ./inp_files/4358.got.cif
#   From: 2010.05.17/outbox.cif.g08.bks.cpg/sg167_3_cif.got.tgz:4358.got - 2010.05.20 11:09:15.
