data_PCOD9579089
_publ_section_title
;
Structure prediction by ZEFSAII (Michael W. Deem and Ramdas Pophale) SiO2 
 PCOD9579089
Probable space group: R -3 M
;
_chemical_formula_sum "Si O2"
_cell_formula_units_Z 144
_cell_length_a 24.221704
_cell_length_b 24.221704
_cell_length_c 14.895265
_cell_angle_alpha 90.000000
_cell_angle_beta 90.000000
_cell_angle_gamma 120.000000
_cell_volume 7568.124205
_symmetry_space_group_name_H-M "R -3 M"
_symmetry_group_IT_number 166
_symmetry_cell_setting 'hexagonal'
loop_
_space_group_symop_operation_xyz
x,y,z
-y,x-y,z
-x+y,-x,z
x-y,-y,-z
-x,-x+y,-z
y,x,-z
-x,-y,-z
y,-x+y,-z
x-y,x,-z
-x+y,y,z
x,x-y,z
-y,-x,z
2/3+x,1/3+y,1/3+z
2/3-y,1/3+x-y,1/3+z
2/3-x+y,1/3-x,1/3+z
2/3+x-y,1/3-y,1/3-z
2/3-x,1/3-x+y,1/3-z
2/3+y,1/3+x,1/3-z
2/3-x,1/3-y,1/3-z
2/3+y,1/3-x+y,1/3-z
2/3+x-y,1/3+x,1/3-z
2/3-x+y,1/3+y,1/3+z
2/3+x,1/3+x-y,1/3+z
2/3-y,1/3-x,1/3+z
1/3+x,2/3+y,2/3+z
1/3-y,2/3+x-y,2/3+z
1/3-x+y,2/3-x,2/3+z
1/3+x-y,2/3-y,2/3-z
1/3-x,2/3-x+y,2/3-z
1/3+y,2/3+x,2/3-z
1/3-x,2/3-y,2/3-z
1/3+y,2/3-x+y,2/3-z
1/3+x-y,2/3+x,2/3-z
1/3-x+y,2/3+y,2/3+z
1/3+x,2/3+x-y,2/3+z
1/3-y,2/3-x,2/3+z
loop_
_atom_site_type_symbol
_atom_site_label
_atom_site_fract_x
_atom_site_fract_y
_atom_site_fract_z
Si Si1 0.078431 0.921570 0.593149
Si Si2 0.666667 0.586649 0.333334
Si Si3 0.733344 0.066677 0.166667
Si Si4 0.734090 0.468180 0.201154
Si Si5 0.924352 0.075649 0.800856
Si Si6 0.774267 0.225734 0.355298
Si Si7 0.872216 0.744431 0.244252
Si Si8 0.074101 0.148202 0.396837
O O1 0.106095 0.893905 0.667040
O O2 0.092159 0.907842 0.491688
O O3 0.002679 0.892537 0.602738
O O4 0.677761 0.625185 0.239333
O O5 0.729410 0.578620 0.335800
O O6 0.796324 0.090222 0.229618
O O7 0.665339 0.438329 0.157143
O O8 0.738959 0.477918 0.308080
O O9 0.770791 0.541582 0.173199
O O10 0.896523 0.103478 0.871745
O O11 0.910636 0.089365 0.701080
#
# Coordination Sequence:
#
# PCOD9579089 Si02
#       8
#    18  18  18  18  18  18  18  18
#     4  10  20  33  51  81 130 174 226 253 304 377
#     4  12  24  44  70 100 128 168 212 266 318 388
#     4  11  24  42  70  90 118 160 218 269 316 374
#     4  12  20  33  52  93 133 177 207 251 320 383
#     4  12  19  28  50  86 138 170 208 251 310 388
#     4  12  21  37  64  96 130 162 203 259 322 386
#     4  11  19  40  62  86 114 167 224 258 305 379
#     4  10  19  30  48  82 126 177 215 261 303 374
#
# _framework density 19.027172
#
# number of rings (size 3 to 8) (size 9 to 14) (size 15 to 20)
#    0.000    0.750    7.500    1.250    0.000    1.000 
#    0.000    3.750    0.000    0.750    0.000    0.000 
#    0.000    0.000    0.000    0.000    0.000    0.000 
#
# Total GULP energy -267252.039775 kJ/mol
# GULP energy per Si atom -5567.750829 kJ/mol
# Density = 1.898387 g / cm^3
# Si number density = 19.027172 Si / 1000 Ang^3
#
#
#
# Elastic Constant Matrix: (Units=GPa)
#
#
# Indices 1 2 3 4 5 6 
#
# 1 47.2144 46.7291 35.1583 24.2701 -0.0006 0.0000
# 2 46.7291 47.2144 35.1583 -24.2701 0.0006 0.0000
# 3 35.1583 35.1583 174.4652 0.0000 0.0000 0.0000
# 4 24.2701 -24.2701 0.0000 13.3343 0.0000 0.0006
# 5 -0.0006 0.0006 0.0000 0.0000 13.3343 24.2701
# 6 0.0000 0.0000 0.0000 0.0006 24.2701 0.2427
#
#
#
# Elastic Compliance Matrix: (Units=1/GPa)
#
#
# Indices 1 2 3 4 5 6 
#
# 1 0.000577 0.011958 -0.002526 0.020715 0.000000 0.000000
# 2 0.011958 0.000577 -0.002526 -0.020715 0.000000 0.000000
# 3 -0.002526 -0.002526 0.006750 0.000000 0.000000 0.000000
# 4 0.020715 -0.020715 0.000000 -0.000414 0.000000 0.000001
# 5 0.000000 0.000000 0.000000 0.000000 -0.000414 0.041431
# 6 0.000000 0.000000 0.000000 0.000001 0.041431 -0.022762
#
#
# Mechanical properties :
#
#
# Convention : Reuss Voigt Hill
#
# Bulk Modulus (GPa) = 46.04824 55.88727 50.96776
# Shear Modulus (GPa) = -224.61945 15.50546 -104.55699
#
# Velocity S-wave (km/s) = -10.87696 2.85776 -7.42096
# Velocity P-wave (km/s) = 11.55381 6.35021 6.82515
#
# Compressibility (1/GPa) = 0.02171636
#
# Stress axis : x y z
#
# Youngs Moduli (GPa) = 1732.59547 1732.59469 148.14922
#
# Poissons Ratio (x) = -20.71901 0.37425
# Poissons Ratio (y) = -20.71902 0.37425
# Poissons Ratio (z) = 4.37683 4.37683
#
# Static dielectric constant tensor:
#      x y z
#    x 1.668190 0.000000 0.000000 
#    y 0.000000 1.668190 0.000000 
#    z 0.000000 0.000000 1.747970 
# 
# From -- ./inp_files/5368.got.cif
#   From: 2010.05.17/outbox.cif.g08.bks.cpg/sg166_3_cif.got.tgz:5368.got - 2010.05.20 11:04:41.
