data_PCOD9579300
_publ_section_title
;
Structure prediction by ZEFSAII (Michael W. Deem and Ramdas Pophale) SiO2 
 PCOD9579300
Probable space group: R -3 M
;
_chemical_formula_sum "Si O2"
_cell_formula_units_Z 72
_cell_length_a 20.202672
_cell_length_b 20.202672
_cell_length_c 8.095392
_cell_angle_alpha 90.000000
_cell_angle_beta 90.000000
_cell_angle_gamma 120.000000
_cell_volume 2861.449863
_symmetry_space_group_name_H-M "R -3 M"
_symmetry_group_IT_number 166
_symmetry_cell_setting 'hexagonal'
loop_
_space_group_symop_operation_xyz
x,y,z
-y,x-y,z
-x+y,-x,z
x-y,-y,-z
-x,-x+y,-z
y,x,-z
-x,-y,-z
y,-x+y,-z
x-y,x,-z
-x+y,y,z
x,x-y,z
-y,-x,z
2/3+x,1/3+y,1/3+z
2/3-y,1/3+x-y,1/3+z
2/3-x+y,1/3-x,1/3+z
2/3+x-y,1/3-y,1/3-z
2/3-x,1/3-x+y,1/3-z
2/3+y,1/3+x,1/3-z
2/3-x,1/3-y,1/3-z
2/3+y,1/3-x+y,1/3-z
2/3+x-y,1/3+x,1/3-z
2/3-x+y,1/3+y,1/3+z
2/3+x,1/3+x-y,1/3+z
2/3-y,1/3-x,1/3+z
1/3+x,2/3+y,2/3+z
1/3-y,2/3+x-y,2/3+z
1/3-x+y,2/3-x,2/3+z
1/3+x-y,2/3-y,2/3-z
1/3-x,2/3-x+y,2/3-z
1/3+y,2/3+x,2/3-z
1/3-x,2/3-y,2/3-z
1/3+y,2/3-x+y,2/3-z
1/3+x-y,2/3+x,2/3-z
1/3-x+y,2/3+y,2/3+z
1/3+x,2/3+x-y,2/3+z
1/3-y,2/3-x,2/3+z
loop_
_atom_site_type_symbol
_atom_site_label
_atom_site_fract_x
_atom_site_fract_y
_atom_site_fract_z
Si Si1 0.373756 0.333334 0.333334
Si Si2 0.912237 0.824475 0.320517
Si Si3 0.580674 0.419327 0.044798
Si Si4 0.357306 0.178653 0.391483
O O1 0.326494 0.326494 0.500000
O O2 0.383243 0.260504 0.316712
O O3 0.866970 0.863579 0.238832
O O4 0.920954 0.841907 0.516107
O O5 0.866424 0.732847 0.348448
O O6 0.536217 0.463784 0.101521
#
# Coordination Sequence:
#
# PCOD9579300 Si02
#       4
#    18  18  18  18
#     4  12  30  49  78 111 154 200 254 314 378 447
#     4  10  22  41  70 109 142 193 251 305 372 440
#     4  10  22  41  71 102 147 191 249 311 364 440
#     4  12  26  46  71 109 154 200 246 310 377 450
#
# _framework density 25.162068999999999
#
# number of rings (size 3 to 8) (size 9 to 14) (size 15 to 20)
#    0.000    1.000    0.000    5.000   14.000    4.000 
#    0.000    0.000    0.000    2.000    0.000    0.000 
#    0.000    0.000    0.000    0.000    0.000    0.000 
#
# Total GULP energy -133819.380562 kJ/mol
# GULP energy per Si atom -5575.807523 kJ/mol
# Density = 2.510480 g / cm^3
# Si number density = 25.162069 Si / 1000 Ang^3
#
#
#
# Elastic Constant Matrix: (Units=GPa)
#
#
# Indices 1 2 3 4 5 6 
#
# 1 205.2422 137.6679 34.1449 -10.8139 0.0072 0.0027
# 2 137.6679 205.2375 34.1373 10.8165 0.0022 0.0009
# 3 34.1449 34.1373 117.5057 0.0037 0.0137 0.0034
# 4 -10.8139 10.8165 0.0037 28.4878 0.0026 0.0008
# 5 0.0072 0.0022 0.0137 0.0026 28.4964 -10.8132
# 6 0.0027 0.0009 0.0034 0.0008 -10.8132 33.7868
#
#
#
# Elastic Compliance Matrix: (Units=1/GPa)
#
#
# Indices 1 2 3 4 5 6 
#
# 1 0.009971 -0.006876 -0.000900 0.006396 -0.000003 -0.000002
# 2 -0.006876 0.009971 -0.000899 -0.006396 0.000002 0.000001
# 3 -0.000900 -0.000899 0.009033 -0.000002 -0.000005 -0.000002
# 4 0.006396 -0.006396 -0.000002 0.039959 -0.000006 -0.000003
# 5 -0.000003 0.000002 -0.000005 -0.000006 0.039943 0.012783
# 6 -0.000002 0.000001 -0.000002 -0.000003 0.012783 0.033689
#
#
# Mechanical properties :
#
#
# Convention : Reuss Voigt Hill
#
# Bulk Modulus (GPa) = 86.01328 104.43171 95.22250
# Shear Modulus (GPa) = 30.52715 39.62321 35.07518
#
# Velocity S-wave (km/s) = 3.48691 3.97258 3.73764
# Velocity P-wave (km/s) = 7.10418 7.91426 7.52014
#
# Compressibility (1/GPa) = 0.01162611
#
# Stress axis : x y z
#
# Youngs Moduli (GPa) = 100.29274 100.29248 110.70724
#
# Poissons Ratio (x) = 0.68956 0.09965
# Poissons Ratio (y) = 0.68956 0.09948
# Poissons Ratio (z) = 0.09027 0.09012
#
# Static dielectric constant tensor:
#      x y z
#    x 1.997140 0.000000 -0.000010 
#    y 0.000000 1.997150 0.000000 
#    z -0.000010 0.000000 2.157540 
# 
# From -- ./inp_files/893.got.cif
#   From: 2010.05.17/outbox.cif.g08.bks.cpg/sg166_1_cif.got.tgz:893.got - 2010.05.20 11:04:41.
