data_PCOD9579466
_publ_section_title
;
Structure prediction by ZEFSAII (Michael W. Deem and Ramdas Pophale) SiO2 
 PCOD9579466
Probable space group: R -3 C 
;
_chemical_formula_sum "Si O2"
_cell_formula_units_Z 234
_cell_length_a 27.399605
_cell_length_b 27.399605
_cell_length_c 20.973040
_cell_angle_alpha 90.000000
_cell_angle_beta 90.000000
_cell_angle_gamma 120.000000
_cell_volume 13635.799939
_symmetry_space_group_name_H-M "R -3 C "
_symmetry_group_IT_number 167
_symmetry_cell_setting 'hexagonal'
loop_
_space_group_symop_operation_xyz
x,y,z
-y,x-y,z
-x+y,-x,z
x-y,-y,1/2-z
-x,-x+y,1/2-z
y,x,1/2-z
-x,-y,-z
y,-x+y,-z
x-y,x,-z
-x+y,y,1/2+z
x,x-y,1/2+z
-y,-x,1/2+z
2/3+x,1/3+y,1/3+z
2/3-y,1/3+x-y,1/3+z
2/3-x+y,1/3-x,1/3+z
2/3+x-y,1/3-y,5/6-z
2/3-x,1/3-x+y,5/6-z
2/3+y,1/3+x,5/6-z
2/3-x,1/3-y,1/3-z
2/3+y,1/3-x+y,1/3-z
2/3+x-y,1/3+x,1/3-z
2/3-x+y,1/3+y,5/6+z
2/3+x,1/3+x-y,5/6+z
2/3-y,1/3-x,5/6+z
1/3+x,2/3+y,2/3+z
1/3-y,2/3+x-y,2/3+z
1/3-x+y,2/3-x,2/3+z
1/3+x-y,2/3-y,1/6-z
1/3-x,2/3-x+y,1/6-z
1/3+y,2/3+x,1/6-z
1/3-x,2/3-y,2/3-z
1/3+y,2/3-x+y,2/3-z
1/3+x-y,2/3+x,2/3-z
1/3-x+y,2/3+y,1/6+z
1/3+x,2/3+x-y,1/6+z
1/3-y,2/3-x,1/6+z
loop_
_atom_site_type_symbol
_atom_site_label
_atom_site_fract_x
_atom_site_fract_y
_atom_site_fract_z
Si Si1 0.333334 0.075813 0.416667
Si Si2 0.035055 0.765300 0.088052
Si Si3 0.427148 0.505439 0.416143
Si Si4 0.777054 0.782230 0.147627
Si Si5 0.934714 0.722931 0.269796
Si Si6 0.139143 0.756660 0.710441
Si Si7 0.257602 0.849625 0.712703
O O1 0.288304 0.025699 0.371460
O O2 0.370244 0.123867 0.364973
O O3 0.046219 0.712886 0.083334
O O4 0.061276 0.795048 0.154328
O O5 0.969705 0.742793 0.077703
O O6 0.066037 0.804684 0.028390
O O7 0.380780 0.477034 0.471391
O O8 0.391812 0.498595 0.351086
O O9 0.482184 0.566532 0.426407
O O10 0.451844 0.463909 0.406365
O O11 0.808154 0.788016 0.081178
O O12 0.896305 0.654930 0.261402
O O13 0.000000 0.749384 0.250000
O O14 0.205235 0.788251 0.722144
#
# Coordination Sequence:
#
# PCOD9579466 Si02
#       7
#    18  36  36  36  36  36  36
#     4  10  20  32  52  72 104 148 172 218 262 312
#     4  10  22  34  49  74 101 141 182 215 262 319
#     4   9  22  35  51  72 105 143 172 221 258 324
#     4  10  20  34  53  75 101 136 185 209 259 311
#     4  10  23  35  51  72 108 139 174 222 269 309
#     4  10  21  32  50  73 103 139 177 221 260 309
#     4  10  22  33  52  75 101 141 179 219 256 310
#
# _framework density 17.160710000000002
#
# number of rings (size 3 to 8) (size 9 to 14) (size 15 to 20)
#    0.000    2.154    1.538    0.000   17.231    1.231 
#    0.000    0.000    0.000    0.000    0.000    0.000 
#    6.154    0.000    0.000    3.538    0.000    0.000 
#
# Total GULP energy -434342.486843 kJ/mol
# GULP energy per Si atom -5568.493421 kJ/mol
# Density = 1.712165 g / cm^3
# Si number density = 17.160710 Si / 1000 Ang^3
#
#
#
# Elastic Constant Matrix: (Units=GPa)
#
#
# Indices 1 2 3 4 5 6 
#
# 1 47.4221 23.4448 -2.9919 -5.2373 -0.0001 0.0000
# 2 23.4448 47.4221 -2.9919 5.2373 0.0001 0.0000
# 3 -2.9919 -2.9919 41.6977 0.0000 0.0000 0.0000
# 4 -5.2373 5.2373 0.0000 7.0856 0.0000 0.0001
# 5 -0.0001 0.0001 0.0000 0.0000 7.0856 -5.2373
# 6 0.0000 0.0000 0.0000 0.0001 -5.2373 11.9887
#
#
#
# Elastic Compliance Matrix: (Units=1/GPa)
#
#
# Indices 1 2 3 4 5 6 
#
# 1 0.037896 -0.023699 0.001019 0.045528 0.000001 0.000000
# 2 -0.023699 0.037896 0.001019 -0.045528 -0.000001 0.000000
# 3 0.001019 0.001019 0.024128 0.000000 0.000000 0.000000
# 4 0.045528 -0.045528 0.000000 0.208436 0.000000 -0.000002
# 5 0.000001 -0.000001 0.000000 0.000000 0.208436 0.091057
# 6 0.000000 0.000000 0.000000 -0.000002 0.091057 0.123191
#
#
# Mechanical properties :
#
#
# Convention : Reuss Voigt Hill
#
# Bulk Modulus (GPa) = 17.66877 19.05151 18.36014
# Shear Modulus (GPa) = 7.12075 13.17070 10.14572
#
# Velocity S-wave (km/s) = 2.03923 2.77337 2.43414
# Velocity P-wave (km/s) = 3.98284 4.62400 4.31534
#
# Compressibility (1/GPa) = 0.05659704
#
# Stress axis : x y z
#
# Youngs Moduli (GPa) = 26.38786 26.38786 41.44502
#
# Poissons Ratio (x) = 0.62537 -0.04222
# Poissons Ratio (y) = 0.62537 -0.04222
# Poissons Ratio (z) = -0.02688 -0.02688
#
# Static dielectric constant tensor:
#      x y z
#    x 1.591800 0.000000 0.000000 
#    y 0.000000 1.591800 0.000000 
#    z 0.000000 0.000000 1.675560 
# 
# From -- ./inp_files/4714.got.cif
#   From: 2010.05.17/outbox.cif.g08.bks.cpg/sg167_3_cif.got.tgz:4714.got - 2010.05.20 11:09:15.
