data_PCOD9579730
_publ_section_title
;
Structure prediction by ZEFSAII (Michael W. Deem and Ramdas Pophale) SiO2 
 PCOD9579730
Probable space group: R -3 C 
;
_chemical_formula_sum "Si O2"
_cell_formula_units_Z 72
_cell_length_a 8.482639
_cell_length_b 8.482639
_cell_length_c 44.869282
_cell_angle_alpha 90.000000
_cell_angle_beta 90.000000
_cell_angle_gamma 120.000000
_cell_volume 2796.029322
_symmetry_space_group_name_H-M "R -3 C "
_symmetry_group_IT_number 167
_symmetry_cell_setting 'hexagonal'
loop_
_space_group_symop_operation_xyz
x,y,z
-y,x-y,z
-x+y,-x,z
x-y,-y,1/2-z
-x,-x+y,1/2-z
y,x,1/2-z
-x,-y,-z
y,-x+y,-z
x-y,x,-z
-x+y,y,1/2+z
x,x-y,1/2+z
-y,-x,1/2+z
2/3+x,1/3+y,1/3+z
2/3-y,1/3+x-y,1/3+z
2/3-x+y,1/3-x,1/3+z
2/3+x-y,1/3-y,5/6-z
2/3-x,1/3-x+y,5/6-z
2/3+y,1/3+x,5/6-z
2/3-x,1/3-y,1/3-z
2/3+y,1/3-x+y,1/3-z
2/3+x-y,1/3+x,1/3-z
2/3-x+y,1/3+y,5/6+z
2/3+x,1/3+x-y,5/6+z
2/3-y,1/3-x,5/6+z
1/3+x,2/3+y,2/3+z
1/3-y,2/3+x-y,2/3+z
1/3-x+y,2/3-x,2/3+z
1/3+x-y,2/3-y,1/6-z
1/3-x,2/3-x+y,1/6-z
1/3+y,2/3+x,1/6-z
1/3-x,2/3-y,2/3-z
1/3+y,2/3-x+y,2/3-z
1/3+x-y,2/3+x,2/3-z
1/3-x+y,2/3+y,1/6+z
1/3+x,2/3+x-y,1/6+z
1/3-y,2/3-x,1/6+z
loop_
_atom_site_type_symbol
_atom_site_label
_atom_site_fract_x
_atom_site_fract_y
_atom_site_fract_z
Si Si1 0.010332 0.636420 0.472893
Si Si2 0.337670 0.314345 0.883424
O O1 0.031760 0.518271 0.447111
O O2 0.816997 0.625670 0.470722
O O3 0.000000 0.500000 0.500000
O O4 0.845375 0.689093 0.535142
O O5 0.333334 0.241876 0.916667
#
# Coordination Sequence:
#
# PCOD9579730 Si02
#       2
#    36  36
#     4  12  27  48  78 116 159 207 262 324 395 472
#     4  12  25  48  77 114 157 207 262 326 394 472
#
# _framework density 25.750802
#
# number of rings (size 3 to 8) (size 9 to 14) (size 15 to 20)
#    0.000    0.000    0.000   10.500    0.000    0.000 
#    0.000    5.000    0.000    0.000    0.000    0.000 
#    0.000    0.000    0.000    0.000    0.000    0.000 
#
# Total GULP energy -133651.750352 kJ/mol
# GULP energy per Si atom -5568.822931 kJ/mol
# Density = 2.569219 g / cm^3
# Si number density = 25.750802 Si / 1000 Ang^3
#
#
#
# Elastic Constant Matrix: (Units=GPa)
#
#
# Indices 1 2 3 4 5 6 
#
# 1 166.5827 62.5651 48.9178 -15.4350 -0.0028 0.0000
# 2 62.5651 166.5827 48.9178 15.4350 0.0028 0.0000
# 3 48.9178 48.9178 155.3368 0.0000 0.0000 0.0000
# 4 -15.4350 15.4350 0.0000 37.5329 0.0000 0.0028
# 5 -0.0028 0.0028 0.0000 0.0000 37.5329 -15.4350
# 6 0.0000 0.0000 0.0000 0.0028 -15.4350 52.0088
#
#
#
# Elastic Compliance Matrix: (Units=1/GPa)
#
#
# Indices 1 2 3 4 5 6 
#
# 1 0.007996 -0.002954 -0.001588 0.004503 0.000001 0.000000
# 2 -0.002954 0.007996 -0.001588 -0.004503 -0.000001 0.000000
# 3 -0.001588 -0.001588 0.007438 0.000000 0.000000 0.000000
# 4 0.004503 -0.004503 0.000000 0.030347 0.000000 -0.000002
# 5 0.000001 -0.000001 0.000000 0.000000 0.030347 0.009006
# 6 0.000000 0.000000 0.000000 -0.000002 0.009006 0.021900
#
#
# Mechanical properties :
#
#
# Convention : Reuss Voigt Hill
#
# Bulk Modulus (GPa) = 89.52251 89.92264 89.72257
# Shear Modulus (GPa) = 40.98123 47.28834 44.13478
#
# Velocity S-wave (km/s) = 3.99363 4.28995 4.14444
# Velocity P-wave (km/s) = 7.49039 7.71585 7.60396
#
# Compressibility (1/GPa) = 0.01117037
#
# Stress axis : x y z
#
# Youngs Moduli (GPa) = 125.06182 125.06182 134.45110
#
# Poissons Ratio (x) = 0.36945 0.21348
# Poissons Ratio (y) = 0.36945 0.21348
# Poissons Ratio (z) = 0.19857 0.19857
#
# Static dielectric constant tensor:
#      x y z
#    x 2.031450 0.000000 0.000000 
#    y 0.000000 2.031450 0.000000 
#    z 0.000000 0.000000 2.577160 
# 
# From -- ./inp_files/6648.got.cif
#   From: 2010.05.17/outbox.cif.g08.bks.cpg/sg167_4_cif.got.tgz:6648.got - 2010.05.20 11:09:15.
