data_PCOD9579368
_publ_section_title
;
Structure prediction by ZEFSAII (Michael W. Deem and Ramdas Pophale) SiO2 
 PCOD9579368
Probable space group: R -3 M
;
_chemical_formula_sum "Si O2"
_cell_formula_units_Z 72
_cell_length_a 24.000000
_cell_length_b 24.000000
_cell_length_c 24.000000
_cell_angle_alpha 90.000000
_cell_angle_beta 90.000000
_cell_angle_gamma 120.000000
_cell_volume 11971.935182
_symmetry_space_group_name_H-M "R -3 M"
_symmetry_group_IT_number 166
_symmetry_cell_setting 'hexagonal'
loop_
_space_group_symop_operation_xyz
x,y,z
-y,x-y,z
-x+y,-x,z
x-y,-y,-z
-x,-x+y,-z
y,x,-z
-x,-y,-z
y,-x+y,-z
x-y,x,-z
-x+y,y,z
x,x-y,z
-y,-x,z
2/3+x,1/3+y,1/3+z
2/3-y,1/3+x-y,1/3+z
2/3-x+y,1/3-x,1/3+z
2/3+x-y,1/3-y,1/3-z
2/3-x,1/3-x+y,1/3-z
2/3+y,1/3+x,1/3-z
2/3-x,1/3-y,1/3-z
2/3+y,1/3-x+y,1/3-z
2/3+x-y,1/3+x,1/3-z
2/3-x+y,1/3+y,1/3+z
2/3+x,1/3+x-y,1/3+z
2/3-y,1/3-x,1/3+z
1/3+x,2/3+y,2/3+z
1/3-y,2/3+x-y,2/3+z
1/3-x+y,2/3-x,2/3+z
1/3+x-y,2/3-y,2/3-z
1/3-x,2/3-x+y,2/3-z
1/3+y,2/3+x,2/3-z
1/3-x,2/3-y,2/3-z
1/3+y,2/3-x+y,2/3-z
1/3+x-y,2/3+x,2/3-z
1/3-x+y,2/3+y,2/3+z
1/3+x,2/3+x-y,2/3+z
1/3-y,2/3-x,2/3+z
loop_
_atom_site_type_symbol
_atom_site_label
_atom_site_fract_x
_atom_site_fract_y
_atom_site_fract_z
Si Si1 0.082926 0.478093 0.060887
Si Si2 0.566926 0.555623 0.639574
Si Si3 0.462989 0.407763 0.768130
Si Si4 0.035035 0.195092 0.944634
Si Si5 0.773705 0.734876 0.729598
Si Si6 0.807507 0.061758 0.852422
O O1 0.094821 0.547411 0.078159
O O2 0.118400 0.448965 0.097396
O O3 0.006518 0.427233 0.063814
O O4 0.098077 0.478890 0.994627
O O5 0.516872 0.483129 0.619559
O O6 0.579213 0.551022 0.704690
O O7 0.531517 0.596032 0.632050
O O8 0.634820 0.589588 0.608882
O O9 0.535258 0.464743 0.782334
O O10 0.411408 0.416876 0.804237
O O11 0.089947 0.179893 0.925388
O O12 0.988720 0.192011 0.895382
O O13 0.000000 0.155112 0.000000
O O14 0.807374 0.763711 0.788107
O O15 0.871031 0.128969 0.864467
#
# Coordination Sequence:
#
# PCOD9579368 Si02
#       6
#    36  36  36  36  36  36
#     4  10  19  33  51  74 106 139 171 211 264 327
#     4   9  18  32  50  73 103 135 170 210 257 314
#     4   9  18  32  51  73  99 134 173 211 258 314
#     4  11  21  34  53  77 106 143 182 223 274 324
#     4  10  20  32  51  77 105 136 172 211 266 323
#     4  11  21  35  54  76 102 136 180 226 270 322
#
# _framework density 6.0140650000000004
#
# number of rings (size 3 to 8) (size 9 to 14) (size 15 to 20)
#    0.000    2.000    1.667    3.500    2.333    3.333 
#    0.000    1.667    0.000    3.333    0.000    0.000 
#    0.000    1.333    0.000    5.333    0.000    0.833 
#
# Total GULP energy -401816.974194 kJ/mol
# GULP energy per Si atom -5580.791308 kJ/mol
# Density = 0.600038 g / cm^3
# Si number density = 6.014065 Si / 1000 Ang^3
#
#
#
# Elastic Constant Matrix: (Units=GPa)
#
#
# Indices 1 2 3 4 5 6 
#
# 1 75.9780 22.8110 30.1713 -2.6882 0.0000 0.0000
# 2 22.8110 75.9780 30.1713 2.6882 0.0000 0.0000
# 3 30.1713 30.1713 90.3315 0.0000 0.0000 0.0000
# 4 -2.6882 2.6882 0.0000 7.9527 0.0000 0.0000
# 5 0.0000 0.0000 0.0000 0.0000 7.9527 -2.6882
# 6 0.0000 0.0000 0.0000 0.0000 -2.6882 26.5835
#
#
#
# Elastic Compliance Matrix: (Units=1/GPa)
#
#
# Indices 1 2 3 4 5 6 
#
# 1 0.016096 -0.003379 -0.004248 0.006583 0.000000 0.000000
# 2 -0.003379 0.016096 -0.004248 -0.006583 0.000000 0.000000
# 3 -0.004248 -0.004248 0.013908 0.000000 0.000000 0.000000
# 4 0.006583 -0.006583 0.000000 0.130194 0.000000 0.000000
# 5 0.000000 0.000000 0.000000 0.000000 0.130194 0.013165
# 6 0.000000 0.000000 0.000000 0.000000 0.013165 0.038949
#
#
# Mechanical properties :
#
#
# Convention : Reuss Voigt Hill
#
# Bulk Modulus (GPa) = 44.73945 45.39939 45.06942
# Shear Modulus (GPa) = 13.27546 19.10669 16.19107
#
# Velocity S-wave (km/s) = 2.71551 3.25776 2.99891
# Velocity P-wave (km/s) = 5.88922 6.27441 6.08486
#
# Compressibility (1/GPa) = 0.02235164
#
# Stress axis : x y z
#
# Youngs Moduli (GPa) = 62.12832 62.12832 71.90217
#
# Poissons Ratio (x) = 0.20991 0.30541
# Poissons Ratio (y) = 0.20991 0.30541
# Poissons Ratio (z) = 0.26390 0.26390
#
# Static dielectric constant tensor:
#      x y z
#    x 1.631250 0.000000 0.000000 
#    y 0.000000 1.631250 0.000000 
#    z 0.000000 0.000000 1.654660 
# 
# From -- ./inp_files/8448.got.cif
#   From: 2010.05.17/outbox.ucp.g08.bks.cvg/sg166_5_cif.got.tgz:8448.got - 2010.06.11 15:16:39.
