data_PCOD9579651
_publ_section_title
;
Structure prediction by ZEFSAII (Michael W. Deem and Ramdas Pophale) SiO2 
 PCOD9579651
Probable space group: R -3 C 
;
_chemical_formula_sum "Si O2"
_cell_formula_units_Z 162
_cell_length_a 21.578612
_cell_length_b 21.578612
_cell_length_c 16.207214
_cell_angle_alpha 90.000000
_cell_angle_beta 90.000000
_cell_angle_gamma 120.000000
_cell_volume 6535.608224
_symmetry_space_group_name_H-M "R -3 C "
_symmetry_group_IT_number 167
_symmetry_cell_setting 'hexagonal'
loop_
_space_group_symop_operation_xyz
x,y,z
-y,x-y,z
-x+y,-x,z
x-y,-y,1/2-z
-x,-x+y,1/2-z
y,x,1/2-z
-x,-y,-z
y,-x+y,-z
x-y,x,-z
-x+y,y,1/2+z
x,x-y,1/2+z
-y,-x,1/2+z
2/3+x,1/3+y,1/3+z
2/3-y,1/3+x-y,1/3+z
2/3-x+y,1/3-x,1/3+z
2/3+x-y,1/3-y,5/6-z
2/3-x,1/3-x+y,5/6-z
2/3+y,1/3+x,5/6-z
2/3-x,1/3-y,1/3-z
2/3+y,1/3-x+y,1/3-z
2/3+x-y,1/3+x,1/3-z
2/3-x+y,1/3+y,5/6+z
2/3+x,1/3+x-y,5/6+z
2/3-y,1/3-x,5/6+z
1/3+x,2/3+y,2/3+z
1/3-y,2/3+x-y,2/3+z
1/3-x+y,2/3-x,2/3+z
1/3+x-y,2/3-y,1/6-z
1/3-x,2/3-x+y,1/6-z
1/3+y,2/3+x,1/6-z
1/3-x,2/3-y,2/3-z
1/3+y,2/3-x+y,2/3-z
1/3+x-y,2/3+x,2/3-z
1/3-x+y,2/3+y,1/6+z
1/3+x,2/3+x-y,1/6+z
1/3-y,2/3-x,1/6+z
loop_
_atom_site_type_symbol
_atom_site_label
_atom_site_fract_x
_atom_site_fract_y
_atom_site_fract_z
Si Si1 0.706947 0.786692 0.501148
Si Si2 0.793787 0.335920 0.301520
Si Si3 0.594177 0.408821 0.038315
Si Si4 0.333334 0.117259 0.416667
Si Si5 0.901330 0.596369 0.166272
O O1 0.666667 0.743380 0.583334
O O2 0.790773 0.818036 0.517136
O O3 0.693911 0.853373 0.509385
O O4 0.684581 0.756617 0.408683
O O5 0.741182 0.284845 0.372489
O O6 0.758639 0.288126 0.221673
O O7 0.574268 0.333334 0.083334
O O8 0.666667 0.470481 0.083334
O O9 0.514875 0.400882 0.030217
O O10 0.399890 0.113411 0.452093
O O11 0.947663 0.614329 0.083334
#
# Coordination Sequence:
#
# PCOD9579651 Si02
#       5
#    36  36  36  18  36
#     4  10  25  46  78 107 151 217 281 333 412 492
#     4  12  23  41  75 115 164 212 253 332 430 525
#     4  11  25  41  69 119 169 207 252 325 437 542
#     4  10  26  50  76 100 158 214 280 346 392 510
#     4  11  25  48  82 115 157 213 281 352 425 499
#
# _framework density 24.787286000000002
#
# number of rings (size 3 to 8) (size 9 to 14) (size 15 to 20)
#    0.667    0.444    2.222    3.111    9.333    1.778 
#    0.000    0.000   12.222    0.000    0.000    0.000 
#    0.000    0.000    0.000    0.000    0.000    0.000 
#
# Total GULP energy -300718.633933 kJ/mol
# GULP energy per Si atom -5568.863591 kJ/mol
# Density = 2.473087 g / cm^3
# Si number density = 24.787286 Si / 1000 Ang^3
#
#
#
# Elastic Constant Matrix: (Units=GPa)
#
#
# Indices 1 2 3 4 5 6 
#
# 1 59.6152 68.2315 19.8725 -16.8145 -0.0006 0.0000
# 2 68.2315 59.6152 19.8725 16.8145 0.0006 0.0000
# 3 19.8725 19.8725 111.4750 0.0000 0.0000 0.0000
# 4 -16.8145 16.8145 0.0000 27.5008 0.0000 0.0006
# 5 -0.0006 0.0006 0.0000 0.0000 27.5008 -16.8145
# 6 0.0000 0.0000 0.0000 0.0006 -16.8145 -4.3082
#
#
#
# Elastic Compliance Matrix: (Units=1/GPa)
#
#
# Indices 1 2 3 4 5 6 
#
# 1 -0.012996 0.021277 -0.001476 -0.020955 -0.000001 0.000000
# 2 0.021277 -0.012996 -0.001476 0.020955 0.000001 0.000000
# 3 -0.001476 -0.001476 0.009497 0.000000 0.000000 0.000000
# 4 -0.020955 0.020955 0.000000 0.010738 0.000000 0.000001
# 5 -0.000001 0.000001 0.000000 0.000000 0.010738 -0.041910
# 6 0.000000 0.000000 0.000000 0.000001 -0.041910 -0.068546
#
#
# Mechanical properties :
#
#
# Convention : Reuss Voigt Hill
#
# Bulk Modulus (GPa) = 49.61866 49.62870 49.62368
# Shear Modulus (GPa) = -53.47862 18.32062 -17.57900
#
# Velocity S-wave (km/s) = -4.64993 2.72161 -2.66596
# Velocity P-wave (km/s) = 2.96106 5.47189 3.25374
#
# Compressibility (1/GPa) = 0.02015371
#
# Stress axis : x y z
#
# Youngs Moduli (GPa) = -76.94674 -76.94674 105.29704
#
# Poissons Ratio (x) = 1.63718 0.15544
# Poissons Ratio (y) = 1.63718 0.15544
# Poissons Ratio (z) = -0.11359 -0.11359
#
# Static dielectric constant tensor:
#      x y z
#    x 2.043000 0.000000 0.000000 
#    y 0.000000 2.043000 0.000000 
#    z 0.000000 0.000000 2.150480 
# 
# From -- ./inp_files/3404.got.cif
#   From: 2010.05.17/outbox.cif.g08.bks.cpg/sg167_2_cif.got.tgz:3404.got - 2010.05.20 11:09:15.
