data_PCOD9579664
_publ_section_title
;
Structure prediction by ZEFSAII (Michael W. Deem and Ramdas Pophale) SiO2 
 PCOD9579664
Probable space group: R -3 C 
;
_chemical_formula_sum "Si O2"
_cell_formula_units_Z 216
_cell_length_a 19.308370
_cell_length_b 19.308370
_cell_length_c 28.008862
_cell_angle_alpha 90.000000
_cell_angle_beta 90.000000
_cell_angle_gamma 120.000000
_cell_volume 9043.099731
_symmetry_space_group_name_H-M "R -3 C "
_symmetry_group_IT_number 167
_symmetry_cell_setting 'hexagonal'
loop_
_space_group_symop_operation_xyz
x,y,z
-y,x-y,z
-x+y,-x,z
x-y,-y,1/2-z
-x,-x+y,1/2-z
y,x,1/2-z
-x,-y,-z
y,-x+y,-z
x-y,x,-z
-x+y,y,1/2+z
x,x-y,1/2+z
-y,-x,1/2+z
2/3+x,1/3+y,1/3+z
2/3-y,1/3+x-y,1/3+z
2/3-x+y,1/3-x,1/3+z
2/3+x-y,1/3-y,5/6-z
2/3-x,1/3-x+y,5/6-z
2/3+y,1/3+x,5/6-z
2/3-x,1/3-y,1/3-z
2/3+y,1/3-x+y,1/3-z
2/3+x-y,1/3+x,1/3-z
2/3-x+y,1/3+y,5/6+z
2/3+x,1/3+x-y,5/6+z
2/3-y,1/3-x,5/6+z
1/3+x,2/3+y,2/3+z
1/3-y,2/3+x-y,2/3+z
1/3-x+y,2/3-x,2/3+z
1/3+x-y,2/3-y,1/6-z
1/3-x,2/3-x+y,1/6-z
1/3+y,2/3+x,1/6-z
1/3-x,2/3-y,2/3-z
1/3+y,2/3-x+y,2/3-z
1/3+x-y,2/3+x,2/3-z
1/3-x+y,2/3+y,1/6+z
1/3+x,2/3+x-y,1/6+z
1/3-y,2/3-x,1/6+z
loop_
_atom_site_type_symbol
_atom_site_label
_atom_site_fract_x
_atom_site_fract_y
_atom_site_fract_z
Si Si1 0.580891 0.058893 0.706599
Si Si2 0.218361 0.914599 0.182631
Si Si3 0.304729 0.004480 0.700614
Si Si4 0.825131 0.892278 0.979016
Si Si5 0.523669 0.456962 0.051437
Si Si6 0.124754 0.580563 0.041771
O O1 0.659340 0.144471 0.709100
O O2 0.567945 0.000000 0.750000
O O3 0.503911 0.065492 0.696801
O O4 0.591151 0.020921 0.657038
O O5 0.296041 0.999993 0.174088
O O6 0.248023 0.848233 0.182079
O O7 0.170749 0.913907 0.229829
O O8 0.269072 0.060277 0.715856
O O9 0.343439 0.000000 0.750000
O O10 0.826364 0.922783 0.924589
O O11 0.882914 0.854523 0.988303
O O12 0.462510 0.490788 0.044552
O O13 0.543460 0.412585 0.008664
#
# Coordination Sequence:
#
# PCOD9579664 Si02
#       6
#    36  36  36  36  36  36
#     4  11  20  35  54  87 124 160 206 256 325 386
#     4  11  21  35  60  93 126 163 211 268 327 389
#     4  11  21  34  58  87 124 165 206 265 324 388
#     4  11  23  40  62  89 128 171 216 266 327 387
#     4   9  19  38  57  85 121 165 201 254 320 389
#     4   9  20  36  57  81 119 164 202 249 312 388
#
# _framework density 23.885615000000001
#
# number of rings (size 3 to 8) (size 9 to 14) (size 15 to 20)
#    0.000    1.667    1.667    4.667    2.333    0.000 
#    0.000    0.000    0.000    0.000    4.333    0.000 
#    0.000    0.000    0.000    0.000    0.000    0.000 
#
# Total GULP energy -401319.557791 kJ/mol
# GULP energy per Si atom -5573.882747 kJ/mol
# Density = 2.383125 g / cm^3
# Si number density = 23.885615 Si / 1000 Ang^3
#
#
#
# Elastic Constant Matrix: (Units=GPa)
#
#
# Indices 1 2 3 4 5 6 
#
# 1 66.5706 20.8786 22.2274 -2.9808 0.0000 0.0000
# 2 20.8786 66.5706 22.2274 2.9808 0.0000 0.0000
# 3 22.2274 22.2274 168.8970 0.0000 0.0000 0.0000
# 4 -2.9808 2.9808 0.0000 35.2684 0.0000 0.0000
# 5 0.0000 0.0000 0.0000 0.0000 35.2684 -2.9808
# 6 0.0000 0.0000 0.0000 0.0000 -2.9808 22.8460
#
#
#
# Elastic Compliance Matrix: (Units=1/GPa)
#
#
# Indices 1 2 3 4 5 6 
#
# 1 0.017192 -0.004937 -0.001613 0.001870 0.000000 0.000000
# 2 -0.004937 0.017192 -0.001613 -0.001870 0.000000 0.000000
# 3 -0.001613 -0.001613 0.006345 0.000000 0.000000 0.000000
# 4 0.001870 -0.001870 0.000000 0.028670 0.000000 0.000000
# 5 0.000000 0.000000 0.000000 0.000000 0.028670 0.003741
# 6 0.000000 0.000000 0.000000 0.000000 0.003741 0.044259
#
#
# Mechanical properties :
#
#
# Convention : Reuss Voigt Hill
#
# Bulk Modulus (GPa) = 40.97658 48.07834 44.52746
# Shear Modulus (GPa) = 29.97776 34.45687 32.21731
#
# Velocity S-wave (km/s) = 3.54652 3.80225 3.67661
# Velocity P-wave (km/s) = 5.82778 6.28080 6.05852
#
# Compressibility (1/GPa) = 0.02440419
#
# Stress axis : x y z
#
# Youngs Moduli (GPa) = 58.16530 58.16530 157.59766
#
# Poissons Ratio (x) = 0.28718 0.25417
# Poissons Ratio (y) = 0.28718 0.25417
# Poissons Ratio (z) = 0.09381 0.09381
#
# Static dielectric constant tensor:
#      x y z
#    x 2.014330 0.000000 0.000000 
#    y 0.000000 2.014330 0.000000 
#    z 0.000000 0.000000 2.189640 
# 
# From -- ./inp_files/6420.got.cif
#   From: 2010.05.17/outbox.cif.g08.bks.cpg/sg167_4_cif.got.tgz:6420.got - 2010.05.20 11:09:15.
