data_PCOD9579322
_publ_section_title
;
Structure prediction by ZEFSAII (Michael W. Deem and Ramdas Pophale) SiO2 
 PCOD9579322
Probable space group: R -3 M
;
_chemical_formula_sum "Si O2"
_cell_formula_units_Z 162
_cell_length_a 21.697967
_cell_length_b 21.697967
_cell_length_c 20.185959
_cell_angle_alpha 90.000000
_cell_angle_beta 90.000000
_cell_angle_gamma 120.000000
_cell_volume 8230.346267
_symmetry_space_group_name_H-M "R -3 M"
_symmetry_group_IT_number 166
_symmetry_cell_setting 'hexagonal'
loop_
_space_group_symop_operation_xyz
x,y,z
-y,x-y,z
-x+y,-x,z
x-y,-y,-z
-x,-x+y,-z
y,x,-z
-x,-y,-z
y,-x+y,-z
x-y,x,-z
-x+y,y,z
x,x-y,z
-y,-x,z
2/3+x,1/3+y,1/3+z
2/3-y,1/3+x-y,1/3+z
2/3-x+y,1/3-x,1/3+z
2/3+x-y,1/3-y,1/3-z
2/3-x,1/3-x+y,1/3-z
2/3+y,1/3+x,1/3-z
2/3-x,1/3-y,1/3-z
2/3+y,1/3-x+y,1/3-z
2/3+x-y,1/3+x,1/3-z
2/3-x+y,1/3+y,1/3+z
2/3+x,1/3+x-y,1/3+z
2/3-y,1/3-x,1/3+z
1/3+x,2/3+y,2/3+z
1/3-y,2/3+x-y,2/3+z
1/3-x+y,2/3-x,2/3+z
1/3+x-y,2/3-y,2/3-z
1/3-x,2/3-x+y,2/3-z
1/3+y,2/3+x,2/3-z
1/3-x,2/3-y,2/3-z
1/3+y,2/3-x+y,2/3-z
1/3+x-y,2/3+x,2/3-z
1/3-x+y,2/3+y,2/3+z
1/3+x,2/3+x-y,2/3+z
1/3-y,2/3-x,2/3+z
loop_
_atom_site_type_symbol
_atom_site_label
_atom_site_fract_x
_atom_site_fract_y
_atom_site_fract_z
Si Si1 0.776014 0.083726 0.088692
Si Si2 0.202018 0.939665 0.134503
Si Si3 0.840666 0.536417 0.075928
Si Si4 0.083280 0.666667 0.166667
Si Si5 0.001120 0.858603 0.398915
O O1 0.856292 0.143709 0.073461
O O2 0.761236 0.094570 0.166667
O O3 0.723188 0.105082 0.053176
O O4 0.761190 0.004308 0.082766
O O5 0.131507 0.868494 0.112434
O O6 0.263184 0.922641 0.157000
O O7 0.184222 0.974990 0.197062
O O8 0.767960 0.535919 0.096635
O O9 0.822680 0.486704 0.012778
O O10 0.123024 0.656782 0.104359
O O11 0.063922 0.936079 0.417639
O O12 0.924660 0.849320 0.414907
#
# Coordination Sequence:
#
# PCOD9579322 Si02
#       5
#    36  36  36  18  36
#     4   8  14  30  53  76 103 134 170 212 270 335
#     4  11  19  32  53  79 109 142 181 223 266 321
#     4   9  18  35  58  81 103 131 177 231 282 328
#     4  12  24  38  50  74 108 150 192 226 264 310
#     4  11  23  39  56  76 105 144 186 226 271 322
#
# _framework density 19.683254999999999
#
# number of rings (size 3 to 8) (size 9 to 14) (size 15 to 20)
#    0.000    2.000    3.333    4.889    0.000    0.889 
#    0.000    3.333    0.000    4.889    0.000    1.556 
#    0.000    0.000    0.000    0.000    0.000   70.444 
#
# Total GULP energy -301458.387818 kJ/mol
# GULP energy per Si atom -5582.562737 kJ/mol
# Density = 1.963845 g / cm^3
# Si number density = 19.683255 Si / 1000 Ang^3
#
#
#
# Elastic Constant Matrix: (Units=GPa)
#
#
# Indices 1 2 3 4 5 6 
#
# 1 97.8774 57.2314 1.8928 -3.3457 0.0005 0.0000
# 2 57.2314 97.8774 1.8928 3.3457 -0.0005 0.0000
# 3 1.8928 1.8928 27.8162 0.0000 0.0000 0.0000
# 4 -3.3457 3.3457 0.0000 -13.5294 0.0000 -0.0005
# 5 0.0005 -0.0005 0.0000 0.0000 -13.5294 -3.3457
# 6 0.0000 0.0000 0.0000 -0.0005 -3.3457 20.3230
#
#
#
# Elastic Compliance Matrix: (Units=1/GPa)
#
#
# Indices 1 2 3 4 5 6 
#
# 1 0.015049 -0.008591 -0.000439 -0.005846 0.000001 0.000000
# 2 -0.008591 0.015049 -0.000439 0.005846 -0.000001 0.000000
# 3 -0.000439 -0.000439 0.036010 0.000000 0.000000 0.000000
# 4 -0.005846 0.005846 0.000000 -0.071022 0.000000 -0.000002
# 5 0.000001 -0.000001 0.000000 0.000000 -0.071022 -0.011692
# 6 0.000000 0.000000 0.000000 -0.000002 -0.011692 0.047280
#
#
# Mechanical properties :
#
#
# Convention : Reuss Voigt Hill
#
# Bulk Modulus (GPa) = 21.20083 38.40058 29.80070
# Shear Modulus (GPa) = 832.27559 9.48979 420.88269
#
# Velocity S-wave (km/s) = 20.58524 2.19812 14.63872
# Velocity P-wave (km/s) = 23.99578 5.09842 17.34634
#
# Compressibility (1/GPa) = 0.04716796
#
# Stress axis : x y z
#
# Youngs Moduli (GPa) = 66.44955 66.44955 27.76999
#
# Poissons Ratio (x) = 0.57088 0.01220
# Poissons Ratio (y) = 0.57088 0.01220
# Poissons Ratio (z) = 0.02920 0.02920
#
# Static dielectric constant tensor:
#      x y z
#    x 1.695080 0.000000 0.000000 
#    y 0.000000 1.695080 0.000000 
#    z 0.000000 0.000000 1.724870 
# 
# From -- ./inp_files/8219.got.cif
#   From: 2010.05.17/outbox.cif.g08.bks.cpg/sg166_5_cif.got.tgz:8219.got - 2010.05.20 11:04:41.
