data_PCOD9579016
_publ_section_title
;
Structure prediction by ZEFSAII (Michael W. Deem and Ramdas Pophale) SiO2 
 PCOD9579016
Probable space group: R -3 M
;
_chemical_formula_sum "Si O2"
_cell_formula_units_Z 126
_cell_length_a 27.688449
_cell_length_b 27.688449
_cell_length_c 8.597278
_cell_angle_alpha 90.000000
_cell_angle_beta 90.000000
_cell_angle_gamma 120.000000
_cell_volume 5708.064341
_symmetry_space_group_name_H-M "R -3 M"
_symmetry_group_IT_number 166
_symmetry_cell_setting 'hexagonal'
loop_
_space_group_symop_operation_xyz
x,y,z
-y,x-y,z
-x+y,-x,z
x-y,-y,-z
-x,-x+y,-z
y,x,-z
-x,-y,-z
y,-x+y,-z
x-y,x,-z
-x+y,y,z
x,x-y,z
-y,-x,z
2/3+x,1/3+y,1/3+z
2/3-y,1/3+x-y,1/3+z
2/3-x+y,1/3-x,1/3+z
2/3+x-y,1/3-y,1/3-z
2/3-x,1/3-x+y,1/3-z
2/3+y,1/3+x,1/3-z
2/3-x,1/3-y,1/3-z
2/3+y,1/3-x+y,1/3-z
2/3+x-y,1/3+x,1/3-z
2/3-x+y,1/3+y,1/3+z
2/3+x,1/3+x-y,1/3+z
2/3-y,1/3-x,1/3+z
1/3+x,2/3+y,2/3+z
1/3-y,2/3+x-y,2/3+z
1/3-x+y,2/3-x,2/3+z
1/3+x-y,2/3-y,2/3-z
1/3-x,2/3-x+y,2/3-z
1/3+y,2/3+x,2/3-z
1/3-x,2/3-y,2/3-z
1/3+y,2/3-x+y,2/3-z
1/3+x-y,2/3+x,2/3-z
1/3-x+y,2/3+y,2/3+z
1/3+x,2/3+x-y,2/3+z
1/3-y,2/3-x,2/3+z
loop_
_atom_site_type_symbol
_atom_site_label
_atom_site_fract_x
_atom_site_fract_y
_atom_site_fract_z
Si Si1 0.872280 0.629362 0.883671
Si Si2 0.401076 0.482515 0.877224
Si Si3 0.333334 0.774964 0.166667
Si Si4 0.486683 0.621895 0.442918
O O1 0.816866 0.633732 0.863411
O O2 0.872458 0.598589 0.723863
O O3 0.921017 0.693168 0.883849
O O4 0.860166 0.592446 0.035749
O O5 0.456517 0.543484 0.874512
O O6 0.348393 0.485909 0.819399
O O7 0.383404 0.766808 0.103512
O O8 0.359557 0.821579 0.298583
O O9 0.432413 0.567588 0.515672
#
# Coordination Sequence:
#
# PCOD9579016 Si02
#       4
#    36  36  18  36
#     4   8  14  21  31  45  61  82 106 136 171 195
#     4   9  14  22  33  45  64  87 108 132 165 198
#     4  10  17  22  28  40  62  90 113 130 150 182
#     4  10  16  22  32  46  64  85 109 136 165 195
#
# _framework density 22.074031999999999
#
# number of rings (size 3 to 8) (size 9 to 14) (size 15 to 20)
#    0.000    2.857    2.857    2.714    0.000    0.000 
#    0.000    0.000    0.000    0.571    0.000    0.000 
#    0.000   22.857    0.000    0.000    0.000    0.000 
#
# Total GULP energy -234062.144596 kJ/mol
# GULP energy per Si atom -5572.908205 kJ/mol
# Density = 2.202379 g / cm^3
# Si number density = 22.074032 Si / 1000 Ang^3
#
#
#
# Elastic Constant Matrix: (Units=GPa)
#
#
# Indices 1 2 3 4 5 6 
#
# 1 125.5192 37.0409 5.5988 22.5599 0.0969 0.0264
# 2 37.0409 125.5845 5.6545 -22.6239 -0.1013 -0.0218
# 3 5.5988 5.6545 22.6715 -0.0270 0.1027 0.0209
# 4 22.5599 -22.6239 -0.0270 110.6095 0.6035 0.1270
# 5 0.0969 -0.1013 0.1027 0.6035 110.8845 22.6331
# 6 0.0264 -0.0218 0.0209 0.1270 22.6331 44.2663
#
#
#
# Elastic Compliance Matrix: (Units=1/GPa)
#
#
# Indices 1 2 3 4 5 6 
#
# 1 0.009436 -0.003178 -0.001541 -0.002575 0.000005 -0.000001
# 2 -0.003178 0.009435 -0.001565 0.002578 -0.000001 0.000001
# 3 -0.001541 -0.001565 0.044879 0.000005 -0.000042 0.000000
# 4 -0.002575 0.002578 0.000005 0.010093 -0.000050 0.000000
# 5 0.000005 -0.000001 -0.000042 -0.000050 0.010070 -0.005148
# 6 -0.000001 0.000001 0.000000 0.000000 -0.005148 0.025223
#
#
# Mechanical properties :
#
#
# Convention : Reuss Voigt Hill
#
# Bulk Modulus (GPa) = 19.53788 41.15151 30.34469
# Shear Modulus (GPa) = 36.03221 68.18413 52.10817
#
# Velocity S-wave (km/s) = 4.04460 5.56380 4.86388
# Velocity P-wave (km/s) = 5.53913 7.74322 6.73199
#
# Compressibility (1/GPa) = 0.05118263
#
# Stress axis : x y z
#
# Youngs Moduli (GPa) = 105.97505 105.99021 22.28200
#
# Poissons Ratio (x) = 0.33680 0.03433
# Poissons Ratio (y) = 0.33675 0.03488
# Poissons Ratio (z) = 0.16329 0.16591
#
# Static dielectric constant tensor:
#      x y z
#    x 1.833230 0.000000 -0.000050 
#    y 0.000000 1.833250 -0.000010 
#    z -0.000050 -0.000010 1.901460 
# 
# From -- ./inp_files/2866.got.cif
#   From: 2010.05.17/outbox.cif.g08.bks.cpg/sg166_2_cif.got.tgz:2866.got - 2010.05.20 11:04:41.
