data_PCOD9579606
_publ_section_title
;
Structure prediction by ZEFSAII (Michael W. Deem and Ramdas Pophale) SiO2 
 PCOD9579606
Probable space group: R -3 C 
;
_chemical_formula_sum "Si O2"
_cell_formula_units_Z 144
_cell_length_a 22.561125
_cell_length_b 22.561125
_cell_length_c 16.971763
_cell_angle_alpha 90.000000
_cell_angle_beta 90.000000
_cell_angle_gamma 120.000000
_cell_volume 7481.334855
_symmetry_space_group_name_H-M "R -3 C "
_symmetry_group_IT_number 167
_symmetry_cell_setting 'hexagonal'
loop_
_space_group_symop_operation_xyz
x,y,z
-y,x-y,z
-x+y,-x,z
x-y,-y,1/2-z
-x,-x+y,1/2-z
y,x,1/2-z
-x,-y,-z
y,-x+y,-z
x-y,x,-z
-x+y,y,1/2+z
x,x-y,1/2+z
-y,-x,1/2+z
2/3+x,1/3+y,1/3+z
2/3-y,1/3+x-y,1/3+z
2/3-x+y,1/3-x,1/3+z
2/3+x-y,1/3-y,5/6-z
2/3-x,1/3-x+y,5/6-z
2/3+y,1/3+x,5/6-z
2/3-x,1/3-y,1/3-z
2/3+y,1/3-x+y,1/3-z
2/3+x-y,1/3+x,1/3-z
2/3-x+y,1/3+y,5/6+z
2/3+x,1/3+x-y,5/6+z
2/3-y,1/3-x,5/6+z
1/3+x,2/3+y,2/3+z
1/3-y,2/3+x-y,2/3+z
1/3-x+y,2/3-x,2/3+z
1/3+x-y,2/3-y,1/6-z
1/3-x,2/3-x+y,1/6-z
1/3+y,2/3+x,1/6-z
1/3-x,2/3-y,2/3-z
1/3+y,2/3-x+y,2/3-z
1/3+x-y,2/3+x,2/3-z
1/3-x+y,2/3+y,1/6+z
1/3+x,2/3+x-y,1/6+z
1/3-y,2/3-x,1/6+z
loop_
_atom_site_type_symbol
_atom_site_label
_atom_site_fract_x
_atom_site_fract_y
_atom_site_fract_z
Si Si1 0.268183 0.100594 0.198300
Si Si2 0.928122 0.547165 0.205084
Si Si3 0.933288 0.877102 0.194970
Si Si4 0.636261 0.205631 0.286507
O O1 0.333334 0.166667 0.166667
O O2 0.273109 0.090973 0.291754
O O3 0.201613 0.107823 0.177892
O O4 0.257424 0.031842 0.155200
O O5 0.869936 0.486434 0.258718
O O6 0.000000 0.590564 0.250000
O O7 0.873274 0.873274 0.250000
O O8 0.924237 0.913312 0.118643
O O9 0.000000 0.913948 0.250000
O O10 0.569817 0.209324 0.311930
#
# Coordination Sequence:
#
# PCOD9579606 Si02
#       4
#    36  36  36  36
#     4  10  22  44  66  90 128 171 216 275 319 383
#     4  10  23  43  64  93 131 170 219 272 323 380
#     4  11  21  40  63  93 133 173 210 256 330 394
#     4  11  23  39  64  99 135 172 211 268 330 394
#
# _framework density 19.247902
#
# number of rings (size 3 to 8) (size 9 to 14) (size 15 to 20)
#    0.000    1.500    5.000    2.000    7.000    1.000 
#    0.000    5.000    0.000    0.000    0.000    0.000 
#    0.000    0.000    0.000    0.000    0.000    0.000 
#
# Total GULP energy -267595.501419 kJ/mol
# GULP energy per Si atom -5574.906280 kJ/mol
# Density = 1.920409 g / cm^3
# Si number density = 19.247902 Si / 1000 Ang^3
#
#
#
# Elastic Constant Matrix: (Units=GPa)
#
#
# Indices 1 2 3 4 5 6 
#
# 1 124.3476 56.6326 54.9776 7.6396 0.0000 0.0000
# 2 56.6326 124.3476 54.9776 -7.6396 0.0000 0.0000
# 3 54.9776 54.9776 100.7685 0.0000 0.0000 0.0000
# 4 7.6396 -7.6396 0.0000 35.0267 0.0000 0.0000
# 5 0.0000 0.0000 0.0000 0.0000 35.0267 7.6396
# 6 0.0000 0.0000 0.0000 0.0000 7.6396 33.8575
#
#
#
# Elastic Compliance Matrix: (Units=1/GPa)
#
#
# Indices 1 2 3 4 5 6 
#
# 1 0.011899 -0.003634 -0.004509 -0.003388 0.000000 0.000000
# 2 -0.003634 0.011899 -0.004509 0.003388 0.000000 0.000000
# 3 -0.004509 -0.004509 0.014844 0.000000 0.000000 0.000000
# 4 -0.003388 0.003388 0.000000 0.030027 0.000000 0.000000
# 5 0.000000 0.000000 0.000000 0.000000 0.030027 -0.006775
# 6 0.000000 0.000000 0.000000 0.000000 -0.006775 0.031064
#
#
# Mechanical properties :
#
#
# Convention : Reuss Voigt Hill
#
# Bulk Modulus (GPa) = 74.97861 75.84883 75.41372
# Shear Modulus (GPa) = 31.34586 32.97389 32.15987
#
# Velocity S-wave (km/s) = 4.03989 4.14347 4.09201
# Velocity P-wave (km/s) = 7.79741 7.89829 7.84801
#
# Compressibility (1/GPa) = 0.01333714
#
# Stress axis : x y z
#
# Youngs Moduli (GPa) = 84.04311 84.04311 67.36660
#
# Poissons Ratio (x) = 0.30537 0.30378
# Poissons Ratio (y) = 0.30537 0.30378
# Poissons Ratio (z) = 0.37898 0.37898
#
# Static dielectric constant tensor:
#      x y z
#    x 1.681050 0.000000 0.000000 
#    y 0.000000 1.681050 0.000000 
#    z 0.000000 0.000000 1.764020 
# 
# From -- ./inp_files/3341.got.cif
#   From: 2010.05.17/outbox.cif.g08.bks.cpg/sg167_2_cif.got.tgz:3341.got - 2010.05.20 11:09:15.
