data_PCOD9579012
_publ_section_title
;
Structure prediction by ZEFSAII (Michael W. Deem and Ramdas Pophale) SiO2 
 PCOD9579012
Probable space group: P -3 C 1
;
_chemical_formula_sum "Si O2"
_cell_formula_units_Z 52
_cell_length_a 12.000000
_cell_length_b 12.000000
_cell_length_c 21.000000
_cell_angle_alpha 90.000000
_cell_angle_beta 90.000000
_cell_angle_gamma 120.000000
_cell_volume 2618.860821
_symmetry_space_group_name_H-M "P -3 C 1"
_symmetry_group_IT_number 165
_symmetry_cell_setting 'hexagonal'
loop_
_space_group_symop_operation_xyz
x,y,z
-y,x-y,z
-x+y,-x,z
x-y,-y,1/2-z
-x,-x+y,1/2-z
y,x,1/2-z
-x,-y,-z
y,-x+y,-z
x-y,x,-z
-x+y,y,1/2+z
x,x-y,1/2+z
-y,-x,1/2+z
loop_
_atom_site_type_symbol
_atom_site_label
_atom_site_fract_x
_atom_site_fract_y
_atom_site_fract_z
Si Si1 0.415510 0.354320 0.318116
Si Si2 0.231675 0.734480 0.503430
Si Si3 0.000000 0.000000 0.575683
Si Si4 0.104755 0.692462 0.639585
Si Si5 0.848586 0.147606 0.112844
O O1 0.410419 0.410419 0.250000
O O2 0.551787 0.461753 0.349047
O O3 0.410831 0.215956 0.316527
O O4 0.283629 0.333252 0.350672
O O5 0.196090 0.584229 0.498992
O O6 0.169487 0.741991 0.569741
O O7 0.185857 0.795323 0.449180
O O8 0.147281 0.066624 0.598221
O O9 0.000000 0.000000 0.500000
O O10 0.963949 0.681367 0.642726
#
# Coordination Sequence:
#
# PCOD9579012 Si02
#       5
#    12  12   4  12  12
#     4  12  29  49  74 103 140 198 246 294 364 426
#     4  10  22  44  72 108 142 184 235 296 370 428
#     4  12  24  42  67 110 148 183 222 292 377 439
#     4  12  25  50  74 104 149 186 243 307 359 428
#     4  12  26  44  73 107 144 187 238 297 367 443
#
# _framework density 19.855962000000002
#
# number of rings (size 3 to 8) (size 9 to 14) (size 15 to 20)
#    0.462    0.000    4.615    3.231    6.462    1.846 
#    1.385    0.000    0.000    0.000    0.000    0.000 
#    0.000    0.000    0.000    0.000    0.000    0.000 
#
# Total GULP energy -290310.723454 kJ/mol
# GULP energy per Si atom -5582.898528 kJ/mol
# Density = 1.981077 g / cm^3
# Si number density = 19.855962 Si / 1000 Ang^3
#
#
#
# Elastic Constant Matrix: (Units=GPa)
#
#
# Indices 1 2 3 4 5 6 
#
# 1 150.2676 47.8431 29.9027 -7.0959 0.0000 0.0000
# 2 47.8431 150.2676 29.9027 7.0959 0.0000 0.0000
# 3 29.9027 29.9027 52.1482 0.0000 0.0000 0.0000
# 4 -7.0959 7.0959 0.0000 27.9999 0.0000 0.0000
# 5 0.0000 0.0000 0.0000 0.0000 27.9999 -7.0959
# 6 0.0000 0.0000 0.0000 0.0000 -7.0959 51.2122
#
#
#
# Elastic Compliance Matrix: (Units=1/GPa)
#
#
# Indices 1 2 3 4 5 6 
#
# 1 0.008111 -0.002007 -0.003500 0.002564 0.000000 0.000000
# 2 -0.002007 0.008111 -0.003500 -0.002564 0.000000 0.000000
# 3 -0.003500 -0.003500 0.023190 0.000000 0.000000 0.000000
# 4 0.002564 -0.002564 0.000000 0.037014 0.000000 0.000000
# 5 0.000000 0.000000 0.000000 0.000000 0.037014 0.005129
# 6 0.000000 0.000000 0.000000 0.000000 0.005129 0.020237
#
#
# Mechanical properties :
#
#
# Convention : Reuss Voigt Hill
#
# Bulk Modulus (GPa) = 46.73387 63.10895 54.92141
# Shear Modulus (GPa) = 31.48078 37.77807 34.62942
#
# Velocity S-wave (km/s) = 3.98610 4.36662 4.18069
# Velocity P-wave (km/s) = 6.69125 7.56806 7.14312
#
# Compressibility (1/GPa) = 0.02139776
#
# Stress axis : x y z
#
# Youngs Moduli (GPa) = 123.28200 123.28200 43.12122
#
# Poissons Ratio (x) = 0.24744 0.15094
# Poissons Ratio (y) = 0.24744 0.15094
# Poissons Ratio (z) = 0.43153 0.43153
#
# Static dielectric constant tensor:
#      x y z
#    x 1.689790 0.000000 0.000000 
#    y 0.000000 1.689790 0.000000 
#    z 0.000000 0.000000 1.724860 
# 
# From -- ./inp_files/2587.got.cif
#   From: 2010.05.17/outbox.ucp.g08.bks.cvg/sg165_2_cif.got.tgz:2587.got - 2010.06.11 15:16:31.
