data_PCOD9579824
_publ_section_title
;
Structure prediction by ZEFSAII (Michael W. Deem and Ramdas Pophale) SiO2 
 PCOD9579824
Probable space group: P 61
;
_chemical_formula_sum "Si O2"
_cell_formula_units_Z 48
_cell_length_a 22.501325
_cell_length_b 22.501325
_cell_length_c 5.919544
_cell_angle_alpha 90.000000
_cell_angle_beta 90.000000
_cell_angle_gamma 120.000000
_cell_volume 2595.583888
_symmetry_space_group_name_H-M "P 61"
_symmetry_group_IT_number 169
_symmetry_cell_setting 'hexagonal'
loop_
_space_group_symop_operation_xyz
x,y,z
x-y,x,1/6+z
-y,x-y,1/3+z
-x,-y,1/2+z
-x+y,-x,2/3+z
y,-x+y,5/6+z
loop_
_atom_site_type_symbol
_atom_site_label
_atom_site_fract_x
_atom_site_fract_y
_atom_site_fract_z
Si Si1 0.643357 0.860810 0.493090
Si Si2 0.028767 0.695457 0.150296
Si Si3 0.678970 0.542994 0.288395
Si Si4 0.493510 0.357408 0.990437
Si Si5 0.642824 0.748943 0.226008
Si Si6 0.208160 0.456587 0.513664
Si Si7 0.561209 0.578436 0.796676
Si Si8 0.558427 0.450323 0.615267
O O1 0.685749 0.923971 0.664157
O O2 0.599516 0.875206 0.310250
O O3 0.675958 0.821840 0.356379
O O4 0.584548 0.804985 0.651812
O O5 0.076840 0.670870 0.280207
O O6 0.972337 0.693345 0.321088
O O7 0.986222 0.633578 0.976575
O O8 0.724057 0.513664 0.169389
O O9 0.613507 0.481111 0.411969
O O10 0.420442 0.304521 0.880264
O O11 0.549219 0.390737 0.788896
O O12 0.503097 0.319019 0.208759
O O13 0.481887 0.417164 0.089185
O O14 0.601421 0.750905 0.004985
O O15 0.575403 0.517113 0.758442
O O16 0.516671 0.574060 0.012733
#
# Coordination Sequence:
#
# PCOD9579824 Si02
#       8
#     6   6   6   6   6   6   6   6
#     4   9  20  32  49  69  97 135 175 215 260 311
#     4  11  19  32  50  70 102 147 166 213 279 318
#     4  10  21  33  48  72 103 137 172 217 268 320
#     4  11  20  31  48  69 101 138 168 202 265 338
#     4  10  19  33  49  70  96 136 179 214 258 320
#     4   9  19  36  49  66  97 137 178 209 254 316
#     4  12  21  30  44  76 109 139 158 200 270 352
#     4  12  21  29  45  72 107 135 162 206 272 345
#
# _framework density 18.492947999999998
#
# number of rings (size 3 to 8) (size 9 to 14) (size 15 to 20)
#    0.000    1.500    5.000    1.500    0.000    0.000 
#    0.000    0.000    0.000    0.000    0.000    0.000 
#    0.000  176.000    0.000    0.000    0.000    0.000 
#
# Total GULP energy -267207.979586 kJ/mol
# GULP energy per Si atom -5566.832908 kJ/mol
# Density = 1.845086 g / cm^3
# Si number density = 18.492948 Si / 1000 Ang^3
#
#
#
# Elastic Constant Matrix: (Units=GPa)
#
#
# Indices 1 2 3 4 5 6 
#
# 1 69.9040 36.2985 35.7266 0.0000 0.0000 0.0000
# 2 36.2985 69.9040 35.7266 0.0000 0.0000 0.0000
# 3 35.7266 35.7266 97.2528 0.0000 0.0000 0.0000
# 4 0.0000 0.0000 0.0000 37.0170 0.0000 0.0000
# 5 0.0000 0.0000 0.0000 0.0000 37.0170 0.0000
# 6 0.0000 0.0000 0.0000 0.0000 0.0000 16.8027
#
#
#
# Elastic Compliance Matrix: (Units=1/GPa)
#
#
# Indices 1 2 3 4 5 6 
#
# 1 0.021132 -0.008625 -0.004595 0.000000 0.000000 0.000000
# 2 -0.008625 0.021132 -0.004595 0.000000 0.000000 0.000000
# 3 -0.004595 -0.004595 0.013658 0.000000 0.000000 0.000000
# 4 0.000000 0.000000 0.000000 0.027015 0.000000 0.000000
# 5 0.000000 0.000000 0.000000 0.000000 0.027015 0.000000
# 6 0.000000 0.000000 0.000000 0.000000 0.000000 0.059514
#
#
# Mechanical properties :
#
#
# Convention : Reuss Voigt Hill
#
# Bulk Modulus (GPa) = 49.27518 50.28489 49.78004
# Shear Modulus (GPa) = 23.60060 26.78795 25.19428
#
# Velocity S-wave (km/s) = 3.57626 3.81011 3.69504
# Velocity P-wave (km/s) = 6.61484 6.82688 6.72170
#
# Compressibility (1/GPa) = 0.02029419
#
# Stress axis : x y z
#
# Youngs Moduli (GPa) = 47.32125 47.32125 73.21594
#
# Poissons Ratio (x) = 0.40814 0.33640
# Poissons Ratio (y) = 0.40814 0.33640
# Poissons Ratio (z) = 0.21742 0.21742
#
# Static dielectric constant tensor:
#      x y z
#    x 1.689120 0.000000 0.000000 
#    y 0.000000 1.689120 0.000000 
#    z 0.000000 0.000000 1.771490 
# 
# From -- ./inp_files/351.got.cif
#   From: 2010.05.17/outbox.cif.g08.bks.cpg/sg169_cif.got.tgz:351.got - 2010.05.20 11:12:54.
