data_PCOD9579290
_publ_section_title
;
Structure prediction by ZEFSAII (Michael W. Deem and Ramdas Pophale) SiO2 
 PCOD9579290
Probable space group: R -3 M
;
_chemical_formula_sum "Si O2"
_cell_formula_units_Z 234
_cell_length_a 26.704392
_cell_length_b 26.704392
_cell_length_c 20.247162
_cell_angle_alpha 90.000000
_cell_angle_beta 90.000000
_cell_angle_gamma 120.000000
_cell_volume 12504.322855
_symmetry_space_group_name_H-M "R -3 M"
_symmetry_group_IT_number 166
_symmetry_cell_setting 'hexagonal'
loop_
_space_group_symop_operation_xyz
x,y,z
-y,x-y,z
-x+y,-x,z
x-y,-y,-z
-x,-x+y,-z
y,x,-z
-x,-y,-z
y,-x+y,-z
x-y,x,-z
-x+y,y,z
x,x-y,z
-y,-x,z
2/3+x,1/3+y,1/3+z
2/3-y,1/3+x-y,1/3+z
2/3-x+y,1/3-x,1/3+z
2/3+x-y,1/3-y,1/3-z
2/3-x,1/3-x+y,1/3-z
2/3+y,1/3+x,1/3-z
2/3-x,1/3-y,1/3-z
2/3+y,1/3-x+y,1/3-z
2/3+x-y,1/3+x,1/3-z
2/3-x+y,1/3+y,1/3+z
2/3+x,1/3+x-y,1/3+z
2/3-y,1/3-x,1/3+z
1/3+x,2/3+y,2/3+z
1/3-y,2/3+x-y,2/3+z
1/3-x+y,2/3-x,2/3+z
1/3+x-y,2/3-y,2/3-z
1/3-x,2/3-x+y,2/3-z
1/3+y,2/3+x,2/3-z
1/3-x,2/3-y,2/3-z
1/3+y,2/3-x+y,2/3-z
1/3+x-y,2/3+x,2/3-z
1/3-x+y,2/3+y,2/3+z
1/3+x,2/3+x-y,2/3+z
1/3-y,2/3-x,2/3+z
loop_
_atom_site_type_symbol
_atom_site_label
_atom_site_fract_x
_atom_site_fract_y
_atom_site_fract_z
Si Si1 0.791251 0.836723 0.939802
Si Si2 0.854163 0.145838 0.374457
Si Si3 0.459546 0.102589 0.632883
Si Si4 0.816840 0.517975 0.515620
Si Si5 0.864478 0.249541 0.720121
Si Si6 0.351076 0.048006 0.262603
Si Si7 0.584005 0.015784 0.187009
O O1 0.791245 0.895623 0.954269
O O2 0.830249 0.842285 0.876656
O O3 0.725614 0.784410 0.927911
O O4 0.815815 0.815815 0.000000
O O5 0.914425 0.171667 0.332012
O O6 0.794222 0.119063 0.419343
O O7 0.490165 0.156804 0.583535
O O8 0.431262 0.120396 0.691757
O O9 0.409874 0.049295 0.590154
O O10 0.749285 0.498569 0.517736
O O11 0.851065 0.587121 0.500942
O O12 0.796345 0.203656 0.722877
O O13 0.891178 0.224512 0.666667
O O14 0.891076 0.250652 0.791208
O O15 0.359478 0.026144 0.333334
O O16 0.379714 0.023675 0.212808
#
# Coordination Sequence:
#
# PCOD9579290 Si02
#       7
#    36  18  36  36  36  36  36
#     4  10  23  40  66  93 123 161 206 260 317 382
#     4  12  26  38  59  95 138 166 211 278 324 379
#     4  12  26  39  61  92 131 174 221 262 315 380
#     4  11  23  42  66  87 119 170 217 257 315 385
#     4  11  22  40  61  89 119 160 222 272 320 379
#     4  10  22  38  57  88 128 173 208 244 304 387
#     4  11  22  40  61  91 127 169 214 261 323 369
#
# _framework density 18.713528
#
# number of rings (size 3 to 8) (size 9 to 14) (size 15 to 20)
#    0.000    1.077    4.615    1.385    2.154    4.308 
#    0.000    0.769    0.000    2.769    0.000    0.000 
#    0.769    0.000    0.000    3.692    0.000    0.000 
#
# Total GULP energy -434654.933107 kJ/mol
# GULP energy per Si atom -5572.499142 kJ/mol
# Density = 1.867093 g / cm^3
# Si number density = 18.713528 Si / 1000 Ang^3
#
#
#
# Elastic Constant Matrix: (Units=GPa)
#
#
# Indices 1 2 3 4 5 6 
#
# 1 69.6517 57.3593 24.1743 -7.8542 0.0003 0.0000
# 2 57.3593 69.6517 24.1743 7.8542 -0.0003 0.0000
# 3 24.1743 24.1743 54.7377 0.0000 0.0000 0.0000
# 4 -7.8542 7.8542 0.0000 19.4045 0.0000 -0.0003
# 5 0.0003 -0.0003 0.0000 0.0000 19.4045 -7.8542
# 6 0.0000 0.0000 0.0000 -0.0003 -7.8542 6.1462
#
#
#
# Elastic Compliance Matrix: (Units=1/GPa)
#
#
# Indices 1 2 3 4 5 6 
#
# 1 0.088990 -0.079525 -0.004180 0.068209 -0.000003 0.000000
# 2 -0.079525 0.088990 -0.004180 -0.068209 0.000003 0.000000
# 3 -0.004180 -0.004180 0.021961 0.000000 0.000000 0.000000
# 4 0.068209 -0.068209 0.000000 0.106751 0.000000 0.000006
# 5 -0.000003 0.000003 0.000000 0.000000 0.106751 0.136418
# 6 0.000000 0.000000 0.000000 0.000006 0.136418 0.337030
#
#
# Mechanical properties :
#
#
# Convention : Reuss Voigt Hill
#
# Bulk Modulus (GPa) = 41.37294 45.05073 43.21184
# Shear Modulus (GPa) = 5.35160 14.87993 10.11577
#
# Velocity S-wave (km/s) = 1.69291 2.82289 2.32751
# Velocity P-wave (km/s) = 5.09685 5.89500 5.51040
#
# Compressibility (1/GPa) = 0.02417039
#
# Stress axis : x y z
#
# Youngs Moduli (GPa) = 11.23725 11.23725 45.53539
#
# Poissons Ratio (x) = 0.89365 0.19033
# Poissons Ratio (y) = 0.89365 0.19033
# Poissons Ratio (z) = 0.04697 0.04697
#
# Static dielectric constant tensor:
#      x y z
#    x 1.659010 0.000000 0.000000 
#    y 0.000000 1.659010 0.000000 
#    z 0.000000 0.000000 1.680310 
# 
# From -- ./inp_files/7252.got.cif
#   From: 2010.05.17/outbox.cif.g08.bks.cpg/sg166_4_cif.got.tgz:7252.got - 2010.05.20 11:04:41.
