data_PCOD9579670
_publ_section_title
;
Structure prediction by ZEFSAII (Michael W. Deem and Ramdas Pophale) SiO2 
 PCOD9579670
Probable space group: R -3 C 
;
_chemical_formula_sum "Si O2"
_cell_formula_units_Z 84
_cell_length_a 16.504638
_cell_length_b 16.504638
_cell_length_c 12.952805
_cell_angle_alpha 90.000000
_cell_angle_beta 90.000000
_cell_angle_gamma 120.000000
_cell_volume 3055.670108
_symmetry_space_group_name_H-M "R -3 C "
_symmetry_group_IT_number 167
_symmetry_cell_setting 'hexagonal'
loop_
_space_group_symop_operation_xyz
x,y,z
-y,x-y,z
-x+y,-x,z
x-y,-y,1/2-z
-x,-x+y,1/2-z
y,x,1/2-z
-x,-y,-z
y,-x+y,-z
x-y,x,-z
-x+y,y,1/2+z
x,x-y,1/2+z
-y,-x,1/2+z
2/3+x,1/3+y,1/3+z
2/3-y,1/3+x-y,1/3+z
2/3-x+y,1/3-x,1/3+z
2/3+x-y,1/3-y,5/6-z
2/3-x,1/3-x+y,5/6-z
2/3+y,1/3+x,5/6-z
2/3-x,1/3-y,1/3-z
2/3+y,1/3-x+y,1/3-z
2/3+x-y,1/3+x,1/3-z
2/3-x+y,1/3+y,5/6+z
2/3+x,1/3+x-y,5/6+z
2/3-y,1/3-x,5/6+z
1/3+x,2/3+y,2/3+z
1/3-y,2/3+x-y,2/3+z
1/3-x+y,2/3-x,2/3+z
1/3+x-y,2/3-y,1/6-z
1/3-x,2/3-x+y,1/6-z
1/3+y,2/3+x,1/6-z
1/3-x,2/3-y,2/3-z
1/3+y,2/3-x+y,2/3-z
1/3+x-y,2/3+x,2/3-z
1/3-x+y,2/3+y,1/6+z
1/3+x,2/3+x-y,1/6+z
1/3-y,2/3-x,1/6+z
loop_
_atom_site_type_symbol
_atom_site_label
_atom_site_fract_x
_atom_site_fract_y
_atom_site_fract_z
Si Si1 0.333333 0.666666 0.044356
Si Si2 0.769038 0.226670 0.979996
Si Si3 0.957201 0.554843 0.898035
O O1 0.333335 0.666668 0.166667
O O2 0.256120 0.692577 0.011393
O O3 0.668473 0.136323 0.959198
O O4 0.837144 0.257653 0.878979
O O5 0.823977 0.202614 0.067548
O O6 0.014067 0.666667 0.916667
#
# Coordination Sequence:
#
# PCOD9579670 Si02
#       3
#    12  36  36
#     4  12  21  42  76  95 136 207 252 286 368 460
#     4  11  23  42  75 104 143 193 249 298 375 444
#     4  11  21  42  73 106 145 187 248 307 366 443
#
# _framework density 27.489878000000001
#
# number of rings (size 3 to 8) (size 9 to 14) (size 15 to 20)
#    0.000    0.857    8.571    0.000    0.000    0.000 
#    0.000   21.429    0.000    0.000    0.000    0.000 
#    0.000    0.000    0.000    0.000    0.000    0.000 
#
# Total GULP energy -156126.806125 kJ/mol
# GULP energy per Si atom -5575.957362 kJ/mol
# Density = 2.742731 g / cm^3
# Si number density = 27.489878 Si / 1000 Ang^3
#
#
#
# Elastic Constant Matrix: (Units=GPa)
#
#
# Indices 1 2 3 4 5 6 
#
# 1 153.0845 86.2914 73.5057 -53.3971 0.0002 0.0000
# 2 86.2914 153.0852 73.5066 53.3970 -0.0002 0.0000
# 3 73.5057 73.5066 124.3672 -0.0004 0.0000 0.0000
# 4 -53.3971 53.3970 -0.0004 12.6809 0.0000 -0.0002
# 5 0.0002 -0.0002 0.0000 0.0000 12.6809 -53.3967
# 6 0.0000 0.0000 0.0000 -0.0002 -53.3967 33.3968
#
#
#
# Elastic Compliance Matrix: (Units=1/GPa)
#
#
# Indices 1 2 3 4 5 6 
#
# 1 0.001973 0.004585 -0.003876 -0.010997 0.000000 0.000000
# 2 0.004585 0.001973 -0.003876 0.010997 0.000000 0.000000
# 3 -0.003876 -0.003876 0.012622 0.000000 0.000000 0.000000
# 4 -0.010997 0.010997 0.000000 -0.013756 0.000000 0.000000
# 5 0.000000 0.000000 0.000000 0.000000 -0.013757 -0.021995
# 6 0.000000 0.000000 0.000000 0.000000 -0.021995 -0.005223
#
#
# Mechanical properties :
#
#
# Convention : Reuss Voigt Hill
#
# Bulk Modulus (GPa) = 97.71048 99.68268 98.69658
# Shear Modulus (GPa) = -778.63545 24.90060 -376.86742
#
# Velocity S-wave (km/s) = -16.84813 3.01293 -11.72138
# Velocity P-wave (km/s) = 18.51642 6.96017 12.13288
#
# Compressibility (1/GPa) = 0.01023432
#
# Stress axis : x y z
#
# Youngs Moduli (GPa) = 506.79420 506.80830 79.22362
#
# Poissons Ratio (x) = -2.32363 0.30708
# Poissons Ratio (y) = -2.32356 0.30707
# Poissons Ratio (z) = 1.96438 1.96438
#
# Static dielectric constant tensor:
#      x y z
#    x 2.157350 0.000000 0.000000 
#    y 0.000000 2.157350 0.000000 
#    z 0.000000 0.000000 2.324200 
# 
# From -- ./inp_files/1848.got.cif
#   From: 2010.05.17/outbox.cif.g08.bks.cpg/sg167_1_cif.got.tgz:1848.got - 2010.05.20 11:09:15.
