data_PCOD9579709
_publ_section_title
;
Structure prediction by ZEFSAII (Michael W. Deem and Ramdas Pophale) SiO2 
 PCOD9579709
Probable space group: R -3 C 
;
_chemical_formula_sum "Si O2"
_cell_formula_units_Z 84
_cell_length_a 16.555469
_cell_length_b 16.555469
_cell_length_c 14.330836
_cell_angle_alpha 90.000000
_cell_angle_beta 90.000000
_cell_angle_gamma 120.000000
_cell_volume 3401.614816
_symmetry_space_group_name_H-M "R -3 C "
_symmetry_group_IT_number 167
_symmetry_cell_setting 'hexagonal'
loop_
_space_group_symop_operation_xyz
x,y,z
-y,x-y,z
-x+y,-x,z
x-y,-y,1/2-z
-x,-x+y,1/2-z
y,x,1/2-z
-x,-y,-z
y,-x+y,-z
x-y,x,-z
-x+y,y,1/2+z
x,x-y,1/2+z
-y,-x,1/2+z
2/3+x,1/3+y,1/3+z
2/3-y,1/3+x-y,1/3+z
2/3-x+y,1/3-x,1/3+z
2/3+x-y,1/3-y,5/6-z
2/3-x,1/3-x+y,5/6-z
2/3+y,1/3+x,5/6-z
2/3-x,1/3-y,1/3-z
2/3+y,1/3-x+y,1/3-z
2/3+x-y,1/3+x,1/3-z
2/3-x+y,1/3+y,5/6+z
2/3+x,1/3+x-y,5/6+z
2/3-y,1/3-x,5/6+z
1/3+x,2/3+y,2/3+z
1/3-y,2/3+x-y,2/3+z
1/3-x+y,2/3-x,2/3+z
1/3+x-y,2/3-y,1/6-z
1/3-x,2/3-x+y,1/6-z
1/3+y,2/3+x,1/6-z
1/3-x,2/3-y,2/3-z
1/3+y,2/3-x+y,2/3-z
1/3+x-y,2/3+x,2/3-z
1/3-x+y,2/3+y,1/6+z
1/3+x,2/3+x-y,1/6+z
1/3-y,2/3-x,1/6+z
loop_
_atom_site_type_symbol
_atom_site_label
_atom_site_fract_x
_atom_site_fract_y
_atom_site_fract_z
Si Si1 0.000000 0.000000 0.387964
Si Si2 0.825157 0.135842 0.013471
Si Si3 0.017999 0.192969 0.623293
O O1 0.088306 0.096872 0.356913
O O2 0.000000 0.000000 0.500000
O O3 0.792231 0.067869 0.099547
O O4 0.765412 0.098746 0.916667
O O5 0.923630 0.149429 0.975655
O O6 0.836552 0.237255 0.026321
#
# Coordination Sequence:
#
# PCOD9579709 Si02
#       3
#    12  36  36
#     4  12  12  24  48  72  81 118 192 213 222 300
#     4   8  16  25  41  67 100 129 161 220 269 304
#     4   9  16  24  43  70  96 125 165 223 263 299
#
# _framework density 24.694154000000001
#
# number of rings (size 3 to 8) (size 9 to 14) (size 15 to 20)
#    2.571    0.000    4.286    0.000    0.000    0.000 
#    0.000    0.000    0.000   10.286    0.000    0.000 
#    0.000    0.000   49.714    0.000    0.000    0.000 
#
# Total GULP energy -156028.197510 kJ/mol
# GULP energy per Si atom -5572.435625 kJ/mol
# Density = 2.463795 g / cm^3
# Si number density = 24.694154 Si / 1000 Ang^3
#
#
#
# Elastic Constant Matrix: (Units=GPa)
#
#
# Indices 1 2 3 4 5 6 
#
# 1 107.5933 52.5064 26.2642 -8.6112 0.0000 0.0000
# 2 52.5064 107.5933 26.2642 8.6112 0.0000 0.0000
# 3 26.2642 26.2642 117.3661 0.0000 0.0000 0.0000
# 4 -8.6112 8.6112 0.0000 9.0162 0.0000 0.0000
# 5 0.0000 0.0000 0.0000 0.0000 9.0162 -8.6112
# 6 0.0000 0.0000 0.0000 0.0000 -8.6112 27.5435
#
#
#
# Elastic Compliance Matrix: (Units=1/GPa)
#
#
# Indices 1 2 3 4 5 6 
#
# 1 0.016311 -0.009570 -0.001509 0.024719 0.000000 0.000000
# 2 -0.009570 0.016311 -0.001509 -0.024719 0.000000 0.000000
# 3 -0.001509 -0.001509 0.009195 0.000000 0.000000 0.000000
# 4 0.024719 -0.024719 0.000000 0.158129 0.000000 0.000000
# 5 0.000000 0.000000 0.000000 0.000000 0.158129 0.049437
# 6 0.000000 0.000000 0.000000 0.000000 0.049437 0.051762
#
#
# Mechanical properties :
#
#
# Convention : Reuss Voigt Hill
#
# Bulk Modulus (GPa) = 60.08337 60.29138 60.18738
# Shear Modulus (GPa) = 11.34920 24.28303 17.81611
#
# Velocity S-wave (km/s) = 2.14613 3.13925 2.68894
# Velocity P-wave (km/s) = 5.52494 6.13254 5.83665
#
# Compressibility (1/GPa) = 0.01664354
#
# Stress axis : x y z
#
# Youngs Moduli (GPa) = 61.30787 61.30787 108.74892
#
# Poissons Ratio (x) = 0.58672 0.16405
# Poissons Ratio (y) = 0.58672 0.16405
# Poissons Ratio (z) = 0.09248 0.09248
#
# Static dielectric constant tensor:
#      x y z
#    x 1.956720 0.000000 0.000000 
#    y 0.000000 1.956720 0.000000 
#    z 0.000000 0.000000 2.027440 
# 
# From -- ./inp_files/1856.got.cif
#   From: 2010.05.17/outbox.cif.g08.bks.cpg/sg167_1_cif.got.tgz:1856.got - 2010.05.20 11:09:15.
