data_PCOD9579305
_publ_section_title
;
Structure prediction by ZEFSAII (Michael W. Deem and Ramdas Pophale) SiO2 
 PCOD9579305
Probable space group: R -3 M
;
_chemical_formula_sum "Si O2"
_cell_formula_units_Z 171
_cell_length_a 28.286260
_cell_length_b 28.286260
_cell_length_c 13.223023
_cell_angle_alpha 90.000000
_cell_angle_beta 90.000000
_cell_angle_gamma 120.000000
_cell_volume 9162.467412
_symmetry_space_group_name_H-M "R -3 M"
_symmetry_group_IT_number 166
_symmetry_cell_setting 'hexagonal'
loop_
_space_group_symop_operation_xyz
x,y,z
-y,x-y,z
-x+y,-x,z
x-y,-y,-z
-x,-x+y,-z
y,x,-z
-x,-y,-z
y,-x+y,-z
x-y,x,-z
-x+y,y,z
x,x-y,z
-y,-x,z
2/3+x,1/3+y,1/3+z
2/3-y,1/3+x-y,1/3+z
2/3-x+y,1/3-x,1/3+z
2/3+x-y,1/3-y,1/3-z
2/3-x,1/3-x+y,1/3-z
2/3+y,1/3+x,1/3-z
2/3-x,1/3-y,1/3-z
2/3+y,1/3-x+y,1/3-z
2/3+x-y,1/3+x,1/3-z
2/3-x+y,1/3+y,1/3+z
2/3+x,1/3+x-y,1/3+z
2/3-y,1/3-x,1/3+z
1/3+x,2/3+y,2/3+z
1/3-y,2/3+x-y,2/3+z
1/3-x+y,2/3-x,2/3+z
1/3+x-y,2/3-y,2/3-z
1/3-x,2/3-x+y,2/3-z
1/3+y,2/3+x,2/3-z
1/3-x,2/3-y,2/3-z
1/3+y,2/3-x+y,2/3-z
1/3+x-y,2/3+x,2/3-z
1/3-x+y,2/3+y,2/3+z
1/3+x,2/3+x-y,2/3+z
1/3-y,2/3-x,2/3+z
loop_
_atom_site_type_symbol
_atom_site_label
_atom_site_fract_x
_atom_site_fract_y
_atom_site_fract_z
Si Si1 0.164602 0.221838 0.054477
Si Si2 0.032161 0.698828 0.333334
Si Si3 0.166668 0.833334 0.833334
Si Si4 0.063435 0.834501 0.483945
Si Si5 0.912119 0.228582 0.343633
Si Si6 0.250555 0.856211 0.411674
O O1 0.102887 0.205773 0.028171
O O2 0.171468 0.223628 0.175593
O O3 0.187082 0.187082 0.000000
O O4 0.202141 0.286139 0.028091
O O5 0.024672 0.639193 0.323688
O O6 0.079010 0.726309 0.420146
O O7 0.194735 0.888905 0.759944
O O8 0.100816 0.899185 0.493325
O O9 0.085139 0.808478 0.567595
O O10 0.071205 0.819453 0.369730
O O11 0.000000 0.810464 0.500000
O O12 0.185903 0.814098 0.429605
#
# Coordination Sequence:
#
# PCOD9579305 Si02
#       6
#    36  18   9  36  36  36
#     4  11  24  43  61  88 125 164 210 263 325 387
#     4  12  23  36  62  88 122 170 219 252 308 372
#     4  12  28  44  56  86 136 168 216 260 324 378
#     4  11  22  42  61  90 121 160 211 262 320 372
#     4  12  25  38  59  88 125 168 208 253 307 385
#     4  10  23  38  61  88 124 165 214 266 305 368
#
# _framework density 18.663094999999998
#
# number of rings (size 3 to 8) (size 9 to 14) (size 15 to 20)
#    0.000    0.842    5.263    1.579    2.947    5.053 
#    0.000    0.000    0.000    0.421    0.000    0.000 
#    0.000    0.000    0.000    0.000    0.000    0.000 
#
# Total GULP energy -317322.320011 kJ/mol
# GULP energy per Si atom -5567.058246 kJ/mol
# Density = 1.862062 g / cm^3
# Si number density = 18.663095 Si / 1000 Ang^3
#
#
#
# Elastic Constant Matrix: (Units=GPa)
#
#
# Indices 1 2 3 4 5 6 
#
# 1 133.2552 72.9176 49.0656 9.9539 0.0001 0.0000
# 2 72.9176 133.2552 49.0656 -9.9539 0.0000 0.0000
# 3 49.0656 49.0656 96.1743 0.0001 0.0005 -0.0001
# 4 9.9539 -9.9539 0.0001 24.7533 0.0000 0.0000
# 5 0.0001 0.0000 0.0005 0.0000 24.7535 9.9539
# 6 0.0000 0.0000 -0.0001 0.0000 9.9539 30.1688
#
#
#
# Elastic Compliance Matrix: (Units=1/GPa)
#
#
# Indices 1 2 3 4 5 6 
#
# 1 0.012757 -0.006351 -0.003268 -0.007684 0.000000 0.000000
# 2 -0.006351 0.012757 -0.003268 0.007684 0.000000 0.000000
# 3 -0.003268 -0.003268 0.013732 0.000000 0.000000 0.000000
# 4 -0.007684 0.007684 0.000000 0.046579 0.000000 0.000000
# 5 0.000000 0.000000 0.000000 0.000000 0.046578 -0.015368
# 6 0.000000 0.000000 0.000000 0.000000 -0.015368 0.038217
#
#
# Mechanical properties :
#
#
# Convention : Reuss Voigt Hill
#
# Bulk Modulus (GPa) = 74.22987 78.30915 76.26951
# Shear Modulus (GPa) = 24.88962 28.71082 26.80022
#
# Velocity S-wave (km/s) = 3.65585 3.92647 3.79357
# Velocity P-wave (km/s) = 7.59475 7.91244 7.75522
#
# Compressibility (1/GPa) = 0.01347167
#
# Stress axis : x y z
#
# Youngs Moduli (GPa) = 78.38680 78.38670 72.82072
#
# Poissons Ratio (x) = 0.49787 0.23798
# Poissons Ratio (y) = 0.49787 0.23798
# Poissons Ratio (z) = 0.25617 0.25617
#
# Static dielectric constant tensor:
#      x y z
#    x 1.657360 0.000000 0.000000 
#    y 0.000000 1.657360 0.000000 
#    z 0.000000 0.000000 1.755730 
# 
# From -- ./inp_files/4169.got.cif
#   From: 2010.05.17/outbox.cif.g08.bks.cpg/sg166_3_cif.got.tgz:4169.got - 2010.05.20 11:04:41.
