data_PCOD9579701
_publ_section_title
;
Structure prediction by ZEFSAII (Michael W. Deem and Ramdas Pophale) SiO2 
 PCOD9579701
Probable space group: R -3 C 
;
_chemical_formula_sum "Si O2"
_cell_formula_units_Z 84
_cell_length_a 16.518292
_cell_length_b 16.518292
_cell_length_c 14.502578
_cell_angle_alpha 90.000000
_cell_angle_beta 90.000000
_cell_angle_gamma 120.000000
_cell_volume 3426.936993
_symmetry_space_group_name_H-M "R -3 C "
_symmetry_group_IT_number 167
_symmetry_cell_setting 'hexagonal'
loop_
_space_group_symop_operation_xyz
x,y,z
-y,x-y,z
-x+y,-x,z
x-y,-y,1/2-z
-x,-x+y,1/2-z
y,x,1/2-z
-x,-y,-z
y,-x+y,-z
x-y,x,-z
-x+y,y,1/2+z
x,x-y,1/2+z
-y,-x,1/2+z
2/3+x,1/3+y,1/3+z
2/3-y,1/3+x-y,1/3+z
2/3-x+y,1/3-x,1/3+z
2/3+x-y,1/3-y,5/6-z
2/3-x,1/3-x+y,5/6-z
2/3+y,1/3+x,5/6-z
2/3-x,1/3-y,1/3-z
2/3+y,1/3-x+y,1/3-z
2/3+x-y,1/3+x,1/3-z
2/3-x+y,1/3+y,5/6+z
2/3+x,1/3+x-y,5/6+z
2/3-y,1/3-x,5/6+z
1/3+x,2/3+y,2/3+z
1/3-y,2/3+x-y,2/3+z
1/3-x+y,2/3-x,2/3+z
1/3+x-y,2/3-y,1/6-z
1/3-x,2/3-x+y,1/6-z
1/3+y,2/3+x,1/6-z
1/3-x,2/3-y,2/3-z
1/3+y,2/3-x+y,2/3-z
1/3+x-y,2/3+x,2/3-z
1/3-x+y,2/3+y,1/6+z
1/3+x,2/3+x-y,1/6+z
1/3-y,2/3-x,1/6+z
loop_
_atom_site_type_symbol
_atom_site_label
_atom_site_fract_x
_atom_site_fract_y
_atom_site_fract_z
Si Si1 0.693026 0.803323 0.927060
Si Si2 0.000000 0.000000 0.858660
Si Si3 0.920015 0.786387 0.399523
O O1 0.666667 0.833334 0.833334
O O2 0.757697 0.760490 0.892011
O O3 0.760965 0.884105 0.996501
O O4 0.600249 0.765519 0.993998
O O5 0.930698 0.895252 0.887821
O O6 0.000000 0.000000 0.750000
#
# Coordination Sequence:
#
# PCOD9579701 Si02
#       3
#    36  12  36
#     4  11  24  50  74 114 155 209 256 337 392 490
#     4  12  24  49  83 118 151 215 268 343 389 511
#     4  11  26  48  78 112 159 204 271 321 414 472
#
# _framework density 24.511685
#
# number of rings (size 3 to 8) (size 9 to 14) (size 15 to 20)
#    0.000    0.857    0.000    6.429    0.000    1.714 
#   61.714    4.286    0.000    0.000    0.000    0.000 
#    0.000    0.000    0.000    0.000    0.000    0.000 
#
# Total GULP energy -156209.611842 kJ/mol
# GULP energy per Si atom -5578.914709 kJ/mol
# Density = 2.445590 g / cm^3
# Si number density = 24.511685 Si / 1000 Ang^3
#
#
#
# Elastic Constant Matrix: (Units=GPa)
#
#
# Indices 1 2 3 4 5 6 
#
# 1 -30.9828 224.7096 16.2189 -61.7008 0.0000 0.0000
# 2 224.7096 -30.9828 16.2189 61.7008 0.0000 0.0000
# 3 16.2189 16.2189 177.6737 0.0000 0.0000 0.0000
# 4 -61.7008 61.7008 0.0000 12.1938 0.0000 0.0000
# 5 0.0000 0.0000 0.0000 0.0000 12.1938 -61.7008
# 6 0.0000 0.0000 0.0000 0.0000 -61.7008 -127.8462
#
#
#
# Elastic Compliance Matrix: (Units=1/GPa)
#
#
# Indices 1 2 3 4 5 6 
#
# 1 0.002053 0.003189 -0.000479 -0.005749 0.000000 0.000000
# 2 0.003189 0.002053 -0.000479 0.005749 0.000000 0.000000
# 3 -0.000479 -0.000479 0.005716 0.000000 0.000000 0.000000
# 4 -0.005749 0.005749 0.000000 0.023826 0.000000 0.000000
# 5 0.000000 0.000000 0.000000 0.000000 0.023826 -0.011499
# 6 0.000000 0.000000 0.000000 0.000000 -0.011499 -0.002272
#
#
# Mechanical properties :
#
#
# Convention : Reuss Voigt Hill
#
# Bulk Modulus (GPa) = 70.00032 70.00033 70.00033
# Shear Modulus (GPa) = 90.09350 -30.12101 29.98625
#
# Velocity S-wave (km/s) = 6.06919 -3.50929 3.50143
# Velocity P-wave (km/s) = 8.81666 3.49282 6.70571
#
# Compressibility (1/GPa) = 0.01428565
#
# Stress axis : x y z
#
# Youngs Moduli (GPa) = 487.11494 487.11494 174.95800
#
# Poissons Ratio (x) = -1.55347 0.08372
# Poissons Ratio (y) = -1.55347 0.08372
# Poissons Ratio (z) = 0.23309 0.23309
#
# Static dielectric constant tensor:
#      x y z
#    x 2.582490 0.000000 0.000000 
#    y 0.000000 2.582490 0.000000 
#    z 0.000000 0.000000 1.854870 
# 
# From -- ./inp_files/1847.got.cif
#   From: 2010.05.17/outbox.cif.g08.bks.cpg/sg167_1_cif.got.tgz:1847.got - 2010.05.20 11:09:15.
