data_PCOD9579861
_publ_section_title
;
Structure prediction by ZEFSAII (Michael W. Deem and Ramdas Pophale) SiO2 
 PCOD9579861
Probable space group: P 61
;
_chemical_formula_sum "Si O2"
_cell_formula_units_Z 30
_cell_length_a 15.579941
_cell_length_b 15.579941
_cell_length_c 5.090287
_cell_angle_alpha 90.000000
_cell_angle_beta 90.000000
_cell_angle_gamma 120.000000
_cell_volume 1070.051102
_symmetry_space_group_name_H-M "P 61"
_symmetry_group_IT_number 169
_symmetry_cell_setting 'hexagonal'
loop_
_space_group_symop_operation_xyz
x,y,z
x-y,x,1/6+z
-y,x-y,1/3+z
-x,-y,1/2+z
-x+y,-x,2/3+z
y,-x+y,5/6+z
loop_
_atom_site_type_symbol
_atom_site_label
_atom_site_fract_x
_atom_site_fract_y
_atom_site_fract_z
Si Si1 0.738928 0.127432 0.708130
Si Si2 0.855612 0.777875 0.233490
Si Si3 0.458366 0.048706 0.151627
Si Si4 0.630729 0.991831 0.188828
Si Si5 0.301397 0.559037 0.238764
O O1 0.845862 0.139428 0.671396
O O2 0.723733 0.215628 0.609570
O O3 0.652492 0.033029 0.537139
O O4 0.705417 0.092992 0.008527
O O5 0.829864 0.862569 0.168291
O O6 0.760606 0.700478 0.401302
O O7 0.428928 0.077667 0.425450
O O8 0.494647 0.145267 0.971112
O O9 0.533964 0.013485 0.235549
O O10 0.394030 0.653223 0.370910
#
# Coordination Sequence:
#
# PCOD9579861 Si02
#       5
#     6   6   6   6   6
#     4   9  21  48  74 101 144 205 251 295 364 471
#     4  10  19  40  64 108 154 193 249 306 365 433
#     4  10  23  48  78  99 141 196 252 286 371 458
#     4   9  21  42  80  99 133 198 260 285 346 457
#     4  12  28  46  72 117 158 188 244 340 394 445
#
# _framework density 28.036041000000001
#
# number of rings (size 3 to 8) (size 9 to 14) (size 15 to 20)
#    1.200    0.800    2.000    0.000    2.800    4.800 
#    7.200    0.000    4.400    0.000    0.000    0.000 
#    0.000    0.000    0.000    0.000    0.000    0.000 
#
# Total GULP energy -167310.951606 kJ/mol
# GULP energy per Si atom -5577.031720 kJ/mol
# Density = 2.797223 g / cm^3
# Si number density = 28.036041 Si / 1000 Ang^3
#
#
#
# Elastic Constant Matrix: (Units=GPa)
#
#
# Indices 1 2 3 4 5 6 
#
# 1 219.9297 96.1742 72.1434 0.0000 0.0000 0.0000
# 2 96.1742 219.9297 72.1434 0.0000 0.0000 0.0000
# 3 72.1434 72.1434 113.2944 0.0000 0.0000 0.0000
# 4 0.0000 0.0000 0.0000 33.6657 0.0000 0.0000
# 5 0.0000 0.0000 0.0000 0.0000 33.6657 0.0000
# 6 0.0000 0.0000 0.0000 0.0000 0.0000 61.8778
#
#
#
# Elastic Compliance Matrix: (Units=1/GPa)
#
#
# Indices 1 2 3 4 5 6 
#
# 1 0.006270 -0.001810 -0.002840 0.000000 0.000000 0.000000
# 2 -0.001810 0.006270 -0.002840 0.000000 0.000000 0.000000
# 3 -0.002840 -0.002840 0.012443 0.000000 0.000000 0.000000
# 4 0.000000 0.000000 0.000000 0.029704 0.000000 0.000000
# 5 0.000000 0.000000 0.000000 0.000000 0.029704 0.000000
# 6 0.000000 0.000000 0.000000 0.000000 0.000000 0.016161
#
#
# Mechanical properties :
#
#
# Convention : Reuss Voigt Hill
#
# Bulk Modulus (GPa) = 99.96676 114.89730 107.43203
# Shear Modulus (GPa) = 42.06390 46.68804 44.37597
#
# Velocity S-wave (km/s) = 3.87764 4.08522 3.98278
# Velocity P-wave (km/s) = 7.46874 7.95757 7.71703
#
# Compressibility (1/GPa) = 0.01000333
#
# Stress axis : x y z
#
# Youngs Moduli (GPa) = 159.48646 159.48646 80.36429
#
# Poissons Ratio (x) = 0.28872 0.22823
# Poissons Ratio (y) = 0.28872 0.22823
# Poissons Ratio (z) = 0.45293 0.45293
#
# Static dielectric constant tensor:
#      x y z
#    x 2.221250 0.000000 0.000000 
#    y 0.000000 2.221250 0.000000 
#    z 0.000000 0.000000 3.646950 
# 
# From -- ./inp_files/565.got.cif
#   From: 2010.05.17/outbox.cif.g08.bks.cpg/sg169_cif.got.tgz:565.got - 2010.05.20 11:12:54.
