data_PCOD9579502
_publ_section_title
;
Structure prediction by ZEFSAII (Michael W. Deem and Ramdas Pophale) SiO2 
 PCOD9579502
Probable space group: R -3 C 
;
_chemical_formula_sum "Si O2"
_cell_formula_units_Z 144
_cell_length_a 29.707969
_cell_length_b 29.707969
_cell_length_c 8.400346
_cell_angle_alpha 90.000000
_cell_angle_beta 90.000000
_cell_angle_gamma 120.000000
_cell_volume 6420.572145
_symmetry_space_group_name_H-M "R -3 C "
_symmetry_group_IT_number 167
_symmetry_cell_setting 'hexagonal'
loop_
_space_group_symop_operation_xyz
x,y,z
-y,x-y,z
-x+y,-x,z
x-y,-y,1/2-z
-x,-x+y,1/2-z
y,x,1/2-z
-x,-y,-z
y,-x+y,-z
x-y,x,-z
-x+y,y,1/2+z
x,x-y,1/2+z
-y,-x,1/2+z
2/3+x,1/3+y,1/3+z
2/3-y,1/3+x-y,1/3+z
2/3-x+y,1/3-x,1/3+z
2/3+x-y,1/3-y,5/6-z
2/3-x,1/3-x+y,5/6-z
2/3+y,1/3+x,5/6-z
2/3-x,1/3-y,1/3-z
2/3+y,1/3-x+y,1/3-z
2/3+x-y,1/3+x,1/3-z
2/3-x+y,1/3+y,5/6+z
2/3+x,1/3+x-y,5/6+z
2/3-y,1/3-x,5/6+z
1/3+x,2/3+y,2/3+z
1/3-y,2/3+x-y,2/3+z
1/3-x+y,2/3-x,2/3+z
1/3+x-y,2/3-y,1/6-z
1/3-x,2/3-x+y,1/6-z
1/3+y,2/3+x,1/6-z
1/3-x,2/3-y,2/3-z
1/3+y,2/3-x+y,2/3-z
1/3+x-y,2/3+x,2/3-z
1/3-x+y,2/3+y,1/6+z
1/3+x,2/3+x-y,1/6+z
1/3-y,2/3-x,1/6+z
loop_
_atom_site_type_symbol
_atom_site_label
_atom_site_fract_x
_atom_site_fract_y
_atom_site_fract_z
Si Si1 0.736384 0.300598 0.922115
Si Si2 0.773575 0.860807 0.588083
Si Si3 0.574968 0.607271 0.411346
Si Si4 0.151827 0.377212 0.887838
O O1 0.677620 0.256819 0.882506
O O2 0.771111 0.272894 0.928849
O O3 0.745711 0.333334 0.083334
O O4 0.750045 0.815230 0.721537
O O5 0.754332 0.836060 0.414860
O O6 0.741483 0.890488 0.626300
O O7 0.581409 0.581409 0.250000
O O8 0.616185 0.666667 0.416667
O O9 0.583615 0.576367 0.553374
O O10 0.166667 0.333334 0.833334
#
# Coordination Sequence:
#
# PCOD9579502 Si02
#       4
#    36  36  36  36
#     4  12  26  45  67  93 126 166 215 276 341 403
#     4  10  20  38  63  89 117 158 210 260 313 385
#     4   9  18  34  54  82 120 159 198 247 307 370
#     4   9  18  35  60  88 120 157 203 257 312 372
#
# _framework density 22.427909
#
# number of rings (size 3 to 8) (size 9 to 14) (size 15 to 20)
#    0.000    2.000    0.000    5.500    0.000    2.000 
#    0.000   10.000    0.000    0.000    0.000    0.000 
#    0.000    0.000    0.000    0.000    0.000    0.000 
#
# Total GULP energy -267877.162228 kJ/mol
# GULP energy per Si atom -5580.774213 kJ/mol
# Density = 2.237686 g / cm^3
# Si number density = 22.427909 Si / 1000 Ang^3
#
#
#
# Elastic Constant Matrix: (Units=GPa)
#
#
# Indices 1 2 3 4 5 6 
#
# 1 144.9350 66.1939 26.4181 4.5952 -0.0199 0.0143
# 2 66.1939 144.9248 26.4045 -4.5655 -0.0135 0.0006
# 3 26.4181 26.4045 71.8920 0.0460 0.0195 0.0259
# 4 4.5952 -4.5655 0.0460 22.0061 0.0335 -0.0072
# 5 -0.0199 -0.0135 0.0195 0.0335 21.9938 4.5927
# 6 0.0143 0.0006 0.0259 -0.0072 4.5927 39.3562
#
#
#
# Elastic Compliance Matrix: (Units=1/GPa)
#
#
# Indices 1 2 3 4 5 6 
#
# 1 0.009116 -0.003900 -0.001916 -0.002709 0.000013 -0.000004
# 2 -0.003900 0.009116 -0.001917 0.002710 -0.000001 0.000003
# 3 -0.001916 -0.001917 0.015318 -0.000030 -0.000015 -0.000008
# 4 -0.002709 0.002710 -0.000030 0.046570 -0.000075 0.000018
# 5 0.000013 -0.000001 -0.000015 -0.000075 0.046603 -0.005438
# 6 -0.000004 0.000003 -0.000008 0.000018 -0.005438 0.026044
#
#
# Mechanical properties :
#
#
# Convention : Reuss Voigt Hill
#
# Bulk Modulus (GPa) = 55.29502 66.64275 60.96889
# Shear Modulus (GPa) = 28.69288 32.85358 30.77323
#
# Velocity S-wave (km/s) = 3.58066 3.83149 3.70820
# Velocity P-wave (km/s) = 6.46552 7.02513 6.75113
#
# Compressibility (1/GPa) = 0.01808481
#
# Stress axis : x y z
#
# Youngs Moduli (GPa) = 109.69879 109.69726 65.28385
#
# Poissons Ratio (x) = 0.42781 0.12506
# Poissons Ratio (y) = 0.42782 0.12513
# Poissons Ratio (z) = 0.21015 0.21026
#
# Static dielectric constant tensor:
#      x y z
#    x 1.858080 0.000010 -0.000060 
#    y 0.000010 1.858130 0.000020 
#    z -0.000060 0.000020 1.931320 
# 
# From -- ./inp_files/790.got.cif
#   From: 2010.05.17/outbox.cif.g08.bks.cpg/sg167_1_cif.got.tgz:790.got - 2010.05.20 11:09:15.
