data_PCOD9579960
_publ_section_title
;
Structure prediction by ZEFSAII (Michael W. Deem and Ramdas Pophale) SiO2 
 PCOD9579960
Probable space group: P 61
;
_chemical_formula_sum "Si O2"
_cell_formula_units_Z 42
_cell_length_a 9.447541
_cell_length_b 9.447541
_cell_length_c 28.355670
_cell_angle_alpha 90.000000
_cell_angle_beta 90.000000
_cell_angle_gamma 120.000000
_cell_volume 2191.836303
_symmetry_space_group_name_H-M "P 61"
_symmetry_group_IT_number 169
_symmetry_cell_setting 'hexagonal'
loop_
_space_group_symop_operation_xyz
x,y,z
x-y,x,1/6+z
-y,x-y,1/3+z
-x,-y,1/2+z
-x+y,-x,2/3+z
y,-x+y,5/6+z
loop_
_atom_site_type_symbol
_atom_site_label
_atom_site_fract_x
_atom_site_fract_y
_atom_site_fract_z
Si Si1 0.947878 0.069276 0.247960
Si Si2 0.433732 0.589059 0.266615
Si Si3 0.412710 0.323834 0.131694
Si Si4 0.324646 0.803986 0.491342
Si Si5 0.264530 0.065857 0.214849
Si Si6 0.243015 0.219718 0.819577
Si Si7 0.732820 0.165854 0.635025
O O1 0.816454 0.037459 0.208045
O O2 0.030030 0.254024 0.265770
O O3 0.086760 0.040304 0.225236
O O4 0.866833 0.945602 0.291031
O O5 0.255174 0.559741 0.277682
O O6 0.485543 0.654220 0.214139
O O7 0.571359 0.707122 0.303019
O O8 0.422171 0.413591 0.274680
O O9 0.453137 0.508087 0.136384
O O10 0.362372 0.224282 0.181025
O O11 0.289189 0.622366 0.479181
O O12 0.163799 0.808711 0.475153
O O13 0.354665 0.113762 0.265800
O O14 0.248154 0.914864 0.183578
#
# Coordination Sequence:
#
# PCOD9579960 Si02
#       7
#     6   6   6   6   6   6   6
#     4  12  21  40  66  97 118 172 217 267 320 397
#     4  10  21  42  60  91 125 169 202 266 325 384
#     4  11  22  38  70  86 126 165 218 260 323 397
#     4  11  23  41  62  94 130 168 213 271 332 389
#     4  11  19  40  64  96 124 169 216 265 326 395
#     4  11  24  40  63  90 133 161 213 269 328 391
#     4  10  22  37  67  90 130 170 213 268 330 393
#
# _framework density 19.162013999999999
#
# number of rings (size 3 to 8) (size 9 to 14) (size 15 to 20)
#    0.000    1.143    7.143    0.000    0.000    4.571 
#    0.000    0.000    0.000    0.000    0.000    0.000 
#    0.000    0.000    0.000    0.000    0.000    0.000 
#
# Total GULP energy -234479.364604 kJ/mol
# GULP energy per Si atom -5582.842014 kJ/mol
# Density = 1.911840 g / cm^3
# Si number density = 19.162014 Si / 1000 Ang^3
#
#
#
# Elastic Constant Matrix: (Units=GPa)
#
#
# Indices 1 2 3 4 5 6 
#
# 1 79.7093 38.4806 18.8371 0.0000 0.0000 0.0000
# 2 38.4806 79.7093 18.8371 0.0000 0.0000 0.0000
# 3 18.8371 18.8371 68.9416 0.0000 0.0000 0.0000
# 4 0.0000 0.0000 0.0000 22.4852 0.0000 0.0000
# 5 0.0000 0.0000 0.0000 0.0000 22.4852 0.0000
# 6 0.0000 0.0000 0.0000 0.0000 0.0000 20.6144
#
#
#
# Elastic Compliance Matrix: (Units=1/GPa)
#
#
# Indices 1 2 3 4 5 6 
#
# 1 0.016762 -0.007493 -0.002532 0.000000 0.000000 0.000000
# 2 -0.007493 0.016762 -0.002532 0.000000 0.000000 0.000000
# 3 -0.002532 -0.002532 0.015889 0.000000 0.000000 0.000000
# 4 0.000000 0.000000 0.000000 0.044474 0.000000 0.000000
# 5 0.000000 0.000000 0.000000 0.000000 0.044474 0.000000
# 6 0.000000 0.000000 0.000000 0.000000 0.000000 0.048510
#
#
# Mechanical properties :
#
#
# Convention : Reuss Voigt Hill
#
# Bulk Modulus (GPa) = 41.15946 42.29666 41.72806
# Shear Modulus (GPa) = 22.71862 23.26400 22.99131
#
# Velocity S-wave (km/s) = 3.44700 3.48813 3.46763
# Velocity P-wave (km/s) = 6.11300 6.19224 6.15275
#
# Compressibility (1/GPa) = 0.02429575
#
# Stress axis : x y z
#
# Youngs Moduli (GPa) = 59.66037 59.66037 62.93712
#
# Poissons Ratio (x) = 0.44706 0.15938
# Poissons Ratio (y) = 0.44706 0.15938
# Poissons Ratio (z) = 0.15108 0.15108
#
# Static dielectric constant tensor:
#      x y z
#    x 1.660290 0.000000 0.000000 
#    y 0.000000 1.660290 0.000000 
#    z 0.000000 0.000000 1.669480 
# 
# From -- ./inp_files/1853.got.cif
#   From: 2010.05.17/outbox.cif.g08.bks.cpg/sg169_cif.got.tgz:1853.got - 2010.05.20 11:12:54.
