data_PCOD9579765
_publ_section_title
;
Structure prediction by ZEFSAII (Michael W. Deem and Ramdas Pophale) SiO2 
 PCOD9579765
Probable space group: P 6
;
_chemical_formula_sum "Si O2"
_cell_formula_units_Z 40
_cell_length_a 19.097627
_cell_length_b 19.097627
_cell_length_c 7.496217
_cell_angle_alpha 90.000000
_cell_angle_beta 90.000000
_cell_angle_gamma 120.000000
_cell_volume 2367.726829
_symmetry_space_group_name_H-M "P 6"
_symmetry_group_IT_number 168
_symmetry_cell_setting 'hexagonal'
loop_
_space_group_symop_operation_xyz
x,y,z
x-y,x,z
-y,x-y,z
-x,-y,z
-x+y,-x,z
y,-x+y,z
loop_
_atom_site_type_symbol
_atom_site_label
_atom_site_fract_x
_atom_site_fract_y
_atom_site_fract_z
Si Si1 0.821752 0.178248 0.837240
Si Si2 0.439881 0.407799 0.136975
Si Si3 0.592200 0.560119 0.537507
Si Si4 0.214817 0.486432 0.136683
Si Si5 0.689281 0.689282 0.837241
Si Si6 0.513568 0.785184 0.537796
Si Si7 0.666668 0.333334 0.554566
Si Si8 0.333334 0.666668 0.119907
O O1 0.918304 0.225229 0.838328
O O2 0.794740 0.210138 0.665805
O O3 0.774772 0.081696 0.836153
O O4 0.789862 0.205260 0.008674
O O5 0.500000 0.500000 0.078375
O O6 0.412786 0.412785 0.337241
O O7 0.484521 0.355165 0.138714
O O8 0.363799 0.361953 0.006795
O O9 0.500000 0.500000 0.596108
O O10 0.638046 0.636202 0.667689
O O11 0.644835 0.515481 0.535768
O O12 0.237814 0.475628 0.337239
O O13 0.283474 0.573431 0.066601
O O14 0.426569 0.716526 0.607873
O O15 0.666668 0.333334 0.337236
#
# Coordination Sequence:
#
# PCOD9579765 Si02
#       8
#     6   6   6   6   6   6   2   2
#     4  10  22  36  58  73 104 128 169 210 260 310
#     4  10  21  32  54  73 103 138 175 212 253 295
#     4  10  21  32  54  73 103 138 175 212 253 295
#     4  10  21  35  50  75 102 138 175 216 249 296
#     4  10  21  38  52  79  98 132 166 214 256 315
#     4  10  21  35  50  75 102 138 175 216 249 296
#     4   9  21  31  50  67 103 137 175 211 251 283
#     4   9  21  31  50  67 103 137 175 211 251 283
#
# _framework density 16.893840000000001
#
# number of rings (size 3 to 8) (size 9 to 14) (size 15 to 20)
#    0.000    2.100    0.000    2.250   16.800    1.200 
#    0.000    0.000    0.000    0.300    0.000    0.000 
#    0.000    0.000    0.000    9.600    0.000    0.000 
#
# Total GULP energy -223407.375084 kJ/mol
# GULP energy per Si atom -5585.184377 kJ/mol
# Density = 1.685539 g / cm^3
# Si number density = 16.893840 Si / 1000 Ang^3
#
#
#
# Elastic Constant Matrix: (Units=GPa)
#
#
# Indices 1 2 3 4 5 6 
#
# 1 112.6871 72.9516 33.2014 0.0000 0.0000 0.0003
# 2 72.9516 112.6878 33.2014 0.0000 0.0000 0.0003
# 3 33.2014 33.2014 70.2195 0.0000 0.0000 0.0000
# 4 0.0000 0.0000 0.0000 15.3669 0.0000 0.0000
# 5 0.0000 0.0000 0.0000 0.0000 15.3672 0.0000
# 6 0.0003 0.0003 0.0000 0.0000 0.0000 19.8679
#
#
#
# Elastic Compliance Matrix: (Units=1/GPa)
#
#
# Indices 1 2 3 4 5 6 
#
# 1 0.015825 -0.009341 -0.003065 0.000000 0.000000 0.000000
# 2 -0.009341 0.015825 -0.003065 0.000000 0.000000 0.000000
# 3 -0.003065 -0.003065 0.017140 0.000000 0.000000 0.000000
# 4 0.000000 0.000000 0.000000 0.065075 0.000000 0.000000
# 5 0.000000 0.000000 0.000000 0.000000 0.065073 0.000000
# 6 0.000000 0.000000 0.000000 0.000000 0.000000 0.050332
#
#
# Mechanical properties :
#
#
# Convention : Reuss Voigt Hill
#
# Bulk Modulus (GPa) = 56.03913 63.81148 59.92530
# Shear Modulus (GPa) = 18.78548 20.53641 19.66095
#
# Velocity S-wave (km/s) = 3.33824 3.49035 3.41514
# Velocity P-wave (km/s) = 6.93555 7.35510 7.14840
#
# Compressibility (1/GPa) = 0.01784467
#
# Stress axis : x y z
#
# Youngs Moduli (GPa) = 63.19199 63.19241 58.34343
#
# Poissons Ratio (x) = 0.59031 0.17885
# Poissons Ratio (y) = 0.59030 0.17885
# Poissons Ratio (z) = 0.19371 0.19371
#
# Static dielectric constant tensor:
#      x y z
#    x 1.558170 0.000000 0.000000 
#    y 0.000000 1.558170 0.000000 
#    z 0.000000 0.000000 1.582540 
# 
# From -- ./inp_files/330.got.cif
#   From: 2010.05.17/outbox.cif.g08.bks.cpg/sg168_cif.got.tgz:330.got - 2010.05.20 11:12:33.
