data_PCOD9579324
_publ_section_title
;
Structure prediction by ZEFSAII (Michael W. Deem and Ramdas Pophale) SiO2 
 PCOD9579324
Probable space group: R -3 M
;
_chemical_formula_sum "Si O2"
_cell_formula_units_Z 252
_cell_length_a 29.994500
_cell_length_b 29.994500
_cell_length_c 18.827361
_cell_angle_alpha 90.000000
_cell_angle_beta 90.000000
_cell_angle_gamma 120.000000
_cell_volume 14669.095473
_symmetry_space_group_name_H-M "R -3 M"
_symmetry_group_IT_number 166
_symmetry_cell_setting 'hexagonal'
loop_
_space_group_symop_operation_xyz
x,y,z
-y,x-y,z
-x+y,-x,z
x-y,-y,-z
-x,-x+y,-z
y,x,-z
-x,-y,-z
y,-x+y,-z
x-y,x,-z
-x+y,y,z
x,x-y,z
-y,-x,z
2/3+x,1/3+y,1/3+z
2/3-y,1/3+x-y,1/3+z
2/3-x+y,1/3-x,1/3+z
2/3+x-y,1/3-y,1/3-z
2/3-x,1/3-x+y,1/3-z
2/3+y,1/3+x,1/3-z
2/3-x,1/3-y,1/3-z
2/3+y,1/3-x+y,1/3-z
2/3+x-y,1/3+x,1/3-z
2/3-x+y,1/3+y,1/3+z
2/3+x,1/3+x-y,1/3+z
2/3-y,1/3-x,1/3+z
1/3+x,2/3+y,2/3+z
1/3-y,2/3+x-y,2/3+z
1/3-x+y,2/3-x,2/3+z
1/3+x-y,2/3-y,2/3-z
1/3-x,2/3-x+y,2/3-z
1/3+y,2/3+x,2/3-z
1/3-x,2/3-y,2/3-z
1/3+y,2/3-x+y,2/3-z
1/3+x-y,2/3+x,2/3-z
1/3-x+y,2/3+y,2/3+z
1/3+x,2/3+x-y,2/3+z
1/3-y,2/3-x,2/3+z
loop_
_atom_site_type_symbol
_atom_site_label
_atom_site_fract_x
_atom_site_fract_y
_atom_site_fract_z
Si Si1 0.340777 0.218769 0.250640
Si Si2 0.291596 0.380617 0.034499
Si Si3 0.000277 0.898509 0.913751
Si Si4 0.785116 0.976471 0.921026
Si Si5 0.029254 0.589741 0.064921
Si Si6 0.393356 0.887924 0.181671
Si Si7 0.059236 0.368695 0.515233
O O1 0.323438 0.161719 0.276822
O O2 0.333334 0.217069 0.166667
O O3 0.307055 0.237282 0.293537
O O4 0.401870 0.253713 0.262946
O O5 0.353083 0.412776 0.030826
O O6 0.273898 0.414359 0.081278
O O7 0.277295 0.330622 0.081826
O O8 0.943690 0.887379 0.890740
O O9 0.016392 0.855881 0.895449
O O10 0.045368 0.954633 0.889910
O O11 0.000000 0.899565 0.000000
O O12 0.764148 0.003367 0.867104
O O13 0.794758 0.000000 0.000000
O O14 0.071085 0.587590 0.116154
O O15 0.987153 0.589015 0.118737
O O16 0.000000 0.551619 0.000000
O O17 0.434373 0.868745 0.189050
O O18 0.333334 0.846085 0.166667
O O19 0.000000 0.352374 0.500000
#
# Coordination Sequence:
#
# PCOD9579324 Si02
#       7
#    36  36  36  36  36  36  36
#     4  11  23  33  45  70 103 142 179 213 253 296
#     4   9  18  33  49  70  99 139 181 212 239 294
#     4   9  18  33  52  71  92 122 165 217 270 315
#     4  11  20  31  47  71 100 133 167 216 256 302
#     4   9  19  30  50  78 103 135 174 211 248 297
#     4   9  18  35  55  78 104 135 172 212 261 313
#     4   9  18  30  46  70 100 138 176 203 244 294
#
# _framework density 17.178972999999999
#
# number of rings (size 3 to 8) (size 9 to 14) (size 15 to 20)
#    0.000    2.429    1.429    3.143    6.000    1.429 
#    0.000    0.714    0.000    0.143    0.000    0.000 
#    0.000    0.000    0.000    0.000    0.000    0.000 
#
# Total GULP energy -468089.968584 kJ/mol
# GULP energy per Si atom -5572.499626 kJ/mol
# Density = 1.713987 g / cm^3
# Si number density = 17.178973 Si / 1000 Ang^3
#
#
#
# Elastic Constant Matrix: (Units=GPa)
#
#
# Indices 1 2 3 4 5 6 
#
# 1 80.9668 44.4828 26.4718 2.5383 -0.0008 0.0000
# 2 44.4828 80.9668 26.4718 -2.5383 0.0008 0.0000
# 3 26.4718 26.4718 64.7486 0.0000 0.0000 0.0000
# 4 2.5383 -2.5383 0.0000 8.3796 0.0000 0.0008
# 5 -0.0008 0.0008 0.0000 0.0000 8.3796 2.5383
# 6 0.0000 0.0000 0.0000 0.0008 2.5383 18.2420
#
#
#
# Elastic Compliance Matrix: (Units=1/GPa)
#
#
# Indices 1 2 3 4 5 6 
#
# 1 0.019124 -0.009491 -0.003939 -0.008668 0.000003 0.000000
# 2 -0.009491 0.019124 -0.003939 0.008668 -0.000003 0.000000
# 3 -0.003939 -0.003939 0.018665 0.000000 0.000000 0.000000
# 4 -0.008668 0.008668 0.000000 0.124588 0.000000 -0.000005
# 5 0.000003 -0.000003 0.000000 0.000000 0.124588 -0.017336
# 6 0.000000 0.000000 0.000000 -0.000005 -0.017336 0.057231
#
#
# Mechanical properties :
#
#
# Convention : Reuss Voigt Hill
#
# Bulk Modulus (GPa) = 45.09049 46.83720 45.96385
# Shear Modulus (GPa) = 12.33198 15.61732 13.97465
#
# Velocity S-wave (km/s) = 2.68218 3.01839 2.85524
# Velocity P-wave (km/s) = 5.99138 6.28260 6.13872
#
# Compressibility (1/GPa) = 0.02217763
#
# Stress axis : x y z
#
# Youngs Moduli (GPa) = 52.28907 52.28907 53.57672
#
# Poissons Ratio (x) = 0.49627 0.21101
# Poissons Ratio (y) = 0.49627 0.21101
# Poissons Ratio (z) = 0.20594 0.20594
#
# Static dielectric constant tensor:
#      x y z
#    x 1.603950 0.000000 0.000000 
#    y 0.000000 1.603950 0.000000 
#    z 0.000000 0.000000 1.585110 
# 
# From -- ./inp_files/5844.got.cif
#   From: 2010.05.17/outbox.cif.g08.bks.cpg/sg166_3_cif.got.tgz:5844.got - 2010.05.20 11:04:41.
