data_PCOD9579647
_publ_section_title
;
Structure prediction by ZEFSAII (Michael W. Deem and Ramdas Pophale) SiO2 
 PCOD9579647
Probable space group: R -3 C 
;
_chemical_formula_sum "Si O2"
_cell_formula_units_Z 108
_cell_length_a 22.227346
_cell_length_b 22.227346
_cell_length_c 10.308241
_cell_angle_alpha 90.000000
_cell_angle_beta 90.000000
_cell_angle_gamma 120.000000
_cell_volume 4410.526290
_symmetry_space_group_name_H-M "R -3 C "
_symmetry_group_IT_number 167
_symmetry_cell_setting 'hexagonal'
loop_
_space_group_symop_operation_xyz
x,y,z
-y,x-y,z
-x+y,-x,z
x-y,-y,1/2-z
-x,-x+y,1/2-z
y,x,1/2-z
-x,-y,-z
y,-x+y,-z
x-y,x,-z
-x+y,y,1/2+z
x,x-y,1/2+z
-y,-x,1/2+z
2/3+x,1/3+y,1/3+z
2/3-y,1/3+x-y,1/3+z
2/3-x+y,1/3-x,1/3+z
2/3+x-y,1/3-y,5/6-z
2/3-x,1/3-x+y,5/6-z
2/3+y,1/3+x,5/6-z
2/3-x,1/3-y,1/3-z
2/3+y,1/3-x+y,1/3-z
2/3+x-y,1/3+x,1/3-z
2/3-x+y,1/3+y,5/6+z
2/3+x,1/3+x-y,5/6+z
2/3-y,1/3-x,5/6+z
1/3+x,2/3+y,2/3+z
1/3-y,2/3+x-y,2/3+z
1/3-x+y,2/3-x,2/3+z
1/3+x-y,2/3-y,1/6-z
1/3-x,2/3-x+y,1/6-z
1/3+y,2/3+x,1/6-z
1/3-x,2/3-y,2/3-z
1/3+y,2/3-x+y,2/3-z
1/3+x-y,2/3+x,2/3-z
1/3-x+y,2/3+y,1/6+z
1/3+x,2/3+x-y,1/6+z
1/3-y,2/3-x,1/6+z
loop_
_atom_site_type_symbol
_atom_site_label
_atom_site_fract_x
_atom_site_fract_y
_atom_site_fract_z
Si Si1 0.538861 0.652900 0.737713
Si Si2 0.684231 0.911199 0.325554
Si Si3 0.798671 0.526078 0.489096
O O1 0.614049 0.702133 0.799250
O O2 0.552790 0.610253 0.626183
O O3 0.515920 0.701258 0.658482
O O4 0.471846 0.600360 0.823217
O O5 0.666667 0.833334 0.333334
O O6 0.735889 0.935597 0.202550
O O7 0.802377 0.469044 0.583334
#
# Coordination Sequence:
#
# PCOD9579647 Si02
#       3
#    36  36  36
#     4  11  23  48  74 111 164 201 255 321 383 479
#     4  11  24  47  71 116 155 199 250 312 396 462
#     4  10  24  48  72 113 157 203 264 316 387 464
#
# _framework density 24.486875999999999
#
# number of rings (size 3 to 8) (size 9 to 14) (size 15 to 20)
#    0.000    1.333    3.333    1.000    0.000    1.333 
#   42.000    0.000    0.000    0.667    8.667    0.000 
#    0.000    0.000    0.000    0.000    0.000    0.000 
#
# Total GULP energy -201267.198499 kJ/mol
# GULP energy per Si atom -5590.755514 kJ/mol
# Density = 2.443114 g / cm^3
# Si number density = 24.486876 Si / 1000 Ang^3
#
#
#
# Elastic Constant Matrix: (Units=GPa)
#
#
# Indices 1 2 3 4 5 6 
#
# 1 154.0357 63.4429 44.6126 -3.2824 -0.0003 -0.0001
# 2 63.4429 154.0358 44.6128 3.2822 -0.0001 0.0000
# 3 44.6126 44.6128 76.8424 -0.0004 -0.0008 -0.0001
# 4 -3.2824 3.2822 -0.0004 49.9513 -0.0002 0.0000
# 5 -0.0003 -0.0001 -0.0008 -0.0002 49.9510 -3.2824
# 6 -0.0001 0.0000 -0.0001 0.0000 -3.2824 45.2965
#
#
#
# Elastic Compliance Matrix: (Units=1/GPa)
#
#
# Indices 1 2 3 4 5 6 
#
# 1 0.008564 -0.002528 -0.003504 0.000729 0.000000 0.000000
# 2 -0.002528 0.008564 -0.003504 -0.000729 0.000000 0.000000
# 3 -0.003504 -0.003504 0.017083 0.000000 0.000000 0.000000
# 4 0.000729 -0.000729 0.000000 0.020115 0.000000 0.000000
# 5 0.000000 0.000000 0.000000 0.000000 0.020115 0.001458
# 6 0.000000 0.000000 0.000000 0.000000 0.001458 0.022182
#
#
# Mechanical properties :
#
#
# Convention : Reuss Voigt Hill
#
# Bulk Modulus (GPa) = 66.06203 76.69448 71.37826
# Shear Modulus (GPa) = 41.41097 44.52278 42.96688
#
# Velocity S-wave (km/s) = 4.11682 4.26870 4.19345
# Velocity P-wave (km/s) = 7.04519 7.46219 7.25669
#
# Compressibility (1/GPa) = 0.01513729
#
# Stress axis : x y z
#
# Youngs Moduli (GPa) = 116.77429 116.77413 58.53903
#
# Poissons Ratio (x) = 0.29517 0.20513
# Poissons Ratio (y) = 0.29517 0.20514
# Poissons Ratio (z) = 0.40920 0.40921
#
# Static dielectric constant tensor:
#      x y z
#    x 2.007720 0.000000 0.000000 
#    y 0.000000 2.007720 0.000000 
#    z 0.000000 0.000000 2.056300 
# 
# From -- ./inp_files/1188.got.cif
#   From: 2010.05.17/outbox.cif.g08.bks.cpg/sg167_1_cif.got.tgz:1188.got - 2010.05.20 11:09:15.
