data_PCOD9579938
_publ_section_title
;
Structure prediction by ZEFSAII (Michael W. Deem and Ramdas Pophale) SiO2 
 PCOD9579938
Probable space group: P 61
;
_chemical_formula_sum "Si O2"
_cell_formula_units_Z 48
_cell_length_a 19.812360
_cell_length_b 19.812360
_cell_length_c 7.835793
_cell_angle_alpha 90.000000
_cell_angle_beta 90.000000
_cell_angle_gamma 120.000000
_cell_volume 2663.704275
_symmetry_space_group_name_H-M "P 61"
_symmetry_group_IT_number 169
_symmetry_cell_setting 'hexagonal'
loop_
_space_group_symop_operation_xyz
x,y,z
x-y,x,1/6+z
-y,x-y,1/3+z
-x,-y,1/2+z
-x+y,-x,2/3+z
y,-x+y,5/6+z
loop_
_atom_site_type_symbol
_atom_site_label
_atom_site_fract_x
_atom_site_fract_y
_atom_site_fract_z
Si Si1 0.522962 0.849750 0.857040
Si Si2 0.088429 0.158178 0.648534
Si Si3 0.823929 0.685344 0.965442
Si Si4 0.673058 0.285097 0.712649
Si Si5 0.722220 0.729441 0.702728
Si Si6 0.894644 0.435275 0.015563
Si Si7 0.000583 0.862200 0.688018
Si Si8 0.592599 0.554405 0.700754
O O1 0.603707 0.849369 0.861221
O O2 0.453435 0.761405 0.837026
O O3 0.526022 0.901346 0.693650
O O4 0.510188 0.882990 0.034844
O O5 0.115257 0.118741 0.507187
O O6 0.132759 0.248206 0.605671
O O7 0.114310 0.150124 0.835119
O O8 0.779382 0.716807 0.837045
O O9 0.899578 0.678279 0.911522
O O10 0.644383 0.322772 0.566165
O O11 0.615706 0.191545 0.708423
O O12 0.780376 0.787117 0.561363
O O13 0.658812 0.642234 0.654754
O O14 0.925932 0.424033 0.198273
O O15 0.960011 0.517517 0.936844
O O16 0.921559 0.864027 0.662298
#
# Coordination Sequence:
#
# PCOD9579938 Si02
#       8
#     6   6   6   6   6   6   6   6
#     4  10  23  40  63  94 128 158 203 255 307 378
#     4  10  21  38  54  78 111 155 207 260 306 358
#     4  11  21  38  58  83 116 158 200 250 309 363
#     4  10  21  40  68  95 125 159 205 259 314 366
#     4  11  22  37  60  82 117 158 202 253 304 365
#     4  11  22  42  67  93 125 164 203 253 311 377
#     4  10  21  39  54  81 117 157 210 260 303 354
#     4  11  23  40  64  92 127 165 206 248 312 375
#
# _framework density 18.020018
#
# number of rings (size 3 to 8) (size 9 to 14) (size 15 to 20)
#    0.000    1.500    3.750    1.500    1.750    0.000 
#   13.500    0.000    2.750    0.000    0.000    0.000 
#    0.000    0.000    0.000    0.000    0.000    0.000 
#
# Total GULP energy -267288.473720 kJ/mol
# GULP energy per Si atom -5568.509869 kJ/mol
# Density = 1.797900 g / cm^3
# Si number density = 18.020018 Si / 1000 Ang^3
#
#
#
# Elastic Constant Matrix: (Units=GPa)
#
#
# Indices 1 2 3 4 5 6 
#
# 1 114.8467 55.0728 53.1860 0.0000 0.0000 0.0000
# 2 55.0728 114.8467 53.1860 0.0000 0.0000 0.0000
# 3 53.1860 53.1860 113.2084 0.0000 0.0000 0.0000
# 4 0.0000 0.0000 0.0000 34.7117 0.0000 0.0000
# 5 0.0000 0.0000 0.0000 0.0000 34.7117 0.0000
# 6 0.0000 0.0000 0.0000 0.0000 0.0000 29.8870
#
#
#
# Elastic Compliance Matrix: (Units=1/GPa)
#
#
# Indices 1 2 3 4 5 6 
#
# 1 0.012533 -0.004196 -0.003917 0.000000 0.000000 0.000000
# 2 -0.004196 0.012533 -0.003917 0.000000 0.000000 0.000000
# 3 -0.003917 -0.003917 0.012514 0.000000 0.000000 0.000000
# 4 0.000000 0.000000 0.000000 0.028809 0.000000 0.000000
# 5 0.000000 0.000000 0.000000 0.000000 0.028809 0.000000
# 6 0.000000 0.000000 0.000000 0.000000 0.000000 0.033459
#
#
# Mechanical properties :
#
#
# Convention : Reuss Voigt Hill
#
# Bulk Modulus (GPa) = 73.96176 73.97680 73.96928
# Shear Modulus (GPa) = 31.80174 31.95919 31.88046
#
# Velocity S-wave (km/s) = 4.20551 4.21591 4.21071
# Velocity P-wave (km/s) = 8.04457 8.05234 8.04846
#
# Compressibility (1/GPa) = 0.01352050
#
# Stress axis : x y z
#
# Youngs Moduli (GPa) = 79.78667 79.78667 79.91325
#
# Poissons Ratio (x) = 0.33481 0.31301
# Poissons Ratio (y) = 0.33481 0.31301
# Poissons Ratio (z) = 0.31251 0.31251
#
# Static dielectric constant tensor:
#      x y z
#    x 1.613030 0.000000 0.000000 
#    y 0.000000 1.613030 0.000000 
#    z 0.000000 0.000000 1.618360 
# 
# From -- ./inp_files/719.got.cif
#   From: 2010.05.17/outbox.cif.g08.bks.cpg/sg169_cif.got.tgz:719.got - 2010.05.20 11:12:54.
