data_PCOD9579011
_publ_section_title
;
Structure prediction by ZEFSAII (Michael W. Deem and Ramdas Pophale) SiO2 
 PCOD9579011
Probable space group: P -3 C 1
;
_chemical_formula_sum "Si O2"
_cell_formula_units_Z 66
_cell_length_a 21.000000
_cell_length_b 21.000000
_cell_length_c 9.000000
_cell_angle_alpha 90.000000
_cell_angle_beta 90.000000
_cell_angle_gamma 120.000000
_cell_volume 3437.254828
_symmetry_space_group_name_H-M "P -3 C 1"
_symmetry_group_IT_number 165
_symmetry_cell_setting 'hexagonal'
loop_
_space_group_symop_operation_xyz
x,y,z
-y,x-y,z
-x+y,-x,z
x-y,-y,1/2-z
-x,-x+y,1/2-z
y,x,1/2-z
-x,-y,-z
y,-x+y,-z
x-y,x,-z
-x+y,y,1/2+z
x,x-y,1/2+z
-y,-x,1/2+z
loop_
_atom_site_type_symbol
_atom_site_label
_atom_site_fract_x
_atom_site_fract_y
_atom_site_fract_z
Si Si1 0.126903 0.483348 0.393992
Si Si2 0.686295 0.805167 0.083376
Si Si3 0.400681 0.908805 0.737186
Si Si4 0.662560 0.662560 0.250000
Si Si5 0.415974 0.230778 0.181421
Si Si6 0.139891 0.047955 0.403935
O O1 0.115398 0.496502 0.565451
O O2 0.121290 0.546798 0.301107
O O3 0.055586 0.407720 0.344362
O O4 0.195604 0.468065 0.364450
O O5 0.680080 0.730405 0.143972
O O6 0.622828 0.814542 0.165116
O O7 0.771520 0.864771 0.104869
O O8 0.657279 0.797852 0.917780
O O9 0.319752 0.863807 0.815588
O O10 0.443239 0.000000 0.750000
O O11 0.117764 0.107770 0.457994
O O12 0.107065 0.000000 0.250000
#
# Coordination Sequence:
#
# PCOD9579011 Si02
#       6
#    12  12  12   6  12  12
#     4  11  25  43  68 104 141 186 228 286 349 417
#     4  11  23  43  69  98 135 186 229 298 356 426
#     4  12  25  43  73 108 140 188 239 290 351 421
#     4  10  22  42  68  96 140 172 228 286 352 418
#     4  11  25  44  69 101 148 180 240 293 357 420
#     4  12  26  45  67  98 136 183 240 297 364 432
#
# _framework density 19.201370000000001
#
# number of rings (size 3 to 8) (size 9 to 14) (size 15 to 20)
#    0.000    0.727    3.636    3.455    7.636    1.455 
#    1.091    0.000    0.000    0.000    0.000    0.000 
#    0.000    0.000    0.000    0.000    0.000    0.000 
#
# Total GULP energy -368069.427659 kJ/mol
# GULP energy per Si atom -5576.809510 kJ/mol
# Density = 1.915767 g / cm^3
# Si number density = 19.201370 Si / 1000 Ang^3
#
#
#
# Elastic Constant Matrix: (Units=GPa)
#
#
# Indices 1 2 3 4 5 6 
#
# 1 120.5167 51.7298 12.2330 -3.3385 0.0000 0.0000
# 2 51.7298 120.5167 12.2330 3.3385 0.0000 0.0000
# 3 12.2330 12.2330 67.9136 0.0000 0.0000 0.0000
# 4 -3.3385 3.3385 0.0000 20.8833 0.0000 0.0000
# 5 0.0000 0.0000 0.0000 0.0000 20.8833 -3.3385
# 6 0.0000 0.0000 0.0000 0.0000 -3.3385 34.3935
#
#
#
# Elastic Compliance Matrix: (Units=1/GPa)
#
#
# Indices 1 2 3 4 5 6 
#
# 1 0.010362 -0.004404 -0.001073 0.002361 0.000000 0.000000
# 2 -0.004404 0.010362 -0.001073 -0.002361 0.000000 0.000000
# 3 -0.001073 -0.001073 0.015111 0.000000 0.000000 0.000000
# 4 0.002361 -0.002361 0.000000 0.048640 0.000000 0.000000
# 5 0.000000 0.000000 0.000000 0.000000 0.048640 0.004721
# 6 0.000000 0.000000 0.000000 0.000000 0.004721 0.029534
#
#
# Mechanical properties :
#
#
# Convention : Reuss Voigt Hill
#
# Bulk Modulus (GPa) = 43.98594 51.25987 47.62291
# Shear Modulus (GPa) = 27.27335 30.74877 29.01106
#
# Velocity S-wave (km/s) = 3.77289 4.00607 3.89123
# Velocity P-wave (km/s) = 6.47588 6.93917 6.71152
#
# Compressibility (1/GPa) = 0.02273454
#
# Stress axis : x y z
#
# Youngs Moduli (GPa) = 96.50243 96.50243 66.17600
#
# Poissons Ratio (x) = 0.42503 0.07102
# Poissons Ratio (y) = 0.42503 0.07102
# Poissons Ratio (z) = 0.10357 0.10357
#
# Static dielectric constant tensor:
#      x y z
#    x 1.662760 0.000000 0.000000 
#    y 0.000000 1.662760 0.000000 
#    z 0.000000 0.000000 1.761600 
# 
# From -- ./inp_files/694.got.cif
#   From: 2010.05.17/outbox.ucp.g08.bks.cvg/sg165_1_cif.got.tgz:694.got - 2010.06.11 15:16:31.
