data_PCOD9579276
_publ_section_title
;
Structure prediction by ZEFSAII (Michael W. Deem and Ramdas Pophale) SiO2 
 PCOD9579276
Probable space group: R -3 M
;
_chemical_formula_sum "Si O2"
_cell_formula_units_Z 144
_cell_length_a 21.151447
_cell_length_b 21.151447
_cell_length_c 21.206290
_cell_angle_alpha 90.000000
_cell_angle_beta 90.000000
_cell_angle_gamma 120.000000
_cell_volume 8216.284988
_symmetry_space_group_name_H-M "R -3 M"
_symmetry_group_IT_number 166
_symmetry_cell_setting 'hexagonal'
loop_
_space_group_symop_operation_xyz
x,y,z
-y,x-y,z
-x+y,-x,z
x-y,-y,-z
-x,-x+y,-z
y,x,-z
-x,-y,-z
y,-x+y,-z
x-y,x,-z
-x+y,y,z
x,x-y,z
-y,-x,z
2/3+x,1/3+y,1/3+z
2/3-y,1/3+x-y,1/3+z
2/3-x+y,1/3-x,1/3+z
2/3+x-y,1/3-y,1/3-z
2/3-x,1/3-x+y,1/3-z
2/3+y,1/3+x,1/3-z
2/3-x,1/3-y,1/3-z
2/3+y,1/3-x+y,1/3-z
2/3+x-y,1/3+x,1/3-z
2/3-x+y,1/3+y,1/3+z
2/3+x,1/3+x-y,1/3+z
2/3-y,1/3-x,1/3+z
1/3+x,2/3+y,2/3+z
1/3-y,2/3+x-y,2/3+z
1/3-x+y,2/3-x,2/3+z
1/3+x-y,2/3-y,2/3-z
1/3-x,2/3-x+y,2/3-z
1/3+y,2/3+x,2/3-z
1/3-x,2/3-y,2/3-z
1/3+y,2/3-x+y,2/3-z
1/3+x-y,2/3+x,2/3-z
1/3-x+y,2/3+y,2/3+z
1/3+x,2/3+x-y,2/3+z
1/3-y,2/3-x,2/3+z
loop_
_atom_site_type_symbol
_atom_site_label
_atom_site_fract_x
_atom_site_fract_y
_atom_site_fract_z
Si Si1 0.881907 0.516136 0.262806
Si Si2 0.369727 0.184864 0.064465
Si Si3 0.299838 0.928601 0.034675
Si Si4 0.109077 0.890924 0.858281
Si Si5 0.854890 0.000313 0.575812
O O1 0.885865 0.442933 0.258466
O O2 0.857165 0.523832 0.333334
O O3 0.822789 0.515183 0.214805
O O4 0.964422 0.584915 0.257166
O O5 0.294641 0.147321 0.103451
O O6 0.432337 0.216169 0.117323
O O7 0.370475 0.124760 0.019312
O O8 0.328737 0.882479 0.071237
O O9 0.361534 0.000000 0.000000
O O10 0.855333 0.927667 0.598438
O O11 0.858068 0.000000 0.500000
O O12 0.926255 0.073746 0.598411
#
# Coordination Sequence:
#
# PCOD9579276 Si02
#       5
#    36  18  36  18  36
#     4  11  18  34  55  81 111 145 193 240 278 324
#     4  11  20  36  56  80 115 154 190 229 281 361
#     4  11  20  35  59  85 116 149 186 235 296 344
#     4  11  22  34  55  84 110 156 200 226 277 349
#     4  10  21  38  61  86 111 145 194 241 286 343
#
# _framework density 17.526168999999999
#
# number of rings (size 3 to 8) (size 9 to 14) (size 15 to 20)
#    0.000    1.250    8.750    0.250    0.000    3.500 
#    0.750    1.875    0.000    0.000    0.000    0.000 
#    0.000    0.000    0.000    0.000    0.000    0.000 
#
# Total GULP energy -267795.653798 kJ/mol
# GULP energy per Si atom -5579.076121 kJ/mol
# Density = 1.748628 g / cm^3
# Si number density = 17.526169 Si / 1000 Ang^3
#
#
#
# Elastic Constant Matrix: (Units=GPa)
#
#
# Indices 1 2 3 4 5 6 
#
# 1 108.6833 57.2600 10.3039 -9.0442 0.0001 0.0000
# 2 57.2600 108.6833 10.3039 9.0442 -0.0001 0.0000
# 3 10.3039 10.3039 24.1051 0.0000 0.0000 0.0000
# 4 -9.0442 9.0442 0.0000 25.2595 0.0000 -0.0001
# 5 0.0001 -0.0001 0.0000 0.0000 25.2595 -9.0442
# 6 0.0000 0.0000 0.0000 -0.0001 -9.0442 25.7117
#
#
#
# Elastic Compliance Matrix: (Units=1/GPa)
#
#
# Indices 1 2 3 4 5 6 
#
# 1 0.014306 -0.007942 -0.002720 0.007966 0.000000 0.000000
# 2 -0.007942 0.014306 -0.002720 -0.007966 0.000000 0.000000
# 3 -0.002720 -0.002720 0.043811 0.000000 0.000000 0.000000
# 4 0.007966 -0.007966 0.000000 0.045294 0.000000 0.000000
# 5 0.000000 0.000000 0.000000 0.000000 0.045294 0.015932
# 6 0.000000 0.000000 0.000000 0.000000 0.015932 0.044497
#
#
# Mechanical properties :
#
#
# Convention : Reuss Voigt Hill
#
# Bulk Modulus (GPa) = 21.90230 44.13417 33.01823
# Shear Modulus (GPa) = 20.04068 26.15305 23.09687
#
# Velocity S-wave (km/s) = 3.38519 3.86713 3.63416
# Velocity P-wave (km/s) = 5.27290 6.72132 6.04068
#
# Compressibility (1/GPa) = 0.04565731
#
# Stress axis : x y z
#
# Youngs Moduli (GPa) = 69.89950 69.89950 22.82547
#
# Poissons Ratio (x) = 0.55516 0.06209
# Poissons Ratio (y) = 0.55516 0.06209
# Poissons Ratio (z) = 0.19015 0.19015
#
# Static dielectric constant tensor:
#      x y z
#    x 1.601460 0.000000 0.000000 
#    y 0.000000 1.601460 0.000000 
#    z 0.000000 0.000000 1.590240 
# 
# From -- ./inp_files/8092.got.cif
#   From: 2010.05.17/outbox.cif.g08.bks.cpg/sg166_5_cif.got.tgz:8092.got - 2010.05.20 11:04:41.
