data_PCOD9579913
_publ_section_title
;
Structure prediction by ZEFSAII (Michael W. Deem and Ramdas Pophale) SiO2 
 PCOD9579913
Probable space group: P 61
;
_chemical_formula_sum "Si O2"
_cell_formula_units_Z 42
_cell_length_a 7.815180
_cell_length_b 7.815180
_cell_length_c 35.840693
_cell_angle_alpha 90.000000
_cell_angle_beta 90.000000
_cell_angle_gamma 120.000000
_cell_volume 1895.767180
_symmetry_space_group_name_H-M "P 61"
_symmetry_group_IT_number 169
_symmetry_cell_setting 'hexagonal'
loop_
_space_group_symop_operation_xyz
x,y,z
x-y,x,1/6+z
-y,x-y,1/3+z
-x,-y,1/2+z
-x+y,-x,2/3+z
y,-x+y,5/6+z
loop_
_atom_site_type_symbol
_atom_site_label
_atom_site_fract_x
_atom_site_fract_y
_atom_site_fract_z
Si Si1 0.606212 0.128204 0.056380
Si Si2 0.107614 0.749440 0.457991
Si Si3 0.381948 0.273032 0.165957
Si Si4 0.096710 0.073547 0.858649
Si Si5 0.104266 0.509705 0.517562
Si Si6 0.283998 0.981133 0.390897
Si Si7 0.339391 0.981654 0.912178
O O1 0.617950 0.019938 0.092773
O O2 0.824520 0.303357 0.045150
O O3 0.482772 0.237556 0.065760
O O4 0.468791 0.975149 0.024428
O O5 0.984772 0.780455 0.490334
O O6 0.205181 0.635732 0.479627
O O7 0.230103 0.955026 0.435253
O O8 0.375422 0.335316 0.123378
O O9 0.153815 0.146528 0.178597
O O10 0.462275 0.118907 0.173220
O O11 0.215139 0.074664 0.895376
O O12 0.923934 0.120729 0.869451
O O13 0.197462 0.391767 0.537903
O O14 0.444551 0.909876 0.392645
#
# Coordination Sequence:
#
# PCOD9579913 Si02
#       7
#     6   6   6   6   6   6   6
#     4  10  22  39  66  97 135 179 237 295 352 438
#     4  12  22  42  67  96 142 185 234 307 356 439
#     4  10  20  41  68  93 138 188 232 296 369 434
#     4  10  23  40  67  99 141 186 240 300 370 445
#     4  10  22  41  63 101 135 178 240 293 361 437
#     4  10  23  41  64  99 138 181 237 298 368 434
#     4  10  20  42  65  95 135 185 240 287 368 447
#
# _framework density 22.154620000000001
#
# number of rings (size 3 to 8) (size 9 to 14) (size 15 to 20)
#    0.000    1.714    1.429    2.571    0.000    1.143 
#    5.143    2.857    3.143    0.000    0.000    0.000 
#    0.000    0.000    0.000    0.000    0.000    0.000 
#
# Total GULP energy -233818.101066 kJ/mol
# GULP energy per Si atom -5567.097644 kJ/mol
# Density = 2.210420 g / cm^3
# Si number density = 22.154620 Si / 1000 Ang^3
#
#
#
# Elastic Constant Matrix: (Units=GPa)
#
#
# Indices 1 2 3 4 5 6 
#
# 1 102.5782 49.4101 66.0686 0.0000 0.0000 0.0000
# 2 49.4101 102.5782 66.0686 0.0000 0.0000 0.0000
# 3 66.0686 66.0686 161.4017 0.0000 0.0000 0.0000
# 4 0.0000 0.0000 0.0000 45.3772 0.0000 0.0000
# 5 0.0000 0.0000 0.0000 0.0000 45.3772 0.0000
# 6 0.0000 0.0000 0.0000 0.0000 0.0000 26.5841
#
#
#
# Elastic Compliance Matrix: (Units=1/GPa)
#
#
# Indices 1 2 3 4 5 6 
#
# 1 0.014511 -0.004297 -0.004181 0.000000 0.000000 0.000000
# 2 -0.004297 0.014511 -0.004181 0.000000 0.000000 0.000000
# 3 -0.004181 -0.004181 0.009619 0.000000 0.000000 0.000000
# 4 0.000000 0.000000 0.000000 0.022037 0.000000 0.000000
# 5 0.000000 0.000000 0.000000 0.000000 0.022037 0.000000
# 6 0.000000 0.000000 0.000000 0.000000 0.000000 0.037617
#
#
# Mechanical properties :
#
#
# Convention : Reuss Voigt Hill
#
# Bulk Modulus (GPa) = 75.05818 81.07251 78.06534
# Shear Modulus (GPa) = 33.31268 35.80176 34.55722
#
# Velocity S-wave (km/s) = 3.88189 4.02431 3.95374
# Velocity P-wave (km/s) = 7.35152 7.63327 7.49372
#
# Compressibility (1/GPa) = 0.01332300
#
# Stress axis : x y z
#
# Youngs Moduli (GPa) = 68.91113 68.91113 103.96234
#
# Poissons Ratio (x) = 0.29610 0.43470
# Poissons Ratio (y) = 0.29610 0.43470
# Poissons Ratio (z) = 0.28814 0.28814
#
# Static dielectric constant tensor:
#      x y z
#    x 1.889200 0.000000 0.000000 
#    y 0.000000 1.889200 0.000000 
#    z 0.000000 0.000000 1.806230 
# 
# From -- ./inp_files/1838.got.cif
#   From: 2010.05.17/outbox.cif.g08.bks.cpg/sg169_cif.got.tgz:1838.got - 2010.05.20 11:12:54.
