data_PCOD9579618
_publ_section_title
;
Structure prediction by ZEFSAII (Michael W. Deem and Ramdas Pophale) SiO2 
 PCOD9579618
Probable space group: R -3 C 
;
_chemical_formula_sum "Si O2"
_cell_formula_units_Z 126
_cell_length_a 20.393583
_cell_length_b 20.393583
_cell_length_c 14.851618
_cell_angle_alpha 90.000000
_cell_angle_beta 90.000000
_cell_angle_gamma 120.000000
_cell_volume 5349.232461
_symmetry_space_group_name_H-M "R -3 C "
_symmetry_group_IT_number 167
_symmetry_cell_setting 'hexagonal'
loop_
_space_group_symop_operation_xyz
x,y,z
-y,x-y,z
-x+y,-x,z
x-y,-y,1/2-z
-x,-x+y,1/2-z
y,x,1/2-z
-x,-y,-z
y,-x+y,-z
x-y,x,-z
-x+y,y,1/2+z
x,x-y,1/2+z
-y,-x,1/2+z
2/3+x,1/3+y,1/3+z
2/3-y,1/3+x-y,1/3+z
2/3-x+y,1/3-x,1/3+z
2/3+x-y,1/3-y,5/6-z
2/3-x,1/3-x+y,5/6-z
2/3+y,1/3+x,5/6-z
2/3-x,1/3-y,1/3-z
2/3+y,1/3-x+y,1/3-z
2/3+x-y,1/3+x,1/3-z
2/3-x+y,1/3+y,5/6+z
2/3+x,1/3+x-y,5/6+z
2/3-y,1/3-x,5/6+z
1/3+x,2/3+y,2/3+z
1/3-y,2/3+x-y,2/3+z
1/3-x+y,2/3-x,2/3+z
1/3+x-y,2/3-y,1/6-z
1/3-x,2/3-x+y,1/6-z
1/3+y,2/3+x,1/6-z
1/3-x,2/3-y,2/3-z
1/3+y,2/3-x+y,2/3-z
1/3+x-y,2/3+x,2/3-z
1/3-x+y,2/3+y,1/6+z
1/3+x,2/3+x-y,1/6+z
1/3-y,2/3-x,1/6+z
loop_
_atom_site_type_symbol
_atom_site_label
_atom_site_fract_x
_atom_site_fract_y
_atom_site_fract_z
Si Si1 0.487388 0.793205 0.139100
Si Si2 0.276453 0.306859 0.972130
Si Si3 0.608001 0.666667 0.916667
Si Si4 0.863784 0.134172 0.836506
O O1 0.468387 0.721484 0.202824
O O2 0.555593 0.873364 0.174870
O O3 0.524206 0.777614 0.050870
O O4 0.305024 0.333334 0.083334
O O5 0.373356 0.337864 0.971475
O O6 0.246751 0.365611 0.956629
O O7 0.527386 0.590895 0.901476
O O8 0.819007 0.152340 0.916667
#
# Coordination Sequence:
#
# PCOD9579618 Si02
#       4
#    36  36  18  36
#     4  11  22  43  68  96 132 181 232 272 333 415
#     4  11  22  39  66  99 134 169 225 291 345 396
#     4  12  20  40  66  96 138 182 224 286 342 400
#     4  10  23  40  63  97 138 178 225 280 343 404
#
# _framework density 23.554781999999999
#
# number of rings (size 3 to 8) (size 9 to 14) (size 15 to 20)
#    0.000    1.143    4.286    6.286    0.000    1.143 
#    5.143    0.000    0.000    0.000    0.000    0.000 
#    0.000    0.000    0.000    0.000    0.000    0.000 
#
# Total GULP energy -234335.676746 kJ/mol
# GULP energy per Si atom -5579.420875 kJ/mol
# Density = 2.350117 g / cm^3
# Si number density = 23.554782 Si / 1000 Ang^3
#
#
#
# Elastic Constant Matrix: (Units=GPa)
#
#
# Indices 1 2 3 4 5 6 
#
# 1 139.3965 76.8585 48.2785 8.2690 0.0005 0.0000
# 2 76.8585 139.3965 48.2785 -8.2690 -0.0005 0.0000
# 3 48.2785 48.2785 140.3928 0.0000 0.0000 0.0000
# 4 8.2690 -8.2690 0.0000 55.5940 0.0000 -0.0005
# 5 0.0005 -0.0005 0.0000 0.0000 55.5940 8.2690
# 6 0.0000 0.0000 0.0000 -0.0005 8.2690 31.2690
#
#
#
# Elastic Compliance Matrix: (Units=1/GPa)
#
#
# Indices 1 2 3 4 5 6 
#
# 1 0.011054 -0.005591 -0.001879 -0.002476 0.000000 0.000000
# 2 -0.005591 0.011054 -0.001879 0.002476 0.000000 0.000000
# 3 -0.001879 -0.001879 0.008415 0.000000 0.000000 0.000000
# 4 -0.002476 0.002476 0.000000 0.018724 0.000000 0.000000
# 5 0.000000 0.000000 0.000000 0.000000 0.018724 -0.004952
# 6 0.000000 0.000000 0.000000 0.000000 -0.004952 0.033290
#
#
# Mechanical properties :
#
#
# Convention : Reuss Voigt Hill
#
# Bulk Modulus (GPa) = 84.55668 85.11300 84.83484
# Shear Modulus (GPa) = 40.35528 44.87608 42.61568
#
# Velocity S-wave (km/s) = 4.14364 4.36957 4.25810
# Velocity P-wave (km/s) = 7.67260 7.85303 7.76334
#
# Compressibility (1/GPa) = 0.01182639
#
# Stress axis : x y z
#
# Youngs Moduli (GPa) = 90.46522 90.46522 118.83666
#
# Poissons Ratio (x) = 0.50579 0.22325
# Poissons Ratio (y) = 0.50579 0.22325
# Poissons Ratio (z) = 0.16995 0.16995
#
# Static dielectric constant tensor:
#      x y z
#    x 1.862430 0.000000 0.000000 
#    y 0.000000 1.862430 0.000000 
#    z 0.000000 0.000000 2.007730 
# 
# From -- ./inp_files/4247.got.cif
#   From: 2010.05.17/outbox.cif.g08.bks.cpg/sg167_3_cif.got.tgz:4247.got - 2010.05.20 11:09:15.
