data_PCOD9579408
_publ_section_title
;
Structure prediction by ZEFSAII (Michael W. Deem and Ramdas Pophale) SiO2 
 PCOD9579408
Probable space group: R -3 C 
;
_chemical_formula_sum "Si O2"
_cell_formula_units_Z 216
_cell_length_a 25.937630
_cell_length_b 25.937630
_cell_length_c 24.530265
_cell_angle_alpha 90.000000
_cell_angle_beta 90.000000
_cell_angle_gamma 120.000000
_cell_volume 14292.014664
_symmetry_space_group_name_H-M "R -3 C "
_symmetry_group_IT_number 167
_symmetry_cell_setting 'hexagonal'
loop_
_space_group_symop_operation_xyz
x,y,z
-y,x-y,z
-x+y,-x,z
x-y,-y,1/2-z
-x,-x+y,1/2-z
y,x,1/2-z
-x,-y,-z
y,-x+y,-z
x-y,x,-z
-x+y,y,1/2+z
x,x-y,1/2+z
-y,-x,1/2+z
2/3+x,1/3+y,1/3+z
2/3-y,1/3+x-y,1/3+z
2/3-x+y,1/3-x,1/3+z
2/3+x-y,1/3-y,5/6-z
2/3-x,1/3-x+y,5/6-z
2/3+y,1/3+x,5/6-z
2/3-x,1/3-y,1/3-z
2/3+y,1/3-x+y,1/3-z
2/3+x-y,1/3+x,1/3-z
2/3-x+y,1/3+y,5/6+z
2/3+x,1/3+x-y,5/6+z
2/3-y,1/3-x,5/6+z
1/3+x,2/3+y,2/3+z
1/3-y,2/3+x-y,2/3+z
1/3-x+y,2/3-x,2/3+z
1/3+x-y,2/3-y,1/6-z
1/3-x,2/3-x+y,1/6-z
1/3+y,2/3+x,1/6-z
1/3-x,2/3-y,2/3-z
1/3+y,2/3-x+y,2/3-z
1/3+x-y,2/3+x,2/3-z
1/3-x+y,2/3+y,1/6+z
1/3+x,2/3+x-y,1/6+z
1/3-y,2/3-x,1/6+z
loop_
_atom_site_type_symbol
_atom_site_label
_atom_site_fract_x
_atom_site_fract_y
_atom_site_fract_z
Si Si1 0.395860 0.915697 0.069344
Si Si2 0.706575 0.638354 0.633231
Si Si3 0.481178 0.077577 0.903795
Si Si4 0.000438 0.880752 0.436050
Si Si5 0.629311 0.694091 0.135130
Si Si6 0.217759 0.668013 0.598914
O O1 0.460039 0.927864 0.088789
O O2 0.366029 0.940997 0.111028
O O3 0.351582 0.844728 0.070879
O O4 0.395915 0.941130 0.009815
O O5 0.666667 0.596453 0.583334
O O6 0.762125 0.697240 0.608894
O O7 0.660662 0.652542 0.665009
O O8 0.502784 0.146617 0.916621
O O9 0.453817 0.061980 0.842801
O O10 0.936720 0.869871 0.417646
O O11 0.999747 0.876676 0.502069
O O12 0.049897 0.948323 0.420950
O O13 0.666667 0.733915 0.083334
#
# Coordination Sequence:
#
# PCOD9579408 Si02
#       6
#    36  36  36  36  36  36
#     4  10  18  30  50  69  92 122 156 195 234 282
#     4   9  19  34  47  63  89 125 163 197 234 269
#     4  10  18  30  48  69  91 121 157 192 231 283
#     4   9  16  26  43  68 101 124 146 177 224 289
#     4   9  18  32  46  63  90 119 150 194 239 279
#     4   9  16  26  43  69  98 126 145 176 229 281
#
# _framework density 15.113334999999999
#
# number of rings (size 3 to 8) (size 9 to 14) (size 15 to 20)
#    0.000    2.667    1.667    0.833    0.000    1.333 
#    0.000    7.500    0.000    0.000    0.000    3.500 
#    0.000    0.000    0.000    0.000    0.000    0.000 
#
# Total GULP energy -400822.380301 kJ/mol
# GULP energy per Si atom -5566.977504 kJ/mol
# Density = 1.507894 g / cm^3
# Si number density = 15.113335 Si / 1000 Ang^3
#
#
#
# Elastic Constant Matrix: (Units=GPa)
#
#
# Indices 1 2 3 4 5 6 
#
# 1 90.2933 56.8804 43.6707 0.9649 0.0000 0.0000
# 2 56.8804 90.2933 43.6707 -0.9649 0.0000 0.0000
# 3 43.6707 43.6707 77.4643 0.0000 0.0000 0.0000
# 4 0.9649 -0.9649 0.0000 16.7644 0.0000 0.0000
# 5 0.0000 0.0000 0.0000 0.0000 16.7644 0.9649
# 6 0.0000 0.0000 0.0000 0.0000 0.9649 16.7064
#
#
#
# Elastic Compliance Matrix: (Units=1/GPa)
#
#
# Indices 1 2 3 4 5 6 
#
# 1 0.020120 -0.009909 -0.005756 -0.001728 0.000000 0.000000
# 2 -0.009909 0.020120 -0.005756 0.001728 0.000000 0.000000
# 3 -0.005756 -0.005756 0.019400 0.000000 0.000000 0.000000
# 4 -0.001728 0.001728 0.000000 0.059849 0.000000 0.000000
# 5 0.000000 0.000000 0.000000 0.000000 0.059849 -0.003457
# 6 0.000000 0.000000 0.000000 0.000000 -0.003457 0.060057
#
#
# Mechanical properties :
#
#
# Convention : Reuss Voigt Hill
#
# Bulk Modulus (GPa) = 59.53914 60.72161 60.13037
# Shear Modulus (GPa) = 17.37100 17.63563 17.50332
#
# Velocity S-wave (km/s) = 3.39393 3.41969 3.40683
# Velocity P-wave (km/s) = 7.40534 7.47376 7.43963
#
# Compressibility (1/GPa) = 0.01679567
#
# Stress axis : x y z
#
# Youngs Moduli (GPa) = 49.70268 49.70268 51.54749
#
# Poissons Ratio (x) = 0.49249 0.29673
# Poissons Ratio (y) = 0.49249 0.29673
# Poissons Ratio (z) = 0.28611 0.28611
#
# Static dielectric constant tensor:
#      x y z
#    x 1.500870 0.000000 0.000000 
#    y 0.000000 1.500870 0.000000 
#    z 0.000000 0.000000 1.498610 
# 
# From -- ./inp_files/5509.got.cif
#   From: 2010.05.17/outbox.cif.g08.bks.cpg/sg167_3_cif.got.tgz:5509.got - 2010.05.20 11:09:15.
