data_PCOD9579198
_publ_section_title
;
Structure prediction by ZEFSAII (Michael W. Deem and Ramdas Pophale) SiO2 
 PCOD9579198
Probable space group: R -3 M
;
_chemical_formula_sum "Si O2"
_cell_formula_units_Z 216
_cell_length_a 23.229586
_cell_length_b 23.229586
_cell_length_c 27.865424
_cell_angle_alpha 90.000000
_cell_angle_beta 90.000000
_cell_angle_gamma 120.000000
_cell_volume 13022.046056
_symmetry_space_group_name_H-M "R -3 M"
_symmetry_group_IT_number 166
_symmetry_cell_setting 'hexagonal'
loop_
_space_group_symop_operation_xyz
x,y,z
-y,x-y,z
-x+y,-x,z
x-y,-y,-z
-x,-x+y,-z
y,x,-z
-x,-y,-z
y,-x+y,-z
x-y,x,-z
-x+y,y,z
x,x-y,z
-y,-x,z
2/3+x,1/3+y,1/3+z
2/3-y,1/3+x-y,1/3+z
2/3-x+y,1/3-x,1/3+z
2/3+x-y,1/3-y,1/3-z
2/3-x,1/3-x+y,1/3-z
2/3+y,1/3+x,1/3-z
2/3-x,1/3-y,1/3-z
2/3+y,1/3-x+y,1/3-z
2/3+x-y,1/3+x,1/3-z
2/3-x+y,1/3+y,1/3+z
2/3+x,1/3+x-y,1/3+z
2/3-y,1/3-x,1/3+z
1/3+x,2/3+y,2/3+z
1/3-y,2/3+x-y,2/3+z
1/3-x+y,2/3-x,2/3+z
1/3+x-y,2/3-y,2/3-z
1/3-x,2/3-x+y,2/3-z
1/3+y,2/3+x,2/3-z
1/3-x,2/3-y,2/3-z
1/3+y,2/3-x+y,2/3-z
1/3+x-y,2/3+x,2/3-z
1/3-x+y,2/3+y,2/3+z
1/3+x,2/3+x-y,2/3+z
1/3-y,2/3-x,2/3+z
loop_
_atom_site_type_symbol
_atom_site_label
_atom_site_fract_x
_atom_site_fract_y
_atom_site_fract_z
Si Si1 0.476762 0.390761 0.198976
Si Si2 0.239379 0.053661 0.300597
Si Si3 0.056556 0.592172 0.148133
Si Si4 0.802278 0.468449 0.118613
Si Si5 0.571229 0.621683 0.040275
Si Si6 0.937946 0.623986 0.281627
O O1 0.541945 0.458056 0.217998
O O2 0.434887 0.416821 0.168292
O O3 0.503366 0.354434 0.164063
O O4 0.428996 0.340156 0.239281
O O5 0.236957 0.118479 0.315176
O O6 0.188348 0.018259 0.257258
O O7 0.314751 0.076134 0.283656
O O8 0.218928 0.002408 0.344436
O O9 0.077000 0.538500 0.164727
O O10 0.103315 0.666667 0.166667
O O11 0.055866 0.592403 0.090255
O O12 0.730707 0.461413 0.127771
O O13 0.795188 0.397594 0.105983
O O14 0.648470 0.669895 0.054366
O O15 0.571813 0.571813 0.000000
O O16 0.921578 0.588244 0.333334
#
# Coordination Sequence:
#
# PCOD9579198 Si02
#       6
#    36  36  36  36  36  36
#     4  10  20  34  55  78 106 140 175 215 256 312
#     4   9  19  32  51  77 102 137 174 213 264 313
#     4  11  22  35  54  80 108 139 177 217 261 313
#     4  10  21  36  53  75 102 137 178 220 263 306
#     4   9  18  32  50  73 105 137 167 211 260 311
#     4   9  18  32  50  74 112 137 165 209 257 317
#
# _framework density 16.587254999999999
#
# number of rings (size 3 to 8) (size 9 to 14) (size 15 to 20)
#    0.000    2.667    1.667    2.167    0.000    5.000 
#    0.000    1.667    0.000    0.667    0.000    1.167 
#    0.000    3.333    0.000    0.000    0.000    0.000 
#
# Total GULP energy -401159.573201 kJ/mol
# GULP energy per Si atom -5571.660739 kJ/mol
# Density = 1.654950 g / cm^3
# Si number density = 16.587255 Si / 1000 Ang^3
#
#
#
# Elastic Constant Matrix: (Units=GPa)
#
#
# Indices 1 2 3 4 5 6 
#
# 1 78.6176 41.1200 42.6528 -7.7399 -0.0001 0.0000
# 2 41.1200 78.6176 42.6528 7.7399 0.0001 0.0000
# 3 42.6528 42.6528 80.1837 0.0000 0.0000 0.0000
# 4 -7.7399 7.7399 0.0000 16.5509 0.0000 0.0001
# 5 -0.0001 0.0001 0.0000 0.0000 16.5509 -7.7399
# 6 0.0000 0.0000 0.0000 0.0001 -7.7399 18.7488
#
#
#
# Elastic Compliance Matrix: (Units=1/GPa)
#
#
# Indices 1 2 3 4 5 6 
#
# 1 0.023248 -0.009800 -0.007154 0.015455 0.000000 0.000000
# 2 -0.009800 0.023248 -0.007154 -0.015455 0.000000 0.000000
# 3 -0.007154 -0.007154 0.020082 0.000000 0.000000 0.000000
# 4 0.015455 -0.015455 0.000000 0.074874 0.000000 0.000000
# 5 0.000000 0.000000 0.000000 0.000000 0.074874 0.030910
# 6 0.000000 0.000000 0.000000 0.000000 0.030910 0.066097
#
#
# Mechanical properties :
#
#
# Convention : Reuss Voigt Hill
#
# Bulk Modulus (GPa) = 54.45498 54.47447 54.46472
# Shear Modulus (GPa) = 14.84738 17.76969 16.30853
#
# Velocity S-wave (km/s) = 2.99508 3.27660 3.13900
# Velocity P-wave (km/s) = 6.69786 6.87221 6.78560
#
# Compressibility (1/GPa) = 0.01836379
#
# Stress axis : x y z
#
# Youngs Moduli (GPa) = 43.01394 43.01394 49.79618
#
# Poissons Ratio (x) = 0.42155 0.35622
# Poissons Ratio (y) = 0.42155 0.35622
# Poissons Ratio (z) = 0.30770 0.30770
#
# Static dielectric constant tensor:
#      x y z
#    x 1.560000 0.000000 0.000000 
#    y 0.000000 1.560000 0.000000 
#    z 0.000000 0.000000 1.572090 
# 
# From -- ./inp_files/9713.got.cif
#   From: 2010.05.17/outbox.cif.g08.bks.cpg/sg166_5_cif.got.tgz:9713.got - 2010.05.20 11:04:41.
