data_PCOD9579010
_publ_section_title
;
Structure prediction by ZEFSAII (Michael W. Deem and Ramdas Pophale) SiO2 
 PCOD9579010
Probable space group: P -3 C 1
;
_chemical_formula_sum "Si O2"
_cell_formula_units_Z 68
_cell_length_a 12.000000
_cell_length_b 12.000000
_cell_length_c 30.000000
_cell_angle_alpha 90.000000
_cell_angle_beta 90.000000
_cell_angle_gamma 120.000000
_cell_volume 3741.229744
_symmetry_space_group_name_H-M "P -3 C 1"
_symmetry_group_IT_number 165
_symmetry_cell_setting 'hexagonal'
loop_
_space_group_symop_operation_xyz
x,y,z
-y,x-y,z
-x+y,-x,z
x-y,-y,1/2-z
-x,-x+y,1/2-z
y,x,1/2-z
-x,-y,-z
y,-x+y,-z
x-y,x,-z
-x+y,y,1/2+z
x,x-y,1/2+z
-y,-x,1/2+z
loop_
_atom_site_type_symbol
_atom_site_label
_atom_site_fract_x
_atom_site_fract_y
_atom_site_fract_z
Si Si1 0.393053 0.063164 0.199259
Si Si2 0.666668 0.333334 0.999459
Si Si3 0.068213 0.417727 0.008986
Si Si4 0.668823 0.121337 0.163919
Si Si5 0.013104 0.270790 0.101839
Si Si6 0.256438 0.986785 0.912722
Si Si7 0.333334 0.666668 0.894849
O O1 0.537444 0.085655 0.190218
O O2 0.401363 0.203869 0.195286
O O3 0.346152 0.000000 0.250000
O O4 0.313947 0.991367 0.152613
O O5 0.779128 0.476731 0.986056
O O6 0.666668 0.333334 0.052915
O O7 0.037059 0.330216 0.963438
O O8 0.016074 0.350410 0.057275
O O9 0.000000 0.500000 0.000000
O O10 0.659052 0.011838 0.130361
O O11 0.692805 0.227482 0.126317
O O12 0.136855 0.256027 0.092354
O O13 0.883873 0.133715 0.097564
#
# Coordination Sequence:
#
# PCOD9579010 Si02
#       7
#    12   4  12  12  12  12   4
#     4  10  22  40  62  90 118 152 204 252 299 357
#     4  12  21  36  60  88 125 160 210 240 291 367
#     4  12  24  37  59  89 121 157 195 247 302 359
#     4   9  19  36  63  86 115 157 200 241 295 357
#     4  11  24  39  59  87 119 157 200 244 298 361
#     4  11  21  39  59  85 120 156 194 239 296 363
#     4   9  15  33  60  88 104 154 210 240 273 358
#
# _framework density 18.175841999999999
#
# number of rings (size 3 to 8) (size 9 to 14) (size 15 to 20)
#    0.000    1.412    1.765    4.941    2.471    1.412 
#    0.000    4.412    0.000    0.706    0.000    0.000 
#    0.000    0.000    0.000    0.000    0.000    0.000 
#
# Total GULP energy -378581.524910 kJ/mol
# GULP energy per Si atom -5567.375366 kJ/mol
# Density = 1.813447 g / cm^3
# Si number density = 18.175842 Si / 1000 Ang^3
#
#
#
# Elastic Constant Matrix: (Units=GPa)
#
#
# Indices 1 2 3 4 5 6 
#
# 1 87.9909 23.3168 43.5634 2.0314 0.0000 0.0000
# 2 23.3168 87.9912 43.5632 -2.0316 0.0000 0.0000
# 3 43.5634 43.5632 165.0155 -0.0001 0.0000 0.0000
# 4 2.0314 -2.0316 -0.0001 34.9531 0.0000 0.0000
# 5 0.0000 0.0000 0.0000 0.0000 34.9532 2.0314
# 6 0.0000 0.0000 0.0000 0.0000 2.0314 32.3372
#
#
#
# Elastic Compliance Matrix: (Units=1/GPa)
#
#
# Indices 1 2 3 4 5 6 
#
# 1 0.013422 -0.002097 -0.002990 -0.000902 0.000000 0.000000
# 2 -0.002097 0.013421 -0.002990 0.000902 0.000000 0.000000
# 3 -0.002990 -0.002990 0.007638 0.000000 0.000000 0.000000
# 4 -0.000902 0.000902 0.000000 0.028715 0.000000 0.000000
# 5 0.000000 0.000000 0.000000 0.000000 0.028715 -0.001804
# 6 0.000000 0.000000 0.000000 0.000000 -0.001804 0.031037
#
#
# Mechanical properties :
#
#
# Convention : Reuss Voigt Hill
#
# Bulk Modulus (GPa) = 54.55927 62.43161 58.49544
# Shear Modulus (GPa) = 34.43282 35.81897 35.12590
#
# Velocity S-wave (km/s) = 4.35722 4.44406 4.40086
# Velocity P-wave (km/s) = 7.44288 7.79462 7.62078
#
# Compressibility (1/GPa) = 0.01832869
#
# Stress axis : x y z
#
# Youngs Moduli (GPa) = 74.50730 74.50772 130.91614
#
# Poissons Ratio (x) = 0.15627 0.39138
# Poissons Ratio (y) = 0.15627 0.39137
# Poissons Ratio (z) = 0.22274 0.22274
#
# Static dielectric constant tensor:
#      x y z
#    x 1.705320 0.000000 0.000000 
#    y 0.000000 1.705320 0.000000 
#    z 0.000000 0.000000 1.630790 
# 
# From -- ./inp_files/3321.got.cif
#   From: 2010.05.17/outbox.ucp.g08.bks.cvg/sg165_2_cif.got.tgz:3321.got - 2010.06.11 15:16:31.
