data_PCOD9579980
_publ_section_title
;
Structure prediction by ZEFSAII (Michael W. Deem and Ramdas Pophale) SiO2 
 PCOD9579980
Probable space group: P 61
;
_chemical_formula_sum "Si O2"
_cell_formula_units_Z 48
_cell_length_a 14.918096
_cell_length_b 14.918096
_cell_length_c 12.010403
_cell_angle_alpha 90.000000
_cell_angle_beta 90.000000
_cell_angle_gamma 120.000000
_cell_volume 2314.808172
_symmetry_space_group_name_H-M "P 61"
_symmetry_group_IT_number 169
_symmetry_cell_setting 'hexagonal'
loop_
_space_group_symop_operation_xyz
x,y,z
x-y,x,1/6+z
-y,x-y,1/3+z
-x,-y,1/2+z
-x+y,-x,2/3+z
y,-x+y,5/6+z
loop_
_atom_site_type_symbol
_atom_site_label
_atom_site_fract_x
_atom_site_fract_y
_atom_site_fract_z
Si Si1 0.675360 0.263006 0.654430
Si Si2 0.264337 0.400644 0.959232
Si Si3 0.393238 0.450820 0.185115
Si Si4 0.917874 0.647476 0.017037
Si Si5 0.352334 0.774509 0.648575
Si Si6 0.369636 0.475022 0.721596
Si Si7 0.761732 0.712522 0.061363
Si Si8 0.903490 0.083188 0.061369
O O1 0.705263 0.176213 0.680249
O O2 0.624039 0.287351 0.756769
O O3 0.762956 0.370394 0.601998
O O4 0.584630 0.209888 0.561583
O O5 0.337050 0.426791 0.066736
O O6 0.195873 0.458164 0.976412
O O7 0.335919 0.434872 0.848207
O O8 0.182254 0.281505 0.940791
O O9 0.346042 0.345886 0.258615
O O10 0.387220 0.544354 0.244841
O O11 0.516631 0.497315 0.183475
O O12 0.862065 0.716157 0.005080
O O13 0.977638 0.681284 0.134263
O O14 0.288522 0.387973 0.640565
O O15 0.788825 0.809716 0.140021
O O16 0.888032 0.007510 0.161094
#
# Coordination Sequence:
#
# PCOD9579980 Si02
#       8
#     6   6   6   6   6   6   6   6
#     4  10  22  39  61 105 144 187 231 278 353 441
#     4  11  24  47  72 105 148 188 241 297 364 446
#     4  11  25  43  66 109 146 187 233 295 369 436
#     4  11  25  43  68 104 143 188 238 307 371 423
#     4  11  21  41  69 101 146 188 229 281 355 440
#     4  10  23  40  71 101 136 193 234 287 351 433
#     4  12  22  45  75  97 136 182 253 301 356 435
#     4  12  26  52  76 104 129 185 253 316 369 428
#
# _framework density 20.736059000000001
#
# number of rings (size 3 to 8) (size 9 to 14) (size 15 to 20)
#    0.000    1.000    3.750    2.250    5.250    2.000 
#   11.250    0.000    0.000    0.000    0.000    0.000 
#    0.000    0.000    0.000    0.000    0.000    0.000 
#
# Total GULP energy -268032.416688 kJ/mol
# GULP energy per Si atom -5584.008681 kJ/mol
# Density = 2.068886 g / cm^3
# Si number density = 20.736059 Si / 1000 Ang^3
#
#
#
# Elastic Constant Matrix: (Units=GPa)
#
#
# Indices 1 2 3 4 5 6 
#
# 1 74.2624 51.9943 51.8320 0.0000 0.0000 0.0000
# 2 51.9943 74.2624 51.8320 0.0000 0.0000 0.0000
# 3 51.8320 51.8320 95.1294 0.0000 0.0000 0.0000
# 4 0.0000 0.0000 0.0000 33.3255 0.0000 0.0000
# 5 0.0000 0.0000 0.0000 0.0000 33.3255 0.0000
# 6 0.0000 0.0000 0.0000 0.0000 0.0000 11.1341
#
#
#
# Elastic Compliance Matrix: (Units=1/GPa)
#
#
# Indices 1 2 3 4 5 6 
#
# 1 0.029620 -0.015288 -0.007809 0.000000 0.000000 0.000000
# 2 -0.015288 0.029620 -0.007809 0.000000 0.000000 0.000000
# 3 -0.007809 -0.007809 0.019021 0.000000 0.000000 0.000000
# 4 0.000000 0.000000 0.000000 0.030007 0.000000 0.000000
# 5 0.000000 0.000000 0.000000 0.000000 0.030007 0.000000
# 6 0.000000 0.000000 0.000000 0.000000 0.000000 0.089814
#
#
# Mechanical properties :
#
#
# Convention : Reuss Voigt Hill
#
# Bulk Modulus (GPa) = 60.79094 61.66341 61.22717
# Shear Modulus (GPa) = 16.92718 21.42340 19.17529
#
# Velocity S-wave (km/s) = 2.86022 3.21775 3.04424
# Velocity P-wave (km/s) = 6.34728 6.60356 6.47669
#
# Compressibility (1/GPa) = 0.01644982
#
# Stress axis : x y z
#
# Youngs Moduli (GPa) = 33.76151 33.76151 52.57243
#
# Poissons Ratio (x) = 0.51614 0.41053
# Poissons Ratio (y) = 0.51614 0.41053
# Poissons Ratio (z) = 0.26364 0.26364
#
# Static dielectric constant tensor:
#      x y z
#    x 1.781690 0.000000 0.000000 
#    y 0.000000 1.781690 0.000000 
#    z 0.000000 0.000000 1.730730 
# 
# From -- ./inp_files/1059.got.cif
#   From: 2010.05.17/outbox.cif.g08.bks.cpg/sg169_cif.got.tgz:1059.got - 2010.05.20 11:12:54.
