data_PCOD9579020
_publ_section_title
;
Structure prediction by ZEFSAII (Michael W. Deem and Ramdas Pophale) SiO2 
 PCOD9579020
Probable space group: R -3 M
;
_chemical_formula_sum "Si O2"
_cell_formula_units_Z 144
_cell_length_a 19.791411
_cell_length_b 19.791411
_cell_length_c 17.298741
_cell_angle_alpha 90.000000
_cell_angle_beta 90.000000
_cell_angle_gamma 120.000000
_cell_volume 5868.115367
_symmetry_space_group_name_H-M "R -3 M"
_symmetry_group_IT_number 166
_symmetry_cell_setting 'hexagonal'
loop_
_space_group_symop_operation_xyz
x,y,z
-y,x-y,z
-x+y,-x,z
x-y,-y,-z
-x,-x+y,-z
y,x,-z
-x,-y,-z
y,-x+y,-z
x-y,x,-z
-x+y,y,z
x,x-y,z
-y,-x,z
2/3+x,1/3+y,1/3+z
2/3-y,1/3+x-y,1/3+z
2/3-x+y,1/3-x,1/3+z
2/3+x-y,1/3-y,1/3-z
2/3-x,1/3-x+y,1/3-z
2/3+y,1/3+x,1/3-z
2/3-x,1/3-y,1/3-z
2/3+y,1/3-x+y,1/3-z
2/3+x-y,1/3+x,1/3-z
2/3-x+y,1/3+y,1/3+z
2/3+x,1/3+x-y,1/3+z
2/3-y,1/3-x,1/3+z
1/3+x,2/3+y,2/3+z
1/3-y,2/3+x-y,2/3+z
1/3-x+y,2/3-x,2/3+z
1/3+x-y,2/3-y,2/3-z
1/3-x,2/3-x+y,2/3-z
1/3+y,2/3+x,2/3-z
1/3-x,2/3-y,2/3-z
1/3+y,2/3-x+y,2/3-z
1/3+x-y,2/3+x,2/3-z
1/3-x+y,2/3+y,2/3+z
1/3+x,2/3+x-y,2/3+z
1/3-y,2/3-x,2/3+z
loop_
_atom_site_type_symbol
_atom_site_label
_atom_site_fract_x
_atom_site_fract_y
_atom_site_fract_z
Si Si1 0.760945 0.239056 0.749224
Si Si2 0.574437 0.425564 0.083141
Si Si3 0.335394 0.359607 0.748895
Si Si4 0.872464 0.127537 0.920889
Si Si5 0.518424 0.759212 0.918992
Si Si6 0.201159 0.798842 0.752549
Si Si7 0.239384 0.478767 0.085000
O O1 0.781961 0.218040 0.665768
O O2 0.782689 0.217312 0.832305
O O3 0.666773 0.198963 0.751212
O O4 0.556733 0.443268 0.168374
O O5 0.533910 0.333118 0.079628
O O6 0.333334 0.318901 0.666667
O O7 0.345942 0.333334 0.833334
O O8 0.408204 0.446246 0.742664
O O9 0.253897 0.360792 0.751548
O O10 0.893457 0.106544 0.006416
O O11 0.558226 0.779113 0.836019
O O12 0.563661 0.781831 0.001641
#
# Coordination Sequence:
#
# PCOD9579020 Si02
#       7
#    18  18  36  18  18  18  18
#     4   8  13  20  32  50  83 136 193 247 291 331
#     4  10  17  26  41  68 112 158 196 244 301 355
#     4  10  21  39  64  91 122 160 204 252 303 362
#     4  10  20  34  56  87 119 154 198 248 305 358
#     4  10  17  25  42  70 109 156 202 245 294 355
#     4  10  19  33  57  87 120 160 200 244 293 353
#     4   8  13  20  31  52  83 132 197 250 285 330
#
# _framework density 24.539394999999999
#
# number of rings (size 3 to 8) (size 9 to 14) (size 15 to 20)
#    0.000    2.500    2.500    0.875    0.000    3.000 
#    0.000    0.625    0.000    4.500    0.000    0.000 
#    0.000    0.000    0.000    0.375    0.000    0.000 
#
# Total GULP energy -267340.622735 kJ/mol
# GULP energy per Si atom -5569.596307 kJ/mol
# Density = 2.448354 g / cm^3
# Si number density = 24.539395 Si / 1000 Ang^3
#
#
#
# Elastic Constant Matrix: (Units=GPa)
#
#
# Indices 1 2 3 4 5 6 
#
# 1 68.6304 19.0613 40.7291 4.9526 -0.0001 0.0000
# 2 19.0613 68.6304 40.7291 -4.9526 0.0001 0.0000
# 3 40.7291 40.7291 390.9513 0.0000 0.0000 0.0000
# 4 4.9526 -4.9526 0.0000 35.1836 0.0000 0.0001
# 5 -0.0001 0.0001 0.0000 0.0000 35.1836 4.9526
# 6 0.0000 0.0000 0.0000 0.0001 4.9526 24.7845
#
#
#
# Elastic Compliance Matrix: (Units=1/GPa)
#
#
# Indices 1 2 3 4 5 6 
#
# 1 0.016692 -0.004066 -0.001315 -0.002922 0.000000 0.000000
# 2 -0.004066 0.016692 -0.001315 0.002922 0.000000 0.000000
# 3 -0.001315 -0.001315 0.002832 0.000000 0.000000 0.000000
# 4 -0.002922 0.002922 0.000000 0.029245 0.000000 0.000000
# 5 0.000000 0.000000 0.000000 0.000000 0.029245 -0.005844
# 6 0.000000 0.000000 0.000000 0.000000 -0.005844 0.041515
#
#
# Mechanical properties :
#
#
# Convention : Reuss Voigt Hill
#
# Bulk Modulus (GPa) = 43.81834 81.02791 62.42312
# Shear Modulus (GPa) = 31.80233 47.54318 39.67276
#
# Velocity S-wave (km/s) = 3.60386 4.40639 4.02518
# Velocity P-wave (km/s) = 5.93399 7.67982 6.86265
#
# Compressibility (1/GPa) = 0.02282150
#
# Stress axis : x y z
#
# Youngs Moduli (GPa) = 59.91045 59.91045 353.11736
#
# Poissons Ratio (x) = 0.24361 0.46446
# Poissons Ratio (y) = 0.24361 0.46446
# Poissons Ratio (z) = 0.07880 0.07880
#
# Static dielectric constant tensor:
#      x y z
#    x 1.932840 0.000000 0.000000 
#    y 0.000000 1.932840 0.000000 
#    z 0.000000 0.000000 2.059090 
# 
# From -- ./inp_files/5345.got.cif
#   From: 2010.05.17/outbox.cif.g08.bks.cpg/sg166_3_cif.got.tgz:5345.got - 2010.05.20 11:04:41.
