data_PCOD9579910
_publ_section_title
;
Structure prediction by ZEFSAII (Michael W. Deem and Ramdas Pophale) SiO2 
 PCOD9579910
Probable space group: P 61
;
_chemical_formula_sum "Si O2"
_cell_formula_units_Z 30
_cell_length_a 13.869232
_cell_length_b 13.869232
_cell_length_c 7.589644
_cell_angle_alpha 90.000000
_cell_angle_beta 90.000000
_cell_angle_gamma 120.000000
_cell_volume 1264.319578
_symmetry_space_group_name_H-M "P 61"
_symmetry_group_IT_number 169
_symmetry_cell_setting 'hexagonal'
loop_
_space_group_symop_operation_xyz
x,y,z
x-y,x,1/6+z
-y,x-y,1/3+z
-x,-y,1/2+z
-x+y,-x,2/3+z
y,-x+y,5/6+z
loop_
_atom_site_type_symbol
_atom_site_label
_atom_site_fract_x
_atom_site_fract_y
_atom_site_fract_z
Si Si1 0.361130 0.761243 0.286690
Si Si2 0.367073 0.402068 0.688668
Si Si3 0.082642 0.856668 0.406874
Si Si4 0.088177 0.354227 0.510482
Si Si5 0.993504 0.571004 0.703871
O O1 0.307687 0.689644 0.465741
O O2 0.278501 0.802254 0.202758
O O3 0.475382 0.878728 0.340400
O O4 0.247676 0.347246 0.781913
O O5 0.349348 0.334748 0.511224
O O6 0.450303 0.526301 0.628594
O O7 0.435250 0.382294 0.842390
O O8 0.144866 0.892891 0.217211
O O9 0.954358 0.814631 0.378638
O O10 0.024653 0.349241 0.333062
#
# Coordination Sequence:
#
# PCOD9579910 Si02
#       5
#     6   6   6   6   6
#     4  11  25  40  64 102 141 176 226 294 369 448
#     4  10  20  40  70  95 133 178 231 293 359 419
#     4  10  23  47  70  97 141 195 242 301 359 418
#     4  10  23  42  70  95 134 183 232 290 354 425
#     4  11  21  41  70  99 135 182 229 288 363 438
#
# _framework density 23.728176999999999
#
# number of rings (size 3 to 8) (size 9 to 14) (size 15 to 20)
#    0.000    1.600    4.000    1.200    0.000    8.000 
#    3.600    6.000    0.000    0.000    0.000    0.000 
#    0.000    0.000    0.000    0.000    0.000    0.000 
#
# Total GULP energy -167127.926788 kJ/mol
# GULP energy per Si atom -5570.930893 kJ/mol
# Density = 2.367417 g / cm^3
# Si number density = 23.728177 Si / 1000 Ang^3
#
#
#
# Elastic Constant Matrix: (Units=GPa)
#
#
# Indices 1 2 3 4 5 6 
#
# 1 58.9142 -12.5927 -13.1428 0.0000 0.0000 0.0000
# 2 -12.5927 58.9142 -13.1428 0.0000 0.0000 0.0000
# 3 -13.1428 -13.1428 98.1575 0.0000 0.0000 0.0000
# 4 0.0000 0.0000 0.0000 27.3840 0.0000 0.0000
# 5 0.0000 0.0000 0.0000 0.0000 27.3840 0.0000
# 6 0.0000 0.0000 0.0000 0.0000 0.0000 35.7535
#
#
#
# Elastic Compliance Matrix: (Units=1/GPa)
#
#
# Indices 1 2 3 4 5 6 
#
# 1 0.018674 0.004689 0.003128 0.000000 0.000000 0.000000
# 2 0.004689 0.018674 0.003128 0.000000 0.000000 0.000000
# 3 0.003128 0.003128 0.011025 0.000000 0.000000 0.000000
# 4 0.000000 0.000000 0.000000 0.036518 0.000000 0.000000
# 5 0.000000 0.000000 0.000000 0.000000 0.036518 0.000000
# 6 0.000000 0.000000 0.000000 0.000000 0.000000 0.027969
#
#
# Mechanical properties :
#
#
# Convention : Reuss Voigt Hill
#
# Bulk Modulus (GPa) = 14.23179 15.35881 14.79530
# Shear Modulus (GPa) = 33.13275 35.09525 34.11400
#
# Velocity S-wave (km/s) = 3.74083 3.85002 3.79581
# Velocity P-wave (km/s) = 4.96681 5.12351 5.04577
#
# Compressibility (1/GPa) = 0.07026523
#
# Stress axis : x y z
#
# Youngs Moduli (GPa) = 53.55028 53.55028 90.69946
#
# Poissons Ratio (x) = -0.25112 -0.28373
# Poissons Ratio (y) = -0.25112 -0.28373
# Poissons Ratio (z) = -0.16752 -0.16752
#
# Static dielectric constant tensor:
#      x y z
#    x 2.039610 0.000000 0.000000 
#    y 0.000000 2.039610 0.000000 
#    z 0.000000 0.000000 1.932840 
# 
# From -- ./inp_files/561.got.cif
#   From: 2010.05.17/outbox.cif.g08.bks.cpg/sg169_cif.got.tgz:561.got - 2010.05.20 11:12:54.
