data_PCOD9579064
_publ_section_title
;
Structure prediction by ZEFSAII (Michael W. Deem and Ramdas Pophale) SiO2 
 PCOD9579064
Probable space group: R -3 M
;
_chemical_formula_sum "Si O2"
_cell_formula_units_Z 162
_cell_length_a 21.057079
_cell_length_b 21.057079
_cell_length_c 24.571912
_cell_angle_alpha 90.000000
_cell_angle_beta 90.000000
_cell_angle_gamma 120.000000
_cell_volume 9435.519923
_symmetry_space_group_name_H-M "R -3 M"
_symmetry_group_IT_number 166
_symmetry_cell_setting 'hexagonal'
loop_
_space_group_symop_operation_xyz
x,y,z
-y,x-y,z
-x+y,-x,z
x-y,-y,-z
-x,-x+y,-z
y,x,-z
-x,-y,-z
y,-x+y,-z
x-y,x,-z
-x+y,y,z
x,x-y,z
-y,-x,z
2/3+x,1/3+y,1/3+z
2/3-y,1/3+x-y,1/3+z
2/3-x+y,1/3-x,1/3+z
2/3+x-y,1/3-y,1/3-z
2/3-x,1/3-x+y,1/3-z
2/3+y,1/3+x,1/3-z
2/3-x,1/3-y,1/3-z
2/3+y,1/3-x+y,1/3-z
2/3+x-y,1/3+x,1/3-z
2/3-x+y,1/3+y,1/3+z
2/3+x,1/3+x-y,1/3+z
2/3-y,1/3-x,1/3+z
1/3+x,2/3+y,2/3+z
1/3-y,2/3+x-y,2/3+z
1/3-x+y,2/3-x,2/3+z
1/3+x-y,2/3-y,2/3-z
1/3-x,2/3-x+y,2/3-z
1/3+y,2/3+x,2/3-z
1/3-x,2/3-y,2/3-z
1/3+y,2/3-x+y,2/3-z
1/3+x-y,2/3+x,2/3-z
1/3-x+y,2/3+y,2/3+z
1/3+x,2/3+x-y,2/3+z
1/3-y,2/3-x,2/3+z
loop_
_atom_site_type_symbol
_atom_site_label
_atom_site_fract_x
_atom_site_fract_y
_atom_site_fract_z
Si Si1 0.991281 0.279405 0.611147
Si Si2 0.847879 0.848783 0.670456
Si Si3 0.906780 0.529336 0.110311
Si Si4 0.000000 0.848888 0.000000
Si Si5 0.868600 0.584098 0.434937
O O1 0.982495 0.315828 0.666667
O O2 0.991388 0.205929 0.628540
O O3 0.922831 0.267991 0.575138
O O4 0.064864 0.336702 0.580768
O O5 0.928310 0.856619 0.668822
O O6 0.812544 0.817025 0.730159
O O7 0.851412 0.925706 0.660591
O O8 0.902897 0.451449 0.111163
O O9 0.893786 0.545989 0.171691
O O10 0.998288 0.804869 0.946084
O O11 0.927949 0.855897 0.999751
O O12 0.793413 0.586825 0.435332
#
# Coordination Sequence:
#
# PCOD9579064 Si02
#       5
#    36  36  36  18  36
#     4  10  18  32  53  75 103 135 174 217 269 319
#     4  10  20  34  53  78 108 142 179 219 264 317
#     4   9  19  33  51  75 104 137 176 218 261 312
#     4  10  21  36  54  74 103 142 182 220 262 314
#     4  10  19  33  51  75 104 135 175 221 264 311
#
# _framework density 17.169165
#
# number of rings (size 3 to 8) (size 9 to 14) (size 15 to 20)
#    0.000    2.222    1.111    2.333    0.000    3.556 
#    0.000    0.000    0.000    6.667    0.000    0.000 
#    0.000   10.667    0.000    0.000    0.000    0.000 
#
# Total GULP energy -301003.333728 kJ/mol
# GULP energy per Si atom -5574.135810 kJ/mol
# Density = 1.713009 g / cm^3
# Si number density = 17.169165 Si / 1000 Ang^3
#
#
#
# Elastic Constant Matrix: (Units=GPa)
#
#
# Indices 1 2 3 4 5 6 
#
# 1 64.9096 31.6857 11.9975 -1.8210 0.0000 0.0000
# 2 31.6857 64.9096 11.9975 1.8210 0.0000 0.0000
# 3 11.9975 11.9975 65.3926 0.0000 0.0000 0.0000
# 4 -1.8210 1.8210 0.0000 19.4466 0.0000 0.0000
# 5 0.0000 0.0000 0.0000 0.0000 19.4466 -1.8210
# 6 0.0000 0.0000 0.0000 0.0000 -1.8210 16.6120
#
#
#
# Elastic Compliance Matrix: (Units=1/GPa)
#
#
# Indices 1 2 3 4 5 6 
#
# 1 0.020629 -0.009782 -0.001990 0.002848 0.000000 0.000000
# 2 -0.009782 0.020629 -0.001990 -0.002848 0.000000 0.000000
# 3 -0.001990 -0.001990 0.016022 0.000000 0.000000 0.000000
# 4 0.002848 -0.002848 0.000000 0.051956 0.000000 0.000000
# 5 0.000000 0.000000 0.000000 0.000000 0.051956 0.005695
# 6 0.000000 0.000000 0.000000 0.000000 0.005695 0.060822
#
#
# Mechanical properties :
#
#
# Convention : Reuss Voigt Hill
#
# Bulk Modulus (GPa) = 33.60681 34.06372 33.83526
# Shear Modulus (GPa) = 19.27096 20.40310 19.83703
#
# Velocity S-wave (km/s) = 3.35388 3.45100 3.40279
# Velocity P-wave (km/s) = 5.88341 5.98016 5.93198
#
# Compressibility (1/GPa) = 0.02975587
#
# Stress axis : x y z
#
# Youngs Moduli (GPa) = 48.47570 48.47570 62.41235
#
# Poissons Ratio (x) = 0.47419 0.12420
# Poissons Ratio (y) = 0.47419 0.12420
# Poissons Ratio (z) = 0.09647 0.09647
#
# Static dielectric constant tensor:
#      x y z
#    x 1.556970 0.000000 0.000000 
#    y 0.000000 1.556970 0.000000 
#    z 0.000000 0.000000 1.609290 
# 
# From -- ./inp_files/6770.got.cif
#   From: 2010.05.17/outbox.cif.g08.bks.cpg/sg166_4_cif.got.tgz:6770.got - 2010.05.20 11:04:41.
