data_PCOD9579771
_publ_section_title
;
Structure prediction by ZEFSAII (Michael W. Deem and Ramdas Pophale) SiO2 
 PCOD9579771
Probable space group: P 6
;
_chemical_formula_sum "Si O2"
_cell_formula_units_Z 30
_cell_length_a 16.120398
_cell_length_b 16.120398
_cell_length_c 5.600227
_cell_angle_alpha 90.000000
_cell_angle_beta 90.000000
_cell_angle_gamma 120.000000
_cell_volume 1260.340182
_symmetry_space_group_name_H-M "P 6"
_symmetry_group_IT_number 168
_symmetry_cell_setting 'hexagonal'
loop_
_space_group_symop_operation_xyz
x,y,z
x-y,x,z
-y,x-y,z
-x,-y,z
-x+y,-x,z
y,-x+y,z
loop_
_atom_site_type_symbol
_atom_site_label
_atom_site_fract_x
_atom_site_fract_y
_atom_site_fract_z
Si Si1 0.394278 0.487461 0.880560
Si Si2 0.440671 0.882907 0.375009
Si Si3 0.896215 0.784284 0.003619
Si Si4 0.941679 0.249392 0.622892
Si Si5 0.760719 0.136596 0.327241
O O1 0.500000 0.500000 0.898469
O O2 0.397615 0.545166 0.640168
O O3 0.319128 0.376404 0.829984
O O4 0.377572 0.521019 0.136995
O O5 0.331511 0.852361 0.321063
O O6 0.500000 0.000000 0.391592
O O7 0.843826 0.839712 0.098707
O O8 0.868813 0.677564 0.080736
O O9 0.851733 0.771705 0.736107
O O10 0.849554 0.220848 0.464245
O O11 0.037746 0.309211 0.472718
#
# Coordination Sequence:
#
# PCOD9579771 Si02
#       5
#     6   6   6   6   6
#     4  10  22  40  70 103 137 174 243 313 392 443
#     4  10  22  40  70 103 137 174 243 313 392 443
#     4  12  27  42  66  98 152 208 274 328 387 442
#     4  12  25  43  69 110 144 202 259 327 378 472
#     4  12  25  43  69 110 144 202 259 327 378 472
#
# _framework density 23.803094999999999
#
# number of rings (size 3 to 8) (size 9 to 14) (size 15 to 20)
#    0.000    0.800    8.000    0.200   11.200    0.000 
#    0.000    0.000    0.000    0.800    5.200    0.000 
#    0.000    0.000    0.000    0.000    0.000    0.000 
#
# Total GULP energy -167312.231418 kJ/mol
# GULP energy per Si atom -5577.074381 kJ/mol
# Density = 2.374892 g / cm^3
# Si number density = 23.803095 Si / 1000 Ang^3
#
#
#
# Elastic Constant Matrix: (Units=GPa)
#
#
# Indices 1 2 3 4 5 6 
#
# 1 80.5981 9.7342 23.0526 0.0000 0.0000 0.0000
# 2 9.7342 80.5981 23.0526 0.0000 0.0000 0.0000
# 3 23.0526 23.0526 140.4445 0.0000 0.0000 0.0000
# 4 0.0000 0.0000 0.0000 37.7975 0.0000 0.0000
# 5 0.0000 0.0000 0.0000 0.0000 37.7975 0.0000
# 6 0.0000 0.0000 0.0000 0.0000 0.0000 35.4319
#
#
#
# Elastic Compliance Matrix: (Units=1/GPa)
#
#
# Indices 1 2 3 4 5 6 
#
# 1 0.013097 -0.001015 -0.001983 0.000000 0.000000 0.000000
# 2 -0.001015 0.013097 -0.001983 0.000000 0.000000 0.000000
# 3 -0.001983 -0.001983 0.007771 0.000000 0.000000 0.000000
# 4 0.000000 0.000000 0.000000 0.026457 0.000000 0.000000
# 5 0.000000 0.000000 0.000000 0.000000 0.026457 0.000000
# 6 0.000000 0.000000 0.000000 0.000000 0.000000 0.028223
#
#
# Mechanical properties :
#
#
# Convention : Reuss Voigt Hill
#
# Bulk Modulus (GPa) = 41.66087 45.92441 43.79264
# Shear Modulus (GPa) = 37.57557 38.59212 38.08384
#
# Velocity S-wave (km/s) = 3.97747 4.03091 4.00428
# Velocity P-wave (km/s) = 6.21562 6.40310 6.31006
#
# Compressibility (1/GPa) = 0.02400334
#
# Stress axis : x y z
#
# Youngs Moduli (GPa) = 76.35328 76.35328 128.67850
#
# Poissons Ratio (x) = 0.07746 0.25520
# Poissons Ratio (y) = 0.07746 0.25520
# Poissons Ratio (z) = 0.15143 0.15143
#
# Static dielectric constant tensor:
#      x y z
#    x 1.932770 0.000000 0.000000 
#    y 0.000000 1.932770 0.000000 
#    z 0.000000 0.000000 2.025560 
# 
# From -- ./inp_files/105.got.cif
#   From: 2010.05.17/outbox.cif.g08.bks.cpg/sg168_cif.got.tgz:105.got - 2010.05.20 11:12:33.
