data_PCOD9579074
_publ_section_title
;
Structure prediction by ZEFSAII (Michael W. Deem and Ramdas Pophale) SiO2 
 PCOD9579074
Probable space group: R -3 M
;
_chemical_formula_sum "Si O2"
_cell_formula_units_Z 144
_cell_length_a 20.230464
_cell_length_b 20.230464
_cell_length_c 27.067949
_cell_angle_alpha 90.000000
_cell_angle_beta 90.000000
_cell_angle_gamma 120.000000
_cell_volume 9593.954815
_symmetry_space_group_name_H-M "R -3 M"
_symmetry_group_IT_number 166
_symmetry_cell_setting 'hexagonal'
loop_
_space_group_symop_operation_xyz
x,y,z
-y,x-y,z
-x+y,-x,z
x-y,-y,-z
-x,-x+y,-z
y,x,-z
-x,-y,-z
y,-x+y,-z
x-y,x,-z
-x+y,y,z
x,x-y,z
-y,-x,z
2/3+x,1/3+y,1/3+z
2/3-y,1/3+x-y,1/3+z
2/3-x+y,1/3-x,1/3+z
2/3+x-y,1/3-y,1/3-z
2/3-x,1/3-x+y,1/3-z
2/3+y,1/3+x,1/3-z
2/3-x,1/3-y,1/3-z
2/3+y,1/3-x+y,1/3-z
2/3+x-y,1/3+x,1/3-z
2/3-x+y,1/3+y,1/3+z
2/3+x,1/3+x-y,1/3+z
2/3-y,1/3-x,1/3+z
1/3+x,2/3+y,2/3+z
1/3-y,2/3+x-y,2/3+z
1/3-x+y,2/3-x,2/3+z
1/3+x-y,2/3-y,2/3-z
1/3-x,2/3-x+y,2/3-z
1/3+y,2/3+x,2/3-z
1/3-x,2/3-y,2/3-z
1/3+y,2/3-x+y,2/3-z
1/3+x-y,2/3+x,2/3-z
1/3-x+y,2/3+y,2/3+z
1/3+x,2/3+x-y,2/3+z
1/3-y,2/3-x,2/3+z
loop_
_atom_site_type_symbol
_atom_site_label
_atom_site_fract_x
_atom_site_fract_y
_atom_site_fract_z
Si Si1 0.710350 0.141479 0.935497
Si Si2 0.647343 0.680488 0.447699
Si Si3 0.255191 0.896618 0.690518
Si Si4 0.453325 0.226662 0.692917
Si Si5 0.857065 0.142935 0.745321
O O1 0.784343 0.215658 0.915518
O O2 0.673828 0.070979 0.898001
O O3 0.645880 0.159072 0.954647
O O4 0.735578 0.110883 0.982994
O O5 0.641574 0.641574 0.500000
O O6 0.609510 0.616533 0.405246
O O7 0.615282 0.739337 0.442645
O O8 0.189875 0.810126 0.699970
O O9 0.333334 0.908117 0.666667
O O10 0.368816 0.184408 0.718154
O O11 0.439706 0.219853 0.633984
#
# Coordination Sequence:
#
# PCOD9579074 Si02
#       5
#    36  36  36  18  18
#     4   9  17  29  45  65  89 118 152 189 221 257
#     4  10  19  28  45  68  93 123 147 181 226 270
#     4   9  17  31  49  70  93 115 145 186 227 266
#     4   9  14  28  48  60  82 119 152 187 221 252
#     4   9  16  28  44  64  89 116 154 180 221 270
#
# _framework density 15.009452
#
# number of rings (size 3 to 8) (size 9 to 14) (size 15 to 20)
#    0.000    2.750    2.500    0.000    1.750    0.500 
#    0.750    0.000    0.000    0.250    0.000    0.875 
#    0.000    0.000    0.000    0.000    0.000    0.000 
#
# Total GULP energy -267218.410199 kJ/mol
# GULP energy per Si atom -5567.050212 kJ/mol
# Density = 1.497529 g / cm^3
# Si number density = 15.009452 Si / 1000 Ang^3
#
#
#
# Elastic Constant Matrix: (Units=GPa)
#
#
# Indices 1 2 3 4 5 6 
#
# 1 65.9866 36.8408 5.5738 1.5363 -0.0001 0.0000
# 2 36.8408 65.9866 5.5738 -1.5363 0.0001 0.0000
# 3 5.5738 5.5738 42.1995 0.0000 0.0000 0.0000
# 4 1.5363 -1.5363 0.0000 12.3953 0.0000 0.0001
# 5 -0.0001 0.0001 0.0000 0.0000 12.3953 1.5363
# 6 0.0000 0.0000 0.0000 0.0001 1.5363 14.5729
#
#
#
# Elastic Compliance Matrix: (Units=1/GPa)
#
#
# Indices 1 2 3 4 5 6 
#
# 1 0.022315 -0.012449 -0.001303 -0.004309 0.000000 0.000000
# 2 -0.012449 0.022315 -0.001303 0.004309 0.000000 0.000000
# 3 -0.001303 -0.001303 0.024041 0.000000 0.000000 0.000000
# 4 -0.004309 0.004309 0.000000 0.081744 0.000000 0.000000
# 5 0.000000 0.000000 0.000000 0.000000 0.081744 -0.008618
# 6 0.000000 0.000000 0.000000 0.000000 -0.008618 0.069529
#
#
# Mechanical properties :
#
#
# Convention : Reuss Voigt Hill
#
# Bulk Modulus (GPa) = 25.93282 30.01663 27.97473
# Shear Modulus (GPa) = 14.50736 16.28501 15.39618
#
# Velocity S-wave (km/s) = 3.11231 3.29748 3.20623
# Velocity P-wave (km/s) = 5.49822 5.87705 5.69079
#
# Compressibility (1/GPa) = 0.03856117
#
# Stress axis : x y z
#
# Youngs Moduli (GPa) = 44.81212 44.81212 41.59519
#
# Poissons Ratio (x) = 0.55787 0.05421
# Poissons Ratio (y) = 0.55787 0.05421
# Poissons Ratio (z) = 0.05840 0.05840
#
# Static dielectric constant tensor:
#      x y z
#    x 1.495950 0.000000 0.000000 
#    y 0.000000 1.495950 0.000000 
#    z 0.000000 0.000000 1.490390 
# 
# From -- ./inp_files/8068.got.cif
#   From: 2010.05.17/outbox.cif.g08.bks.cpg/sg166_5_cif.got.tgz:8068.got - 2010.05.20 11:04:41.
