data_PCOD9579833
_publ_section_title
;
Structure prediction by ZEFSAII (Michael W. Deem and Ramdas Pophale) SiO2 
 PCOD9579833
Probable space group: P 61
;
_chemical_formula_sum "Si O2"
_cell_formula_units_Z 48
_cell_length_a 11.446385
_cell_length_b 11.446385
_cell_length_c 22.822596
_cell_angle_alpha 90.000000
_cell_angle_beta 90.000000
_cell_angle_gamma 120.000000
_cell_volume 2589.598131
_symmetry_space_group_name_H-M "P 61"
_symmetry_group_IT_number 169
_symmetry_cell_setting 'hexagonal'
loop_
_space_group_symop_operation_xyz
x,y,z
x-y,x,1/6+z
-y,x-y,1/3+z
-x,-y,1/2+z
-x+y,-x,2/3+z
y,-x+y,5/6+z
loop_
_atom_site_type_symbol
_atom_site_label
_atom_site_fract_x
_atom_site_fract_y
_atom_site_fract_z
Si Si1 0.664985 0.002973 0.347960
Si Si2 0.660502 0.609314 0.928556
Si Si3 0.365375 0.803148 0.321068
Si Si4 0.292746 0.587431 0.223222
Si Si5 0.851333 0.041107 0.580409
Si Si6 0.978941 0.406987 0.464123
Si Si7 0.797243 0.936732 0.453142
Si Si8 0.639165 0.268099 0.606374
O O1 0.670099 0.142715 0.368006
O O2 0.782001 0.039918 0.300486
O O3 0.527764 0.881524 0.323291
O O4 0.704182 0.952765 0.406200
O O5 0.583202 0.648477 0.976120
O O6 0.800829 0.744889 0.917528
O O7 0.580079 0.556688 0.867450
O O8 0.691544 0.489160 0.942769
O O9 0.296892 0.700484 0.266924
O O10 0.315104 0.719341 0.381365
O O11 0.362562 0.520893 0.262157
O O12 0.375995 0.661694 0.164737
O O13 0.722238 0.003852 0.620217
O O14 0.792035 0.999105 0.515355
O O15 0.916266 0.949706 0.597416
O O16 0.106017 0.543478 0.441103
#
# Coordination Sequence:
#
# PCOD9579833 Si02
#       8
#     6   6   6   6   6   6   6   6
#     4  11  23  38  61  94 122 161 213 257 311 379
#     4  11  21  41  60  92 130 164 208 262 318 379
#     4  12  26  38  64  93 132 169 206 265 328 383
#     4  12  22  41  66  92 128 170 211 269 320 388
#     4  10  19  34  63  95 115 157 205 260 306 366
#     4  11  21  38  66  90 126 161 215 262 315 379
#     4  10  19  36  64  92 116 155 206 266 300 362
#     4  11  25  40  64  92 123 171 216 265 316 382
#
# _framework density 18.535693999999999
#
# number of rings (size 3 to 8) (size 9 to 14) (size 15 to 20)
#    0.000    1.000    7.500    0.750    1.750    0.000 
#    0.000    0.000    5.500    0.000    0.000    0.000 
#    0.000    0.000    0.000    0.000    0.000    0.000 
#
# Total GULP energy -267491.348003 kJ/mol
# GULP energy per Si atom -5572.736417 kJ/mol
# Density = 1.849351 g / cm^3
# Si number density = 18.535694 Si / 1000 Ang^3
#
#
#
# Elastic Constant Matrix: (Units=GPa)
#
#
# Indices 1 2 3 4 5 6 
#
# 1 44.6756 21.8801 -4.5173 0.0000 0.0000 0.0000
# 2 21.8801 44.6756 -4.5173 0.0000 0.0000 0.0000
# 3 -4.5173 -4.5173 50.5909 0.0000 0.0000 0.0000
# 4 0.0000 0.0000 0.0000 21.0337 0.0000 0.0000
# 5 0.0000 0.0000 0.0000 0.0000 21.0337 0.0000
# 6 0.0000 0.0000 0.0000 0.0000 0.0000 11.3977
#
#
#
# Elastic Compliance Matrix: (Units=1/GPa)
#
#
# Indices 1 2 3 4 5 6 
#
# 1 0.029539 -0.014330 0.001358 0.000000 0.000000 0.000000
# 2 -0.014330 0.029539 0.001358 0.000000 0.000000 0.000000
# 3 0.001358 0.001358 0.020009 0.000000 0.000000 0.000000
# 4 0.000000 0.000000 0.000000 0.047543 0.000000 0.000000
# 5 0.000000 0.000000 0.000000 0.000000 0.047543 0.000000
# 6 0.000000 0.000000 0.000000 0.000000 0.000000 0.087737
#
#
# Mechanical properties :
#
#
# Convention : Reuss Voigt Hill
#
# Bulk Modulus (GPa) = 17.90197 18.40370 18.15284
# Shear Modulus (GPa) = 16.46057 19.16611 17.81334
#
# Velocity S-wave (km/s) = 2.98324 3.21909 3.10341
# Velocity P-wave (km/s) = 4.64170 4.87515 4.75986
#
# Compressibility (1/GPa) = 0.05585978
#
# Stress axis : x y z
#
# Youngs Moduli (GPa) = 33.85365 33.85365 49.97775
#
# Poissons Ratio (x) = 0.48511 -0.06787
# Poissons Ratio (y) = 0.48511 -0.06787
# Poissons Ratio (z) = -0.04597 -0.04597
#
# Static dielectric constant tensor:
#      x y z
#    x 1.658120 0.000000 0.000000 
#    y 0.000000 1.658120 0.000000 
#    z 0.000000 0.000000 1.668090 
# 
# From -- ./inp_files/1557.got.cif
#   From: 2010.05.17/outbox.cif.g08.bks.cpg/sg169_cif.got.tgz:1557.got - 2010.05.20 11:12:54.
