data_PCOD9579526
_publ_section_title
;
Structure prediction by ZEFSAII (Michael W. Deem and Ramdas Pophale) SiO2 
 PCOD9579526
Probable space group: R -3 C 
;
_chemical_formula_sum "Si O2"
_cell_formula_units_Z 144
_cell_length_a 29.967080
_cell_length_b 29.967080
_cell_length_c 9.827231
_cell_angle_alpha 90.000000
_cell_angle_beta 90.000000
_cell_angle_gamma 120.000000
_cell_volume 7642.767549
_symmetry_space_group_name_H-M "R -3 C "
_symmetry_group_IT_number 167
_symmetry_cell_setting 'hexagonal'
loop_
_space_group_symop_operation_xyz
x,y,z
-y,x-y,z
-x+y,-x,z
x-y,-y,1/2-z
-x,-x+y,1/2-z
y,x,1/2-z
-x,-y,-z
y,-x+y,-z
x-y,x,-z
-x+y,y,1/2+z
x,x-y,1/2+z
-y,-x,1/2+z
2/3+x,1/3+y,1/3+z
2/3-y,1/3+x-y,1/3+z
2/3-x+y,1/3-x,1/3+z
2/3+x-y,1/3-y,5/6-z
2/3-x,1/3-x+y,5/6-z
2/3+y,1/3+x,5/6-z
2/3-x,1/3-y,1/3-z
2/3+y,1/3-x+y,1/3-z
2/3+x-y,1/3+x,1/3-z
2/3-x+y,1/3+y,5/6+z
2/3+x,1/3+x-y,5/6+z
2/3-y,1/3-x,5/6+z
1/3+x,2/3+y,2/3+z
1/3-y,2/3+x-y,2/3+z
1/3-x+y,2/3-x,2/3+z
1/3+x-y,2/3-y,1/6-z
1/3-x,2/3-x+y,1/6-z
1/3+y,2/3+x,1/6-z
1/3-x,2/3-y,2/3-z
1/3+y,2/3-x+y,2/3-z
1/3+x-y,2/3+x,2/3-z
1/3-x+y,2/3+y,1/6+z
1/3+x,2/3+x-y,1/6+z
1/3-y,2/3-x,1/6+z
loop_
_atom_site_type_symbol
_atom_site_label
_atom_site_fract_x
_atom_site_fract_y
_atom_site_fract_z
Si Si1 0.719616 0.779773 0.750480
Si Si2 0.726824 0.613717 0.583813
Si Si3 0.840118 0.060115 0.003092
Si Si4 0.159882 0.219998 0.996907
O O1 0.735742 0.735742 0.750000
O O2 0.666667 0.758306 0.833334
O O3 0.732411 0.802913 0.598201
O O4 0.759287 0.826618 0.844067
O O5 0.666667 0.597588 0.583334
O O6 0.737169 0.600923 0.431533
O O7 0.734002 0.574049 0.677399
O O8 0.822647 0.999999 0.999995
O O9 0.898553 0.101447 0.970256
#
# Coordination Sequence:
#
# PCOD9579526 Si02
#       4
#    36  36  36  36
#     4  10  21  34  51  76 106 140 175 210 249 296
#     4  10  21  34  51  76 106 140 175 210 249 296
#     4  10  21  36  53  75 102 134 172 215 264 311
#     4  10  21  36  53  75 102 134 172 215 264 311
#
# _framework density 18.841342000000001
#
# number of rings (size 3 to 8) (size 9 to 14) (size 15 to 20)
#    0.000    2.000    0.000    3.000    0.000   12.000 
#    0.000    0.000    0.000    0.500    0.000    0.000 
#    0.000   12.000    0.000    0.000    0.000    2.000 
#
# Total GULP energy -267297.378228 kJ/mol
# GULP energy per Si atom -5568.695380 kJ/mol
# Density = 1.879846 g / cm^3
# Si number density = 18.841342 Si / 1000 Ang^3
#
#
#
# Elastic Constant Matrix: (Units=GPa)
#
#
# Indices 1 2 3 4 5 6 
#
# 1 78.5043 78.5375 4.4807 7.6460 -0.0257 -0.0023
# 2 78.5375 78.5098 4.4627 -7.6466 -0.0391 0.0021
# 3 4.4807 4.4627 96.0083 0.0139 -0.0942 0.0169
# 4 7.6460 -7.6466 0.0139 11.0148 0.0028 0.0121
# 5 -0.0257 -0.0391 -0.0942 0.0028 10.9631 7.6458
# 6 -0.0023 0.0021 0.0169 0.0121 7.6458 -0.0057
#
#
#
# Elastic Compliance Matrix: (Units=1/GPa)
#
#
# Indices 1 2 3 4 5 6 
#
# 1 -0.043774 0.050157 -0.000298 0.065205 -0.000129 0.000268
# 2 0.050157 -0.043771 -0.000297 -0.065202 0.000131 -0.000223
# 3 -0.000298 -0.000297 0.010443 -0.000012 -0.000023 0.000159
# 4 0.065205 -0.065202 -0.000012 0.000260 0.000037 -0.000168
# 5 -0.000129 0.000131 -0.000023 0.000037 0.000098 0.130651
# 6 0.000268 -0.000223 0.000159 -0.000168 0.130651 -0.187336
#
#
# Mechanical properties :
#
#
# Convention : Reuss Voigt Hill
#
# Bulk Modulus (GPa) = 45.40699 47.55381 46.48040
# Shear Modulus (GPa) = -14.05039 15.43054 0.69008
#
# Velocity S-wave (km/s) = -2.73375 2.86487 0.60585
# Velocity P-wave (km/s) = 3.76662 6.01973 5.02119
#
# Compressibility (1/GPa) = 0.02202304
#
# Stress axis : x y z
#
# Youngs Moduli (GPa) = -22.84482 -22.84631 95.75408
#
# Poissons Ratio (x) = 1.14590 0.02855
# Poissons Ratio (y) = 1.14582 0.02840
# Poissons Ratio (z) = -0.00681 -0.00678
#
# Static dielectric constant tensor:
#      x y z
#    x 1.684560 0.000000 -0.000010 
#    y 0.000000 1.684550 0.000000 
#    z -0.000010 0.000000 1.649690 
# 
# From -- ./inp_files/764.got.cif
#   From: 2010.05.17/outbox.cif.g08.bks.cpg/sg167_1_cif.got.tgz:764.got - 2010.05.20 11:09:15.
