data_PCOD9579382
_publ_section_title
;
Structure prediction by ZEFSAII (Michael W. Deem and Ramdas Pophale) SiO2 
 PCOD9579382
Probable space group: R -3 M
;
_chemical_formula_sum "Si O2"
_cell_formula_units_Z 54
_cell_length_a 21.000000
_cell_length_b 21.000000
_cell_length_c 21.000000
_cell_angle_alpha 90.000000
_cell_angle_beta 90.000000
_cell_angle_gamma 120.000000
_cell_volume 8020.261264
_symmetry_space_group_name_H-M "R -3 M"
_symmetry_group_IT_number 166
_symmetry_cell_setting 'hexagonal'
loop_
_space_group_symop_operation_xyz
x,y,z
-y,x-y,z
-x+y,-x,z
x-y,-y,-z
-x,-x+y,-z
y,x,-z
-x,-y,-z
y,-x+y,-z
x-y,x,-z
-x+y,y,z
x,x-y,z
-y,-x,z
2/3+x,1/3+y,1/3+z
2/3-y,1/3+x-y,1/3+z
2/3-x+y,1/3-x,1/3+z
2/3+x-y,1/3-y,1/3-z
2/3-x,1/3-x+y,1/3-z
2/3+y,1/3+x,1/3-z
2/3-x,1/3-y,1/3-z
2/3+y,1/3-x+y,1/3-z
2/3+x-y,1/3+x,1/3-z
2/3-x+y,1/3+y,1/3+z
2/3+x,1/3+x-y,1/3+z
2/3-y,1/3-x,1/3+z
1/3+x,2/3+y,2/3+z
1/3-y,2/3+x-y,2/3+z
1/3-x+y,2/3-x,2/3+z
1/3+x-y,2/3-y,2/3-z
1/3-x,2/3-x+y,2/3-z
1/3+y,2/3+x,2/3-z
1/3-x,2/3-y,2/3-z
1/3+y,2/3-x+y,2/3-z
1/3+x-y,2/3+x,2/3-z
1/3-x+y,2/3+y,2/3+z
1/3+x,2/3+x-y,2/3+z
1/3-y,2/3-x,2/3+z
loop_
_atom_site_type_symbol
_atom_site_label
_atom_site_fract_x
_atom_site_fract_y
_atom_site_fract_z
Si Si1 0.652987 0.566493 0.940524
Si Si2 0.185107 0.516287 0.388243
Si Si3 0.212398 0.279816 0.042209
Si Si4 0.145798 0.145798 0.500000
Si Si5 0.639090 0.583552 0.146296
O O1 0.714926 0.642237 0.969854
O O2 0.689366 0.538170 0.888836
O O3 0.596034 0.583546 0.901209
O O4 0.632893 0.507731 0.995990
O O5 0.268881 0.537762 0.403035
O O6 0.179504 0.589752 0.375668
O O7 0.129884 0.465577 0.443690
O O8 0.141134 0.282267 0.022042
O O9 0.212504 0.272167 0.118950
O O10 0.221365 0.221365 0.000000
O O11 0.068437 0.136873 0.480063
O O12 0.699441 0.666667 0.166667
#
# Coordination Sequence:
#
# PCOD9579382 Si02
#       5
#    36  36  36  18  36
#     4  11  22  39  64  90 122 162 210 261 312 361
#     4  12  26  42  63  92 132 177 214 255 311 385
#     4  11  22  39  64  93 126 159 206 264 325 384
#     4  12  23  36  56  84 123 164 202 244 294 360
#     4  10  22  42  66  96 124 157 213 272 329 374
#
# _framework density 6.7329480000000004
#
# number of rings (size 3 to 8) (size 9 to 14) (size 15 to 20)
#    0.000    0.889    3.333    7.000    0.000    4.889 
#    0.000    2.222    0.000    0.222    0.000    0.000 
#    0.000    0.000    0.000    0.000    0.000    0.000 
#
# Total GULP energy -301213.927313 kJ/mol
# GULP energy per Si atom -5578.035691 kJ/mol
# Density = 0.671762 g / cm^3
# Si number density = 6.732948 Si / 1000 Ang^3
#
#
#
# Elastic Constant Matrix: (Units=GPa)
#
#
# Indices 1 2 3 4 5 6 
#
# 1 91.8076 64.3324 49.1127 7.2106 -0.0001 0.0000
# 2 64.3324 91.8076 49.1127 -7.2106 0.0001 0.0000
# 3 49.1127 49.1127 60.1121 0.0000 0.0000 0.0000
# 4 7.2106 -7.2106 0.0000 17.8000 0.0000 0.0001
# 5 -0.0001 0.0001 0.0000 0.0000 17.8000 7.2106
# 6 0.0000 0.0000 0.0000 0.0001 7.2106 13.7376
#
#
#
# Elastic Compliance Matrix: (Units=1/GPa)
#
#
# Indices 1 2 3 4 5 6 
#
# 1 0.029701 -0.016524 -0.010766 -0.018725 0.000000 0.000000
# 2 -0.016524 0.029701 -0.010766 0.018725 0.000000 0.000000
# 3 -0.010766 -0.010766 0.034228 0.000000 0.000000 0.000000
# 4 -0.018725 0.018725 0.000000 0.071351 0.000000 -0.000001
# 5 0.000000 0.000000 0.000000 0.000000 0.071351 -0.037450
# 6 0.000000 0.000000 0.000000 -0.000001 -0.037450 0.092450
#
#
# Mechanical properties :
#
#
# Convention : Reuss Voigt Hill
#
# Bulk Modulus (GPa) = 57.08417 63.20479 60.14448
# Shear Modulus (GPa) = 12.17337 15.27880 13.72609
#
# Velocity S-wave (km/s) = 2.45761 2.75329 2.60964
# Velocity P-wave (km/s) = 6.03122 6.43947 6.23868
#
# Compressibility (1/GPa) = 0.01751799
#
# Stress axis : x y z
#
# Youngs Moduli (GPa) = 33.66878 33.66878 29.21596
#
# Poissons Ratio (x) = 0.55634 0.31454
# Poissons Ratio (y) = 0.55634 0.31454
# Poissons Ratio (z) = 0.36248 0.36248
#
# Static dielectric constant tensor:
#      x y z
#    x 1.695250 0.000000 0.000000 
#    y 0.000000 1.695250 0.000000 
#    z 0.000000 0.000000 1.785160 
# 
# From -- ./inp_files/6802.got.cif
#   From: 2010.05.17/outbox.ucp.g08.bks.cvg/sg166_4_cif.got.tgz:6802.got - 2010.06.11 15:16:39.
