data_PCOD9579418
_publ_section_title
;
Structure prediction by ZEFSAII (Michael W. Deem and Ramdas Pophale) SiO2 
 PCOD9579418
Probable space group: R -3 C 
;
_chemical_formula_sum "Si O2"
_cell_formula_units_Z 234
_cell_length_a 25.550740
_cell_length_b 25.550740
_cell_length_c 22.003677
_cell_angle_alpha 90.000000
_cell_angle_beta 90.000000
_cell_angle_gamma 120.000000
_cell_volume 12440.357423
_symmetry_space_group_name_H-M "R -3 C "
_symmetry_group_IT_number 167
_symmetry_cell_setting 'hexagonal'
loop_
_space_group_symop_operation_xyz
x,y,z
-y,x-y,z
-x+y,-x,z
x-y,-y,1/2-z
-x,-x+y,1/2-z
y,x,1/2-z
-x,-y,-z
y,-x+y,-z
x-y,x,-z
-x+y,y,1/2+z
x,x-y,1/2+z
-y,-x,1/2+z
2/3+x,1/3+y,1/3+z
2/3-y,1/3+x-y,1/3+z
2/3-x+y,1/3-x,1/3+z
2/3+x-y,1/3-y,5/6-z
2/3-x,1/3-x+y,5/6-z
2/3+y,1/3+x,5/6-z
2/3-x,1/3-y,1/3-z
2/3+y,1/3-x+y,1/3-z
2/3+x-y,1/3+x,1/3-z
2/3-x+y,1/3+y,5/6+z
2/3+x,1/3+x-y,5/6+z
2/3-y,1/3-x,5/6+z
1/3+x,2/3+y,2/3+z
1/3-y,2/3+x-y,2/3+z
1/3-x+y,2/3-x,2/3+z
1/3+x-y,2/3-y,1/6-z
1/3-x,2/3-x+y,1/6-z
1/3+y,2/3+x,1/6-z
1/3-x,2/3-y,2/3-z
1/3+y,2/3-x+y,2/3-z
1/3+x-y,2/3+x,2/3-z
1/3-x+y,2/3+y,1/6+z
1/3+x,2/3+x-y,1/6+z
1/3-y,2/3-x,1/6+z
loop_
_atom_site_type_symbol
_atom_site_label
_atom_site_fract_x
_atom_site_fract_y
_atom_site_fract_z
Si Si1 0.236356 0.221529 0.979815
Si Si2 0.980108 0.646409 0.513018
Si Si3 0.123893 0.469911 0.551838
Si Si4 0.670179 0.553101 0.680486
Si Si5 0.442965 0.537028 0.840862
Si Si6 0.000000 0.474616 0.750000
Si Si7 0.129964 0.263913 0.810284
O O1 0.271619 0.292147 0.995834
O O2 0.198608 0.212631 0.918685
O O3 0.286518 0.204919 0.954835
O O4 0.205003 0.189732 0.042181
O O5 0.961690 0.628357 0.583334
O O6 0.050823 0.664806 0.507799
O O7 0.935568 0.593647 0.468456
O O8 0.181355 0.470629 0.520902
O O9 0.108730 0.517455 0.521891
O O10 0.608364 0.493293 0.662187
O O11 0.728875 0.568046 0.643124
O O12 0.472549 0.508928 0.796983
O O13 0.439194 0.513588 0.908865
O O14 0.166667 0.333334 0.833334
#
# Coordination Sequence:
#
# PCOD9579418 Si02
#       7
#    36  36  36  36  36  18  36
#     4  10  20  37  56  82 120 153 198 235 289 357
#     4  10  18  35  51  82 116 152 192 237 286 344
#     4  12  25  34  57  88 121 153 193 253 295 349
#     4  10  22  40  62  78 114 162 197 241 296 357
#     4  11  24  40  55  84 120 155 197 242 295 359
#     4  10  20  38  56  80 114 160 196 232 294 354
#     4  12  24  38  60  86 116 152 203 248 300 358
#
# _framework density 18.809749
#
# number of rings (size 3 to 8) (size 9 to 14) (size 15 to 20)
#    0.000    1.231    5.385    3.231    4.308    3.692 
#    0.000    0.000    0.000    0.615    0.000    2.154 
#    0.000    6.154    0.000    0.000    0.000    0.000 
#
# Total GULP energy -435408.733574 kJ/mol
# GULP energy per Si atom -5582.163251 kJ/mol
# Density = 1.876694 g / cm^3
# Si number density = 18.809749 Si / 1000 Ang^3
#
#
#
# Elastic Constant Matrix: (Units=GPa)
#
#
# Indices 1 2 3 4 5 6 
#
# 1 59.9625 26.2709 13.8295 1.1598 -0.0001 0.0000
# 2 26.2709 59.9625 13.8295 -1.1598 0.0001 0.0000
# 3 13.8295 13.8295 120.4574 0.0000 0.0000 0.0000
# 4 1.1598 -1.1598 0.0000 15.6609 0.0000 0.0001
# 5 -0.0001 0.0001 0.0000 0.0000 15.6609 1.1598
# 6 0.0000 0.0000 0.0000 0.0001 1.1598 16.8458
#
#
#
# Elastic Compliance Matrix: (Units=1/GPa)
#
#
# Indices 1 2 3 4 5 6 
#
# 1 0.020936 -0.008897 -0.001382 -0.002209 0.000000 0.000000
# 2 -0.008897 0.020936 -0.001382 0.002209 0.000000 0.000000
# 3 -0.001382 -0.001382 0.008619 0.000000 0.000000 0.000000
# 4 -0.002209 0.002209 0.000000 0.064180 0.000000 0.000000
# 5 0.000000 0.000000 0.000000 0.000000 0.064180 -0.004419
# 6 0.000000 0.000000 0.000000 0.000000 -0.004419 0.059666
#
#
# Mechanical properties :
#
#
# Convention : Reuss Voigt Hill
#
# Bulk Modulus (GPa) = 36.80585 38.69356 37.74971
# Shear Modulus (GPa) = 18.45714 22.06371 20.26042
#
# Velocity S-wave (km/s) = 3.13590 3.42861 3.28552
# Velocity P-wave (km/s) = 5.72029 6.02408 5.87415
#
# Compressibility (1/GPa) = 0.02716960
#
# Stress axis : x y z
#
# Youngs Moduli (GPa) = 47.76365 47.76365 116.02163
#
# Poissons Ratio (x) = 0.42494 0.16037
# Poissons Ratio (y) = 0.42494 0.16037
# Poissons Ratio (z) = 0.06602 0.06602
#
# Static dielectric constant tensor:
#      x y z
#    x 1.673940 0.000000 0.000000 
#    y 0.000000 1.673940 0.000000 
#    z 0.000000 0.000000 1.706410 
# 
# From -- ./inp_files/4710.got.cif
#   From: 2010.05.17/outbox.cif.g08.bks.cpg/sg167_3_cif.got.tgz:4710.got - 2010.05.20 11:09:15.
