data_PCOD9579877
_publ_section_title
;
Structure prediction by ZEFSAII (Michael W. Deem and Ramdas Pophale) SiO2 
 PCOD9579877
Probable space group: P 61
;
_chemical_formula_sum "Si O2"
_cell_formula_units_Z 48
_cell_length_a 14.283659
_cell_length_b 14.283659
_cell_length_c 13.568488
_cell_angle_alpha 90.000000
_cell_angle_beta 90.000000
_cell_angle_gamma 120.000000
_cell_volume 2397.402941
_symmetry_space_group_name_H-M "P 61"
_symmetry_group_IT_number 169
_symmetry_cell_setting 'hexagonal'
loop_
_space_group_symop_operation_xyz
x,y,z
x-y,x,1/6+z
-y,x-y,1/3+z
-x,-y,1/2+z
-x+y,-x,2/3+z
y,-x+y,5/6+z
loop_
_atom_site_type_symbol
_atom_site_label
_atom_site_fract_x
_atom_site_fract_y
_atom_site_fract_z
Si Si1 0.586103 0.170385 0.015780
Si Si2 0.098041 0.169087 0.018782
Si Si3 0.574591 0.270507 0.359628
Si Si4 0.574025 0.788518 0.048192
Si Si5 0.104902 0.514090 0.063411
Si Si6 0.127891 0.622305 0.538993
Si Si7 0.412675 0.166969 0.891012
Si Si8 0.090856 0.175664 0.702567
O O1 0.624247 0.295675 0.043442
O O2 0.580739 0.107567 0.113110
O O3 0.674903 0.172796 0.939920
O O4 0.468864 0.125539 0.967424
O O5 0.198887 0.288260 0.032732
O O6 0.037925 0.128770 0.124173
O O7 0.010574 0.172109 0.944202
O O8 0.496500 0.221604 0.452570
O O9 0.551938 0.180975 0.279286
O O10 0.565548 0.374396 0.329216
O O11 0.573658 0.878545 0.119836
O O12 0.698359 0.824386 0.028260
O O13 0.149375 0.433553 0.090521
O O14 0.981421 0.461638 0.090914
O O15 0.192101 0.706604 0.626258
O O16 0.107898 0.130809 0.597164
#
# Coordination Sequence:
#
# PCOD9579877 Si02
#       8
#     6   6   6   6   6   6   6   6
#     4  10  20  36  58  87 128 173 212 253 319 395
#     4  10  21  38  63  96 128 155 216 280 326 376
#     4  10  21  39  55  84 129 170 210 260 328 385
#     4  11  20  35  61  89 128 166 212 273 319 387
#     4  11  22  35  58  86 125 170 212 264 315 391
#     4  11  21  33  58  90 120 167 213 257 319 374
#     4  11  19  36  60  90 127 160 213 258 317 377
#     4  10  22  38  63  96 129 159 220 285 337 381
#
# _framework density 20.021667000000001
#
# number of rings (size 3 to 8) (size 9 to 14) (size 15 to 20)
#    0.000    1.500    3.750    4.500    1.750    2.000 
#    0.000    1.250    0.000   16.500    0.000    0.000 
#    0.000    0.000    0.000    0.000    0.000    0.000 
#
# Total GULP energy -267474.375277 kJ/mol
# GULP energy per Si atom -5572.382818 kJ/mol
# Density = 1.997610 g / cm^3
# Si number density = 20.021667 Si / 1000 Ang^3
#
#
#
# Elastic Constant Matrix: (Units=GPa)
#
#
# Indices 1 2 3 4 5 6 
#
# 1 66.1023 27.5210 16.3417 0.0000 0.0000 0.0000
# 2 27.5210 66.1023 16.3417 0.0000 0.0000 0.0000
# 3 16.3417 16.3417 56.4091 0.0000 0.0000 0.0000
# 4 0.0000 0.0000 0.0000 21.5127 0.0000 0.0000
# 5 0.0000 0.0000 0.0000 0.0000 21.5127 0.0000
# 6 0.0000 0.0000 0.0000 0.0000 0.0000 19.2906
#
#
#
# Elastic Compliance Matrix: (Units=1/GPa)
#
#
# Indices 1 2 3 4 5 6 
#
# 1 0.018901 -0.007018 -0.003442 0.000000 0.000000 0.000000
# 2 -0.007018 0.018901 -0.003442 0.000000 0.000000 0.000000
# 3 -0.003442 -0.003442 0.019722 0.000000 0.000000 0.000000
# 4 0.000000 0.000000 0.000000 0.046484 0.000000 0.000000
# 5 0.000000 0.000000 0.000000 0.000000 0.046484 0.000000
# 6 0.000000 0.000000 0.000000 0.000000 0.000000 0.051839
#
#
# Mechanical properties :
#
#
# Convention : Reuss Voigt Hill
#
# Bulk Modulus (GPa) = 33.64959 34.33584 33.99272
# Shear Modulus (GPa) = 20.82954 21.02382 20.92668
#
# Velocity S-wave (km/s) = 3.22895 3.24397 3.23647
# Velocity P-wave (km/s) = 5.54477 5.58728 5.56607
#
# Compressibility (1/GPa) = 0.02971804
#
# Stress axis : x y z
#
# Youngs Moduli (GPa) = 52.90701 52.90701 50.70429
#
# Poissons Ratio (x) = 0.37131 0.17455
# Poissons Ratio (y) = 0.37131 0.17455
# Poissons Ratio (z) = 0.18213 0.18213
#
# Static dielectric constant tensor:
#      x y z
#    x 1.737830 0.000000 0.000000 
#    y 0.000000 1.737830 0.000000 
#    z 0.000000 0.000000 1.740530 
# 
# From -- ./inp_files/1048.got.cif
#   From: 2010.05.17/outbox.cif.g08.bks.cpg/sg169_cif.got.tgz:1048.got - 2010.05.20 11:12:54.
