data_PCOD9579233
_publ_section_title
;
Structure prediction by ZEFSAII (Michael W. Deem and Ramdas Pophale) SiO2 
 PCOD9579233
Probable space group: R -3 M
;
_chemical_formula_sum "Si O2"
_cell_formula_units_Z 126
_cell_length_a 17.301253
_cell_length_b 17.301253
_cell_length_c 22.923409
_cell_angle_alpha 90.000000
_cell_angle_beta 90.000000
_cell_angle_gamma 120.000000
_cell_volume 5942.441962
_symmetry_space_group_name_H-M "R -3 M"
_symmetry_group_IT_number 166
_symmetry_cell_setting 'hexagonal'
loop_
_space_group_symop_operation_xyz
x,y,z
-y,x-y,z
-x+y,-x,z
x-y,-y,-z
-x,-x+y,-z
y,x,-z
-x,-y,-z
y,-x+y,-z
x-y,x,-z
-x+y,y,z
x,x-y,z
-y,-x,z
2/3+x,1/3+y,1/3+z
2/3-y,1/3+x-y,1/3+z
2/3-x+y,1/3-x,1/3+z
2/3+x-y,1/3-y,1/3-z
2/3-x,1/3-x+y,1/3-z
2/3+y,1/3+x,1/3-z
2/3-x,1/3-y,1/3-z
2/3+y,1/3-x+y,1/3-z
2/3+x-y,1/3+x,1/3-z
2/3-x+y,1/3+y,1/3+z
2/3+x,1/3+x-y,1/3+z
2/3-y,1/3-x,1/3+z
1/3+x,2/3+y,2/3+z
1/3-y,2/3+x-y,2/3+z
1/3-x+y,2/3-x,2/3+z
1/3+x-y,2/3-y,2/3-z
1/3-x,2/3-x+y,2/3-z
1/3+y,2/3+x,2/3-z
1/3-x,2/3-y,2/3-z
1/3+y,2/3-x+y,2/3-z
1/3+x-y,2/3+x,2/3-z
1/3-x+y,2/3+y,2/3+z
1/3+x,2/3+x-y,2/3+z
1/3-y,2/3-x,2/3+z
loop_
_atom_site_type_symbol
_atom_site_label
_atom_site_fract_x
_atom_site_fract_y
_atom_site_fract_z
Si Si1 0.841089 0.508292 0.614264
Si Si2 0.666658 0.505052 0.754527
Si Si3 0.978097 0.650067 0.231884
Si Si4 0.333334 0.852640 0.666667
O O1 0.746993 0.493985 0.592732
O O2 0.856874 0.428437 0.594107
O O3 0.839031 0.506358 0.684212
O O4 0.921452 0.602813 0.595989
O O5 0.766278 0.532555 0.773323
O O6 0.595640 0.404361 0.771524
O O7 0.632521 0.571856 0.773159
O O8 0.954040 0.666667 0.166667
O O9 0.904106 0.577444 0.275454
O O10 0.422975 0.845950 0.670111
#
# Coordination Sequence:
#
# PCOD9579233 Si02
#       4
#    36  36  36  18
#     4  10  20  37  62  93 127 164 208 264 329 396
#     4  10  20  37  62  94 131 171 215 266 328 401
#     4  12  25  42  68  99 132 175 229 285 341 405
#     4  12  27  50  75 102 138 184 238 292 349 414
#
# _framework density 21.203405
#
# number of rings (size 3 to 8) (size 9 to 14) (size 15 to 20)
#    0.000    1.143    2.857    3.286    0.000   11.429 
#    0.000    0.000    0.000    5.143    0.000    0.000 
#    0.000    0.000    0.000    0.000    0.000    0.000 
#
# Total GULP energy -234637.543833 kJ/mol
# GULP energy per Si atom -5586.608186 kJ/mol
# Density = 2.115514 g / cm^3
# Si number density = 21.203405 Si / 1000 Ang^3
#
#
#
# Elastic Constant Matrix: (Units=GPa)
#
#
# Indices 1 2 3 4 5 6 
#
# 1 94.5502 20.1433 37.0543 1.4597 -0.0004 0.0000
# 2 20.1433 94.5502 37.0543 -1.4597 0.0004 0.0000
# 3 37.0543 37.0543 111.2017 0.0000 0.0000 0.0000
# 4 1.4597 -1.4597 0.0000 -5.7556 0.0000 0.0004
# 5 -0.0004 0.0004 0.0000 0.0000 -5.7556 1.4597
# 6 0.0000 0.0000 0.0000 0.0004 1.4597 37.2034
#
#
#
# Elastic Compliance Matrix: (Units=1/GPa)
#
#
# Indices 1 2 3 4 5 6 
#
# 1 0.012209 -0.001098 -0.003702 0.003375 -0.000001 0.000000
# 2 -0.001098 0.012209 -0.003702 -0.003375 0.000001 0.000000
# 3 -0.003702 -0.003702 0.011460 0.000000 0.000000 0.000000
# 4 0.003375 -0.003375 0.000000 -0.172031 0.000000 0.000002
# 5 -0.000001 0.000001 0.000000 0.000000 -0.172031 0.006750
# 6 0.000000 0.000000 0.000000 0.000002 0.006750 0.026614
#
#
# Mechanical properties :
#
#
# Convention : Reuss Voigt Hill
#
# Bulk Modulus (GPa) = 52.98646 54.31176 53.64911
# Shear Modulus (GPa) = -19.35943 18.87512 -0.24216
#
# Velocity S-wave (km/s) = -3.02492 2.98685 -0.33831
# Velocity P-wave (km/s) = 3.58380 6.12905 5.02040
#
# Compressibility (1/GPa) = 0.01887274
#
# Stress axis : x y z
#
# Youngs Moduli (GPa) = 81.90545 81.90545 87.25931
#
# Poissons Ratio (x) = 0.08993 0.32307
# Poissons Ratio (y) = 0.08993 0.32307
# Poissons Ratio (z) = 0.30325 0.30325
#
# Static dielectric constant tensor:
#      x y z
#    x 1.717290 0.000000 0.000000 
#    y 0.000000 1.717290 0.000000 
#    z 0.000000 0.000000 1.825390 
# 
# From -- ./inp_files/7812.got.cif
#   From: 2010.05.17/outbox.cif.g08.bks.cpg/sg166_4_cif.got.tgz:7812.got - 2010.05.20 11:04:41.
