data_PCOD9579352
_publ_section_title
;
Structure prediction by ZEFSAII (Michael W. Deem and Ramdas Pophale) SiO2 
 PCOD9579352
Probable space group: R -3 M
;
_chemical_formula_sum "Si O2"
_cell_formula_units_Z 120
_cell_length_a 18.339942
_cell_length_b 18.339942
_cell_length_c 22.461527
_cell_angle_alpha 90.000000
_cell_angle_beta 90.000000
_cell_angle_gamma 120.000000
_cell_volume 6542.832842
_symmetry_space_group_name_H-M "R -3 M"
_symmetry_group_IT_number 166
_symmetry_cell_setting 'hexagonal'
loop_
_space_group_symop_operation_xyz
x,y,z
-y,x-y,z
-x+y,-x,z
x-y,-y,-z
-x,-x+y,-z
y,x,-z
-x,-y,-z
y,-x+y,-z
x-y,x,-z
-x+y,y,z
x,x-y,z
-y,-x,z
2/3+x,1/3+y,1/3+z
2/3-y,1/3+x-y,1/3+z
2/3-x+y,1/3-x,1/3+z
2/3+x-y,1/3-y,1/3-z
2/3-x,1/3-x+y,1/3-z
2/3+y,1/3+x,1/3-z
2/3-x,1/3-y,1/3-z
2/3+y,1/3-x+y,1/3-z
2/3+x-y,1/3+x,1/3-z
2/3-x+y,1/3+y,1/3+z
2/3+x,1/3+x-y,1/3+z
2/3-y,1/3-x,1/3+z
1/3+x,2/3+y,2/3+z
1/3-y,2/3+x-y,2/3+z
1/3-x+y,2/3-x,2/3+z
1/3+x-y,2/3-y,2/3-z
1/3-x,2/3-x+y,2/3-z
1/3+y,2/3+x,2/3-z
1/3-x,2/3-y,2/3-z
1/3+y,2/3-x+y,2/3-z
1/3+x-y,2/3+x,2/3-z
1/3-x+y,2/3+y,2/3+z
1/3+x,2/3+x-y,2/3+z
1/3-y,2/3-x,2/3+z
loop_
_atom_site_type_symbol
_atom_site_label
_atom_site_fract_x
_atom_site_fract_y
_atom_site_fract_z
Si Si1 0.616944 0.058473 0.058472
Si Si2 0.000000 0.000000 0.875817
Si Si3 0.152544 0.847457 0.576269
Si Si4 0.583881 0.167761 0.291939
Si Si5 0.666667 0.620895 0.833334
Si Si6 0.333334 0.666668 0.937859
Si Si7 0.858373 0.429187 0.641629
O O1 0.533074 0.066148 0.066152
O O2 0.699446 0.147571 0.051876
O O3 0.635656 0.019981 0.115671
O O4 0.599222 0.000000 0.000000
O O5 0.952514 0.047487 0.905025
O O6 0.000000 0.000000 0.802710
O O7 0.201811 0.798190 0.600903
O O8 0.210862 0.927580 0.536207
O O9 0.118568 0.881433 0.628503
O O10 0.666667 0.190875 0.333334
O O11 0.425628 0.712814 0.965749
#
# Coordination Sequence:
#
# PCOD9579352 Si02
#       7
#    36   6  18  18  18   6  18
#     4  11  24  45  70  98 138 177 228 287 346 406
#     4   9  22  46  69  93 136 187 228 277 350 430
#     4  12  27  43  70 106 136 183 234 283 347 424
#     4   9  22  46  69  93 136 187 228 277 350 430
#     4  12  26  45  70  99 140 184 224 280 352 415
#     4  12  27  43  70 106 136 183 234 283 347 424
#     4  12  26  45  70  99 140 184 224 280 352 415
#
# _framework density 18.340679999999999
#
# number of rings (size 3 to 8) (size 9 to 14) (size 15 to 20)
#    0.000    0.900    6.000    0.600    8.400    1.800 
#    0.000    0.000    0.000    1.200    0.000    0.000 
#    0.000    0.000    0.000    0.000    0.000    0.000 
#
# Total GULP energy -222872.566502 kJ/mol
# GULP energy per Si atom -5571.814163 kJ/mol
# Density = 1.829894 g / cm^3
# Si number density = 18.340680 Si / 1000 Ang^3
#
#
#
# Elastic Constant Matrix: (Units=GPa)
#
#
# Indices 1 2 3 4 5 6 
#
# 1 152.5364 105.4511 117.5832 17.1865 0.0010 0.0000
# 2 105.4511 152.5356 117.5831 -17.1863 -0.0010 0.0000
# 3 117.5832 117.5831 140.3139 0.0001 0.0000 0.0000
# 4 17.1865 -17.1863 0.0001 35.6860 0.0000 -0.0010
# 5 0.0010 -0.0010 0.0000 0.0000 35.6860 17.1864
# 6 0.0000 0.0000 0.0000 -0.0010 17.1864 23.5426
#
#
#
# Elastic Compliance Matrix: (Units=1/GPa)
#
#
# Indices 1 2 3 4 5 6 
#
# 1 0.024584 -0.008169 -0.013756 -0.015774 -0.000001 0.000000
# 2 -0.008169 0.024585 -0.013756 0.015774 0.000001 0.000000
# 3 -0.013756 -0.013756 0.030182 0.000000 0.000000 0.000000
# 4 -0.015774 0.015774 0.000000 0.043216 0.000000 0.000002
# 5 -0.000001 0.000001 0.000000 0.000000 0.043216 -0.031548
# 6 0.000000 0.000000 0.000000 0.000002 -0.031548 0.065506
#
#
# Mechanical properties :
#
#
# Convention : Reuss Voigt Hill
#
# Bulk Modulus (GPa) = 125.18007 125.18009 125.18008
# Shear Modulus (GPa) = 16.37648 25.96749 21.17199
#
# Velocity S-wave (km/s) = 2.99139 3.76685 3.40129
# Velocity P-wave (km/s) = 8.96282 9.34450 9.15565
#
# Compressibility (1/GPa) = 0.00798849
#
# Stress axis : x y z
#
# Youngs Moduli (GPa) = 40.67612 40.67548 33.13179
#
# Poissons Ratio (x) = 0.33228 0.45577
# Poissons Ratio (y) = 0.33228 0.45578
# Poissons Ratio (z) = 0.55955 0.55955
#
# Static dielectric constant tensor:
#      x y z
#    x 1.692200 0.000000 0.000000 
#    y 0.000000 1.692200 0.000000 
#    z 0.000000 0.000000 1.692170 
# 
# From -- ./inp_files/7887.got.cif
#   From: 2010.05.17/outbox.cif.g08.bks.cpg/sg166_4_cif.got.tgz:7887.got - 2010.05.20 11:04:41.
