data_PCOD9579471
_publ_section_title
;
Structure prediction by ZEFSAII (Michael W. Deem and Ramdas Pophale) SiO2 
 PCOD9579471
Probable space group: R -3 C 
;
_chemical_formula_sum "Si O2"
_cell_formula_units_Z 270
_cell_length_a 26.360536
_cell_length_b 26.360536
_cell_length_c 30.652530
_cell_angle_alpha 90.000000
_cell_angle_beta 90.000000
_cell_angle_gamma 120.000000
_cell_volume 18446.137061
_symmetry_space_group_name_H-M "R -3 C "
_symmetry_group_IT_number 167
_symmetry_cell_setting 'hexagonal'
loop_
_space_group_symop_operation_xyz
x,y,z
-y,x-y,z
-x+y,-x,z
x-y,-y,1/2-z
-x,-x+y,1/2-z
y,x,1/2-z
-x,-y,-z
y,-x+y,-z
x-y,x,-z
-x+y,y,1/2+z
x,x-y,1/2+z
-y,-x,1/2+z
2/3+x,1/3+y,1/3+z
2/3-y,1/3+x-y,1/3+z
2/3-x+y,1/3-x,1/3+z
2/3+x-y,1/3-y,5/6-z
2/3-x,1/3-x+y,5/6-z
2/3+y,1/3+x,5/6-z
2/3-x,1/3-y,1/3-z
2/3+y,1/3-x+y,1/3-z
2/3+x-y,1/3+x,1/3-z
2/3-x+y,1/3+y,5/6+z
2/3+x,1/3+x-y,5/6+z
2/3-y,1/3-x,5/6+z
1/3+x,2/3+y,2/3+z
1/3-y,2/3+x-y,2/3+z
1/3-x+y,2/3-x,2/3+z
1/3+x-y,2/3-y,1/6-z
1/3-x,2/3-x+y,1/6-z
1/3+y,2/3+x,1/6-z
1/3-x,2/3-y,2/3-z
1/3+y,2/3-x+y,2/3-z
1/3+x-y,2/3+x,2/3-z
1/3-x+y,2/3+y,1/6+z
1/3+x,2/3+x-y,1/6+z
1/3-y,2/3-x,1/6+z
loop_
_atom_site_type_symbol
_atom_site_label
_atom_site_fract_x
_atom_site_fract_y
_atom_site_fract_z
Si Si1 0.783757 0.186101 0.667796
Si Si2 0.915832 0.555404 0.988713
Si Si3 0.099352 0.365615 0.402323
Si Si4 0.430738 0.945086 0.781518
Si Si5 0.313576 0.145295 0.022329
Si Si6 0.810301 0.078294 0.436683
Si Si7 0.386654 0.053320 0.583334
Si Si8 0.210981 0.265381 0.421129
O O1 0.833334 0.166667 0.666667
O O2 0.820966 0.255582 0.674254
O O3 0.748364 0.158422 0.623718
O O4 0.742056 0.153022 0.707888
O O5 0.873832 0.570939 0.961024
O O6 0.978802 0.587607 0.963730
O O7 0.920579 0.578821 0.038072
O O8 0.064128 0.397461 0.416667
O O9 0.120350 0.340153 0.441943
O O10 0.462604 0.916097 0.755136
O O11 0.442245 0.000000 0.750000
O O12 0.468345 0.971797 0.825783
O O13 0.276156 0.170178 0.045787
O O14 0.277039 0.095244 0.987240
O O15 0.765732 0.099065 0.416667
O O16 0.785858 0.010362 0.431017
O O17 0.324335 0.050028 0.579077
#
# Coordination Sequence:
#
# PCOD9579471 Si02
#       8
#    36  36  36  36  36  36  18  36
#     4  10  20  34  44  74 104 130 174 207 242 303
#     4  11  20  33  49  70 103 137 173 209 245 298
#     4  11  22  31  48  74 104 138 170 208 250 302
#     4   9  20  34  47  72  99 129 174 214 249 303
#     4  10  20  34  47  74 100 135 173 213 243 303
#     4   9  22  33  50  74 100 134 175 209 258 308
#     4  12  20  26  54  74  92 156 170 190 258 304
#     4  12  19  35  51  70 105 139 174 208 247 311
#
# _framework density 14.637211000000001
#
# number of rings (size 3 to 8) (size 9 to 14) (size 15 to 20)
#    0.000    1.867    7.333    0.400    5.600    2.133 
#    0.000    0.000    0.000    0.000    0.000    0.000 
#    1.333    1.067    2.267    0.000    0.000    0.000 
#
# Total GULP energy -501315.177756 kJ/mol
# GULP energy per Si atom -5570.168642 kJ/mol
# Density = 1.460390 g / cm^3
# Si number density = 14.637211 Si / 1000 Ang^3
#
#
#
# Elastic Constant Matrix: (Units=GPa)
#
#
# Indices 1 2 3 4 5 6 
#
# 1 102.2044 44.5524 54.7981 -6.4829 0.0000 0.0000
# 2 44.5524 102.2044 54.7981 6.4829 0.0000 0.0000
# 3 54.7981 54.7981 121.6972 0.0000 0.0000 0.0000
# 4 -6.4829 6.4829 0.0000 19.4605 0.0000 0.0000
# 5 0.0000 0.0000 0.0000 0.0000 19.4605 -6.4829
# 6 0.0000 0.0000 0.0000 0.0000 -6.4829 28.8260
#
#
#
# Elastic Compliance Matrix: (Units=1/GPa)
#
#
# Indices 1 2 3 4 5 6 
#
# 1 0.014508 -0.004242 -0.004623 0.006246 0.000000 0.000000
# 2 -0.004242 0.014508 -0.004623 -0.006246 0.000000 0.000000
# 3 -0.004623 -0.004623 0.012380 0.000000 0.000000 0.000000
# 4 0.006246 -0.006246 0.000000 0.055548 0.000000 0.000000
# 5 0.000000 0.000000 0.000000 0.000000 0.055548 0.012493
# 6 0.000000 0.000000 0.000000 0.000000 0.012493 0.037500
#
#
# Mechanical properties :
#
#
# Convention : Reuss Voigt Hill
#
# Bulk Modulus (GPa) = 69.33965 70.48922 69.91443
# Shear Modulus (GPa) = 22.54541 25.01323 23.77932
#
# Velocity S-wave (km/s) = 3.92890 4.13834 4.03498
# Velocity P-wave (km/s) = 8.24965 8.43188 8.34126
#
# Compressibility (1/GPa) = 0.01442176
#
# Stress axis : x y z
#
# Youngs Moduli (GPa) = 68.92658 68.92658 80.77474
#
# Poissons Ratio (x) = 0.29239 0.37339
# Poissons Ratio (y) = 0.29239 0.37339
# Poissons Ratio (z) = 0.31862 0.31862
#
# Static dielectric constant tensor:
#      x y z
#    x 1.480720 0.000000 0.000000 
#    y 0.000000 1.480720 0.000000 
#    z 0.000000 0.000000 1.510890 
# 
# From -- ./inp_files/7293.got.cif
#   From: 2010.05.17/outbox.cif.g08.bks.cpg/sg167_4_cif.got.tgz:7293.got - 2010.05.20 11:09:15.
