data_PCOD9579455
_publ_section_title
;
Structure prediction by ZEFSAII (Michael W. Deem and Ramdas Pophale) SiO2 
 PCOD9579455
Probable space group: R -3 C 
;
_chemical_formula_sum "Si O2"
_cell_formula_units_Z 162
_cell_length_a 22.389940
_cell_length_b 22.389940
_cell_length_c 17.081067
_cell_angle_alpha 90.000000
_cell_angle_beta 90.000000
_cell_angle_gamma 120.000000
_cell_volume 7415.688648
_symmetry_space_group_name_H-M "R -3 C "
_symmetry_group_IT_number 167
_symmetry_cell_setting 'hexagonal'
loop_
_space_group_symop_operation_xyz
x,y,z
-y,x-y,z
-x+y,-x,z
x-y,-y,1/2-z
-x,-x+y,1/2-z
y,x,1/2-z
-x,-y,-z
y,-x+y,-z
x-y,x,-z
-x+y,y,1/2+z
x,x-y,1/2+z
-y,-x,1/2+z
2/3+x,1/3+y,1/3+z
2/3-y,1/3+x-y,1/3+z
2/3-x+y,1/3-x,1/3+z
2/3+x-y,1/3-y,5/6-z
2/3-x,1/3-x+y,5/6-z
2/3+y,1/3+x,5/6-z
2/3-x,1/3-y,1/3-z
2/3+y,1/3-x+y,1/3-z
2/3+x-y,1/3+x,1/3-z
2/3-x+y,1/3+y,5/6+z
2/3+x,1/3+x-y,5/6+z
2/3-y,1/3-x,5/6+z
1/3+x,2/3+y,2/3+z
1/3-y,2/3+x-y,2/3+z
1/3-x+y,2/3-x,2/3+z
1/3+x-y,2/3-y,1/6-z
1/3-x,2/3-x+y,1/6-z
1/3+y,2/3+x,1/6-z
1/3-x,2/3-y,2/3-z
1/3+y,2/3-x+y,2/3-z
1/3+x-y,2/3+x,2/3-z
1/3-x+y,2/3+y,1/6+z
1/3+x,2/3+x-y,1/6+z
1/3-y,2/3-x,1/6+z
loop_
_atom_site_type_symbol
_atom_site_label
_atom_site_fract_x
_atom_site_fract_y
_atom_site_fract_z
Si Si1 0.426186 0.972269 0.041555
Si Si2 0.380329 0.560810 0.574188
Si Si3 0.863115 0.707550 0.838584
Si Si4 0.939978 0.606644 0.083334
Si Si5 0.378349 0.816056 0.262965
O O1 0.386303 0.889116 0.042762
O O2 0.456131 0.998492 0.127817
O O3 0.374664 0.988914 0.991627
O O4 0.500000 0.000000 0.000000
O O5 0.381502 0.557596 0.668681
O O6 0.310307 0.559498 0.552123
O O7 0.444133 0.632418 0.546895
O O8 0.861521 0.666667 0.916667
O O9 0.868643 0.778439 0.863426
O O10 0.932141 0.724580 0.789259
#
# Coordination Sequence:
#
# PCOD9579455 Si02
#       5
#    36  36  36  18  36
#     4  10  21  38  64  88 126 178 221 270 354 404
#     4  10  19  37  63  96 131 175 214 278 335 407
#     4  11  21  39  67  96 130 179 230 284 341 418
#     4  10  22  42  64  90 132 180 212 288 356 402
#     4  10  20  35  66  96 132 170 225 274 337 404
#
# _framework density 21.845576000000001
#
# number of rings (size 3 to 8) (size 9 to 14) (size 15 to 20)
#    0.000    1.778    4.444    0.444    0.000    1.778 
#    0.000    8.889    2.444    0.000    0.000    0.000 
#    0.000    0.000    0.000    0.000    0.000    0.000 
#
# Total GULP energy -300711.686487 kJ/mol
# GULP energy per Si atom -5568.734935 kJ/mol
# Density = 2.179585 g / cm^3
# Si number density = 21.845576 Si / 1000 Ang^3
#
#
#
# Elastic Constant Matrix: (Units=GPa)
#
#
# Indices 1 2 3 4 5 6 
#
# 1 -16.3758 89.8903 29.3301 -38.8434 0.0010 0.0000
# 2 89.8903 -16.3758 29.3301 38.8434 -0.0010 0.0000
# 3 29.3301 29.3301 70.6469 0.0000 0.0000 0.0000
# 4 -38.8434 38.8434 0.0000 -6.7754 0.0000 -0.0010
# 5 0.0010 -0.0010 0.0000 0.0000 -6.7754 -38.8434
# 6 0.0000 0.0000 0.0000 -0.0010 -38.8434 -53.1331
#
#
#
# Elastic Compliance Matrix: (Units=1/GPa)
#
#
# Indices 1 2 3 4 5 6 
#
# 1 0.011645 0.008696 -0.008445 -0.016906 0.000000 0.000000
# 2 0.008696 0.011645 -0.008445 0.016906 0.000000 0.000000
# 3 -0.008445 -0.008445 0.021167 0.000000 0.000000 0.000000
# 4 -0.016906 0.016906 0.000000 0.046250 0.000000 -0.000001
# 5 0.000000 0.000000 0.000000 0.000000 0.046250 -0.033812
# 6 0.000000 0.000000 0.000000 -0.000001 -0.033812 0.005898
#
#
# Mechanical properties :
#
#
# Convention : Reuss Voigt Hill
#
# Bulk Modulus (GPa) = 35.62557 37.22182 36.42370
# Shear Modulus (GPa) = 29.65601 -20.71380 4.47111
#
# Velocity S-wave (km/s) = 3.68846 -3.08261 1.43218
# Velocity P-wave (km/s) = 5.87222 2.09895 4.40957
#
# Compressibility (1/GPa) = 0.02806972
#
# Stress axis : x y z
#
# Youngs Moduli (GPa) = 85.87279 85.87279 47.24318
#
# Poissons Ratio (x) = -0.74677 0.39897
# Poissons Ratio (y) = -0.74677 0.39897
# Poissons Ratio (z) = 0.72520 0.72520
#
# Static dielectric constant tensor:
#      x y z
#    x 1.789440 0.000000 0.000000 
#    y 0.000000 1.789440 0.000000 
#    z 0.000000 0.000000 1.977970 
# 
# From -- ./inp_files/3430.got.cif
#   From: 2010.05.17/outbox.cif.g08.bks.cpg/sg167_2_cif.got.tgz:3430.got - 2010.05.20 11:09:15.
