data_PCOD9579242
_publ_section_title
;
Structure prediction by ZEFSAII (Michael W. Deem and Ramdas Pophale) SiO2 
 PCOD9579242
Probable space group: R -3 M
;
_chemical_formula_sum "Si O2"
_cell_formula_units_Z 132
_cell_length_a 23.250861
_cell_length_b 23.250861
_cell_length_c 15.409508
_cell_angle_alpha 90.000000
_cell_angle_beta 90.000000
_cell_angle_gamma 120.000000
_cell_volume 7214.354584
_symmetry_space_group_name_H-M "R -3 M"
_symmetry_group_IT_number 166
_symmetry_cell_setting 'hexagonal'
loop_
_space_group_symop_operation_xyz
x,y,z
-y,x-y,z
-x+y,-x,z
x-y,-y,-z
-x,-x+y,-z
y,x,-z
-x,-y,-z
y,-x+y,-z
x-y,x,-z
-x+y,y,z
x,x-y,z
-y,-x,z
2/3+x,1/3+y,1/3+z
2/3-y,1/3+x-y,1/3+z
2/3-x+y,1/3-x,1/3+z
2/3+x-y,1/3-y,1/3-z
2/3-x,1/3-x+y,1/3-z
2/3+y,1/3+x,1/3-z
2/3-x,1/3-y,1/3-z
2/3+y,1/3-x+y,1/3-z
2/3+x-y,1/3+x,1/3-z
2/3-x+y,1/3+y,1/3+z
2/3+x,1/3+x-y,1/3+z
2/3-y,1/3-x,1/3+z
1/3+x,2/3+y,2/3+z
1/3-y,2/3+x-y,2/3+z
1/3-x+y,2/3-x,2/3+z
1/3+x-y,2/3-y,2/3-z
1/3-x,2/3-x+y,2/3-z
1/3+y,2/3+x,2/3-z
1/3-x,2/3-y,2/3-z
1/3+y,2/3-x+y,2/3-z
1/3+x-y,2/3+x,2/3-z
1/3-x+y,2/3+y,2/3+z
1/3+x,2/3+x-y,2/3+z
1/3-y,2/3-x,2/3+z
loop_
_atom_site_type_symbol
_atom_site_label
_atom_site_fract_x
_atom_site_fract_y
_atom_site_fract_z
Si Si1 0.475809 0.304660 0.642079
Si Si2 0.290220 0.349389 0.934214
Si Si3 0.666668 0.333334 0.434766
Si Si4 0.141320 0.858681 0.913612
Si Si5 0.595825 0.191649 0.522662
Si Si6 0.197703 0.531036 0.166667
O O1 0.452999 0.226500 0.629461
O O2 0.432313 0.336819 0.610744
O O3 0.542039 0.347803 0.585667
O O4 0.489495 0.319711 0.744876
O O5 0.293667 0.333334 0.833334
O O6 0.211631 0.307365 0.960049
O O7 0.325281 0.325281 0.000000
O O8 0.666668 0.333335 0.333334
O O9 0.628900 0.257800 0.466740
O O10 0.166667 0.833334 0.833334
O O11 0.104257 0.895743 0.872039
O O12 0.269146 0.538291 0.151296
#
# Coordination Sequence:
#
# PCOD9579242 Si02
#       6
#    36  36   6  18  18  18
#     4  11  22  39  64  93 130 171 215 262 326 388
#     4  11  24  44  66  93 124 168 218 274 325 387
#     4  12  30  42  63 106 146 163 207 288 345 390
#     4  10  20  42  70  90 118 166 224 262 310 402
#     4  12  20  42  69  92 130 173 209 263 329 390
#     4  10  21  32  56  94 130 163 202 252 308 388
#
# _framework density 18.296855999999998
#
# number of rings (size 3 to 8) (size 9 to 14) (size 15 to 20)
#    0.000    1.091    8.182    0.136    1.909    1.636 
#    2.455    0.000    0.000    0.000    0.000    0.000 
#    0.000    0.000    0.000    0.000    0.000    0.000 
#
# Total GULP energy -245077.361865 kJ/mol
# GULP energy per Si atom -5569.940042 kJ/mol
# Density = 1.825521 g / cm^3
# Si number density = 18.296856 Si / 1000 Ang^3
#
#
#
# Elastic Constant Matrix: (Units=GPa)
#
#
# Indices 1 2 3 4 5 6 
#
# 1 64.7764 101.7822 65.6430 -34.4047 0.0034 0.0000
# 2 101.7822 64.7798 65.6402 34.4040 -0.0034 0.0000
# 3 65.6430 65.6402 116.2589 0.0006 0.0000 0.0000
# 4 -34.4047 34.4040 0.0006 20.2865 0.0000 -0.0034
# 5 0.0034 -0.0034 0.0000 0.0000 20.2855 -34.4076
# 6 0.0000 0.0000 0.0000 -0.0034 -34.4076 -18.5111
#
#
#
# Elastic Compliance Matrix: (Units=1/GPa)
#
#
# Indices 1 2 3 4 5 6 
#
# 1 0.002156 0.008662 -0.006108 -0.011034 0.000001 0.000000
# 2 0.008662 0.002156 -0.006109 0.011034 -0.000001 0.000000
# 3 -0.006108 -0.006109 0.015499 0.000001 0.000000 0.000000
# 4 -0.011034 0.011034 0.000001 0.011868 0.000000 -0.000002
# 5 0.000001 -0.000001 0.000000 0.000000 0.011871 -0.022065
# 6 0.000000 0.000000 0.000000 -0.000002 -0.022065 -0.013009
#
#
# Mechanical properties :
#
#
# Convention : Reuss Voigt Hill
#
# Bulk Modulus (GPa) = 78.72202 79.10509 78.91355
# Shear Modulus (GPa) = 119.37834 5.26217 62.32025
#
# Velocity S-wave (km/s) = 8.08622 1.69772 5.84248
# Velocity P-wave (km/s) = 11.41494 6.86812 9.41998
#
# Compressibility (1/GPa) = 0.01270293
#
# Stress axis : x y z
#
# Youngs Moduli (GPa) = 463.89596 463.73085 64.52005
#
# Poissons Ratio (x) = -4.01697 0.39408
# Poissons Ratio (y) = -4.01840 0.39412
# Poissons Ratio (z) = 2.83341 2.83272
#
# Static dielectric constant tensor:
#      x y z
#    x 2.083320 0.000000 0.000000 
#    y 0.000000 2.082450 0.000020 
#    z 0.000000 0.000020 1.670950 
# 
# From -- ./inp_files/4090.got.cif
#   From: 2010.05.17/outbox.cif.g08.bks.cpg/sg166_3_cif.got.tgz:4090.got - 2010.05.20 11:04:41.
