data_PCOD9579399
_publ_section_title
;
Structure prediction by ZEFSAII (Michael W. Deem and Ramdas Pophale) SiO2 
 PCOD9579399
Probable space group: R -3 C 
;
_chemical_formula_sum "Si O2"
_cell_formula_units_Z 144
_cell_length_a 18.833247
_cell_length_b 18.833247
_cell_length_c 25.472197
_cell_angle_alpha 90.000000
_cell_angle_beta 90.000000
_cell_angle_gamma 120.000000
_cell_volume 7824.335082
_symmetry_space_group_name_H-M "R -3 C "
_symmetry_group_IT_number 167
_symmetry_cell_setting 'hexagonal'
loop_
_space_group_symop_operation_xyz
x,y,z
-y,x-y,z
-x+y,-x,z
x-y,-y,1/2-z
-x,-x+y,1/2-z
y,x,1/2-z
-x,-y,-z
y,-x+y,-z
x-y,x,-z
-x+y,y,1/2+z
x,x-y,1/2+z
-y,-x,1/2+z
2/3+x,1/3+y,1/3+z
2/3-y,1/3+x-y,1/3+z
2/3-x+y,1/3-x,1/3+z
2/3+x-y,1/3-y,5/6-z
2/3-x,1/3-x+y,5/6-z
2/3+y,1/3+x,5/6-z
2/3-x,1/3-y,1/3-z
2/3+y,1/3-x+y,1/3-z
2/3+x-y,1/3+x,1/3-z
2/3-x+y,1/3+y,5/6+z
2/3+x,1/3+x-y,5/6+z
2/3-y,1/3-x,5/6+z
1/3+x,2/3+y,2/3+z
1/3-y,2/3+x-y,2/3+z
1/3-x+y,2/3-x,2/3+z
1/3+x-y,2/3-y,1/6-z
1/3-x,2/3-x+y,1/6-z
1/3+y,2/3+x,1/6-z
1/3-x,2/3-y,2/3-z
1/3+y,2/3-x+y,2/3-z
1/3+x-y,2/3+x,2/3-z
1/3-x+y,2/3+y,1/6+z
1/3+x,2/3+x-y,1/6+z
1/3-y,2/3-x,1/6+z
loop_
_atom_site_type_symbol
_atom_site_label
_atom_site_fract_x
_atom_site_fract_y
_atom_site_fract_z
Si Si1 0.091491 0.324938 0.458849
Si Si2 0.734418 0.940198 0.324908
Si Si3 0.563095 0.555078 0.807840
Si Si4 0.807843 0.036229 0.694737
O O1 0.107050 0.351672 0.397868
O O2 0.114198 0.410087 0.488621
O O3 0.149496 0.294532 0.483217
O O4 0.995083 0.263875 0.468914
O O5 0.786371 0.894165 0.327652
O O6 0.661514 0.909102 0.367138
O O7 0.526606 0.526606 0.750000
O O8 0.544405 0.626478 0.825580
O O9 0.814272 0.000000 0.750000
#
# Coordination Sequence:
#
# PCOD9579399 Si02
#       4
#    36  36  36  36
#     4  10  19  35  54  78 118 141 184 235 285 327
#     4   9  18  32  52  80 108 143 180 225 278 341
#     4  11  21  36  52  84 116 146 189 242 277 339
#     4  10  17  30  56  76 105 145 176 224 286 330
#
# _framework density 18.404119000000001
#
# number of rings (size 3 to 8) (size 9 to 14) (size 15 to 20)
#    0.000    2.000    7.500    0.000    0.000    4.000 
#    0.000    0.000    0.000    1.500    6.500    0.000 
#    0.000    0.000    0.000    0.000    0.000    0.000 
#
# Total GULP energy -267212.116540 kJ/mol
# GULP energy per Si atom -5566.919095 kJ/mol
# Density = 1.836223 g / cm^3
# Si number density = 18.404119 Si / 1000 Ang^3
#
#
#
# Elastic Constant Matrix: (Units=GPa)
#
#
# Indices 1 2 3 4 5 6 
#
# 1 55.5961 14.4171 10.1177 -0.6604 0.0000 0.0000
# 2 14.4171 55.5961 10.1177 0.6604 0.0000 0.0000
# 3 10.1177 10.1177 40.2731 0.0000 0.0000 0.0000
# 4 -0.6604 0.6604 0.0000 24.9992 0.0000 0.0000
# 5 0.0000 0.0000 0.0000 0.0000 24.9992 -0.6604
# 6 0.0000 0.0000 0.0000 0.0000 -0.6604 20.5895
#
#
#
# Elastic Compliance Matrix: (Units=1/GPa)
#
#
# Indices 1 2 3 4 5 6 
#
# 1 0.019853 -0.004452 -0.003869 0.000642 0.000000 0.000000
# 2 -0.004452 0.019853 -0.003869 -0.000642 0.000000 0.000000
# 3 -0.003869 -0.003869 0.026775 0.000000 0.000000 0.000000
# 4 0.000642 -0.000642 0.000000 0.040035 0.000000 0.000000
# 5 0.000000 0.000000 0.000000 0.000000 0.040035 0.001284
# 6 0.000000 0.000000 0.000000 0.000000 0.001284 0.048610
#
#
# Mechanical properties :
#
#
# Convention : Reuss Voigt Hill
#
# Bulk Modulus (GPa) = 23.75279 24.53001 24.14140
# Shear Modulus (GPa) = 21.40645 21.90511 21.65578
#
# Velocity S-wave (km/s) = 3.41417 3.45371 3.43400
# Velocity P-wave (km/s) = 5.33633 5.40940 5.37299
#
# Compressibility (1/GPa) = 0.04210032
#
# Stress axis : x y z
#
# Youngs Moduli (GPa) = 50.37005 50.37005 37.34892
#
# Poissons Ratio (x) = 0.22424 0.14451
# Poissons Ratio (y) = 0.22424 0.14451
# Poissons Ratio (z) = 0.19489 0.19489
#
# Static dielectric constant tensor:
#      x y z
#    x 1.663290 0.000000 0.000000 
#    y 0.000000 1.663290 0.000000 
#    z 0.000000 0.000000 1.695830 
# 
# From -- ./inp_files/6185.got.cif
#   From: 2010.05.17/outbox.cif.g08.bks.cpg/sg167_4_cif.got.tgz:6185.got - 2010.05.20 11:09:15.
