data_PCOD9579073
_publ_section_title
;
Structure prediction by ZEFSAII (Michael W. Deem and Ramdas Pophale) SiO2 
 PCOD9579073
Probable space group: R -3 M
;
_chemical_formula_sum "Si O2"
_cell_formula_units_Z 78
_cell_length_a 19.645849
_cell_length_b 19.645849
_cell_length_c 10.869599
_cell_angle_alpha 90.000000
_cell_angle_beta 90.000000
_cell_angle_gamma 120.000000
_cell_volume 3633.170318
_symmetry_space_group_name_H-M "R -3 M"
_symmetry_group_IT_number 166
_symmetry_cell_setting 'hexagonal'
loop_
_space_group_symop_operation_xyz
x,y,z
-y,x-y,z
-x+y,-x,z
x-y,-y,-z
-x,-x+y,-z
y,x,-z
-x,-y,-z
y,-x+y,-z
x-y,x,-z
-x+y,y,z
x,x-y,z
-y,-x,z
2/3+x,1/3+y,1/3+z
2/3-y,1/3+x-y,1/3+z
2/3-x+y,1/3-x,1/3+z
2/3+x-y,1/3-y,1/3-z
2/3-x,1/3-x+y,1/3-z
2/3+y,1/3+x,1/3-z
2/3-x,1/3-y,1/3-z
2/3+y,1/3-x+y,1/3-z
2/3+x-y,1/3+x,1/3-z
2/3-x+y,1/3+y,1/3+z
2/3+x,1/3+x-y,1/3+z
2/3-y,1/3-x,1/3+z
1/3+x,2/3+y,2/3+z
1/3-y,2/3+x-y,2/3+z
1/3-x+y,2/3-x,2/3+z
1/3+x-y,2/3-y,2/3-z
1/3-x,2/3-x+y,2/3-z
1/3+y,2/3+x,2/3-z
1/3-x,2/3-y,2/3-z
1/3+y,2/3-x+y,2/3-z
1/3+x-y,2/3+x,2/3-z
1/3-x+y,2/3+y,2/3+z
1/3+x,2/3+x-y,2/3+z
1/3-y,2/3-x,2/3+z
loop_
_atom_site_type_symbol
_atom_site_label
_atom_site_fract_x
_atom_site_fract_y
_atom_site_fract_z
Si Si1 0.191336 0.808665 0.202937
Si Si2 0.247975 0.752026 0.393046
Si Si3 0.000000 0.000000 0.152145
Si Si4 0.935691 0.578081 0.201171
O O1 0.166667 0.833334 0.333334
O O2 0.236104 0.763897 0.248423
O O3 0.109224 0.759876 0.132090
O O4 0.290324 0.709677 0.453333
O O5 0.158555 0.703922 0.445302
O O6 0.000000 0.000000 0.000000
O O7 0.896161 0.562828 0.333334
O O8 0.960962 0.666667 0.166667
#
# Coordination Sequence:
#
# PCOD9579073 Si02
#       4
#    18  18   6  36
#     4   8  18  36  53  79 124 168 198 243 318 393
#     4  10  22  40  59  86 131 175 205 252 327 397
#     4  12  24  42  63  93 133 173 217 273 319 380
#     4  10  18  34  60  91 121 159 208 265 321 374
#
# _framework density 21.468854
#
# number of rings (size 3 to 8) (size 9 to 14) (size 15 to 20)
#    0.000    2.769    0.000    5.538    0.000    1.846 
#    0.000   24.231    0.000    0.000    0.000   14.538 
#    0.000    0.000    0.000    0.000    0.000    0.000 
#
# Total GULP energy -144750.215704 kJ/mol
# GULP energy per Si atom -5567.315989 kJ/mol
# Density = 2.141999 g / cm^3
# Si number density = 21.468854 Si / 1000 Ang^3
#
#
#
# Elastic Constant Matrix: (Units=GPa)
#
#
# Indices 1 2 3 4 5 6 
#
# 1 112.1676 34.4555 11.9822 -3.4796 0.0000 0.0000
# 2 34.4555 112.1676 11.9822 3.4796 0.0000 0.0000
# 3 11.9822 11.9822 51.4068 0.0000 0.0000 0.0000
# 4 -3.4796 3.4796 0.0000 38.6740 0.0000 0.0000
# 5 0.0000 0.0000 0.0000 0.0000 38.6740 -3.4796
# 6 0.0000 0.0000 0.0000 0.0000 -3.4796 38.8560
#
#
#
# Elastic Compliance Matrix: (Units=1/GPa)
#
#
# Indices 1 2 3 4 5 6 
#
# 1 0.010031 -0.002941 -0.001653 0.001167 0.000000 0.000000
# 2 -0.002941 0.010031 -0.001653 -0.001167 0.000000 0.000000
# 3 -0.001653 -0.001653 0.020223 0.000000 0.000000 0.000000
# 4 0.001167 -0.001167 0.000000 0.026067 0.000000 0.000000
# 5 0.000000 0.000000 0.000000 0.000000 0.026067 0.002334
# 6 0.000000 0.000000 0.000000 0.000000 0.002334 0.025945
#
#
# Mechanical properties :
#
#
# Convention : Reuss Voigt Hill
#
# Bulk Modulus (GPa) = 35.98011 43.62019 39.80015
# Shear Modulus (GPa) = 35.68305 37.72896 36.70601
#
# Velocity S-wave (km/s) = 4.08129 4.19666 4.13938
# Velocity P-wave (km/s) = 6.24539 6.62153 6.43620
#
# Compressibility (1/GPa) = 0.02779313
#
# Stress axis : x y z
#
# Youngs Moduli (GPa) = 99.68668 99.68669 49.44843
#
# Poissons Ratio (x) = 0.29319 0.08172
# Poissons Ratio (y) = 0.29319 0.08172
# Poissons Ratio (z) = 0.16475 0.16475
#
# Static dielectric constant tensor:
#      x y z
#    x 1.830500 0.000000 0.000000 
#    y 0.000000 1.830500 0.000000 
#    z 0.000000 0.000000 1.827680 
# 
# From -- ./inp_files/2377.got.cif
#   From: 2010.05.17/outbox.cif.g08.bks.cpg/sg166_2_cif.got.tgz:2377.got - 2010.05.20 11:04:41.
