data_PCOD9579943
_publ_section_title
;
Structure prediction by ZEFSAII (Michael W. Deem and Ramdas Pophale) SiO2 
 PCOD9579943
Probable space group: P 61
;
_chemical_formula_sum "Si O2"
_cell_formula_units_Z 24
_cell_length_a 15.100154
_cell_length_b 15.100154
_cell_length_c 5.037190
_cell_angle_alpha 90.000000
_cell_angle_beta 90.000000
_cell_angle_gamma 120.000000
_cell_volume 994.676179
_symmetry_space_group_name_H-M "P 61"
_symmetry_group_IT_number 169
_symmetry_cell_setting 'hexagonal'
loop_
_space_group_symop_operation_xyz
x,y,z
x-y,x,1/6+z
-y,x-y,1/3+z
-x,-y,1/2+z
-x+y,-x,2/3+z
y,-x+y,5/6+z
loop_
_atom_site_type_symbol
_atom_site_label
_atom_site_fract_x
_atom_site_fract_y
_atom_site_fract_z
Si Si1 0.129963 0.537171 0.352650
Si Si2 0.922943 0.769656 0.076862
Si Si3 0.888683 0.378329 0.360046
Si Si4 0.792111 0.155786 0.245641
O O1 0.163996 0.583211 0.644856
O O2 0.161810 0.466274 0.191196
O O3 0.007454 0.463856 0.377601
O O4 0.154435 0.629741 0.153650
O O5 0.850936 0.819274 0.034012
O O6 0.879442 0.674367 0.281503
O O7 0.917315 0.724909 0.783261
O O8 0.880204 0.273396 0.270124
#
# Coordination Sequence:
#
# PCOD9579943 Si02
#       4
#     6   6   6   6
#     4  10  21  39  62  89 124 166 212 271 333 391
#     4  12  26  43  68 100 138 180 228 285 342 410
#     4  10  21  39  62  89 124 166 212 271 333 391
#     4  12  24  43  68  98 128 180 228 279 334 428
#
# _framework density 24.128457999999998
#
# number of rings (size 3 to 8) (size 9 to 14) (size 15 to 20)
#    0.000    1.000    0.000    7.500    0.000    6.000 
#    4.500    0.000    0.000    0.000    0.000    0.000 
#    0.000    0.000    0.000    0.000    0.000    0.000 
#
# Total GULP energy -134091.110925 kJ/mol
# GULP energy per Si atom -5587.129622 kJ/mol
# Density = 2.407354 g / cm^3
# Si number density = 24.128458 Si / 1000 Ang^3
#
#
#
# Elastic Constant Matrix: (Units=GPa)
#
#
# Indices 1 2 3 4 5 6 
#
# 1 50.8360 8.6207 7.4337 0.0000 0.0000 0.0000
# 2 8.6207 50.8360 7.4337 0.0000 0.0000 0.0000
# 3 7.4337 7.4337 118.5362 0.0000 0.0000 0.0000
# 4 0.0000 0.0000 0.0000 28.8472 0.0000 0.0000
# 5 0.0000 0.0000 0.0000 0.0000 28.8472 0.0000
# 6 0.0000 0.0000 0.0000 0.0000 0.0000 21.1077
#
#
#
# Elastic Compliance Matrix: (Units=1/GPa)
#
#
# Indices 1 2 3 4 5 6 
#
# 1 0.020388 -0.003301 -0.001072 0.000000 0.000000 0.000000
# 2 -0.003301 0.020388 -0.001072 0.000000 0.000000 0.000000
# 3 -0.001072 -0.001072 0.008571 0.000000 0.000000 0.000000
# 4 0.000000 0.000000 0.000000 0.034665 0.000000 0.000000
# 5 0.000000 0.000000 0.000000 0.000000 0.034665 0.000000
# 6 0.000000 0.000000 0.000000 0.000000 0.000000 0.047376
#
#
# Mechanical properties :
#
#
# Convention : Reuss Voigt Hill
#
# Bulk Modulus (GPa) = 26.00225 29.68717 27.84471
# Shear Modulus (GPa) = 26.34916 28.87510 27.61213
#
# Velocity S-wave (km/s) = 3.30818 3.46312 3.38654
# Velocity P-wave (km/s) = 5.03906 5.32179 5.18235
#
# Compressibility (1/GPa) = 0.03845821
#
# Stress axis : x y z
#
# Youngs Moduli (GPa) = 49.04964 49.04964 116.67740
#
# Poissons Ratio (x) = 0.16189 0.12503
# Poissons Ratio (y) = 0.16189 0.12503
# Poissons Ratio (z) = 0.05256 0.05256
#
# Static dielectric constant tensor:
#      x y z
#    x 1.982900 0.000000 0.000000 
#    y 0.000000 1.982900 0.000000 
#    z 0.000000 0.000000 1.884210 
# 
# From -- ./inp_files/59.got.cif
#   From: 2010.05.17/outbox.cif.g08.bks.cpg/sg169_cif.got.tgz:59.got - 2010.05.20 11:12:54.
