data_PCOD9579076
_publ_section_title
;
Structure prediction by ZEFSAII (Michael W. Deem and Ramdas Pophale) SiO2 
 PCOD9579076
Probable space group: R -3 M
;
_chemical_formula_sum "Si O2"
_cell_formula_units_Z 108
_cell_length_a 22.516248
_cell_length_b 22.516248
_cell_length_c 12.004358
_cell_angle_alpha 90.000000
_cell_angle_beta 90.000000
_cell_angle_gamma 120.000000
_cell_volume 5270.618927
_symmetry_space_group_name_H-M "R -3 M"
_symmetry_group_IT_number 166
_symmetry_cell_setting 'hexagonal'
loop_
_space_group_symop_operation_xyz
x,y,z
-y,x-y,z
-x+y,-x,z
x-y,-y,-z
-x,-x+y,-z
y,x,-z
-x,-y,-z
y,-x+y,-z
x-y,x,-z
-x+y,y,z
x,x-y,z
-y,-x,z
2/3+x,1/3+y,1/3+z
2/3-y,1/3+x-y,1/3+z
2/3-x+y,1/3-x,1/3+z
2/3+x-y,1/3-y,1/3-z
2/3-x,1/3-x+y,1/3-z
2/3+y,1/3+x,1/3-z
2/3-x,1/3-y,1/3-z
2/3+y,1/3-x+y,1/3-z
2/3+x-y,1/3+x,1/3-z
2/3-x+y,1/3+y,1/3+z
2/3+x,1/3+x-y,1/3+z
2/3-y,1/3-x,1/3+z
1/3+x,2/3+y,2/3+z
1/3-y,2/3+x-y,2/3+z
1/3-x+y,2/3-x,2/3+z
1/3+x-y,2/3-y,2/3-z
1/3-x,2/3-x+y,2/3-z
1/3+y,2/3+x,2/3-z
1/3-x,2/3-y,2/3-z
1/3+y,2/3-x+y,2/3-z
1/3+x-y,2/3+x,2/3-z
1/3-x+y,2/3+y,2/3+z
1/3+x,2/3+x-y,2/3+z
1/3-y,2/3-x,2/3+z
loop_
_atom_site_type_symbol
_atom_site_label
_atom_site_fract_x
_atom_site_fract_y
_atom_site_fract_z
Si Si1 0.845895 0.820786 0.616784
Si Si2 0.050372 0.435056 0.403203
Si Si3 0.667677 0.766683 0.490360
O O1 0.860620 0.860620 0.500000
O O2 0.916643 0.833286 0.667716
O O3 0.793807 0.827946 0.699914
O O4 0.804297 0.741771 0.569760
O O5 0.069103 0.377717 0.441883
O O6 0.000000 0.433496 0.500000
O O7 0.010716 0.424350 0.287333
O O8 0.639883 0.819941 0.476905
#
# Coordination Sequence:
#
# PCOD9579076 Si02
#       3
#    36  36  36
#     4   9  17  29  45  64  86 114 148 185 223 261
#     4  11  19  29  44  63  89 119 150 183 218 259
#     4  10  19  29  43  63  87 118 152 183 217 258
#
# _framework density 20.490952
#
# number of rings (size 3 to 8) (size 9 to 14) (size 15 to 20)
#    0.000    2.000    0.000    8.000    0.000    3.333 
#    0.000    0.000    0.000    0.333    0.000    0.000 
#    0.000    0.000    0.000    0.000    0.000   43.667 
#
# Total GULP energy -200523.322716 kJ/mol
# GULP energy per Si atom -5570.092298 kJ/mol
# Density = 2.044431 g / cm^3
# Si number density = 20.490952 Si / 1000 Ang^3
#
#
#
# Elastic Constant Matrix: (Units=GPa)
#
#
# Indices 1 2 3 4 5 6 
#
# 1 63.3794 60.5256 30.6589 -4.5422 0.0000 0.0000
# 2 60.5256 63.3794 30.6589 4.5422 0.0000 0.0000
# 3 30.6589 30.6589 140.6407 0.0000 0.0000 0.0000
# 4 -4.5422 4.5422 0.0000 11.3990 0.0000 0.0000
# 5 0.0000 0.0000 0.0000 0.0000 11.3990 -4.5422
# 6 0.0000 0.0000 0.0000 0.0000 -4.5422 1.4269
#
#
#
# Elastic Compliance Matrix: (Units=1/GPa)
#
#
# Indices 1 2 3 4 5 6 
#
# 1 -0.648178 0.657225 -0.001972 -0.520165 0.000000 -0.000001
# 2 0.657225 -0.648178 -0.001972 0.520165 0.000000 0.000001
# 3 -0.001972 -0.001972 0.007970 0.000000 0.000000 0.000000
# 4 -0.520165 0.520165 0.000000 -0.326814 0.000000 -0.000001
# 5 0.000000 0.000000 0.000000 0.000000 -0.326813 -1.040326
# 6 -0.000001 0.000001 0.000000 -0.000001 -1.040326 -2.610795
#
#
# Mechanical properties :
#
#
# Convention : Reuss Voigt Hill
#
# Bulk Modulus (GPa) = 55.02073 56.78738 55.90405
# Shear Modulus (GPa) = -0.85422 14.54872 6.84725
#
# Velocity S-wave (km/s) = -0.64636 2.66749 1.82999
# Velocity P-wave (km/s) = 5.13347 6.10417 5.63974
#
# Compressibility (1/GPa) = 0.01817497
#
# Stress axis : x y z
#
# Youngs Moduli (GPa) = -1.54279 -1.54279 125.46827
#
# Poissons Ratio (x) = 1.01396 0.24743
# Poissons Ratio (y) = 1.01396 0.24745
# Poissons Ratio (z) = -0.00304 -0.00304
#
# Static dielectric constant tensor:
#      x y z
#    x 1.811350 0.000000 0.000000 
#    y 0.000000 1.811350 0.000000 
#    z 0.000000 0.000000 1.786860 
# 
# From -- ./inp_files/2548.got.cif
#   From: 2010.05.17/outbox.cif.g08.bks.cpg/sg166_2_cif.got.tgz:2548.got - 2010.05.20 11:04:41.
