data_PCOD9579032
_publ_section_title
;
Structure prediction by ZEFSAII (Michael W. Deem and Ramdas Pophale) SiO2 
 PCOD9579032
Probable space group: R -3 M
;
_chemical_formula_sum "Si O2"
_cell_formula_units_Z 144
_cell_length_a 28.389563
_cell_length_b 28.389563
_cell_length_c 9.501795
_cell_angle_alpha 90.000000
_cell_angle_beta 90.000000
_cell_angle_gamma 120.000000
_cell_volume 6632.140270
_symmetry_space_group_name_H-M "R -3 M"
_symmetry_group_IT_number 166
_symmetry_cell_setting 'hexagonal'
loop_
_space_group_symop_operation_xyz
x,y,z
-y,x-y,z
-x+y,-x,z
x-y,-y,-z
-x,-x+y,-z
y,x,-z
-x,-y,-z
y,-x+y,-z
x-y,x,-z
-x+y,y,z
x,x-y,z
-y,-x,z
2/3+x,1/3+y,1/3+z
2/3-y,1/3+x-y,1/3+z
2/3-x+y,1/3-x,1/3+z
2/3+x-y,1/3-y,1/3-z
2/3-x,1/3-x+y,1/3-z
2/3+y,1/3+x,1/3-z
2/3-x,1/3-y,1/3-z
2/3+y,1/3-x+y,1/3-z
2/3+x-y,1/3+x,1/3-z
2/3-x+y,1/3+y,1/3+z
2/3+x,1/3+x-y,1/3+z
2/3-y,1/3-x,1/3+z
1/3+x,2/3+y,2/3+z
1/3-y,2/3+x-y,2/3+z
1/3-x+y,2/3-x,2/3+z
1/3+x-y,2/3-y,2/3-z
1/3-x,2/3-x+y,2/3-z
1/3+y,2/3+x,2/3-z
1/3-x,2/3-y,2/3-z
1/3+y,2/3-x+y,2/3-z
1/3+x-y,2/3+x,2/3-z
1/3-x+y,2/3+y,2/3+z
1/3+x,2/3+x-y,2/3+z
1/3-y,2/3-x,2/3+z
loop_
_atom_site_type_symbol
_atom_site_label
_atom_site_fract_x
_atom_site_fract_y
_atom_site_fract_z
Si Si1 0.619054 0.131346 0.719831
Si Si2 0.084269 0.394101 0.864321
Si Si3 0.216908 0.533405 0.512343
Si Si4 0.739255 0.817229 0.084428
O O1 0.559472 0.118944 0.766825
O O2 0.666667 0.161071 0.833334
O O3 0.621595 0.078446 0.666012
O O4 0.637584 0.174230 0.590011
O O5 0.038151 0.333334 0.833334
O O6 0.057593 0.432527 0.850953
O O7 0.126679 0.402738 0.737552
O O8 0.275241 0.550482 0.445463
O O9 0.225967 0.559300 0.666667
O O10 0.187210 0.469382 0.546568
O O11 0.714470 0.857235 0.094773
#
# Coordination Sequence:
#
# PCOD9579032 Si02
#       4
#    36  36  36  36
#     4  11  22  37  57  87 123 165 212 260 321 390
#     4  10  20  36  60  91 123 160 209 264 320 376
#     4  10  17  31  57  86 117 156 212 270 316 369
#     4   9  17  33  58  90 117 151 208 265 310 362
#
# _framework density 21.712447000000001
#
# number of rings (size 3 to 8) (size 9 to 14) (size 15 to 20)
#    0.000    2.000    5.000    2.250    0.000    3.000 
#    0.000    5.000    0.000   17.500    0.000   28.000 
#    0.000    0.000    0.000    0.000    0.000    0.000 
#
# Total GULP energy -267257.138231 kJ/mol
# GULP energy per Si atom -5567.857046 kJ/mol
# Density = 2.166303 g / cm^3
# Si number density = 21.712447 Si / 1000 Ang^3
#
#
#
# Elastic Constant Matrix: (Units=GPa)
#
#
# Indices 1 2 3 4 5 6 
#
# 1 78.7878 46.7152 6.6432 -5.5993 0.0057 0.0046
# 2 46.7152 78.7608 6.5942 5.5922 0.0064 0.0009
# 3 6.6432 6.5942 42.7288 -0.0075 0.0075 -0.0048
# 4 -5.5993 5.5922 -0.0075 15.3588 0.0006 0.0020
# 5 0.0057 0.0064 0.0075 0.0006 15.3584 -5.5999
# 6 0.0046 0.0009 -0.0048 0.0020 -5.5999 16.0206
#
#
#
# Elastic Compliance Matrix: (Units=1/GPa)
#
#
# Indices 1 2 3 4 5 6 
#
# 1 0.021918 -0.013818 -0.001273 0.013021 -0.000006 -0.000010
# 2 -0.013818 0.021921 -0.001237 -0.013020 -0.000002 0.000003
# 3 -0.001273 -0.001237 0.023792 -0.000002 -0.000009 0.000004
# 4 0.013021 -0.013020 -0.000002 0.074597 -0.000008 -0.000015
# 5 -0.000006 -0.000002 -0.000009 -0.000008 0.074622 0.026084
# 6 -0.000010 0.000003 0.000004 -0.000015 0.026084 0.071537
#
#
# Mechanical properties :
#
#
# Convention : Reuss Voigt Hill
#
# Bulk Modulus (GPa) = 28.59178 35.57582 32.08380
# Shear Modulus (GPa) = 15.02849 18.70253 16.86551
#
# Velocity S-wave (km/s) = 2.63375 2.93810 2.79008
# Velocity P-wave (km/s) = 4.73770 5.28493 5.01878
#
# Compressibility (1/GPa) = 0.03497508
#
# Stress axis : x y z
#
# Youngs Moduli (GPa) = 45.62404 45.61905 42.03053
#
# Poissons Ratio (x) = 0.63038 0.05350
# Poissons Ratio (y) = 0.63045 0.05198
# Poissons Ratio (z) = 0.05808 0.05642
#
# Static dielectric constant tensor:
#      x y z
#    x 1.858930 0.000000 -0.000010 
#    y 0.000000 1.858940 -0.000010 
#    z -0.000010 -0.000010 1.837530 
# 
# From -- ./inp_files/1820.got.cif
#   From: 2010.05.17/outbox.cif.g08.bks.cpg/sg166_1_cif.got.tgz:1820.got - 2010.05.20 11:04:41.
