data_PCOD9579746
_publ_section_title
;
Structure prediction by ZEFSAII (Michael W. Deem and Ramdas Pophale) SiO2 
 PCOD9579746
Probable space group: R -3 C 
;
_chemical_formula_sum "Si O2"
_cell_formula_units_Z 48
_cell_length_a 30.000000
_cell_length_b 30.000000
_cell_length_c 9.000000
_cell_angle_alpha 90.000000
_cell_angle_beta 90.000000
_cell_angle_gamma 120.000000
_cell_volume 7014.805771
_symmetry_space_group_name_H-M "R -3 C "
_symmetry_group_IT_number 167
_symmetry_cell_setting 'hexagonal'
loop_
_space_group_symop_operation_xyz
x,y,z
-y,x-y,z
-x+y,-x,z
x-y,-y,1/2-z
-x,-x+y,1/2-z
y,x,1/2-z
-x,-y,-z
y,-x+y,-z
x-y,x,-z
-x+y,y,1/2+z
x,x-y,1/2+z
-y,-x,1/2+z
2/3+x,1/3+y,1/3+z
2/3-y,1/3+x-y,1/3+z
2/3-x+y,1/3-x,1/3+z
2/3+x-y,1/3-y,5/6-z
2/3-x,1/3-x+y,5/6-z
2/3+y,1/3+x,5/6-z
2/3-x,1/3-y,1/3-z
2/3+y,1/3-x+y,1/3-z
2/3+x-y,1/3+x,1/3-z
2/3-x+y,1/3+y,5/6+z
2/3+x,1/3+x-y,5/6+z
2/3-y,1/3-x,5/6+z
1/3+x,2/3+y,2/3+z
1/3-y,2/3+x-y,2/3+z
1/3-x+y,2/3-x,2/3+z
1/3+x-y,2/3-y,1/6-z
1/3-x,2/3-x+y,1/6-z
1/3+y,2/3+x,1/6-z
1/3-x,2/3-y,2/3-z
1/3+y,2/3-x+y,2/3-z
1/3+x-y,2/3+x,2/3-z
1/3-x+y,2/3+y,1/6+z
1/3+x,2/3+x-y,1/6+z
1/3-y,2/3-x,1/6+z
loop_
_atom_site_type_symbol
_atom_site_label
_atom_site_fract_x
_atom_site_fract_y
_atom_site_fract_z
Si Si1 0.372788 0.870745 0.044389
Si Si2 0.578561 0.227380 0.262737
Si Si3 0.153434 0.860518 0.205030
Si Si4 0.100645 0.392628 0.550223
O O1 0.371198 0.830005 0.167618
O O2 0.354939 0.905665 0.135712
O O3 0.333334 0.837459 0.916667
O O4 0.423966 0.910839 0.949980
O O5 0.571103 0.268777 0.361740
O O6 0.567885 0.234551 0.083334
O O7 0.166667 0.833334 0.333334
O O8 0.095392 0.820303 0.150451
O O9 0.194816 0.861482 0.083334
O O10 0.082907 0.416240 0.416667
O O11 0.058312 0.333334 0.583334
#
# Coordination Sequence:
#
# PCOD9579746 Si02
#       4
#    36  36  36  36
#     4  12  28  43  74 112 142 195 248 306 368 435
#     4  12  28  50  75 110 153 201 249 307 375 447
#     4  11  24  48  72  99 141 192 238 297 372 438
#     4  11  26  46  70 103 144 189 238 306 368 440
#
# _framework density 6.84267
#
# number of rings (size 3 to 8) (size 9 to 14) (size 15 to 20)
#    0.000    0.500    5.000    3.250   14.000    1.000 
#    0.000    0.000    0.000    0.000    0.000    0.000 
#    0.000    0.000    0.000    0.000    0.000    0.000 
#
# Total GULP energy -267583.460537 kJ/mol
# GULP energy per Si atom -5574.655428 kJ/mol
# Density = 0.682710 g / cm^3
# Si number density = 6.842670 Si / 1000 Ang^3
#
#
#
# Elastic Constant Matrix: (Units=GPa)
#
#
# Indices 1 2 3 4 5 6 
#
# 1 105.6164 40.6167 36.0534 -3.0918 -0.0228 -0.0081
# 2 40.6167 105.6387 36.0763 3.0910 -0.0030 0.0026
# 3 36.0534 36.0763 153.0642 -0.0009 -0.0394 -0.0137
# 4 -3.0918 3.0910 -0.0009 52.6150 -0.0009 -0.0014
# 5 -0.0228 -0.0030 -0.0394 -0.0009 52.5909 -3.0962
# 6 -0.0081 0.0026 -0.0137 -0.0014 -3.0962 32.5112
#
#
#
# Elastic Compliance Matrix: (Units=1/GPa)
#
#
# Indices 1 2 3 4 5 6 
#
# 1 0.011603 -0.003866 -0.001822 0.000909 0.000004 0.000003
# 2 -0.003866 0.011602 -0.001824 -0.000909 -0.000003 -0.000003
# 3 -0.001822 -0.001824 0.007392 0.000000 0.000005 0.000003
# 4 0.000909 -0.000909 0.000000 0.019113 0.000001 0.000001
# 5 0.000004 -0.000003 0.000005 0.000001 0.019122 0.001821
# 6 0.000003 -0.000003 0.000003 0.000001 0.001821 0.030932
#
#
# Mechanical properties :
#
#
# Convention : Reuss Voigt Hill
#
# Bulk Modulus (GPa) = 64.20822 65.53466 64.87144
# Shear Modulus (GPa) = 41.67383 44.31495 42.99439
#
# Velocity S-wave (km/s) = 4.51055 4.65128 4.58145
# Velocity P-wave (km/s) = 7.64676 7.79998 7.72375
#
# Compressibility (1/GPa) = 0.01557433
#
# Stress axis : x y z
#
# Youngs Moduli (GPa) = 86.18137 86.19163 135.27642
#
# Poissons Ratio (x) = 0.33319 0.24647
# Poissons Ratio (y) = 0.33315 0.24674
# Poissons Ratio (z) = 0.15702 0.15721
#
# Static dielectric constant tensor:
#      x y z
#    x 1.705480 0.000040 -0.000990 
#    y 0.000040 1.705580 -0.000550 
#    z -0.000990 -0.000550 -0.423160 
# 
# From -- ./inp_files/779.got.cif
#   From: 2010.05.17/outbox.ucp.g08.bks.cvg/sg167_1_cif.got.tgz:779.got - 2010.06.11 15:17:31.
