data_PCOD9579391
_publ_section_title
;
Structure prediction by ZEFSAII (Michael W. Deem and Ramdas Pophale) SiO2 
 PCOD9579391
Probable space group: R -3 C 
;
_chemical_formula_sum "Si O2"
_cell_formula_units_Z 162
_cell_length_a 21.927904
_cell_length_b 21.927904
_cell_length_c 24.574730
_cell_angle_alpha 90.000000
_cell_angle_beta 90.000000
_cell_angle_gamma 120.000000
_cell_volume 10233.251059
_symmetry_space_group_name_H-M "R -3 C "
_symmetry_group_IT_number 167
_symmetry_cell_setting 'hexagonal'
loop_
_space_group_symop_operation_xyz
x,y,z
-y,x-y,z
-x+y,-x,z
x-y,-y,1/2-z
-x,-x+y,1/2-z
y,x,1/2-z
-x,-y,-z
y,-x+y,-z
x-y,x,-z
-x+y,y,1/2+z
x,x-y,1/2+z
-y,-x,1/2+z
2/3+x,1/3+y,1/3+z
2/3-y,1/3+x-y,1/3+z
2/3-x+y,1/3-x,1/3+z
2/3+x-y,1/3-y,5/6-z
2/3-x,1/3-x+y,5/6-z
2/3+y,1/3+x,5/6-z
2/3-x,1/3-y,1/3-z
2/3+y,1/3-x+y,1/3-z
2/3+x-y,1/3+x,1/3-z
2/3-x+y,1/3+y,5/6+z
2/3+x,1/3+x-y,5/6+z
2/3-y,1/3-x,5/6+z
1/3+x,2/3+y,2/3+z
1/3-y,2/3+x-y,2/3+z
1/3-x+y,2/3-x,2/3+z
1/3+x-y,2/3-y,1/6-z
1/3-x,2/3-x+y,1/6-z
1/3+y,2/3+x,1/6-z
1/3-x,2/3-y,2/3-z
1/3+y,2/3-x+y,2/3-z
1/3+x-y,2/3+x,2/3-z
1/3-x+y,2/3+y,1/6+z
1/3+x,2/3+x-y,1/6+z
1/3-y,2/3-x,1/6+z
loop_
_atom_site_type_symbol
_atom_site_label
_atom_site_fract_x
_atom_site_fract_y
_atom_site_fract_z
Si Si1 0.654280 0.536777 0.730627
Si Si2 0.279405 0.350150 0.670299
Si Si3 0.395131 0.854987 0.233625
Si Si4 0.333334 0.069477 0.916667
Si Si5 0.234945 0.785754 0.222454
O O1 0.629236 0.565471 0.680526
O O2 0.632510 0.566230 0.783596
O O3 0.610686 0.452253 0.736899
O O4 0.736179 0.562106 0.736251
O O5 0.351575 0.366029 0.698974
O O6 0.241956 0.380656 0.709744
O O7 0.312406 0.802420 0.240492
O O8 0.411563 0.861771 0.168884
O O9 0.410418 0.931372 0.254053
#
# Coordination Sequence:
#
# PCOD9579391 Si02
#       5
#    36  36  36  18  36
#     4  10  18  31  44  68  94 128 151 187 230 272
#     4   9  19  28  48  65  92 124 153 194 223 272
#     4  10  17  27  45  65  98 121 147 186 223 287
#     4  10  16  30  46  70  88 126 158 178 240 268
#     4  10  16  29  44  71  92 123 155 177 231 285
#
# _framework density 15.830746
#
# number of rings (size 3 to 8) (size 9 to 14) (size 15 to 20)
#    0.000    2.222    6.667    2.667    0.000    0.000 
#    1.333    5.556    0.000    0.000    0.000    0.000 
#    0.000    0.000    0.000    0.000    0.000    0.000 
#
# Total GULP energy -300660.479536 kJ/mol
# GULP energy per Si atom -5567.786658 kJ/mol
# Density = 1.579471 g / cm^3
# Si number density = 15.830746 Si / 1000 Ang^3
#
#
#
# Elastic Constant Matrix: (Units=GPa)
#
#
# Indices 1 2 3 4 5 6 
#
# 1 66.1004 41.2339 15.5885 6.6176 0.0002 0.0000
# 2 41.2339 66.1004 15.5885 -6.6176 -0.0002 0.0000
# 3 15.5885 15.5885 18.2843 0.0000 0.0000 0.0000
# 4 6.6176 -6.6176 0.0000 10.0607 0.0000 -0.0002
# 5 0.0002 -0.0002 0.0000 0.0000 10.0607 6.6176
# 6 0.0000 0.0000 0.0000 -0.0002 6.6176 12.4332
#
#
#
# Elastic Compliance Matrix: (Units=1/GPa)
#
#
# Indices 1 2 3 4 5 6 
#
# 1 0.037131 -0.024747 -0.010558 -0.040701 -0.000001 0.000000
# 2 -0.024747 0.037131 -0.010558 0.040701 0.000001 0.000000
# 3 -0.010558 -0.010558 0.072694 0.000000 0.000000 0.000000
# 4 -0.040701 0.040701 0.000000 0.152939 0.000000 0.000002
# 5 -0.000001 0.000001 0.000000 0.000000 0.152939 -0.081402
# 6 0.000000 0.000000 0.000000 0.000002 -0.081402 0.123756
#
#
# Mechanical properties :
#
#
# Convention : Reuss Voigt Hill
#
# Bulk Modulus (GPa) = 18.10610 32.81190 25.45900
# Shear Modulus (GPa) = 7.28096 11.71588 9.49842
#
# Velocity S-wave (km/s) = 2.14691 2.72338 2.45214
# Velocity P-wave (km/s) = 4.19616 5.53721 4.91266
#
# Compressibility (1/GPa) = 0.05523001
#
# Stress axis : x y z
#
# Youngs Moduli (GPa) = 26.93201 26.93201 13.75637
#
# Poissons Ratio (x) = 0.66649 0.14523
# Poissons Ratio (y) = 0.66649 0.14523
# Poissons Ratio (z) = 0.28434 0.28434
#
# Static dielectric constant tensor:
#      x y z
#    x 1.550710 0.000000 0.000000 
#    y 0.000000 1.550710 0.000000 
#    z 0.000000 0.000000 1.522180 
# 
# From -- ./inp_files/5293.got.cif
#   From: 2010.05.17/outbox.cif.g08.bks.cpg/sg167_3_cif.got.tgz:5293.got - 2010.05.20 11:09:15.
