data_PCOD9579461
_publ_section_title
;
Structure prediction by ZEFSAII (Michael W. Deem and Ramdas Pophale) SiO2 
 PCOD9579461
Probable space group: R -3 C 
;
_chemical_formula_sum "Si O2"
_cell_formula_units_Z 162
_cell_length_a 23.214190
_cell_length_b 23.214190
_cell_length_c 16.170611
_cell_angle_alpha 90.000000
_cell_angle_beta 90.000000
_cell_angle_gamma 120.000000
_cell_volume 7546.822419
_symmetry_space_group_name_H-M "R -3 C "
_symmetry_group_IT_number 167
_symmetry_cell_setting 'hexagonal'
loop_
_space_group_symop_operation_xyz
x,y,z
-y,x-y,z
-x+y,-x,z
x-y,-y,1/2-z
-x,-x+y,1/2-z
y,x,1/2-z
-x,-y,-z
y,-x+y,-z
x-y,x,-z
-x+y,y,1/2+z
x,x-y,1/2+z
-y,-x,1/2+z
2/3+x,1/3+y,1/3+z
2/3-y,1/3+x-y,1/3+z
2/3-x+y,1/3-x,1/3+z
2/3+x-y,1/3-y,5/6-z
2/3-x,1/3-x+y,5/6-z
2/3+y,1/3+x,5/6-z
2/3-x,1/3-y,1/3-z
2/3+y,1/3-x+y,1/3-z
2/3+x-y,1/3+x,1/3-z
2/3-x+y,1/3+y,5/6+z
2/3+x,1/3+x-y,5/6+z
2/3-y,1/3-x,5/6+z
1/3+x,2/3+y,2/3+z
1/3-y,2/3+x-y,2/3+z
1/3-x+y,2/3-x,2/3+z
1/3+x-y,2/3-y,1/6-z
1/3-x,2/3-x+y,1/6-z
1/3+y,2/3+x,1/6-z
1/3-x,2/3-y,2/3-z
1/3+y,2/3-x+y,2/3-z
1/3+x-y,2/3+x,2/3-z
1/3-x+y,2/3+y,1/6+z
1/3+x,2/3+x-y,1/6+z
1/3-y,2/3-x,1/6+z
loop_
_atom_site_type_symbol
_atom_site_label
_atom_site_fract_x
_atom_site_fract_y
_atom_site_fract_z
Si Si1 0.423340 0.854089 0.261081
Si Si2 0.185648 0.460050 0.251081
Si Si3 0.358381 0.501751 0.501274
Si Si4 0.664037 0.063462 0.308133
Si Si5 0.458360 0.000000 0.250000
O O1 0.347561 0.832334 0.277473
O O2 0.433801 0.846926 0.163523
O O3 0.446491 0.811617 0.316098
O O4 0.462845 0.934917 0.273253
O O5 0.230964 0.453511 0.321549
O O6 0.115566 0.399138 0.215240
O O7 0.333334 0.461161 0.416667
O O8 0.341286 0.453781 0.578490
O O9 0.737277 0.089981 0.344634
O O10 0.637149 0.000000 0.250000
#
# Coordination Sequence:
#
# PCOD9579461 Si02
#       5
#    36  36  36  36  18
#     4  10  20  39  67  88 125 170 220 260 327 401
#     4  10  19  40  64  88 121 172 212 263 323 394
#     4  11  24  40  61  95 130 163 215 275 334 378
#     4  10  23  40  65  92 131 165 221 262 322 392
#     4  10  20  42  66  92 122 174 220 264 324 396
#
# _framework density 21.465989
#
# number of rings (size 3 to 8) (size 9 to 14) (size 15 to 20)
#    0.000    1.778    6.667    0.000    7.778    0.889 
#    9.333    3.333    0.000    0.000    0.000    0.000 
#    0.000    0.000    0.000    0.000    0.000    0.000 
#
# Total GULP energy -300622.030394 kJ/mol
# GULP energy per Si atom -5567.074637 kJ/mol
# Density = 2.141713 g / cm^3
# Si number density = 21.465989 Si / 1000 Ang^3
#
#
#
# Elastic Constant Matrix: (Units=GPa)
#
#
# Indices 1 2 3 4 5 6 
#
# 1 60.2234 21.7178 10.4028 -4.9551 -0.0003 0.0000
# 2 21.7178 60.2234 10.4028 4.9551 0.0003 0.0000
# 3 10.4028 10.4028 53.4935 0.0000 0.0000 0.0000
# 4 -4.9551 4.9551 0.0000 2.0907 0.0000 0.0003
# 5 -0.0003 0.0003 0.0000 0.0000 2.0907 -4.9551
# 6 0.0000 0.0000 0.0000 0.0003 -4.9551 19.2528
#
#
#
# Elastic Compliance Matrix: (Units=1/GPa)
#
#
# Indices 1 2 3 4 5 6 
#
# 1 0.039712 -0.026874 -0.002497 0.157811 0.000011 0.000000
# 2 -0.026874 0.039712 -0.002497 -0.157811 -0.000011 0.000000
# 3 -0.002497 -0.002497 0.019665 0.000000 0.000000 0.000000
# 4 0.157811 -0.157811 0.000000 1.226343 0.000000 -0.000021
# 5 0.000011 -0.000011 0.000000 0.000000 1.226343 0.315622
# 6 0.000000 0.000000 0.000000 -0.000021 0.315622 0.133172
#
#
# Mechanical properties :
#
#
# Convention : Reuss Voigt Hill
#
# Bulk Modulus (GPa) = 28.28515 28.77634 28.53074
# Shear Modulus (GPa) = 1.81129 13.44795 7.62962
#
# Velocity S-wave (km/s) = 0.91958 2.50567 1.88733
# Velocity P-wave (km/s) = 3.78587 4.66967 4.25080
#
# Compressibility (1/GPa) = 0.03535424
#
# Stress axis : x y z
#
# Youngs Moduli (GPa) = 25.18144 25.18144 50.85209
#
# Poissons Ratio (x) = 0.67673 0.12695
# Poissons Ratio (y) = 0.67673 0.12695
# Poissons Ratio (z) = 0.06287 0.06287
#
# Static dielectric constant tensor:
#      x y z
#    x 1.914330 0.000000 0.000000 
#    y 0.000000 1.914330 0.000000 
#    z 0.000000 0.000000 1.829260 
# 
# From -- ./inp_files/3400.got.cif
#   From: 2010.05.17/outbox.cif.g08.bks.cpg/sg167_2_cif.got.tgz:3400.got - 2010.05.20 11:09:15.
