data_PCOD9579774
_publ_section_title
;
Structure prediction by ZEFSAII (Michael W. Deem and Ramdas Pophale) SiO2 
 PCOD9579774
Probable space group: P 6
;
_chemical_formula_sum "Si O2"
_cell_formula_units_Z 45
_cell_length_a 13.842617
_cell_length_b 13.842617
_cell_length_c 11.993824
_cell_angle_alpha 90.000000
_cell_angle_beta 90.000000
_cell_angle_gamma 120.000000
_cell_volume 1990.328259
_symmetry_space_group_name_H-M "P 6"
_symmetry_group_IT_number 168
_symmetry_cell_setting 'hexagonal'
loop_
_space_group_symop_operation_xyz
x,y,z
x-y,x,z
-y,x-y,z
-x,-y,z
-x+y,-x,z
y,-x+y,z
loop_
_atom_site_type_symbol
_atom_site_label
_atom_site_fract_x
_atom_site_fract_y
_atom_site_fract_z
Si Si1 0.372636 0.806573 0.071020
Si Si2 0.500000 0.500000 0.559652
Si Si3 0.148026 0.416372 0.885847
Si Si4 0.907268 0.159967 0.545247
Si Si5 0.126043 0.676104 0.394745
Si Si6 0.305428 0.880912 0.274890
Si Si7 0.260263 0.151330 0.095099
Si Si8 0.627639 0.928303 0.739959
O O1 0.248086 0.697643 0.078480
O O2 0.385861 0.881294 0.176624
O O3 0.371956 0.852399 0.948873
O O4 0.431387 0.534837 0.471202
O O5 0.600723 0.574440 0.645757
O O6 0.253328 0.442507 0.806386
O O7 0.031784 0.347150 0.822459
O O8 0.144316 0.340990 0.988992
O O9 0.907697 0.190276 0.674320
O O10 0.033266 0.201928 0.515666
O O11 0.864398 0.230278 0.479672
O O12 0.003455 0.629677 0.334354
O O13 0.242454 0.754796 0.329753
O O14 0.200715 0.874361 0.209748
O O15 0.176612 0.197396 0.089963
#
# Coordination Sequence:
#
# PCOD9579774 Si02
#       8
#     6   3   6   6   6   6   6   6
#     4   9  24  42  61  95 117 153 208 254 315 390
#     4  10  28  36  62  94 110 156 234 268 308 380
#     4  11  22  40  68  86 131 167 205 260 321 379
#     4  11  21  37  59  94 128 164 215 243 291 371
#     4  11  23  42  63  90 125 167 208 263 323 368
#     4  11  22  40  68  86 131 167 205 260 321 379
#     4  11  21  36  57 102 132 175 212 247 297 390
#     4  11  23  42  63  90 125 167 208 263 323 368
#
# _framework density 22.609334
#
# number of rings (size 3 to 8) (size 9 to 14) (size 15 to 20)
#    0.267    1.067    5.333    0.267    3.733    0.000 
#    0.000    1.333    5.867    0.000    0.000    0.000 
#    0.000    0.000    0.000    0.000    0.000    0.000 
#
# Total GULP energy -250598.091146 kJ/mol
# GULP energy per Si atom -5568.846470 kJ/mol
# Density = 2.255787 g / cm^3
# Si number density = 22.609334 Si / 1000 Ang^3
#
#
#
# Elastic Constant Matrix: (Units=GPa)
#
#
# Indices 1 2 3 4 5 6 
#
# 1 61.7493 7.0878 17.8153 0.0000 0.0000 0.0000
# 2 7.0878 61.7493 17.8153 0.0000 0.0000 0.0000
# 3 17.8153 17.8153 71.1787 0.0000 0.0000 0.0000
# 4 0.0000 0.0000 0.0000 18.6634 0.0000 0.0000
# 5 0.0000 0.0000 0.0000 0.0000 18.6634 0.0000
# 6 0.0000 0.0000 0.0000 0.0000 0.0000 27.3307
#
#
#
# Elastic Compliance Matrix: (Units=1/GPa)
#
#
# Indices 1 2 3 4 5 6 
#
# 1 0.017492 -0.000803 -0.004177 0.000000 0.000000 0.000000
# 2 -0.000803 0.017492 -0.004177 0.000000 0.000000 0.000000
# 3 -0.004177 -0.004177 0.016140 0.000000 0.000000 0.000000
# 4 0.000000 0.000000 0.000000 0.053581 0.000000 0.000000
# 5 0.000000 0.000000 0.000000 0.000000 0.053581 0.000000
# 6 0.000000 0.000000 0.000000 0.000000 0.000000 0.036589
#
#
# Mechanical properties :
#
#
# Convention : Reuss Voigt Hill
#
# Bulk Modulus (GPa) = 30.47858 31.12381 30.80120
# Shear Modulus (GPa) = 22.30899 23.06207 22.68553
#
# Velocity S-wave (km/s) = 3.14461 3.19725 3.17104
# Velocity P-wave (km/s) = 5.16668 5.23695 5.20193
#
# Compressibility (1/GPa) = 0.03280992
#
# Stress axis : x y z
#
# Youngs Moduli (GPa) = 57.16967 57.16967 61.95734
#
# Poissons Ratio (x) = 0.04589 0.25880
# Poissons Ratio (y) = 0.04589 0.25880
# Poissons Ratio (z) = 0.23881 0.23881
#
# Static dielectric constant tensor:
#      x y z
#    x 1.844690 0.000000 0.000000 
#    y 0.000000 1.844690 0.000000 
#    z 0.000000 0.000000 1.920350 
# 
# From -- ./inp_files/422.got.cif
#   From: 2010.05.17/outbox.cif.g08.bks.cpg/sg168_cif.got.tgz:422.got - 2010.05.20 11:12:33.
