data_PCOD9579062
_publ_section_title
;
Structure prediction by ZEFSAII (Michael W. Deem and Ramdas Pophale) SiO2 
 PCOD9579062
Probable space group: R -3 M
;
_chemical_formula_sum "Si O2"
_cell_formula_units_Z 126
_cell_length_a 23.066824
_cell_length_b 23.066824
_cell_length_c 16.139583
_cell_angle_alpha 90.000000
_cell_angle_beta 90.000000
_cell_angle_gamma 120.000000
_cell_volume 7437.013079
_symmetry_space_group_name_H-M "R -3 M"
_symmetry_group_IT_number 166
_symmetry_cell_setting 'hexagonal'
loop_
_space_group_symop_operation_xyz
x,y,z
-y,x-y,z
-x+y,-x,z
x-y,-y,-z
-x,-x+y,-z
y,x,-z
-x,-y,-z
y,-x+y,-z
x-y,x,-z
-x+y,y,z
x,x-y,z
-y,-x,z
2/3+x,1/3+y,1/3+z
2/3-y,1/3+x-y,1/3+z
2/3-x+y,1/3-x,1/3+z
2/3+x-y,1/3-y,1/3-z
2/3-x,1/3-x+y,1/3-z
2/3+y,1/3+x,1/3-z
2/3-x,1/3-y,1/3-z
2/3+y,1/3-x+y,1/3-z
2/3+x-y,1/3+x,1/3-z
2/3-x+y,1/3+y,1/3+z
2/3+x,1/3+x-y,1/3+z
2/3-y,1/3-x,1/3+z
1/3+x,2/3+y,2/3+z
1/3-y,2/3+x-y,2/3+z
1/3-x+y,2/3-x,2/3+z
1/3+x-y,2/3-y,2/3-z
1/3-x,2/3-x+y,2/3-z
1/3+y,2/3+x,2/3-z
1/3-x,2/3-y,2/3-z
1/3+y,2/3-x+y,2/3-z
1/3+x-y,2/3+x,2/3-z
1/3-x+y,2/3+y,2/3+z
1/3+x,2/3+x-y,2/3+z
1/3-y,2/3-x,2/3+z
loop_
_atom_site_type_symbol
_atom_site_label
_atom_site_fract_x
_atom_site_fract_y
_atom_site_fract_z
Si Si1 0.000000 0.756097 0.500000
Si Si2 0.876278 0.257586 0.558585
Si Si3 0.730216 0.926624 0.029327
Si Si4 0.760072 0.946086 0.669001
O O1 0.053590 0.743253 0.448412
O O2 0.035013 0.810925 0.571706
O O3 0.813245 0.186756 0.587755
O O4 0.863537 0.262002 0.461722
O O5 0.881734 0.320591 0.608950
O O6 0.755479 0.877740 0.998562
O O7 0.654216 0.895452 0.998139
O O8 0.773610 0.000000 0.000000
O O9 0.779911 0.889956 0.693330
#
# Coordination Sequence:
#
# PCOD9579062 Si02
#       4
#    18  36  36  36
#     4  10  18  32  51  74 103 130 162 202 250 300
#     4  10  20  33  51  75 103 134 165 202 249 297
#     4   9  18  32  49  73 102 130 162 201 246 296
#     4  10  20  32  49  74 101 129 164 204 246 296
#
# _framework density 16.942285999999999
#
# number of rings (size 3 to 8) (size 9 to 14) (size 15 to 20)
#    0.000    2.286    0.000    6.857    0.000    4.571 
#    0.000    3.571    0.000    0.857    0.000    1.000 
#    0.000    0.000    0.000    0.000    0.000    0.000 
#
# Total GULP energy -233808.224648 kJ/mol
# GULP energy per Si atom -5566.862492 kJ/mol
# Density = 1.690372 g / cm^3
# Si number density = 16.942286 Si / 1000 Ang^3
#
#
#
# Elastic Constant Matrix: (Units=GPa)
#
#
# Indices 1 2 3 4 5 6 
#
# 1 99.3454 56.2484 35.9123 1.9872 0.0000 0.0000
# 2 56.2484 99.3454 35.9123 -1.9872 0.0000 0.0000
# 3 35.9123 35.9123 23.2180 0.0000 0.0000 0.0000
# 4 1.9872 -1.9872 0.0000 8.3744 0.0000 0.0000
# 5 0.0000 0.0000 0.0000 0.0000 8.3744 1.9872
# 6 0.0000 0.0000 0.0000 0.0000 1.9872 21.5485
#
#
#
# Elastic Compliance Matrix: (Units=1/GPa)
#
#
# Indices 1 2 3 4 5 6 
#
# 1 0.023097 -0.000625 -0.034759 -0.005629 0.000000 0.000000
# 2 -0.000625 0.023097 -0.034759 0.005629 0.000000 0.000000
# 3 -0.034759 -0.034759 0.150597 0.000000 0.000000 0.000000
# 4 -0.005629 0.005629 0.000000 0.122083 0.000000 0.000000
# 5 0.000000 0.000000 0.000000 0.000000 0.122083 -0.011258
# 6 0.000000 0.000000 0.000000 0.000000 -0.011258 0.047445
#
#
# Mechanical properties :
#
#
# Convention : Reuss Voigt Hill
#
# Bulk Modulus (GPa) = 17.69735 53.11720 35.40727
# Shear Modulus (GPa) = 7.72170 13.91516 10.81843
#
# Velocity S-wave (km/s) = 2.13718 2.86899 2.52969
# Velocity P-wave (km/s) = 4.06920 6.51112 5.42923
#
# Compressibility (1/GPa) = 0.05650564
#
# Stress axis : x y z
#
# Youngs Moduli (GPa) = 43.29477 43.29477 6.64022
#
# Poissons Ratio (x) = 0.02706 0.23081
# Poissons Ratio (y) = 0.02706 0.23081
# Poissons Ratio (z) = 1.50489 1.50489
#
# Static dielectric constant tensor:
#      x y z
#    x 1.588820 0.000000 0.000000 
#    y 0.000000 1.588820 0.000000 
#    z 0.000000 0.000000 1.614230 
# 
# From -- ./inp_files/4871.got.cif
#   From: 2010.05.17/outbox.cif.g08.bks.cpg/sg166_3_cif.got.tgz:4871.got - 2010.05.20 11:04:41.
