data_PCOD9579481
_publ_section_title
;
Structure prediction by ZEFSAII (Michael W. Deem and Ramdas Pophale) SiO2 
 PCOD9579481
Probable space group: R -3 C 
;
_chemical_formula_sum "Si O2"
_cell_formula_units_Z 126
_cell_length_a 23.319805
_cell_length_b 23.319805
_cell_length_c 12.508225
_cell_angle_alpha 90.000000
_cell_angle_beta 90.000000
_cell_angle_gamma 120.000000
_cell_volume 5890.825330
_symmetry_space_group_name_H-M "R -3 C "
_symmetry_group_IT_number 167
_symmetry_cell_setting 'hexagonal'
loop_
_space_group_symop_operation_xyz
x,y,z
-y,x-y,z
-x+y,-x,z
x-y,-y,1/2-z
-x,-x+y,1/2-z
y,x,1/2-z
-x,-y,-z
y,-x+y,-z
x-y,x,-z
-x+y,y,1/2+z
x,x-y,1/2+z
-y,-x,1/2+z
2/3+x,1/3+y,1/3+z
2/3-y,1/3+x-y,1/3+z
2/3-x+y,1/3-x,1/3+z
2/3+x-y,1/3-y,5/6-z
2/3-x,1/3-x+y,5/6-z
2/3+y,1/3+x,5/6-z
2/3-x,1/3-y,1/3-z
2/3+y,1/3-x+y,1/3-z
2/3+x-y,1/3+x,1/3-z
2/3-x+y,1/3+y,5/6+z
2/3+x,1/3+x-y,5/6+z
2/3-y,1/3-x,5/6+z
1/3+x,2/3+y,2/3+z
1/3-y,2/3+x-y,2/3+z
1/3-x+y,2/3-x,2/3+z
1/3+x-y,2/3-y,1/6-z
1/3-x,2/3-x+y,1/6-z
1/3+y,2/3+x,1/6-z
1/3-x,2/3-y,2/3-z
1/3+y,2/3-x+y,2/3-z
1/3+x-y,2/3+x,2/3-z
1/3-x+y,2/3+y,1/6+z
1/3+x,2/3+x-y,1/6+z
1/3-y,2/3-x,1/6+z
loop_
_atom_site_type_symbol
_atom_site_label
_atom_site_fract_x
_atom_site_fract_y
_atom_site_fract_z
Si Si1 0.225519 0.090806 0.149958
Si Si2 0.003729 0.438529 0.627399
Si Si3 0.333334 0.508491 0.916667
Si Si4 0.885326 0.292469 0.890484
O O1 0.265471 0.076307 0.240789
O O2 0.278251 0.164080 0.106974
O O3 0.163210 0.096883 0.195027
O O4 0.221776 0.047970 0.046307
O O5 0.042529 0.398313 0.627366
O O6 0.000000 0.453125 0.750000
O O7 0.364618 0.483910 0.825400
O O8 0.901075 0.234408 0.916667
#
# Coordination Sequence:
#
# PCOD9579481 Si02
#       4
#    36  36  18  36
#     4  10  20  36  52  75 112 167 225 273 315 385
#     4  10  21  32  51  78 117 166 218 277 314 380
#     4  10  22  38  56  78 116 176 222 274 316 378
#     4  11  21  32  54  80 118 166 222 272 319 387
#
# _framework density 21.389192000000001
#
# number of rings (size 3 to 8) (size 9 to 14) (size 15 to 20)
#    0.000    1.714    0.000    7.714    6.000    0.000 
#    0.000    0.000    0.000    0.000    0.000    0.000 
#    0.000    0.000    0.000  722.571    1.143    0.000 
#
# Total GULP energy -234005.992662 kJ/mol
# GULP energy per Si atom -5571.571254 kJ/mol
# Density = 2.134051 g / cm^3
# Si number density = 21.389192 Si / 1000 Ang^3
#
#
#
# Elastic Constant Matrix: (Units=GPa)
#
#
# Indices 1 2 3 4 5 6 
#
# 1 45.6654 65.4663 34.3118 -28.6860 0.0008 0.0000
# 2 65.4663 45.6654 34.3119 28.6860 -0.0008 0.0000
# 3 34.3118 34.3119 162.6903 0.0000 0.0000 0.0000
# 4 -28.6860 28.6860 0.0000 -20.3605 0.0000 -0.0008
# 5 0.0008 -0.0008 0.0000 0.0000 -20.3605 -28.6860
# 6 0.0000 0.0000 0.0000 -0.0008 -28.6860 -9.9005
#
#
#
# Elastic Compliance Matrix: (Units=1/GPa)
#
#
# Indices 1 2 3 4 5 6 
#
# 1 0.013365 -0.003020 -0.002182 -0.023085 0.000001 0.000000
# 2 -0.003020 0.013365 -0.002182 0.023085 -0.000001 0.000000
# 3 -0.002182 -0.002182 0.007067 0.000000 0.000000 0.000000
# 4 -0.023085 0.023085 0.000000 0.015935 0.000000 -0.000001
# 5 0.000001 -0.000001 0.000000 0.000000 0.015935 -0.046170
# 6 0.000000 0.000000 0.000000 -0.000001 -0.046170 0.032770
#
#
# Mechanical properties :
#
#
# Convention : Reuss Voigt Hill
#
# Bulk Modulus (GPa) = 52.54688 58.02233 55.28461
# Shear Modulus (GPa) = 41.82389 -2.12891 19.84749
#
# Velocity S-wave (km/s) = 4.42676 -0.99874 3.04949
# Velocity P-wave (km/s) = 7.12381 5.08487 6.18888
#
# Compressibility (1/GPa) = 0.01903063
#
# Stress axis : x y z
#
# Youngs Moduli (GPa) = 74.81977 74.81977 141.50275
#
# Poissons Ratio (x) = 0.22594 0.30875
# Poissons Ratio (y) = 0.22594 0.30875
# Poissons Ratio (z) = 0.16325 0.16325
#
# Static dielectric constant tensor:
#      x y z
#    x 1.861160 0.000000 0.000000 
#    y 0.000000 1.861160 0.000000 
#    z 0.000000 0.000000 1.788460 
# 
# From -- ./inp_files/1424.got.cif
#   From: 2010.05.17/outbox.cif.g08.bks.cpg/sg167_1_cif.got.tgz:1424.got - 2010.05.20 11:09:15.
