data_PCOD9579310
_publ_section_title
;
Structure prediction by ZEFSAII (Michael W. Deem and Ramdas Pophale) SiO2 
 PCOD9579310
Probable space group: R -3 M
;
_chemical_formula_sum "Si O2"
_cell_formula_units_Z 144
_cell_length_a 30.312112
_cell_length_b 30.312112
_cell_length_c 9.604799
_cell_angle_alpha 90.000000
_cell_angle_beta 90.000000
_cell_angle_gamma 120.000000
_cell_volume 7642.779084
_symmetry_space_group_name_H-M "R -3 M"
_symmetry_group_IT_number 166
_symmetry_cell_setting 'hexagonal'
loop_
_space_group_symop_operation_xyz
x,y,z
-y,x-y,z
-x+y,-x,z
x-y,-y,-z
-x,-x+y,-z
y,x,-z
-x,-y,-z
y,-x+y,-z
x-y,x,-z
-x+y,y,z
x,x-y,z
-y,-x,z
2/3+x,1/3+y,1/3+z
2/3-y,1/3+x-y,1/3+z
2/3-x+y,1/3-x,1/3+z
2/3+x-y,1/3-y,1/3-z
2/3-x,1/3-x+y,1/3-z
2/3+y,1/3+x,1/3-z
2/3-x,1/3-y,1/3-z
2/3+y,1/3-x+y,1/3-z
2/3+x-y,1/3+x,1/3-z
2/3-x+y,1/3+y,1/3+z
2/3+x,1/3+x-y,1/3+z
2/3-y,1/3-x,1/3+z
1/3+x,2/3+y,2/3+z
1/3-y,2/3+x-y,2/3+z
1/3-x+y,2/3-x,2/3+z
1/3+x-y,2/3-y,2/3-z
1/3-x,2/3-x+y,2/3-z
1/3+y,2/3+x,2/3-z
1/3-x,2/3-y,2/3-z
1/3+y,2/3-x+y,2/3-z
1/3+x-y,2/3+x,2/3-z
1/3-x+y,2/3+y,2/3+z
1/3+x,2/3+x-y,2/3+z
1/3-y,2/3-x,2/3+z
loop_
_atom_site_type_symbol
_atom_site_label
_atom_site_fract_x
_atom_site_fract_y
_atom_site_fract_z
Si Si1 0.562634 0.333334 0.833334
Si Si2 0.956352 0.809891 0.731763
Si Si3 0.620020 0.722879 0.228775
Si Si4 0.666667 0.544338 0.333334
Si Si5 0.794484 0.106854 0.010733
O O1 0.567810 0.283905 0.861385
O O2 0.524156 0.319776 0.704391
O O3 0.904290 0.808580 0.774717
O O4 0.941801 0.758320 0.645781
O O5 0.991105 0.813576 0.862191
O O6 0.597070 0.666667 0.166667
O O7 0.666667 0.737408 0.333334
O O8 0.643741 0.761817 0.100411
O O9 0.716342 0.599789 0.329785
O O10 0.853547 0.146454 0.981664
O O11 0.782686 0.116019 0.166667
#
# Coordination Sequence:
#
# PCOD9579310 Si02
#       5
#    18  36  36  18  36
#     4  10  23  44  72 100 128 162 212 274 341 406
#     4  11  24  43  67  96 129 174 220 272 335 397
#     4  12  25  41  65  93 131 176 225 271 314 377
#     4  12  24  40  62  92 129 168 221 266 326 382
#     4  11  26  42  61  90 128 173 215 265 320 377
#
# _framework density 18.841314000000001
#
# number of rings (size 3 to 8) (size 9 to 14) (size 15 to 20)
#    0.000    0.750    3.750    3.125    1.750    3.000 
#    0.000    0.000    0.000    0.000    0.000    4.375 
#    0.000    0.000    0.000    0.000    0.000    0.000 
#
# Total GULP energy -268409.872612 kJ/mol
# GULP energy per Si atom -5591.872346 kJ/mol
# Density = 1.879843 g / cm^3
# Si number density = 18.841314 Si / 1000 Ang^3
#
#
#
# Elastic Constant Matrix: (Units=GPa)
#
#
# Indices 1 2 3 4 5 6 
#
# 1 119.7756 54.2621 44.6741 0.2647 0.0005 -0.0093
# 2 54.2621 119.7654 44.6906 -0.2965 0.0160 -0.0060
# 3 44.6741 44.6906 122.2483 -0.0081 -0.0192 -0.0076
# 4 0.2647 -0.2965 -0.0081 5.9199 0.0169 0.0116
# 5 0.0005 0.0160 -0.0192 0.0169 5.7678 0.2986
# 6 -0.0093 -0.0060 -0.0076 0.0116 0.2986 32.7465
#
#
#
# Elastic Compliance Matrix: (Units=1/GPa)
#
#
# Indices 1 2 3 4 5 6 
#
# 1 0.011171 -0.004099 -0.002584 -0.000708 0.000004 0.000002
# 2 -0.004099 0.011174 -0.002587 0.000739 -0.000041 0.000000
# 3 -0.002584 -0.002587 0.010070 0.000000 0.000041 0.000001
# 4 -0.000708 0.000739 0.000000 0.168992 -0.000495 -0.000055
# 5 0.000004 -0.000041 0.000041 -0.000495 0.173461 -0.001581
# 6 0.000002 0.000000 0.000001 -0.000055 -0.001581 0.030552
#
#
# Mechanical properties :
#
#
# Convention : Reuss Voigt Hill
#
# Bulk Modulus (GPa) = 72.06911 72.11588 72.09249
# Shear Modulus (GPa) = 11.66629 23.43099 17.54864
#
# Velocity S-wave (km/s) = 2.49105 3.53029 3.05518
# Velocity P-wave (km/s) = 6.82696 7.41457 7.12682
#
# Compressibility (1/GPa) = 0.01387557
#
# Stress axis : x y z
#
# Youngs Moduli (GPa) = 89.51582 89.49438 99.30407
#
# Poissons Ratio (x) = 0.36683 0.25660
# Poissons Ratio (y) = 0.36691 0.25689
# Poissons Ratio (z) = 0.23131 0.23152
#
# Static dielectric constant tensor:
#      x y z
#    x 1.557200 -0.000150 -0.000230 
#    y -0.000150 1.553530 0.000030 
#    z -0.000230 0.000030 1.658570 
# 
# From -- ./inp_files/1838.got.cif
#   From: 2010.05.17/outbox.cif.g08.bks.cpg/sg166_1_cif.got.tgz:1838.got - 2010.05.20 11:04:41.
