data_PCOD9579557
_publ_section_title
;
Structure prediction by ZEFSAII (Michael W. Deem and Ramdas Pophale) SiO2 
 PCOD9579557
Probable space group: R -3 C 
;
_chemical_formula_sum "Si O2"
_cell_formula_units_Z 120
_cell_length_a 16.892721
_cell_length_b 16.892721
_cell_length_c 21.862243
_cell_angle_alpha 90.000000
_cell_angle_beta 90.000000
_cell_angle_gamma 120.000000
_cell_volume 5402.870616
_symmetry_space_group_name_H-M "R -3 C "
_symmetry_group_IT_number 167
_symmetry_cell_setting 'hexagonal'
loop_
_space_group_symop_operation_xyz
x,y,z
-y,x-y,z
-x+y,-x,z
x-y,-y,1/2-z
-x,-x+y,1/2-z
y,x,1/2-z
-x,-y,-z
y,-x+y,-z
x-y,x,-z
-x+y,y,1/2+z
x,x-y,1/2+z
-y,-x,1/2+z
2/3+x,1/3+y,1/3+z
2/3-y,1/3+x-y,1/3+z
2/3-x+y,1/3-x,1/3+z
2/3+x-y,1/3-y,5/6-z
2/3-x,1/3-x+y,5/6-z
2/3+y,1/3+x,5/6-z
2/3-x,1/3-y,1/3-z
2/3+y,1/3-x+y,1/3-z
2/3+x-y,1/3+x,1/3-z
2/3-x+y,1/3+y,5/6+z
2/3+x,1/3+x-y,5/6+z
2/3-y,1/3-x,5/6+z
1/3+x,2/3+y,2/3+z
1/3-y,2/3+x-y,2/3+z
1/3-x+y,2/3-x,2/3+z
1/3+x-y,2/3-y,1/6-z
1/3-x,2/3-x+y,1/6-z
1/3+y,2/3+x,1/6-z
1/3-x,2/3-y,2/3-z
1/3+y,2/3-x+y,2/3-z
1/3+x-y,2/3+x,2/3-z
1/3-x+y,2/3+y,1/6+z
1/3+x,2/3+x-y,1/6+z
1/3-y,2/3-x,1/6+z
loop_
_atom_site_type_symbol
_atom_site_label
_atom_site_fract_x
_atom_site_fract_y
_atom_site_fract_z
Si Si1 0.991929 0.632234 0.980499
Si Si2 0.666667 0.333334 0.760317
Si Si3 0.382357 0.839628 0.811110
Si Si4 0.101358 0.333334 0.583334
Si Si5 0.503683 0.666667 0.416667
O O1 0.973797 0.666667 0.916667
O O2 0.894937 0.549963 0.998998
O O3 0.072727 0.612427 0.960485
O O4 0.032720 0.716437 0.027187
O O5 0.666668 0.333335 0.833334
O O6 0.576421 0.248142 0.731739
O O7 0.470593 0.914404 0.772488
O O8 0.422869 0.817862 0.871190
#
# Coordination Sequence:
#
# PCOD9579557 Si02
#       5
#    36  12  36  18  18
#     4   9  20  37  67  99 116 172 221 266 320 368
#     4  12  33  40  62  97 132 177 211 257 352 414
#     4  11  23  45  64  95 140 169 209 279 324 392
#     4  10  21  40  71  96 128 170 220 278 311 382
#     4   8  21  40  67  94 118 176 222 248 333 382
#
# _framework density 22.210414
#
# number of rings (size 3 to 8) (size 9 to 14) (size 15 to 20)
#    0.900    1.200    1.500    0.000    4.200    6.000 
#    0.000    6.000    0.000    0.000    0.000    0.000 
#    0.000    0.000    0.000    0.000    0.000    0.000 
#
# Total GULP energy -223154.701398 kJ/mol
# GULP energy per Si atom -5578.867535 kJ/mol
# Density = 2.215986 g / cm^3
# Si number density = 22.210414 Si / 1000 Ang^3
#
#
#
# Elastic Constant Matrix: (Units=GPa)
#
#
# Indices 1 2 3 4 5 6 
#
# 1 63.7848 24.4144 21.7481 -8.6307 0.0003 0.0000
# 2 24.4144 63.7861 21.7486 8.6307 -0.0003 0.0000
# 3 21.7481 21.7486 111.2014 0.0001 0.0000 0.0000
# 4 -8.6307 8.6307 0.0001 27.3233 0.0000 -0.0003
# 5 0.0003 -0.0003 0.0000 0.0000 27.3233 -8.6307
# 6 0.0000 0.0000 0.0000 -0.0003 -8.6307 19.6856
#
#
#
# Elastic Compliance Matrix: (Units=1/GPa)
#
#
# Indices 1 2 3 4 5 6 
#
# 1 0.021015 -0.008467 -0.002454 0.009313 0.000000 0.000000
# 2 -0.008467 0.021015 -0.002454 -0.009313 0.000000 0.000000
# 3 -0.002454 -0.002454 0.009953 0.000000 0.000000 0.000000
# 4 0.009313 -0.009313 0.000000 0.042482 0.000000 0.000001
# 5 0.000000 0.000000 0.000000 0.000000 0.042482 0.018625
# 6 0.000000 0.000000 0.000000 0.000001 0.018625 0.058964
#
#
# Mechanical properties :
#
#
# Convention : Reuss Voigt Hill
#
# Bulk Modulus (GPa) = 39.63147 41.62160 40.62654
# Shear Modulus (GPa) = 21.63817 26.25717 23.94767
#
# Velocity S-wave (km/s) = 3.12466 3.44205 3.28719
# Velocity P-wave (km/s) = 5.55881 5.88024 5.72178
#
# Compressibility (1/GPa) = 0.02523247
#
# Stress axis : x y z
#
# Youngs Moduli (GPa) = 47.58406 47.58505 100.47593
#
# Poissons Ratio (x) = 0.40291 0.24658
# Poissons Ratio (y) = 0.40290 0.24658
# Poissons Ratio (z) = 0.11678 0.11678
#
# Static dielectric constant tensor:
#      x y z
#    x 1.855730 0.000000 0.000000 
#    y 0.000000 1.855730 0.000000 
#    z 0.000000 0.000000 1.792760 
# 
# From -- ./inp_files/5133.got.cif
#   From: 2010.05.17/outbox.cif.g08.bks.cpg/sg167_3_cif.got.tgz:5133.got - 2010.05.20 11:09:15.
