data_PCOD9579246
_publ_section_title
;
Structure prediction by ZEFSAII (Michael W. Deem and Ramdas Pophale) SiO2 
 PCOD9579246
Probable space group: R -3 M
;
_chemical_formula_sum "Si O2"
_cell_formula_units_Z 252
_cell_length_a 29.885086
_cell_length_b 29.885086
_cell_length_c 18.616669
_cell_angle_alpha 90.000000
_cell_angle_beta 90.000000
_cell_angle_gamma 120.000000
_cell_volume 14399.308245
_symmetry_space_group_name_H-M "R -3 M"
_symmetry_group_IT_number 166
_symmetry_cell_setting 'hexagonal'
loop_
_space_group_symop_operation_xyz
x,y,z
-y,x-y,z
-x+y,-x,z
x-y,-y,-z
-x,-x+y,-z
y,x,-z
-x,-y,-z
y,-x+y,-z
x-y,x,-z
-x+y,y,z
x,x-y,z
-y,-x,z
2/3+x,1/3+y,1/3+z
2/3-y,1/3+x-y,1/3+z
2/3-x+y,1/3-x,1/3+z
2/3+x-y,1/3-y,1/3-z
2/3-x,1/3-x+y,1/3-z
2/3+y,1/3+x,1/3-z
2/3-x,1/3-y,1/3-z
2/3+y,1/3-x+y,1/3-z
2/3+x-y,1/3+x,1/3-z
2/3-x+y,1/3+y,1/3+z
2/3+x,1/3+x-y,1/3+z
2/3-y,1/3-x,1/3+z
1/3+x,2/3+y,2/3+z
1/3-y,2/3+x-y,2/3+z
1/3-x+y,2/3-x,2/3+z
1/3+x-y,2/3-y,2/3-z
1/3-x,2/3-x+y,2/3-z
1/3+y,2/3+x,2/3-z
1/3-x,2/3-y,2/3-z
1/3+y,2/3-x+y,2/3-z
1/3+x-y,2/3+x,2/3-z
1/3-x+y,2/3+y,2/3+z
1/3+x,2/3+x-y,2/3+z
1/3-y,2/3-x,2/3+z
loop_
_atom_site_type_symbol
_atom_site_label
_atom_site_fract_x
_atom_site_fract_y
_atom_site_fract_z
Si Si1 0.713200 0.715152 0.616925
Si Si2 0.078510 0.819575 0.197853
Si Si3 0.985921 0.731724 0.916889
Si Si4 0.938711 0.422490 0.490555
Si Si5 0.192050 0.907877 0.454329
Si Si6 0.469534 0.358889 0.624863
Si Si7 0.148055 0.954566 0.557998
O O1 0.699695 0.666667 0.666667
O O2 0.662332 0.699421 0.569736
O O3 0.768410 0.731194 0.581708
O O4 0.723530 0.760105 0.672380
O O5 0.120307 0.879694 0.202089
O O6 0.056323 0.799674 0.117943
O O7 0.109172 0.788671 0.213261
O O8 0.030539 0.802730 0.252367
O O9 0.038114 0.773207 0.879533
O O10 0.000000 0.740983 0.000000
O O11 0.922883 0.461442 0.453707
O O12 0.905785 0.401690 0.563825
O O13 0.000000 0.455598 0.500000
O O14 0.134895 0.865106 0.423584
O O15 0.178626 0.925071 0.529988
O O16 0.504034 0.361496 0.692758
O O17 0.088132 0.911869 0.553184
O O18 0.163446 0.000000 0.500000
#
# Coordination Sequence:
#
# PCOD9579246 Si02
#       7
#    36  36  36  36  36  36  36
#     4  11  19  32  51  76 105 143 184 227 267 319
#     4  10  22  36  53  78 111 144 178 224 274 326
#     4  10  22  34  53  78 102 142 186 223 274 323
#     4  10  21  36  52  73 100 134 182 233 273 315
#     4  10  21  34  50  76 107 143 185 226 270 317
#     4  11  21  35  54  77 106 141 182 225 272 319
#     4  11  23  38  57  80 109 143 180 223 275 327
#
# _framework density 17.500841000000001
#
# number of rings (size 3 to 8) (size 9 to 14) (size 15 to 20)
#    0.000    1.571    2.857    3.000    2.000    2.000 
#    0.000    3.571    0.000    0.143    0.000    0.000 
#    0.000    0.000    0.000   14.143    0.000   37.857 
#
# Total GULP energy -467699.955147 kJ/mol
# GULP energy per Si atom -5567.856609 kJ/mol
# Density = 1.746101 g / cm^3
# Si number density = 17.500841 Si / 1000 Ang^3
#
#
#
# Elastic Constant Matrix: (Units=GPa)
#
#
# Indices 1 2 3 4 5 6 
#
# 1 108.7226 25.3853 37.1050 4.5320 0.0000 0.0000
# 2 25.3853 108.7226 37.1050 -4.5320 0.0000 0.0000
# 3 37.1050 37.1050 83.4217 0.0000 0.0000 0.0000
# 4 4.5320 -4.5320 0.0000 17.5957 0.0000 0.0000
# 5 0.0000 0.0000 0.0000 0.0000 17.5957 4.5320
# 6 0.0000 0.0000 0.0000 0.0000 4.5320 41.6686
#
#
#
# Elastic Compliance Matrix: (Units=1/GPa)
#
#
# Indices 1 2 3 4 5 6 
#
# 1 0.011118 -0.001227 -0.004399 -0.003180 0.000000 0.000000
# 2 -0.001227 0.011118 -0.004399 0.003180 0.000000 0.000000
# 3 -0.004399 -0.004399 0.015901 0.000000 0.000000 0.000000
# 4 -0.003180 0.003180 0.000000 0.058470 0.000000 0.000000
# 5 0.000000 0.000000 0.000000 0.000000 0.058470 -0.006359
# 6 0.000000 0.000000 0.000000 0.000000 -0.006359 0.024691
#
#
# Mechanical properties :
#
#
# Convention : Reuss Voigt Hill
#
# Bulk Modulus (GPa) = 55.29325 55.56198 55.42761
# Shear Modulus (GPa) = 24.28973 28.79012 26.53992
#
# Velocity S-wave (km/s) = 3.72952 4.06035 3.89844
# Velocity P-wave (km/s) = 7.08583 7.33478 7.21138
#
# Compressibility (1/GPa) = 0.01808539
#
# Stress axis : x y z
#
# Youngs Moduli (GPa) = 89.94242 89.94242 62.88921
#
# Poissons Ratio (x) = 0.11036 0.27668
# Poissons Ratio (y) = 0.11036 0.27668
# Poissons Ratio (z) = 0.39570 0.39570
#
# Static dielectric constant tensor:
#      x y z
#    x 1.626550 0.000000 0.000000 
#    y 0.000000 1.626550 0.000000 
#    z 0.000000 0.000000 1.776020 
# 
# From -- ./inp_files/5825.got.cif
#   From: 2010.05.17/outbox.cif.g08.bks.cpg/sg166_3_cif.got.tgz:5825.got - 2010.05.20 11:04:41.
