data_PCOD9579003
_publ_section_title
;
Structure prediction by ZEFSAII (Michael W. Deem and Ramdas Pophale) SiO2 
 PCOD9579003
Probable space group: P -3 C 1
;
_chemical_formula_sum "Si O2"
_cell_formula_units_Z 24
_cell_length_a 8.315154
_cell_length_b 8.315154
_cell_length_c 15.192984
_cell_angle_alpha 90.000000
_cell_angle_beta 90.000000
_cell_angle_gamma 120.000000
_cell_volume 909.733748
_symmetry_space_group_name_H-M "P -3 C 1"
_symmetry_group_IT_number 165
_symmetry_cell_setting 'hexagonal'
loop_
_space_group_symop_operation_xyz
x,y,z
-y,x-y,z
-x+y,-x,z
x-y,-y,1/2-z
-x,-x+y,1/2-z
y,x,1/2-z
-x,-y,-z
y,-x+y,-z
x-y,x,-z
-x+y,y,1/2+z
x,x-y,1/2+z
-y,-x,1/2+z
loop_
_atom_site_type_symbol
_atom_site_label
_atom_site_fract_x
_atom_site_fract_y
_atom_site_fract_z
Si Si1 0.378222 0.000255 0.916275
Si Si2 0.691717 0.995331 0.848165
O O1 0.477599 0.941326 0.842688
O O2 0.392360 0.192928 0.890293
O O3 0.158978 0.855766 0.910287
O O4 0.500000 0.000000 0.000000
O O5 0.764313 0.000000 0.750000
#
# Coordination Sequence:
#
# PCOD9579003 Si02
#       2
#    12  12
#     4  12  27  48  78 116 162 211 270 343 414 487
#     4  12  25  48  77 114 159 215 275 339 410 497
#
# _framework density 26.381349
#
# number of rings (size 3 to 8) (size 9 to 14) (size 15 to 20)
#    0.000    0.000    0.000   10.500    0.000    0.000 
#    0.000    5.000    0.000    0.000    0.000    0.000 
#    0.000    0.000    0.000    0.000    0.000    0.000 
#
# Total GULP energy -134207.270946 kJ/mol
# GULP energy per Si atom -5591.969623 kJ/mol
# Density = 2.632130 g / cm^3
# Si number density = 26.381349 Si / 1000 Ang^3
#
#
#
# Elastic Constant Matrix: (Units=GPa)
#
#
# Indices 1 2 3 4 5 6 
#
# 1 160.5069 30.2284 33.1054 -5.5308 0.0000 0.0000
# 2 30.2284 160.5069 33.1054 5.5308 0.0000 0.0000
# 3 33.1054 33.1054 200.7177 0.0000 0.0000 0.0000
# 4 -5.5308 5.5308 0.0000 28.9398 0.0000 0.0000
# 5 0.0000 0.0000 0.0000 0.0000 28.9398 -5.5308
# 6 0.0000 0.0000 0.0000 0.0000 -5.5308 65.1393
#
#
#
# Elastic Compliance Matrix: (Units=1/GPa)
#
#
# Indices 1 2 3 4 5 6 
#
# 1 0.006682 -0.001121 -0.000917 0.001491 0.000000 0.000000
# 2 -0.001121 0.006682 -0.000917 -0.001491 0.000000 0.000000
# 3 -0.000917 -0.000917 0.005285 0.000000 0.000000 0.000000
# 4 0.001491 -0.001491 0.000000 0.035124 0.000000 0.000000
# 5 0.000000 0.000000 0.000000 0.000000 0.035124 0.002982
# 6 0.000000 0.000000 0.000000 0.000000 0.002982 0.015605
#
#
# Mechanical properties :
#
#
# Convention : Reuss Voigt Hill
#
# Bulk Modulus (GPa) = 78.50370 79.40108 78.95239
# Shear Modulus (GPa) = 43.60771 52.95658 48.28215
#
# Velocity S-wave (km/s) = 4.07009 4.48521 4.28268
# Velocity P-wave (km/s) = 7.20482 7.54888 7.37885
#
# Compressibility (1/GPa) = 0.01273825
#
# Stress axis : x y z
#
# Youngs Moduli (GPa) = 149.65860 149.65860 189.22571
#
# Poissons Ratio (x) = 0.16771 0.17357
# Poissons Ratio (y) = 0.16771 0.17357
# Poissons Ratio (z) = 0.13727 0.13727
#
# Static dielectric constant tensor:
#      x y z
#    x 2.055810 0.000000 0.000000 
#    y 0.000000 2.055810 0.000000 
#    z 0.000000 0.000000 2.248040 
# 
# From -- ./inp_files/1947.got.cif
#   From: 2010.05.17/outbox.cif.g08.bks.cpg/sg165_1_cif.got.tgz:1947.got - 2010.05.20 11:02:39.
