data_PCOD9579561
_publ_section_title
;
Structure prediction by ZEFSAII (Michael W. Deem and Ramdas Pophale) SiO2 
 PCOD9579561
Probable space group: R -3 C 
;
_chemical_formula_sum "Si O2"
_cell_formula_units_Z 126
_cell_length_a 21.486837
_cell_length_b 21.486837
_cell_length_c 15.967860
_cell_angle_alpha 90.000000
_cell_angle_beta 90.000000
_cell_angle_gamma 120.000000
_cell_volume 6384.432893
_symmetry_space_group_name_H-M "R -3 C "
_symmetry_group_IT_number 167
_symmetry_cell_setting 'hexagonal'
loop_
_space_group_symop_operation_xyz
x,y,z
-y,x-y,z
-x+y,-x,z
x-y,-y,1/2-z
-x,-x+y,1/2-z
y,x,1/2-z
-x,-y,-z
y,-x+y,-z
x-y,x,-z
-x+y,y,1/2+z
x,x-y,1/2+z
-y,-x,1/2+z
2/3+x,1/3+y,1/3+z
2/3-y,1/3+x-y,1/3+z
2/3-x+y,1/3-x,1/3+z
2/3+x-y,1/3-y,5/6-z
2/3-x,1/3-x+y,5/6-z
2/3+y,1/3+x,5/6-z
2/3-x,1/3-y,1/3-z
2/3+y,1/3-x+y,1/3-z
2/3+x-y,1/3+x,1/3-z
2/3-x+y,1/3+y,5/6+z
2/3+x,1/3+x-y,5/6+z
2/3-y,1/3-x,5/6+z
1/3+x,2/3+y,2/3+z
1/3-y,2/3+x-y,2/3+z
1/3-x+y,2/3-x,2/3+z
1/3+x-y,2/3-y,1/6-z
1/3-x,2/3-x+y,1/6-z
1/3+y,2/3+x,1/6-z
1/3-x,2/3-y,2/3-z
1/3+y,2/3-x+y,2/3-z
1/3+x-y,2/3+x,2/3-z
1/3-x+y,2/3+y,1/6+z
1/3+x,2/3+x-y,1/6+z
1/3-y,2/3-x,1/6+z
loop_
_atom_site_type_symbol
_atom_site_label
_atom_site_fract_x
_atom_site_fract_y
_atom_site_fract_z
Si Si1 0.120285 0.319408 0.483414
Si Si2 0.333334 0.311301 0.916667
Si Si3 0.914679 0.835012 0.480818
Si Si4 0.730175 0.566945 0.521310
O O1 0.132108 0.333334 0.583334
O O2 0.118647 0.187735 0.611993
O O3 0.190893 0.382986 0.439926
O O4 0.049862 0.321638 0.458414
O O5 0.291899 0.246916 0.851116
O O6 0.880547 0.879772 0.520245
O O7 0.891517 0.760188 0.529165
O O8 0.666667 0.517477 0.583334
#
# Coordination Sequence:
#
# PCOD9579561 Si02
#       4
#    36  18  36  36
#     4  10  21  41  65  97 129 168 215 276 333 393
#     4  12  20  40  70  94 128 174 216 272 346 402
#     4  11  21  42  67  88 126 183 225 257 329 408
#     4  11  23  41  62  98 136 168 221 284 325 392
#
# _framework density 19.735505
#
# number of rings (size 3 to 8) (size 9 to 14) (size 15 to 20)
#    0.000    1.143    7.143    1.143    0.000    3.429 
#   10.286    0.000    0.000    0.000    0.000    0.000 
#    0.000    0.000    0.000    0.000    0.000    0.000 
#
# Total GULP energy -234678.183534 kJ/mol
# GULP energy per Si atom -5587.575798 kJ/mol
# Density = 1.969059 g / cm^3
# Si number density = 19.735505 Si / 1000 Ang^3
#
#
#
# Elastic Constant Matrix: (Units=GPa)
#
#
# Indices 1 2 3 4 5 6 
#
# 1 145.3000 97.6793 42.7141 -2.4135 0.0001 0.0000
# 2 97.6793 145.3000 42.7141 2.4135 -0.0001 0.0000
# 3 42.7141 42.7141 35.7514 0.0000 0.0000 0.0000
# 4 -2.4135 2.4135 0.0000 31.7829 0.0000 -0.0001
# 5 0.0001 -0.0001 0.0000 0.0000 31.7829 -2.4135
# 6 0.0000 0.0000 0.0000 -0.0001 -2.4135 23.8103
#
#
#
# Elastic Compliance Matrix: (Units=1/GPa)
#
#
# Indices 1 2 3 4 5 6 
#
# 1 0.014129 -0.007033 -0.008479 0.001607 0.000000 0.000000
# 2 -0.007033 0.014129 -0.008479 -0.001607 0.000000 0.000000
# 3 -0.008479 -0.008479 0.048231 0.000000 0.000000 0.000000
# 4 0.001607 -0.001607 0.000000 0.031708 0.000000 0.000000
# 5 0.000000 0.000000 0.000000 0.000000 0.031708 0.003214
# 6 0.000000 0.000000 0.000000 0.000000 0.003214 0.042324
#
#
# Mechanical properties :
#
#
# Convention : Reuss Voigt Hill
#
# Bulk Modulus (GPa) = 35.07630 76.95181 56.01405
# Shear Modulus (GPa) = 20.85835 27.02479 23.94157
#
# Velocity S-wave (km/s) = 3.25452 3.70449 3.48677
# Velocity P-wave (km/s) = 5.65104 7.57455 6.68237
#
# Compressibility (1/GPa) = 0.02850928
#
# Stress axis : x y z
#
# Youngs Moduli (GPa) = 70.77457 70.77457 20.73371
#
# Poissons Ratio (x) = 0.49775 0.17579
# Poissons Ratio (y) = 0.49775 0.17579
# Poissons Ratio (z) = 0.60007 0.60007
#
# Static dielectric constant tensor:
#      x y z
#    x 1.703160 0.000000 0.000000 
#    y 0.000000 1.703160 0.000000 
#    z 0.000000 0.000000 1.702160 
# 
# From -- ./inp_files/3189.got.cif
#   From: 2010.05.17/outbox.cif.g08.bks.cpg/sg167_2_cif.got.tgz:3189.got - 2010.05.20 11:09:15.
