data_PCOD9579474
_publ_section_title
;
Structure prediction by ZEFSAII (Michael W. Deem and Ramdas Pophale) SiO2 
 PCOD9579474
Probable space group: R -3 C 
;
_chemical_formula_sum "Si O2"
_cell_formula_units_Z 180
_cell_length_a 26.184622
_cell_length_b 26.184622
_cell_length_c 17.650874
_cell_angle_alpha 90.000000
_cell_angle_beta 90.000000
_cell_angle_gamma 120.000000
_cell_volume 10480.680072
_symmetry_space_group_name_H-M "R -3 C "
_symmetry_group_IT_number 167
_symmetry_cell_setting 'hexagonal'
loop_
_space_group_symop_operation_xyz
x,y,z
-y,x-y,z
-x+y,-x,z
x-y,-y,1/2-z
-x,-x+y,1/2-z
y,x,1/2-z
-x,-y,-z
y,-x+y,-z
x-y,x,-z
-x+y,y,1/2+z
x,x-y,1/2+z
-y,-x,1/2+z
2/3+x,1/3+y,1/3+z
2/3-y,1/3+x-y,1/3+z
2/3-x+y,1/3-x,1/3+z
2/3+x-y,1/3-y,5/6-z
2/3-x,1/3-x+y,5/6-z
2/3+y,1/3+x,5/6-z
2/3-x,1/3-y,1/3-z
2/3+y,1/3-x+y,1/3-z
2/3+x-y,1/3+x,1/3-z
2/3-x+y,1/3+y,5/6+z
2/3+x,1/3+x-y,5/6+z
2/3-y,1/3-x,5/6+z
1/3+x,2/3+y,2/3+z
1/3-y,2/3+x-y,2/3+z
1/3-x+y,2/3-x,2/3+z
1/3+x-y,2/3-y,1/6-z
1/3-x,2/3-x+y,1/6-z
1/3+y,2/3+x,1/6-z
1/3-x,2/3-y,2/3-z
1/3+y,2/3-x+y,2/3-z
1/3+x-y,2/3+x,2/3-z
1/3-x+y,2/3+y,1/6+z
1/3+x,2/3+x-y,1/6+z
1/3-y,2/3-x,1/6+z
loop_
_atom_site_type_symbol
_atom_site_label
_atom_site_fract_x
_atom_site_fract_y
_atom_site_fract_z
Si Si1 0.217222 0.891916 0.376317
Si Si2 0.326860 0.053555 0.566178
Si Si3 0.567395 0.768027 0.668553
Si Si4 0.648848 0.141667 0.420190
Si Si5 0.333334 0.883323 0.416667
Si Si6 0.883319 0.216652 0.416667
O O1 0.166667 0.833334 0.333334
O O2 0.241466 0.936725 0.305892
O O3 0.184659 0.906577 0.441545
O O4 0.273381 0.888362 0.410597
O O5 0.327694 0.994361 0.583334
O O6 0.260128 0.037610 0.573639
O O7 0.349125 0.088334 0.487876
O O8 0.527103 0.708500 0.624148
O O9 0.526034 0.784671 0.718435
O O10 0.611570 0.821428 0.612105
O O11 0.662497 0.149643 0.509073
#
# Coordination Sequence:
#
# PCOD9579474 Si02
#       6
#    36  36  36  36  18  18
#     4  11  20  37  51  79 118 149 206 242 281 361
#     4  10  23  33  50  82 111 152 190 225 282 347
#     4  11  22  37  56  82 111 153 193 251 292 354
#     4  10  23  36  59  79 113 153 199 243 299 354
#     4  10  20  35  56  82 110 172 192 238 305 352
#     4  10  20  35  50  76 114 150 190 234 283 334
#
# _framework density 17.174457
#
# number of rings (size 3 to 8) (size 9 to 14) (size 15 to 20)
#    0.000    1.600    6.000    1.200   12.600    0.800 
#    0.000    0.000    0.000    0.400    0.000    0.000 
#    0.000    0.000    0.000    0.000    0.000    0.000 
#
# Total GULP energy -334013.148400 kJ/mol
# GULP energy per Si atom -5566.885807 kJ/mol
# Density = 1.713537 g / cm^3
# Si number density = 17.174457 Si / 1000 Ang^3
#
#
#
# Elastic Constant Matrix: (Units=GPa)
#
#
# Indices 1 2 3 4 5 6 
#
# 1 65.3815 24.7898 48.7291 -10.9431 0.0000 0.0000
# 2 24.7898 65.3815 48.7291 10.9431 0.0000 0.0000
# 3 48.7291 48.7291 155.0408 0.0000 0.0000 0.0000
# 4 -10.9431 10.9431 0.0000 19.0554 0.0000 0.0000
# 5 0.0000 0.0000 0.0000 0.0000 19.0554 -10.9431
# 6 0.0000 0.0000 0.0000 0.0000 -10.9431 20.2959
#
#
#
# Elastic Compliance Matrix: (Units=1/GPa)
#
#
# Indices 1 2 3 4 5 6 
#
# 1 0.026240 -0.009445 -0.005279 0.020493 0.000000 0.000000
# 2 -0.009445 0.026240 -0.005279 -0.020493 0.000000 0.000000
# 3 -0.005279 -0.005279 0.009768 0.000000 0.000000 0.000000
# 4 0.020493 -0.020493 0.000000 0.076016 0.000000 0.000000
# 5 0.000000 0.000000 0.000000 0.000000 0.076016 0.040986
# 6 0.000000 0.000000 0.000000 0.000000 0.040986 0.071370
#
#
# Mechanical properties :
#
#
# Convention : Reuss Voigt Hill
#
# Bulk Modulus (GPa) = 44.95635 58.92222 51.93928
# Shear Modulus (GPa) = 15.01188 22.58507 18.79848
#
# Velocity S-wave (km/s) = 2.95970 3.63028 3.31200
# Velocity P-wave (km/s) = 6.15734 7.20794 6.70326
#
# Compressibility (1/GPa) = 0.02224380
#
# Stress axis : x y z
#
# Youngs Moduli (GPa) = 38.10953 38.10953 102.37372
#
# Poissons Ratio (x) = 0.35994 0.54041
# Poissons Ratio (y) = 0.35994 0.54041
# Poissons Ratio (z) = 0.20117 0.20117
#
# Static dielectric constant tensor:
#      x y z
#    x 1.785330 0.000000 0.000000 
#    y 0.000000 1.785330 0.000000 
#    z 0.000000 0.000000 1.721950 
# 
# From -- ./inp_files/3614.got.cif
#   From: 2010.05.17/outbox.cif.g08.bks.cpg/sg167_2_cif.got.tgz:3614.got - 2010.05.20 11:09:15.
