data_PCOD9579882
_publ_section_title
;
Structure prediction by ZEFSAII (Michael W. Deem and Ramdas Pophale) SiO2 
 PCOD9579882
Probable space group: P 61
;
_chemical_formula_sum "Si O2"
_cell_formula_units_Z 42
_cell_length_a 15.404339
_cell_length_b 15.404339
_cell_length_c 10.448920
_cell_angle_alpha 90.000000
_cell_angle_beta 90.000000
_cell_angle_gamma 120.000000
_cell_volume 2147.277487
_symmetry_space_group_name_H-M "P 61"
_symmetry_group_IT_number 169
_symmetry_cell_setting 'hexagonal'
loop_
_space_group_symop_operation_xyz
x,y,z
x-y,x,1/6+z
-y,x-y,1/3+z
-x,-y,1/2+z
-x+y,-x,2/3+z
y,-x+y,5/6+z
loop_
_atom_site_type_symbol
_atom_site_label
_atom_site_fract_x
_atom_site_fract_y
_atom_site_fract_z
Si Si1 0.554385 0.419772 0.270940
Si Si2 0.770343 0.173643 0.727389
Si Si3 0.376301 0.123475 0.120751
Si Si4 0.523397 0.317445 0.000314
Si Si5 0.306548 0.738454 0.439281
Si Si6 0.476414 0.556166 0.272016
Si Si7 0.159981 0.975817 0.202851
O O1 0.452969 0.343755 0.343852
O O2 0.555509 0.363276 0.142206
O O3 0.648487 0.432983 0.350851
O O4 0.556235 0.521796 0.247179
O O5 0.835920 0.229686 0.601368
O O6 0.756096 0.245746 0.825258
O O7 0.811497 0.101154 0.773717
O O8 0.416270 0.218281 0.025056
O O9 0.457631 0.090014 0.092476
O O10 0.259139 0.040950 0.113368
O O11 0.608496 0.295476 0.943245
O O12 0.515308 0.396589 0.910811
O O13 0.362029 0.845026 0.507353
O O14 0.058210 0.905092 0.124219
#
# Coordination Sequence:
#
# PCOD9579882 Si02
#       7
#     6   6   6   6   6   6   6
#     4  11  21  35  57  86 120 163 204 251 301 370
#     4  10  20  36  63  89 120 154 206 259 303 369
#     4   9  19  38  60  88 117 157 210 258 304 372
#     4  10  21  38  56  85 126 162 206 249 308 376
#     4  11  22  37  59  85 124 162 195 251 317 374
#     4  11  22  34  56  89 120 164 205 251 309 373
#     4  10  21  40  69  96 117 160 216 265 318 370
#
# _framework density 19.559650999999999
#
# number of rings (size 3 to 8) (size 9 to 14) (size 15 to 20)
#    0.000    1.714    1.429    5.143    2.000    2.286 
#    0.000    0.000    6.286    0.000    0.000    0.000 
#    0.000    0.000    0.000    0.000    0.000    0.000 
#
# Total GULP energy -233842.072374 kJ/mol
# GULP energy per Si atom -5567.668390 kJ/mol
# Density = 1.951513 g / cm^3
# Si number density = 19.559651 Si / 1000 Ang^3
#
#
#
# Elastic Constant Matrix: (Units=GPa)
#
#
# Indices 1 2 3 4 5 6 
#
# 1 87.7833 64.2839 24.6768 0.0000 0.0000 0.0000
# 2 64.2839 87.7833 24.6768 0.0000 0.0000 0.0000
# 3 24.6768 24.6768 35.6938 0.0000 0.0000 0.0000
# 4 0.0000 0.0000 0.0000 23.5786 0.0000 0.0000
# 5 0.0000 0.0000 0.0000 0.0000 23.5786 0.0000
# 6 0.0000 0.0000 0.0000 0.0000 0.0000 11.7497
#
#
#
# Elastic Compliance Matrix: (Units=1/GPa)
#
#
# Indices 1 2 3 4 5 6 
#
# 1 0.025516 -0.017038 -0.005862 0.000000 0.000000 0.000000
# 2 -0.017038 0.025516 -0.005862 0.000000 0.000000 0.000000
# 3 -0.005862 -0.005862 0.036121 0.000000 0.000000 0.000000
# 4 0.000000 0.000000 0.000000 0.042411 0.000000 0.000000
# 5 0.000000 0.000000 0.000000 0.000000 0.042411 0.000000
# 6 0.000000 0.000000 0.000000 0.000000 0.000000 0.085109
#
#
# Mechanical properties :
#
#
# Convention : Reuss Voigt Hill
#
# Bulk Modulus (GPa) = 33.74785 48.72615 41.23700
# Shear Modulus (GPa) = 15.40906 18.28955 16.84930
#
# Velocity S-wave (km/s) = 2.80982 3.06120 2.93820
# Velocity P-wave (km/s) = 5.27428 6.12048 5.71307
#
# Compressibility (1/GPa) = 0.02963152
#
# Stress axis : x y z
#
# Youngs Moduli (GPa) = 39.19047 39.19047 27.68487
#
# Poissons Ratio (x) = 0.66773 0.16228
# Poissons Ratio (y) = 0.66773 0.16228
# Poissons Ratio (z) = 0.22972 0.22972
#
# Static dielectric constant tensor:
#      x y z
#    x 1.798390 0.000000 0.000000 
#    y 0.000000 1.798390 0.000000 
#    z 0.000000 0.000000 1.735160 
# 
# From -- ./inp_files/963.got.cif
#   From: 2010.05.17/outbox.cif.g08.bks.cpg/sg169_cif.got.tgz:963.got - 2010.05.20 11:12:54.
