data_PCOD9579184
_publ_section_title
;
Structure prediction by ZEFSAII (Michael W. Deem and Ramdas Pophale) SiO2 
 PCOD9579184
Probable space group: R -3 M
;
_chemical_formula_sum "Si O2"
_cell_formula_units_Z 144
_cell_length_a 29.056358
_cell_length_b 29.056358
_cell_length_c 9.047289
_cell_angle_alpha 90.000000
_cell_angle_beta 90.000000
_cell_angle_gamma 120.000000
_cell_volume 6615.024401
_symmetry_space_group_name_H-M "R -3 M"
_symmetry_group_IT_number 166
_symmetry_cell_setting 'hexagonal'
loop_
_space_group_symop_operation_xyz
x,y,z
-y,x-y,z
-x+y,-x,z
x-y,-y,-z
-x,-x+y,-z
y,x,-z
-x,-y,-z
y,-x+y,-z
x-y,x,-z
-x+y,y,z
x,x-y,z
-y,-x,z
2/3+x,1/3+y,1/3+z
2/3-y,1/3+x-y,1/3+z
2/3-x+y,1/3-x,1/3+z
2/3+x-y,1/3-y,1/3-z
2/3-x,1/3-x+y,1/3-z
2/3+y,1/3+x,1/3-z
2/3-x,1/3-y,1/3-z
2/3+y,1/3-x+y,1/3-z
2/3+x-y,1/3+x,1/3-z
2/3-x+y,1/3+y,1/3+z
2/3+x,1/3+x-y,1/3+z
2/3-y,1/3-x,1/3+z
1/3+x,2/3+y,2/3+z
1/3-y,2/3+x-y,2/3+z
1/3-x+y,2/3-x,2/3+z
1/3+x-y,2/3-y,2/3-z
1/3-x,2/3-x+y,2/3-z
1/3+y,2/3+x,2/3-z
1/3-x,2/3-y,2/3-z
1/3+y,2/3-x+y,2/3-z
1/3+x-y,2/3+x,2/3-z
1/3-x+y,2/3+y,2/3+z
1/3+x,2/3+x-y,2/3+z
1/3-y,2/3-x,2/3+z
loop_
_atom_site_type_symbol
_atom_site_label
_atom_site_fract_x
_atom_site_fract_y
_atom_site_fract_z
Si Si1 0.786635 0.840030 0.671565
Si Si2 0.024740 0.566025 0.146418
Si Si3 0.890453 0.889822 0.826534
Si Si4 0.942605 0.715037 0.069094
O O1 0.796507 0.898254 0.635488
O O2 0.746578 0.801238 0.547017
O O3 0.843943 0.848932 0.717315
O O4 0.751573 0.819828 0.821217
O O5 0.035072 0.517536 0.114316
O O6 0.980315 0.547222 0.273313
O O7 0.000000 0.576087 0.000000
O O8 0.897084 0.948542 0.808891
O O9 0.945754 0.891508 0.800317
O O10 0.875305 0.875305 0.000000
O O11 0.938383 0.666667 0.166667
O O12 0.000000 0.749236 0.000000
#
# Coordination Sequence:
#
# PCOD9579184 Si02
#       4
#    36  36  36  36
#     4   9  17  31  52  78 108 145 188 233 284 344
#     4   9  18  34  56  80 106 137 178 232 291 346
#     4   9  16  26  44  75 116 158 199 244 294 348
#     4  10  20  33  50  75 106 141 179 221 274 336
#
# _framework density 21.768628
#
# number of rings (size 3 to 8) (size 9 to 14) (size 15 to 20)
#    0.000    2.750    0.000    1.750    0.000    5.000 
#    0.000    5.000    0.000    0.000    0.000    5.250 
#    0.000    9.000    0.000    8.250    0.000  315.750 
#
# Total GULP energy -267672.680908 kJ/mol
# GULP energy per Si atom -5576.514186 kJ/mol
# Density = 2.171908 g / cm^3
# Si number density = 21.768628 Si / 1000 Ang^3
#
#
#
# Elastic Constant Matrix: (Units=GPa)
#
#
# Indices 1 2 3 4 5 6 
#
# 1 87.9327 30.5261 42.0268 13.9411 -0.0375 0.0110
# 2 30.5261 87.9530 42.0332 -13.9087 -0.0199 0.0032
# 3 42.0268 42.0332 107.0198 0.0304 -0.0259 0.0066
# 4 13.9411 -13.9087 0.0304 22.7674 0.0207 -0.0127
# 5 -0.0375 -0.0199 -0.0259 0.0207 22.7352 13.9331
# 6 0.0110 0.0032 0.0066 -0.0127 13.9331 28.7151
#
#
#
# Elastic Compliance Matrix: (Units=1/GPa)
#
#
# Indices 1 2 3 4 5 6 
#
# 1 0.018236 -0.006530 -0.004592 -0.015150 0.000057 -0.000040
# 2 -0.006530 0.018229 -0.004599 0.015141 -0.000027 0.000021
# 3 -0.004592 -0.004599 0.012954 -0.000015 0.000005 -0.000003
# 4 -0.015150 0.015141 -0.000015 0.062449 -0.000125 0.000093
# 5 0.000057 -0.000027 0.000005 -0.000125 0.062600 -0.030375
# 6 -0.000040 0.000021 -0.000003 0.000093 -0.030375 0.049563
#
#
# Mechanical properties :
#
#
# Convention : Reuss Voigt Hill
#
# Bulk Modulus (GPa) = 55.63325 56.89753 56.26539
# Shear Modulus (GPa) = 19.12295 26.06483 22.59389
#
# Velocity S-wave (km/s) = 2.96710 3.46404 3.22516
# Velocity P-wave (km/s) = 6.11150 6.49566 6.30650
#
# Compressibility (1/GPa) = 0.01797486
#
# Stress axis : x y z
#
# Youngs Moduli (GPa) = 54.83632 54.85873 77.19726
#
# Poissons Ratio (x) = 0.35825 0.35450
# Poissons Ratio (y) = 0.35810 0.35505
# Poissons Ratio (z) = 0.25181 0.25231
#
# Static dielectric constant tensor:
#      x y z
#    x 1.779380 0.000000 -0.000040 
#    y 0.000000 1.779400 -0.000010 
#    z -0.000040 -0.000010 1.835550 
# 
# From -- ./inp_files/1783.got.cif
#   From: 2010.05.17/outbox.cif.g08.bks.cpg/sg166_1_cif.got.tgz:1783.got - 2010.05.20 11:04:41.
