data_PCOD9579658
_publ_section_title
;
Structure prediction by ZEFSAII (Michael W. Deem and Ramdas Pophale) SiO2 
 PCOD9579658
Probable space group: R -3 C 
;
_chemical_formula_sum "Si O2"
_cell_formula_units_Z 144
_cell_length_a 19.811393
_cell_length_b 19.811393
_cell_length_c 18.714520
_cell_angle_alpha 90.000000
_cell_angle_beta 90.000000
_cell_angle_gamma 120.000000
_cell_volume 6361.204400
_symmetry_space_group_name_H-M "R -3 C "
_symmetry_group_IT_number 167
_symmetry_cell_setting 'hexagonal'
loop_
_space_group_symop_operation_xyz
x,y,z
-y,x-y,z
-x+y,-x,z
x-y,-y,1/2-z
-x,-x+y,1/2-z
y,x,1/2-z
-x,-y,-z
y,-x+y,-z
x-y,x,-z
-x+y,y,1/2+z
x,x-y,1/2+z
-y,-x,1/2+z
2/3+x,1/3+y,1/3+z
2/3-y,1/3+x-y,1/3+z
2/3-x+y,1/3-x,1/3+z
2/3+x-y,1/3-y,5/6-z
2/3-x,1/3-x+y,5/6-z
2/3+y,1/3+x,5/6-z
2/3-x,1/3-y,1/3-z
2/3+y,1/3-x+y,1/3-z
2/3+x-y,1/3+x,1/3-z
2/3-x+y,1/3+y,5/6+z
2/3+x,1/3+x-y,5/6+z
2/3-y,1/3-x,5/6+z
1/3+x,2/3+y,2/3+z
1/3-y,2/3+x-y,2/3+z
1/3-x+y,2/3-x,2/3+z
1/3+x-y,2/3-y,1/6-z
1/3-x,2/3-x+y,1/6-z
1/3+y,2/3+x,1/6-z
1/3-x,2/3-y,2/3-z
1/3+y,2/3-x+y,2/3-z
1/3+x-y,2/3+x,2/3-z
1/3-x+y,2/3+y,1/6+z
1/3+x,2/3+x-y,1/6+z
1/3-y,2/3-x,1/6+z
loop_
_atom_site_type_symbol
_atom_site_label
_atom_site_fract_x
_atom_site_fract_y
_atom_site_fract_z
Si Si1 0.106415 0.630074 0.318282
Si Si2 0.489792 0.488796 0.584827
Si Si3 0.333334 0.756148 0.916667
Si Si4 0.309762 0.000000 0.750000
Si Si5 0.766512 0.514471 0.840016
O O1 0.194687 0.669877 0.349076
O O2 0.056350 0.671343 0.297684
O O3 0.109775 0.588305 0.245678
O O4 0.055058 0.572717 0.380509
O O5 0.500000 0.500000 0.500000
O O6 0.437177 0.400671 0.615042
O O7 0.452702 0.538645 0.615013
O O8 0.260747 0.666667 0.916667
O O9 0.799378 0.458567 0.816510
#
# Coordination Sequence:
#
# PCOD9579658 Si02
#       5
#    36  36  18  18  36
#     4  12  25  50  72 112 157 195 258 320 396 474
#     4  12  27  48  78 113 152 204 262 323 395 481
#     4  10  28  47  79 112 154 206 266 332 400 476
#     4  12  26  49  75 112 150 202 248 322 388 470
#     4  12  27  48  75 112 154 205 261 321 397 470
#
# _framework density 22.637222999999999
#
# number of rings (size 3 to 8) (size 9 to 14) (size 15 to 20)
#    0.250    0.000    5.000    1.750    8.750    0.000 
#    9.000    0.000    0.000    0.000    0.000    0.000 
#    0.000    0.000    0.000    0.000    0.000    0.000 
#
# Total GULP energy -268124.890908 kJ/mol
# GULP energy per Si atom -5585.935227 kJ/mol
# Density = 2.258570 g / cm^3
# Si number density = 22.637223 Si / 1000 Ang^3
#
#
#
# Elastic Constant Matrix: (Units=GPa)
#
#
# Indices 1 2 3 4 5 6 
#
# 1 99.9541 36.9073 9.7069 -8.0913 0.0000 0.0000
# 2 36.9073 99.9541 9.7069 8.0913 0.0000 0.0000
# 3 9.7069 9.7069 103.0914 0.0000 0.0000 0.0000
# 4 -8.0913 8.0913 0.0000 28.4572 0.0000 0.0000
# 5 0.0000 0.0000 0.0000 0.0000 28.4572 -8.0913
# 6 0.0000 0.0000 0.0000 0.0000 -8.0913 31.5234
#
#
#
# Elastic Compliance Matrix: (Units=1/GPa)
#
#
# Indices 1 2 3 4 5 6 
#
# 1 0.012258 -0.004852 -0.000697 0.004865 0.000000 0.000000
# 2 -0.004852 0.012258 -0.000697 -0.004865 0.000000 0.000000
# 3 -0.000697 -0.000697 0.009831 0.000000 0.000000 0.000000
# 4 0.004865 -0.004865 0.000000 0.037907 0.000000 0.000000
# 5 0.000000 0.000000 0.000000 0.000000 0.037907 0.009730
# 6 0.000000 0.000000 0.000000 0.000000 0.009730 0.034220
#
#
# Mechanical properties :
#
#
# Convention : Reuss Voigt Hill
#
# Bulk Modulus (GPa) = 45.75943 46.18239 45.97091
# Shear Modulus (GPa) = 30.45832 34.13280 32.29556
#
# Velocity S-wave (km/s) = 3.67208 3.88728 3.78121
# Velocity P-wave (km/s) = 6.18361 6.37128 6.27815
#
# Compressibility (1/GPa) = 0.02185342
#
# Stress axis : x y z
#
# Youngs Moduli (GPa) = 81.58103 81.58103 101.71447
#
# Poissons Ratio (x) = 0.39585 0.07092
# Poissons Ratio (y) = 0.39585 0.07092
# Poissons Ratio (z) = 0.05689 0.05689
#
# Static dielectric constant tensor:
#      x y z
#    x 1.871140 0.000000 0.000000 
#    y 0.000000 1.871140 0.000000 
#    z 0.000000 0.000000 1.854710 
# 
# From -- ./inp_files/4354.got.cif
#   From: 2010.05.17/outbox.cif.g08.bks.cpg/sg167_3_cif.got.tgz:4354.got - 2010.05.20 11:09:15.
