data_PCOD9579957
_publ_section_title
;
Structure prediction by ZEFSAII (Michael W. Deem and Ramdas Pophale) SiO2 
 PCOD9579957
Probable space group: P 61
;
_chemical_formula_sum "Si O2"
_cell_formula_units_Z 42
_cell_length_a 8.185209
_cell_length_b 8.185209
_cell_length_c 28.095982
_cell_angle_alpha 90.000000
_cell_angle_beta 90.000000
_cell_angle_gamma 120.000000
_cell_volume 1630.175620
_symmetry_space_group_name_H-M "P 61"
_symmetry_group_IT_number 169
_symmetry_cell_setting 'hexagonal'
loop_
_space_group_symop_operation_xyz
x,y,z
x-y,x,1/6+z
-y,x-y,1/3+z
-x,-y,1/2+z
-x+y,-x,2/3+z
y,-x+y,5/6+z
loop_
_atom_site_type_symbol
_atom_site_label
_atom_site_fract_x
_atom_site_fract_y
_atom_site_fract_z
Si Si1 0.787087 0.130256 0.951030
Si Si2 0.779325 0.355155 0.037297
Si Si3 0.226616 0.546591 0.389116
Si Si4 0.332303 0.147294 0.313123
Si Si5 0.189159 0.349308 0.187146
Si Si6 0.048365 0.930949 0.767487
Si Si7 0.297535 0.772855 0.304044
O O1 0.779120 0.288763 0.919476
O O2 0.967337 0.119526 0.931973
O O3 0.598808 0.921579 0.951622
O O4 0.810514 0.209686 0.005568
O O5 0.810577 0.374848 0.093199
O O6 0.564191 0.309639 0.030498
O O7 0.886622 0.558721 0.012703
O O8 0.270323 0.440055 0.430114
O O9 0.029483 0.380610 0.368474
O O10 0.337278 0.651171 0.341946
O O11 0.137192 0.133876 0.300161
O O12 0.309156 0.952352 0.331227
O O13 0.023193 0.191044 0.219610
O O14 0.130897 0.300766 0.132495
#
# Coordination Sequence:
#
# PCOD9579957 Si02
#       7
#     6   6   6   6   6   6   6
#     4  10  23  43  67  95 134 172 225 269 337 399
#     4  11  23  42  63  97 135 171 218 279 333 395
#     4  10  21  41  67  96 131 170 219 274 326 393
#     4   9  23  41  65  96 125 174 221 268 332 394
#     4  11  23  42  65  97 133 170 218 272 335 389
#     4  10  24  42  70  94 130 176 222 273 328 405
#     4  11  21  41  69  93 128 177 217 275 327 399
#
# _framework density 25.764092000000002
#
# number of rings (size 3 to 8) (size 9 to 14) (size 15 to 20)
#    0.000    1.714    1.429    1.714   10.000    0.000 
#    7.714    0.000    0.000    0.000    0.000    0.000 
#    0.000    0.000    0.000    0.000    0.000    0.000 
#
# Total GULP energy -234916.099647 kJ/mol
# GULP energy per Si atom -5593.240468 kJ/mol
# Density = 2.570545 g / cm^3
# Si number density = 25.764092 Si / 1000 Ang^3
#
#
#
# Elastic Constant Matrix: (Units=GPa)
#
#
# Indices 1 2 3 4 5 6 
#
# 1 65.7392 21.4102 9.6223 0.0000 0.0000 0.0000
# 2 21.4102 65.7392 9.6223 0.0000 0.0000 0.0000
# 3 9.6223 9.6223 82.7214 0.0000 0.0000 0.0000
# 4 0.0000 0.0000 0.0000 33.6724 0.0000 0.0000
# 5 0.0000 0.0000 0.0000 0.0000 33.6724 0.0000
# 6 0.0000 0.0000 0.0000 0.0000 0.0000 22.1645
#
#
#
# Elastic Compliance Matrix: (Units=1/GPa)
#
#
# Indices 1 2 3 4 5 6 
#
# 1 0.017168 -0.005391 -0.001370 0.000000 0.000000 0.000000
# 2 -0.005391 0.017168 -0.001370 0.000000 0.000000 0.000000
# 3 -0.001370 -0.001370 0.012407 0.000000 0.000000 0.000000
# 4 0.000000 0.000000 0.000000 0.029698 0.000000 0.000000
# 5 0.000000 0.000000 0.000000 0.000000 0.029698 0.000000
# 6 0.000000 0.000000 0.000000 0.000000 0.000000 0.045117
#
#
# Mechanical properties :
#
#
# Convention : Reuss Voigt Hill
#
# Bulk Modulus (GPa) = 32.80639 32.83439 32.82039
# Shear Modulus (GPa) = 28.14079 29.47152 28.80615
#
# Velocity S-wave (km/s) = 3.30850 3.38583 3.34739
# Velocity P-wave (km/s) = 5.23029 5.29689 5.26369
#
# Compressibility (1/GPa) = 0.03048187
#
# Stress axis : x y z
#
# Youngs Moduli (GPa) = 58.24851 58.24851 80.59652
#
# Poissons Ratio (x) = 0.31400 0.11041
# Poissons Ratio (y) = 0.31400 0.11041
# Poissons Ratio (z) = 0.07980 0.07980
#
# Static dielectric constant tensor:
#      x y z
#    x 2.045020 0.000000 0.000000 
#    y 0.000000 2.045020 0.000000 
#    z 0.000000 0.000000 2.008020 
# 
# From -- ./inp_files/1844.got.cif
#   From: 2010.05.17/outbox.cif.g08.bks.cpg/sg169_cif.got.tgz:1844.got - 2010.05.20 11:12:54.
