data_PCOD9579304
_publ_section_title
;
Structure prediction by ZEFSAII (Michael W. Deem and Ramdas Pophale) SiO2 
 PCOD9579304
Probable space group: R -3 M
;
_chemical_formula_sum "Si O2"
_cell_formula_units_Z 144
_cell_length_a 30.243402
_cell_length_b 30.243402
_cell_length_c 8.099743
_cell_angle_alpha 90.000000
_cell_angle_beta 90.000000
_cell_angle_gamma 120.000000
_cell_volume 6415.982272
_symmetry_space_group_name_H-M "R -3 M"
_symmetry_group_IT_number 166
_symmetry_cell_setting 'hexagonal'
loop_
_space_group_symop_operation_xyz
x,y,z
-y,x-y,z
-x+y,-x,z
x-y,-y,-z
-x,-x+y,-z
y,x,-z
-x,-y,-z
y,-x+y,-z
x-y,x,-z
-x+y,y,z
x,x-y,z
-y,-x,z
2/3+x,1/3+y,1/3+z
2/3-y,1/3+x-y,1/3+z
2/3-x+y,1/3-x,1/3+z
2/3+x-y,1/3-y,1/3-z
2/3-x,1/3-x+y,1/3-z
2/3+y,1/3+x,1/3-z
2/3-x,1/3-y,1/3-z
2/3+y,1/3-x+y,1/3-z
2/3+x-y,1/3+x,1/3-z
2/3-x+y,1/3+y,1/3+z
2/3+x,1/3+x-y,1/3+z
2/3-y,1/3-x,1/3+z
1/3+x,2/3+y,2/3+z
1/3-y,2/3+x-y,2/3+z
1/3-x+y,2/3-x,2/3+z
1/3+x-y,2/3-y,2/3-z
1/3-x,2/3-x+y,2/3-z
1/3+y,2/3+x,2/3-z
1/3-x,2/3-y,2/3-z
1/3+y,2/3-x+y,2/3-z
1/3+x-y,2/3+x,2/3-z
1/3-x+y,2/3+y,2/3+z
1/3+x,2/3+x-y,2/3+z
1/3-y,2/3-x,2/3+z
loop_
_atom_site_type_symbol
_atom_site_label
_atom_site_fract_x
_atom_site_fract_y
_atom_site_fract_z
Si Si1 0.786483 0.572965 0.968582
Si Si2 0.605888 0.394113 0.644226
Si Si3 0.896571 0.448286 0.096098
Si Si4 0.885596 0.942798 0.286906
Si Si5 0.723213 0.629478 0.008296
Si Si6 0.294806 0.896548 0.512940
O O1 0.759044 0.604811 0.013620
O O2 0.758072 0.516144 0.049253
O O3 0.784313 0.568626 0.769377
O O4 0.579205 0.336073 0.580398
O O5 0.607643 0.392358 0.845336
O O6 0.836399 0.418200 0.127120
O O7 0.920779 0.415778 0.166336
O O8 0.735645 0.666667 0.166667
O O9 0.665985 0.583224 0.024785
O O10 0.736781 0.670791 0.866405
O O11 0.333334 0.906549 0.666667
#
# Coordination Sequence:
#
# PCOD9579304 Si02
#       6
#    18  18  18  18  36  36
#     4  11  22  38  61  93 126 166 209 269 317 378
#     4   9  17  30  54  85 123 162 194 244 312 368
#     4  11  23  41  61  94 125 160 215 268 319 373
#     4   9  17  31  53  84 124 153 199 245 305 379
#     4  10  22  43  63  89 125 166 212 260 321 386
#     4  10  23  44  64  90 123 167 212 265 321 392
#
# _framework density 22.443950999999998
#
# number of rings (size 3 to 8) (size 9 to 14) (size 15 to 20)
#    0.000    2.000    0.000    2.875    0.000    9.000 
#   27.000    1.250    0.000    0.000    0.000    0.875 
#    0.000    0.000    0.000    0.000    0.000    0.000 
#
# Total GULP energy -268360.464885 kJ/mol
# GULP energy per Si atom -5590.843018 kJ/mol
# Density = 2.239287 g / cm^3
# Si number density = 22.443951 Si / 1000 Ang^3
#
#
#
# Elastic Constant Matrix: (Units=GPa)
#
#
# Indices 1 2 3 4 5 6 
#
# 1 165.3153 66.9595 21.4392 -1.6421 -0.0595 0.0236
# 2 66.9595 165.3322 21.4189 1.6448 -0.0057 -0.0075
# 3 21.4392 21.4189 40.5798 0.0018 -0.0994 0.0463
# 4 -1.6421 1.6448 0.0018 15.4724 0.0646 -0.0241
# 5 -0.0595 -0.0057 -0.0994 0.0646 15.4322 -1.6603
# 6 0.0236 -0.0075 0.0463 -0.0241 -1.6603 49.2086
#
#
#
# Elastic Compliance Matrix: (Units=1/GPa)
#
#
# Indices 1 2 3 4 5 6 
#
# 1 0.007487 -0.002716 -0.002522 0.001084 0.000007 -0.000001
# 2 -0.002716 0.007485 -0.002516 -0.001084 -0.000019 0.000004
# 3 -0.002522 -0.002516 0.027303 -0.000004 0.000163 -0.000019
# 4 0.001084 -0.001084 -0.000004 0.064863 -0.000265 0.000022
# 5 0.000007 -0.000019 0.000163 -0.000265 0.065038 0.002194
# 6 -0.000001 0.000004 -0.000019 0.000022 0.002194 0.020396
#
#
# Mechanical properties :
#
#
# Convention : Reuss Voigt Hill
#
# Bulk Modulus (GPa) = 37.35830 65.65140 51.50485
# Shear Modulus (GPa) = 23.04121 33.44996 28.24558
#
# Velocity S-wave (km/s) = 3.20755 3.86473 3.55137
# Velocity P-wave (km/s) = 5.51354 7.01638 6.30986
#
# Compressibility (1/GPa) = 0.02676782
#
# Stress axis : x y z
#
# Youngs Moduli (GPa) = 133.56304 133.59617 36.62537
#
# Poissons Ratio (x) = 0.36289 0.09237
# Poissons Ratio (y) = 0.36280 0.09214
# Poissons Ratio (z) = 0.33683 0.33610
#
# Static dielectric constant tensor:
#      x y z
#    x 1.784460 0.000000 -0.000080 
#    y 0.000000 1.784480 0.000000 
#    z -0.000080 0.000000 1.962770 
# 
# From -- ./inp_files/1918.got.cif
#   From: 2010.05.17/outbox.cif.g08.bks.cpg/sg166_1_cif.got.tgz:1918.got - 2010.05.20 11:04:41.
