data_PCOD9579754
_publ_section_title
;
Structure prediction by ZEFSAII (Michael W. Deem and Ramdas Pophale) SiO2 
 PCOD9579754
Probable space group: P 6
;
_chemical_formula_sum "Si O2"
_cell_formula_units_Z 48
_cell_length_a 10.880136
_cell_length_b 10.880136
_cell_length_c 21.850758
_cell_angle_alpha 90.000000
_cell_angle_beta 90.000000
_cell_angle_gamma 120.000000
_cell_volume 2240.091648
_symmetry_space_group_name_H-M "P 6"
_symmetry_group_IT_number 168
_symmetry_cell_setting 'hexagonal'
loop_
_space_group_symop_operation_xyz
x,y,z
x-y,x,z
-y,x-y,z
-x,-y,z
-x+y,-x,z
y,-x+y,z
loop_
_atom_site_type_symbol
_atom_site_label
_atom_site_fract_x
_atom_site_fract_y
_atom_site_fract_z
Si Si1 0.068954 0.323347 0.813880
Si Si2 0.255899 0.935509 0.310897
Si Si3 0.743722 0.066434 0.078269
Si Si4 0.659012 0.169382 0.563558
Si Si5 0.830618 0.489629 0.195190
Si Si6 0.679610 0.744101 0.447851
Si Si7 0.931046 0.676653 0.944868
Si Si8 0.933566 0.677288 0.680479
O O1 0.185836 0.273617 0.813911
O O2 0.086166 0.399774 0.879374
O O3 0.083460 0.393646 0.747697
O O4 0.334825 0.905207 0.256725
O O5 0.303998 0.922657 0.379374
O O6 0.090409 0.816834 0.305572
O O7 0.667080 0.094386 0.134126
O O8 0.910293 0.185264 0.082227
O O9 0.689814 0.083460 0.011051
O O10 0.796200 0.328261 0.563780
O O11 0.665175 0.094793 0.502023
O O12 0.667080 0.094386 0.624622
O O13 0.671739 0.467939 0.194968
O O14 0.816834 0.726425 0.453176
O O15 0.814164 0.726383 0.944836
O O16 0.814736 0.725029 0.676521
#
# Coordination Sequence:
#
# PCOD9579754 Si02
#       8
#     6   6   6   6   6   6   6   6
#     4   8  13  22  40  70 105 134 160 199 260 328
#     4  10  21  38  62  89 113 135 162 207 266 320
#     4  10  19  32  54  81 107 135 170 219 274 322
#     4  10  24  40  52  73 105 145 191 219 250 294
#     4  10  24  40  52  73 105 145 191 219 250 294
#     4  10  21  38  62  89 113 135 162 207 266 320
#     4   8  13  22  40  70 105 134 160 199 260 328
#     4  10  19  32  54  81 107 135 170 219 274 322
#
# _framework density 21.427696000000001
#
# number of rings (size 3 to 8) (size 9 to 14) (size 15 to 20)
#    0.500    2.000    0.000    2.250    0.000    9.000 
#    0.000    5.000    0.000    1.500    0.000    7.000 
#    0.000    0.000    0.000    0.000    0.000    0.000 
#
# Total GULP energy -267830.888211 kJ/mol
# GULP energy per Si atom -5579.810171 kJ/mol
# Density = 2.137893 g / cm^3
# Si number density = 21.427696 Si / 1000 Ang^3
#
#
#
# Elastic Constant Matrix: (Units=GPa)
#
#
# Indices 1 2 3 4 5 6 
#
# 1 74.2008 10.4565 58.7749 0.0000 0.0000 0.0000
# 2 10.4565 74.2008 58.7749 0.0000 0.0000 0.0000
# 3 58.7749 58.7749 222.8575 0.0000 0.0000 0.0000
# 4 0.0000 0.0000 0.0000 -27.1537 0.0000 0.0000
# 5 0.0000 0.0000 0.0000 0.0000 -27.1537 0.0000
# 6 0.0000 0.0000 0.0000 0.0000 0.0000 31.8722
#
#
#
# Elastic Compliance Matrix: (Units=1/GPa)
#
#
# Indices 1 2 3 4 5 6 
#
# 1 0.017163 0.001475 -0.004915 0.000000 0.000000 0.000000
# 2 0.001475 0.017163 -0.004915 0.000000 0.000000 0.000000
# 3 -0.004915 -0.004915 0.007080 0.000000 0.000000 0.000000
# 4 0.000000 0.000000 0.000000 -0.036827 0.000000 0.000000
# 5 0.000000 0.000000 0.000000 0.000000 -0.036827 0.000000
# 6 0.000000 0.000000 0.000000 0.000000 0.000000 0.031375
#
#
# Mechanical properties :
#
#
# Convention : Reuss Voigt Hill
#
# Bulk Modulus (GPa) = 40.49660 69.69684 55.09672
# Shear Modulus (GPa) = 207.74551 11.72984 109.73767
#
# Velocity S-wave (km/s) = 9.85710 2.34223 7.16409
# Velocity P-wave (km/s) = 12.18565 6.31758 9.70572
#
# Compressibility (1/GPa) = 0.02469343
#
# Stress axis : x y z
#
# Youngs Moduli (GPa) = 58.26647 58.26647 141.24646
#
# Poissons Ratio (x) = -0.08594 0.69427
# Poissons Ratio (y) = -0.08594 0.69427
# Poissons Ratio (z) = 0.28640 0.28640
#
# Static dielectric constant tensor:
#      x y z
#    x 1.750770 0.000000 0.000000 
#    y 0.000000 1.750770 0.000000 
#    z 0.000000 0.000000 1.812840 
# 
# From -- ./inp_files/488.got.cif
#   From: 2010.05.17/outbox.cif.g08.bks.cpg/sg168_cif.got.tgz:488.got - 2010.05.20 11:12:33.
