data_PCOD9579681
_publ_section_title
;
Structure prediction by ZEFSAII (Michael W. Deem and Ramdas Pophale) SiO2 
 PCOD9579681
Probable space group: R -3 C 
;
_chemical_formula_sum "Si O2"
_cell_formula_units_Z 126
_cell_length_a 18.780888
_cell_length_b 18.780888
_cell_length_c 17.861171
_cell_angle_alpha 90.000000
_cell_angle_beta 90.000000
_cell_angle_gamma 120.000000
_cell_volume 5455.980452
_symmetry_space_group_name_H-M "R -3 C "
_symmetry_group_IT_number 167
_symmetry_cell_setting 'hexagonal'
loop_
_space_group_symop_operation_xyz
x,y,z
-y,x-y,z
-x+y,-x,z
x-y,-y,1/2-z
-x,-x+y,1/2-z
y,x,1/2-z
-x,-y,-z
y,-x+y,-z
x-y,x,-z
-x+y,y,1/2+z
x,x-y,1/2+z
-y,-x,1/2+z
2/3+x,1/3+y,1/3+z
2/3-y,1/3+x-y,1/3+z
2/3-x+y,1/3-x,1/3+z
2/3+x-y,1/3-y,5/6-z
2/3-x,1/3-x+y,5/6-z
2/3+y,1/3+x,5/6-z
2/3-x,1/3-y,1/3-z
2/3+y,1/3-x+y,1/3-z
2/3+x-y,1/3+x,1/3-z
2/3-x+y,1/3+y,5/6+z
2/3+x,1/3+x-y,5/6+z
2/3-y,1/3-x,5/6+z
1/3+x,2/3+y,2/3+z
1/3-y,2/3+x-y,2/3+z
1/3-x+y,2/3-x,2/3+z
1/3+x-y,2/3-y,1/6-z
1/3-x,2/3-x+y,1/6-z
1/3+y,2/3+x,1/6-z
1/3-x,2/3-y,2/3-z
1/3+y,2/3-x+y,2/3-z
1/3+x-y,2/3+x,2/3-z
1/3-x+y,2/3+y,1/6+z
1/3+x,2/3+x-y,1/6+z
1/3-y,2/3-x,1/6+z
loop_
_atom_site_type_symbol
_atom_site_label
_atom_site_fract_x
_atom_site_fract_y
_atom_site_fract_z
Si Si1 0.482057 0.885763 0.472631
Si Si2 0.230829 0.480303 0.687237
Si Si3 0.920328 0.617629 0.654776
Si Si4 0.796381 0.666667 0.916667
O O1 0.489989 0.823322 0.416667
O O2 0.468520 0.864024 0.560833
O O3 0.409894 0.904945 0.455186
O O4 0.566733 0.972252 0.467282
O O5 0.195872 0.533340 0.647434
O O6 0.197985 0.393628 0.642874
O O7 0.980276 0.646943 0.583334
O O8 0.941396 0.560785 0.704064
#
# Coordination Sequence:
#
# PCOD9579681 Si02
#       4
#    36  36  36  18
#     4  11  25  41  68 103 145 190 239 304 374 446
#     4  12  28  48  72 107 148 198 246 309 378 459
#     4  11  23  42  65 104 142 180 243 308 369 434
#     4  12  24  44  76 102 142 194 256 308 376 446
#
# _framework density 23.093924000000001
#
# number of rings (size 3 to 8) (size 9 to 14) (size 15 to 20)
#    0.000    0.571    7.143    0.286    4.000    2.286 
#    0.000    0.000    0.000    0.571    0.000    0.000 
#    0.000    0.000    0.000    0.000    0.000    0.000 
#
# Total GULP energy -234810.789500 kJ/mol
# GULP energy per Si atom -5590.733083 kJ/mol
# Density = 2.304136 g / cm^3
# Si number density = 23.093924 Si / 1000 Ang^3
#
#
#
# Elastic Constant Matrix: (Units=GPa)
#
#
# Indices 1 2 3 4 5 6 
#
# 1 88.9409 43.3098 29.8906 6.6298 -0.0002 0.0000
# 2 43.3098 88.9409 29.8906 -6.6298 0.0002 0.0000
# 3 29.8906 29.8906 126.3621 0.0000 0.0000 0.0000
# 4 6.6298 -6.6298 0.0000 36.5791 0.0000 0.0002
# 5 -0.0002 0.0002 0.0000 0.0000 36.5791 6.6298
# 6 0.0000 0.0000 0.0000 0.0002 6.6298 22.8156
#
#
#
# Elastic Compliance Matrix: (Units=1/GPa)
#
#
# Indices 1 2 3 4 5 6 
#
# 1 0.015800 -0.007333 -0.002003 -0.004193 0.000000 0.000000
# 2 -0.007333 0.015800 -0.002003 0.004193 0.000000 0.000000
# 3 -0.002003 -0.002003 0.008861 0.000000 0.000000 0.000000
# 4 -0.004193 0.004193 0.000000 0.028858 0.000000 0.000000
# 5 0.000000 0.000000 0.000000 0.000000 0.028858 -0.008386
# 6 0.000000 0.000000 0.000000 0.000000 -0.008386 0.046266
#
#
# Mechanical properties :
#
#
# Convention : Reuss Voigt Hill
#
# Bulk Modulus (GPa) = 56.23164 56.71399 56.47282
# Shear Modulus (GPa) = 28.89357 32.60494 30.74925
#
# Velocity S-wave (km/s) = 3.54097 3.76152 3.65291
# Velocity P-wave (km/s) = 6.41248 6.59369 6.50372
#
# Compressibility (1/GPa) = 0.01778358
#
# Stress axis : x y z
#
# Youngs Moduli (GPa) = 63.29128 63.29128 112.85074
#
# Poissons Ratio (x) = 0.46413 0.22601
# Poissons Ratio (y) = 0.46413 0.22601
# Poissons Ratio (z) = 0.12676 0.12676
#
# Static dielectric constant tensor:
#      x y z
#    x 1.869680 0.000000 0.000000 
#    y 0.000000 1.869680 0.000000 
#    z 0.000000 0.000000 1.970400 
# 
# From -- ./inp_files/3026.got.cif
#   From: 2010.05.17/outbox.cif.g08.bks.cpg/sg167_2_cif.got.tgz:3026.got - 2010.05.20 11:09:15.
