data_PCOD9579323
_publ_section_title
;
Structure prediction by ZEFSAII (Michael W. Deem and Ramdas Pophale) SiO2 
 PCOD9579323
Probable space group: R -3 M
;
_chemical_formula_sum "Si O2"
_cell_formula_units_Z 144
_cell_length_a 22.253598
_cell_length_b 22.253598
_cell_length_c 19.843718
_cell_angle_alpha 90.000000
_cell_angle_beta 90.000000
_cell_angle_gamma 120.000000
_cell_volume 8510.481956
_symmetry_space_group_name_H-M "R -3 M"
_symmetry_group_IT_number 166
_symmetry_cell_setting 'hexagonal'
loop_
_space_group_symop_operation_xyz
x,y,z
-y,x-y,z
-x+y,-x,z
x-y,-y,-z
-x,-x+y,-z
y,x,-z
-x,-y,-z
y,-x+y,-z
x-y,x,-z
-x+y,y,z
x,x-y,z
-y,-x,z
2/3+x,1/3+y,1/3+z
2/3-y,1/3+x-y,1/3+z
2/3-x+y,1/3-x,1/3+z
2/3+x-y,1/3-y,1/3-z
2/3-x,1/3-x+y,1/3-z
2/3+y,1/3+x,1/3-z
2/3-x,1/3-y,1/3-z
2/3+y,1/3-x+y,1/3-z
2/3+x-y,1/3+x,1/3-z
2/3-x+y,1/3+y,1/3+z
2/3+x,1/3+x-y,1/3+z
2/3-y,1/3-x,1/3+z
1/3+x,2/3+y,2/3+z
1/3-y,2/3+x-y,2/3+z
1/3-x+y,2/3-x,2/3+z
1/3+x-y,2/3-y,2/3-z
1/3-x,2/3-x+y,2/3-z
1/3+y,2/3+x,2/3-z
1/3-x,2/3-y,2/3-z
1/3+y,2/3-x+y,2/3-z
1/3+x-y,2/3+x,2/3-z
1/3-x+y,2/3+y,2/3+z
1/3+x,2/3+x-y,2/3+z
1/3-y,2/3-x,2/3+z
loop_
_atom_site_type_symbol
_atom_site_label
_atom_site_fract_x
_atom_site_fract_y
_atom_site_fract_z
Si Si1 0.007734 0.571123 0.080406
Si Si2 0.014765 0.614066 0.286361
Si Si3 0.780614 0.219387 0.195946
Si Si4 0.150561 0.301122 0.717469
Si Si5 0.817431 0.773600 0.852157
O O1 0.027702 0.513851 0.105644
O O2 0.059249 0.653226 0.088491
O O3 0.934143 0.549858 0.115572
O O4 0.000000 0.562325 0.000000
O O5 0.977374 0.644040 0.333334
O O6 0.044489 0.579120 0.336359
O O7 0.954855 0.557378 0.239141
O O8 0.809976 0.190025 0.254096
O O9 0.796243 0.203758 0.120249
O O10 0.826790 0.302618 0.200227
O O11 0.897072 0.794143 0.852070
#
# Coordination Sequence:
#
# PCOD9579323 Si02
#       5
#    36  36  18  18  36
#     4   9  19  33  51  76 105 138 176 221 282 334
#     4  11  19  33  53  78 110 142 181 230 274 330
#     4  11  22  36  52  79 109 147 186 228 282 333
#     4  11  22  32  54  81 108 143 187 227 275 336
#     4  11  22  36  55  78 109 146 187 233 279 331
#
# _framework density 16.920310000000001
#
# number of rings (size 3 to 8) (size 9 to 14) (size 15 to 20)
#    0.000    1.500    3.750    3.750    3.500    0.000 
#    0.750    0.000    0.000    0.000    0.000    2.625 
#    1.250    0.000    0.000    5.750    0.000    0.250 
#
# Total GULP energy -267368.411839 kJ/mol
# GULP energy per Si atom -5570.175247 kJ/mol
# Density = 1.688180 g / cm^3
# Si number density = 16.920310 Si / 1000 Ang^3
#
#
#
# Elastic Constant Matrix: (Units=GPa)
#
#
# Indices 1 2 3 4 5 6 
#
# 1 98.3073 43.2068 14.5017 3.4900 0.0000 0.0000
# 2 43.2068 98.3073 14.5017 -3.4900 0.0000 0.0000
# 3 14.5017 14.5017 55.6755 0.0000 0.0000 0.0000
# 4 3.4900 -3.4900 0.0000 21.1721 0.0000 0.0000
# 5 0.0000 0.0000 0.0000 0.0000 21.1721 3.4900
# 6 0.0000 0.0000 0.0000 0.0000 3.4900 27.5502
#
#
#
# Elastic Compliance Matrix: (Units=1/GPa)
#
#
# Indices 1 2 3 4 5 6 
#
# 1 0.013000 -0.005535 -0.001944 -0.003055 0.000000 0.000000
# 2 -0.005535 0.013000 -0.001944 0.003055 0.000000 0.000000
# 3 -0.001944 -0.001944 0.018974 0.000000 0.000000 0.000000
# 4 -0.003055 0.003055 0.000000 0.048239 0.000000 0.000000
# 5 0.000000 0.000000 0.000000 0.000000 0.048239 -0.006111
# 6 0.000000 0.000000 0.000000 0.000000 -0.006111 0.037071
#
#
# Mechanical properties :
#
#
# Convention : Reuss Voigt Hill
#
# Bulk Modulus (GPa) = 38.27532 44.07893 41.17712
# Shear Modulus (GPa) = 24.26217 25.98419 25.12318
#
# Velocity S-wave (km/s) = 3.79081 3.92303 3.85748
# Velocity P-wave (km/s) = 6.46764 6.82844 6.65049
#
# Compressibility (1/GPa) = 0.02612650
#
# Stress axis : x y z
#
# Youngs Moduli (GPa) = 76.92113 76.92113 52.70334
#
# Poissons Ratio (x) = 0.42579 0.10248
# Poissons Ratio (y) = 0.42579 0.10248
# Poissons Ratio (z) = 0.14956 0.14956
#
# Static dielectric constant tensor:
#      x y z
#    x 1.612740 0.000000 0.000000 
#    y 0.000000 1.612740 0.000000 
#    z 0.000000 0.000000 1.618110 
# 
# From -- ./inp_files/6648.got.cif
#   From: 2010.05.17/outbox.cif.g08.bks.cpg/sg166_4_cif.got.tgz:6648.got - 2010.05.20 11:04:41.
