data_PCOD9579107
_publ_section_title
;
Structure prediction by ZEFSAII (Michael W. Deem and Ramdas Pophale) SiO2 
 PCOD9579107
Probable space group: R -3 M
;
_chemical_formula_sum "Si O2"
_cell_formula_units_Z 162
_cell_length_a 21.316127
_cell_length_b 21.316127
_cell_length_c 23.993373
_cell_angle_alpha 90.000000
_cell_angle_beta 90.000000
_cell_angle_gamma 120.000000
_cell_volume 9441.446476
_symmetry_space_group_name_H-M "R -3 M"
_symmetry_group_IT_number 166
_symmetry_cell_setting 'hexagonal'
loop_
_space_group_symop_operation_xyz
x,y,z
-y,x-y,z
-x+y,-x,z
x-y,-y,-z
-x,-x+y,-z
y,x,-z
-x,-y,-z
y,-x+y,-z
x-y,x,-z
-x+y,y,z
x,x-y,z
-y,-x,z
2/3+x,1/3+y,1/3+z
2/3-y,1/3+x-y,1/3+z
2/3-x+y,1/3-x,1/3+z
2/3+x-y,1/3-y,1/3-z
2/3-x,1/3-x+y,1/3-z
2/3+y,1/3+x,1/3-z
2/3-x,1/3-y,1/3-z
2/3+y,1/3-x+y,1/3-z
2/3+x-y,1/3+x,1/3-z
2/3-x+y,1/3+y,1/3+z
2/3+x,1/3+x-y,1/3+z
2/3-y,1/3-x,1/3+z
1/3+x,2/3+y,2/3+z
1/3-y,2/3+x-y,2/3+z
1/3-x+y,2/3-x,2/3+z
1/3+x-y,2/3-y,2/3-z
1/3-x,2/3-x+y,2/3-z
1/3+y,2/3+x,2/3-z
1/3-x,2/3-y,2/3-z
1/3+y,2/3-x+y,2/3-z
1/3+x-y,2/3+x,2/3-z
1/3-x+y,2/3+y,2/3+z
1/3+x,2/3+x-y,2/3+z
1/3-y,2/3-x,2/3+z
loop_
_atom_site_type_symbol
_atom_site_label
_atom_site_fract_x
_atom_site_fract_y
_atom_site_fract_z
Si Si1 0.380634 0.467381 0.561288
Si Si2 0.950203 0.200855 0.230095
Si Si3 0.850204 0.999615 0.563668
Si Si4 0.817437 0.333334 0.333334
Si Si5 0.916612 0.382955 0.999180
O O1 0.455418 0.544583 0.560955
O O2 0.406419 0.408841 0.569750
O O3 0.350264 0.457451 0.498536
O O4 0.334638 0.472812 0.611609
O O5 0.877318 0.122683 0.232802
O O6 0.002671 0.210487 0.280177
O O7 0.851189 0.925595 0.572889
O O8 0.826229 0.000000 0.500000
O O9 0.801714 0.009862 0.609584
O O10 0.931667 0.068334 0.568299
O O11 0.810550 0.405275 0.333427
O O12 0.915923 0.457962 0.001220
O O13 0.000000 0.403723 0.000000
#
# Coordination Sequence:
#
# PCOD9579107 Si02
#       5
#    36  36  36  18  36
#     4   8  17  32  51  74  96 122 164 208 239 278
#     4   9  17  34  55  71  92 126 168 212 246 272
#     4   9  17  32  54  77  99 125 162 206 247 288
#     4  10  19  32  50  76 107 132 156 194 248 302
#     4  10  21  34  47  70 105 135 158 192 244 303
#
# _framework density 17.158387999999999
#
# number of rings (size 3 to 8) (size 9 to 14) (size 15 to 20)
#    0.000    2.889    0.000    2.333    1.556    1.778 
#    4.000    0.000    0.000    0.444    0.000    0.000 
#    0.000    0.000    0.000    0.000    0.000    0.000 
#
# Total GULP energy -300861.905440 kJ/mol
# GULP energy per Si atom -5571.516767 kJ/mol
# Density = 1.711933 g / cm^3
# Si number density = 17.158388 Si / 1000 Ang^3
#
#
#
# Elastic Constant Matrix: (Units=GPa)
#
#
# Indices 1 2 3 4 5 6 
#
# 1 44.4644 25.6245 61.3981 8.2067 -0.0001 0.0000
# 2 25.6245 44.4644 61.3981 -8.2067 0.0001 0.0000
# 3 61.3981 61.3981 172.8584 0.0000 0.0000 0.0000
# 4 8.2067 -8.2067 0.0000 29.6375 0.0000 0.0001
# 5 -0.0001 0.0001 0.0000 0.0000 29.6375 8.2067
# 6 0.0000 0.0000 0.0000 0.0001 8.2067 9.4200
#
#
#
# Elastic Compliance Matrix: (Units=1/GPa)
#
#
# Indices 1 2 3 4 5 6 
#
# 1 0.053865 -0.016090 -0.013417 -0.019370 0.000000 0.000000
# 2 -0.016090 0.053865 -0.013417 0.019370 0.000000 0.000000
# 3 -0.013417 -0.013417 0.015317 0.000000 0.000000 0.000000
# 4 -0.019370 0.019370 0.000000 0.044469 0.000000 0.000000
# 5 0.000000 0.000000 0.000000 0.000000 0.044469 -0.038741
# 6 0.000000 0.000000 0.000000 0.000000 -0.038741 0.139909
#
#
# Mechanical properties :
#
#
# Convention : Reuss Voigt Hill
#
# Bulk Modulus (GPa) = 26.88399 62.06984 44.47692
# Shear Modulus (GPa) = 11.10767 21.29676 16.20221
#
# Velocity S-wave (km/s) = 2.54709 3.52687 3.07624
# Velocity P-wave (km/s) = 4.93481 7.26899 6.21251
#
# Compressibility (1/GPa) = 0.03719686
#
# Stress axis : x y z
#
# Youngs Moduli (GPa) = 18.56506 18.56506 65.28869
#
# Poissons Ratio (x) = 0.29871 0.87600
# Poissons Ratio (y) = 0.29871 0.87600
# Poissons Ratio (z) = 0.24909 0.24909
#
# Static dielectric constant tensor:
#      x y z
#    x 1.568970 0.000000 0.000000 
#    y 0.000000 1.568970 0.000000 
#    z 0.000000 0.000000 1.589320 
# 
# From -- ./inp_files/8208.got.cif
#   From: 2010.05.17/outbox.cif.g08.bks.cpg/sg166_5_cif.got.tgz:8208.got - 2010.05.20 11:04:41.
