data_PCOD9579396
_publ_section_title
;
Structure prediction by ZEFSAII (Michael W. Deem and Ramdas Pophale) SiO2 
 PCOD9579396
Probable space group: R -3 C 
;
_chemical_formula_sum "Si O2"
_cell_formula_units_Z 126
_cell_length_a 21.276881
_cell_length_b 21.276881
_cell_length_c 16.194406
_cell_angle_alpha 90.000000
_cell_angle_beta 90.000000
_cell_angle_gamma 120.000000
_cell_volume 6349.091470
_symmetry_space_group_name_H-M "R -3 C "
_symmetry_group_IT_number 167
_symmetry_cell_setting 'hexagonal'
loop_
_space_group_symop_operation_xyz
x,y,z
-y,x-y,z
-x+y,-x,z
x-y,-y,1/2-z
-x,-x+y,1/2-z
y,x,1/2-z
-x,-y,-z
y,-x+y,-z
x-y,x,-z
-x+y,y,1/2+z
x,x-y,1/2+z
-y,-x,1/2+z
2/3+x,1/3+y,1/3+z
2/3-y,1/3+x-y,1/3+z
2/3-x+y,1/3-x,1/3+z
2/3+x-y,1/3-y,5/6-z
2/3-x,1/3-x+y,5/6-z
2/3+y,1/3+x,5/6-z
2/3-x,1/3-y,1/3-z
2/3+y,1/3-x+y,1/3-z
2/3+x-y,1/3+x,1/3-z
2/3-x+y,1/3+y,5/6+z
2/3+x,1/3+x-y,5/6+z
2/3-y,1/3-x,5/6+z
1/3+x,2/3+y,2/3+z
1/3-y,2/3+x-y,2/3+z
1/3-x+y,2/3-x,2/3+z
1/3+x-y,2/3-y,1/6-z
1/3-x,2/3-x+y,1/6-z
1/3+y,2/3+x,1/6-z
1/3-x,2/3-y,2/3-z
1/3+y,2/3-x+y,2/3-z
1/3+x-y,2/3+x,2/3-z
1/3-x+y,2/3+y,1/6+z
1/3+x,2/3+x-y,1/6+z
1/3-y,2/3-x,1/6+z
loop_
_atom_site_type_symbol
_atom_site_label
_atom_site_fract_x
_atom_site_fract_y
_atom_site_fract_z
Si Si1 0.026359 0.571544 0.556029
Si Si2 0.531927 0.468560 0.187209
Si Si3 0.216883 0.498724 0.664975
Si Si4 0.000000 0.248084 0.250000
O O1 0.106386 0.601308 0.596491
O O2 0.030042 0.630613 0.492303
O O3 0.000000 0.500000 0.500000
O O4 0.972171 0.540853 0.632177
O O5 0.475471 0.475471 0.250000
O O6 0.590952 0.467459 0.245254
O O7 0.489740 0.398291 0.128054
O O8 0.196652 0.561078 0.658316
#
# Coordination Sequence:
#
# PCOD9579396 Si02
#       4
#    36  36  36  18
#     4   9  19  36  63  83 118 162 201 256 320 355
#     4   9  19  35  58  86 116 160 202 249 316 362
#     4  11  21  38  63  89 127 168 208 254 306 380
#     4  10  16  36  58  84 118 156 190 264 310 358
#
# _framework density 19.845358999999998
#
# number of rings (size 3 to 8) (size 9 to 14) (size 15 to 20)
#    0.000    2.286    2.857    0.286    0.000    0.000 
#    0.000   14.286    3.143    0.000    0.000    0.000 
#    0.000    0.000    0.000    0.000    0.000    0.000 
#
# Total GULP energy -234012.779267 kJ/mol
# GULP energy per Si atom -5571.732840 kJ/mol
# Density = 1.980019 g / cm^3
# Si number density = 19.845359 Si / 1000 Ang^3
#
#
#
# Elastic Constant Matrix: (Units=GPa)
#
#
# Indices 1 2 3 4 5 6 
#
# 1 83.0474 51.9363 60.2204 2.0248 0.0000 0.0000
# 2 51.9363 83.0474 60.2204 -2.0248 0.0000 0.0000
# 3 60.2204 60.2204 141.9239 0.0000 0.0000 0.0000
# 4 2.0248 -2.0248 0.0000 28.2598 0.0000 0.0000
# 5 0.0000 0.0000 0.0000 0.0000 28.2598 2.0248
# 6 0.0000 0.0000 0.0000 0.0000 2.0248 15.5555
#
#
#
# Elastic Compliance Matrix: (Units=1/GPa)
#
#
# Indices 1 2 3 4 5 6 
#
# 1 0.022184 -0.010262 -0.005059 -0.002325 0.000000 0.000000
# 2 -0.010262 0.022184 -0.005059 0.002325 0.000000 0.000000
# 3 -0.005059 -0.005059 0.011339 0.000000 0.000000 0.000000
# 4 -0.002325 0.002325 0.000000 0.035719 0.000000 0.000000
# 5 0.000000 0.000000 0.000000 0.000000 0.035719 -0.004650
# 6 0.000000 0.000000 0.000000 0.000000 -0.004650 0.064891
#
#
# Mechanical properties :
#
#
# Convention : Reuss Voigt Hill
#
# Bulk Modulus (GPa) = 66.89759 72.53034 69.71397
# Shear Modulus (GPa) = 21.02814 23.45779 22.24296
#
# Velocity S-wave (km/s) = 3.25868 3.44179 3.35149
# Velocity P-wave (km/s) = 6.92396 7.24028 7.08389
#
# Compressibility (1/GPa) = 0.01494822
#
# Stress axis : x y z
#
# Youngs Moduli (GPa) = 45.07805 45.07805 88.19148
#
# Poissons Ratio (x) = 0.46258 0.44613
# Poissons Ratio (y) = 0.46258 0.44613
# Poissons Ratio (z) = 0.22803 0.22803
#
# Static dielectric constant tensor:
#      x y z
#    x 1.710400 0.000000 0.000000 
#    y 0.000000 1.710400 0.000000 
#    z 0.000000 0.000000 1.723270 
# 
# From -- ./inp_files/3041.got.cif
#   From: 2010.05.17/outbox.cif.g08.bks.cpg/sg167_2_cif.got.tgz:3041.got - 2010.05.20 11:09:15.
