data_PCOD9579955
_publ_section_title
;
Structure prediction by ZEFSAII (Michael W. Deem and Ramdas Pophale) SiO2 
 PCOD9579955
Probable space group: P 61
;
_chemical_formula_sum "Si O2"
_cell_formula_units_Z 36
_cell_length_a 8.912298
_cell_length_b 8.912298
_cell_length_c 24.271763
_cell_angle_alpha 90.000000
_cell_angle_beta 90.000000
_cell_angle_gamma 120.000000
_cell_volume 1669.595839
_symmetry_space_group_name_H-M "P 61"
_symmetry_group_IT_number 169
_symmetry_cell_setting 'hexagonal'
loop_
_space_group_symop_operation_xyz
x,y,z
x-y,x,1/6+z
-y,x-y,1/3+z
-x,-y,1/2+z
-x+y,-x,2/3+z
y,-x+y,5/6+z
loop_
_atom_site_type_symbol
_atom_site_label
_atom_site_fract_x
_atom_site_fract_y
_atom_site_fract_z
Si Si1 0.743972 0.709034 0.851000
Si Si2 0.282187 0.280078 0.475699
Si Si3 0.611753 0.017149 0.136767
Si Si4 0.838520 0.771365 0.603665
Si Si5 0.251622 0.187244 0.699008
Si Si6 0.036268 0.637368 0.668937
O O1 0.764403 0.680972 0.915053
O O2 0.590466 0.544479 0.820390
O O3 0.921415 0.792049 0.816311
O O4 0.684338 0.851373 0.851646
O O5 0.478450 0.416215 0.489038
O O6 0.230865 0.082501 0.487020
O O7 0.649400 0.998575 0.073088
O O8 0.787180 0.189553 0.153910
O O9 0.616641 0.864599 0.171189
O O10 0.673644 0.671009 0.564297
O O11 0.013508 0.896919 0.567762
O O12 0.887651 0.638266 0.631696
#
# Coordination Sequence:
#
# PCOD9579955 Si02
#       6
#     6   6   6   6   6   6
#     4  12  24  40  63  93 123 159 206 254 305 370
#     4  12  24  40  63  93 123 159 206 254 305 370
#     4  10  22  41  62  88 121 160 203 252 306 365
#     4  10  21  41  64  85 121 167 203 244 308 373
#     4  10  21  41  64  85 121 167 203 244 308 373
#     4  10  22  41  62  88 121 160 203 252 306 365
#
# _framework density 21.562104000000001
#
# number of rings (size 3 to 8) (size 9 to 14) (size 15 to 20)
#    0.000    1.333    0.000    9.000    0.000    5.333 
#    0.000    5.000    0.000    0.000    0.000    0.000 
#    0.000    0.000    0.000    0.000    0.000    0.000 
#
# Total GULP energy -201110.149871 kJ/mol
# GULP energy per Si atom -5586.393052 kJ/mol
# Density = 2.151303 g / cm^3
# Si number density = 21.562104 Si / 1000 Ang^3
#
#
#
# Elastic Constant Matrix: (Units=GPa)
#
#
# Indices 1 2 3 4 5 6 
#
# 1 56.3254 7.2293 20.3335 0.0000 0.0000 0.0000
# 2 7.2293 56.3254 20.3335 0.0000 0.0000 0.0000
# 3 20.3335 20.3335 42.9698 0.0000 0.0000 0.0000
# 4 0.0000 0.0000 0.0000 25.2619 0.0000 0.0000
# 5 0.0000 0.0000 0.0000 0.0000 25.2619 0.0000
# 6 0.0000 0.0000 0.0000 0.0000 0.0000 24.5481
#
#
#
# Elastic Compliance Matrix: (Units=1/GPa)
#
#
# Indices 1 2 3 4 5 6 
#
# 1 0.021468 0.001100 -0.010679 0.000000 0.000000 0.000000
# 2 0.001100 0.021468 -0.010679 0.000000 0.000000 0.000000
# 3 -0.010679 -0.010679 0.033379 0.000000 0.000000 0.000000
# 4 0.000000 0.000000 0.000000 0.039585 0.000000 0.000000
# 5 0.000000 0.000000 0.000000 0.000000 0.039585 0.000000
# 6 0.000000 0.000000 0.000000 0.000000 0.000000 0.040736
#
#
# Mechanical properties :
#
#
# Convention : Reuss Voigt Hill
#
# Bulk Modulus (GPa) = 27.93459 27.93479 27.93469
# Shear Modulus (GPa) = 20.10683 22.19600 21.15142
#
# Velocity S-wave (km/s) = 3.05701 3.21191 3.13542
# Velocity P-wave (km/s) = 5.04420 5.17095 5.10797
#
# Compressibility (1/GPa) = 0.03579792
#
# Stress axis : x y z
#
# Youngs Moduli (GPa) = 46.58095 46.58095 29.95894
#
# Poissons Ratio (x) = -0.05123 0.31994
# Poissons Ratio (y) = -0.05123 0.31994
# Poissons Ratio (z) = 0.49745 0.49745
#
# Static dielectric constant tensor:
#      x y z
#    x 1.767110 0.000000 0.000000 
#    y 0.000000 1.767110 0.000000 
#    z 0.000000 0.000000 1.868120 
# 
# From -- ./inp_files/1760.got.cif
#   From: 2010.05.17/outbox.cif.g08.bks.cpg/sg169_cif.got.tgz:1760.got - 2010.05.20 11:12:54.
