data_PCOD9579164
_publ_section_title
;
Structure prediction by ZEFSAII (Michael W. Deem and Ramdas Pophale) SiO2 
 PCOD9579164
Probable space group: R -3 M
;
_chemical_formula_sum "Si O2"
_cell_formula_units_Z 216
_cell_length_a 23.434060
_cell_length_b 23.434060
_cell_length_c 24.687628
_cell_angle_alpha 90.000000
_cell_angle_beta 90.000000
_cell_angle_gamma 120.000000
_cell_volume 11740.999552
_symmetry_space_group_name_H-M "R -3 M"
_symmetry_group_IT_number 166
_symmetry_cell_setting 'hexagonal'
loop_
_space_group_symop_operation_xyz
x,y,z
-y,x-y,z
-x+y,-x,z
x-y,-y,-z
-x,-x+y,-z
y,x,-z
-x,-y,-z
y,-x+y,-z
x-y,x,-z
-x+y,y,z
x,x-y,z
-y,-x,z
2/3+x,1/3+y,1/3+z
2/3-y,1/3+x-y,1/3+z
2/3-x+y,1/3-x,1/3+z
2/3+x-y,1/3-y,1/3-z
2/3-x,1/3-x+y,1/3-z
2/3+y,1/3+x,1/3-z
2/3-x,1/3-y,1/3-z
2/3+y,1/3-x+y,1/3-z
2/3+x-y,1/3+x,1/3-z
2/3-x+y,1/3+y,1/3+z
2/3+x,1/3+x-y,1/3+z
2/3-y,1/3-x,1/3+z
1/3+x,2/3+y,2/3+z
1/3-y,2/3+x-y,2/3+z
1/3-x+y,2/3-x,2/3+z
1/3+x-y,2/3-y,2/3-z
1/3-x,2/3-x+y,2/3-z
1/3+y,2/3+x,2/3-z
1/3-x,2/3-y,2/3-z
1/3+y,2/3-x+y,2/3-z
1/3+x-y,2/3+x,2/3-z
1/3-x+y,2/3+y,2/3+z
1/3+x,2/3+x-y,2/3+z
1/3-y,2/3-x,2/3+z
loop_
_atom_site_type_symbol
_atom_site_label
_atom_site_fract_x
_atom_site_fract_y
_atom_site_fract_z
Si Si1 0.667004 0.199591 0.675133
Si Si2 0.947480 0.229945 0.618039
Si Si3 0.507640 0.619437 0.429845
Si Si4 0.790580 0.700726 0.049829
Si Si5 0.917958 0.206806 0.812356
Si Si6 0.304906 0.055638 0.931300
O O1 0.595323 0.190645 0.693080
O O2 0.724169 0.275832 0.676950
O O3 0.697527 0.158289 0.705197
O O4 0.654141 0.169902 0.614311
O O5 0.905314 0.238648 0.666667
O O6 0.909692 0.227023 0.562875
O O7 0.015348 0.298323 0.613411
O O8 0.441851 0.558150 0.455119
O O9 0.543112 0.586293 0.396699
O O10 0.565068 0.674611 0.466319
O O11 0.862456 0.724912 0.072403
O O12 0.755455 0.737478 0.073976
O O13 0.793253 0.708228 0.985038
O O14 0.870479 0.129522 0.804157
O O15 0.910882 0.224645 0.873728
#
# Coordination Sequence:
#
# PCOD9579164 Si02
#       6
#    36  36  36  36  36  36
#     4  11  22  37  59  83 111 149 197 243 282 333
#     4  12  21  39  59  81 115 154 193 234 285 351
#     4  10  20  35  56  80 111 148 184 227 285 346
#     4  10  19  36  58  81 111 152 188 225 283 344
#     4  12  24  35  54  86 117 147 189 240 287 340
#     4  11  20  36  55  83 117 147 187 233 280 341
#
# _framework density 18.397069999999999
#
# number of rings (size 3 to 8) (size 9 to 14) (size 15 to 20)
#    0.000    1.000    6.667    2.167    0.000    2.000 
#    0.000    1.667    0.000    0.333    0.000    0.000 
#    0.000    6.667    0.000    8.500    0.000    0.000 
#
# Total GULP energy -401370.767613 kJ/mol
# GULP energy per Si atom -5574.593995 kJ/mol
# Density = 1.835520 g / cm^3
# Si number density = 18.397070 Si / 1000 Ang^3
#
#
#
# Elastic Constant Matrix: (Units=GPa)
#
#
# Indices 1 2 3 4 5 6 
#
# 1 60.2451 68.3426 21.5986 -86.9314 0.0007 0.0000
# 2 68.3426 60.2451 21.5986 86.9314 -0.0007 0.0000
# 3 21.5986 21.5986 84.4848 0.0000 0.0000 0.0000
# 4 -86.9314 86.9314 0.0000 -274.6369 0.0000 -0.0008
# 5 0.0007 -0.0007 0.0000 0.0000 -274.6369 -86.9314
# 6 0.0000 0.0000 0.0000 -0.0008 -86.9314 -4.0487
#
#
#
# Elastic Compliance Matrix: (Units=1/GPa)
#
#
# Indices 1 2 3 4 5 6 
#
# 1 0.014907 -0.006399 -0.002175 -0.006744 0.000000 0.000000
# 2 -0.006399 0.014907 -0.002175 0.006744 0.000000 0.000000
# 3 -0.002175 -0.002175 0.012948 0.000000 0.000000 0.000000
# 4 -0.006744 0.006744 0.000000 0.000628 0.000000 0.000000
# 5 0.000000 0.000000 0.000000 0.000000 0.000628 -0.013488
# 6 0.000000 0.000000 0.000000 0.000000 -0.013488 0.042611
#
#
# Mechanical properties :
#
#
# Convention : Reuss Voigt Hill
#
# Bulk Modulus (GPa) = 47.02864 47.56161 47.29512
# Shear Modulus (GPa) = 43.39700 -104.43548 -30.51924
#
# Velocity S-wave (km/s) = 4.86213 -7.54259 -4.07740
# Velocity P-wave (km/s) = 7.55903 7.06720 1.89653
#
# Compressibility (1/GPa) = 0.02126364
#
# Stress axis : x y z
#
# Youngs Moduli (GPa) = 67.08448 67.08448 77.22905
#
# Poissons Ratio (x) = 0.42928 0.16797
# Poissons Ratio (y) = 0.42928 0.16797
# Poissons Ratio (z) = 0.14590 0.14590
#
# Static dielectric constant tensor:
#      x y z
#    x 1.653630 0.000000 0.000000 
#    y 0.000000 1.653630 0.000000 
#    z 0.000000 0.000000 1.637790 
# 
# From -- ./inp_files/8443.got.cif
#   From: 2010.05.17/outbox.cif.g08.bks.cpg/sg166_5_cif.got.tgz:8443.got - 2010.05.20 11:04:41.
