data_PCOD9579110
_publ_section_title
;
Structure prediction by ZEFSAII (Michael W. Deem and Ramdas Pophale) SiO2 
 PCOD9579110
Probable space group: R -3 M
;
_chemical_formula_sum "Si O2"
_cell_formula_units_Z 216
_cell_length_a 22.124039
_cell_length_b 22.124039
_cell_length_c 31.087572
_cell_angle_alpha 90.000000
_cell_angle_beta 90.000000
_cell_angle_gamma 120.000000
_cell_volume 13177.901789
_symmetry_space_group_name_H-M "R -3 M"
_symmetry_group_IT_number 166
_symmetry_cell_setting 'hexagonal'
loop_
_space_group_symop_operation_xyz
x,y,z
-y,x-y,z
-x+y,-x,z
x-y,-y,-z
-x,-x+y,-z
y,x,-z
-x,-y,-z
y,-x+y,-z
x-y,x,-z
-x+y,y,z
x,x-y,z
-y,-x,z
2/3+x,1/3+y,1/3+z
2/3-y,1/3+x-y,1/3+z
2/3-x+y,1/3-x,1/3+z
2/3+x-y,1/3-y,1/3-z
2/3-x,1/3-x+y,1/3-z
2/3+y,1/3+x,1/3-z
2/3-x,1/3-y,1/3-z
2/3+y,1/3-x+y,1/3-z
2/3+x-y,1/3+x,1/3-z
2/3-x+y,1/3+y,1/3+z
2/3+x,1/3+x-y,1/3+z
2/3-y,1/3-x,1/3+z
1/3+x,2/3+y,2/3+z
1/3-y,2/3+x-y,2/3+z
1/3-x+y,2/3-x,2/3+z
1/3+x-y,2/3-y,2/3-z
1/3-x,2/3-x+y,2/3-z
1/3+y,2/3+x,2/3-z
1/3-x,2/3-y,2/3-z
1/3+y,2/3-x+y,2/3-z
1/3+x-y,2/3+x,2/3-z
1/3-x+y,2/3+y,2/3+z
1/3+x,2/3+x-y,2/3+z
1/3-y,2/3-x,2/3+z
loop_
_atom_site_type_symbol
_atom_site_label
_atom_site_fract_x
_atom_site_fract_y
_atom_site_fract_z
Si Si1 0.663901 0.657197 0.403898
Si Si2 0.333109 0.527809 0.368379
Si Si3 0.719432 0.576724 0.556688
Si Si4 0.251796 0.195279 0.876004
Si Si5 0.807457 0.474332 0.380464
Si Si6 0.705223 0.922931 0.668416
O O1 0.634398 0.705190 0.422082
O O2 0.694664 0.635537 0.443596
O O3 0.726806 0.687156 0.369555
O O4 0.596630 0.597290 0.377800
O O5 0.258429 0.516857 0.353766
O O6 0.391312 0.608689 0.368574
O O7 0.321664 0.493941 0.415753
O O8 0.365136 0.487354 0.342249
O O9 0.800427 0.600853 0.561046
O O10 0.701443 0.562834 0.506420
O O11 0.279328 0.139664 0.878521
O O12 0.192613 0.169830 0.912760
O O13 0.726136 0.452272 0.376152
O O14 0.816197 0.408099 0.387957
O O15 0.839401 0.506068 0.333334
O O16 0.685886 0.842943 0.660657
#
# Coordination Sequence:
#
# PCOD9579110 Si02
#       6
#    36  36  36  36  36  36
#     4  10  19  32  51  68  91 129 156 189 241 284
#     4   9  17  31  50  71  96 123 152 189 234 282
#     4   9  19  34  49  68  94 122 160 199 230 275
#     4  10  20  32  47  69  95 124 159 199 235 276
#     4   9  18  31  47  67  92 125 163 203 242 279
#     4   9  19  32  47  72  98 119 153 197 233 277
#
# _framework density 16.391076999999999
#
# number of rings (size 3 to 8) (size 9 to 14) (size 15 to 20)
#    0.000    2.667    0.000    1.333    2.333    2.667 
#    0.000    3.333    0.000    7.000    0.000    0.000 
#    0.000    0.000    0.000    0.000    0.000   50.500 
#
# Total GULP energy -400837.666242 kJ/mol
# GULP energy per Si atom -5567.189809 kJ/mol
# Density = 1.635377 g / cm^3
# Si number density = 16.391077 Si / 1000 Ang^3
#
#
#
# Elastic Constant Matrix: (Units=GPa)
#
#
# Indices 1 2 3 4 5 6 
#
# 1 66.0624 26.1892 18.2537 -2.2276 0.0000 0.0000
# 2 26.1892 66.0624 18.2537 2.2276 0.0000 0.0000
# 3 18.2537 18.2537 59.1556 0.0000 0.0000 0.0000
# 4 -2.2276 2.2276 0.0000 20.1385 0.0000 0.0000
# 5 0.0000 0.0000 0.0000 0.0000 20.1385 -2.2276
# 6 0.0000 0.0000 0.0000 0.0000 -2.2276 19.9366
#
#
#
# Elastic Compliance Matrix: (Units=1/GPa)
#
#
# Indices 1 2 3 4 5 6 
#
# 1 0.018871 -0.006523 -0.003810 0.002809 0.000000 0.000000
# 2 -0.006523 0.018871 -0.003810 -0.002809 0.000000 0.000000
# 3 -0.003810 -0.003810 0.019256 0.000000 0.000000 0.000000
# 4 0.002809 -0.002809 0.000000 0.050277 0.000000 0.000000
# 5 0.000000 0.000000 0.000000 0.000000 0.050277 0.005618
# 6 0.000000 0.000000 0.000000 0.000000 0.005618 0.050787
#
#
# Mechanical properties :
#
#
# Convention : Reuss Voigt Hill
#
# Bulk Modulus (GPa) = 34.83003 35.18594 35.00798
# Shear Modulus (GPa) = 20.30908 20.61497 20.46202
#
# Velocity S-wave (km/s) = 3.52381 3.55025 3.53705
# Velocity P-wave (km/s) = 6.15238 6.19022 6.17133
#
# Compressibility (1/GPa) = 0.02871086
#
# Stress axis : x y z
#
# Youngs Moduli (GPa) = 52.99259 52.99259 51.93195
#
# Poissons Ratio (x) = 0.34566 0.19787
# Poissons Ratio (y) = 0.34566 0.19787
# Poissons Ratio (z) = 0.20191 0.20191
#
# Static dielectric constant tensor:
#      x y z
#    x 1.564210 0.000000 0.000000 
#    y 0.000000 1.564210 0.000000 
#    z 0.000000 0.000000 1.554580 
# 
# From -- ./inp_files/9741.got.cif
#   From: 2010.05.17/outbox.cif.g08.bks.cpg/sg166_5_cif.got.tgz:9741.got - 2010.05.20 11:04:41.
