data_PCOD9579475
_publ_section_title
;
Structure prediction by ZEFSAII (Michael W. Deem and Ramdas Pophale) SiO2 
 PCOD9579475
Probable space group: R -3 C 
;
_chemical_formula_sum "Si O2"
_cell_formula_units_Z 270
_cell_length_a 23.758045
_cell_length_b 23.758045
_cell_length_c 32.814264
_cell_angle_alpha 90.000000
_cell_angle_beta 90.000000
_cell_angle_gamma 120.000000
_cell_volume 16040.381776
_symmetry_space_group_name_H-M "R -3 C "
_symmetry_group_IT_number 167
_symmetry_cell_setting 'hexagonal'
loop_
_space_group_symop_operation_xyz
x,y,z
-y,x-y,z
-x+y,-x,z
x-y,-y,1/2-z
-x,-x+y,1/2-z
y,x,1/2-z
-x,-y,-z
y,-x+y,-z
x-y,x,-z
-x+y,y,1/2+z
x,x-y,1/2+z
-y,-x,1/2+z
2/3+x,1/3+y,1/3+z
2/3-y,1/3+x-y,1/3+z
2/3-x+y,1/3-x,1/3+z
2/3+x-y,1/3-y,5/6-z
2/3-x,1/3-x+y,5/6-z
2/3+y,1/3+x,5/6-z
2/3-x,1/3-y,1/3-z
2/3+y,1/3-x+y,1/3-z
2/3+x-y,1/3+x,1/3-z
2/3-x+y,1/3+y,5/6+z
2/3+x,1/3+x-y,5/6+z
2/3-y,1/3-x,5/6+z
1/3+x,2/3+y,2/3+z
1/3-y,2/3+x-y,2/3+z
1/3-x+y,2/3-x,2/3+z
1/3+x-y,2/3-y,1/6-z
1/3-x,2/3-x+y,1/6-z
1/3+y,2/3+x,1/6-z
1/3-x,2/3-y,2/3-z
1/3+y,2/3-x+y,2/3-z
1/3+x-y,2/3+x,2/3-z
1/3-x+y,2/3+y,1/6+z
1/3+x,2/3+x-y,1/6+z
1/3-y,2/3-x,1/6+z
loop_
_atom_site_type_symbol
_atom_site_label
_atom_site_fract_x
_atom_site_fract_y
_atom_site_fract_z
Si Si1 0.050123 0.228793 0.715303
Si Si2 0.120861 0.375942 0.241593
Si Si3 0.953369 0.182237 0.288463
Si Si4 0.940468 0.322193 0.179031
Si Si5 0.880018 0.274593 0.869988
Si Si6 0.681078 0.595846 0.464520
Si Si7 0.188366 0.333334 0.583334
Si Si8 0.615374 0.867920 0.224633
O O1 0.108547 0.214424 0.708983
O O2 0.992996 0.218164 0.823324
O O3 0.085343 0.306022 0.726085
O O4 0.000000 0.186212 0.750000
O O5 0.079018 0.307050 0.218449
O O6 0.095973 0.362620 0.287903
O O7 0.108461 0.431103 0.222884
O O8 0.195223 0.396770 0.238257
O O9 0.990047 0.206668 0.331436
O O10 0.000000 0.194495 0.250000
O O11 0.991427 0.386919 0.202705
O O12 0.981243 0.303413 0.147951
O O13 0.827125 0.212424 0.894999
O O14 0.864000 0.271151 0.822003
O O15 0.756334 0.638069 0.451413
O O16 0.643863 0.561250 0.423317
#
# Coordination Sequence:
#
# PCOD9579475 Si02
#       8
#    36  36  36  36  36  36  18  36
#     4  10  20  35  53  82 109 146 193 226 273 335
#     4  11  20  37  54  79 113 149 188 226 279 343
#     4  11  22  36  55  79 115 154 186 229 276 336
#     4  11  19  34  55  77 115 154 179 225 276 330
#     4  11  21  35  53  81 110 151 187 227 280 327
#     4  12  22  35  53  81 117 150 186 220 282 335
#     4  12  22  34  58  80 112 156 184 234 274 340
#     4  10  24  34  55  81 113 150 186 229 284 336
#
# _framework density 16.832516999999999
#
# number of rings (size 3 to 8) (size 9 to 14) (size 15 to 20)
#    0.000    1.067    5.333    4.000    1.867    1.600 
#    0.000    0.000    0.000    0.267    0.000    0.000 
#    1.333    1.067    0.000    0.000    0.000    0.000 
#
# Total GULP energy -502264.730042 kJ/mol
# GULP energy per Si atom -5580.719223 kJ/mol
# Density = 1.679421 g / cm^3
# Si number density = 16.832517 Si / 1000 Ang^3
#
#
#
# Elastic Constant Matrix: (Units=GPa)
#
#
# Indices 1 2 3 4 5 6 
#
# 1 62.9355 19.5490 29.8635 -3.1214 0.0000 0.0000
# 2 19.5490 62.9355 29.8635 3.1214 0.0000 0.0000
# 3 29.8635 29.8635 98.4757 0.0000 0.0000 0.0000
# 4 -3.1214 3.1214 0.0000 17.2626 0.0000 0.0000
# 5 0.0000 0.0000 0.0000 0.0000 17.2626 -3.1214
# 6 0.0000 0.0000 0.0000 0.0000 -3.1214 21.6933
#
#
#
# Elastic Compliance Matrix: (Units=1/GPa)
#
#
# Indices 1 2 3 4 5 6 
#
# 1 0.019600 -0.004065 -0.004711 0.004279 0.000000 0.000000
# 2 -0.004065 0.019600 -0.004711 -0.004279 0.000000 0.000000
# 3 -0.004711 -0.004711 0.013012 0.000000 0.000000 0.000000
# 4 0.004279 -0.004279 0.000000 0.059476 0.000000 0.000000
# 5 0.000000 0.000000 0.000000 0.000000 0.059476 0.008558
# 6 0.000000 0.000000 0.000000 0.000000 0.008558 0.047329
#
#
# Mechanical properties :
#
#
# Convention : Reuss Voigt Hill
#
# Bulk Modulus (GPa) = 39.62360 42.54430 41.08395
# Shear Modulus (GPa) = 19.69450 20.91509 20.30479
#
# Velocity S-wave (km/s) = 3.42428 3.52879 3.47693
# Velocity P-wave (km/s) = 6.26301 6.47558 6.37018
#
# Compressibility (1/GPa) = 0.02523748
#
# Stress axis : x y z
#
# Youngs Moduli (GPa) = 51.02160 51.02160 76.85151
#
# Poissons Ratio (x) = 0.20739 0.36205
# Poissons Ratio (y) = 0.20739 0.36205
# Poissons Ratio (z) = 0.24036 0.24036
#
# Static dielectric constant tensor:
#      x y z
#    x 1.560620 0.000000 0.000000 
#    y 0.000000 1.560620 0.000000 
#    z 0.000000 0.000000 1.637230 
# 
# From -- ./inp_files/7269.got.cif
#   From: 2010.05.17/outbox.cif.g08.bks.cpg/sg167_4_cif.got.tgz:7269.got - 2010.05.20 11:09:15.
