data_PCOD9579350
_publ_section_title
;
Structure prediction by ZEFSAII (Michael W. Deem and Ramdas Pophale) SiO2 
 PCOD9579350
Probable space group: R -3 M
;
_chemical_formula_sum "Si O2"
_cell_formula_units_Z 144
_cell_length_a 31.425893
_cell_length_b 31.425893
_cell_length_c 8.163987
_cell_angle_alpha 90.000000
_cell_angle_beta 90.000000
_cell_angle_gamma 120.000000
_cell_volume 6982.455734
_symmetry_space_group_name_H-M "R -3 M"
_symmetry_group_IT_number 166
_symmetry_cell_setting 'hexagonal'
loop_
_space_group_symop_operation_xyz
x,y,z
-y,x-y,z
-x+y,-x,z
x-y,-y,-z
-x,-x+y,-z
y,x,-z
-x,-y,-z
y,-x+y,-z
x-y,x,-z
-x+y,y,z
x,x-y,z
-y,-x,z
2/3+x,1/3+y,1/3+z
2/3-y,1/3+x-y,1/3+z
2/3-x+y,1/3-x,1/3+z
2/3+x-y,1/3-y,1/3-z
2/3-x,1/3-x+y,1/3-z
2/3+y,1/3+x,1/3-z
2/3-x,1/3-y,1/3-z
2/3+y,1/3-x+y,1/3-z
2/3+x-y,1/3+x,1/3-z
2/3-x+y,1/3+y,1/3+z
2/3+x,1/3+x-y,1/3+z
2/3-y,1/3-x,1/3+z
1/3+x,2/3+y,2/3+z
1/3-y,2/3+x-y,2/3+z
1/3-x+y,2/3-x,2/3+z
1/3+x-y,2/3-y,2/3-z
1/3-x,2/3-x+y,2/3-z
1/3+y,2/3+x,2/3-z
1/3-x,2/3-y,2/3-z
1/3+y,2/3-x+y,2/3-z
1/3+x-y,2/3+x,2/3-z
1/3-x+y,2/3+y,2/3+z
1/3+x,2/3+x-y,2/3+z
1/3-y,2/3-x,2/3+z
loop_
_atom_site_type_symbol
_atom_site_label
_atom_site_fract_x
_atom_site_fract_y
_atom_site_fract_z
Si Si1 0.276134 0.552267 0.715874
Si Si2 0.894746 0.616258 0.412583
Si Si3 0.223942 0.111971 0.427269
Si Si4 0.722686 0.277315 0.892360
Si Si5 0.105198 0.552599 0.632402
Si Si6 0.890238 0.276875 0.807700
O O1 0.333334 0.581165 0.666667
O O2 0.248092 0.496183 0.647365
O O3 0.275925 0.551849 0.911975
O O4 0.921730 0.588396 0.333334
O O5 0.837893 0.589984 0.355183
O O6 0.894975 0.619211 0.610665
O O7 0.925929 0.675416 0.392934
O O8 0.168655 0.084328 0.495705
O O9 0.224965 0.112483 0.230682
O O10 0.253333 0.086452 0.488004
O O11 0.750376 0.333334 0.833334
O O12 0.910732 0.333334 0.833334
#
# Coordination Sequence:
#
# PCOD9579350 Si02
#       6
#    18  36  18  18  18  36
#     4  11  24  41  64  93 128 167 214 263 319 380
#     4  11  25  42  67  95 131 171 219 270 328 390
#     4  11  24  43  66  96 131 171 218 269 327 391
#     4  11  24  41  64  93 128 169 212 263 321 381
#     4  11  24  43  66  96 129 173 216 269 328 391
#     4  11  25  42  66  96 130 171 218 271 328 389
#
# _framework density 20.623116
#
# number of rings (size 3 to 8) (size 9 to 14) (size 15 to 20)
#    0.000    1.000    0.000    5.500    3.500   14.000 
#    0.000    0.000    0.000    0.000    0.000    0.000 
#    0.000    0.000    0.000    0.000    0.000    0.000 
#
# Total GULP energy -267783.861922 kJ/mol
# GULP energy per Si atom -5578.830457 kJ/mol
# Density = 2.057618 g / cm^3
# Si number density = 20.623116 Si / 1000 Ang^3
#
#
#
# Elastic Constant Matrix: (Units=GPa)
#
#
# Indices 1 2 3 4 5 6 
#
# 1 188.1831 109.3637 33.8906 -13.5465 0.0505 0.0255
# 2 109.3637 188.2046 33.9059 13.5386 0.0164 0.0002
# 3 33.8906 33.9059 70.2226 0.0052 0.1609 0.0076
# 4 -13.5465 13.5386 0.0052 18.2722 0.0593 0.0303
# 5 0.0505 0.0164 0.1609 0.0593 18.3433 -13.5371
# 6 0.0255 0.0002 0.0076 0.0303 -13.5371 39.4267
#
#
#
# Elastic Compliance Matrix: (Units=1/GPa)
#
#
# Indices 1 2 3 4 5 6 
#
# 1 0.010399 -0.006622 -0.001822 0.012617 -0.000079 -0.000043
# 2 -0.006622 0.010397 -0.001824 -0.012613 0.000102 0.000049
# 3 -0.001822 -0.001824 0.016001 -0.000003 -0.000181 -0.000064
# 4 0.012617 -0.012613 -0.000003 0.073428 -0.000413 -0.000206
# 5 -0.000079 0.000102 -0.000181 -0.000413 0.073022 0.025072
# 6 -0.000043 0.000049 -0.000064 -0.000206 0.025072 0.033972
#
#
# Mechanical properties :
#
#
# Convention : Reuss Voigt Hill
#
# Bulk Modulus (GPa) = 61.49499 88.99231 75.24365
# Shear Modulus (GPa) = 20.56134 33.17177 26.86656
#
# Velocity S-wave (km/s) = 3.16096 4.01493 3.61326
# Velocity P-wave (km/s) = 6.57309 8.04601 7.34656
#
# Compressibility (1/GPa) = 0.01626149
#
# Stress axis : x y z
#
# Youngs Moduli (GPa) = 96.16573 96.18055 62.49730
#
# Poissons Ratio (x) = 0.63690 0.11387
# Poissons Ratio (y) = 0.63680 0.11397
# Poissons Ratio (z) = 0.17522 0.17539
#
# Static dielectric constant tensor:
#      x y z
#    x 1.753840 0.000030 -0.000180 
#    y 0.000030 1.753920 -0.000020 
#    z -0.000180 -0.000020 1.476450 
# 
# From -- ./inp_files/1925.got.cif
#   From: 2010.05.17/outbox.cif.g08.bks.cpg/sg166_1_cif.got.tgz:1925.got - 2010.05.20 11:04:41.
