data_PCOD9579014
_publ_section_title
;
Structure prediction by ZEFSAII (Michael W. Deem and Ramdas Pophale) SiO2 
 PCOD9579014
Probable space group: R -3 M
;
_chemical_formula_sum "Si O2"
_cell_formula_units_Z 216
_cell_length_a 26.300212
_cell_length_b 26.300212
_cell_length_c 15.523173
_cell_angle_alpha 90.000000
_cell_angle_beta 90.000000
_cell_angle_gamma 120.000000
_cell_volume 9298.858256
_symmetry_space_group_name_H-M "R -3 M"
_symmetry_group_IT_number 166
_symmetry_cell_setting 'hexagonal'
loop_
_space_group_symop_operation_xyz
x,y,z
-y,x-y,z
-x+y,-x,z
x-y,-y,-z
-x,-x+y,-z
y,x,-z
-x,-y,-z
y,-x+y,-z
x-y,x,-z
-x+y,y,z
x,x-y,z
-y,-x,z
2/3+x,1/3+y,1/3+z
2/3-y,1/3+x-y,1/3+z
2/3-x+y,1/3-x,1/3+z
2/3+x-y,1/3-y,1/3-z
2/3-x,1/3-x+y,1/3-z
2/3+y,1/3+x,1/3-z
2/3-x,1/3-y,1/3-z
2/3+y,1/3-x+y,1/3-z
2/3+x-y,1/3+x,1/3-z
2/3-x+y,1/3+y,1/3+z
2/3+x,1/3+x-y,1/3+z
2/3-y,1/3-x,1/3+z
1/3+x,2/3+y,2/3+z
1/3-y,2/3+x-y,2/3+z
1/3-x+y,2/3-x,2/3+z
1/3+x-y,2/3-y,2/3-z
1/3-x,2/3-x+y,2/3-z
1/3+y,2/3+x,2/3-z
1/3-x,2/3-y,2/3-z
1/3+y,2/3-x+y,2/3-z
1/3+x-y,2/3+x,2/3-z
1/3-x+y,2/3+y,2/3+z
1/3+x,2/3+x-y,2/3+z
1/3-y,2/3-x,2/3+z
loop_
_atom_site_type_symbol
_atom_site_label
_atom_site_fract_x
_atom_site_fract_y
_atom_site_fract_z
Si Si1 0.373400 0.509831 0.080188
Si Si2 0.531582 0.632110 0.795782
Si Si3 0.940747 0.595636 0.671642
Si Si4 0.419687 0.957832 0.608267
Si Si5 0.649239 0.767878 0.158601
Si Si6 0.776537 0.443257 0.436246
O O1 0.421471 0.578530 0.062103
O O2 0.333334 0.502050 0.166667
O O3 0.336227 0.461091 0.006733
O O4 0.411965 0.479898 0.105455
O O5 0.527112 0.600129 0.703638
O O6 0.581120 0.698719 0.783584
O O7 0.545511 0.592890 0.858904
O O8 0.474529 0.635651 0.813998
O O9 0.963942 0.584314 0.763125
O O10 0.966203 0.666667 0.666667
O O11 0.981423 0.580790 0.610665
O O12 0.481424 0.962848 0.586837
O O13 0.649223 0.824612 0.117281
O O14 0.707391 0.414782 0.447337
O O15 0.798277 0.399139 0.463304
O O16 0.787875 0.454542 0.333334
#
# Coordination Sequence:
#
# PCOD9579014 Si02
#       6
#    36  36  36  36  36  36
#     4   9  19  32  49  68  91 119 144 177 211 262
#     4  10  15  22  36  53  76 106 141 184 217 251
#     4  10  16  27  42  65  90 113 144 177 226 263
#     4  10  16  23  36  59  86 109 144 183 215 253
#     4   9  16  28  42  61  85 114 152 185 220 263
#     4  10  17  22  27  41  69 103 136 174 223 266
#
# _framework density 23.228659
#
# number of rings (size 3 to 8) (size 9 to 14) (size 15 to 20)
#    0.000    2.333    5.000    3.667    0.000    1.667 
#    0.000    0.000    0.000    0.167    0.000    5.833 
#    0.000    0.000    0.000    0.000    0.000    0.333 
#
# Total GULP energy -401103.840248 kJ/mol
# GULP energy per Si atom -5570.886670 kJ/mol
# Density = 2.317579 g / cm^3
# Si number density = 23.228659 Si / 1000 Ang^3
#
#
#
# Elastic Constant Matrix: (Units=GPa)
#
#
# Indices 1 2 3 4 5 6 
#
# 1 121.1211 53.7424 16.8129 1.3529 0.0001 0.0000
# 2 53.7424 121.1211 16.8129 -1.3529 -0.0001 0.0000
# 3 16.8129 16.8129 22.3583 0.0000 0.0000 0.0000
# 4 1.3529 -1.3529 0.0000 2.0971 0.0000 -0.0001
# 5 0.0001 -0.0001 0.0000 0.0000 2.0971 1.3529
# 6 0.0000 0.0000 0.0000 -0.0001 1.3529 33.6893
#
#
#
# Elastic Compliance Matrix: (Units=1/GPa)
#
#
# Indices 1 2 3 4 5 6 
#
# 1 0.010961 -0.004275 -0.005027 -0.009830 -0.000001 0.000000
# 2 -0.004275 0.010961 -0.005027 0.009830 0.000001 0.000000
# 3 -0.005027 -0.005027 0.052287 0.000000 0.000000 0.000000
# 4 -0.009830 0.009830 0.000000 0.489540 0.000000 0.000001
# 5 -0.000001 0.000001 0.000000 0.000000 0.489540 -0.019659
# 6 0.000000 0.000000 0.000000 0.000001 -0.019659 0.030472
#
#
# Mechanical properties :
#
#
# Convention : Reuss Voigt Hill
#
# Bulk Modulus (GPa) = 21.95457 48.81522 35.38489
# Shear Modulus (GPa) = 4.43418 19.39219 11.91318
#
# Velocity S-wave (km/s) = 1.38314 2.89249 2.26711
# Velocity P-wave (km/s) = 3.46739 5.67592 4.70313
#
# Compressibility (1/GPa) = 0.04554861
#
# Stress axis : x y z
#
# Youngs Moduli (GPa) = 91.23375 91.23376 19.12526
#
# Poissons Ratio (x) = 0.39006 0.09615
# Poissons Ratio (y) = 0.39006 0.09615
# Poissons Ratio (z) = 0.45866 0.45866
#
# Static dielectric constant tensor:
#      x y z
#    x 1.955000 0.000000 0.000000 
#    y 0.000000 1.955000 0.000000 
#    z 0.000000 0.000000 2.038320 
# 
# From -- ./inp_files/8604.got.cif
#   From: 2010.05.17/outbox.cif.g08.bks.cpg/sg166_5_cif.got.tgz:8604.got - 2010.05.20 11:04:41.
