data_PCOD9579414
_publ_section_title
;
Structure prediction by ZEFSAII (Michael W. Deem and Ramdas Pophale) SiO2 
 PCOD9579414
Probable space group: R -3 C 
;
_chemical_formula_sum "Si O2"
_cell_formula_units_Z 132
_cell_length_a 14.984088
_cell_length_b 14.984088
_cell_length_c 33.173288
_cell_angle_alpha 90.000000
_cell_angle_beta 90.000000
_cell_angle_gamma 120.000000
_cell_volume 6450.298022
_symmetry_space_group_name_H-M "R -3 C "
_symmetry_group_IT_number 167
_symmetry_cell_setting 'hexagonal'
loop_
_space_group_symop_operation_xyz
x,y,z
-y,x-y,z
-x+y,-x,z
x-y,-y,1/2-z
-x,-x+y,1/2-z
y,x,1/2-z
-x,-y,-z
y,-x+y,-z
x-y,x,-z
-x+y,y,1/2+z
x,x-y,1/2+z
-y,-x,1/2+z
2/3+x,1/3+y,1/3+z
2/3-y,1/3+x-y,1/3+z
2/3-x+y,1/3-x,1/3+z
2/3+x-y,1/3-y,5/6-z
2/3-x,1/3-x+y,5/6-z
2/3+y,1/3+x,5/6-z
2/3-x,1/3-y,1/3-z
2/3+y,1/3-x+y,1/3-z
2/3+x-y,1/3+x,1/3-z
2/3-x+y,1/3+y,5/6+z
2/3+x,1/3+x-y,5/6+z
2/3-y,1/3-x,5/6+z
1/3+x,2/3+y,2/3+z
1/3-y,2/3+x-y,2/3+z
1/3-x+y,2/3-x,2/3+z
1/3+x-y,2/3-y,1/6-z
1/3-x,2/3-x+y,1/6-z
1/3+y,2/3+x,1/6-z
1/3-x,2/3-y,2/3-z
1/3+y,2/3-x+y,2/3-z
1/3+x-y,2/3+x,2/3-z
1/3-x+y,2/3+y,1/6+z
1/3+x,2/3+x-y,1/6+z
1/3-y,2/3-x,1/6+z
loop_
_atom_site_type_symbol
_atom_site_label
_atom_site_fract_x
_atom_site_fract_y
_atom_site_fract_z
Si Si1 0.298910 0.123849 0.250166
Si Si2 0.494145 0.112444 0.237729
Si Si3 0.333334 0.666667 0.476325
Si Si4 0.674701 0.133882 0.642963
Si Si5 0.666668 0.333334 0.239429
O O1 0.405616 0.127594 0.258118
O O2 0.297986 0.183170 0.208956
O O3 0.277965 0.186532 0.284371
O O4 0.216833 0.000000 0.250000
O O5 0.468845 0.114910 0.189980
O O6 0.602302 0.211970 0.249568
O O7 0.474304 0.000000 0.250000
O O8 0.223643 0.576370 0.464041
O O9 0.333334 0.666667 0.524456
#
# Coordination Sequence:
#
# PCOD9579414 Si02
#       5
#    36  36  12  36  12
#     4  10  19  31  57  93 126 152 192 254 330 390
#     4  10  22  41  60  87 123 166 213 260 308 372
#     4   9  15  28  58  87 118 154 184 251 334 379
#     4  10  18  32  56  91 126 158 196 256 326 382
#     4   9  21  42  61  80 118 168 211 257 304 363
#
# _framework density 20.464169999999999
#
# number of rings (size 3 to 8) (size 9 to 14) (size 15 to 20)
#    0.000    2.182    2.727    0.818    0.000    0.000 
#    4.909    0.000    0.000    1.636    0.000    0.000 
#    0.000    0.000    0.000    0.000    0.000    0.000 
#
# Total GULP energy -244970.415033 kJ/mol
# GULP energy per Si atom -5567.509433 kJ/mol
# Density = 2.041759 g / cm^3
# Si number density = 20.464170 Si / 1000 Ang^3
#
#
#
# Elastic Constant Matrix: (Units=GPa)
#
#
# Indices 1 2 3 4 5 6 
#
# 1 70.1846 23.7604 9.6964 5.0054 0.0000 0.0000
# 2 23.7604 70.1845 9.6982 -5.0056 0.0000 0.0000
# 3 9.6964 9.6982 28.0328 0.0003 0.0000 0.0000
# 4 5.0054 -5.0056 0.0003 21.7375 0.0000 0.0000
# 5 0.0000 0.0000 0.0000 0.0000 21.7372 5.0058
# 6 0.0000 0.0000 0.0000 0.0000 5.0058 23.2121
#
#
#
# Elastic Compliance Matrix: (Units=1/GPa)
#
#
# Indices 1 2 3 4 5 6 
#
# 1 0.017064 -0.005601 -0.003965 -0.005219 0.000000 0.000000
# 2 -0.005601 0.017065 -0.003966 0.005219 0.000000 0.000000
# 3 -0.003965 -0.003966 0.038416 -0.000001 0.000000 0.000000
# 4 -0.005219 0.005219 -0.000001 0.048407 0.000000 0.000000
# 5 0.000000 0.000000 0.000000 0.000000 0.048408 -0.010439
# 6 0.000000 0.000000 0.000000 0.000000 -0.010439 0.045332
#
#
# Mechanical properties :
#
#
# Convention : Reuss Voigt Hill
#
# Bulk Modulus (GPa) = 21.98735 28.30132 25.14433
# Shear Modulus (GPa) = 19.46150 21.68716 20.57433
#
# Velocity S-wave (km/s) = 3.08718 3.25893 3.17422
# Velocity P-wave (km/s) = 4.84512 5.29344 5.07424
#
# Compressibility (1/GPa) = 0.04548070
#
# Stress axis : x y z
#
# Youngs Moduli (GPa) = 58.60145 58.60015 26.03079
#
# Poissons Ratio (x) = 0.32824 0.10320
# Poissons Ratio (y) = 0.32825 0.10324
# Poissons Ratio (z) = 0.23233 0.23242
#
# Static dielectric constant tensor:
#      x y z
#    x 1.763340 0.000000 0.000000 
#    y 0.000000 1.763340 0.000000 
#    z 0.000000 0.000000 1.744400 
# 
# From -- ./inp_files/6937.got.cif
#   From: 2010.05.17/outbox.cif.g08.bks.cpg/sg167_4_cif.got.tgz:6937.got - 2010.05.20 11:09:15.
