data_PCOD9579880
_publ_section_title
;
Structure prediction by ZEFSAII (Michael W. Deem and Ramdas Pophale) SiO2 
 PCOD9579880
Probable space group: P 61
;
_chemical_formula_sum "Si O2"
_cell_formula_units_Z 42
_cell_length_a 12.586306
_cell_length_b 12.586306
_cell_length_c 12.887434
_cell_angle_alpha 90.000000
_cell_angle_beta 90.000000
_cell_angle_gamma 120.000000
_cell_volume 1768.046400
_symmetry_space_group_name_H-M "P 61"
_symmetry_group_IT_number 169
_symmetry_cell_setting 'hexagonal'
loop_
_space_group_symop_operation_xyz
x,y,z
x-y,x,1/6+z
-y,x-y,1/3+z
-x,-y,1/2+z
-x+y,-x,2/3+z
y,-x+y,5/6+z
loop_
_atom_site_type_symbol
_atom_site_label
_atom_site_fract_x
_atom_site_fract_y
_atom_site_fract_z
Si Si1 0.544952 0.588681 0.221980
Si Si2 0.676821 0.066305 0.833828
Si Si3 0.633400 0.343745 0.667922
Si Si4 0.935983 0.141788 0.554199
Si Si5 0.636429 0.559423 0.427483
Si Si6 0.662317 0.457871 0.143484
Si Si7 0.802112 0.986543 0.376869
O O1 0.409084 0.564366 0.208294
O O2 0.604328 0.625664 0.334458
O O3 0.556178 0.470588 0.195172
O O4 0.621153 0.677347 0.125491
O O5 0.544680 0.051711 0.807950
O O6 0.782859 0.204431 0.804902
O O7 0.700694 0.973894 0.768308
O O8 0.521627 0.211743 0.708192
O O9 0.628087 0.322872 0.546273
O O10 0.765623 0.374024 0.702272
O O11 0.049593 0.153794 0.485339
O O12 0.829413 0.087061 0.467447
O O13 0.734868 0.662966 0.502854
O O14 0.830010 0.890759 0.443571
#
# Coordination Sequence:
#
# PCOD9579880 Si02
#       7
#     6   6   6   6   6   6   6
#     4  10  20  36  60  94 124 170 220 268 342 408
#     4  10  21  39  64  94 130 173 228 288 347 408
#     4   9  19  36  57  85 123 162 210 267 324 391
#     4  10  22  43  68 101 144 189 235 289 354 424
#     4  10  21  39  64  94 130 173 228 288 347 408
#     4   9  19  36  57  85 123 162 210 267 324 391
#     4  10  22  43  68 101 144 189 235 289 354 424
#
# _framework density 23.755030999999999
#
# number of rings (size 3 to 8) (size 9 to 14) (size 15 to 20)
#    0.000    2.286    0.000    1.714    0.000    3.429 
#    0.000   42.857    0.000    1.714    0.000    0.000 
#    0.000    0.000    0.000    0.000    0.000    0.857 
#
# Total GULP energy -234112.835695 kJ/mol
# GULP energy per Si atom -5574.115136 kJ/mol
# Density = 2.370096 g / cm^3
# Si number density = 23.755031 Si / 1000 Ang^3
#
#
#
# Elastic Constant Matrix: (Units=GPa)
#
#
# Indices 1 2 3 4 5 6 
#
# 1 61.6107 26.1959 32.6189 0.0000 0.0000 0.0000
# 2 26.1959 61.6107 32.6189 0.0000 0.0000 0.0000
# 3 32.6189 32.6189 98.5170 0.0000 0.0000 0.0000
# 4 0.0000 0.0000 0.0000 33.3343 0.0000 0.0000
# 5 0.0000 0.0000 0.0000 0.0000 33.3343 0.0000
# 6 0.0000 0.0000 0.0000 0.0000 0.0000 17.7074
#
#
#
# Elastic Compliance Matrix: (Units=1/GPa)
#
#
# Indices 1 2 3 4 5 6 
#
# 1 0.021670 -0.006566 -0.005001 0.000000 0.000000 0.000000
# 2 -0.006566 0.021670 -0.005001 0.000000 0.000000 0.000000
# 3 -0.005001 -0.005001 0.013462 0.000000 0.000000 0.000000
# 4 0.000000 0.000000 0.000000 0.029999 0.000000 0.000000
# 5 0.000000 0.000000 0.000000 0.000000 0.029999 0.000000
# 6 0.000000 0.000000 0.000000 0.000000 0.000000 0.056473
#
#
# Mechanical properties :
#
#
# Convention : Reuss Voigt Hill
#
# Bulk Modulus (GPa) = 42.25346 44.95618 43.60482
# Shear Modulus (GPa) = 23.33176 25.56221 24.44699
#
# Velocity S-wave (km/s) = 3.13738 3.28392 3.21148
# Velocity P-wave (km/s) = 5.56327 5.77450 5.66987
#
# Compressibility (1/GPa) = 0.02366670
#
# Stress axis : x y z
#
# Youngs Moduli (GPa) = 46.14569 46.14569 74.28218
#
# Poissons Ratio (x) = 0.30300 0.37149
# Poissons Ratio (y) = 0.30300 0.37149
# Poissons Ratio (z) = 0.23077 0.23077
#
# Static dielectric constant tensor:
#      x y z
#    x 2.007370 0.000000 0.000000 
#    y 0.000000 2.007370 0.000000 
#    z 0.000000 0.000000 1.956780 
# 
# From -- ./inp_files/985.got.cif
#   From: 2010.05.17/outbox.cif.g08.bks.cpg/sg169_cif.got.tgz:985.got - 2010.05.20 11:12:54.
