data_PCOD9579482
_publ_section_title
;
Structure prediction by ZEFSAII (Michael W. Deem and Ramdas Pophale) SiO2 
 PCOD9579482
Probable space group: R -3 C 
;
_chemical_formula_sum "Si O2"
_cell_formula_units_Z 84
_cell_length_a 12.507402
_cell_length_b 12.507402
_cell_length_c 33.639293
_cell_angle_alpha 90.000000
_cell_angle_beta 90.000000
_cell_angle_gamma 120.000000
_cell_volume 4557.342922
_symmetry_space_group_name_H-M "R -3 C "
_symmetry_group_IT_number 167
_symmetry_cell_setting 'hexagonal'
loop_
_space_group_symop_operation_xyz
x,y,z
-y,x-y,z
-x+y,-x,z
x-y,-y,1/2-z
-x,-x+y,1/2-z
y,x,1/2-z
-x,-y,-z
y,-x+y,-z
x-y,x,-z
-x+y,y,1/2+z
x,x-y,1/2+z
-y,-x,1/2+z
2/3+x,1/3+y,1/3+z
2/3-y,1/3+x-y,1/3+z
2/3-x+y,1/3-x,1/3+z
2/3+x-y,1/3-y,5/6-z
2/3-x,1/3-x+y,5/6-z
2/3+y,1/3+x,5/6-z
2/3-x,1/3-y,1/3-z
2/3+y,1/3-x+y,1/3-z
2/3+x-y,1/3+x,1/3-z
2/3-x+y,1/3+y,5/6+z
2/3+x,1/3+x-y,5/6+z
2/3-y,1/3-x,5/6+z
1/3+x,2/3+y,2/3+z
1/3-y,2/3+x-y,2/3+z
1/3-x+y,2/3-x,2/3+z
1/3+x-y,2/3-y,1/6-z
1/3-x,2/3-x+y,1/6-z
1/3+y,2/3+x,1/6-z
1/3-x,2/3-y,2/3-z
1/3+y,2/3-x+y,2/3-z
1/3+x-y,2/3+x,2/3-z
1/3-x+y,2/3+y,1/6+z
1/3+x,2/3+x-y,1/6+z
1/3-y,2/3-x,1/6+z
loop_
_atom_site_type_symbol
_atom_site_label
_atom_site_fract_x
_atom_site_fract_y
_atom_site_fract_z
Si Si1 0.333280 0.873249 0.816002
Si Si2 0.331263 0.924375 0.289220
Si Si3 0.666668 0.333335 0.130284
O O1 0.460320 0.914194 0.793693
O O2 0.213364 0.787941 0.789296
O O3 0.327013 0.781855 0.851271
O O4 0.319989 0.979631 0.837833
O O5 0.341031 0.000000 0.250000
O O6 0.666668 0.333334 0.083334
#
# Coordination Sequence:
#
# PCOD9579482 Si02
#       3
#    36  36  12
#     4   9  20  34  52  80 106 137 181 214 256 319
#     4  10  20  36  55  77 108 140 173 219 264 306
#     4   9  15  30  54  78 105 136 176 223 258 294
#
# _framework density 18.431792000000002
#
# number of rings (size 3 to 8) (size 9 to 14) (size 15 to 20)
#    0.000    2.571    0.000    2.143    0.000    3.429 
#    0.000    4.286    0.000    3.429    0.000    0.000 
#    0.000    0.000    0.000    0.000    0.000    0.000 
#
# Total GULP energy -156202.632047 kJ/mol
# GULP energy per Si atom -5578.665430 kJ/mol
# Density = 1.838984 g / cm^3
# Si number density = 18.431792 Si / 1000 Ang^3
#
#
#
# Elastic Constant Matrix: (Units=GPa)
#
#
# Indices 1 2 3 4 5 6 
#
# 1 76.1692 33.6575 38.6726 6.7410 0.0010 0.0001
# 2 33.6575 76.1689 38.6731 -6.7409 -0.0009 -0.0001
# 3 38.6726 38.6731 90.2626 0.0003 0.0000 0.0000
# 4 6.7410 -6.7409 0.0003 20.0205 0.0001 -0.0008
# 5 0.0010 -0.0009 0.0000 0.0001 20.0203 6.7409
# 6 0.0001 -0.0001 0.0000 -0.0008 6.7409 21.2562
#
#
#
# Elastic Compliance Matrix: (Units=1/GPa)
#
#
# Indices 1 2 3 4 5 6 
#
# 1 0.019687 -0.006648 -0.005587 -0.008867 -0.000001 0.000000
# 2 -0.006648 0.019688 -0.005587 0.008867 0.000001 0.000000
# 3 -0.005587 -0.005587 0.015866 0.000000 0.000000 0.000000
# 4 -0.008867 0.008867 0.000000 0.055920 0.000000 0.000002
# 5 -0.000001 0.000001 0.000000 0.000000 0.055920 -0.017734
# 6 0.000000 0.000000 0.000000 0.000002 -0.017734 0.052669
#
#
# Mechanical properties :
#
#
# Convention : Reuss Voigt Hill
#
# Bulk Modulus (GPa) = 51.02486 51.62301 51.32394
# Shear Modulus (GPa) = 19.08938 21.03257 20.06097
#
# Velocity S-wave (km/s) = 3.22168 3.38169 3.30265
# Velocity P-wave (km/s) = 6.44842 6.58150 6.51530
#
# Compressibility (1/GPa) = 0.01959829
#
# Stress axis : x y z
#
# Youngs Moduli (GPa) = 50.79416 50.79342 63.02716
#
# Poissons Ratio (x) = 0.33765 0.35212
# Poissons Ratio (y) = 0.33766 0.35214
# Poissons Ratio (z) = 0.28377 0.28379
#
# Static dielectric constant tensor:
#      x y z
#    x 1.655260 0.000000 0.000000 
#    y 0.000000 1.655260 0.000000 
#    z 0.000000 0.000000 1.595060 
# 
# From -- ./inp_files/4907.got.cif
#   From: 2010.05.17/outbox.cif.g08.bks.cpg/sg167_3_cif.got.tgz:4907.got - 2010.05.20 11:09:15.
