data_PCOD9579224
_publ_section_title
;
Structure prediction by ZEFSAII (Michael W. Deem and Ramdas Pophale) SiO2 
 PCOD9579224
Probable space group: R -3 M
;
_chemical_formula_sum "Si O2"
_cell_formula_units_Z 84
_cell_length_a 15.017495
_cell_length_b 15.017495
_cell_length_c 24.141325
_cell_angle_alpha 90.000000
_cell_angle_beta 90.000000
_cell_angle_gamma 120.000000
_cell_volume 4715.054603
_symmetry_space_group_name_H-M "R -3 M"
_symmetry_group_IT_number 166
_symmetry_cell_setting 'hexagonal'
loop_
_space_group_symop_operation_xyz
x,y,z
-y,x-y,z
-x+y,-x,z
x-y,-y,-z
-x,-x+y,-z
y,x,-z
-x,-y,-z
y,-x+y,-z
x-y,x,-z
-x+y,y,z
x,x-y,z
-y,-x,z
2/3+x,1/3+y,1/3+z
2/3-y,1/3+x-y,1/3+z
2/3-x+y,1/3-x,1/3+z
2/3+x-y,1/3-y,1/3-z
2/3-x,1/3-x+y,1/3-z
2/3+y,1/3+x,1/3-z
2/3-x,1/3-y,1/3-z
2/3+y,1/3-x+y,1/3-z
2/3+x-y,1/3+x,1/3-z
2/3-x+y,1/3+y,1/3+z
2/3+x,1/3+x-y,1/3+z
2/3-y,1/3-x,1/3+z
1/3+x,2/3+y,2/3+z
1/3-y,2/3+x-y,2/3+z
1/3-x+y,2/3-x,2/3+z
1/3+x-y,2/3-y,2/3-z
1/3-x,2/3-x+y,2/3-z
1/3+y,2/3+x,2/3-z
1/3-x,2/3-y,2/3-z
1/3+y,2/3-x+y,2/3-z
1/3+x-y,2/3+x,2/3-z
1/3-x+y,2/3+y,2/3+z
1/3+x,2/3+x-y,2/3+z
1/3-y,2/3-x,2/3+z
loop_
_atom_site_type_symbol
_atom_site_label
_atom_site_fract_x
_atom_site_fract_y
_atom_site_fract_z
Si Si1 0.549011 0.774506 0.505449
Si Si2 0.556664 0.443337 0.738980
Si Si3 0.272042 0.000000 0.500000
Si Si4 0.000000 0.000000 0.219764
Si Si5 0.333334 0.666667 0.016821
Si Si6 0.556852 0.113703 0.302869
O O1 0.620011 0.724044 0.492752
O O2 0.447963 0.723982 0.470061
O O3 0.522700 0.761350 0.571015
O O4 0.639251 0.531126 0.780191
O O5 0.608731 0.391270 0.705697
O O6 0.505336 0.494665 0.701227
O O7 0.000000 0.000000 0.284924
O O8 0.666667 0.159282 0.333334
#
# Coordination Sequence:
#
# PCOD9579224 Si02
#       6
#    18  18  18   6   6  18
#     4  10  21  38  57  80 109 147 184 219 268 326
#     4  10  21  37  59  85 107 139 186 228 270 319
#     4   8  18  38  64  80  98 138 190 234 268 308
#     4  12  27  36  47  80 123 156 177 202 269 349
#     4  12  24  34  52  82 118 150 174 220 275 319
#     4  10  20  36  61  86 106 136 183 235 274 310
#
# _framework density 17.815276999999998
#
# number of rings (size 3 to 8) (size 9 to 14) (size 15 to 20)
#    0.000    2.571    0.000    4.071    0.000    8.571 
#    0.000    3.214    0.000    0.000    0.000    0.000 
#    0.000    0.000    0.000    0.000    0.000    0.000 
#
# Total GULP energy -156205.224812 kJ/mol
# GULP energy per Si atom -5578.758029 kJ/mol
# Density = 1.777473 g / cm^3
# Si number density = 17.815277 Si / 1000 Ang^3
#
#
#
# Elastic Constant Matrix: (Units=GPa)
#
#
# Indices 1 2 3 4 5 6 
#
# 1 143.2686 123.5928 99.4476 -1.5177 0.0013 0.0000
# 2 123.5928 143.2686 99.4471 1.5176 -0.0013 0.0000
# 3 99.4476 99.4471 142.3294 0.0002 0.0000 0.0000
# 4 -1.5177 1.5176 0.0002 6.3688 0.0000 -0.0013
# 5 0.0013 -0.0013 0.0000 0.0000 6.3688 -1.5179
# 6 0.0000 0.0000 0.0000 -0.0013 -1.5179 9.8372
#
#
#
# Elastic Compliance Matrix: (Units=1/GPa)
#
#
# Indices 1 2 3 4 5 6 
#
# 1 0.030292 -0.022472 -0.005464 0.012574 -0.000011 0.000000
# 2 -0.022472 0.030291 -0.005463 -0.012573 0.000011 0.000000
# 3 -0.005464 -0.005463 0.014661 -0.000001 0.000000 0.000000
# 4 0.012574 -0.012573 -0.000001 0.163008 0.000000 0.000022
# 5 -0.000011 0.000011 0.000000 0.000000 0.163010 0.025153
# 6 0.000000 0.000000 0.000000 0.000022 0.025153 0.105537
#
#
# Mechanical properties :
#
#
# Convention : Reuss Voigt Hill
#
# Bulk Modulus (GPa) = 118.40615 119.31573 118.86094
# Shear Modulus (GPa) = 8.67438 11.60690 10.14064
#
# Velocity S-wave (km/s) = 2.20899 2.55525 2.38840
# Velocity P-wave (km/s) = 8.55066 8.70775 8.62956
#
# Compressibility (1/GPa) = 0.00844551
#
# Stress axis : x y z
#
# Youngs Moduli (GPa) = 33.01255 33.01296 68.21026
#
# Poissons Ratio (x) = 0.74187 0.37267
# Poissons Ratio (y) = 0.74186 0.37264
# Poissons Ratio (z) = 0.18037 0.18035
#
# Static dielectric constant tensor:
#      x y z
#    x 1.600690 0.000000 0.000000 
#    y 0.000000 1.600690 0.000000 
#    z 0.000000 0.000000 1.583750 
# 
# From -- ./inp_files/7620.got.cif
#   From: 2010.05.17/outbox.cif.g08.bks.cpg/sg166_4_cif.got.tgz:7620.got - 2010.05.20 11:04:41.
