data_PCOD9579169
_publ_section_title
;
Structure prediction by ZEFSAII (Michael W. Deem and Ramdas Pophale) SiO2 
 PCOD9579169
Probable space group: R -3 M
;
_chemical_formula_sum "Si O2"
_cell_formula_units_Z 108
_cell_length_a 21.656802
_cell_length_b 21.656802
_cell_length_c 13.305238
_cell_angle_alpha 90.000000
_cell_angle_beta 90.000000
_cell_angle_gamma 120.000000
_cell_volume 5404.330883
_symmetry_space_group_name_H-M "R -3 M"
_symmetry_group_IT_number 166
_symmetry_cell_setting 'hexagonal'
loop_
_space_group_symop_operation_xyz
x,y,z
-y,x-y,z
-x+y,-x,z
x-y,-y,-z
-x,-x+y,-z
y,x,-z
-x,-y,-z
y,-x+y,-z
x-y,x,-z
-x+y,y,z
x,x-y,z
-y,-x,z
2/3+x,1/3+y,1/3+z
2/3-y,1/3+x-y,1/3+z
2/3-x+y,1/3-x,1/3+z
2/3+x-y,1/3-y,1/3-z
2/3-x,1/3-x+y,1/3-z
2/3+y,1/3+x,1/3-z
2/3-x,1/3-y,1/3-z
2/3+y,1/3-x+y,1/3-z
2/3+x-y,1/3+x,1/3-z
2/3-x+y,1/3+y,1/3+z
2/3+x,1/3+x-y,1/3+z
2/3-y,1/3-x,1/3+z
1/3+x,2/3+y,2/3+z
1/3-y,2/3+x-y,2/3+z
1/3-x+y,2/3-x,2/3+z
1/3+x-y,2/3-y,2/3-z
1/3-x,2/3-x+y,2/3-z
1/3+y,2/3+x,2/3-z
1/3-x,2/3-y,2/3-z
1/3+y,2/3-x+y,2/3-z
1/3+x-y,2/3+x,2/3-z
1/3-x+y,2/3+y,2/3+z
1/3+x,2/3+x-y,2/3+z
1/3-y,2/3-x,2/3+z
loop_
_atom_site_type_symbol
_atom_site_label
_atom_site_fract_x
_atom_site_fract_y
_atom_site_fract_z
Si Si1 0.856622 0.143379 0.269353
Si Si2 0.745440 0.004752 0.380381
Si Si3 0.754224 0.508448 0.434455
Si Si4 0.541575 0.458426 0.028459
Si Si5 0.502856 0.251428 0.214783
O O1 0.833334 0.166667 0.166667
O O2 0.895586 0.104415 0.218767
O O3 0.916004 0.206979 0.336520
O O4 0.666667 0.970762 0.333334
O O5 0.777397 0.953805 0.348096
O O6 0.738054 0.000000 0.500000
O O7 0.784044 0.568088 0.519739
O O8 0.769742 0.539484 0.321540
O O9 0.669896 0.456596 0.447612
O O10 0.500000 0.500000 0.000000
#
# Coordination Sequence:
#
# PCOD9579169 Si02
#       5
#    18  36  18  18  18
#     4  12  25  42  64  97 130 162 220 279 319 376
#     4  11  24  44  65  93 126 172 217 268 330 389
#     4  10  19  39  64  97 127 160 208 253 331 384
#     4  10  21  38  65  86 124 172 213 251 314 397
#     4  10  21  37  66  96 127 162 199 267 319 387
#
# _framework density 19.983972999999999
#
# number of rings (size 3 to 8) (size 9 to 14) (size 15 to 20)
#    0.000    1.333    3.333    2.333    0.000    6.667 
#    6.000    0.000    0.000    0.000    0.000    4.667 
#    0.000    0.000    0.000    0.000    0.000    0.000 
#
# Total GULP energy -200973.091854 kJ/mol
# GULP energy per Si atom -5582.585885 kJ/mol
# Density = 1.993849 g / cm^3
# Si number density = 19.983973 Si / 1000 Ang^3
#
#
#
# Elastic Constant Matrix: (Units=GPa)
#
#
# Indices 1 2 3 4 5 6 
#
# 1 97.5655 39.6957 59.6592 7.1092 0.0000 0.0000
# 2 39.6957 97.5655 59.6592 -7.1092 0.0000 0.0000
# 3 59.6592 59.6592 195.2524 0.0000 0.0000 0.0000
# 4 7.1092 -7.1092 0.0000 32.6988 0.0000 0.0000
# 5 0.0000 0.0000 0.0000 0.0000 32.6988 7.1092
# 6 0.0000 0.0000 0.0000 0.0000 7.1092 28.9349
#
#
#
# Elastic Compliance Matrix: (Units=1/GPa)
#
#
# Indices 1 2 3 4 5 6 
#
# 1 0.014088 -0.004168 -0.003031 -0.003969 0.000000 0.000000
# 2 -0.004168 0.014088 -0.003031 0.003969 0.000000 0.000000
# 3 -0.003031 -0.003031 0.006974 0.000000 0.000000 0.000000
# 4 -0.003969 0.003969 0.000000 0.032308 0.000000 0.000000
# 5 0.000000 0.000000 0.000000 0.000000 0.032308 -0.007938
# 6 0.000000 0.000000 0.000000 0.000000 -0.007938 0.036511
#
#
# Mechanical properties :
#
#
# Convention : Reuss Voigt Hill
#
# Bulk Modulus (GPa) = 68.07389 78.71241 73.39315
# Shear Modulus (GPa) = 30.93442 34.29113 32.61278
#
# Velocity S-wave (km/s) = 3.93868 4.14687 4.04412
# Velocity P-wave (km/s) = 7.40422 7.89950 7.65586
#
# Compressibility (1/GPa) = 0.01468992
#
# Stress axis : x y z
#
# Youngs Moduli (GPa) = 70.98343 70.98343 143.39193
#
# Poissons Ratio (x) = 0.29582 0.43464
# Poissons Ratio (y) = 0.29582 0.43464
# Poissons Ratio (z) = 0.21516 0.21516
#
# Static dielectric constant tensor:
#      x y z
#    x 1.730390 0.000000 0.000000 
#    y 0.000000 1.730390 0.000000 
#    z 0.000000 0.000000 1.690320 
# 
# From -- ./inp_files/2679.got.cif
#   From: 2010.05.17/outbox.cif.g08.bks.cpg/sg166_2_cif.got.tgz:2679.got - 2010.05.20 11:04:41.
