data_PCOD9579313
_publ_section_title
;
Structure prediction by ZEFSAII (Michael W. Deem and Ramdas Pophale) SiO2 
 PCOD9579313
Probable space group: R -3 M
;
_chemical_formula_sum "Si O2"
_cell_formula_units_Z 162
_cell_length_a 23.565422
_cell_length_b 23.565422
_cell_length_c 19.558682
_cell_angle_alpha 90.000000
_cell_angle_beta 90.000000
_cell_angle_gamma 120.000000
_cell_volume 9406.339727
_symmetry_space_group_name_H-M "R -3 M"
_symmetry_group_IT_number 166
_symmetry_cell_setting 'hexagonal'
loop_
_space_group_symop_operation_xyz
x,y,z
-y,x-y,z
-x+y,-x,z
x-y,-y,-z
-x,-x+y,-z
y,x,-z
-x,-y,-z
y,-x+y,-z
x-y,x,-z
-x+y,y,z
x,x-y,z
-y,-x,z
2/3+x,1/3+y,1/3+z
2/3-y,1/3+x-y,1/3+z
2/3-x+y,1/3-x,1/3+z
2/3+x-y,1/3-y,1/3-z
2/3-x,1/3-x+y,1/3-z
2/3+y,1/3+x,1/3-z
2/3-x,1/3-y,1/3-z
2/3+y,1/3-x+y,1/3-z
2/3+x-y,1/3+x,1/3-z
2/3-x+y,1/3+y,1/3+z
2/3+x,1/3+x-y,1/3+z
2/3-y,1/3-x,1/3+z
1/3+x,2/3+y,2/3+z
1/3-y,2/3+x-y,2/3+z
1/3-x+y,2/3-x,2/3+z
1/3+x-y,2/3-y,2/3-z
1/3-x,2/3-x+y,2/3-z
1/3+y,2/3+x,2/3-z
1/3-x,2/3-y,2/3-z
1/3+y,2/3-x+y,2/3-z
1/3+x-y,2/3+x,2/3-z
1/3-x+y,2/3+y,2/3+z
1/3+x,2/3+x-y,2/3+z
1/3-y,2/3-x,2/3+z
loop_
_atom_site_type_symbol
_atom_site_label
_atom_site_fract_x
_atom_site_fract_y
_atom_site_fract_z
Si Si1 0.465524 0.534477 0.300601
Si Si2 0.521181 0.478820 0.195613
Si Si3 0.245351 0.257038 0.860709
Si Si4 0.629900 0.963234 0.666667
Si Si5 0.284621 0.142311 0.603603
Si Si6 0.131351 0.868650 0.796857
Si Si7 0.236953 0.239586 0.581469
O O1 0.501837 0.498164 0.267282
O O2 0.466671 0.533330 0.381896
O O3 0.393983 0.499158 0.269233
O O4 0.470214 0.398283 0.189732
O O5 0.495753 0.504247 0.133392
O O6 0.296615 0.333334 0.833334
O O7 0.242561 0.272108 0.940776
O O8 0.176946 0.233809 0.822135
O O9 0.695266 0.980611 0.624486
O O10 0.333334 0.166667 0.666667
O O11 0.244877 0.179846 0.605237
O O12 0.166667 0.833334 0.833334
O O13 0.247779 0.247779 0.500000
#
# Coordination Sequence:
#
# PCOD9579313 Si02
#       7
#    18  18  36  18  18  18  36
#     4  12  24  38  58  81 127 159 196 249 306 354
#     4  12  24  38  56  91 118 158 198 253 301 357
#     4  11  24  39  60  86 123 159 201 243 304 363
#     4  12  20  33  60  84 122 153 194 244 300 360
#     4  12  24  34  60  85 117 150 203 247 305 355
#     4  10  24  42  58  83 118 166 204 240 305 372
#     4  12  22  38  54  87 119 157 197 243 300 362
#
# _framework density 17.222428000000001
#
# number of rings (size 3 to 8) (size 9 to 14) (size 15 to 20)
#    0.000    0.444    5.556    4.667    3.111    0.000 
#    0.000    0.000    0.000    0.889    0.000    1.556 
#    0.000    1.778    0.000    0.000    0.000    0.000 
#
# Total GULP energy -300632.559717 kJ/mol
# GULP energy per Si atom -5567.269624 kJ/mol
# Density = 1.718323 g / cm^3
# Si number density = 17.222428 Si / 1000 Ang^3
#
#
#
# Elastic Constant Matrix: (Units=GPa)
#
#
# Indices 1 2 3 4 5 6 
#
# 1 131.5654 66.4518 51.0129 -1.1935 0.0001 0.0000
# 2 66.4518 131.5654 51.0129 1.1935 -0.0001 0.0000
# 3 51.0129 51.0129 152.6039 0.0000 0.0000 0.0000
# 4 -1.1935 1.1935 0.0000 24.0186 0.0000 -0.0001
# 5 0.0001 -0.0001 0.0000 0.0000 24.0186 -1.1935
# 6 0.0000 0.0000 0.0000 -0.0001 -1.1935 32.5568
#
#
#
# Elastic Compliance Matrix: (Units=1/GPa)
#
#
# Indices 1 2 3 4 5 6 
#
# 1 0.010743 -0.004642 -0.002039 0.000765 0.000000 0.000000
# 2 -0.004642 0.010743 -0.002039 -0.000765 0.000000 0.000000
# 3 -0.002039 -0.002039 0.007916 0.000000 0.000000 0.000000
# 4 0.000765 -0.000765 0.000000 0.041710 0.000000 0.000000
# 5 0.000000 0.000000 0.000000 0.000000 0.041710 0.001529
# 6 0.000000 0.000000 0.000000 0.000000 0.001529 0.030772
#
#
# Mechanical properties :
#
#
# Convention : Reuss Voigt Hill
#
# Bulk Modulus (GPa) = 83.60892 83.63221 83.62057
# Shear Modulus (GPa) = 30.29845 32.60260 31.45053
#
# Velocity S-wave (km/s) = 4.19888 4.35562 4.27797
# Velocity P-wave (km/s) = 8.49467 8.60004 8.54752
#
# Compressibility (1/GPa) = 0.01196045
#
# Stress axis : x y z
#
# Youngs Moduli (GPa) = 93.08109 93.08109 126.32018
#
# Poissons Ratio (x) = 0.43213 0.25762
# Poissons Ratio (y) = 0.43213 0.25762
# Poissons Ratio (z) = 0.18983 0.18983
#
# Static dielectric constant tensor:
#      x y z
#    x 1.653810 0.000000 0.000000 
#    y 0.000000 1.653810 0.000000 
#    z 0.000000 0.000000 1.598290 
# 
# From -- ./inp_files/5506.got.cif
#   From: 2010.05.17/outbox.cif.g08.bks.cpg/sg166_3_cif.got.tgz:5506.got - 2010.05.20 11:04:41.
