data_PCOD9579987
_publ_section_title
;
Structure prediction by ZEFSAII (Michael W. Deem and Ramdas Pophale) SiO2 
 PCOD9579987
Probable space group: P 61
;
_chemical_formula_sum "Si O2"
_cell_formula_units_Z 42
_cell_length_a 13.804382
_cell_length_b 13.804382
_cell_length_c 13.112602
_cell_angle_alpha 90.000000
_cell_angle_beta 90.000000
_cell_angle_gamma 120.000000
_cell_volume 2163.981027
_symmetry_space_group_name_H-M "P 61"
_symmetry_group_IT_number 169
_symmetry_cell_setting 'hexagonal'
loop_
_space_group_symop_operation_xyz
x,y,z
x-y,x,1/6+z
-y,x-y,1/3+z
-x,-y,1/2+z
-x+y,-x,2/3+z
y,-x+y,5/6+z
loop_
_atom_site_type_symbol
_atom_site_label
_atom_site_fract_x
_atom_site_fract_y
_atom_site_fract_z
Si Si1 0.008245 0.296137 0.662270
Si Si2 0.993840 0.314106 0.130563
Si Si3 0.674851 0.779897 0.785778
Si Si4 0.730720 0.264728 0.483939
Si Si5 0.107050 0.195882 0.818630
Si Si6 0.647162 0.878629 0.503529
Si Si7 0.576599 0.444565 0.986920
O O1 0.913124 0.175148 0.621140
O O2 0.940024 0.362354 0.674440
O O3 0.092998 0.351974 0.569141
O O4 0.064569 0.269401 0.756403
O O5 0.100428 0.307364 0.170929
O O6 0.047112 0.447910 0.121346
O O7 0.904653 0.271248 0.221195
O O8 0.946742 0.227024 0.037530
O O9 0.562454 0.733018 0.721037
O O10 0.743838 0.731330 0.731615
O O11 0.823669 0.292917 0.397051
O O12 0.616068 0.204416 0.421205
O O13 0.778685 0.367961 0.561193
O O14 0.129150 0.117222 0.739504
#
# Coordination Sequence:
#
# PCOD9579987 Si02
#       7
#     6   6   6   6   6   6   6
#     4  11  23  41  66  97 140 177 226 281 343 408
#     4  11  23  41  66  97 140 177 226 281 343 408
#     4  11  18  37  64  95 126 176 225 271 327 403
#     4  10  22  40  70  96 134 171 239 278 340 408
#     4  12  26  46  66 102 148 181 229 284 350 414
#     4  11  18  37  64  95 126 176 225 271 327 403
#     4  10  22  44  68 100 134 182 234 290 334 420
#
# _framework density 19.408674000000001
#
# number of rings (size 3 to 8) (size 9 to 14) (size 15 to 20)
#    0.000    1.143    8.571    0.000    0.000    1.143 
#    5.143    7.143    0.000    0.000    0.000    0.000 
#    0.000    0.000    0.000    0.000    0.000    0.000 
#
# Total GULP energy -234063.547991 kJ/mol
# GULP energy per Si atom -5572.941619 kJ/mol
# Density = 1.936450 g / cm^3
# Si number density = 19.408674 Si / 1000 Ang^3
#
#
#
# Elastic Constant Matrix: (Units=GPa)
#
#
# Indices 1 2 3 4 5 6 
#
# 1 64.5869 6.0258 18.3762 0.0000 0.0000 0.0000
# 2 6.0258 64.5869 18.3762 0.0000 0.0000 0.0000
# 3 18.3762 18.3762 103.7221 0.0000 0.0000 0.0000
# 4 0.0000 0.0000 0.0000 45.1702 0.0000 0.0000
# 5 0.0000 0.0000 0.0000 0.0000 45.1702 0.0000
# 6 0.0000 0.0000 0.0000 0.0000 0.0000 29.2806
#
#
#
# Elastic Compliance Matrix: (Units=1/GPa)
#
#
# Indices 1 2 3 4 5 6 
#
# 1 0.016338 -0.000738 -0.002764 0.000000 0.000000 0.000000
# 2 -0.000738 0.016338 -0.002764 0.000000 0.000000 0.000000
# 3 -0.002764 -0.002764 0.010620 0.000000 0.000000 0.000000
# 4 0.000000 0.000000 0.000000 0.022138 0.000000 0.000000
# 5 0.000000 0.000000 0.000000 0.000000 0.022138 0.000000
# 6 0.000000 0.000000 0.000000 0.000000 0.000000 0.034152
#
#
# Mechanical properties :
#
#
# Convention : Reuss Voigt Hill
#
# Bulk Modulus (GPa) = 32.50383 35.38358 33.94370
# Shear Modulus (GPa) = 34.59902 36.59873 35.59887
#
# Velocity S-wave (km/s) = 4.22673 4.34716 4.28737
# Velocity P-wave (km/s) = 6.37211 6.59299 6.48349
#
# Compressibility (1/GPa) = 0.03076561
#
# Stress axis : x y z
#
# Youngs Moduli (GPa) = 61.20614 61.20614 94.15770
#
# Poissons Ratio (x) = 0.04517 0.26024
# Poissons Ratio (y) = 0.04517 0.26024
# Poissons Ratio (z) = 0.16917 0.16917
#
# Static dielectric constant tensor:
#      x y z
#    x 1.701470 0.000000 0.000000 
#    y 0.000000 1.701470 0.000000 
#    z 0.000000 0.000000 1.722560 
# 
# From -- ./inp_files/960.got.cif
#   From: 2010.05.17/outbox.cif.g08.bks.cpg/sg169_cif.got.tgz:960.got - 2010.05.20 11:12:54.
