data_PCOD9579273
_publ_section_title
;
Structure prediction by ZEFSAII (Michael W. Deem and Ramdas Pophale) SiO2 
 PCOD9579273
Probable space group: R -3 M
;
_chemical_formula_sum "Si O2"
_cell_formula_units_Z 132
_cell_length_a 18.617312
_cell_length_b 18.617312
_cell_length_c 24.868436
_cell_angle_alpha 90.000000
_cell_angle_beta 90.000000
_cell_angle_gamma 120.000000
_cell_volume 7464.712033
_symmetry_space_group_name_H-M "R -3 M"
_symmetry_group_IT_number 166
_symmetry_cell_setting 'hexagonal'
loop_
_space_group_symop_operation_xyz
x,y,z
-y,x-y,z
-x+y,-x,z
x-y,-y,-z
-x,-x+y,-z
y,x,-z
-x,-y,-z
y,-x+y,-z
x-y,x,-z
-x+y,y,z
x,x-y,z
-y,-x,z
2/3+x,1/3+y,1/3+z
2/3-y,1/3+x-y,1/3+z
2/3-x+y,1/3-x,1/3+z
2/3+x-y,1/3-y,1/3-z
2/3-x,1/3-x+y,1/3-z
2/3+y,1/3+x,1/3-z
2/3-x,1/3-y,1/3-z
2/3+y,1/3-x+y,1/3-z
2/3+x-y,1/3+x,1/3-z
2/3-x+y,1/3+y,1/3+z
2/3+x,1/3+x-y,1/3+z
2/3-y,1/3-x,1/3+z
1/3+x,2/3+y,2/3+z
1/3-y,2/3+x-y,2/3+z
1/3-x+y,2/3-x,2/3+z
1/3+x-y,2/3-y,2/3-z
1/3-x,2/3-x+y,2/3-z
1/3+y,2/3+x,2/3-z
1/3-x,2/3-y,2/3-z
1/3+y,2/3-x+y,2/3-z
1/3+x-y,2/3+x,2/3-z
1/3-x+y,2/3+y,2/3+z
1/3+x,2/3+x-y,2/3+z
1/3-y,2/3-x,2/3+z
loop_
_atom_site_type_symbol
_atom_site_label
_atom_site_fract_x
_atom_site_fract_y
_atom_site_fract_z
Si Si1 0.829558 0.659115 0.497902
Si Si2 0.085655 0.666667 0.666667
Si Si3 0.134044 0.268087 0.284622
Si Si4 0.904681 0.809361 0.919595
Si Si5 0.549325 0.619278 0.403240
Si Si6 0.983793 0.650460 0.833334
Si Si7 0.333334 0.666667 0.731979
O O1 0.826604 0.653207 0.562172
O O2 0.784239 0.568477 0.470879
O O3 0.924717 0.696213 0.480555
O O4 0.155175 0.705543 0.620556
O O5 0.072800 0.738711 0.691489
O O6 0.166667 0.333334 0.333334
O O7 0.180596 0.215058 0.283224
O O8 0.953473 0.906946 0.914819
O O9 0.459570 0.540431 0.415362
O O10 0.612276 0.648376 0.454077
O O11 0.333335 0.666668 0.666667
#
# Coordination Sequence:
#
# PCOD9579273 Si02
#       7
#    18  18  18  18  36  18   6
#     4  10  22  38  62  87 114 162 207 255 310 367
#     4  12  20  32  60  86 116 156 200 252 290 366
#     4  10  22  42  60  81 117 154 203 259 318 365
#     4  12  22  38  54  89 130 166 215 238 311 369
#     4  11  22  37  59  87 114 155 198 250 307 368
#     4  10  21  38  60  87 122 154 202 254 305 372
#     4  12  24  36  54  84 141 189 198 252 306 364
#
# _framework density 17.683201
#
# number of rings (size 3 to 8) (size 9 to 14) (size 15 to 20)
#    0.000    1.091    6.818    0.409    0.000    0.000 
#   10.636    0.000    0.000    0.273    0.000    0.000 
#    0.000    0.000    0.000    0.000    0.000    0.000 
#
# Total GULP energy -245521.003673 kJ/mol
# GULP energy per Si atom -5580.022811 kJ/mol
# Density = 1.764295 g / cm^3
# Si number density = 17.683201 Si / 1000 Ang^3
#
#
#
# Elastic Constant Matrix: (Units=GPa)
#
#
# Indices 1 2 3 4 5 6 
#
# 1 130.7313 84.6291 23.7030 3.5597 0.0004 0.0000
# 2 84.6291 130.7315 23.7031 -3.5594 -0.0004 0.0000
# 3 23.7030 23.7031 73.2403 0.0000 0.0000 0.0000
# 4 3.5597 -3.5594 0.0000 21.3446 0.0000 -0.0004
# 5 0.0004 -0.0004 0.0000 0.0000 21.3448 3.5597
# 6 0.0000 0.0000 0.0000 -0.0004 3.5597 23.0511
#
#
#
# Elastic Compliance Matrix: (Units=1/GPa)
#
#
# Indices 1 2 3 4 5 6 
#
# 1 0.013632 -0.008632 -0.001618 -0.003713 0.000000 0.000000
# 2 -0.008632 0.013632 -0.001618 0.003713 0.000000 0.000000
# 3 -0.001618 -0.001618 0.014701 0.000000 0.000000 0.000000
# 4 -0.003713 0.003713 0.000000 0.048089 0.000000 0.000001
# 5 0.000000 0.000000 0.000000 0.000000 0.048088 -0.007426
# 6 0.000000 0.000000 0.000000 0.000001 -0.007426 0.044529
#
#
# Mechanical properties :
#
#
# Convention : Reuss Voigt Hill
#
# Bulk Modulus (GPa) = 54.86074 66.53040 60.69557
# Shear Modulus (GPa) = 23.53127 26.65928 25.09528
#
# Velocity S-wave (km/s) = 3.65185 3.88700 3.77126
# Velocity P-wave (km/s) = 6.99092 7.60593 7.30490
#
# Compressibility (1/GPa) = 0.01822797
#
# Stress axis : x y z
#
# Youngs Moduli (GPa) = 73.35732 73.35744 68.02269
#
# Poissons Ratio (x) = 0.63325 0.11006
# Poissons Ratio (y) = 0.63325 0.11006
# Poissons Ratio (z) = 0.11869 0.11869
#
# Static dielectric constant tensor:
#      x y z
#    x 1.604530 0.000000 0.000000 
#    y 0.000000 1.604530 0.000000 
#    z 0.000000 0.000000 1.616430 
# 
# From -- ./inp_files/7930.got.cif
#   From: 2010.05.17/outbox.cif.g08.bks.cpg/sg166_4_cif.got.tgz:7930.got - 2010.05.20 11:04:41.
