data_PCOD9579822
_publ_section_title
;
Structure prediction by ZEFSAII (Michael W. Deem and Ramdas Pophale) SiO2 
 PCOD9579822
Probable space group: P 61
;
_chemical_formula_sum "Si O2"
_cell_formula_units_Z 36
_cell_length_a 18.210261
_cell_length_b 18.210261
_cell_length_c 5.277219
_cell_angle_alpha 90.000000
_cell_angle_beta 90.000000
_cell_angle_gamma 120.000000
_cell_volume 1515.542396
_symmetry_space_group_name_H-M "P 61"
_symmetry_group_IT_number 169
_symmetry_cell_setting 'hexagonal'
loop_
_space_group_symop_operation_xyz
x,y,z
x-y,x,1/6+z
-y,x-y,1/3+z
-x,-y,1/2+z
-x+y,-x,2/3+z
y,-x+y,5/6+z
loop_
_atom_site_type_symbol
_atom_site_label
_atom_site_fract_x
_atom_site_fract_y
_atom_site_fract_z
Si Si1 0.447923 0.572428 0.377280
Si Si2 0.425392 0.245434 0.883472
Si Si3 0.864543 0.811035 0.117904
Si Si4 0.613625 0.694495 0.884560
Si Si5 0.221462 0.290461 0.127986
Si Si6 0.440851 0.513233 0.881484
O O1 0.480574 0.671990 0.351475
O O2 0.399477 0.523971 0.629188
O O3 0.530870 0.557569 0.386356
O O4 0.398386 0.521869 0.132585
O O5 0.375131 0.266073 0.663185
O O6 0.410090 0.257006 0.176913
O O7 0.380192 0.145052 0.863332
O O8 0.846026 0.884728 0.031630
O O9 0.809755 0.766191 0.372251
O O10 0.844444 0.752747 0.864045
O O11 0.693892 0.695571 0.763146
O O12 0.532225 0.600762 0.890668
#
# Coordination Sequence:
#
# PCOD9579822 Si02
#       6
#     6   6   6   6   6   6
#     4   8  14  25  42  63  87 115 140 165 201 254
#     4  10  19  31  46  66  91 120 150 184 231 284
#     4  12  26  41  54  66  84 116 166 216 264 312
#     4  10  19  31  46  66  91 120 150 184 231 284
#     4  12  22  35  52  70  92 120 152 200 256 306
#     4   8  14  25  42  63  87 115 140 165 201 254
#
# _framework density 23.753871
#
# number of rings (size 3 to 8) (size 9 to 14) (size 15 to 20)
#    0.000    2.000    0.000    6.000    0.000    1.333 
#    0.000    0.000    0.000    0.000    0.000    0.000 
#    0.000    0.000   62.333    0.000    0.667    0.000 
#
# Total GULP energy -200618.422271 kJ/mol
# GULP energy per Si atom -5572.733952 kJ/mol
# Density = 2.369981 g / cm^3
# Si number density = 23.753871 Si / 1000 Ang^3
#
#
#
# Elastic Constant Matrix: (Units=GPa)
#
#
# Indices 1 2 3 4 5 6 
#
# 1 54.9038 19.9595 12.9265 0.0000 0.0000 0.0000
# 2 19.9595 54.9038 12.9265 0.0000 0.0000 0.0000
# 3 12.9265 12.9265 186.8629 0.0000 0.0000 0.0000
# 4 0.0000 0.0000 0.0000 9.2567 0.0000 0.0000
# 5 0.0000 0.0000 0.0000 0.0000 9.2567 0.0000
# 6 0.0000 0.0000 0.0000 0.0000 0.0000 17.4722
#
#
#
# Elastic Compliance Matrix: (Units=1/GPa)
#
#
# Indices 1 2 3 4 5 6 
#
# 1 0.021151 -0.007466 -0.000947 0.000000 0.000000 0.000000
# 2 -0.007466 0.021151 -0.000947 0.000000 0.000000 0.000000
# 3 -0.000947 -0.000947 0.005482 0.000000 0.000000 0.000000
# 4 0.000000 0.000000 0.000000 0.108029 0.000000 0.000000
# 5 0.000000 0.000000 0.000000 0.000000 0.108029 0.000000
# 6 0.000000 0.000000 0.000000 0.000000 0.000000 0.057234
#
#
# Mechanical properties :
#
#
# Convention : Reuss Voigt Hill
#
# Bulk Modulus (GPa) = 34.40556 43.14395 38.77475
# Shear Modulus (GPa) = 14.30682 23.92100 19.11391
#
# Velocity S-wave (km/s) = 2.45683 3.17683 2.83974
# Velocity P-wave (km/s) = 4.75012 5.62660 5.20684
#
# Compressibility (1/GPa) = 0.02906507
#
# Stress axis : x y z
#
# Youngs Moduli (GPa) = 47.27961 47.27961 182.39887
#
# Poissons Ratio (x) = 0.35300 0.17267
# Poissons Ratio (y) = 0.35300 0.17267
# Poissons Ratio (z) = 0.04476 0.04476
#
# Static dielectric constant tensor:
#      x y z
#    x 1.952700 0.000000 0.000000 
#    y 0.000000 1.952700 0.000000 
#    z 0.000000 0.000000 2.040460 
# 
# From -- ./inp_files/246.got.cif
#   From: 2010.05.17/outbox.cif.g08.bks.cpg/sg169_cif.got.tgz:246.got - 2010.05.20 11:12:54.
