data_PCOD9579208
_publ_section_title
;
Structure prediction by ZEFSAII (Michael W. Deem and Ramdas Pophale) SiO2 
 PCOD9579208
Probable space group: R -3 M
;
_chemical_formula_sum "Si O2"
_cell_formula_units_Z 108
_cell_length_a 23.288526
_cell_length_b 23.288526
_cell_length_c 10.134345
_cell_angle_alpha 90.000000
_cell_angle_beta 90.000000
_cell_angle_gamma 120.000000
_cell_volume 4760.036903
_symmetry_space_group_name_H-M "R -3 M"
_symmetry_group_IT_number 166
_symmetry_cell_setting 'hexagonal'
loop_
_space_group_symop_operation_xyz
x,y,z
-y,x-y,z
-x+y,-x,z
x-y,-y,-z
-x,-x+y,-z
y,x,-z
-x,-y,-z
y,-x+y,-z
x-y,x,-z
-x+y,y,z
x,x-y,z
-y,-x,z
2/3+x,1/3+y,1/3+z
2/3-y,1/3+x-y,1/3+z
2/3-x+y,1/3-x,1/3+z
2/3+x-y,1/3-y,1/3-z
2/3-x,1/3-x+y,1/3-z
2/3+y,1/3+x,1/3-z
2/3-x,1/3-y,1/3-z
2/3+y,1/3-x+y,1/3-z
2/3+x-y,1/3+x,1/3-z
2/3-x+y,1/3+y,1/3+z
2/3+x,1/3+x-y,1/3+z
2/3-y,1/3-x,1/3+z
1/3+x,2/3+y,2/3+z
1/3-y,2/3+x-y,2/3+z
1/3-x+y,2/3-x,2/3+z
1/3+x-y,2/3-y,2/3-z
1/3-x,2/3-x+y,2/3-z
1/3+y,2/3+x,2/3-z
1/3-x,2/3-y,2/3-z
1/3+y,2/3-x+y,2/3-z
1/3+x-y,2/3+x,2/3-z
1/3-x+y,2/3+y,2/3+z
1/3+x,2/3+x-y,2/3+z
1/3-y,2/3-x,2/3+z
loop_
_atom_site_type_symbol
_atom_site_label
_atom_site_fract_x
_atom_site_fract_y
_atom_site_fract_z
Si Si1 0.714412 0.564509 0.450889
Si Si2 0.705422 0.921416 0.473935
Si Si3 0.534764 0.202164 0.992516
O O1 0.779980 0.559959 0.444952
O O2 0.666667 0.524821 0.333334
O O3 0.740550 0.642144 0.432821
O O4 0.681681 0.529579 0.590721
O O5 0.728617 0.864309 0.489530
O O6 0.666667 0.902374 0.333334
O O7 0.753727 0.000000 0.500000
O O8 0.608732 0.217463 0.024983
O O9 0.524344 0.262172 0.033427
O O10 0.531410 0.198076 0.833334
#
# Coordination Sequence:
#
# PCOD9579208 Si02
#       3
#    36  36  36
#     4  10  20  35  57  87 125 167 211 264 325 388
#     4  10  22  42  68  97 130 170 215 264 323 388
#     4   9  17  30  50  79 119 170 227 282 333 387
#
# _framework density 22.6889
#
# number of rings (size 3 to 8) (size 9 to 14) (size 15 to 20)
#    0.000    2.333    0.000    2.333    0.000    2.667 
#    0.000    6.667    0.000   14.667    0.000    0.000 
#    0.000    0.000    0.000    0.000    0.000    0.667 
#
# Total GULP energy -200674.820593 kJ/mol
# GULP energy per Si atom -5574.300572 kJ/mol
# Density = 2.263726 g / cm^3
# Si number density = 22.688900 Si / 1000 Ang^3
#
#
#
# Elastic Constant Matrix: (Units=GPa)
#
#
# Indices 1 2 3 4 5 6 
#
# 1 -126.5858 378.1096 33.8229 94.7611 -0.0696 0.1045
# 2 378.1096 -126.5587 33.8832 -94.7558 0.0780 -0.1211
# 3 33.8229 33.8832 75.9578 0.0125 0.0242 -0.0415
# 4 94.7611 -94.7558 0.0125 -6.3996 0.0248 -0.0335
# 5 -0.0696 0.0780 0.0242 0.0248 -6.3640 94.6931
# 6 0.1045 -0.1211 -0.0415 -0.0335 94.6931 -252.2223
#
#
#
# Elastic Compliance Matrix: (Units=1/GPa)
#
#
# Indices 1 2 3 4 5 6 
#
# 1 0.002476 0.002041 -0.002014 0.006434 -0.000002 -0.000001
# 2 0.002041 0.002476 -0.002012 -0.006434 0.000003 0.000002
# 3 -0.002014 -0.002012 0.014960 -0.000001 -0.000004 -0.000004
# 4 0.006434 -0.006434 -0.000001 0.034266 0.000000 0.000001
# 5 -0.000002 0.000003 -0.000004 0.000000 0.034262 0.012863
# 6 -0.000001 0.000002 -0.000004 0.000001 0.012863 0.000864
#
#
# Mechanical properties :
#
#
# Convention : Reuss Voigt Hill
#
# Bulk Modulus (GPa) = 62.72987 79.38274 71.05630
# Shear Modulus (GPa) = 50.71623 -94.53068 -21.90723
#
# Velocity S-wave (km/s) = 4.73301 -6.46176 -3.11070
# Velocity P-wave (km/s) = 7.58791 4.53971 4.29927
#
# Compressibility (1/GPa) = 0.01594137
#
# Stress axis : x y z
#
# Youngs Moduli (GPa) = 403.85486 403.90109 66.84558
#
# Poissons Ratio (x) = -0.82456 0.13465
# Poissons Ratio (y) = -0.82447 0.13452
# Poissons Ratio (z) = 0.81349 0.81282
#
# Static dielectric constant tensor:
#      x y z
#    x 1.896760 0.000000 0.000000 
#    y 0.000000 1.896760 0.000000 
#    z 0.000000 0.000000 1.883350 
# 
# From -- ./inp_files/2580.got.cif
#   From: 2010.05.17/outbox.cif.g08.bks.cpg/sg166_2_cif.got.tgz:2580.got - 2010.05.20 11:04:41.
