data_PCOD9579081
_publ_section_title
;
Structure prediction by ZEFSAII (Michael W. Deem and Ramdas Pophale) SiO2 
 PCOD9579081
Probable space group: R -3 M
;
_chemical_formula_sum "Si O2"
_cell_formula_units_Z 162
_cell_length_a 21.080181
_cell_length_b 21.080181
_cell_length_c 25.804091
_cell_angle_alpha 90.000000
_cell_angle_beta 90.000000
_cell_angle_gamma 120.000000
_cell_volume 9930.425727
_symmetry_space_group_name_H-M "R -3 M"
_symmetry_group_IT_number 166
_symmetry_cell_setting 'hexagonal'
loop_
_space_group_symop_operation_xyz
x,y,z
-y,x-y,z
-x+y,-x,z
x-y,-y,-z
-x,-x+y,-z
y,x,-z
-x,-y,-z
y,-x+y,-z
x-y,x,-z
-x+y,y,z
x,x-y,z
-y,-x,z
2/3+x,1/3+y,1/3+z
2/3-y,1/3+x-y,1/3+z
2/3-x+y,1/3-x,1/3+z
2/3+x-y,1/3-y,1/3-z
2/3-x,1/3-x+y,1/3-z
2/3+y,1/3+x,1/3-z
2/3-x,1/3-y,1/3-z
2/3+y,1/3-x+y,1/3-z
2/3+x-y,1/3+x,1/3-z
2/3-x+y,1/3+y,1/3+z
2/3+x,1/3+x-y,1/3+z
2/3-y,1/3-x,1/3+z
1/3+x,2/3+y,2/3+z
1/3-y,2/3+x-y,2/3+z
1/3-x+y,2/3-x,2/3+z
1/3+x-y,2/3-y,2/3-z
1/3-x,2/3-x+y,2/3-z
1/3+y,2/3+x,2/3-z
1/3-x,2/3-y,2/3-z
1/3+y,2/3-x+y,2/3-z
1/3+x-y,2/3+x,2/3-z
1/3-x+y,2/3+y,2/3+z
1/3+x,2/3+x-y,2/3+z
1/3-y,2/3-x,2/3+z
loop_
_atom_site_type_symbol
_atom_site_label
_atom_site_fract_x
_atom_site_fract_y
_atom_site_fract_z
Si Si1 0.911195 0.526819 0.788265
Si Si2 0.941458 0.735599 0.091982
Si Si3 0.372368 0.995964 0.939801
Si Si4 0.186593 0.666667 0.666667
Si Si5 0.394491 0.466168 0.842275
O O1 0.895196 0.447598 0.769854
O O2 0.856896 0.523563 0.833334
O O3 0.919471 0.586426 0.746472
O O4 0.991980 0.566288 0.814534
O O5 0.856289 0.712577 0.095716
O O6 0.959912 0.674621 0.071251
O O7 0.983483 0.765848 0.146724
O O8 0.977997 0.799612 0.049102
O O9 0.392690 0.948050 0.902111
O O10 0.389577 0.000000 0.000000
O O11 0.194463 0.597232 0.680370
O O12 0.447600 0.552401 0.834287
#
# Coordination Sequence:
#
# PCOD9579081 Si02
#       5
#    36  36  36  18  36
#     4   8  15  28  46  65  87 116 147 183 224 265
#     4  10  19  31  48  69  96 126 153 189 237 282
#     4  10  19  30  44  69  97 121 152 186 229 280
#     4  10  19  30  46  68  95 128 162 194 228 272
#     4   9  18  32  48  64  88 121 158 196 229 267
#
# _framework density 16.313500000000001
#
# number of rings (size 3 to 8) (size 9 to 14) (size 15 to 20)
#    0.000    2.667    1.111    2.778    0.000    4.000 
#    0.000    0.000    0.000    0.667    0.000    0.000 
#    0.000    1.778    0.000    0.000    0.000    0.000 
#
# Total GULP energy -300663.423227 kJ/mol
# GULP energy per Si atom -5567.841171 kJ/mol
# Density = 1.627637 g / cm^3
# Si number density = 16.313500 Si / 1000 Ang^3
#
#
#
# Elastic Constant Matrix: (Units=GPa)
#
#
# Indices 1 2 3 4 5 6 
#
# 1 20.9926 3.9087 -0.8463 -0.0540 -0.0002 0.0000
# 2 3.9087 20.9926 -0.8463 0.0540 0.0002 0.0000
# 3 -0.8463 -0.8463 100.9100 0.0000 0.0000 0.0000
# 4 -0.0540 0.0540 0.0000 14.7531 0.0000 0.0002
# 5 -0.0002 0.0002 0.0000 0.0000 14.7531 -0.0540
# 6 0.0000 0.0000 0.0000 0.0002 -0.0540 8.5420
#
#
#
# Elastic Compliance Matrix: (Units=1/GPa)
#
#
# Indices 1 2 3 4 5 6 
#
# 1 0.049359 -0.009177 0.000337 0.000214 0.000001 0.000000
# 2 -0.009177 0.049359 0.000337 -0.000214 -0.000001 0.000000
# 3 0.000337 0.000337 0.009915 0.000000 0.000000 0.000000
# 4 0.000214 -0.000214 0.000000 0.067784 0.000000 -0.000002
# 5 0.000001 -0.000001 0.000000 0.000000 0.067784 0.000429
# 6 0.000000 0.000000 0.000000 -0.000002 0.000429 0.117072
#
#
# Mechanical properties :
#
#
# Convention : Reuss Voigt Hill
#
# Bulk Modulus (GPa) = 10.91390 16.36971 13.64180
# Shear Modulus (GPa) = 12.23031 16.98827 14.60929
#
# Velocity S-wave (km/s) = 2.74104 3.23052 2.99579
# Velocity P-wave (km/s) = 4.08930 4.89604 4.51074
#
# Compressibility (1/GPa) = 0.09162626
#
# Stress axis : x y z
#
# Youngs Moduli (GPa) = 20.25989 20.25989 100.85248
#
# Poissons Ratio (x) = 0.18593 -0.03399
# Poissons Ratio (y) = 0.18593 -0.03399
# Poissons Ratio (z) = -0.00683 -0.00683
#
# Static dielectric constant tensor:
#      x y z
#    x 1.555420 0.000000 0.000000 
#    y 0.000000 1.555420 0.000000 
#    z 0.000000 0.000000 1.564510 
# 
# From -- ./inp_files/6769.got.cif
#   From: 2010.05.17/outbox.cif.g08.bks.cpg/sg166_4_cif.got.tgz:6769.got - 2010.05.20 11:04:41.
