data_PCOD9579333
_publ_section_title
;
Structure prediction by ZEFSAII (Michael W. Deem and Ramdas Pophale) SiO2 
 PCOD9579333
Probable space group: R -3 M
;
_chemical_formula_sum "Si O2"
_cell_formula_units_Z 126
_cell_length_a 20.836850
_cell_length_b 20.836850
_cell_length_c 17.201129
_cell_angle_alpha 90.000000
_cell_angle_beta 90.000000
_cell_angle_gamma 120.000000
_cell_volume 6467.727521
_symmetry_space_group_name_H-M "R -3 M"
_symmetry_group_IT_number 166
_symmetry_cell_setting 'hexagonal'
loop_
_space_group_symop_operation_xyz
x,y,z
-y,x-y,z
-x+y,-x,z
x-y,-y,-z
-x,-x+y,-z
y,x,-z
-x,-y,-z
y,-x+y,-z
x-y,x,-z
-x+y,y,z
x,x-y,z
-y,-x,z
2/3+x,1/3+y,1/3+z
2/3-y,1/3+x-y,1/3+z
2/3-x+y,1/3-x,1/3+z
2/3+x-y,1/3-y,1/3-z
2/3-x,1/3-x+y,1/3-z
2/3+y,1/3+x,1/3-z
2/3-x,1/3-y,1/3-z
2/3+y,1/3-x+y,1/3-z
2/3+x-y,1/3+x,1/3-z
2/3-x+y,1/3+y,1/3+z
2/3+x,1/3+x-y,1/3+z
2/3-y,1/3-x,1/3+z
1/3+x,2/3+y,2/3+z
1/3-y,2/3+x-y,2/3+z
1/3-x+y,2/3-x,2/3+z
1/3+x-y,2/3-y,2/3-z
1/3-x,2/3-x+y,2/3-z
1/3+y,2/3+x,2/3-z
1/3-x,2/3-y,2/3-z
1/3+y,2/3-x+y,2/3-z
1/3+x-y,2/3+x,2/3-z
1/3-x+y,2/3+y,2/3+z
1/3+x,2/3+x-y,2/3+z
1/3-y,2/3-x,2/3+z
loop_
_atom_site_type_symbol
_atom_site_label
_atom_site_fract_x
_atom_site_fract_y
_atom_site_fract_z
Si Si1 0.085449 0.469845 0.969864
Si Si2 0.735049 0.792800 0.568012
Si Si3 0.745110 0.754289 0.864573
Si Si4 0.516671 0.333334 0.333334
O O1 0.108154 0.554077 0.985139
O O2 0.091896 0.456906 0.879508
O O3 0.132821 0.443302 0.018814
O O4 0.000000 0.421416 0.000000
O O5 0.780730 0.780730 0.500000
O O6 0.724363 0.862181 0.552167
O O7 0.656382 0.717523 0.570764
O O8 0.666667 0.742872 0.833334
O O9 0.793168 0.816311 0.927268
O O10 0.524337 0.262169 0.354329
#
# Coordination Sequence:
#
# PCOD9579333 Si02
#       4
#    36  36  36  18
#     4  11  20  35  58  85 118 157 205 256 311 372
#     4  11  21  35  57  87 122 158 197 248 316 381
#     4  11  22  39  64  94 121 157 206 270 327 371
#     4  12  27  46  66  92 133 182 224 262 318 394
#
# _framework density 19.481339999999999
#
# number of rings (size 3 to 8) (size 9 to 14) (size 15 to 20)
#    0.000    0.857    5.714    5.286    0.000    1.714 
#    0.000    0.000    0.000    5.143    0.000    0.000 
#    0.000    0.000    0.000    0.000    0.000    0.000 
#
# Total GULP energy -234711.158552 kJ/mol
# GULP energy per Si atom -5588.360918 kJ/mol
# Density = 1.943700 g / cm^3
# Si number density = 19.481340 Si / 1000 Ang^3
#
#
#
# Elastic Constant Matrix: (Units=GPa)
#
#
# Indices 1 2 3 4 5 6 
#
# 1 60.7668 39.8288 19.9116 -6.0168 -0.0001 0.0000
# 2 39.8288 60.7668 19.9116 6.0168 0.0001 0.0000
# 3 19.9116 19.9116 86.6660 0.0000 0.0000 0.0000
# 4 -6.0168 6.0168 0.0000 23.0407 0.0000 0.0001
# 5 -0.0001 0.0001 0.0000 0.0000 23.0407 -6.0168
# 6 0.0000 0.0000 0.0000 0.0001 -6.0168 10.4690
#
#
#
# Elastic Compliance Matrix: (Units=1/GPa)
#
#
# Indices 1 2 3 4 5 6 
#
# 1 0.033565 -0.022629 -0.002512 0.014674 0.000000 0.000000
# 2 -0.022629 0.033565 -0.002512 -0.014674 0.000000 0.000000
# 3 -0.002512 -0.002512 0.012693 0.000000 0.000000 0.000000
# 4 0.014674 -0.014674 0.000000 0.051066 0.000000 -0.000001
# 5 0.000000 0.000000 0.000000 0.000000 0.051066 0.029349
# 6 0.000000 0.000000 0.000000 -0.000001 0.029349 0.112388
#
#
# Mechanical properties :
#
#
# Convention : Reuss Voigt Hill
#
# Bulk Modulus (GPa) = 40.79279 40.83373 40.81326
# Shear Modulus (GPa) = 13.97345 19.87990 16.92668
#
# Velocity S-wave (km/s) = 2.68110 3.19793 2.95085
# Velocity P-wave (km/s) = 5.52895 5.88571 5.71012
#
# Compressibility (1/GPa) = 0.02451413
#
# Stress axis : x y z
#
# Youngs Moduli (GPa) = 29.79320 29.79320 78.78351
#
# Poissons Ratio (x) = 0.67420 0.19794
# Poissons Ratio (y) = 0.67420 0.19794
# Poissons Ratio (z) = 0.07485 0.07485
#
# Static dielectric constant tensor:
#      x y z
#    x 1.676710 0.000000 0.000000 
#    y 0.000000 1.676710 0.000000 
#    z 0.000000 0.000000 1.761480 
# 
# From -- ./inp_files/4921.got.cif
#   From: 2010.05.17/outbox.cif.g08.bks.cpg/sg166_3_cif.got.tgz:4921.got - 2010.05.20 11:04:41.
