data_PCOD9579856
_publ_section_title
;
Structure prediction by ZEFSAII (Michael W. Deem and Ramdas Pophale) SiO2 
 PCOD9579856
Probable space group: P 61
;
_chemical_formula_sum "Si O2"
_cell_formula_units_Z 48
_cell_length_a 13.889427
_cell_length_b 13.889427
_cell_length_c 15.015617
_cell_angle_alpha 90.000000
_cell_angle_beta 90.000000
_cell_angle_gamma 120.000000
_cell_volume 2508.663858
_symmetry_space_group_name_H-M "P 61"
_symmetry_group_IT_number 169
_symmetry_cell_setting 'hexagonal'
loop_
_space_group_symop_operation_xyz
x,y,z
x-y,x,1/6+z
-y,x-y,1/3+z
-x,-y,1/2+z
-x+y,-x,2/3+z
y,-x+y,5/6+z
loop_
_atom_site_type_symbol
_atom_site_label
_atom_site_fract_x
_atom_site_fract_y
_atom_site_fract_z
Si Si1 0.689377 0.931171 0.984540
Si Si2 0.987884 0.605123 0.863949
Si Si3 0.656560 0.866317 0.674014
Si Si4 0.407104 0.255768 0.609312
Si Si5 0.875708 0.912572 0.885331
Si Si6 0.174718 0.677140 0.177660
Si Si7 0.598483 0.433755 0.332324
Si Si8 0.960523 0.470776 0.183061
O O1 0.774410 0.930931 0.912543
O O2 0.570505 0.864223 0.936308
O O3 0.711747 0.051905 0.011995
O O4 0.686567 0.857557 0.065401
O O5 0.895756 0.637774 0.832042
O O6 0.079944 0.702047 0.926938
O O7 0.046385 0.590599 0.776062
O O8 0.919688 0.492443 0.925622
O O9 0.585665 0.857876 0.761178
O O10 0.784714 0.954308 0.693987
O O11 0.499650 0.226679 0.637472
O O12 0.452488 0.357969 0.539690
O O13 0.940126 0.987725 0.803325
O O14 0.306661 0.737355 0.179607
O O15 0.093353 0.545959 0.167530
O O16 0.587144 0.487894 0.424505
#
# Coordination Sequence:
#
# PCOD9579856 Si02
#       8
#     6   6   6   6   6   6   6   6
#     4  11  19  36  65  94 121 158 215 280 321 369
#     4  11  24  40  65 100 134 169 223 272 331 398
#     4  11  20  38  65  98 129 164 216 282 324 377
#     4  11  23  39  62  94 131 163 217 275 322 389
#     4  12  20  35  65  97 123 164 221 278 327 378
#     4  10  19  37  67  92 118 160 222 279 314 378
#     4  11  22  41  65  96 131 175 217 270 340 398
#     4  11  23  42  64  93 133 173 219 268 337 389
#
# _framework density 19.133692
#
# number of rings (size 3 to 8) (size 9 to 14) (size 15 to 20)
#    0.000    1.000    6.250    3.000    0.000    1.000 
#    2.250    3.750    0.000    0.000    0.000    0.000 
#    0.000    0.000    0.000    0.000    0.000    0.000 
#
# Total GULP energy -267564.810083 kJ/mol
# GULP energy per Si atom -5574.266877 kJ/mol
# Density = 1.909014 g / cm^3
# Si number density = 19.133692 Si / 1000 Ang^3
#
#
#
# Elastic Constant Matrix: (Units=GPa)
#
#
# Indices 1 2 3 4 5 6 
#
# 1 89.3128 39.3568 38.3719 0.0000 0.0000 0.0000
# 2 39.3568 89.3128 38.3719 0.0000 0.0000 0.0000
# 3 38.3719 38.3719 82.6206 0.0000 0.0000 0.0000
# 4 0.0000 0.0000 0.0000 32.9634 0.0000 0.0000
# 5 0.0000 0.0000 0.0000 0.0000 32.9634 0.0000
# 6 0.0000 0.0000 0.0000 0.0000 0.0000 24.9780
#
#
#
# Elastic Compliance Matrix: (Units=1/GPa)
#
#
# Indices 1 2 3 4 5 6 
#
# 1 0.015384 -0.004634 -0.004992 0.000000 0.000000 0.000000
# 2 -0.004634 0.015384 -0.004992 0.000000 0.000000 0.000000
# 3 -0.004992 -0.004992 0.016741 0.000000 0.000000 0.000000
# 4 0.000000 0.000000 0.000000 0.030337 0.000000 0.000000
# 5 0.000000 0.000000 0.000000 0.000000 0.030337 0.000000
# 6 0.000000 0.000000 0.000000 0.000000 0.000000 0.040035
#
#
# Mechanical properties :
#
#
# Convention : Reuss Voigt Hill
#
# Bulk Modulus (GPa) = 54.73420 54.82747 54.78083
# Shear Modulus (GPa) = 27.24134 27.85734 27.54934
#
# Velocity S-wave (km/s) = 3.77734 3.81981 3.79863
# Velocity P-wave (km/s) = 6.90599 6.94058 6.92331
#
# Compressibility (1/GPa) = 0.01827011
#
# Stress axis : x y z
#
# Youngs Moduli (GPa) = 65.00433 65.00433 59.73413
#
# Poissons Ratio (x) = 0.30123 0.29822
# Poissons Ratio (y) = 0.30123 0.29822
# Poissons Ratio (z) = 0.32453 0.32453
#
# Static dielectric constant tensor:
#      x y z
#    x 1.688160 0.000000 0.000000 
#    y 0.000000 1.688160 0.000000 
#    z 0.000000 0.000000 1.685880 
# 
# From -- ./inp_files/1262.got.cif
#   From: 2010.05.17/outbox.cif.g08.bks.cpg/sg169_cif.got.tgz:1262.got - 2010.05.20 11:12:54.
