data_PCOD9579660
_publ_section_title
;
Structure prediction by ZEFSAII (Michael W. Deem and Ramdas Pophale) SiO2 
 PCOD9579660
Probable space group: R -3 C 
;
_chemical_formula_sum "Si O2"
_cell_formula_units_Z 162
_cell_length_a 22.473466
_cell_length_b 22.473466
_cell_length_c 21.402056
_cell_angle_alpha 90.000000
_cell_angle_beta 90.000000
_cell_angle_gamma 120.000000
_cell_volume 9361.086153
_symmetry_space_group_name_H-M "R -3 C "
_symmetry_group_IT_number 167
_symmetry_cell_setting 'hexagonal'
loop_
_space_group_symop_operation_xyz
x,y,z
-y,x-y,z
-x+y,-x,z
x-y,-y,1/2-z
-x,-x+y,1/2-z
y,x,1/2-z
-x,-y,-z
y,-x+y,-z
x-y,x,-z
-x+y,y,1/2+z
x,x-y,1/2+z
-y,-x,1/2+z
2/3+x,1/3+y,1/3+z
2/3-y,1/3+x-y,1/3+z
2/3-x+y,1/3-x,1/3+z
2/3+x-y,1/3-y,5/6-z
2/3-x,1/3-x+y,5/6-z
2/3+y,1/3+x,5/6-z
2/3-x,1/3-y,1/3-z
2/3+y,1/3-x+y,1/3-z
2/3+x-y,1/3+x,1/3-z
2/3-x+y,1/3+y,5/6+z
2/3+x,1/3+x-y,5/6+z
2/3-y,1/3-x,5/6+z
1/3+x,2/3+y,2/3+z
1/3-y,2/3+x-y,2/3+z
1/3-x+y,2/3-x,2/3+z
1/3+x-y,2/3-y,1/6-z
1/3-x,2/3-x+y,1/6-z
1/3+y,2/3+x,1/6-z
1/3-x,2/3-y,2/3-z
1/3+y,2/3-x+y,2/3-z
1/3+x-y,2/3+x,2/3-z
1/3-x+y,2/3+y,1/6+z
1/3+x,2/3+x-y,1/6+z
1/3-y,2/3-x,1/6+z
loop_
_atom_site_type_symbol
_atom_site_label
_atom_site_fract_x
_atom_site_fract_y
_atom_site_fract_z
Si Si1 0.863600 0.326377 0.407556
Si Si2 0.506237 0.463914 0.184455
Si Si3 0.681033 0.080444 0.463074
Si Si4 0.431262 0.187285 0.285929
Si Si5 0.323756 0.000000 0.750000
O O1 0.841853 0.279799 0.470415
O O2 0.813314 0.280020 0.351762
O O3 0.874331 0.402474 0.405618
O O4 0.938430 0.335413 0.392996
O O5 0.483219 0.483219 0.250000
O O6 0.585301 0.519331 0.177823
O O7 0.465596 0.481376 0.133135
O O8 0.707009 0.040342 0.416667
O O9 0.636398 0.106075 0.426733
O O10 0.643157 0.034412 0.523058
#
# Coordination Sequence:
#
# PCOD9579660 Si02
#       5
#    36  36  36  36  18
#     4  11  19  33  54  83 109 145 185 226 277 341
#     4   9  17  32  53  74 107 145 183 223 279 326
#     4  11  20  35  54  78 113 151 181 229 281 326
#     4  11  19  33  56  78 110 149 182 230 282 325
#     4  12  20  32  54  82 110 144 188 218 276 354
#
# _framework density 17.305683999999999
#
# number of rings (size 3 to 8) (size 9 to 14) (size 15 to 20)
#    0.000    1.333    7.778    2.667    0.000    0.889 
#    0.000    0.000    0.000    8.000    0.000    0.000 
#    0.000    0.000    0.000    0.000    0.000    0.000 
#
# Total GULP energy -300824.829790 kJ/mol
# GULP energy per Si atom -5570.830181 kJ/mol
# Density = 1.726630 g / cm^3
# Si number density = 17.305684 Si / 1000 Ang^3
#
#
#
# Elastic Constant Matrix: (Units=GPa)
#
#
# Indices 1 2 3 4 5 6 
#
# 1 73.3377 15.4708 0.0245 8.1407 0.0000 0.0000
# 2 15.4708 73.3377 0.0245 -8.1407 0.0000 0.0000
# 3 0.0245 0.0245 23.9065 0.0000 0.0000 0.0000
# 4 8.1407 -8.1407 0.0000 10.9110 0.0000 0.0000
# 5 0.0000 0.0000 0.0000 0.0000 10.9110 8.1407
# 6 0.0000 0.0000 0.0000 0.0000 8.1407 28.9335
#
#
#
# Elastic Compliance Matrix: (Units=1/GPa)
#
#
# Indices 1 2 3 4 5 6 
#
# 1 0.016566 -0.005306 -0.000012 -0.016319 0.000000 0.000000
# 2 -0.005306 0.016566 -0.000012 0.016319 0.000000 0.000000
# 3 -0.000012 -0.000012 0.041830 0.000000 0.000000 0.000000
# 4 -0.016319 0.016319 0.000000 0.116003 0.000000 0.000000
# 5 0.000000 0.000000 0.000000 0.000000 0.116003 -0.032639
# 6 0.000000 0.000000 0.000000 0.000000 -0.032639 0.043745
#
#
# Mechanical properties :
#
#
# Convention : Reuss Voigt Hill
#
# Bulk Modulus (GPa) = 15.55119 22.40240 18.97679
# Shear Modulus (GPa) = 13.06145 20.48857 16.77501
#
# Velocity S-wave (km/s) = 2.75025 3.44455 3.11679
# Velocity P-wave (km/s) = 4.36931 5.36592 4.89305
#
# Compressibility (1/GPa) = 0.06430378
#
# Stress axis : x y z
#
# Youngs Moduli (GPa) = 60.36310 60.36310 23.90651
#
# Poissons Ratio (x) = 0.32030 0.00028
# Poissons Ratio (y) = 0.32030 0.00028
# Poissons Ratio (z) = 0.00070 0.00070
#
# Static dielectric constant tensor:
#      x y z
#    x 1.613840 0.000000 0.000000 
#    y 0.000000 1.613840 0.000000 
#    z 0.000000 0.000000 1.599760 
# 
# From -- ./inp_files/5288.got.cif
#   From: 2010.05.17/outbox.cif.g08.bks.cpg/sg167_3_cif.got.tgz:5288.got - 2010.05.20 11:09:15.
