data_PCOD9579044
_publ_section_title
;
Structure prediction by ZEFSAII (Michael W. Deem and Ramdas Pophale) SiO2 
 PCOD9579044
Probable space group: R -3 M
;
_chemical_formula_sum "Si O2"
_cell_formula_units_Z 108
_cell_length_a 25.511111
_cell_length_b 25.511111
_cell_length_c 10.151249
_cell_angle_alpha 90.000000
_cell_angle_beta 90.000000
_cell_angle_gamma 120.000000
_cell_volume 5721.486232
_symmetry_space_group_name_H-M "R -3 M"
_symmetry_group_IT_number 166
_symmetry_cell_setting 'hexagonal'
loop_
_space_group_symop_operation_xyz
x,y,z
-y,x-y,z
-x+y,-x,z
x-y,-y,-z
-x,-x+y,-z
y,x,-z
-x,-y,-z
y,-x+y,-z
x-y,x,-z
-x+y,y,z
x,x-y,z
-y,-x,z
2/3+x,1/3+y,1/3+z
2/3-y,1/3+x-y,1/3+z
2/3-x+y,1/3-x,1/3+z
2/3+x-y,1/3-y,1/3-z
2/3-x,1/3-x+y,1/3-z
2/3+y,1/3+x,1/3-z
2/3-x,1/3-y,1/3-z
2/3+y,1/3-x+y,1/3-z
2/3+x-y,1/3+x,1/3-z
2/3-x+y,1/3+y,1/3+z
2/3+x,1/3+x-y,1/3+z
2/3-y,1/3-x,1/3+z
1/3+x,2/3+y,2/3+z
1/3-y,2/3+x-y,2/3+z
1/3-x+y,2/3-x,2/3+z
1/3+x-y,2/3-y,2/3-z
1/3-x,2/3-x+y,2/3-z
1/3+y,2/3+x,2/3-z
1/3-x,2/3-y,2/3-z
1/3+y,2/3-x+y,2/3-z
1/3+x-y,2/3+x,2/3-z
1/3-x+y,2/3+y,2/3+z
1/3+x,2/3+x-y,2/3+z
1/3-y,2/3-x,2/3+z
loop_
_atom_site_type_symbol
_atom_site_label
_atom_site_fract_x
_atom_site_fract_y
_atom_site_fract_z
Si Si1 0.712820 0.778686 0.003950
Si Si2 0.936683 0.177524 0.283144
Si Si3 0.263963 0.191033 0.700134
O O1 0.750440 0.815122 0.876026
O O2 0.643756 0.761308 0.996058
O O3 0.718279 0.718279 0.000000
O O4 0.738552 0.811203 0.141118
O O5 0.892330 0.107671 0.317945
O O6 0.005100 0.212935 0.336210
O O7 0.255202 0.127601 0.647831
O O8 0.333334 0.242004 0.666667
#
# Coordination Sequence:
#
# PCOD9579044 Si02
#       3
#    36  36  36
#     4   9  17  30  47  68  92 118 148 181 221 270
#     4  10  18  29  47  67  89 119 153 186 220 268
#     4  10  20  32  46  66  93 121 150 189 234 275
#
# _framework density 18.876214000000001
#
# number of rings (size 3 to 8) (size 9 to 14) (size 15 to 20)
#    0.000    2.333    0.000    5.000    0.000    4.000 
#    0.000    0.000    0.000    0.667    0.000    0.000 
#    0.000    8.000    0.000   10.667    0.000    0.000 
#
# Total GULP energy -200746.170485 kJ/mol
# GULP energy per Si atom -5576.282513 kJ/mol
# Density = 1.883325 g / cm^3
# Si number density = 18.876214 Si / 1000 Ang^3
#
#
#
# Elastic Constant Matrix: (Units=GPa)
#
#
# Indices 1 2 3 4 5 6 
#
# 1 127.1407 75.2098 2.7061 4.5199 0.0027 0.0003
# 2 75.2098 127.1385 2.7031 -4.5189 0.0003 0.0000
# 3 2.7061 2.7031 48.3828 0.0026 0.0092 0.0009
# 4 4.5199 -4.5189 0.0026 6.9588 0.0023 0.0005
# 5 0.0027 0.0003 0.0092 0.0023 6.9633 4.5195
# 6 0.0003 0.0000 0.0009 0.0005 4.5195 25.9646
#
#
#
# Elastic Compliance Matrix: (Units=1/GPa)
#
#
# Indices 1 2 3 4 5 6 
#
# 1 0.013330 -0.008381 -0.000277 -0.014100 0.000000 0.000000
# 2 -0.008381 0.013330 -0.000277 0.014100 -0.000002 0.000000
# 3 -0.000277 -0.000277 0.020699 -0.000008 -0.000030 0.000004
# 4 -0.014100 0.014100 -0.000008 0.162017 -0.000053 0.000006
# 5 0.000000 -0.000002 -0.000030 -0.000053 0.161902 -0.028181
# 6 0.000000 0.000000 0.000004 0.000006 -0.028181 0.043419
#
#
# Mechanical properties :
#
#
# Convention : Reuss Voigt Hill
#
# Bulk Modulus (GPa) = 33.90810 51.54442 42.72626
# Shear Modulus (GPa) = 11.30206 22.78020 17.04113
#
# Velocity S-wave (km/s) = 2.44958 3.47770 3.00789
# Velocity P-wave (km/s) = 5.09931 6.59482 5.89469
#
# Compressibility (1/GPa) = 0.02949148
#
# Stress axis : x y z
#
# Youngs Moduli (GPa) = 75.01801 75.01744 48.31044
#
# Poissons Ratio (x) = 0.62871 0.01336
# Poissons Ratio (y) = 0.62871 0.01337
# Poissons Ratio (z) = 0.02075 0.02076
#
# Static dielectric constant tensor:
#      x y z
#    x 1.681250 0.000000 0.000000 
#    y 0.000000 1.681250 0.000000 
#    z 0.000000 0.000000 1.728160 
# 
# From -- ./inp_files/2551.got.cif
#   From: 2010.05.17/outbox.cif.g08.bks.cpg/sg166_2_cif.got.tgz:2551.got - 2010.05.20 11:04:41.
