data_PCOD9579869
_publ_section_title
;
Structure prediction by ZEFSAII (Michael W. Deem and Ramdas Pophale) SiO2 
 PCOD9579869
Probable space group: P 61
;
_chemical_formula_sum "Si O2"
_cell_formula_units_Z 48
_cell_length_a 15.311151
_cell_length_b 15.311151
_cell_length_c 10.599083
_cell_angle_alpha 90.000000
_cell_angle_beta 90.000000
_cell_angle_gamma 120.000000
_cell_volume 2151.862929
_symmetry_space_group_name_H-M "P 61"
_symmetry_group_IT_number 169
_symmetry_cell_setting 'hexagonal'
loop_
_space_group_symop_operation_xyz
x,y,z
x-y,x,1/6+z
-y,x-y,1/3+z
-x,-y,1/2+z
-x+y,-x,2/3+z
y,-x+y,5/6+z
loop_
_atom_site_type_symbol
_atom_site_label
_atom_site_fract_x
_atom_site_fract_y
_atom_site_fract_z
Si Si1 0.754281 0.416710 0.576940
Si Si2 0.443989 0.430276 0.966868
Si Si3 0.581436 0.522818 0.204780
Si Si4 0.182077 0.112638 0.940004
Si Si5 0.840681 0.237331 0.204631
Si Si6 0.727965 0.121092 0.951695
Si Si7 0.818256 0.906099 0.050302
Si Si8 0.282419 0.725746 0.281186
O O1 0.873114 0.495805 0.578245
O O2 0.721381 0.500066 0.618670
O O3 0.674110 0.364873 0.465998
O O4 0.746640 0.315662 0.639212
O O5 0.454230 0.500270 0.848475
O O6 0.325367 0.373791 0.998164
O O7 0.495218 0.472659 0.100522
O O8 0.627725 0.641703 0.174136
O O9 0.656762 0.481055 0.183217
O O10 0.300570 0.152804 0.939933
O O11 0.154528 0.168149 0.827660
O O12 0.129642 0.996516 0.896539
O O13 0.780862 0.192938 0.072426
O O14 0.815669 0.110982 0.882865
O O15 0.684529 0.169190 0.850806
O O16 0.885950 0.858569 0.093041
#
# Coordination Sequence:
#
# PCOD9579869 Si02
#       8
#     6   6   6   6   6   6   6   6
#     4  11  25  41  62  98 135 177 230 286 360 430
#     4  11  25  42  65  97 134 179 233 300 361 433
#     4  11  25  42  65  97 134 179 233 300 361 433
#     4  10  20  34  60 100 132 170 224 295 350 417
#     4  12  21  37  68  97 131 172 240 289 354 427
#     4  12  21  37  68  97 131 172 240 289 354 427
#     4  10  20  34  60 100 132 170 224 295 350 417
#     4  11  25  41  62  98 135 177 230 286 360 430
#
# _framework density 22.306252000000001
#
# number of rings (size 3 to 8) (size 9 to 14) (size 15 to 20)
#    0.000    1.000    5.000    3.000    3.500    0.000 
#    0.000    0.000    0.000    7.500   32.500    0.000 
#    0.000    0.000    0.000    0.000    0.000    0.000 
#
# Total GULP energy -267342.824301 kJ/mol
# GULP energy per Si atom -5569.642173 kJ/mol
# Density = 2.225548 g / cm^3
# Si number density = 22.306252 Si / 1000 Ang^3
#
#
#
# Elastic Constant Matrix: (Units=GPa)
#
#
# Indices 1 2 3 4 5 6 
#
# 1 93.5848 26.3176 12.6667 0.0000 0.0000 0.0000
# 2 26.3176 93.5848 12.6667 0.0000 0.0000 0.0000
# 3 12.6667 12.6667 44.0793 0.0000 0.0000 0.0000
# 4 0.0000 0.0000 0.0000 24.7842 0.0000 0.0000
# 5 0.0000 0.0000 0.0000 0.0000 24.7842 0.0000
# 6 0.0000 0.0000 0.0000 0.0000 0.0000 33.6336
#
#
#
# Elastic Compliance Matrix: (Units=1/GPa)
#
#
# Indices 1 2 3 4 5 6 
#
# 1 0.011873 -0.002993 -0.002552 0.000000 0.000000 0.000000
# 2 -0.002993 0.011873 -0.002552 0.000000 0.000000 0.000000
# 3 -0.002552 -0.002552 0.024153 0.000000 0.000000 0.000000
# 4 0.000000 0.000000 0.000000 0.040348 0.000000 0.000000
# 5 0.000000 0.000000 0.000000 0.000000 0.040348 0.000000
# 6 0.000000 0.000000 0.000000 0.000000 0.000000 0.029732
#
#
# Mechanical properties :
#
#
# Convention : Reuss Voigt Hill
#
# Bulk Modulus (GPa) = 31.54069 37.17232 34.35650
# Shear Modulus (GPa) = 27.01416 28.61361 27.81389
#
# Velocity S-wave (km/s) = 3.48380 3.58545 3.53499
# Velocity P-wave (km/s) = 5.50936 5.81733 5.66544
#
# Compressibility (1/GPa) = 0.03170508
#
# Stress axis : x y z
#
# Youngs Moduli (GPa) = 84.22722 84.22722 41.40306
#
# Poissons Ratio (x) = 0.25213 0.10564
# Poissons Ratio (y) = 0.25213 0.10564
# Poissons Ratio (z) = 0.21491 0.21491
#
# Static dielectric constant tensor:
#      x y z
#    x 1.895870 0.000000 0.000000 
#    y 0.000000 1.895870 0.000000 
#    z 0.000000 0.000000 1.879920 
# 
# From -- ./inp_files/1041.got.cif
#   From: 2010.05.17/outbox.cif.g08.bks.cpg/sg169_cif.got.tgz:1041.got - 2010.05.20 11:12:54.
