data_PCOD9579449
_publ_section_title
;
Structure prediction by ZEFSAII (Michael W. Deem and Ramdas Pophale) SiO2 
 PCOD9579449
Probable space group: R -3 C 
;
_chemical_formula_sum "Si O2"
_cell_formula_units_Z 216
_cell_length_a 23.125210
_cell_length_b 23.125210
_cell_length_c 23.275202
_cell_angle_alpha 90.000000
_cell_angle_beta 90.000000
_cell_angle_gamma 120.000000
_cell_volume 10779.421670
_symmetry_space_group_name_H-M "R -3 C "
_symmetry_group_IT_number 167
_symmetry_cell_setting 'hexagonal'
loop_
_space_group_symop_operation_xyz
x,y,z
-y,x-y,z
-x+y,-x,z
x-y,-y,1/2-z
-x,-x+y,1/2-z
y,x,1/2-z
-x,-y,-z
y,-x+y,-z
x-y,x,-z
-x+y,y,1/2+z
x,x-y,1/2+z
-y,-x,1/2+z
2/3+x,1/3+y,1/3+z
2/3-y,1/3+x-y,1/3+z
2/3-x+y,1/3-x,1/3+z
2/3+x-y,1/3-y,5/6-z
2/3-x,1/3-x+y,5/6-z
2/3+y,1/3+x,5/6-z
2/3-x,1/3-y,1/3-z
2/3+y,1/3-x+y,1/3-z
2/3+x-y,1/3+x,1/3-z
2/3-x+y,1/3+y,5/6+z
2/3+x,1/3+x-y,5/6+z
2/3-y,1/3-x,5/6+z
1/3+x,2/3+y,2/3+z
1/3-y,2/3+x-y,2/3+z
1/3-x+y,2/3-x,2/3+z
1/3+x-y,2/3-y,1/6-z
1/3-x,2/3-x+y,1/6-z
1/3+y,2/3+x,1/6-z
1/3-x,2/3-y,2/3-z
1/3+y,2/3-x+y,2/3-z
1/3+x-y,2/3+x,2/3-z
1/3-x+y,2/3+y,1/6+z
1/3+x,2/3+x-y,1/6+z
1/3-y,2/3-x,1/6+z
loop_
_atom_site_type_symbol
_atom_site_label
_atom_site_fract_x
_atom_site_fract_y
_atom_site_fract_z
Si Si1 0.070278 0.797557 0.867589
Si Si2 0.461702 0.594092 0.211303
Si Si3 0.127242 0.197381 0.425378
Si Si4 0.659711 0.891809 0.993287
Si Si5 0.396599 0.251538 0.957115
Si Si6 0.364983 0.293904 0.721593
O O1 0.095664 0.875945 0.874979
O O2 0.085020 0.774178 0.929376
O O3 0.098176 0.771470 0.817604
O O4 0.991611 0.757767 0.853421
O O5 0.434169 0.585853 0.147271
O O6 0.474538 0.660003 0.244018
O O7 0.527632 0.586192 0.201635
O O8 0.411596 0.530976 0.247856
O O9 0.202160 0.261521 0.433361
O O10 0.622859 0.811560 0.001351
O O11 0.612481 0.920631 0.014595
O O12 0.333334 0.232470 0.916667
O O13 0.316697 0.316697 0.750000
#
# Coordination Sequence:
#
# PCOD9579449 Si02
#       6
#    36  36  36  36  36  36
#     4  11  25  35  59  89 126 166 215 261 319 393
#     4  10  19  35  60  85 120 160 206 257 312 377
#     4  11  22  38  56  88 125 160 211 260 318 385
#     4  10  19  36  58  86 117 166 216 257 315 388
#     4  10  19  35  60  88 119 164 213 258 315 382
#     4  12  22  37  57  88 127 171 204 266 324 383
#
# _framework density 20.038181000000002
#
# number of rings (size 3 to 8) (size 9 to 14) (size 15 to 20)
#    0.000    1.333    3.333    4.500    7.000    0.000 
#    0.000    0.000    0.000    6.000    0.000    0.000 
#    0.000    0.000    0.000    0.833    0.000    0.000 
#
# Total GULP energy -401529.914816 kJ/mol
# GULP energy per Si atom -5576.804372 kJ/mol
# Density = 1.999257 g / cm^3
# Si number density = 20.038181 Si / 1000 Ang^3
#
#
#
# Elastic Constant Matrix: (Units=GPa)
#
#
# Indices 1 2 3 4 5 6 
#
# 1 72.1551 13.5282 3.8181 -1.3664 0.0001 0.0000
# 2 13.5282 72.1551 3.8181 1.3664 -0.0001 0.0000
# 3 3.8181 3.8181 37.2365 0.0000 0.0000 0.0000
# 4 -1.3664 1.3664 0.0000 19.0879 0.0000 -0.0001
# 5 0.0001 -0.0001 0.0000 0.0000 19.0879 -1.3664
# 6 0.0000 0.0000 0.0000 -0.0001 -1.3664 29.3134
#
#
#
# Elastic Compliance Matrix: (Units=1/GPa)
#
#
# Indices 1 2 3 4 5 6 
#
# 1 0.014446 -0.002668 -0.001208 0.001225 0.000000 0.000000
# 2 -0.002668 0.014446 -0.001208 -0.001225 0.000000 0.000000
# 3 -0.001208 -0.001208 0.027103 0.000000 0.000000 0.000000
# 4 0.001225 -0.001225 0.000000 0.052565 0.000000 0.000000
# 5 0.000000 0.000000 0.000000 0.000000 0.052565 0.002450
# 6 0.000000 0.000000 0.000000 0.000000 0.002450 0.034228
#
#
# Mechanical properties :
#
#
# Convention : Reuss Voigt Hill
#
# Bulk Modulus (GPa) = 21.82017 24.87506 23.34761
# Shear Modulus (GPa) = 22.64531 24.18998 23.41765
#
# Velocity S-wave (km/s) = 3.36536 3.47824 3.42226
# Velocity P-wave (km/s) = 5.10037 5.34525 5.22424
#
# Compressibility (1/GPa) = 0.04582917
#
# Stress axis : x y z
#
# Youngs Moduli (GPa) = 69.22175 69.22175 36.89621
#
# Poissons Ratio (x) = 0.18467 0.04456
# Poissons Ratio (y) = 0.18467 0.04456
# Poissons Ratio (z) = 0.08360 0.08360
#
# Static dielectric constant tensor:
#      x y z
#    x 1.746660 0.000000 0.000000 
#    y 0.000000 1.746660 0.000000 
#    z 0.000000 0.000000 1.734750 
# 
# From -- ./inp_files/6399.got.cif
#   From: 2010.05.17/outbox.cif.g08.bks.cpg/sg167_4_cif.got.tgz:6399.got - 2010.05.20 11:09:15.
