data_PCOD9579628
_publ_section_title
;
Structure prediction by ZEFSAII (Michael W. Deem and Ramdas Pophale) SiO2 
 PCOD9579628
Probable space group: R -3 C 
;
_chemical_formula_sum "Si O2"
_cell_formula_units_Z 120
_cell_length_a 20.840963
_cell_length_b 20.840963
_cell_length_c 14.268082
_cell_angle_alpha 90.000000
_cell_angle_beta 90.000000
_cell_angle_gamma 120.000000
_cell_volume 5367.002449
_symmetry_space_group_name_H-M "R -3 C "
_symmetry_group_IT_number 167
_symmetry_cell_setting 'hexagonal'
loop_
_space_group_symop_operation_xyz
x,y,z
-y,x-y,z
-x+y,-x,z
x-y,-y,1/2-z
-x,-x+y,1/2-z
y,x,1/2-z
-x,-y,-z
y,-x+y,-z
x-y,x,-z
-x+y,y,1/2+z
x,x-y,1/2+z
-y,-x,1/2+z
2/3+x,1/3+y,1/3+z
2/3-y,1/3+x-y,1/3+z
2/3-x+y,1/3-x,1/3+z
2/3+x-y,1/3-y,5/6-z
2/3-x,1/3-x+y,5/6-z
2/3+y,1/3+x,5/6-z
2/3-x,1/3-y,1/3-z
2/3+y,1/3-x+y,1/3-z
2/3+x-y,1/3+x,1/3-z
2/3-x+y,1/3+y,5/6+z
2/3+x,1/3+x-y,5/6+z
2/3-y,1/3-x,5/6+z
1/3+x,2/3+y,2/3+z
1/3-y,2/3+x-y,2/3+z
1/3-x+y,2/3-x,2/3+z
1/3+x-y,2/3-y,1/6-z
1/3-x,2/3-x+y,1/6-z
1/3+y,2/3+x,1/6-z
1/3-x,2/3-y,2/3-z
1/3+y,2/3-x+y,2/3-z
1/3+x-y,2/3+x,2/3-z
1/3-x+y,2/3+y,1/6+z
1/3+x,2/3+x-y,1/6+z
1/3-y,2/3-x,1/6+z
loop_
_atom_site_type_symbol
_atom_site_label
_atom_site_fract_x
_atom_site_fract_y
_atom_site_fract_z
Si Si1 0.666667 0.333334 0.220372
Si Si2 0.647690 0.185638 0.186909
Si Si3 0.762497 0.865567 0.492207
Si Si4 0.032641 0.298343 0.981011
O O1 0.666668 0.333335 0.333334
O O2 0.628558 0.250722 0.183039
O O3 0.579527 0.122237 0.244795
O O4 0.719826 0.215767 0.254058
O O5 0.666667 0.170848 0.083334
O O6 0.734206 0.779806 0.513860
O O7 0.714276 0.899716 0.449352
O O8 0.019106 0.352439 0.916667
O O9 0.050780 0.333334 0.083334
#
# Coordination Sequence:
#
# PCOD9579628 Si02
#       4
#    12  36  36  36
#     4  12  16  29  49  85 131 160 208 269 334 391
#     4  11  21  35  64  93 129 181 217 274 347 400
#     4  10  23  44  63  94 138 166 229 288 327 406
#     4  11  25  43  69  97 132 181 225 282 343 401
#
# _framework density 22.358848999999999
#
# number of rings (size 3 to 8) (size 9 to 14) (size 15 to 20)
#    0.000    1.200    3.000    3.600    0.000    8.400 
#    0.000    0.000    0.000    0.000    0.000    0.000 
#    0.000    0.000    0.000    0.900    0.000    0.000 
#
# Total GULP energy -223303.791556 kJ/mol
# GULP energy per Si atom -5582.594789 kJ/mol
# Density = 2.230796 g / cm^3
# Si number density = 22.358849 Si / 1000 Ang^3
#
#
#
# Elastic Constant Matrix: (Units=GPa)
#
#
# Indices 1 2 3 4 5 6 
#
# 1 98.6168 44.7378 34.4530 -22.7378 -0.0006 0.0000
# 2 44.7378 98.6151 34.4536 22.7373 0.0006 0.0000
# 3 34.4530 34.4536 126.1385 -0.0002 0.0000 0.0000
# 4 -22.7378 22.7373 -0.0002 11.0004 0.0000 0.0006
# 5 -0.0006 0.0006 0.0000 0.0000 11.0006 -22.7378
# 6 0.0000 0.0000 0.0000 0.0006 -22.7378 26.9391
#
#
#
# Elastic Compliance Matrix: (Units=1/GPa)
#
#
# Indices 1 2 3 4 5 6 
#
# 1 -0.008448 0.016478 -0.002193 -0.051522 -0.000001 0.000000
# 2 0.016478 -0.008448 -0.002193 0.051523 0.000001 0.000000
# 3 -0.002193 -0.002193 0.009126 -0.000001 0.000000 0.000000
# 4 -0.051522 0.051523 -0.000001 -0.122085 0.000000 0.000003
# 5 -0.000001 0.000001 0.000000 0.000000 -0.122084 -0.103044
# 6 0.000000 0.000000 0.000000 0.000003 -0.103044 -0.049853
#
#
# Mechanical properties :
#
#
# Convention : Reuss Voigt Hill
#
# Bulk Modulus (GPa) = 60.92823 61.18435 61.05629
# Shear Modulus (GPa) = -15.60036 23.76975 4.08469
#
# Velocity S-wave (km/s) = -2.64432 3.26406 1.35309
# Velocity P-wave (km/s) = 4.24100 6.45210 5.45966
#
# Compressibility (1/GPa) = 0.01641275
#
# Stress axis : x y z
#
# Youngs Moduli (GPa) = -118.36973 -118.36829 109.57761
#
# Poissons Ratio (x) = 1.95049 0.24035
# Poissons Ratio (y) = 1.95052 0.24032
# Poissons Ratio (z) = -0.25964 -0.25960
#
# Static dielectric constant tensor:
#      x y z
#    x 1.859450 0.000000 0.000000 
#    y 0.000000 1.859450 0.000000 
#    z 0.000000 0.000000 1.556890 
# 
# From -- ./inp_files/2279.got.cif
#   From: 2010.05.17/outbox.cif.g08.bks.cpg/sg167_2_cif.got.tgz:2279.got - 2010.05.20 11:09:15.
