data_PCOD9579963
_publ_section_title
;
Structure prediction by ZEFSAII (Michael W. Deem and Ramdas Pophale) SiO2 
 PCOD9579963
Probable space group: P 61
;
_chemical_formula_sum "Si O2"
_cell_formula_units_Z 36
_cell_length_a 11.282652
_cell_length_b 11.282652
_cell_length_c 12.576410
_cell_angle_alpha 90.000000
_cell_angle_beta 90.000000
_cell_angle_gamma 120.000000
_cell_volume 1386.467536
_symmetry_space_group_name_H-M "P 61"
_symmetry_group_IT_number 169
_symmetry_cell_setting 'hexagonal'
loop_
_space_group_symop_operation_xyz
x,y,z
x-y,x,1/6+z
-y,x-y,1/3+z
-x,-y,1/2+z
-x+y,-x,2/3+z
y,-x+y,5/6+z
loop_
_atom_site_type_symbol
_atom_site_label
_atom_site_fract_x
_atom_site_fract_y
_atom_site_fract_z
Si Si1 0.161082 0.934391 0.131980
Si Si2 0.334749 0.780502 0.105036
Si Si3 0.915918 0.489932 0.620074
Si Si4 0.178659 0.737369 0.574906
Si Si5 0.855404 0.246090 0.326054
Si Si6 0.011843 0.435615 0.819857
O O1 0.254376 0.861439 0.134464
O O2 0.172726 0.012441 0.243426
O O3 0.245259 0.052981 0.044932
O O4 0.211535 0.636206 0.065264
O O5 0.399125 0.751024 0.209673
O O6 0.473578 0.861028 0.034471
O O7 0.851356 0.553802 0.700622
O O8 0.021732 0.617372 0.549964
O O9 0.993614 0.433595 0.692459
O O10 0.161733 0.762512 0.698518
O O11 0.266813 0.883952 0.517881
O O12 0.912295 0.403923 0.350796
#
# Coordination Sequence:
#
# PCOD9579963 Si02
#       6
#     6   6   6   6   6   6
#     4  11  24  46  71 103 145 209 274 321 390 492
#     4  11  23  40  69  99 147 197 250 315 392 487
#     4  11  23  39  67  98 141 190 240 303 393 466
#     4  11  22  38  63 102 141 186 244 323 387 464
#     4  10  21  42  66  96 137 189 250 303 384 475
#     4  10  23  39  62 100 141 185 242 309 384 458
#
# _framework density 25.965268999999999
#
# number of rings (size 3 to 8) (size 9 to 14) (size 15 to 20)
#    0.000    1.333    1.667    5.000    2.333    2.667 
#    0.000    3.333    0.000    0.000    0.000    0.000 
#    0.000    0.000    0.000    0.000    0.000    0.000 
#
# Total GULP energy -200839.928748 kJ/mol
# GULP energy per Si atom -5578.886910 kJ/mol
# Density = 2.590617 g / cm^3
# Si number density = 25.965269 Si / 1000 Ang^3
#
#
#
# Elastic Constant Matrix: (Units=GPa)
#
#
# Indices 1 2 3 4 5 6 
#
# 1 129.0249 34.4021 30.6271 0.0000 0.0000 0.0000
# 2 34.4021 129.0249 30.6271 0.0000 0.0000 0.0000
# 3 30.6271 30.6271 73.3060 0.0000 0.0000 0.0000
# 4 0.0000 0.0000 0.0000 36.5743 0.0000 0.0000
# 5 0.0000 0.0000 0.0000 0.0000 36.5743 0.0000
# 6 0.0000 0.0000 0.0000 0.0000 0.0000 47.3114
#
#
#
# Elastic Compliance Matrix: (Units=1/GPa)
#
#
# Indices 1 2 3 4 5 6 
#
# 1 0.008912 -0.001657 -0.003031 0.000000 0.000000 0.000000
# 2 -0.001657 0.008912 -0.003031 0.000000 0.000000 0.000000
# 3 -0.003031 -0.003031 0.016174 0.000000 0.000000 0.000000
# 4 0.000000 0.000000 0.000000 0.027342 0.000000 0.000000
# 5 0.000000 0.000000 0.000000 0.000000 0.027342 0.000000
# 6 0.000000 0.000000 0.000000 0.000000 0.000000 0.021137
#
#
# Mechanical properties :
#
#
# Convention : Reuss Voigt Hill
#
# Bulk Modulus (GPa) = 53.87994 58.07426 55.97710
# Shear Modulus (GPa) = 38.03968 39.80532 38.92250
#
# Velocity S-wave (km/s) = 3.83171 3.91963 3.87592
# Velocity P-wave (km/s) = 6.35388 6.54976 6.45257
#
# Compressibility (1/GPa) = 0.01855978
#
# Stress axis : x y z
#
# Youngs Moduli (GPa) = 112.21258 112.21258 61.82664
#
# Poissons Ratio (x) = 0.18589 0.18741
# Poissons Ratio (y) = 0.18589 0.18741
# Poissons Ratio (z) = 0.34013 0.34013
#
# Static dielectric constant tensor:
#      x y z
#    x 2.098290 0.000000 0.000000 
#    y 0.000000 2.098290 0.000000 
#    z 0.000000 0.000000 2.226680 
# 
# From -- ./inp_files/1333.got.cif
#   From: 2010.05.17/outbox.cif.g08.bks.cpg/sg169_cif.got.tgz:1333.got - 2010.05.20 11:12:54.
