data_PCOD9579092
_publ_section_title
;
Structure prediction by ZEFSAII (Michael W. Deem and Ramdas Pophale) SiO2 
 PCOD9579092
Probable space group: R -3 M
;
_chemical_formula_sum "Si O2"
_cell_formula_units_Z 252
_cell_length_a 31.272383
_cell_length_b 31.272383
_cell_length_c 17.091677
_cell_angle_alpha 90.000000
_cell_angle_beta 90.000000
_cell_angle_gamma 120.000000
_cell_volume 14475.622913
_symmetry_space_group_name_H-M "R -3 M"
_symmetry_group_IT_number 166
_symmetry_cell_setting 'hexagonal'
loop_
_space_group_symop_operation_xyz
x,y,z
-y,x-y,z
-x+y,-x,z
x-y,-y,-z
-x,-x+y,-z
y,x,-z
-x,-y,-z
y,-x+y,-z
x-y,x,-z
-x+y,y,z
x,x-y,z
-y,-x,z
2/3+x,1/3+y,1/3+z
2/3-y,1/3+x-y,1/3+z
2/3-x+y,1/3-x,1/3+z
2/3+x-y,1/3-y,1/3-z
2/3-x,1/3-x+y,1/3-z
2/3+y,1/3+x,1/3-z
2/3-x,1/3-y,1/3-z
2/3+y,1/3-x+y,1/3-z
2/3+x-y,1/3+x,1/3-z
2/3-x+y,1/3+y,1/3+z
2/3+x,1/3+x-y,1/3+z
2/3-y,1/3-x,1/3+z
1/3+x,2/3+y,2/3+z
1/3-y,2/3+x-y,2/3+z
1/3-x+y,2/3-x,2/3+z
1/3+x-y,2/3-y,2/3-z
1/3-x,2/3-x+y,2/3-z
1/3+y,2/3+x,2/3-z
1/3-x,2/3-y,2/3-z
1/3+y,2/3-x+y,2/3-z
1/3+x-y,2/3+x,2/3-z
1/3-x+y,2/3+y,2/3+z
1/3+x,2/3+x-y,2/3+z
1/3-y,2/3-x,2/3+z
loop_
_atom_site_type_symbol
_atom_site_label
_atom_site_fract_x
_atom_site_fract_y
_atom_site_fract_z
Si Si1 0.321946 0.434422 0.080893
Si Si2 0.511316 0.389051 0.608387
Si Si3 0.021486 0.325342 0.086809
Si Si4 0.570133 0.333416 0.090620
Si Si5 0.648863 0.099079 0.170389
Si Si6 0.480147 0.691642 0.583922
Si Si7 0.854781 0.245978 0.644551
O O1 0.333334 0.457584 0.166667
O O2 0.302749 0.376159 0.088869
O O3 0.282315 0.439278 0.028404
O O4 0.374109 0.461516 0.034972
O O5 0.556476 0.443525 0.588684
O O6 0.533951 0.352285 0.606634
O O7 0.464508 0.365395 0.548872
O O8 0.994523 0.327856 0.166667
O O9 0.021054 0.274756 0.102710
O O10 0.000000 0.324281 0.000000
O O11 0.584508 0.292254 0.070641
O O12 0.612228 0.387773 0.065391
O O13 0.564042 0.335450 0.184192
O O14 0.645771 0.141043 0.218275
O O15 0.604270 0.071090 0.108022
O O16 0.496934 0.748467 0.590718
O O17 0.462121 0.666667 0.666667
O O18 0.797830 0.202171 0.650111
O O19 0.887772 0.221105 0.666667
#
# Coordination Sequence:
#
# PCOD9579092 Si02
#       7
#    36  36  36  36  36  36  36
#     4  10  20  34  53  78 107 138 175 221 273 328
#     4   9  19  35  53  75 108 148 183 221 273 330
#     4  11  21  36  59  83 107 140 183 227 276 330
#     4   9  17  30  50  74 100 134 177 221 262 307
#     4  10  20  35  54  76 104 140 181 220 263 319
#     4  10  19  31  47  70 102 137 173 212 258 310
#     4  10  19  33  54  80 107 133 166 215 273 327
#
# _framework density 17.408577000000001
#
# number of rings (size 3 to 8) (size 9 to 14) (size 15 to 20)
#    0.000    2.143    0.000    5.286    0.000    4.571 
#    0.000    1.429    0.000    6.143    0.000    0.000 
#    0.000    2.857    0.000    0.000    0.000    0.000 
#
# Total GULP energy -467901.745901 kJ/mol
# GULP energy per Si atom -5570.258880 kJ/mol
# Density = 1.736895 g / cm^3
# Si number density = 17.408577 Si / 1000 Ang^3
#
#
#
# Elastic Constant Matrix: (Units=GPa)
#
#
# Indices 1 2 3 4 5 6 
#
# 1 48.6708 23.2513 7.8444 -4.4881 -0.0002 0.0000
# 2 23.2513 48.6708 7.8444 4.4881 0.0002 0.0000
# 3 7.8444 7.8444 71.6465 0.0000 0.0000 0.0000
# 4 -4.4881 4.4881 0.0000 19.9866 0.0000 0.0002
# 5 -0.0002 0.0002 0.0000 0.0000 19.9866 -4.4881
# 6 0.0000 0.0000 0.0000 0.0002 -4.4881 12.7097
#
#
#
# Elastic Compliance Matrix: (Units=1/GPa)
#
#
# Indices 1 2 3 4 5 6 
#
# 1 0.028486 -0.014242 -0.001560 0.009595 0.000000 0.000000
# 2 -0.014242 0.028486 -0.001560 -0.009595 0.000000 0.000000
# 3 -0.001560 -0.001560 0.014299 0.000000 0.000000 0.000000
# 4 0.009595 -0.009595 0.000000 0.054343 0.000000 -0.000001
# 5 0.000000 0.000000 0.000000 0.000000 0.054343 0.019190
# 6 0.000000 0.000000 0.000000 -0.000001 0.019190 0.085456
#
#
# Mechanical properties :
#
#
# Convention : Reuss Voigt Hill
#
# Bulk Modulus (GPa) = 27.36055 27.42980 27.39518
# Shear Modulus (GPa) = 16.00935 19.20647 17.60791
#
# Velocity S-wave (km/s) = 3.03582 3.32516 3.18378
# Velocity P-wave (km/s) = 5.29520 5.52567 5.41166
#
# Compressibility (1/GPa) = 0.03654897
#
# Stress axis : x y z
#
# Youngs Moduli (GPa) = 35.10485 35.10485 69.93534
#
# Poissons Ratio (x) = 0.49996 0.10907
# Poissons Ratio (y) = 0.49996 0.10907
# Poissons Ratio (z) = 0.05475 0.05475
#
# Static dielectric constant tensor:
#      x y z
#    x 1.579150 0.000000 0.000000 
#    y 0.000000 1.579150 0.000000 
#    z 0.000000 0.000000 1.601420 
# 
# From -- ./inp_files/5811.got.cif
#   From: 2010.05.17/outbox.cif.g08.bks.cpg/sg166_3_cif.got.tgz:5811.got - 2010.05.20 11:04:41.
