data_PCOD9579462
_publ_section_title
;
Structure prediction by ZEFSAII (Michael W. Deem and Ramdas Pophale) SiO2 
 PCOD9579462
Probable space group: R -3 C 
;
_chemical_formula_sum "Si O2"
_cell_formula_units_Z 216
_cell_length_a 23.031059
_cell_length_b 23.031059
_cell_length_c 21.916144
_cell_angle_alpha 90.000000
_cell_angle_beta 90.000000
_cell_angle_gamma 120.000000
_cell_volume 10067.522126
_symmetry_space_group_name_H-M "R -3 C "
_symmetry_group_IT_number 167
_symmetry_cell_setting 'hexagonal'
loop_
_space_group_symop_operation_xyz
x,y,z
-y,x-y,z
-x+y,-x,z
x-y,-y,1/2-z
-x,-x+y,1/2-z
y,x,1/2-z
-x,-y,-z
y,-x+y,-z
x-y,x,-z
-x+y,y,1/2+z
x,x-y,1/2+z
-y,-x,1/2+z
2/3+x,1/3+y,1/3+z
2/3-y,1/3+x-y,1/3+z
2/3-x+y,1/3-x,1/3+z
2/3+x-y,1/3-y,5/6-z
2/3-x,1/3-x+y,5/6-z
2/3+y,1/3+x,5/6-z
2/3-x,1/3-y,1/3-z
2/3+y,1/3-x+y,1/3-z
2/3+x-y,1/3+x,1/3-z
2/3-x+y,1/3+y,5/6+z
2/3+x,1/3+x-y,5/6+z
2/3-y,1/3-x,5/6+z
1/3+x,2/3+y,2/3+z
1/3-y,2/3+x-y,2/3+z
1/3-x+y,2/3-x,2/3+z
1/3+x-y,2/3-y,1/6-z
1/3-x,2/3-x+y,1/6-z
1/3+y,2/3+x,1/6-z
1/3-x,2/3-y,2/3-z
1/3+y,2/3-x+y,2/3-z
1/3+x-y,2/3+x,2/3-z
1/3-x+y,2/3+y,1/6+z
1/3+x,2/3+x-y,1/6+z
1/3-y,2/3-x,1/6+z
loop_
_atom_site_type_symbol
_atom_site_label
_atom_site_fract_x
_atom_site_fract_y
_atom_site_fract_z
Si Si1 0.192121 0.646261 0.152874
Si Si2 0.742314 0.500634 0.590555
Si Si3 0.823356 0.846809 0.648510
Si Si4 0.732588 0.107983 0.854801
Si Si5 0.033138 0.589208 0.432329
Si Si6 0.285778 0.999134 0.681030
O O1 0.252093 0.711503 0.184770
O O2 0.120068 0.621710 0.185455
O O3 0.192041 0.672133 0.084753
O O4 0.666667 0.439428 0.583334
O O5 0.790418 0.491205 0.637921
O O6 0.765230 0.517837 0.519896
O O7 0.745326 0.567468 0.614434
O O8 0.748991 0.782423 0.643537
O O9 0.767653 0.100987 0.916667
O O10 0.776571 0.117662 0.793848
O O11 0.665743 0.033609 0.847621
O O12 0.058646 0.666667 0.416667
O O13 0.988885 0.579872 0.491075
O O14 0.265370 0.000000 0.750000
#
# Coordination Sequence:
#
# PCOD9579462 Si02
#       6
#    36  36  36  36  36  36
#     4  12  30  51  69  98 143 200 248 292 354 437
#     4  10  23  42  68  98 134 180 236 303 349 425
#     4  11  24  44  66  99 135 175 246 294 368 417
#     4  10  23  43  72 106 139 182 234 292 367 441
#     4   9  19  37  64  98 140 173 214 279 360 432
#     4  10  19  40  65 103 143 170 210 291 367 446
#
# _framework density 21.45513
#
# number of rings (size 3 to 8) (size 9 to 14) (size 15 to 20)
#    0.000    1.667    3.333    0.167    4.667    6.000 
#    4.000    0.000    0.000    0.000    0.000    0.000 
#    0.000    0.000    0.000    0.000    0.000    0.000 
#
# Total GULP energy -401197.437435 kJ/mol
# GULP energy per Si atom -5572.186631 kJ/mol
# Density = 2.140630 g / cm^3
# Si number density = 21.455130 Si / 1000 Ang^3
#
#
#
# Elastic Constant Matrix: (Units=GPa)
#
#
# Indices 1 2 3 4 5 6 
#
# 1 20.0550 18.7541 -9.8646 21.2585 0.0004 0.0000
# 2 18.7541 20.0550 -9.8646 -21.2585 -0.0004 0.0000
# 3 -9.8646 -9.8646 82.3983 0.0000 0.0000 0.0000
# 4 21.2585 -21.2585 0.0000 -12.2525 0.0000 -0.0004
# 5 0.0004 -0.0004 0.0000 0.0000 -12.2525 21.2585
# 6 0.0000 0.0000 0.0000 -0.0004 21.2585 0.6505
#
#
#
# Elastic Compliance Matrix: (Units=1/GPa)
#
#
# Indices 1 2 3 4 5 6 
#
# 1 0.020379 0.007058 0.003285 0.023112 0.000000 0.000000
# 2 0.007058 0.020379 0.003285 -0.023112 0.000000 0.000000
# 3 0.003285 0.003285 0.012923 0.000000 0.000000 0.000000
# 4 0.023112 -0.023112 0.000000 -0.001414 0.000000 -0.000001
# 5 0.000000 0.000000 0.000000 0.000000 -0.001414 0.046225
# 6 0.000000 0.000000 0.000000 -0.000001 0.046225 0.026642
#
#
# Mechanical properties :
#
#
# Convention : Reuss Voigt Hill
#
# Bulk Modulus (GPa) = 12.35553 13.39535 12.87544
# Shear Modulus (GPa) = 64.75190 3.46131 34.10660
#
# Velocity S-wave (km/s) = 5.49961 1.27153 3.99139
# Velocity P-wave (km/s) = 6.78961 2.90046 5.22070
#
# Compressibility (1/GPa) = 0.08093543
#
# Stress axis : x y z
#
# Youngs Moduli (GPa) = 49.07006 49.07006 77.38346
#
# Poissons Ratio (x) = -0.34633 -0.25418
# Poissons Ratio (y) = -0.34633 -0.25418
# Poissons Ratio (z) = -0.16118 -0.16118
#
# Static dielectric constant tensor:
#      x y z
#    x 2.214770 0.000000 0.000000 
#    y 0.000000 2.214770 0.000000 
#    z 0.000000 0.000000 1.725160 
# 
# From -- ./inp_files/5516.got.cif
#   From: 2010.05.17/outbox.cif.g08.bks.cpg/sg167_3_cif.got.tgz:5516.got - 2010.05.20 11:09:15.
