data_PCOD9579576
_publ_section_title
;
Structure prediction by ZEFSAII (Michael W. Deem and Ramdas Pophale) SiO2 
 PCOD9579576
Probable space group: R -3 C 
;
_chemical_formula_sum "Si O2"
_cell_formula_units_Z 126
_cell_length_a 28.995397
_cell_length_b 28.995397
_cell_length_c 9.081447
_cell_angle_alpha 90.000000
_cell_angle_beta 90.000000
_cell_angle_gamma 120.000000
_cell_volume 6612.166839
_symmetry_space_group_name_H-M "R -3 C "
_symmetry_group_IT_number 167
_symmetry_cell_setting 'hexagonal'
loop_
_space_group_symop_operation_xyz
x,y,z
-y,x-y,z
-x+y,-x,z
x-y,-y,1/2-z
-x,-x+y,1/2-z
y,x,1/2-z
-x,-y,-z
y,-x+y,-z
x-y,x,-z
-x+y,y,1/2+z
x,x-y,1/2+z
-y,-x,1/2+z
2/3+x,1/3+y,1/3+z
2/3-y,1/3+x-y,1/3+z
2/3-x+y,1/3-x,1/3+z
2/3+x-y,1/3-y,5/6-z
2/3-x,1/3-x+y,5/6-z
2/3+y,1/3+x,5/6-z
2/3-x,1/3-y,1/3-z
2/3+y,1/3-x+y,1/3-z
2/3+x-y,1/3+x,1/3-z
2/3-x+y,1/3+y,5/6+z
2/3+x,1/3+x-y,5/6+z
2/3-y,1/3-x,5/6+z
1/3+x,2/3+y,2/3+z
1/3-y,2/3+x-y,2/3+z
1/3-x+y,2/3-x,2/3+z
1/3+x-y,2/3-y,1/6-z
1/3-x,2/3-x+y,1/6-z
1/3+y,2/3+x,1/6-z
1/3-x,2/3-y,2/3-z
1/3+y,2/3-x+y,2/3-z
1/3+x-y,2/3+x,2/3-z
1/3-x+y,2/3+y,1/6+z
1/3+x,2/3+x-y,1/6+z
1/3-y,2/3-x,1/6+z
loop_
_atom_site_type_symbol
_atom_site_label
_atom_site_fract_x
_atom_site_fract_y
_atom_site_fract_z
Si Si1 0.482051 0.607466 0.483329
Si Si2 0.686390 0.750461 0.749753
Si Si3 0.666667 0.084545 0.083334
Si Si4 0.804203 0.515757 0.973192
O O1 0.512515 0.666667 0.416667
O O2 0.525611 0.587806 0.483007
O O3 0.433966 0.565298 0.384354
O O4 0.456961 0.613570 0.635638
O O5 0.717274 0.717274 0.750000
O O6 0.666667 0.752161 0.583334
O O7 0.634693 0.714268 0.847333
O O8 0.641041 0.107096 0.199549
O O9 0.805288 0.471955 0.083334
#
# Coordination Sequence:
#
# PCOD9579576 Si02
#       4
#    36  36  18  36
#     4  11  23  41  65  90 124 166 212 263 317 384
#     4  11  22  36  58  84 124 169 215 255 310 364
#     4  10  22  38  56  86 126 160 212 256 310 366
#     4  10  24  41  62  90 123 160 207 258 324 369
#
# _framework density 19.055781
#
# number of rings (size 3 to 8) (size 9 to 14) (size 15 to 20)
#    0.857    0.571    1.429    5.143    4.000    1.143 
#    0.000    0.000    0.000    0.571    0.000    4.000 
#    0.000    0.000    0.000    0.000    0.000    0.000 
#
# Total GULP energy -233810.614589 kJ/mol
# GULP energy per Si atom -5566.919395 kJ/mol
# Density = 1.901241 g / cm^3
# Si number density = 19.055781 Si / 1000 Ang^3
#
#
#
# Elastic Constant Matrix: (Units=GPa)
#
#
# Indices 1 2 3 4 5 6 
#
# 1 597.7029 -513.0208 2.3582 -228.2509 -0.2185 1.1238
# 2 -513.0208 597.4937 1.2971 228.1972 -0.0406 -0.4250
# 3 2.3582 1.2971 97.8279 -0.2626 -0.1296 0.2422
# 4 -228.2509 228.1972 -0.2626 120.9521 -0.2960 0.3698
# 5 -0.2185 -0.0406 -0.1296 -0.2960 126.5620 -242.6980
# 6 1.1238 -0.4250 0.2422 0.3698 -242.6980 592.2366
#
#
#
# Elastic Compliance Matrix: (Units=1/GPa)
#
#
# Indices 1 2 3 4 5 6 
#
# 1 0.007922 0.003911 -0.000222 0.007570 0.000000 -0.000017
# 2 0.003911 0.007922 -0.000220 -0.007565 -0.000013 -0.000002
# 3 -0.000222 -0.000220 0.010230 0.000017 0.000012 0.000001
# 4 0.007570 -0.007565 0.000017 0.036826 0.000069 -0.000015
# 5 0.000000 -0.000013 0.000012 0.000069 0.036894 0.015119
# 6 -0.000017 -0.000002 0.000001 -0.000015 0.015119 0.007884
#
#
# Mechanical properties :
#
#
# Convention : Reuss Voigt Hill
#
# Bulk Modulus (GPa) = 30.29171 30.47707 30.38439
# Shear Modulus (GPa) = 44.74476 288.10947 166.42711
#
# Velocity S-wave (km/s) = 4.85097 12.30938 9.35555
# Velocity P-wave (km/s) = 6.87799 14.76673 11.51874
#
# Compressibility (1/GPa) = 0.03301234
#
# Stress axis : x y z
#
# Youngs Moduli (GPa) = 126.23389 126.23325 97.74826
#
# Poissons Ratio (x) = -0.49373 0.02174
# Poissons Ratio (y) = -0.49373 0.02147
# Poissons Ratio (z) = 0.02808 0.02773
#
# Static dielectric constant tensor:
#      x y z
#    x 1.649570 0.000000 0.000050 
#    y 0.000000 1.649650 -0.000040 
#    z 0.000050 -0.000040 1.751010 
# 
# From -- ./inp_files/686.got.cif
#   From: 2010.05.17/outbox.cif.g08.bks.cpg/sg167_1_cif.got.tgz:686.got - 2010.05.20 11:09:15.
