data_PCOD9579797
_publ_section_title
;
Structure prediction by ZEFSAII (Michael W. Deem and Ramdas Pophale) SiO2 
 PCOD9579797
Probable space group: P 61
;
_chemical_formula_sum "Si O2"
_cell_formula_units_Z 48
_cell_length_a 20.576034
_cell_length_b 20.576034
_cell_length_c 5.735090
_cell_angle_alpha 90.000000
_cell_angle_beta 90.000000
_cell_angle_gamma 120.000000
_cell_volume 2102.781788
_symmetry_space_group_name_H-M "P 61"
_symmetry_group_IT_number 169
_symmetry_cell_setting 'hexagonal'
loop_
_space_group_symop_operation_xyz
x,y,z
x-y,x,1/6+z
-y,x-y,1/3+z
-x,-y,1/2+z
-x+y,-x,2/3+z
y,-x+y,5/6+z
loop_
_atom_site_type_symbol
_atom_site_label
_atom_site_fract_x
_atom_site_fract_y
_atom_site_fract_z
Si Si1 0.264441 0.669480 0.595130
Si Si2 0.400069 0.425335 0.255028
Si Si3 0.617346 0.137387 0.720282
Si Si4 0.754805 0.216343 0.418954
Si Si5 0.235273 0.322337 0.268145
Si Si6 0.564788 0.926102 0.088671
Si Si7 0.093081 0.396405 0.894998
Si Si8 0.136948 0.807285 0.428423
O O1 0.288716 0.619970 0.749570
O O2 0.183025 0.608603 0.495771
O O3 0.257441 0.727883 0.757699
O O4 0.471480 0.413951 0.262132
O O5 0.322196 0.344205 0.256234
O O6 0.396830 0.464531 0.497751
O O7 0.400822 0.463579 0.009252
O O8 0.701188 0.196512 0.635039
O O9 0.636800 0.117867 0.973509
O O10 0.841278 0.247541 0.455834
O O11 0.726932 0.136407 0.300323
O O12 0.195492 0.289537 0.519325
O O13 0.194014 0.293356 0.016162
O O14 0.646840 0.004566 0.079540
O O15 0.591919 0.865038 0.105221
O O16 0.126684 0.350954 0.754551
#
# Coordination Sequence:
#
# PCOD9579797 Si02
#       8
#     6   6   6   6   6   6   6   6
#     4  12  24  36  50  70  96 121 152 208 246 287
#     4   9  18  32  51  73  96 121 154 195 234 283
#     4  11  20  33  53  69  95 123 160 193 242 292
#     4  11  20  33  53  69  95 123 160 193 242 292
#     4   9  18  32  51  73  96 121 154 195 234 283
#     4   9  17  28  46  74 100 123 156 195 231 276
#     4  10  18  30  50  70  94 127 162 188 240 287
#     4   9  17  28  46  74 100 123 156 195 231 276
#
# _framework density 22.826905
#
# number of rings (size 3 to 8) (size 9 to 14) (size 15 to 20)
#    0.000    2.000    5.000    0.000    0.000    0.000 
#    0.000    0.000    0.000   15.000    0.000    0.000 
#    0.000    0.000    0.000    0.000    0.000   20.000 
#
# Total GULP energy -267606.696306 kJ/mol
# GULP energy per Si atom -5575.139506 kJ/mol
# Density = 2.277495 g / cm^3
# Si number density = 22.826905 Si / 1000 Ang^3
#
#
#
# Elastic Constant Matrix: (Units=GPa)
#
#
# Indices 1 2 3 4 5 6 
#
# 1 23.3848 4.2043 18.6818 0.0000 0.0000 0.0000
# 2 4.2043 23.3848 18.6818 0.0000 0.0000 0.0000
# 3 18.6818 18.6818 155.8244 0.0000 0.0000 0.0000
# 4 0.0000 0.0000 0.0000 32.1235 0.0000 0.0000
# 5 0.0000 0.0000 0.0000 0.0000 32.1235 0.0000
# 6 0.0000 0.0000 0.0000 0.0000 0.0000 9.5903
#
#
#
# Elastic Compliance Matrix: (Units=1/GPa)
#
#
# Indices 1 2 3 4 5 6 
#
# 1 0.047704 -0.004432 -0.005188 0.000000 0.000000 0.000000
# 2 -0.004432 0.047704 -0.005188 0.000000 0.000000 0.000000
# 3 -0.005188 -0.005188 0.007661 0.000000 0.000000 0.000000
# 4 0.000000 0.000000 0.000000 0.031130 0.000000 0.000000
# 5 0.000000 0.000000 0.000000 0.000000 0.031130 0.000000
# 6 0.000000 0.000000 0.000000 0.000000 0.000000 0.104272
#
#
# Mechanical properties :
#
#
# Convention : Reuss Voigt Hill
#
# Bulk Modulus (GPa) = 13.61396 31.74778 22.68087
# Shear Modulus (GPa) = 15.44631 25.50252 20.47442
#
# Velocity S-wave (km/s) = 2.60411 3.34610 2.99815
# Velocity P-wave (km/s) = 3.87541 5.37278 4.68431
#
# Compressibility (1/GPa) = 0.07345404
#
# Stress axis : x y z
#
# Youngs Moduli (GPa) = 20.96256 20.96256 130.52370
#
# Poissons Ratio (x) = 0.09291 0.67715
# Poissons Ratio (y) = 0.09291 0.67715
# Poissons Ratio (z) = 0.10875 0.10875
#
# Static dielectric constant tensor:
#      x y z
#    x 1.929560 0.000000 0.000000 
#    y 0.000000 1.929560 0.000000 
#    z 0.000000 0.000000 2.027020 
# 
# From -- ./inp_files/346.got.cif
#   From: 2010.05.17/outbox.cif.g08.bks.cpg/sg169_cif.got.tgz:346.got - 2010.05.20 11:12:54.
