data_PCOD9579281
_publ_section_title
;
Structure prediction by ZEFSAII (Michael W. Deem and Ramdas Pophale) SiO2 
 PCOD9579281
Probable space group: R -3 M
;
_chemical_formula_sum "Si O2"
_cell_formula_units_Z 162
_cell_length_a 20.162573
_cell_length_b 20.162573
_cell_length_c 22.204029
_cell_angle_alpha 90.000000
_cell_angle_beta 90.000000
_cell_angle_gamma 120.000000
_cell_volume 7817.255796
_symmetry_space_group_name_H-M "R -3 M"
_symmetry_group_IT_number 166
_symmetry_cell_setting 'hexagonal'
loop_
_space_group_symop_operation_xyz
x,y,z
-y,x-y,z
-x+y,-x,z
x-y,-y,-z
-x,-x+y,-z
y,x,-z
-x,-y,-z
y,-x+y,-z
x-y,x,-z
-x+y,y,z
x,x-y,z
-y,-x,z
2/3+x,1/3+y,1/3+z
2/3-y,1/3+x-y,1/3+z
2/3-x+y,1/3-x,1/3+z
2/3+x-y,1/3-y,1/3-z
2/3-x,1/3-x+y,1/3-z
2/3+y,1/3+x,1/3-z
2/3-x,1/3-y,1/3-z
2/3+y,1/3-x+y,1/3-z
2/3+x-y,1/3+x,1/3-z
2/3-x+y,1/3+y,1/3+z
2/3+x,1/3+x-y,1/3+z
2/3-y,1/3-x,1/3+z
1/3+x,2/3+y,2/3+z
1/3-y,2/3+x-y,2/3+z
1/3-x+y,2/3-x,2/3+z
1/3+x-y,2/3-y,2/3-z
1/3-x,2/3-x+y,2/3-z
1/3+y,2/3+x,2/3-z
1/3-x,2/3-y,2/3-z
1/3+y,2/3-x+y,2/3-z
1/3+x-y,2/3+x,2/3-z
1/3-x+y,2/3+y,2/3+z
1/3+x,2/3+x-y,2/3+z
1/3-y,2/3-x,2/3+z
loop_
_atom_site_type_symbol
_atom_site_label
_atom_site_fract_x
_atom_site_fract_y
_atom_site_fract_z
Si Si1 0.820136 0.486365 0.141552
Si Si2 0.385438 0.926197 0.226531
Si Si3 0.598239 0.913582 0.761179
Si Si4 0.521233 0.187900 0.333334
Si Si5 0.421830 0.131665 0.028018
O O1 0.731857 0.463713 0.149793
O O2 0.833666 0.416833 0.160838
O O3 0.871211 0.568850 0.174853
O O4 0.842855 0.506487 0.071758
O O5 0.454308 0.908615 0.219817
O O6 0.333334 0.898420 0.166667
O O7 0.346976 0.897503 0.292566
O O8 0.418813 0.017039 0.233099
O O9 0.541564 0.846437 0.717709
O O10 0.680430 0.948794 0.728611
O O11 0.599699 0.199397 0.308741
O O12 0.407168 0.203584 0.024688
#
# Coordination Sequence:
#
# PCOD9579281 Si02
#       5
#    36  36  36  18  36
#     4  11  23  38  59  87 123 162 202 247 297 357
#     4  11  23  40  63  91 121 155 200 254 310 364
#     4  12  22  37  61  85 120 160 201 245 293 354
#     4  12  23  36  56  84 121 160 200 242 286 342
#     4  10  21  39  61  87 118 158 205 248 298 360
#
# _framework density 20.723383999999999
#
# number of rings (size 3 to 8) (size 9 to 14) (size 15 to 20)
#    0.000    0.889    2.222    6.333    0.000    2.667 
#    0.000    2.222    0.000    5.556    0.000    0.000 
#    0.000    0.000    0.000    0.000    0.000    0.000 
#
# Total GULP energy -301055.725869 kJ/mol
# GULP energy per Si atom -5575.106035 kJ/mol
# Density = 2.067622 g / cm^3
# Si number density = 20.723384 Si / 1000 Ang^3
#
#
#
# Elastic Constant Matrix: (Units=GPa)
#
#
# Indices 1 2 3 4 5 6 
#
# 1 41.4709 20.4506 24.7382 -2.4062 0.0008 0.0000
# 2 20.4506 41.4709 24.7382 2.4062 -0.0008 0.0000
# 3 24.7382 24.7382 150.5306 0.0000 0.0000 0.0000
# 4 -2.4062 2.4062 0.0000 20.3281 0.0000 -0.0008
# 5 0.0008 -0.0008 0.0000 0.0000 20.3281 -2.4062
# 6 0.0000 0.0000 0.0000 -0.0008 -2.4062 10.5102
#
#
#
# Elastic Compliance Matrix: (Units=1/GPa)
#
#
# Indices 1 2 3 4 5 6 
#
# 1 0.033744 -0.015154 -0.003055 0.005788 -0.000002 0.000000
# 2 -0.015154 0.033744 -0.003055 -0.005788 0.000002 0.000000
# 3 -0.003055 -0.003055 0.007647 0.000000 0.000000 0.000000
# 4 0.005788 -0.005788 0.000000 0.050563 0.000000 0.000004
# 5 -0.000002 0.000002 0.000000 0.000000 0.050563 0.011576
# 6 0.000000 0.000000 0.000000 0.000004 0.011576 0.097796
#
#
# Mechanical properties :
#
#
# Convention : Reuss Voigt Hill
#
# Bulk Modulus (GPa) = 30.66744 41.48070 36.07407
# Shear Modulus (GPa) = 15.26923 21.13630 18.20277
#
# Velocity S-wave (km/s) = 2.71737 3.19709 2.96694
# Velocity P-wave (km/s) = 4.96750 5.80417 5.40206
#
# Compressibility (1/GPa) = 0.03260788
#
# Stress axis : x y z
#
# Youngs Moduli (GPa) = 29.63459 29.63459 130.76433
#
# Poissons Ratio (x) = 0.44907 0.39951
# Poissons Ratio (y) = 0.44907 0.39951
# Poissons Ratio (z) = 0.09054 0.09054
#
# Static dielectric constant tensor:
#      x y z
#    x 1.727210 0.000000 0.000000 
#    y 0.000000 1.727210 0.000000 
#    z 0.000000 0.000000 1.666330 
# 
# From -- ./inp_files/6722.got.cif
#   From: 2010.05.17/outbox.cif.g08.bks.cpg/sg166_4_cif.got.tgz:6722.got - 2010.05.20 11:04:41.
