data_PCOD9579872
_publ_section_title
;
Structure prediction by ZEFSAII (Michael W. Deem and Ramdas Pophale) SiO2 
 PCOD9579872
Probable space group: P 61
;
_chemical_formula_sum "Si O2"
_cell_formula_units_Z 36
_cell_length_a 8.029163
_cell_length_b 8.029163
_cell_length_c 24.999656
_cell_angle_alpha 90.000000
_cell_angle_beta 90.000000
_cell_angle_gamma 120.000000
_cell_volume 1395.742213
_symmetry_space_group_name_H-M "P 61"
_symmetry_group_IT_number 169
_symmetry_cell_setting 'hexagonal'
loop_
_space_group_symop_operation_xyz
x,y,z
x-y,x,1/6+z
-y,x-y,1/3+z
-x,-y,1/2+z
-x+y,-x,2/3+z
y,-x+y,5/6+z
loop_
_atom_site_type_symbol
_atom_site_label
_atom_site_fract_x
_atom_site_fract_y
_atom_site_fract_z
Si Si1 0.310367 0.995239 0.553720
Si Si2 0.799365 0.651515 0.490351
Si Si3 0.669211 0.219546 0.604122
Si Si4 0.229841 0.758613 0.287364
Si Si5 0.398060 0.437225 0.358258
Si Si6 0.271721 0.777899 0.868263
O O1 0.459500 0.178050 0.589359
O O2 0.314433 0.087571 0.496541
O O3 0.147643 0.882490 0.598207
O O4 0.415996 0.867870 0.544659
O O5 0.619549 0.434568 0.481401
O O6 0.721238 0.773438 0.521375
O O7 0.945846 0.593257 0.519413
O O8 0.658156 0.040241 0.635323
O O9 0.769473 0.391423 0.646362
O O10 0.760263 0.240406 0.546624
O O11 0.297948 0.902626 0.237359
O O12 0.154469 0.558845 0.255090
#
# Coordination Sequence:
#
# PCOD9579872 Si02
#       6
#     6   6   6   6   6   6
#     4  10  22  38  64 101 128 174 221 273 333 405
#     4  10  20  38  62  96 128 164 223 274 322 390
#     4  10  20  38  63  92 131 168 218 269 331 398
#     4  10  20  35  61  96 123 169 221 258 325 400
#     4  10  20  36  63  93 125 170 216 272 328 391
#     4  10  22  37  63  98 127 169 219 274 331 392
#
# _framework density 25.792725999999998
#
# number of rings (size 3 to 8) (size 9 to 14) (size 15 to 20)
#    0.000    2.000    3.333    0.000    2.333    0.000 
#    0.000    0.000    3.667    0.000    4.333    0.000 
#    0.000    0.000    0.000    0.000    0.000    0.000 
#
# Total GULP energy -200483.977166 kJ/mol
# GULP energy per Si atom -5568.999366 kJ/mol
# Density = 2.573402 g / cm^3
# Si number density = 25.792726 Si / 1000 Ang^3
#
#
#
# Elastic Constant Matrix: (Units=GPa)
#
#
# Indices 1 2 3 4 5 6 
#
# 1 46.4344 -4.8328 18.6905 0.0000 0.0000 0.0000
# 2 -4.8328 46.4344 18.6905 0.0000 0.0000 0.0000
# 3 18.6905 18.6905 88.0277 0.0000 0.0000 0.0000
# 4 0.0000 0.0000 0.0000 41.6510 0.0000 0.0000
# 5 0.0000 0.0000 0.0000 0.0000 41.6510 0.0000
# 6 0.0000 0.0000 0.0000 0.0000 0.0000 25.6336
#
#
#
# Elastic Compliance Matrix: (Units=1/GPa)
#
#
# Indices 1 2 3 4 5 6 
#
# 1 0.024605 0.005100 -0.006307 0.000000 0.000000 0.000000
# 2 0.005100 0.024605 -0.006307 0.000000 0.000000 0.000000
# 3 -0.006307 -0.006307 0.014038 0.000000 0.000000 0.000000
# 4 0.000000 0.000000 0.000000 0.024009 0.000000 0.000000
# 5 0.000000 0.000000 0.000000 0.000000 0.024009 0.000000
# 6 0.000000 0.000000 0.000000 0.000000 0.000000 0.039011
#
#
# Mechanical properties :
#
#
# Convention : Reuss Voigt Hill
#
# Bulk Modulus (GPa) = 20.73845 27.33251 24.03548
# Shear Modulus (GPa) = 27.56638 31.67703 29.62171
#
# Velocity S-wave (km/s) = 3.27274 3.50828 3.39256
# Velocity P-wave (km/s) = 4.72642 5.19911 4.96839
#
# Compressibility (1/GPa) = 0.04821962
#
# Stress axis : x y z
#
# Youngs Moduli (GPa) = 40.64183 40.64183 71.23341
#
# Poissons Ratio (x) = -0.20726 0.44927
# Poissons Ratio (y) = -0.20726 0.44927
# Poissons Ratio (z) = 0.25633 0.25633
#
# Static dielectric constant tensor:
#      x y z
#    x 2.165890 0.000000 0.000000 
#    y 0.000000 2.165890 0.000000 
#    z 0.000000 0.000000 2.031700 
# 
# From -- ./inp_files/1762.got.cif
#   From: 2010.05.17/outbox.cif.g08.bks.cpg/sg169_cif.got.tgz:1762.got - 2010.05.20 11:12:54.
