data_PCOD9579669
_publ_section_title
;
Structure prediction by ZEFSAII (Michael W. Deem and Ramdas Pophale) SiO2 
 PCOD9579669
Probable space group: R -3 C 
;
_chemical_formula_sum "Si O2"
_cell_formula_units_Z 120
_cell_length_a 19.226239
_cell_length_b 19.226239
_cell_length_c 20.016673
_cell_angle_alpha 90.000000
_cell_angle_beta 90.000000
_cell_angle_gamma 120.000000
_cell_volume 6407.833218
_symmetry_space_group_name_H-M "R -3 C "
_symmetry_group_IT_number 167
_symmetry_cell_setting 'hexagonal'
loop_
_space_group_symop_operation_xyz
x,y,z
-y,x-y,z
-x+y,-x,z
x-y,-y,1/2-z
-x,-x+y,1/2-z
y,x,1/2-z
-x,-y,-z
y,-x+y,-z
x-y,x,-z
-x+y,y,1/2+z
x,x-y,1/2+z
-y,-x,1/2+z
2/3+x,1/3+y,1/3+z
2/3-y,1/3+x-y,1/3+z
2/3-x+y,1/3-x,1/3+z
2/3+x-y,1/3-y,5/6-z
2/3-x,1/3-x+y,5/6-z
2/3+y,1/3+x,5/6-z
2/3-x,1/3-y,1/3-z
2/3+y,1/3-x+y,1/3-z
2/3+x-y,1/3+x,1/3-z
2/3-x+y,1/3+y,5/6+z
2/3+x,1/3+x-y,5/6+z
2/3-y,1/3-x,5/6+z
1/3+x,2/3+y,2/3+z
1/3-y,2/3+x-y,2/3+z
1/3-x+y,2/3-x,2/3+z
1/3+x-y,2/3-y,1/6-z
1/3-x,2/3-x+y,1/6-z
1/3+y,2/3+x,1/6-z
1/3-x,2/3-y,2/3-z
1/3+y,2/3-x+y,2/3-z
1/3+x-y,2/3+x,2/3-z
1/3-x+y,2/3+y,1/6+z
1/3+x,2/3+x-y,1/6+z
1/3-y,2/3-x,1/6+z
loop_
_atom_site_type_symbol
_atom_site_label
_atom_site_fract_x
_atom_site_fract_y
_atom_site_fract_z
Si Si1 0.168869 0.138740 0.826819
Si Si2 0.666667 0.333334 0.501169
Si Si3 0.217917 0.927787 0.655151
Si Si4 0.018552 0.438038 0.037087
O O1 0.155450 0.155450 0.750000
O O2 0.218247 0.092222 0.837249
O O3 0.215622 0.227089 0.857386
O O4 0.079386 0.080563 0.854039
O O5 0.666668 0.333334 0.583334
O O6 0.236500 0.903166 0.583334
O O7 0.229489 0.882360 0.717593
O O8 0.283108 0.019261 0.674738
O O9 0.000000 0.500000 0.000000
#
# Coordination Sequence:
#
# PCOD9579669 Si02
#       4
#    36  12  36  36
#     4  11  21  40  66  94 128 166 214 270 319 392
#     4   9  21  36  66  97 122 163 210 259 329 385
#     4  11  26  39  63  97 129 170 220 265 326 387
#     4  11  23  41  66  92 129 171 214 269 327 382
#
# _framework density 18.727079
#
# number of rings (size 3 to 8) (size 9 to 14) (size 15 to 20)
#    0.000    1.200    3.000    2.700   12.600    0.000 
#    0.000    0.000    0.000    1.800    0.000    0.000 
#    0.000    0.000    0.000    0.000    0.000    0.000 
#
# Total GULP energy -223041.566075 kJ/mol
# GULP energy per Si atom -5576.039152 kJ/mol
# Density = 1.868446 g / cm^3
# Si number density = 18.727079 Si / 1000 Ang^3
#
#
#
# Elastic Constant Matrix: (Units=GPa)
#
#
# Indices 1 2 3 4 5 6 
#
# 1 114.3163 52.2994 35.4816 -4.5022 -0.0002 0.0003
# 2 52.2994 114.3128 35.4812 4.5020 0.0002 -0.0002
# 3 35.4816 35.4812 138.7035 -0.0002 0.0000 0.0001
# 4 -4.5022 4.5020 -0.0002 20.2460 0.0000 0.0002
# 5 -0.0002 0.0002 0.0000 0.0000 20.2459 -4.5020
# 6 0.0003 -0.0002 0.0001 0.0002 -4.5020 31.0067
#
#
#
# Elastic Compliance Matrix: (Units=1/GPa)
#
#
# Indices 1 2 3 4 5 6 
#
# 1 0.011699 -0.004964 -0.001723 0.003705 0.000000 0.000000
# 2 -0.004964 0.011700 -0.001723 -0.003705 0.000000 0.000000
# 3 -0.001723 -0.001723 0.008091 0.000000 0.000000 0.000000
# 4 0.003705 -0.003705 0.000000 0.051040 0.000000 0.000000
# 5 0.000000 0.000000 0.000000 0.000000 0.051041 0.007411
# 6 0.000000 0.000000 0.000000 0.000000 0.007411 0.033327
#
#
# Mechanical properties :
#
#
# Convention : Reuss Voigt Hill
#
# Bulk Modulus (GPa) = 68.16418 68.20635 68.18527
# Shear Modulus (GPa) = 26.51001 30.57107 28.54054
#
# Velocity S-wave (km/s) = 3.76652 4.04475 3.90811
# Velocity P-wave (km/s) = 7.44267 7.63633 7.54012
#
# Compressibility (1/GPa) = 0.01467046
#
# Stress axis : x y z
#
# Youngs Moduli (GPa) = 85.47561 85.47294 123.59158
#
# Poissons Ratio (x) = 0.42426 0.21295
# Poissons Ratio (y) = 0.42427 0.21296
# Poissons Ratio (z) = 0.14728 0.14728
#
# Static dielectric constant tensor:
#      x y z
#    x 1.638670 0.000000 0.000000 
#    y 0.000000 1.638670 0.000000 
#    z 0.000000 0.000000 1.573060 
# 
# From -- ./inp_files/5080.got.cif
#   From: 2010.05.17/outbox.cif.g08.bks.cpg/sg167_3_cif.got.tgz:5080.got - 2010.05.20 11:09:15.
