data_PCOD9579126
_publ_section_title
;
Structure prediction by ZEFSAII (Michael W. Deem and Ramdas Pophale) SiO2 
 PCOD9579126
Probable space group: R -3 M
;
_chemical_formula_sum "Si O2"
_cell_formula_units_Z 144
_cell_length_a 21.613157
_cell_length_b 21.613157
_cell_length_c 19.426827
_cell_angle_alpha 90.000000
_cell_angle_beta 90.000000
_cell_angle_gamma 120.000000
_cell_volume 7859.029534
_symmetry_space_group_name_H-M "R -3 M"
_symmetry_group_IT_number 166
_symmetry_cell_setting 'hexagonal'
loop_
_space_group_symop_operation_xyz
x,y,z
-y,x-y,z
-x+y,-x,z
x-y,-y,-z
-x,-x+y,-z
y,x,-z
-x,-y,-z
y,-x+y,-z
x-y,x,-z
-x+y,y,z
x,x-y,z
-y,-x,z
2/3+x,1/3+y,1/3+z
2/3-y,1/3+x-y,1/3+z
2/3-x+y,1/3-x,1/3+z
2/3+x-y,1/3-y,1/3-z
2/3-x,1/3-x+y,1/3-z
2/3+y,1/3+x,1/3-z
2/3-x,1/3-y,1/3-z
2/3+y,1/3-x+y,1/3-z
2/3+x-y,1/3+x,1/3-z
2/3-x+y,1/3+y,1/3+z
2/3+x,1/3+x-y,1/3+z
2/3-y,1/3-x,1/3+z
1/3+x,2/3+y,2/3+z
1/3-y,2/3+x-y,2/3+z
1/3-x+y,2/3-x,2/3+z
1/3+x-y,2/3-y,2/3-z
1/3-x,2/3-x+y,2/3-z
1/3+y,2/3+x,2/3-z
1/3-x,2/3-y,2/3-z
1/3+y,2/3-x+y,2/3-z
1/3+x-y,2/3+x,2/3-z
1/3-x+y,2/3+y,2/3+z
1/3+x,2/3+x-y,2/3+z
1/3-y,2/3-x,2/3+z
loop_
_atom_site_type_symbol
_atom_site_label
_atom_site_fract_x
_atom_site_fract_y
_atom_site_fract_z
Si Si1 0.965350 0.254673 0.598783
Si Si2 0.333936 0.521751 0.485245
Si Si3 0.999766 0.142101 0.344052
Si Si4 0.078007 0.299813 0.125863
O O1 0.927898 0.261232 0.666667
O O2 0.978923 0.189162 0.609382
O O3 0.917336 0.244976 0.532684
O O4 0.042935 0.325339 0.589232
O O5 0.269220 0.538439 0.493908
O O6 0.409543 0.590458 0.503108
O O7 0.335419 0.506421 0.403557
O O8 0.311916 0.450174 0.527962
O O9 0.059826 0.119651 0.349569
O O10 0.922986 0.077015 0.362551
O O11 0.153000 0.306000 0.104580
#
# Coordination Sequence:
#
# PCOD9579126 Si02
#       4
#    36  36  36  36
#     4  11  21  35  54  78 109 147 183 221 270 326
#     4   9  17  31  52  78 104 133 172 222 273 321
#     4  10  19  32  53  79 107 137 175 222 271 319
#     4  10  21  36  54  78 108 143 186 226 267 325
#
# _framework density 18.322873000000001
#
# number of rings (size 3 to 8) (size 9 to 14) (size 15 to 20)
#    0.000    2.000    2.500    2.000    0.000    3.000 
#    0.000    5.000    0.000    0.000    0.000    8.750 
#    0.000    5.000    0.000    0.000    0.000    0.000 
#
# Total GULP energy -267924.058092 kJ/mol
# GULP energy per Si atom -5581.751210 kJ/mol
# Density = 1.828117 g / cm^3
# Si number density = 18.322873 Si / 1000 Ang^3
#
#
#
# Elastic Constant Matrix: (Units=GPa)
#
#
# Indices 1 2 3 4 5 6 
#
# 1 62.5301 4.3592 -13.5350 -0.8449 0.0001 0.0000
# 2 4.3592 62.5301 -13.5350 0.8449 -0.0001 0.0000
# 3 -13.5350 -13.5350 9.1948 0.0000 0.0000 0.0000
# 4 -0.8449 0.8449 0.0000 19.9311 0.0000 -0.0001
# 5 0.0001 -0.0001 0.0000 0.0000 19.9311 -0.8449
# 6 0.0000 0.0000 0.0000 -0.0001 -0.8449 29.0855
#
#
#
# Elastic Compliance Matrix: (Units=1/GPa)
#
#
# Indices 1 2 3 4 5 6 
#
# 1 0.027096 0.009884 0.054436 0.000730 0.000000 0.000000
# 2 0.009884 0.027096 0.054436 -0.000730 0.000000 0.000000
# 3 0.054436 0.054436 0.269022 0.000000 0.000000 0.000000
# 4 0.000730 -0.000730 0.000000 0.050235 0.000000 0.000000
# 5 0.000000 0.000000 0.000000 0.000000 0.050235 0.001459
# 6 0.000000 0.000000 0.000000 0.000000 0.001459 0.034424
#
#
# Mechanical properties :
#
#
# Convention : Reuss Voigt Hill
#
# Bulk Modulus (GPa) = 1.78340 9.87038 5.82689
# Shear Modulus (GPa) = 12.26984 24.25391 18.26187
#
# Velocity S-wave (km/s) = 2.59056 3.64221 3.16043
# Velocity P-wave (km/s) = 3.15015 4.80481 4.06261
#
# Compressibility (1/GPa) = 0.56072809
#
# Stress axis : x y z
#
# Youngs Moduli (GPa) = 36.90563 36.90563 3.71717
#
# Poissons Ratio (x) = -0.36478 -0.20235
# Poissons Ratio (y) = -0.36478 -0.20235
# Poissons Ratio (z) = -2.00901 -2.00901
#
# Static dielectric constant tensor:
#      x y z
#    x 1.616640 0.000000 0.000000 
#    y 0.000000 1.616640 0.000000 
#    z 0.000000 0.000000 1.618830 
# 
# From -- ./inp_files/6581.got.cif
#   From: 2010.05.17/outbox.cif.g08.bks.cpg/sg166_4_cif.got.tgz:6581.got - 2010.05.20 11:04:41.
