data_PCOD9579356
_publ_section_title
;
Structure prediction by ZEFSAII (Michael W. Deem and Ramdas Pophale) SiO2 
 PCOD9579356
Probable space group: R -3 M
;
_chemical_formula_sum "Si O2"
_cell_formula_units_Z 78
_cell_length_a 19.812730
_cell_length_b 19.812730
_cell_length_c 10.748624
_cell_angle_alpha 90.000000
_cell_angle_beta 90.000000
_cell_angle_gamma 120.000000
_cell_volume 3654.030306
_symmetry_space_group_name_H-M "R -3 M"
_symmetry_group_IT_number 166
_symmetry_cell_setting 'hexagonal'
loop_
_space_group_symop_operation_xyz
x,y,z
-y,x-y,z
-x+y,-x,z
x-y,-y,-z
-x,-x+y,-z
y,x,-z
-x,-y,-z
y,-x+y,-z
x-y,x,-z
-x+y,y,z
x,x-y,z
-y,-x,z
2/3+x,1/3+y,1/3+z
2/3-y,1/3+x-y,1/3+z
2/3-x+y,1/3-x,1/3+z
2/3+x-y,1/3-y,1/3-z
2/3-x,1/3-x+y,1/3-z
2/3+y,1/3+x,1/3-z
2/3-x,1/3-y,1/3-z
2/3+y,1/3-x+y,1/3-z
2/3+x-y,1/3+x,1/3-z
2/3-x+y,1/3+y,1/3+z
2/3+x,1/3+x-y,1/3+z
2/3-y,1/3-x,1/3+z
1/3+x,2/3+y,2/3+z
1/3-y,2/3+x-y,2/3+z
1/3-x+y,2/3-x,2/3+z
1/3+x-y,2/3-y,2/3-z
1/3-x,2/3-x+y,2/3-z
1/3+y,2/3+x,2/3-z
1/3-x,2/3-y,2/3-z
1/3+y,2/3-x+y,2/3-z
1/3+x-y,2/3+x,2/3-z
1/3-x+y,2/3+y,2/3+z
1/3+x,2/3+x-y,2/3+z
1/3-y,2/3-x,2/3+z
loop_
_atom_site_type_symbol
_atom_site_label
_atom_site_fract_x
_atom_site_fract_y
_atom_site_fract_z
Si Si1 0.240249 0.241660 0.859284
Si Si2 0.091104 0.908897 0.684359
Si Si3 0.666668 0.333334 0.687610
Si Si4 0.843810 0.156191 0.521022
O O1 0.277530 0.333334 0.833334
O O2 0.169996 0.204869 0.761036
O O3 0.309638 0.222603 0.850156
O O4 0.213036 0.213036 0.000000
O O5 0.114460 0.885540 0.551138
O O6 0.044910 0.955091 0.681093
O O7 0.666668 0.333335 0.833334
O O8 0.833334 0.166667 0.666667
#
# Coordination Sequence:
#
# PCOD9579356 Si02
#       4
#    36  18   6  18
#     4  12  24  47  75 113 147 192 247 313 384 448
#     4  12  28  51  75 110 155 198 257 315 374 463
#     4  12  33  51  70 104 151 207 252 310 371 442
#     4  12  28  43  74 109 150 199 250 307 378 454
#
# _framework density 21.346294
#
# number of rings (size 3 to 8) (size 9 to 14) (size 15 to 20)
#    0.000    0.000    4.615    4.846    6.462    0.000 
#    0.000    1.154    0.000    0.000    0.000    0.000 
#    0.000    0.000    0.000    0.000    0.000    0.000 
#
# Total GULP energy -145042.216476 kJ/mol
# GULP energy per Si atom -5578.546788 kJ/mol
# Density = 2.129771 g / cm^3
# Si number density = 21.346294 Si / 1000 Ang^3
#
#
#
# Elastic Constant Matrix: (Units=GPa)
#
#
# Indices 1 2 3 4 5 6 
#
# 1 202.3510 36.5356 36.1580 59.3947 -0.0097 0.0000
# 2 36.5356 202.3504 36.1570 -59.3951 0.0096 0.0000
# 3 36.1580 36.1570 129.8781 0.0005 -0.0003 -0.0002
# 4 59.3947 -59.3951 0.0005 108.1805 0.0000 0.0097
# 5 -0.0097 0.0096 -0.0003 0.0000 108.1796 59.3942
# 6 0.0000 0.0000 -0.0002 0.0097 59.3942 82.9072
#
#
#
# Elastic Compliance Matrix: (Units=1/GPa)
#
#
# Indices 1 2 3 4 5 6 
#
# 1 0.007256 -0.002685 -0.001273 -0.005458 0.000001 0.000000
# 2 -0.002685 0.007256 -0.001273 0.005458 -0.000001 0.000000
# 3 -0.001273 -0.001273 0.008408 0.000000 0.000000 0.000000
# 4 -0.005458 0.005458 0.000000 0.015237 0.000000 -0.000002
# 5 0.000001 -0.000001 0.000000 0.000000 0.015237 -0.010916
# 6 0.000000 0.000000 0.000000 -0.000002 -0.010916 0.019882
#
#
# Mechanical properties :
#
#
# Convention : Reuss Voigt Hill
#
# Bulk Modulus (GPa) = 80.25527 83.58675 81.92101
# Shear Modulus (GPa) = 56.88983 88.23538 72.56261
#
# Velocity S-wave (km/s) = 5.16805 6.43622 5.83668
# Velocity P-wave (km/s) = 8.56097 9.71987 9.15876
#
# Compressibility (1/GPa) = 0.01246024
#
# Stress axis : x y z
#
# Youngs Moduli (GPa) = 137.81577 137.81506 118.93259
#
# Poissons Ratio (x) = 0.37000 0.15136
# Poissons Ratio (y) = 0.37000 0.15136
# Poissons Ratio (z) = 0.17539 0.17539
#
# Static dielectric constant tensor:
#      x y z
#    x 1.711100 0.000000 0.000000 
#    y 0.000000 1.711110 0.000010 
#    z 0.000000 0.000010 4.142820 
# 
# From -- ./inp_files/2400.got.cif
#   From: 2010.05.17/outbox.cif.g08.bks.cpg/sg166_2_cif.got.tgz:2400.got - 2010.05.20 11:04:41.
