data_PCOD9579091
_publ_section_title
;
Structure prediction by ZEFSAII (Michael W. Deem and Ramdas Pophale) SiO2 
 PCOD9579091
Probable space group: R -3 M
;
_chemical_formula_sum "Si O2"
_cell_formula_units_Z 216
_cell_length_a 24.017513
_cell_length_b 24.017513
_cell_length_c 20.341184
_cell_angle_alpha 90.000000
_cell_angle_beta 90.000000
_cell_angle_gamma 120.000000
_cell_volume 10161.619502
_symmetry_space_group_name_H-M "R -3 M"
_symmetry_group_IT_number 166
_symmetry_cell_setting 'hexagonal'
loop_
_space_group_symop_operation_xyz
x,y,z
-y,x-y,z
-x+y,-x,z
x-y,-y,-z
-x,-x+y,-z
y,x,-z
-x,-y,-z
y,-x+y,-z
x-y,x,-z
-x+y,y,z
x,x-y,z
-y,-x,z
2/3+x,1/3+y,1/3+z
2/3-y,1/3+x-y,1/3+z
2/3-x+y,1/3-x,1/3+z
2/3+x-y,1/3-y,1/3-z
2/3-x,1/3-x+y,1/3-z
2/3+y,1/3+x,1/3-z
2/3-x,1/3-y,1/3-z
2/3+y,1/3-x+y,1/3-z
2/3+x-y,1/3+x,1/3-z
2/3-x+y,1/3+y,1/3+z
2/3+x,1/3+x-y,1/3+z
2/3-y,1/3-x,1/3+z
1/3+x,2/3+y,2/3+z
1/3-y,2/3+x-y,2/3+z
1/3-x+y,2/3-x,2/3+z
1/3+x-y,2/3-y,2/3-z
1/3-x,2/3-x+y,2/3-z
1/3+y,2/3+x,2/3-z
1/3-x,2/3-y,2/3-z
1/3+y,2/3-x+y,2/3-z
1/3+x-y,2/3+x,2/3-z
1/3-x+y,2/3+y,2/3+z
1/3+x,2/3+x-y,2/3+z
1/3-y,2/3-x,2/3+z
loop_
_atom_site_type_symbol
_atom_site_label
_atom_site_fract_x
_atom_site_fract_y
_atom_site_fract_z
Si Si1 0.002811 0.132308 0.397335
Si Si2 0.296641 0.212106 0.252909
Si Si3 0.126763 0.001853 0.896835
Si Si4 0.390360 0.258886 0.921301
Si Si5 0.494375 0.682039 0.915605
Si Si6 0.748625 0.009106 0.922184
O O1 0.067546 0.135092 0.424575
O O2 0.980774 0.182568 0.422943
O O3 0.015144 0.148646 0.319131
O O4 0.939839 0.060162 0.403890
O O5 0.301276 0.150638 0.231966
O O6 0.287620 0.206995 0.332737
O O7 0.229731 0.207115 0.232145
O O8 0.360384 0.274175 0.230402
O O9 0.069996 0.930005 0.914339
O O10 0.127415 0.006185 0.817361
O O11 0.113816 0.056908 0.924090
O O12 0.198054 0.016886 0.914981
O O13 0.385719 0.192860 0.898130
O O14 0.328337 0.261579 0.896183
O O15 0.508771 0.754386 0.926853
O O16 0.734232 0.000000 0.000000
#
# Coordination Sequence:
#
# PCOD9579091 Si02
#       6
#    36  36  36  36  36  36
#     4   9  15  25  44  68  93 117 141 170 207 254
#     4   8  14  27  46  65  82 101 137 185 222 254
#     4  11  22  33  45  62  86 115 147 184 225 267
#     4   8  15  27  42  61  86 115 144 176 210 249
#     4   8  16  29  44  64  88 113 138 171 216 260
#     4  10  19  31  47  62  80 110 150 188 223 255
#
# _framework density 21.256454999999999
#
# number of rings (size 3 to 8) (size 9 to 14) (size 15 to 20)
#    0.000    3.000    0.000    3.833    0.000    2.667 
#    0.000    4.167    0.000   14.500    0.000    0.000 
#    0.000    0.000    0.000    0.000    0.000    0.333 
#
# Total GULP energy -400896.363816 kJ/mol
# GULP energy per Si atom -5568.005053 kJ/mol
# Density = 2.120807 g / cm^3
# Si number density = 21.256455 Si / 1000 Ang^3
#
#
#
# Elastic Constant Matrix: (Units=GPa)
#
#
# Indices 1 2 3 4 5 6 
#
# 1 145.9991 83.6785 -4.3949 4.4120 0.0000 0.0000
# 2 83.6785 145.9991 -4.3949 -4.4120 0.0000 0.0000
# 3 -4.3949 -4.3949 41.0879 0.0000 0.0000 0.0000
# 4 4.4120 -4.4120 0.0000 -8.8662 0.0000 0.0000
# 5 0.0000 0.0000 0.0000 0.0000 -8.8662 4.4120
# 6 0.0000 0.0000 0.0000 0.0000 4.4120 31.1603
#
#
#
# Elastic Compliance Matrix: (Units=1/GPa)
#
#
# Indices 1 2 3 4 5 6 
#
# 1 0.009681 -0.005309 0.000468 0.007459 0.000000 0.000000
# 2 -0.005309 0.009681 0.000468 -0.007459 0.000000 0.000000
# 3 0.000468 0.000468 0.024438 0.000000 0.000000 0.000000
# 4 0.007459 -0.007459 0.000000 -0.105364 0.000000 0.000000
# 5 0.000000 0.000000 0.000000 0.000000 -0.105364 0.014919
# 6 0.000000 0.000000 0.000000 0.000000 0.014919 0.029980
#
#
# Mechanical properties :
#
#
# Convention : Reuss Voigt Hill
#
# Bulk Modulus (GPa) = 28.52883 53.65153 41.09018
# Shear Modulus (GPa) = -42.91224 19.89873 -11.50675
#
# Velocity S-wave (km/s) = -4.49797 3.06294 -2.32917
# Velocity P-wave (km/s) = 3.67766 6.14847 3.48414
#
# Compressibility (1/GPa) = 0.03505226
#
# Stress axis : x y z
#
# Youngs Moduli (GPa) = 103.29667 103.29667 40.91967
#
# Poissons Ratio (x) = 0.54841 -0.01913
# Poissons Ratio (y) = 0.54841 -0.01913
# Poissons Ratio (z) = -0.04830 -0.04830
#
# Static dielectric constant tensor:
#      x y z
#    x 1.792920 0.000000 0.000000 
#    y 0.000000 1.792920 0.000000 
#    z 0.000000 0.000000 1.852140 
# 
# From -- ./inp_files/8430.got.cif
#   From: 2010.05.17/outbox.cif.g08.bks.cpg/sg166_5_cif.got.tgz:8430.got - 2010.05.20 11:04:41.
