data_PCOD9579745
_publ_section_title
;
Structure prediction by ZEFSAII (Michael W. Deem and Ramdas Pophale) SiO2 
 PCOD9579745
Probable space group: R -3 C 
;
_chemical_formula_sum "Si O2"
_cell_formula_units_Z 48
_cell_length_a 30.000000
_cell_length_b 30.000000
_cell_length_c 9.000000
_cell_angle_alpha 90.000000
_cell_angle_beta 90.000000
_cell_angle_gamma 120.000000
_cell_volume 7014.805771
_symmetry_space_group_name_H-M "R -3 C "
_symmetry_group_IT_number 167
_symmetry_cell_setting 'hexagonal'
loop_
_space_group_symop_operation_xyz
x,y,z
-y,x-y,z
-x+y,-x,z
x-y,-y,1/2-z
-x,-x+y,1/2-z
y,x,1/2-z
-x,-y,-z
y,-x+y,-z
x-y,x,-z
-x+y,y,1/2+z
x,x-y,1/2+z
-y,-x,1/2+z
2/3+x,1/3+y,1/3+z
2/3-y,1/3+x-y,1/3+z
2/3-x+y,1/3-x,1/3+z
2/3+x-y,1/3-y,5/6-z
2/3-x,1/3-x+y,5/6-z
2/3+y,1/3+x,5/6-z
2/3-x,1/3-y,1/3-z
2/3+y,1/3-x+y,1/3-z
2/3+x-y,1/3+x,1/3-z
2/3-x+y,1/3+y,5/6+z
2/3+x,1/3+x-y,5/6+z
2/3-y,1/3-x,5/6+z
1/3+x,2/3+y,2/3+z
1/3-y,2/3+x-y,2/3+z
1/3-x+y,2/3-x,2/3+z
1/3+x-y,2/3-y,1/6-z
1/3-x,2/3-x+y,1/6-z
1/3+y,2/3+x,1/6-z
1/3-x,2/3-y,2/3-z
1/3+y,2/3-x+y,2/3-z
1/3+x-y,2/3+x,2/3-z
1/3-x+y,2/3+y,1/6+z
1/3+x,2/3+x-y,1/6+z
1/3-y,2/3-x,1/6+z
loop_
_atom_site_type_symbol
_atom_site_label
_atom_site_fract_x
_atom_site_fract_y
_atom_site_fract_z
Si Si1 0.760890 0.059576 0.273696
Si Si2 0.474019 0.448761 0.095370
Si Si3 0.135943 0.612983 0.838423
Si Si4 0.054525 0.190648 0.320433
O O1 0.741894 0.075227 0.416667
O O2 0.749038 0.083580 0.133749
O O3 0.821122 0.079155 0.296682
O O4 0.732820 0.000000 0.250000
O O5 0.469096 0.469096 0.250000
O O6 0.499422 0.414069 0.078198
O O7 0.500000 0.500000 0.000000
O O8 0.162549 0.586365 0.923189
O O9 0.142135 0.613614 0.663359
O O10 0.158802 0.666667 0.916667
O O11 0.000000 0.159099 0.250000
#
# Coordination Sequence:
#
# PCOD9579745 Si02
#       4
#    36  36  36  36
#     4  11  24  41  61  89 130 177 224 274 331 391
#     4  12  24  39  62  91 131 175 220 275 337 392
#     4  11  24  43  67  94 133 171 215 274 337 397
#     4  12  25  41  68  99 128 172 228 271 331 401
#
# _framework density 6.84267
#
# number of rings (size 3 to 8) (size 9 to 14) (size 15 to 20)
#    0.000    0.500    5.000    3.750    7.000    2.000 
#    0.000    0.000    0.000    0.500    0.000    3.500 
#    0.000    0.000    0.000    0.000    0.000    0.000 
#
# Total GULP energy -267266.498587 kJ/mol
# GULP energy per Si atom -5568.052054 kJ/mol
# Density = 0.682710 g / cm^3
# Si number density = 6.842670 Si / 1000 Ang^3
#
#
#
# Elastic Constant Matrix: (Units=GPa)
#
#
# Indices 1 2 3 4 5 6 
#
# 1 84.8829 46.8464 35.2569 -2.3749 -0.0274 -0.0202
# 2 46.8464 84.9103 35.2894 2.4259 0.0084 -0.0089
# 3 35.2569 35.2894 124.8041 0.0297 0.0198 -0.0262
# 4 -2.3749 2.4259 0.0297 -3.1001 0.0077 0.0172
# 5 -0.0274 0.0084 0.0198 0.0077 -3.0559 -2.4490
# 6 -0.0202 -0.0089 -0.0262 0.0172 -2.4490 19.0330
#
#
#
# Elastic Compliance Matrix: (Units=1/GPa)
#
#
# Indices 1 2 3 4 5 6 
#
# 1 0.016450 -0.007499 -0.002522 -0.018494 -0.000229 -0.000002
# 2 -0.007499 0.016436 -0.002534 0.018582 0.000144 -0.000002
# 3 -0.002522 -0.002534 0.009441 0.000040 0.000063 0.000017
# 4 -0.018494 0.018582 0.000040 -0.293858 -0.000659 0.000170
# 5 -0.000229 0.000144 0.000063 -0.000659 -0.296650 -0.038170
# 6 -0.000002 -0.000002 0.000017 0.000170 -0.038170 0.047629
#
#
# Mechanical properties :
#
#
# Convention : Reuss Voigt Hill
#
# Bulk Modulus (GPa) = 58.07788 58.82027 58.44907
# Shear Modulus (GPa) = -10.64504 14.38904 1.87200
#
# Velocity S-wave (km/s) = -2.27967 2.65041 0.95598
# Velocity P-wave (km/s) = 4.62864 6.17107 5.45465
#
# Compressibility (1/GPa) = 0.01721826
#
# Stress axis : x y z
#
# Youngs Moduli (GPa) = 60.79169 60.84046 105.91608
#
# Poissons Ratio (x) = 0.45624 0.26714
# Poissons Ratio (y) = 0.45587 0.26834
# Poissons Ratio (z) = 0.15333 0.15414
#
# Static dielectric constant tensor:
#      x y z
#    x 1.584610 -0.000870 -0.000100 
#    y -0.000870 1.583990 -0.000020 
#    z -0.000100 -0.000020 1.660110 
# 
# From -- ./inp_files/797.got.cif
#   From: 2010.05.17/outbox.ucp.g08.bks.cvg/sg167_1_cif.got.tgz:797.got - 2010.06.11 15:17:31.
