data_PCOD9579346
_publ_section_title
;
Structure prediction by ZEFSAII (Michael W. Deem and Ramdas Pophale) SiO2 
 PCOD9579346
Probable space group: R -3 M
;
_chemical_formula_sum "Si O2"
_cell_formula_units_Z 126
_cell_length_a 29.556859
_cell_length_b 29.556859
_cell_length_c 8.395430
_cell_angle_alpha 90.000000
_cell_angle_beta 90.000000
_cell_angle_gamma 120.000000
_cell_volume 6351.702320
_symmetry_space_group_name_H-M "R -3 M"
_symmetry_group_IT_number 166
_symmetry_cell_setting 'hexagonal'
loop_
_space_group_symop_operation_xyz
x,y,z
-y,x-y,z
-x+y,-x,z
x-y,-y,-z
-x,-x+y,-z
y,x,-z
-x,-y,-z
y,-x+y,-z
x-y,x,-z
-x+y,y,z
x,x-y,z
-y,-x,z
2/3+x,1/3+y,1/3+z
2/3-y,1/3+x-y,1/3+z
2/3-x+y,1/3-x,1/3+z
2/3+x-y,1/3-y,1/3-z
2/3-x,1/3-x+y,1/3-z
2/3+y,1/3+x,1/3-z
2/3-x,1/3-y,1/3-z
2/3+y,1/3-x+y,1/3-z
2/3+x-y,1/3+x,1/3-z
2/3-x+y,1/3+y,1/3+z
2/3+x,1/3+x-y,1/3+z
2/3-y,1/3-x,1/3+z
1/3+x,2/3+y,2/3+z
1/3-y,2/3+x-y,2/3+z
1/3-x+y,2/3-x,2/3+z
1/3+x-y,2/3-y,2/3-z
1/3-x,2/3-x+y,2/3-z
1/3+y,2/3+x,2/3-z
1/3-x,2/3-y,2/3-z
1/3+y,2/3-x+y,2/3-z
1/3+x-y,2/3+x,2/3-z
1/3-x+y,2/3+y,2/3+z
1/3+x,2/3+x-y,2/3+z
1/3-y,2/3-x,2/3+z
loop_
_atom_site_type_symbol
_atom_site_label
_atom_site_fract_x
_atom_site_fract_y
_atom_site_fract_z
Si Si1 0.157015 0.631438 0.504458
Si Si2 0.047378 0.608873 0.598908
Si Si3 0.855873 0.522540 0.833334
Si Si4 0.233824 0.363427 0.187944
O O1 0.171698 0.585849 0.498193
O O2 0.180176 0.666667 0.666667
O O3 0.093630 0.603286 0.519223
O O4 0.169725 0.662728 0.334947
O O5 0.078667 0.666667 0.666667
O O6 0.000000 0.605978 0.500000
O O7 0.013174 0.561520 0.717508
O O8 0.864683 0.580713 0.834565
O O9 0.187267 0.374534 0.225229
O O10 0.242003 0.333334 0.333334
#
# Coordination Sequence:
#
# PCOD9579346 Si02
#       4
#    36  36  18  36
#     4  11  25  45  68  98 131 172 222 277 344 411
#     4  11  23  36  59  88 130 178 219 266 309 374
#     4  12  24  38  64  94 125 172 225 284 330 400
#     4  11  24  39  57  84 124 173 221 272 328 384
#
# _framework density 19.837202000000001
#
# number of rings (size 3 to 8) (size 9 to 14) (size 15 to 20)
#    0.000    0.857    2.857    5.143    2.000    5.714 
#    0.000    0.000    0.000    0.286    0.000    1.000 
#    0.000    0.000    0.000    0.000    0.000    0.000 
#
# Total GULP energy -233905.882362 kJ/mol
# GULP energy per Si atom -5569.187675 kJ/mol
# Density = 1.979205 g / cm^3
# Si number density = 19.837202 Si / 1000 Ang^3
#
#
#
# Elastic Constant Matrix: (Units=GPa)
#
#
# Indices 1 2 3 4 5 6 
#
# 1 136.1242 -30.3345 41.4700 -19.5252 -0.3223 0.5237
# 2 -30.3345 136.3311 41.0668 19.4917 0.2813 -0.5757
# 3 41.4700 41.0668 134.9236 -0.0416 -0.0576 0.1365
# 4 -19.5252 19.4917 -0.0416 12.2837 0.0686 -0.2020
# 5 -0.3223 0.2813 -0.0576 0.0686 12.2271 -19.3774
# 6 0.5237 -0.5757 0.1365 -0.2020 -19.3774 83.3945
#
#
#
# Elastic Compliance Matrix: (Units=1/GPa)
#
#
# Indices 1 2 3 4 5 6 
#
# 1 0.011009 0.001419 -0.003811 0.015233 0.000203 0.000031
# 2 0.001419 0.010952 -0.003774 -0.015134 -0.000143 0.000003
# 3 -0.003811 -0.003774 0.009732 -0.000036 0.000006 -0.000017
# 4 0.015233 -0.015134 -0.000036 0.129638 0.000321 0.000189
# 5 0.000203 -0.000143 0.000006 0.000321 0.129464 0.030080
# 6 0.000031 0.000003 -0.000017 0.000189 0.030080 0.018981
#
#
# Mechanical properties :
#
#
# Convention : Reuss Voigt Hill
#
# Bulk Modulus (GPa) = 51.65168 56.86486 54.25827
# Shear Modulus (GPa) = 15.21788 45.25950 30.23869
#
# Velocity S-wave (km/s) = 2.77273 4.78174 3.90852
# Velocity P-wave (km/s) = 6.02868 7.69511 6.91230
#
# Compressibility (1/GPa) = 0.01936045
#
# Stress axis : x y z
#
# Youngs Moduli (GPa) = 90.83612 91.30794 102.75652
#
# Poissons Ratio (x) = -0.12959 0.39160
# Poissons Ratio (y) = -0.12892 0.38784
# Poissons Ratio (z) = 0.34617 0.34463
#
# Static dielectric constant tensor:
#      x y z
#    x 1.646740 0.000010 -0.000230 
#    y 0.000010 1.646780 -0.000150 
#    z -0.000230 -0.000150 1.764080 
# 
# From -- ./inp_files/1626.got.cif
#   From: 2010.05.17/outbox.cif.g08.bks.cpg/sg166_1_cif.got.tgz:1626.got - 2010.05.20 11:04:41.
