data_PCOD9579860
_publ_section_title
;
Structure prediction by ZEFSAII (Michael W. Deem and Ramdas Pophale) SiO2 
 PCOD9579860
Probable space group: P 61
;
_chemical_formula_sum "Si O2"
_cell_formula_units_Z 30
_cell_length_a 12.439509
_cell_length_b 12.439509
_cell_length_c 11.805530
_cell_angle_alpha 90.000000
_cell_angle_beta 90.000000
_cell_angle_gamma 120.000000
_cell_volume 1582.058718
_symmetry_space_group_name_H-M "P 61"
_symmetry_group_IT_number 169
_symmetry_cell_setting 'hexagonal'
loop_
_space_group_symop_operation_xyz
x,y,z
x-y,x,1/6+z
-y,x-y,1/3+z
-x,-y,1/2+z
-x+y,-x,2/3+z
y,-x+y,5/6+z
loop_
_atom_site_type_symbol
_atom_site_label
_atom_site_fract_x
_atom_site_fract_y
_atom_site_fract_z
Si Si1 0.745830 0.590802 0.376950
Si Si2 0.395985 0.646101 0.354737
Si Si3 0.343511 0.855103 0.929688
Si Si4 0.190154 0.986229 0.884945
Si Si5 0.410810 0.962868 0.534037
O O1 0.688833 0.464240 0.451913
O O2 0.785603 0.704230 0.463893
O O3 0.656895 0.594851 0.283429
O O4 0.868013 0.595541 0.323976
O O5 0.248619 0.572842 0.355102
O O6 0.458721 0.669595 0.476245
O O7 0.436829 0.561847 0.282350
O O8 0.247107 0.904442 0.935543
O O9 0.481852 0.969180 0.943918
O O10 0.067848 0.896222 0.812994
#
# Coordination Sequence:
#
# PCOD9579860 Si02
#       5
#     6   6   6   6   6
#     4  10  19  40  62  92 118 170 217 254 318 387
#     4  10  23  37  63  91 124 167 204 270 325 390
#     4  12  22  40  62  96 132 162 214 270 338 394
#     4  12  22  42  72  91 126 182 228 258 320 403
#     4  10  22  35  63  92 120 161 211 266 315 390
#
# _framework density 18.962634999999999
#
# number of rings (size 3 to 8) (size 9 to 14) (size 15 to 20)
#    1.200    0.000    6.000    2.400    0.000    0.000 
#    3.600    2.000    0.000    0.000    0.000    0.000 
#    0.000    0.000    0.000    0.000    0.000    0.000 
#
# Total GULP energy -167292.644795 kJ/mol
# GULP energy per Si atom -5576.421493 kJ/mol
# Density = 1.891947 g / cm^3
# Si number density = 18.962635 Si / 1000 Ang^3
#
#
#
# Elastic Constant Matrix: (Units=GPa)
#
#
# Indices 1 2 3 4 5 6 
#
# 1 88.8023 21.6320 5.6609 0.0000 0.0000 0.0000
# 2 21.6320 88.8023 5.6609 0.0000 0.0000 0.0000
# 3 5.6609 5.6609 24.5580 0.0000 0.0000 0.0000
# 4 0.0000 0.0000 0.0000 23.7561 0.0000 0.0000
# 5 0.0000 0.0000 0.0000 0.0000 23.7561 0.0000
# 6 0.0000 0.0000 0.0000 0.0000 0.0000 33.5851
#
#
#
# Elastic Compliance Matrix: (Units=1/GPa)
#
#
# Indices 1 2 3 4 5 6 
#
# 1 0.012081 -0.002807 -0.002138 0.000000 0.000000 0.000000
# 2 -0.002807 0.012081 -0.002138 0.000000 0.000000 0.000000
# 3 -0.002138 -0.002138 0.041706 0.000000 0.000000 0.000000
# 4 0.000000 0.000000 0.000000 0.042094 0.000000 0.000000
# 5 0.000000 0.000000 0.000000 0.000000 0.042094 0.000000
# 6 0.000000 0.000000 0.000000 0.000000 0.000000 0.029775
#
#
# Mechanical properties :
#
#
# Convention : Reuss Voigt Hill
#
# Bulk Modulus (GPa) = 19.34131 29.78559 24.56345
# Shear Modulus (GPa) = 23.67086 27.50006 25.58546
#
# Velocity S-wave (km/s) = 3.53695 3.81231 3.67721
# Velocity P-wave (km/s) = 5.18670 5.92621 5.56874
#
# Compressibility (1/GPa) = 0.05170281
#
# Stress axis : x y z
#
# Youngs Moduli (GPa) = 82.77506 82.77506 23.97763
#
# Poissons Ratio (x) = 0.23232 0.05126
# Poissons Ratio (y) = 0.23232 0.05126
# Poissons Ratio (z) = 0.17696 0.17696
#
# Static dielectric constant tensor:
#      x y z
#    x 1.674500 0.000000 0.000000 
#    y 0.000000 1.674500 0.000000 
#    z 0.000000 0.000000 1.660740 
# 
# From -- ./inp_files/1133.got.cif
#   From: 2010.05.17/outbox.cif.g08.bks.cpg/sg169_cif.got.tgz:1133.got - 2010.05.20 11:12:54.
