data_PCOD9579865
_publ_section_title
;
Structure prediction by ZEFSAII (Michael W. Deem and Ramdas Pophale) SiO2 
 PCOD9579865
Probable space group: P 61
;
_chemical_formula_sum "Si O2"
_cell_formula_units_Z 36
_cell_length_a 13.586292
_cell_length_b 13.586292
_cell_length_c 9.393581
_cell_angle_alpha 90.000000
_cell_angle_beta 90.000000
_cell_angle_gamma 120.000000
_cell_volume 1501.632658
_symmetry_space_group_name_H-M "P 61"
_symmetry_group_IT_number 169
_symmetry_cell_setting 'hexagonal'
loop_
_space_group_symop_operation_xyz
x,y,z
x-y,x,1/6+z
-y,x-y,1/3+z
-x,-y,1/2+z
-x+y,-x,2/3+z
y,-x+y,5/6+z
loop_
_atom_site_type_symbol
_atom_site_label
_atom_site_fract_x
_atom_site_fract_y
_atom_site_fract_z
Si Si1 0.776272 0.832440 0.547900
Si Si2 0.074173 0.720347 0.063046
Si Si3 0.008541 0.383456 0.843934
Si Si4 0.707604 0.258021 0.639632
Si Si5 0.754628 0.515264 0.288693
Si Si6 0.428297 0.381841 0.123868
O O1 0.880018 0.814453 0.600021
O O2 0.722542 0.873210 0.675588
O O3 0.666294 0.707593 0.516270
O O4 0.163194 0.675343 0.090944
O O5 0.001492 0.644182 0.934335
O O6 0.016910 0.704379 0.215004
O O7 0.136280 0.421730 0.888031
O O8 0.897537 0.324791 0.944637
O O9 0.015003 0.497744 0.776240
O O10 0.615855 0.295578 0.667386
O O11 0.720321 0.208961 0.791523
O O12 0.653997 0.173620 0.504414
#
# Coordination Sequence:
#
# PCOD9579865 Si02
#       6
#     6   6   6   6   6   6
#     4   9  18  33  59  83 107 147 199 237 278 334
#     4   9  17  32  51  78 106 141 190 232 271 334
#     4  10  20  33  55  81 116 142 184 236 281 329
#     4   9  18  30  48  75 108 138 187 220 277 326
#     4  10  20  34  52  82 112 146 182 232 278 344
#     4   9  17  32  51  77 109 144 184 229 277 329
#
# _framework density 23.973904999999998
#
# number of rings (size 3 to 8) (size 9 to 14) (size 15 to 20)
#    0.000    2.667    1.667    0.000    4.667    0.000 
#    3.000    0.000    0.000    4.000    0.000    0.000 
#    0.000    0.000    0.000    0.000    0.000    0.000 
#
# Total GULP energy -200420.590372 kJ/mol
# GULP energy per Si atom -5567.238621 kJ/mol
# Density = 2.391934 g / cm^3
# Si number density = 23.973905 Si / 1000 Ang^3
#
#
#
# Elastic Constant Matrix: (Units=GPa)
#
#
# Indices 1 2 3 4 5 6 
#
# 1 116.8734 46.8241 16.9405 0.0000 0.0000 0.0000
# 2 46.8241 116.8734 16.9405 0.0000 0.0000 0.0000
# 3 16.9405 16.9405 48.2648 0.0000 0.0000 0.0000
# 4 0.0000 0.0000 0.0000 28.3035 0.0000 0.0000
# 5 0.0000 0.0000 0.0000 0.0000 28.3035 0.0000
# 6 0.0000 0.0000 0.0000 0.0000 0.0000 35.0247
#
#
#
# Elastic Compliance Matrix: (Units=1/GPa)
#
#
# Indices 1 2 3 4 5 6 
#
# 1 0.010432 -0.003844 -0.002312 0.000000 0.000000 0.000000
# 2 -0.003844 0.010432 -0.002312 0.000000 0.000000 0.000000
# 3 -0.002312 -0.002312 0.022342 0.000000 0.000000 0.000000
# 4 0.000000 0.000000 0.000000 0.035331 0.000000 0.000000
# 5 0.000000 0.000000 0.000000 0.000000 0.035331 0.000000
# 6 0.000000 0.000000 0.000000 0.000000 0.000000 0.028551
#
#
# Mechanical properties :
#
#
# Convention : Reuss Voigt Hill
#
# Bulk Modulus (GPa) = 38.06855 49.26910 43.66883
# Shear Modulus (GPa) = 29.74212 31.74679 30.74446
#
# Velocity S-wave (km/s) = 3.52604 3.64294 3.58496
# Velocity P-wave (km/s) = 5.70008 6.18792 5.94900
#
# Compressibility (1/GPa) = 0.02626840
#
# Stress axis : x y z
#
# Youngs Moduli (GPa) = 95.86339 95.86339 44.75861
#
# Poissons Ratio (x) = 0.36851 0.10349
# Poissons Ratio (y) = 0.36851 0.10349
# Poissons Ratio (z) = 0.22165 0.22165
#
# Static dielectric constant tensor:
#      x y z
#    x 1.993380 0.000000 0.000000 
#    y 0.000000 1.993380 0.000000 
#    z 0.000000 0.000000 1.950060 
# 
# From -- ./inp_files/891.got.cif
#   From: 2010.05.17/outbox.cif.g08.bks.cpg/sg169_cif.got.tgz:891.got - 2010.05.20 11:12:54.
