data_PCOD9579553
_publ_section_title
;
Structure prediction by ZEFSAII (Michael W. Deem and Ramdas Pophale) SiO2 
 PCOD9579553
Probable space group: R -3 C 
;
_chemical_formula_sum "Si O2"
_cell_formula_units_Z 216
_cell_length_a 22.654344
_cell_length_b 22.654344
_cell_length_c 22.543368
_cell_angle_alpha 90.000000
_cell_angle_beta 90.000000
_cell_angle_gamma 120.000000
_cell_volume 10019.646832
_symmetry_space_group_name_H-M "R -3 C "
_symmetry_group_IT_number 167
_symmetry_cell_setting 'hexagonal'
loop_
_space_group_symop_operation_xyz
x,y,z
-y,x-y,z
-x+y,-x,z
x-y,-y,1/2-z
-x,-x+y,1/2-z
y,x,1/2-z
-x,-y,-z
y,-x+y,-z
x-y,x,-z
-x+y,y,1/2+z
x,x-y,1/2+z
-y,-x,1/2+z
2/3+x,1/3+y,1/3+z
2/3-y,1/3+x-y,1/3+z
2/3-x+y,1/3-x,1/3+z
2/3+x-y,1/3-y,5/6-z
2/3-x,1/3-x+y,5/6-z
2/3+y,1/3+x,5/6-z
2/3-x,1/3-y,1/3-z
2/3+y,1/3-x+y,1/3-z
2/3+x-y,1/3+x,1/3-z
2/3-x+y,1/3+y,5/6+z
2/3+x,1/3+x-y,5/6+z
2/3-y,1/3-x,5/6+z
1/3+x,2/3+y,2/3+z
1/3-y,2/3+x-y,2/3+z
1/3-x+y,2/3-x,2/3+z
1/3+x-y,2/3-y,1/6-z
1/3-x,2/3-x+y,1/6-z
1/3+y,2/3+x,1/6-z
1/3-x,2/3-y,2/3-z
1/3+y,2/3-x+y,2/3-z
1/3+x-y,2/3+x,2/3-z
1/3-x+y,2/3+y,1/6+z
1/3+x,2/3+x-y,1/6+z
1/3-y,2/3-x,1/6+z
loop_
_atom_site_type_symbol
_atom_site_label
_atom_site_fract_x
_atom_site_fract_y
_atom_site_fract_z
Si Si1 0.384738 0.919501 0.004755
Si Si2 0.803409 0.706456 0.295982
Si Si3 0.810311 0.438173 0.910880
Si Si4 0.842474 0.885010 0.562803
Si Si5 0.594297 0.659833 0.210213
Si Si6 0.259870 0.900679 0.437874
O O1 0.399951 0.867425 0.039411
O O2 0.424695 0.987699 0.042570
O O3 0.302780 0.888562 0.003739
O O4 0.407600 0.932584 0.937251
O O5 0.740998 0.628844 0.297958
O O6 0.875983 0.712106 0.304523
O O7 0.775919 0.356920 0.913498
O O8 0.769006 0.478614 0.918707
O O9 0.831933 0.450731 0.842060
O O10 0.776994 0.811489 0.576530
O O11 0.643836 0.643836 0.250000
O O12 0.594318 0.625235 0.147686
O O13 0.333334 0.914402 0.416667
#
# Coordination Sequence:
#
# PCOD9579553 Si02
#       6
#    36  36  36  36  36  36
#     4  11  22  45  64  90 133 173 219 265 341 400
#     4  11  25  44  66  91 133 176 222 275 332 413
#     4  10  21  40  66  95 131 175 213 273 338 394
#     4  10  22  39  65 100 131 168 223 272 329 400
#     4  12  24  42  62  99 135 167 218 278 330 398
#     4  12  24  42  69  97 131 175 220 274 342 407
#
# _framework density 21.557646999999999
#
# number of rings (size 3 to 8) (size 9 to 14) (size 15 to 20)
#    0.000    1.000    5.000    1.833    4.667    2.667 
#    0.000    0.000    0.000    0.000    0.000    0.000 
#    0.000    0.000    0.000    0.000    0.000    0.000 
#
# Total GULP energy -401765.568281 kJ/mol
# GULP energy per Si atom -5580.077337 kJ/mol
# Density = 2.150858 g / cm^3
# Si number density = 21.557647 Si / 1000 Ang^3
#
#
#
# Elastic Constant Matrix: (Units=GPa)
#
#
# Indices 1 2 3 4 5 6 
#
# 1 77.9573 22.1520 -0.0209 3.3147 -0.0002 0.0000
# 2 22.1520 77.9573 -0.0209 -3.3147 0.0002 0.0000
# 3 -0.0209 -0.0209 27.3181 0.0000 0.0000 0.0000
# 4 3.3147 -3.3147 0.0000 21.2985 0.0000 0.0002
# 5 -0.0002 0.0002 0.0000 0.0000 21.2985 3.3147
# 6 0.0000 0.0000 0.0000 0.0002 3.3147 27.9026
#
#
#
# Elastic Compliance Matrix: (Units=1/GPa)
#
#
# Indices 1 2 3 4 5 6 
#
# 1 0.014123 -0.004134 0.000008 -0.002841 0.000000 0.000000
# 2 -0.004134 0.014123 0.000008 0.002841 0.000000 0.000000
# 3 0.000008 0.000008 0.036606 0.000000 0.000000 0.000000
# 4 -0.002841 0.002841 0.000000 0.047836 0.000000 0.000000
# 5 0.000000 0.000000 0.000000 0.000000 0.047836 -0.005683
# 6 0.000000 0.000000 0.000000 0.000000 -0.005683 0.036514
#
#
# Mechanical properties :
#
#
# Convention : Reuss Voigt Hill
#
# Bulk Modulus (GPa) = 17.66335 25.27260 21.46798
# Shear Modulus (GPa) = 22.30683 24.84143 23.57413
#
# Velocity S-wave (km/s) = 3.22025 3.39828 3.31046
# Velocity P-wave (km/s) = 4.69446 5.21022 4.95905
#
# Compressibility (1/GPa) = 0.05661439
#
# Stress axis : x y z
#
# Youngs Moduli (GPa) = 70.80632 70.80632 27.31813
#
# Poissons Ratio (x) = 0.29271 -0.00021
# Poissons Ratio (y) = 0.29271 -0.00021
# Poissons Ratio (z) = -0.00054 -0.00054
#
# Static dielectric constant tensor:
#      x y z
#    x 1.872260 0.000000 0.000000 
#    y 0.000000 1.872260 0.000000 
#    z 0.000000 0.000000 1.771970 
# 
# From -- ./inp_files/5508.got.cif
#   From: 2010.05.17/outbox.cif.g08.bks.cpg/sg167_3_cif.got.tgz:5508.got - 2010.05.20 11:09:15.
