data_PCOD9579078
_publ_section_title
;
Structure prediction by ZEFSAII (Michael W. Deem and Ramdas Pophale) SiO2 
 PCOD9579078
Probable space group: R -3 M
;
_chemical_formula_sum "Si O2"
_cell_formula_units_Z 216
_cell_length_a 26.527061
_cell_length_b 26.527061
_cell_length_c 23.700056
_cell_angle_alpha 90.000000
_cell_angle_beta 90.000000
_cell_angle_gamma 120.000000
_cell_volume 14443.028759
_symmetry_space_group_name_H-M "R -3 M"
_symmetry_group_IT_number 166
_symmetry_cell_setting 'hexagonal'
loop_
_space_group_symop_operation_xyz
x,y,z
-y,x-y,z
-x+y,-x,z
x-y,-y,-z
-x,-x+y,-z
y,x,-z
-x,-y,-z
y,-x+y,-z
x-y,x,-z
-x+y,y,z
x,x-y,z
-y,-x,z
2/3+x,1/3+y,1/3+z
2/3-y,1/3+x-y,1/3+z
2/3-x+y,1/3-x,1/3+z
2/3+x-y,1/3-y,1/3-z
2/3-x,1/3-x+y,1/3-z
2/3+y,1/3+x,1/3-z
2/3-x,1/3-y,1/3-z
2/3+y,1/3-x+y,1/3-z
2/3+x-y,1/3+x,1/3-z
2/3-x+y,1/3+y,1/3+z
2/3+x,1/3+x-y,1/3+z
2/3-y,1/3-x,1/3+z
1/3+x,2/3+y,2/3+z
1/3-y,2/3+x-y,2/3+z
1/3-x+y,2/3-x,2/3+z
1/3+x-y,2/3-y,2/3-z
1/3-x,2/3-x+y,2/3-z
1/3+y,2/3+x,2/3-z
1/3-x,2/3-y,2/3-z
1/3+y,2/3-x+y,2/3-z
1/3+x-y,2/3+x,2/3-z
1/3-x+y,2/3+y,2/3+z
1/3+x,2/3+x-y,2/3+z
1/3-y,2/3-x,2/3+z
loop_
_atom_site_type_symbol
_atom_site_label
_atom_site_fract_x
_atom_site_fract_y
_atom_site_fract_z
Si Si1 0.212807 0.667142 0.337286
Si Si2 0.257724 0.268859 0.860353
Si Si3 0.807762 0.964259 0.557835
Si Si4 0.776508 0.672330 0.421374
Si Si5 0.319341 0.218367 0.042245
Si Si6 0.831269 0.780803 0.237824
O O1 0.221935 0.610968 0.337631
O O2 0.273320 0.726681 0.343100
O O3 0.181675 0.664699 0.277833
O O4 0.167597 0.656287 0.387869
O O5 0.293121 0.333334 0.833334
O O6 0.300620 0.244298 0.871624
O O7 0.233022 0.279409 0.918666
O O8 0.206370 0.227892 0.817722
O O9 0.812023 0.906012 0.550762
O O10 0.740650 0.942407 0.572589
O O11 0.826178 0.000000 0.500000
O O12 0.832933 0.665865 0.432436
O O13 0.756468 0.651654 0.357354
O O14 0.304172 0.152086 0.051755
O O15 0.386732 0.257815 0.061376
O O16 0.893113 0.786225 0.222900
#
# Coordination Sequence:
#
# PCOD9579078 Si02
#       6
#    36  36  36  36  36  36
#     4  10  19  32  50  71  95 124 159 198 240 283
#     4  10  19  29  47  72  92 119 153 193 228 273
#     4  10  19  32  49  67  90 122 160 200 241 282
#     4  10  19  31  46  65  94 125 154 188 228 279
#     4   9  16  30  49  69  90 117 151 190 233 274
#     4   9  17  31  48  69  95 121 150 189 237 282
#
# _framework density 14.955311999999999
#
# number of rings (size 3 to 8) (size 9 to 14) (size 15 to 20)
#    0.000    2.333    1.667    2.167    0.000    2.667 
#    0.000    0.000    0.000    2.667    0.000    5.833 
#    0.000    0.000    0.000    0.000    0.000   50.500 
#
# Total GULP energy -401339.764435 kJ/mol
# GULP energy per Si atom -5574.163395 kJ/mol
# Density = 1.492127 g / cm^3
# Si number density = 14.955312 Si / 1000 Ang^3
#
#
#
# Elastic Constant Matrix: (Units=GPa)
#
#
# Indices 1 2 3 4 5 6 
#
# 1 78.5712 45.1241 57.2303 -0.1874 0.0001 0.0000
# 2 45.1241 78.5712 57.2303 0.1874 -0.0001 0.0000
# 3 57.2303 57.2303 84.1038 0.0000 0.0000 0.0000
# 4 -0.1874 0.1874 0.0000 23.2476 0.0000 -0.0001
# 5 0.0001 -0.0001 0.0000 0.0000 23.2476 -0.1874
# 6 0.0000 0.0000 0.0000 -0.0001 -0.1874 16.7236
#
#
#
# Elastic Compliance Matrix: (Units=1/GPa)
#
#
# Indices 1 2 3 4 5 6 
#
# 1 0.025865 -0.004035 -0.014855 0.000241 0.000000 0.000000
# 2 -0.004035 0.025865 -0.014855 -0.000241 0.000000 0.000000
# 3 -0.014855 -0.014855 0.032107 0.000000 0.000000 0.000000
# 4 0.000241 -0.000241 0.000000 0.043019 0.000000 0.000000
# 5 0.000000 0.000000 0.000000 0.000000 0.043019 0.000482
# 6 0.000000 0.000000 0.000000 0.000000 0.000482 0.059801
#
#
# Mechanical properties :
#
#
# Convention : Reuss Voigt Hill
#
# Bulk Modulus (GPa) = 61.17067 62.26843 61.71955
# Shear Modulus (GPa) = 16.52259 18.08786 17.30523
#
# Velocity S-wave (km/s) = 3.32746 3.48150 3.40535
# Velocity P-wave (km/s) = 7.46684 7.60841 7.53796
#
# Compressibility (1/GPa) = 0.01634771
#
# Stress axis : x y z
#
# Youngs Moduli (GPa) = 38.66164 38.66164 31.14613
#
# Poissons Ratio (x) = 0.15601 0.46267
# Poissons Ratio (y) = 0.15601 0.46267
# Poissons Ratio (z) = 0.57431 0.57431
#
# Static dielectric constant tensor:
#      x y z
#    x 1.475300 0.000000 0.000000 
#    y 0.000000 1.475300 0.000000 
#    z 0.000000 0.000000 1.491940 
# 
# From -- ./inp_files/7127.got.cif
#   From: 2010.05.17/outbox.cif.g08.bks.cpg/sg166_4_cif.got.tgz:7127.got - 2010.05.20 11:04:41.
