data_PCOD9579493
_publ_section_title
;
Structure prediction by ZEFSAII (Michael W. Deem and Ramdas Pophale) SiO2 
 PCOD9579493
Probable space group: R -3 C 
;
_chemical_formula_sum "Si O2"
_cell_formula_units_Z 72
_cell_length_a 14.034843
_cell_length_b 14.034843
_cell_length_c 14.493271
_cell_angle_alpha 90.000000
_cell_angle_beta 90.000000
_cell_angle_gamma 120.000000
_cell_volume 2472.362582
_symmetry_space_group_name_H-M "R -3 C "
_symmetry_group_IT_number 167
_symmetry_cell_setting 'hexagonal'
loop_
_space_group_symop_operation_xyz
x,y,z
-y,x-y,z
-x+y,-x,z
x-y,-y,1/2-z
-x,-x+y,1/2-z
y,x,1/2-z
-x,-y,-z
y,-x+y,-z
x-y,x,-z
-x+y,y,1/2+z
x,x-y,1/2+z
-y,-x,1/2+z
2/3+x,1/3+y,1/3+z
2/3-y,1/3+x-y,1/3+z
2/3-x+y,1/3-x,1/3+z
2/3+x-y,1/3-y,5/6-z
2/3-x,1/3-x+y,5/6-z
2/3+y,1/3+x,5/6-z
2/3-x,1/3-y,1/3-z
2/3+y,1/3-x+y,1/3-z
2/3+x-y,1/3+x,1/3-z
2/3-x+y,1/3+y,5/6+z
2/3+x,1/3+x-y,5/6+z
2/3-y,1/3-x,5/6+z
1/3+x,2/3+y,2/3+z
1/3-y,2/3+x-y,2/3+z
1/3-x+y,2/3-x,2/3+z
1/3+x-y,2/3-y,1/6-z
1/3-x,2/3-x+y,1/6-z
1/3+y,2/3+x,1/6-z
1/3-x,2/3-y,2/3-z
1/3+y,2/3-x+y,2/3-z
1/3+x-y,2/3+x,2/3-z
1/3-x+y,2/3+y,1/6+z
1/3+x,2/3+x-y,1/6+z
1/3-y,2/3-x,1/6+z
loop_
_atom_site_type_symbol
_atom_site_label
_atom_site_fract_x
_atom_site_fract_y
_atom_site_fract_z
Si Si1 0.750565 0.581753 0.244078
Si Si2 0.462225 0.274436 0.988360
O O1 0.833334 0.666667 0.166667
O O2 0.764411 0.669697 0.320967
O O3 0.631175 0.503709 0.202970
O O4 0.806972 0.506562 0.256594
O O5 0.528435 0.333334 0.083334
#
# Coordination Sequence:
#
# PCOD9579493 Si02
#       2
#    36  36
#     4  10  20  37  61  90 116 155 200 241 286 353
#     4  10  20  37  61  90 118 155 199 241 289 353
#
# _framework density 29.121942000000001
#
# number of rings (size 3 to 8) (size 9 to 14) (size 15 to 20)
#    0.000    2.000    0.000    7.000    0.000    4.000 
#    0.000   35.000    0.000    0.000    0.000   94.500 
#    0.000    0.000    0.000    0.000    0.000    0.000 
#
# Total GULP energy -134596.166756 kJ/mol
# GULP energy per Si atom -5608.173615 kJ/mol
# Density = 2.905566 g / cm^3
# Si number density = 29.121942 Si / 1000 Ang^3
#
#
#
# Elastic Constant Matrix: (Units=GPa)
#
#
# Indices 1 2 3 4 5 6 
#
# 1 230.6427 80.2479 38.1983 12.1383 0.0000 0.0000
# 2 80.2479 230.6427 38.1983 -12.1383 0.0000 0.0000
# 3 38.1983 38.1983 160.8275 0.0000 0.0000 0.0000
# 4 12.1383 -12.1383 0.0000 54.9724 0.0000 0.0000
# 5 0.0000 0.0000 0.0000 0.0000 54.9724 12.1383
# 6 0.0000 0.0000 0.0000 0.0000 12.1383 75.1974
#
#
#
# Elastic Compliance Matrix: (Units=1/GPa)
#
#
# Indices 1 2 3 4 5 6 
#
# 1 0.005155 -0.001739 -0.000811 -0.001522 0.000000 0.000000
# 2 -0.001739 0.005155 -0.000811 0.001522 0.000000 0.000000
# 3 -0.000811 -0.000811 0.006603 0.000000 0.000000 0.000000
# 4 -0.001522 0.001522 0.000000 0.018863 0.000000 0.000000
# 5 0.000000 0.000000 0.000000 0.000000 0.018863 -0.003045
# 6 0.000000 0.000000 0.000000 0.000000 -0.003045 0.013790
#
#
# Mechanical properties :
#
#
# Convention : Reuss Voigt Hill
#
# Bulk Modulus (GPa) = 98.13716 103.93354 101.03535
# Shear Modulus (GPa) = 63.65266 68.05969 65.85618
#
# Velocity S-wave (km/s) = 4.68025 4.83956 4.76057
# Velocity P-wave (km/s) = 7.93588 8.18505 8.06143
#
# Compressibility (1/GPa) = 0.01018982
#
# Stress axis : x y z
#
# Youngs Moduli (GPa) = 193.97041 193.97041 151.44089
#
# Poissons Ratio (x) = 0.33741 0.12287
# Poissons Ratio (y) = 0.33741 0.12287
# Poissons Ratio (z) = 0.15737 0.15737
#
# Static dielectric constant tensor:
#      x y z
#    x 2.319730 0.000000 0.000000 
#    y 0.000000 2.319730 0.000000 
#    z 0.000000 0.000000 3.714660 
# 
# From -- ./inp_files/2734.got.cif
#   From: 2010.05.17/outbox.cif.g08.bks.cpg/sg167_2_cif.got.tgz:2734.got - 2010.05.20 11:09:15.
