data_PCOD9579662
_publ_section_title
;
Structure prediction by ZEFSAII (Michael W. Deem and Ramdas Pophale) SiO2 
 PCOD9579662
Probable space group: R -3 C 
;
_chemical_formula_sum "Si O2"
_cell_formula_units_Z 162
_cell_length_a 21.417491
_cell_length_b 21.417491
_cell_length_c 20.723785
_cell_angle_alpha 90.000000
_cell_angle_beta 90.000000
_cell_angle_gamma 120.000000
_cell_volume 8232.597747
_symmetry_space_group_name_H-M "R -3 C "
_symmetry_group_IT_number 167
_symmetry_cell_setting 'hexagonal'
loop_
_space_group_symop_operation_xyz
x,y,z
-y,x-y,z
-x+y,-x,z
x-y,-y,1/2-z
-x,-x+y,1/2-z
y,x,1/2-z
-x,-y,-z
y,-x+y,-z
x-y,x,-z
-x+y,y,1/2+z
x,x-y,1/2+z
-y,-x,1/2+z
2/3+x,1/3+y,1/3+z
2/3-y,1/3+x-y,1/3+z
2/3-x+y,1/3-x,1/3+z
2/3+x-y,1/3-y,5/6-z
2/3-x,1/3-x+y,5/6-z
2/3+y,1/3+x,5/6-z
2/3-x,1/3-y,1/3-z
2/3+y,1/3-x+y,1/3-z
2/3+x-y,1/3+x,1/3-z
2/3-x+y,1/3+y,5/6+z
2/3+x,1/3+x-y,5/6+z
2/3-y,1/3-x,5/6+z
1/3+x,2/3+y,2/3+z
1/3-y,2/3+x-y,2/3+z
1/3-x+y,2/3-x,2/3+z
1/3+x-y,2/3-y,1/6-z
1/3-x,2/3-x+y,1/6-z
1/3+y,2/3+x,1/6-z
1/3-x,2/3-y,2/3-z
1/3+y,2/3-x+y,2/3-z
1/3+x-y,2/3+x,2/3-z
1/3-x+y,2/3+y,1/6+z
1/3+x,2/3+x-y,1/6+z
1/3-y,2/3-x,1/6+z
loop_
_atom_site_type_symbol
_atom_site_label
_atom_site_fract_x
_atom_site_fract_y
_atom_site_fract_z
Si Si1 0.833960 0.435196 0.319315
Si Si2 0.595349 0.521259 0.717180
Si Si3 0.674316 0.746142 0.436210
Si Si4 0.958836 0.292170 0.916667
Si Si5 0.888824 0.203037 0.567071
O O1 0.798021 0.352324 0.338120
O O2 0.861617 0.448262 0.245163
O O3 0.905808 0.485727 0.361271
O O4 0.536033 0.536033 0.750000
O O5 0.670995 0.585637 0.743064
O O6 0.584252 0.532517 0.643592
O O7 0.611592 0.666667 0.416667
O O8 0.679361 0.749484 0.514977
O O9 0.668723 0.811755 0.405681
O O10 0.967449 0.370472 0.931593
#
# Coordination Sequence:
#
# PCOD9579662 Si02
#       5
#    36  36  36  18  36
#     4  11  20  33  53  83 115 152 188 244 292 344
#     4   9  18  36  53  77 115 143 187 239 278 341
#     4  11  22  39  56  89 120 143 200 243 279 355
#     4  12  22  34  64  88 108 164 190 228 312 342
#     4  11  22  36  61  83 118 159 188 240 294 345
#
# _framework density 19.677872000000001
#
# number of rings (size 3 to 8) (size 9 to 14) (size 15 to 20)
#    0.000    1.333    8.889    0.222    7.778    0.889 
#    0.000    0.000    0.000    0.000    0.000    0.000 
#    1.111    0.000    0.000    0.000    0.000    0.000 
#
# Total GULP energy -300905.651010 kJ/mol
# GULP energy per Si atom -5572.326871 kJ/mol
# Density = 1.963308 g / cm^3
# Si number density = 19.677872 Si / 1000 Ang^3
#
#
#
# Elastic Constant Matrix: (Units=GPa)
#
#
# Indices 1 2 3 4 5 6 
#
# 1 103.1753 55.6318 20.8936 -3.2128 0.0001 0.0000
# 2 55.6318 103.1753 20.8936 3.2128 -0.0001 0.0000
# 3 20.8936 20.8936 41.4172 0.0000 0.0000 0.0000
# 4 -3.2128 3.2128 0.0000 21.2940 0.0000 -0.0001
# 5 0.0001 -0.0001 0.0000 0.0000 21.2940 -3.2128
# 6 0.0000 0.0000 0.0000 -0.0001 -3.2128 23.7717
#
#
#
# Elastic Compliance Matrix: (Units=1/GPa)
#
#
# Indices 1 2 3 4 5 6 
#
# 1 0.014366 -0.007105 -0.003663 0.003240 0.000000 0.000000
# 2 -0.007105 0.014366 -0.003663 -0.003240 0.000000 0.000000
# 3 -0.003663 -0.003663 0.027840 0.000000 0.000000 0.000000
# 4 0.003240 -0.003240 0.000000 0.047939 0.000000 0.000000
# 5 0.000000 0.000000 0.000000 0.000000 0.047939 0.006479
# 6 0.000000 0.000000 0.000000 0.000000 0.006479 0.042942
#
#
# Mechanical properties :
#
#
# Convention : Reuss Voigt Hill
#
# Bulk Modulus (GPa) = 36.08761 49.17844 42.63303
# Shear Modulus (GPa) = 21.41408 23.29519 22.35463
#
# Velocity S-wave (km/s) = 3.30241 3.44441 3.37416
# Velocity P-wave (km/s) = 5.73762 6.39254 6.07391
#
# Compressibility (1/GPa) = 0.02771034
#
# Stress axis : x y z
#
# Youngs Moduli (GPa) = 69.60885 69.60885 35.91945
#
# Poissons Ratio (x) = 0.49459 0.13157
# Poissons Ratio (y) = 0.49459 0.13157
# Poissons Ratio (z) = 0.25496 0.25496
#
# Static dielectric constant tensor:
#      x y z
#    x 1.715540 0.000000 0.000000 
#    y 0.000000 1.715540 0.000000 
#    z 0.000000 0.000000 1.796820 
# 
# From -- ./inp_files/5318.got.cif
#   From: 2010.05.17/outbox.cif.g08.bks.cpg/sg167_3_cif.got.tgz:5318.got - 2010.05.20 11:09:15.
