data_PCOD9579365
_publ_section_title
;
Structure prediction by ZEFSAII (Michael W. Deem and Ramdas Pophale) SiO2 
 PCOD9579365
Probable space group: R -3 M
;
_chemical_formula_sum "Si O2"
_cell_formula_units_Z 48
_cell_length_a 30.000000
_cell_length_b 30.000000
_cell_length_c 9.000000
_cell_angle_alpha 90.000000
_cell_angle_beta 90.000000
_cell_angle_gamma 120.000000
_cell_volume 7014.805771
_symmetry_space_group_name_H-M "R -3 M"
_symmetry_group_IT_number 166
_symmetry_cell_setting 'hexagonal'
loop_
_space_group_symop_operation_xyz
x,y,z
-y,x-y,z
-x+y,-x,z
x-y,-y,-z
-x,-x+y,-z
y,x,-z
-x,-y,-z
y,-x+y,-z
x-y,x,-z
-x+y,y,z
x,x-y,z
-y,-x,z
2/3+x,1/3+y,1/3+z
2/3-y,1/3+x-y,1/3+z
2/3-x+y,1/3-x,1/3+z
2/3+x-y,1/3-y,1/3-z
2/3-x,1/3-x+y,1/3-z
2/3+y,1/3+x,1/3-z
2/3-x,1/3-y,1/3-z
2/3+y,1/3-x+y,1/3-z
2/3+x-y,1/3+x,1/3-z
2/3-x+y,1/3+y,1/3+z
2/3+x,1/3+x-y,1/3+z
2/3-y,1/3-x,1/3+z
1/3+x,2/3+y,2/3+z
1/3-y,2/3+x-y,2/3+z
1/3-x+y,2/3-x,2/3+z
1/3+x-y,2/3-y,2/3-z
1/3-x,2/3-x+y,2/3-z
1/3+y,2/3+x,2/3-z
1/3-x,2/3-y,2/3-z
1/3+y,2/3-x+y,2/3-z
1/3+x-y,2/3+x,2/3-z
1/3-x+y,2/3+y,2/3+z
1/3+x,2/3+x-y,2/3+z
1/3-y,2/3-x,2/3+z
loop_
_atom_site_type_symbol
_atom_site_label
_atom_site_fract_x
_atom_site_fract_y
_atom_site_fract_z
Si Si1 0.038760 0.429813 0.194236
Si Si2 0.416349 0.936328 0.866241
Si Si3 0.356287 0.541342 0.822802
Si Si4 0.381897 0.518048 0.275809
O O1 0.050984 0.384318 0.166667
O O2 0.078922 0.471162 0.310894
O O3 0.979434 0.410194 0.221378
O O4 0.055715 0.461962 0.038483
O O5 0.474889 0.949778 0.851764
O O6 0.381663 0.877309 0.818252
O O7 0.402712 0.597289 0.871460
O O8 0.333334 0.543982 0.666667
O O9 0.307214 0.510457 0.926897
O O10 0.433753 0.566248 0.214960
O O11 0.333334 0.492777 0.166667
#
# Coordination Sequence:
#
# PCOD9579365 Si02
#       4
#    36  36  36  36
#     4  10  18  32  57  88 116 150 192 236 285 337
#     4  10  19  35  56  82 118 156 192 234 286 346
#     4  11  23  41  60  83 115 157 199 238 294 356
#     4  11  20  35  61  90 114 145 195 246 295 347
#
# _framework density 6.84267
#
# number of rings (size 3 to 8) (size 9 to 14) (size 15 to 20)
#    0.000    1.500    5.000    4.500    0.000    0.000 
#    4.500    1.250    0.000   14.500    0.000    0.000 
#    0.000    0.000    0.000    0.000    0.000    0.000 
#
# Total GULP energy -267622.765613 kJ/mol
# GULP energy per Si atom -5575.474284 kJ/mol
# Density = 0.682710 g / cm^3
# Si number density = 6.842670 Si / 1000 Ang^3
#
#
#
# Elastic Constant Matrix: (Units=GPa)
#
#
# Indices 1 2 3 4 5 6 
#
# 1 85.2221 56.4688 -13.0222 -0.0076 -0.0148 -0.0044
# 2 56.4688 85.2642 -12.9185 0.0089 0.0472 -0.0139
# 3 -13.0222 -12.9185 18.1343 0.0058 0.0702 -0.0344
# 4 -0.0076 0.0089 0.0058 21.3479 -0.0054 -0.0058
# 5 -0.0148 0.0472 0.0702 -0.0054 21.3643 -0.0096
# 6 -0.0044 -0.0139 -0.0344 -0.0058 -0.0096 14.3363
#
#
#
# Elastic Compliance Matrix: (Units=1/GPa)
#
#
# Indices 1 2 3 4 5 6 
#
# 1 0.021464 -0.013317 0.005926 0.000012 0.000025 0.000008
# 2 -0.013317 0.021410 0.005690 -0.000015 -0.000075 0.000030
# 3 0.005926 0.005690 0.063454 -0.000018 -0.000217 0.000159
# 4 0.000012 -0.000015 -0.000018 0.046843 0.000012 0.000019
# 5 0.000025 -0.000075 -0.000217 0.000012 0.046808 0.000031
# 6 0.000008 0.000030 0.000159 0.000019 0.000031 0.069754
#
#
# Mechanical properties :
#
#
# Convention : Reuss Voigt Hill
#
# Bulk Modulus (GPa) = 9.71587 27.74185 18.72886
# Shear Modulus (GPa) = 16.26317 21.94919 19.10618
#
# Velocity S-wave (km/s) = 2.81773 3.27346 3.05411
# Velocity P-wave (km/s) = 3.91528 5.27549 4.64544
#
# Compressibility (1/GPa) = 0.10292439
#
# Stress axis : x y z
#
# Youngs Moduli (GPa) = 46.59071 46.70730 15.75946
#
# Poissons Ratio (x) = 0.62200 -0.09339
# Poissons Ratio (y) = 0.62045 -0.08966
# Poissons Ratio (z) = -0.27610 -0.26574
#
# Static dielectric constant tensor:
#      x y z
#    x 1.116360 0.004260 0.000600 
#    y 0.004260 1.124030 -0.000690 
#    z 0.000600 -0.000690 1.883200 
# 
# From -- ./inp_files/1761.got.cif
#   From: 2010.05.17/outbox.ucp.g08.bks.cvg/sg166_1_cif.got.tgz:1761.got - 2010.06.11 15:16:39.
