data_PCOD9579077
_publ_section_title
;
Structure prediction by ZEFSAII (Michael W. Deem and Ramdas Pophale) SiO2 
 PCOD9579077
Probable space group: R -3 M
;
_chemical_formula_sum "Si O2"
_cell_formula_units_Z 180
_cell_length_a 23.292299
_cell_length_b 23.292299
_cell_length_c 26.983778
_cell_angle_alpha 90.000000
_cell_angle_beta 90.000000
_cell_angle_gamma 120.000000
_cell_volume 12678.214633
_symmetry_space_group_name_H-M "R -3 M"
_symmetry_group_IT_number 166
_symmetry_cell_setting 'hexagonal'
loop_
_space_group_symop_operation_xyz
x,y,z
-y,x-y,z
-x+y,-x,z
x-y,-y,-z
-x,-x+y,-z
y,x,-z
-x,-y,-z
y,-x+y,-z
x-y,x,-z
-x+y,y,z
x,x-y,z
-y,-x,z
2/3+x,1/3+y,1/3+z
2/3-y,1/3+x-y,1/3+z
2/3-x+y,1/3-x,1/3+z
2/3+x-y,1/3-y,1/3-z
2/3-x,1/3-x+y,1/3-z
2/3+y,1/3+x,1/3-z
2/3-x,1/3-y,1/3-z
2/3+y,1/3-x+y,1/3-z
2/3+x-y,1/3+x,1/3-z
2/3-x+y,1/3+y,1/3+z
2/3+x,1/3+x-y,1/3+z
2/3-y,1/3-x,1/3+z
1/3+x,2/3+y,2/3+z
1/3-y,2/3+x-y,2/3+z
1/3-x+y,2/3-x,2/3+z
1/3+x-y,2/3-y,2/3-z
1/3-x,2/3-x+y,2/3-z
1/3+y,2/3+x,2/3-z
1/3-x,2/3-y,2/3-z
1/3+y,2/3-x+y,2/3-z
1/3+x-y,2/3+x,2/3-z
1/3-x+y,2/3+y,2/3+z
1/3+x,2/3+x-y,2/3+z
1/3-y,2/3-x,2/3+z
loop_
_atom_site_type_symbol
_atom_site_label
_atom_site_fract_x
_atom_site_fract_y
_atom_site_fract_z
Si Si1 0.394590 0.348959 0.548246
Si Si2 0.078050 0.921951 0.988705
Si Si3 0.009231 0.504615 0.429878
Si Si4 0.475180 0.237590 0.206354
Si Si5 0.930149 0.304238 0.387378
Si Si6 0.025695 0.512848 0.685647
Si Si7 0.038446 0.825834 0.146723
O O1 0.362996 0.362996 0.500000
O O2 0.462367 0.417471 0.559429
O O3 0.343712 0.338219 0.592640
O O4 0.412669 0.295253 0.528072
O O5 0.085850 0.914151 0.930569
O O6 0.113269 0.886732 0.017796
O O7 0.000000 0.885548 0.000000
O O8 0.938832 0.469416 0.459095
O O9 0.993772 0.496886 0.371543
O O10 0.502765 0.308945 0.181993
O O11 0.928351 0.333334 0.333334
O O12 0.890628 0.225574 0.378500
O O13 0.887155 0.313120 0.430628
O O14 0.107314 0.892687 0.140196
#
# Coordination Sequence:
#
# PCOD9579077 Si02
#       7
#    36  18  18  18  36  18  36
#     4  10  19  29  46  65  86 115 152 185 219 261
#     4  11  23  29  37  54  88 126 154 173 209 261
#     4  11  16  28  49  69  87 112 149 194 226 243
#     4  11  19  31  45  59  84 118 160 192 214 247
#     4  11  18  29  47  70  91 110 143 186 227 262
#     4  11  18  27  46  69  88 110 139 186 232 259
#     4  11  22  34  46  61  90 123 151 185 224 268
#
# _framework density 14.197582000000001
#
# number of rings (size 3 to 8) (size 9 to 14) (size 15 to 20)
#    0.000    1.200    7.000    4.000    1.400    0.000 
#    0.600    0.000    0.000    0.600    0.000    0.000 
#    0.000    0.000    0.000    0.000    0.000    0.000 
#
# Total GULP energy -334324.077103 kJ/mol
# GULP energy per Si atom -5572.067952 kJ/mol
# Density = 1.416527 g / cm^3
# Si number density = 14.197582 Si / 1000 Ang^3
#
#
#
# Elastic Constant Matrix: (Units=GPa)
#
#
# Indices 1 2 3 4 5 6 
#
# 1 48.2961 26.4893 31.0089 2.0435 0.0000 0.0000
# 2 26.4893 48.2961 31.0089 -2.0435 0.0000 0.0000
# 3 31.0089 31.0089 61.3641 0.0000 0.0000 0.0000
# 4 2.0435 -2.0435 0.0000 21.3754 0.0000 0.0000
# 5 0.0000 0.0000 0.0000 0.0000 21.3754 2.0435
# 6 0.0000 0.0000 0.0000 0.0000 2.0435 10.9034
#
#
#
# Elastic Compliance Matrix: (Units=1/GPa)
#
#
# Indices 1 2 3 4 5 6 
#
# 1 0.034856 -0.011839 -0.011631 -0.004464 0.000000 0.000000
# 2 -0.011839 0.034856 -0.011631 0.004464 0.000000 0.000000
# 3 -0.011631 -0.011631 0.028051 0.000000 0.000000 0.000000
# 4 -0.004464 0.004464 0.000000 0.047636 0.000000 0.000000
# 5 0.000000 0.000000 0.000000 0.000000 0.047636 -0.008928
# 6 0.000000 0.000000 0.000000 0.000000 -0.008928 0.093388
#
#
# Mechanical properties :
#
#
# Convention : Reuss Voigt Hill
#
# Bulk Modulus (GPa) = 36.28346 37.21895 36.75120
# Shear Modulus (GPa) = 13.66826 15.36079 14.51452
#
# Velocity S-wave (km/s) = 3.10613 3.29284 3.20085
# Velocity P-wave (km/s) = 6.20287 6.38192 6.29304
#
# Compressibility (1/GPa) = 0.02756077
#
# Stress axis : x y z
#
# Youngs Moduli (GPa) = 28.68986 28.68986 35.64915
#
# Poissons Ratio (x) = 0.33965 0.41464
# Poissons Ratio (y) = 0.33965 0.41464
# Poissons Ratio (z) = 0.33369 0.33369
#
# Static dielectric constant tensor:
#      x y z
#    x 1.492440 0.000000 0.000000 
#    y 0.000000 1.492440 0.000000 
#    z 0.000000 0.000000 1.507750 
# 
# From -- ./inp_files/10749.got.cif
#   From: 2010.05.17/outbox.cif.g08.bks.cpg/sg166_6_cif.got.tgz:10749.got - 2010.05.20 11:04:41.
