data_PCOD9579205
_publ_section_title
;
Structure prediction by ZEFSAII (Michael W. Deem and Ramdas Pophale) SiO2 
 PCOD9579205
Probable space group: R -3 M
;
_chemical_formula_sum "Si O2"
_cell_formula_units_Z 144
_cell_length_a 20.924852
_cell_length_b 20.924852
_cell_length_c 20.542895
_cell_angle_alpha 90.000000
_cell_angle_beta 90.000000
_cell_angle_gamma 120.000000
_cell_volume 7789.634275
_symmetry_space_group_name_H-M "R -3 M"
_symmetry_group_IT_number 166
_symmetry_cell_setting 'hexagonal'
loop_
_space_group_symop_operation_xyz
x,y,z
-y,x-y,z
-x+y,-x,z
x-y,-y,-z
-x,-x+y,-z
y,x,-z
-x,-y,-z
y,-x+y,-z
x-y,x,-z
-x+y,y,z
x,x-y,z
-y,-x,z
2/3+x,1/3+y,1/3+z
2/3-y,1/3+x-y,1/3+z
2/3-x+y,1/3-x,1/3+z
2/3+x-y,1/3-y,1/3-z
2/3-x,1/3-x+y,1/3-z
2/3+y,1/3+x,1/3-z
2/3-x,1/3-y,1/3-z
2/3+y,1/3-x+y,1/3-z
2/3+x-y,1/3+x,1/3-z
2/3-x+y,1/3+y,1/3+z
2/3+x,1/3+x-y,1/3+z
2/3-y,1/3-x,1/3+z
1/3+x,2/3+y,2/3+z
1/3-y,2/3+x-y,2/3+z
1/3-x+y,2/3-x,2/3+z
1/3+x-y,2/3-y,2/3-z
1/3-x,2/3-x+y,2/3-z
1/3+y,2/3+x,2/3-z
1/3-x,2/3-y,2/3-z
1/3+y,2/3-x+y,2/3-z
1/3+x-y,2/3+x,2/3-z
1/3-x+y,2/3+y,2/3+z
1/3+x,2/3+x-y,2/3+z
1/3-y,2/3-x,2/3+z
loop_
_atom_site_type_symbol
_atom_site_label
_atom_site_fract_x
_atom_site_fract_y
_atom_site_fract_z
Si Si1 0.485830 0.667819 0.864504
Si Si2 0.071289 0.460973 0.225960
Si Si3 0.472553 0.375258 0.265507
Si Si4 0.419897 0.285992 0.656598
O O1 0.485887 0.742944 0.879253
O O2 0.402608 0.597393 0.865413
O O3 0.518640 0.670628 0.793075
O O4 0.530728 0.649827 0.918574
O O5 0.078978 0.539489 0.210326
O O6 0.098613 0.431946 0.166667
O O7 0.116839 0.464556 0.289933
O O8 0.985736 0.405103 0.241381
O O9 0.552626 0.447375 0.275364
O O10 0.445931 0.333334 0.333334
O O11 0.427598 0.213799 0.667248
O O12 0.333334 0.258103 0.666667
#
# Coordination Sequence:
#
# PCOD9579205 Si02
#       4
#    36  36  36  36
#     4  10  20  35  56  82 112 145 181 221 266 319
#     4  11  22  37  57  80 108 143 182 225 273 323
#     4  10  21  36  55  80 110 144 181 222 269 321
#     4  10  20  36  59  84 110 142 180 223 271 322
#
# _framework density 18.486105999999999
#
# number of rings (size 3 to 8) (size 9 to 14) (size 15 to 20)
#    0.000    1.750    0.000    4.750    0.000    4.000 
#    0.000    0.000    0.000   17.500    0.000    0.000 
#    0.000    0.000    0.000    0.000    0.000    0.000 
#
# Total GULP energy -268164.270040 kJ/mol
# GULP energy per Si atom -5586.755626 kJ/mol
# Density = 1.844403 g / cm^3
# Si number density = 18.486106 Si / 1000 Ang^3
#
#
#
# Elastic Constant Matrix: (Units=GPa)
#
#
# Indices 1 2 3 4 5 6 
#
# 1 81.9412 61.7299 65.3514 5.6045 -0.0001 0.0000
# 2 61.7299 81.9412 65.3514 -5.6045 0.0001 0.0000
# 3 65.3514 65.3514 141.1836 0.0000 0.0000 0.0000
# 4 5.6045 -5.6045 0.0000 33.0590 0.0000 0.0001
# 5 -0.0001 0.0001 0.0000 0.0000 33.0590 5.6045
# 6 0.0000 0.0000 0.0000 0.0001 5.6045 10.1056
#
#
#
# Elastic Compliance Matrix: (Units=1/GPa)
#
#
# Indices 1 2 3 4 5 6 
#
# 1 0.033318 -0.021294 -0.005565 -0.009258 0.000000 0.000000
# 2 -0.021294 0.033318 -0.005565 0.009258 0.000000 0.000000
# 3 -0.005565 -0.005565 0.012235 0.000000 0.000000 0.000000
# 4 -0.009258 0.009258 0.000000 0.033388 0.000000 0.000000
# 5 0.000000 0.000000 0.000000 0.000000 0.033388 -0.018517
# 6 0.000000 0.000000 0.000000 0.000000 -0.018517 0.109224
#
#
# Mechanical properties :
#
#
# Convention : Reuss Voigt Hill
#
# Bulk Modulus (GPa) = 71.32478 76.65902 73.99190
# Shear Modulus (GPa) = 15.41329 22.75362 19.08346
#
# Velocity S-wave (km/s) = 2.89065 3.51215 3.21645
# Velocity P-wave (km/s) = 7.05747 7.61613 7.34211
#
# Compressibility (1/GPa) = 0.01402037
#
# Stress axis : x y z
#
# Youngs Moduli (GPa) = 30.01400 30.01400 81.73114
#
# Poissons Ratio (x) = 0.63913 0.45487
# Poissons Ratio (y) = 0.63913 0.45487
# Poissons Ratio (z) = 0.16704 0.16704
#
# Static dielectric constant tensor:
#      x y z
#    x 1.623300 0.000000 0.000000 
#    y 0.000000 1.623300 0.000000 
#    z 0.000000 0.000000 1.622120 
# 
# From -- ./inp_files/6589.got.cif
#   From: 2010.05.17/outbox.cif.g08.bks.cpg/sg166_4_cif.got.tgz:6589.got - 2010.05.20 11:04:41.
