data_PCOD9579217
_publ_section_title
;
Structure prediction by ZEFSAII (Michael W. Deem and Ramdas Pophale) SiO2 
 PCOD9579217
Probable space group: R -3 M
;
_chemical_formula_sum "Si O2"
_cell_formula_units_Z 144
_cell_length_a 23.396551
_cell_length_b 23.396551
_cell_length_c 15.270321
_cell_angle_alpha 90.000000
_cell_angle_beta 90.000000
_cell_angle_gamma 120.000000
_cell_volume 7239.065056
_symmetry_space_group_name_H-M "R -3 M"
_symmetry_group_IT_number 166
_symmetry_cell_setting 'hexagonal'
loop_
_space_group_symop_operation_xyz
x,y,z
-y,x-y,z
-x+y,-x,z
x-y,-y,-z
-x,-x+y,-z
y,x,-z
-x,-y,-z
y,-x+y,-z
x-y,x,-z
-x+y,y,z
x,x-y,z
-y,-x,z
2/3+x,1/3+y,1/3+z
2/3-y,1/3+x-y,1/3+z
2/3-x+y,1/3-x,1/3+z
2/3+x-y,1/3-y,1/3-z
2/3-x,1/3-x+y,1/3-z
2/3+y,1/3+x,1/3-z
2/3-x,1/3-y,1/3-z
2/3+y,1/3-x+y,1/3-z
2/3+x-y,1/3+x,1/3-z
2/3-x+y,1/3+y,1/3+z
2/3+x,1/3+x-y,1/3+z
2/3-y,1/3-x,1/3+z
1/3+x,2/3+y,2/3+z
1/3-y,2/3+x-y,2/3+z
1/3-x+y,2/3-x,2/3+z
1/3+x-y,2/3-y,2/3-z
1/3-x,2/3-x+y,2/3-z
1/3+y,2/3+x,2/3-z
1/3-x,2/3-y,2/3-z
1/3+y,2/3-x+y,2/3-z
1/3+x-y,2/3+x,2/3-z
1/3-x+y,2/3+y,2/3+z
1/3+x,2/3+x-y,2/3+z
1/3-y,2/3-x,2/3+z
loop_
_atom_site_type_symbol
_atom_site_label
_atom_site_fract_x
_atom_site_fract_y
_atom_site_fract_z
Si Si1 0.907851 0.687408 0.434942
Si Si2 0.797971 0.967038 0.094637
Si Si3 0.551143 0.621181 0.042165
Si Si4 0.797925 0.463910 0.602937
O O1 0.845237 0.690474 0.397300
O O2 0.883673 0.611351 0.454881
O O3 0.930087 0.728955 0.524713
O O4 0.972374 0.718143 0.375644
O O5 0.806406 0.903203 0.087157
O O6 0.845544 0.009354 0.173447
O O7 0.810896 0.000000 0.000000
O O8 0.569866 0.569866 0.000000
O O9 0.497272 0.633802 0.995199
O O10 0.720509 0.441018 0.596460
O O11 0.807624 0.403812 0.634788
#
# Coordination Sequence:
#
# PCOD9579217 Si02
#       4
#    36  36  36  36
#     4  10  21  36  57  85 118 155 195 244 302 363
#     4  10  20  36  57  83 119 157 200 247 296 355
#     4  11  21  37  61  87 119 154 200 248 304 360
#     4  11  23  39  61  88 122 162 205 251 298 355
#
# _framework density 19.892073
#
# number of rings (size 3 to 8) (size 9 to 14) (size 15 to 20)
#    0.000    1.500    2.500    3.250    0.000    1.000 
#    0.000    0.000    0.000   10.000    0.000    8.750 
#    0.000    0.000    0.000    0.000    0.000    0.000 
#
# Total GULP energy -267788.768704 kJ/mol
# GULP energy per Si atom -5578.932681 kJ/mol
# Density = 1.984680 g / cm^3
# Si number density = 19.892073 Si / 1000 Ang^3
#
#
#
# Elastic Constant Matrix: (Units=GPa)
#
#
# Indices 1 2 3 4 5 6 
#
# 1 83.4697 57.6203 15.6476 -6.4094 0.0000 0.0000
# 2 57.6203 83.4697 15.6476 6.4094 0.0000 0.0000
# 3 15.6476 15.6476 67.3525 0.0000 0.0000 0.0000
# 4 -6.4094 6.4094 0.0000 23.1585 0.0000 0.0000
# 5 0.0000 0.0000 0.0000 0.0000 23.1585 -6.4094
# 6 0.0000 0.0000 0.0000 0.0000 -6.4094 12.9247
#
#
#
# Elastic Compliance Matrix: (Units=1/GPa)
#
#
# Indices 1 2 3 4 5 6 
#
# 1 0.026156 -0.018683 -0.001736 0.012410 0.000000 0.000000
# 2 -0.018683 0.026156 -0.001736 -0.012410 0.000000 0.000000
# 3 -0.001736 -0.001736 0.015654 0.000000 0.000000 0.000000
# 4 0.012410 -0.012410 0.000000 0.050050 0.000000 0.000000
# 5 0.000000 0.000000 0.000000 0.000000 0.050050 0.024820
# 6 0.000000 0.000000 0.000000 0.000000 0.024820 0.089679
#
#
# Mechanical properties :
#
#
# Convention : Reuss Voigt Hill
#
# Bulk Modulus (GPa) = 42.27430 45.79146 44.03288
# Shear Modulus (GPa) = 16.13207 21.54008 18.83608
#
# Velocity S-wave (km/s) = 2.85086 3.29423 3.08053
# Velocity P-wave (km/s) = 5.66873 6.12693 5.90228
#
# Compressibility (1/GPa) = 0.02365503
#
# Stress axis : x y z
#
# Youngs Moduli (GPa) = 38.23188 38.23188 63.88171
#
# Poissons Ratio (x) = 0.71430 0.11091
# Poissons Ratio (y) = 0.71430 0.11091
# Poissons Ratio (z) = 0.06637 0.06637
#
# Static dielectric constant tensor:
#      x y z
#    x 1.706340 0.000000 0.000000 
#    y 0.000000 1.706340 0.000000 
#    z 0.000000 0.000000 1.715630 
# 
# From -- ./inp_files/5247.got.cif
#   From: 2010.05.17/outbox.cif.g08.bks.cpg/sg166_3_cif.got.tgz:5247.got - 2010.05.20 11:04:41.
