data_PCOD9579124
_publ_section_title
;
Structure prediction by ZEFSAII (Michael W. Deem and Ramdas Pophale) SiO2 
 PCOD9579124
Probable space group: R -3 M
;
_chemical_formula_sum "Si O2"
_cell_formula_units_Z 126
_cell_length_a 27.078638
_cell_length_b 27.078638
_cell_length_c 11.921746
_cell_angle_alpha 90.000000
_cell_angle_beta 90.000000
_cell_angle_gamma 120.000000
_cell_volume 7570.492425
_symmetry_space_group_name_H-M "R -3 M"
_symmetry_group_IT_number 166
_symmetry_cell_setting 'hexagonal'
loop_
_space_group_symop_operation_xyz
x,y,z
-y,x-y,z
-x+y,-x,z
x-y,-y,-z
-x,-x+y,-z
y,x,-z
-x,-y,-z
y,-x+y,-z
x-y,x,-z
-x+y,y,z
x,x-y,z
-y,-x,z
2/3+x,1/3+y,1/3+z
2/3-y,1/3+x-y,1/3+z
2/3-x+y,1/3-x,1/3+z
2/3+x-y,1/3-y,1/3-z
2/3-x,1/3-x+y,1/3-z
2/3+y,1/3+x,1/3-z
2/3-x,1/3-y,1/3-z
2/3+y,1/3-x+y,1/3-z
2/3+x-y,1/3+x,1/3-z
2/3-x+y,1/3+y,1/3+z
2/3+x,1/3+x-y,1/3+z
2/3-y,1/3-x,1/3+z
1/3+x,2/3+y,2/3+z
1/3-y,2/3+x-y,2/3+z
1/3-x+y,2/3-x,2/3+z
1/3+x-y,2/3-y,2/3-z
1/3-x,2/3-x+y,2/3-z
1/3+y,2/3+x,2/3-z
1/3-x,2/3-y,2/3-z
1/3+y,2/3-x+y,2/3-z
1/3+x-y,2/3+x,2/3-z
1/3-x+y,2/3+y,2/3+z
1/3+x,2/3+x-y,2/3+z
1/3-y,2/3-x,2/3+z
loop_
_atom_site_type_symbol
_atom_site_label
_atom_site_fract_x
_atom_site_fract_y
_atom_site_fract_z
Si Si1 0.883279 0.000000 0.000000
Si Si2 0.630379 0.872829 0.682862
Si Si3 0.398382 0.067103 0.966310
Si Si4 0.544751 0.676665 0.506113
O O1 0.847042 0.997857 0.110247
O O2 0.887420 0.943710 0.996430
O O3 0.639754 0.819877 0.706270
O O4 0.686255 0.932930 0.664437
O O5 0.593123 0.861049 0.570183
O O6 0.591474 0.879876 0.776945
O O7 0.407240 0.073907 0.833334
O O8 0.453554 0.105639 0.043048
O O9 0.369987 0.000000 0.000000
#
# Coordination Sequence:
#
# PCOD9579124 Si02
#       4
#    18  36  36  36
#     4  10  21  40  66  90 112 138 177 238 304 356
#     4  10  19  32  53  76 104 144 187 231 273 320
#     4  12  20  35  52  77 112 160 195 229 270 323
#     4  10  19  33  53  79 116 141 184 230 283 325
#
# _framework density 16.643567999999998
#
# number of rings (size 3 to 8) (size 9 to 14) (size 15 to 20)
#    0.000    1.714    5.714    4.429    0.000    3.429 
#    0.000    4.286    0.000    0.000    0.000    0.000 
#    0.000    2.286    0.000    0.000    0.000    0.000 
#
# Total GULP energy -234192.025271 kJ/mol
# GULP energy per Si atom -5576.000602 kJ/mol
# Density = 1.660569 g / cm^3
# Si number density = 16.643568 Si / 1000 Ang^3
#
#
#
# Elastic Constant Matrix: (Units=GPa)
#
#
# Indices 1 2 3 4 5 6 
#
# 1 117.9764 10.1968 42.2647 -4.6603 0.0003 0.0004
# 2 10.1968 117.9755 42.2603 4.6597 -0.0002 -0.0006
# 3 42.2647 42.2603 145.4111 -0.0018 -0.0007 0.0002
# 4 -4.6603 4.6597 -0.0018 0.1600 -0.0010 0.0008
# 5 0.0003 -0.0002 -0.0007 -0.0010 0.1605 -4.6608
# 6 0.0004 -0.0006 0.0002 0.0008 -4.6608 53.8896
#
#
#
# Elastic Compliance Matrix: (Units=1/GPa)
#
#
# Indices 1 2 3 4 5 6 
#
# 1 0.001773 0.007880 -0.002808 -0.177920 0.000724 0.000065
# 2 0.007880 0.001771 -0.002803 0.177937 -0.000702 -0.000063
# 3 -0.002808 -0.002803 0.008508 -0.000052 -0.000026 -0.000002
# 4 -0.177920 0.177937 -0.000052 -4.115205 0.016240 0.001467
# 5 0.000724 -0.000702 -0.000026 0.016240 -4.122655 -0.356560
# 6 0.000065 -0.000063 -0.000002 0.001467 -0.356560 -0.012282
#
#
# Mechanical properties :
#
#
# Convention : Reuss Voigt Hill
#
# Bulk Modulus (GPa) = 60.27530 63.42297 61.84913
# Shear Modulus (GPa) = -0.60701 29.95143 14.67221
#
# Velocity S-wave (km/s) = -0.60457 4.24675 2.97232
# Velocity P-wave (km/s) = 5.98387 7.88897 7.00152
#
# Compressibility (1/GPa) = 0.01659054
#
# Stress axis : x y z
#
# Youngs Moduli (GPa) = 564.05887 564.58513 117.54058
#
# Poissons Ratio (x) = -4.44887 0.33001
# Poissons Ratio (y) = -4.44472 0.32945
# Poissons Ratio (z) = 1.58368 1.58245
#
# Static dielectric constant tensor:
#      x y z
#    x 1.568720 0.000000 0.000000 
#    y 0.000000 1.568720 0.000000 
#    z 0.000000 0.000000 1.595640 
# 
# From -- ./inp_files/2842.got.cif
#   From: 2010.05.17/outbox.cif.g08.bks.cpg/sg166_2_cif.got.tgz:2842.got - 2010.05.20 11:04:41.
