data_PCOD9579374
_publ_section_title
;
Structure prediction by ZEFSAII (Michael W. Deem and Ramdas Pophale) SiO2 
 PCOD9579374
Probable space group: R -3 M
;
_chemical_formula_sum "Si O2"
_cell_formula_units_Z 48
_cell_length_a 30.000000
_cell_length_b 30.000000
_cell_length_c 9.000000
_cell_angle_alpha 90.000000
_cell_angle_beta 90.000000
_cell_angle_gamma 120.000000
_cell_volume 7014.805771
_symmetry_space_group_name_H-M "R -3 M"
_symmetry_group_IT_number 166
_symmetry_cell_setting 'hexagonal'
loop_
_space_group_symop_operation_xyz
x,y,z
-y,x-y,z
-x+y,-x,z
x-y,-y,-z
-x,-x+y,-z
y,x,-z
-x,-y,-z
y,-x+y,-z
x-y,x,-z
-x+y,y,z
x,x-y,z
-y,-x,z
2/3+x,1/3+y,1/3+z
2/3-y,1/3+x-y,1/3+z
2/3-x+y,1/3-x,1/3+z
2/3+x-y,1/3-y,1/3-z
2/3-x,1/3-x+y,1/3-z
2/3+y,1/3+x,1/3-z
2/3-x,1/3-y,1/3-z
2/3+y,1/3-x+y,1/3-z
2/3+x-y,1/3+x,1/3-z
2/3-x+y,1/3+y,1/3+z
2/3+x,1/3+x-y,1/3+z
2/3-y,1/3-x,1/3+z
1/3+x,2/3+y,2/3+z
1/3-y,2/3+x-y,2/3+z
1/3-x+y,2/3-x,2/3+z
1/3+x-y,2/3-y,2/3-z
1/3-x,2/3-x+y,2/3-z
1/3+y,2/3+x,2/3-z
1/3-x,2/3-y,2/3-z
1/3+y,2/3-x+y,2/3-z
1/3+x-y,2/3+x,2/3-z
1/3-x+y,2/3+y,2/3+z
1/3+x,2/3+x-y,2/3+z
1/3-y,2/3-x,2/3+z
loop_
_atom_site_type_symbol
_atom_site_label
_atom_site_fract_x
_atom_site_fract_y
_atom_site_fract_z
Si Si1 0.052724 0.770139 0.909171
Si Si2 0.562536 0.228939 0.503205
Si Si3 0.341254 0.475558 0.342370
Si Si4 0.427049 0.470012 0.886531
O O1 0.058929 0.725595 0.833334
O O2 0.051414 0.804914 0.773532
O O3 0.093809 0.793866 0.043155
O O4 0.000000 0.746607 0.000000
O O5 0.621768 0.243536 0.506603
O O6 0.557008 0.278504 0.531940
O O7 0.543791 0.210458 0.333334
O O8 0.529543 0.183875 0.617690
O O9 0.288930 0.430444 0.411802
O O10 0.333334 0.464156 0.166667
O O11 0.476192 0.523809 0.923797
O O12 0.429088 0.429088 0.000000
#
# Coordination Sequence:
#
# PCOD9579374 Si02
#       4
#    36  36  36  36
#     4  10  22  38  58  85 115 151 194 241 292 348
#     4  10  21  39  63  89 118 154 198 248 303 363
#     4  11  23  38  58  85 119 157 197 243 294 351
#     4  10  21  38  59  83 114 151 192 240 294 353
#
# _framework density 6.84267
#
# number of rings (size 3 to 8) (size 9 to 14) (size 15 to 20)
#    0.000    1.750    0.000    4.750    0.000   11.500 
#    0.000    0.000    0.000    1.500    0.000    0.000 
#    0.000    0.000    0.000    0.000    0.000    0.000 
#
# Total GULP energy -267463.099821 kJ/mol
# GULP energy per Si atom -5572.147913 kJ/mol
# Density = 0.682710 g / cm^3
# Si number density = 6.842670 Si / 1000 Ang^3
#
#
#
# Elastic Constant Matrix: (Units=GPa)
#
#
# Indices 1 2 3 4 5 6 
#
# 1 51.9058 5.3000 24.8765 -1.0963 -0.0192 -0.0072
# 2 5.3000 51.9546 24.8962 1.0830 -0.0248 -0.0211
# 3 24.8765 24.8962 147.9596 0.0411 -0.0863 -0.0458
# 4 -1.0963 1.0830 0.0411 16.4422 -0.0019 0.0133
# 5 -0.0192 -0.0248 -0.0863 -0.0019 16.4124 -1.0842
# 6 -0.0072 -0.0211 -0.0458 0.0133 -1.0842 23.3348
#
#
#
# Elastic Compliance Matrix: (Units=1/GPa)
#
#
# Indices 1 2 3 4 5 6 
#
# 1 0.021000 -0.000522 -0.003443 0.001443 0.000006 -0.000001
# 2 -0.000522 0.020980 -0.003442 -0.001408 0.000014 0.000013
# 3 -0.003443 -0.003442 0.007917 -0.000023 0.000033 0.000013
# 4 0.001443 -0.001408 -0.000023 0.061008 0.000004 -0.000036
# 5 0.000006 0.000014 0.000033 0.000004 0.061117 0.002840
# 6 -0.000001 0.000013 0.000013 -0.000036 0.002840 0.042987
#
#
# Mechanical properties :
#
#
# Convention : Reuss Voigt Hill
#
# Bulk Modulus (GPa) = 28.50540 40.21839 34.36190
# Shear Modulus (GPa) = 20.70252 24.35436 22.52844
#
# Velocity S-wave (km/s) = 3.17914 3.44815 3.31637
# Velocity P-wave (km/s) = 5.23375 5.95713 5.60712
#
# Compressibility (1/GPa) = 0.03508107
#
# Stress axis : x y z
#
# Youngs Moduli (GPa) = 47.61971 47.66551 126.31564
#
# Poissons Ratio (x) = 0.02490 0.43493
# Poissons Ratio (y) = 0.02487 0.43476
# Poissons Ratio (z) = 0.16396 0.16406
#
# Static dielectric constant tensor:
#      x y z
#    x 1.754790 0.000000 -0.000040 
#    y 0.000000 1.754800 -0.000010 
#    z -0.000040 -0.000010 1.802670 
# 
# From -- ./inp_files/1770.got.cif
#   From: 2010.05.17/outbox.ucp.g08.bks.cvg/sg166_1_cif.got.tgz:1770.got - 2010.06.11 15:16:39.
