data_PCOD9579689
_publ_section_title
;
Structure prediction by ZEFSAII (Michael W. Deem and Ramdas Pophale) SiO2 
 PCOD9579689
Probable space group: R -3 C 
;
_chemical_formula_sum "Si O2"
_cell_formula_units_Z 120
_cell_length_a 21.132015
_cell_length_b 21.132015
_cell_length_c 14.531331
_cell_angle_alpha 90.000000
_cell_angle_beta 90.000000
_cell_angle_gamma 120.000000
_cell_volume 5619.761021
_symmetry_space_group_name_H-M "R -3 C "
_symmetry_group_IT_number 167
_symmetry_cell_setting 'hexagonal'
loop_
_space_group_symop_operation_xyz
x,y,z
-y,x-y,z
-x+y,-x,z
x-y,-y,1/2-z
-x,-x+y,1/2-z
y,x,1/2-z
-x,-y,-z
y,-x+y,-z
x-y,x,-z
-x+y,y,1/2+z
x,x-y,1/2+z
-y,-x,1/2+z
2/3+x,1/3+y,1/3+z
2/3-y,1/3+x-y,1/3+z
2/3-x+y,1/3-x,1/3+z
2/3+x-y,1/3-y,5/6-z
2/3-x,1/3-x+y,5/6-z
2/3+y,1/3+x,5/6-z
2/3-x,1/3-y,1/3-z
2/3+y,1/3-x+y,1/3-z
2/3+x-y,1/3+x,1/3-z
2/3-x+y,1/3+y,5/6+z
2/3+x,1/3+x-y,5/6+z
2/3-y,1/3-x,5/6+z
1/3+x,2/3+y,2/3+z
1/3-y,2/3+x-y,2/3+z
1/3-x+y,2/3-x,2/3+z
1/3+x-y,2/3-y,1/6-z
1/3-x,2/3-x+y,1/6-z
1/3+y,2/3+x,1/6-z
1/3-x,2/3-y,2/3-z
1/3+y,2/3-x+y,2/3-z
1/3+x-y,2/3+x,2/3-z
1/3-x+y,2/3+y,1/6+z
1/3+x,2/3+x-y,1/6+z
1/3-y,2/3-x,1/6+z
loop_
_atom_site_type_symbol
_atom_site_label
_atom_site_fract_x
_atom_site_fract_y
_atom_site_fract_z
Si Si1 0.000000 0.000000 0.389680
Si Si2 0.898777 0.065740 0.397500
Si Si3 0.524895 0.585158 0.902096
Si Si4 0.227727 0.139684 0.087708
O O1 0.958661 0.914893 0.363665
O O2 0.000000 0.000000 0.500000
O O3 0.912650 0.137692 0.345403
O O4 0.904405 0.084304 0.506375
O O5 0.819186 0.995867 0.380609
O O6 0.590020 0.666667 0.916667
O O7 0.556214 0.531095 0.886318
O O8 0.475439 0.565073 0.994031
#
# Coordination Sequence:
#
# PCOD9579689 Si02
#       4
#    12  36  36  36
#     4  12  21  39  69 103 126 159 217 282 327 400
#     4  12  22  42  67  91 127 166 205 267 335 370
#     4  11  25  41  61  92 125 165 211 257 312 386
#     4  11  24  41  62  91 125 160 212 256 306 390
#
# _framework density 21.353221999999999
#
# number of rings (size 3 to 8) (size 9 to 14) (size 15 to 20)
#    0.000    0.600    3.000    5.400    0.000    2.400 
#    0.000    9.000    0.000    0.000    0.000    0.000 
#    0.000    0.000    0.000    0.000    0.000    0.000 
#
# Total GULP energy -223897.649923 kJ/mol
# GULP energy per Si atom -5597.441248 kJ/mol
# Density = 2.130462 g / cm^3
# Si number density = 21.353222 Si / 1000 Ang^3
#
#
#
# Elastic Constant Matrix: (Units=GPa)
#
#
# Indices 1 2 3 4 5 6 
#
# 1 84.5943 19.1383 14.4228 -5.4557 0.0003 0.0000
# 2 19.1383 84.5943 14.4228 5.4557 -0.0003 0.0000
# 3 14.4228 14.4228 55.5441 0.0000 0.0000 0.0000
# 4 -5.4557 5.4557 0.0000 24.0018 0.0000 -0.0003
# 5 0.0003 -0.0003 0.0000 0.0000 24.0018 -5.4557
# 6 0.0000 0.0000 0.0000 -0.0003 -5.4557 32.7280
#
#
#
# Elastic Compliance Matrix: (Units=1/GPa)
#
#
# Indices 1 2 3 4 5 6 
#
# 1 0.013135 -0.002744 -0.002698 0.003609 0.000000 0.000000
# 2 -0.002744 0.013135 -0.002698 -0.003609 0.000000 0.000000
# 3 -0.002698 -0.002698 0.019405 0.000000 0.000000 0.000000
# 4 0.003609 -0.003609 0.000000 0.043304 0.000000 0.000000
# 5 0.000000 0.000000 0.000000 0.000000 0.043304 0.007219
# 6 0.000000 0.000000 0.000000 0.000000 0.007219 0.031758
#
#
# Mechanical properties :
#
#
# Convention : Reuss Voigt Hill
#
# Bulk Modulus (GPa) = 34.02096 35.63340 34.82718
# Shear Modulus (GPa) = 26.29915 27.92957 27.11436
#
# Velocity S-wave (km/s) = 3.51326 3.62052 3.56729
# Velocity P-wave (km/s) = 5.69424 5.84820 5.77173
#
# Compressibility (1/GPa) = 0.02939364
#
# Stress axis : x y z
#
# Youngs Moduli (GPa) = 76.13382 76.13382 51.53340
#
# Poissons Ratio (x) = 0.20894 0.13904
# Poissons Ratio (y) = 0.20894 0.13904
# Poissons Ratio (z) = 0.20541 0.20541
#
# Static dielectric constant tensor:
#      x y z
#    x 1.739400 0.000000 0.000000 
#    y 0.000000 1.739400 0.000000 
#    z 0.000000 0.000000 1.792660 
# 
# From -- ./inp_files/2289.got.cif
#   From: 2010.05.17/outbox.cif.g08.bks.cpg/sg167_2_cif.got.tgz:2289.got - 2010.05.20 11:09:15.
