data_PCOD9579925
_publ_section_title
;
Structure prediction by ZEFSAII (Michael W. Deem and Ramdas Pophale) SiO2 
 PCOD9579925
Probable space group: P 61
;
_chemical_formula_sum "Si O2"
_cell_formula_units_Z 42
_cell_length_a 14.182746
_cell_length_b 14.182746
_cell_length_c 12.846076
_cell_angle_alpha 90.000000
_cell_angle_beta 90.000000
_cell_angle_gamma 120.000000
_cell_volume 2237.802574
_symmetry_space_group_name_H-M "P 61"
_symmetry_group_IT_number 169
_symmetry_cell_setting 'hexagonal'
loop_
_space_group_symop_operation_xyz
x,y,z
x-y,x,1/6+z
-y,x-y,1/3+z
-x,-y,1/2+z
-x+y,-x,2/3+z
y,-x+y,5/6+z
loop_
_atom_site_type_symbol
_atom_site_label
_atom_site_fract_x
_atom_site_fract_y
_atom_site_fract_z
Si Si1 0.361547 0.977204 0.634380
Si Si2 0.836561 0.238719 0.816792
Si Si3 0.460881 0.722970 0.280499
Si Si4 0.995910 0.354481 0.641257
Si Si5 0.557073 0.964065 0.355746
Si Si6 0.640054 0.259543 0.565148
Si Si7 0.607269 0.032758 0.583955
O O1 0.285257 0.853533 0.600426
O O2 0.352890 0.070713 0.573239
O O3 0.360568 0.987097 0.758807
O O4 0.482342 0.000596 0.605493
O O5 0.743024 0.115248 0.832540
O O6 0.783262 0.317249 0.823158
O O7 0.901422 0.260307 0.708755
O O8 0.491808 0.835280 0.336520
O O9 0.405523 0.719139 0.171320
O O10 0.368465 0.629214 0.351892
O O11 0.997645 0.465391 0.677084
O O12 0.987491 0.346958 0.516105
O O13 0.610284 0.992191 0.468949
O O14 0.667042 0.164038 0.583005
#
# Coordination Sequence:
#
# PCOD9579925 Si02
#       7
#     6   6   6   6   6   6   6
#     4  10  22  33  53  80 114 153 199 255 289 352
#     4  11  20  39  62  83 113 157 205 259 305 362
#     4  12  22  35  53  84 115 168 208 243 302 367
#     4  11  21  38  62  83 117 156 201 257 306 361
#     4  11  20  37  52  79 122 156 197 243 303 367
#     4  11  20  32  55  77 113 156 204 241 298 359
#     4  10  21  36  51  82 116 152 194 248 291 360
#
# _framework density 18.768411
#
# number of rings (size 3 to 8) (size 9 to 14) (size 15 to 20)
#    0.000    1.143    8.571    1.714    2.000    2.286 
#    2.571    0.000    0.000    0.000    0.000    2.000 
#    0.000    0.000    0.000    0.000    0.000    0.000 
#
# Total GULP energy -234598.712192 kJ/mol
# GULP energy per Si atom -5585.683624 kJ/mol
# Density = 1.872569 g / cm^3
# Si number density = 18.768411 Si / 1000 Ang^3
#
#
#
# Elastic Constant Matrix: (Units=GPa)
#
#
# Indices 1 2 3 4 5 6 
#
# 1 40.7795 7.5692 27.3658 0.0000 0.0000 0.0000
# 2 7.5692 40.7795 27.3658 0.0000 0.0000 0.0000
# 3 27.3658 27.3658 164.6802 0.0000 0.0000 0.0000
# 4 0.0000 0.0000 0.0000 18.2419 0.0000 0.0000
# 5 0.0000 0.0000 0.0000 0.0000 18.2419 0.0000
# 6 0.0000 0.0000 0.0000 0.0000 0.0000 16.6051
#
#
#
# Elastic Compliance Matrix: (Units=1/GPa)
#
#
# Indices 1 2 3 4 5 6 
#
# 1 0.027793 -0.002318 -0.004233 0.000000 0.000000 0.000000
# 2 -0.002318 0.027793 -0.004233 0.000000 0.000000 0.000000
# 3 -0.004233 -0.004233 0.007479 0.000000 0.000000 0.000000
# 4 0.000000 0.000000 0.000000 0.054819 0.000000 0.000000
# 5 0.000000 0.000000 0.000000 0.000000 0.054819 0.000000
# 6 0.000000 0.000000 0.000000 0.000000 0.000000 0.060222
#
#
# Mechanical properties :
#
#
# Convention : Reuss Voigt Hill
#
# Bulk Modulus (GPa) = 24.09837 41.20453 32.65145
# Shear Modulus (GPa) = 18.63396 22.88035 20.75715
#
# Velocity S-wave (km/s) = 3.15435 3.49533 3.32921
# Velocity P-wave (km/s) = 5.11217 6.18802 5.67565
#
# Compressibility (1/GPa) = 0.04149658
#
# Stress axis : x y z
#
# Youngs Moduli (GPa) = 35.97994 35.97994 133.70152
#
# Poissons Ratio (x) = 0.08340 0.56601
# Poissons Ratio (y) = 0.08340 0.56601
# Poissons Ratio (z) = 0.15232 0.15232
#
# Static dielectric constant tensor:
#      x y z
#    x 1.671100 0.000000 0.000000 
#    y 0.000000 1.671100 0.000000 
#    z 0.000000 0.000000 1.722290 
# 
# From -- ./inp_files/935.got.cif
#   From: 2010.05.17/outbox.cif.g08.bks.cpg/sg169_cif.got.tgz:935.got - 2010.05.20 11:12:54.
