data_PCOD9579086
_publ_section_title
;
Structure prediction by ZEFSAII (Michael W. Deem and Ramdas Pophale) SiO2 
 PCOD9579086
Probable space group: R -3 M
;
_chemical_formula_sum "Si O2"
_cell_formula_units_Z 162
_cell_length_a 22.584135
_cell_length_b 22.584135
_cell_length_c 18.080599
_cell_angle_alpha 90.000000
_cell_angle_beta 90.000000
_cell_angle_gamma 120.000000
_cell_volume 7986.387317
_symmetry_space_group_name_H-M "R -3 M"
_symmetry_group_IT_number 166
_symmetry_cell_setting 'hexagonal'
loop_
_space_group_symop_operation_xyz
x,y,z
-y,x-y,z
-x+y,-x,z
x-y,-y,-z
-x,-x+y,-z
y,x,-z
-x,-y,-z
y,-x+y,-z
x-y,x,-z
-x+y,y,z
x,x-y,z
-y,-x,z
2/3+x,1/3+y,1/3+z
2/3-y,1/3+x-y,1/3+z
2/3-x+y,1/3-x,1/3+z
2/3+x-y,1/3-y,1/3-z
2/3-x,1/3-x+y,1/3-z
2/3+y,1/3+x,1/3-z
2/3-x,1/3-y,1/3-z
2/3+y,1/3-x+y,1/3-z
2/3+x-y,1/3+x,1/3-z
2/3-x+y,1/3+y,1/3+z
2/3+x,1/3+x-y,1/3+z
2/3-y,1/3-x,1/3+z
1/3+x,2/3+y,2/3+z
1/3-y,2/3+x-y,2/3+z
1/3-x+y,2/3-x,2/3+z
1/3+x-y,2/3-y,2/3-z
1/3-x,2/3-x+y,2/3-z
1/3+y,2/3+x,2/3-z
1/3-x,2/3-y,2/3-z
1/3+y,2/3-x+y,2/3-z
1/3+x-y,2/3+x,2/3-z
1/3-x+y,2/3+y,2/3+z
1/3+x,2/3+x-y,2/3+z
1/3-y,2/3-x,2/3+z
loop_
_atom_site_type_symbol
_atom_site_label
_atom_site_fract_x
_atom_site_fract_y
_atom_site_fract_z
Si Si1 0.884458 0.256244 0.009335
Si Si2 0.752476 0.809776 0.881612
Si Si3 0.543011 0.953829 0.176670
Si Si4 0.333334 0.537606 0.666667
Si Si5 0.946718 0.753756 0.751406
O O1 0.806143 0.193858 0.017475
O O2 0.927760 0.243559 0.073079
O O3 0.895976 0.332383 0.018831
O O4 0.903572 0.248431 0.924739
O O5 0.739817 0.869909 0.852742
O O6 0.786377 0.786519 0.819224
O O7 0.811243 0.844261 0.941719
O O8 0.462691 0.925382 0.178268
O O9 0.564781 0.898114 0.166667
O O10 0.573503 0.008215 0.110361
O O11 0.274531 0.549061 0.632862
O O12 0.886856 0.773712 0.743352
#
# Coordination Sequence:
#
# PCOD9579086 Si02
#       5
#    36  36  36  18  36
#     4  10  21  38  59  82 110 147 190 231 271 324
#     4  10  19  32  53  78 106 144 188 229 267 318
#     4  10  22  38  57  83 113 144 180 226 278 330
#     4  10  19  30  46  72 109 148 182 218 266 324
#     4  11  22  35  54  82 113 142 177 224 281 338
#
# _framework density 20.284514999999999
#
# number of rings (size 3 to 8) (size 9 to 14) (size 15 to 20)
#    0.000    1.778    0.000    4.778    0.000    8.889 
#    0.000    2.222    0.000    5.111    0.000    0.000 
#    0.000    0.000    0.000    0.000    0.000    0.000 
#
# Total GULP energy -301138.780368 kJ/mol
# GULP energy per Si atom -5576.644081 kJ/mol
# Density = 2.023835 g / cm^3
# Si number density = 20.284515 Si / 1000 Ang^3
#
#
#
# Elastic Constant Matrix: (Units=GPa)
#
#
# Indices 1 2 3 4 5 6 
#
# 1 256.4253 -87.7017 8.2259 15.9926 0.0047 0.0000
# 2 -87.7017 256.4253 8.2259 -15.9926 -0.0047 0.0000
# 3 8.2259 8.2259 42.8026 0.0000 0.0000 0.0000
# 4 15.9926 -15.9926 0.0000 25.2726 0.0000 -0.0047
# 5 0.0047 -0.0047 0.0000 0.0000 25.2726 15.9926
# 6 0.0000 0.0000 0.0000 -0.0047 15.9926 172.0635
#
#
#
# Elastic Compliance Matrix: (Units=1/GPa)
#
#
# Indices 1 2 3 4 5 6 
#
# 1 0.004564 0.001476 -0.001161 -0.001954 -0.000001 0.000000
# 2 0.001476 0.004564 -0.001161 0.001954 0.000001 0.000000
# 3 -0.001161 -0.001161 0.023809 0.000000 0.000000 0.000000
# 4 -0.001954 0.001954 0.000000 0.042041 0.000000 0.000001
# 5 -0.000001 0.000001 0.000000 0.000000 0.042041 -0.003908
# 6 0.000000 0.000000 0.000000 0.000001 -0.003908 0.006175
#
#
# Mechanical properties :
#
#
# Convention : Reuss Voigt Hill
#
# Bulk Modulus (GPa) = 32.00393 45.90593 38.95493
# Shear Modulus (GPa) = 36.95484 86.31528 61.63506
#
# Velocity S-wave (km/s) = 4.27291 6.53029 5.51826
# Velocity P-wave (km/s) = 6.33684 8.91850 7.73612
#
# Compressibility (1/GPa) = 0.03124616
#
# Stress axis : x y z
#
# Youngs Moduli (GPa) = 219.11717 219.11717 42.00055
#
# Poissons Ratio (x) = -0.32348 0.04875
# Poissons Ratio (y) = -0.32348 0.04875
# Poissons Ratio (z) = 0.25435 0.25435
#
# Static dielectric constant tensor:
#      x y z
#    x 1.740170 0.000000 0.000000 
#    y 0.000000 1.740170 0.000000 
#    z 0.000000 0.000000 1.794590 
# 
# From -- ./inp_files/6789.got.cif
#   From: 2010.05.17/outbox.cif.g08.bks.cpg/sg166_4_cif.got.tgz:6789.got - 2010.05.20 11:04:41.
