data_PCOD9579099
_publ_section_title
;
Structure prediction by ZEFSAII (Michael W. Deem and Ramdas Pophale) SiO2 
 PCOD9579099
Probable space group: R -3 M
;
_chemical_formula_sum "Si O2"
_cell_formula_units_Z 144
_cell_length_a 30.116555
_cell_length_b 30.116555
_cell_length_c 10.238966
_cell_angle_alpha 90.000000
_cell_angle_beta 90.000000
_cell_angle_gamma 120.000000
_cell_volume 8042.615682
_symmetry_space_group_name_H-M "R -3 M"
_symmetry_group_IT_number 166
_symmetry_cell_setting 'hexagonal'
loop_
_space_group_symop_operation_xyz
x,y,z
-y,x-y,z
-x+y,-x,z
x-y,-y,-z
-x,-x+y,-z
y,x,-z
-x,-y,-z
y,-x+y,-z
x-y,x,-z
-x+y,y,z
x,x-y,z
-y,-x,z
2/3+x,1/3+y,1/3+z
2/3-y,1/3+x-y,1/3+z
2/3-x+y,1/3-x,1/3+z
2/3+x-y,1/3-y,1/3-z
2/3-x,1/3-x+y,1/3-z
2/3+y,1/3+x,1/3-z
2/3-x,1/3-y,1/3-z
2/3+y,1/3-x+y,1/3-z
2/3+x-y,1/3+x,1/3-z
2/3-x+y,1/3+y,1/3+z
2/3+x,1/3+x-y,1/3+z
2/3-y,1/3-x,1/3+z
1/3+x,2/3+y,2/3+z
1/3-y,2/3+x-y,2/3+z
1/3-x+y,2/3-x,2/3+z
1/3+x-y,2/3-y,2/3-z
1/3-x,2/3-x+y,2/3-z
1/3+y,2/3+x,2/3-z
1/3-x,2/3-y,2/3-z
1/3+y,2/3-x+y,2/3-z
1/3+x-y,2/3+x,2/3-z
1/3-x+y,2/3+y,2/3+z
1/3+x,2/3+x-y,2/3+z
1/3-y,2/3-x,2/3+z
loop_
_atom_site_type_symbol
_atom_site_label
_atom_site_fract_x
_atom_site_fract_y
_atom_site_fract_z
Si Si1 0.842082 0.473422 0.204974
Si Si2 0.758248 0.035450 0.873012
Si Si3 0.389468 0.091586 0.960317
Si Si4 0.824590 0.859914 0.628365
O O1 0.836347 0.418174 0.219078
O O2 0.823267 0.489933 0.333334
O O3 0.901838 0.516129 0.179353
O O4 0.810882 0.477546 0.083336
O O5 0.746088 0.079423 0.916658
O O6 0.725606 0.999998 0.749997
O O7 0.742327 0.000000 0.000000
O O8 0.409002 0.075668 0.833334
O O9 0.431499 0.150543 0.987317
O O10 0.843405 0.843405 0.500000
O O11 0.830329 0.915165 0.614270
#
# Coordination Sequence:
#
# PCOD9579099 Si02
#       4
#    36  36  36  36
#     4  10  21  37  57  79 104 137 173 214 266 316
#     4  10  19  31  50  77 109 144 178 210 247 294
#     4  10  19  31  50  77 109 144 178 210 247 294
#     4  10  21  37  57  79 104 137 173 214 266 316
#
# _framework density 17.904623000000001
#
# number of rings (size 3 to 8) (size 9 to 14) (size 15 to 20)
#    0.000    2.000    0.000    4.500    0.000    1.000 
#    0.000    0.000    0.000   28.000    0.000    0.000 
#    0.000    0.000    0.000    0.000    0.000    0.000 
#
# Total GULP energy -267677.490144 kJ/mol
# GULP energy per Si atom -5576.614378 kJ/mol
# Density = 1.786387 g / cm^3
# Si number density = 17.904623 Si / 1000 Ang^3
#
#
#
# Elastic Constant Matrix: (Units=GPa)
#
#
# Indices 1 2 3 4 5 6 
#
# 1 98.8794 79.2699 26.8660 15.1121 0.0018 -0.0023
# 2 79.2699 98.8854 26.8802 -15.1040 0.0095 -0.0014
# 3 26.8660 26.8802 122.6877 0.0257 0.0311 -0.0100
# 4 15.1121 -15.1040 0.0257 -9.5314 0.0159 -0.0029
# 5 0.0018 0.0095 0.0311 0.0159 -9.4140 15.0684
# 6 -0.0023 -0.0014 -0.0100 -0.0029 15.0684 9.8208
#
#
#
# Elastic Compliance Matrix: (Units=1/GPa)
#
#
# Indices 1 2 3 4 5 6 
#
# 1 0.010412 -0.004401 -0.001321 0.023480 0.000013 -0.000013
# 2 -0.004401 0.010411 -0.001312 -0.023480 -0.000014 0.000013
# 3 -0.001321 -0.001312 0.008727 0.000009 0.000012 -0.000010
# 4 0.023480 -0.023480 0.000009 -0.030481 -0.000024 0.000029
# 5 0.000013 -0.000014 0.000012 -0.000024 -0.030737 0.047161
# 6 -0.000013 0.000013 -0.000010 0.000029 0.047161 0.029464
#
#
# Mechanical properties :
#
#
# Convention : Reuss Voigt Hill
#
# Bulk Modulus (GPa) = 64.59019 65.16498 64.87759
# Shear Modulus (GPa) = 293.65782 10.67084 152.16433
#
# Velocity S-wave (km/s) = 12.82062 2.44392 9.22879
# Velocity P-wave (km/s) = 15.97844 6.66621 12.24232
#
# Compressibility (1/GPa) = 0.01548223
#
# Stress axis : x y z
#
# Youngs Moduli (GPa) = 96.04133 96.04939 114.58055
#
# Poissons Ratio (x) = 0.42275 0.15132
# Poissons Ratio (y) = 0.42272 0.15037
# Poissons Ratio (z) = 0.12684 0.12605
#
# Static dielectric constant tensor:
#      x y z
#    x 1.866780 0.002750 0.000010 
#    y 0.002750 1.885520 0.000000 
#    z 0.000010 0.000000 1.608600 
# 
# From -- ./inp_files/1757.got.cif
#   From: 2010.05.17/outbox.cif.g08.bks.cpg/sg166_1_cif.got.tgz:1757.got - 2010.05.20 11:04:41.
