data_PCOD9579101
_publ_section_title
;
Structure prediction by ZEFSAII (Michael W. Deem and Ramdas Pophale) SiO2 
 PCOD9579101
Probable space group: R -3 M
;
_chemical_formula_sum "Si O2"
_cell_formula_units_Z 252
_cell_length_a 29.885014
_cell_length_b 29.885014
_cell_length_c 17.553197
_cell_angle_alpha 90.000000
_cell_angle_beta 90.000000
_cell_angle_gamma 120.000000
_cell_volume 13576.686378
_symmetry_space_group_name_H-M "R -3 M"
_symmetry_group_IT_number 166
_symmetry_cell_setting 'hexagonal'
loop_
_space_group_symop_operation_xyz
x,y,z
-y,x-y,z
-x+y,-x,z
x-y,-y,-z
-x,-x+y,-z
y,x,-z
-x,-y,-z
y,-x+y,-z
x-y,x,-z
-x+y,y,z
x,x-y,z
-y,-x,z
2/3+x,1/3+y,1/3+z
2/3-y,1/3+x-y,1/3+z
2/3-x+y,1/3-x,1/3+z
2/3+x-y,1/3-y,1/3-z
2/3-x,1/3-x+y,1/3-z
2/3+y,1/3+x,1/3-z
2/3-x,1/3-y,1/3-z
2/3+y,1/3-x+y,1/3-z
2/3+x-y,1/3+x,1/3-z
2/3-x+y,1/3+y,1/3+z
2/3+x,1/3+x-y,1/3+z
2/3-y,1/3-x,1/3+z
1/3+x,2/3+y,2/3+z
1/3-y,2/3+x-y,2/3+z
1/3-x+y,2/3-x,2/3+z
1/3+x-y,2/3-y,2/3-z
1/3-x,2/3-x+y,2/3-z
1/3+y,2/3+x,2/3-z
1/3-x,2/3-y,2/3-z
1/3+y,2/3-x+y,2/3-z
1/3+x-y,2/3+x,2/3-z
1/3-x+y,2/3+y,2/3+z
1/3+x,2/3+x-y,2/3+z
1/3-y,2/3-x,2/3+z
loop_
_atom_site_type_symbol
_atom_site_label
_atom_site_fract_x
_atom_site_fract_y
_atom_site_fract_z
Si Si1 0.530601 0.952525 0.600441
Si Si2 0.486159 0.408414 0.136893
Si Si3 0.713717 0.180758 0.381716
Si Si4 0.940109 0.164938 0.627676
Si Si5 0.700560 0.939820 0.496476
Si Si6 0.548184 0.721800 0.055543
Si Si7 0.812787 0.080509 0.232836
O O1 0.477216 0.954432 0.603426
O O2 0.526889 0.919321 0.672677
O O3 0.531561 0.926404 0.520438
O O4 0.577107 0.010776 0.595960
O O5 0.531818 0.468183 0.145540
O O6 0.501230 0.376907 0.196065
O O7 0.433044 0.406177 0.159903
O O8 0.488137 0.392873 0.050046
O O9 0.763020 0.236981 0.371526
O O10 0.666667 0.176586 0.333334
O O11 0.892619 0.107382 0.615498
O O12 0.931014 0.205442 0.579533
O O13 0.995042 0.173476 0.597093
O O14 0.733124 0.931629 0.564063
O O15 0.716695 0.000000 0.500000
O O16 0.535437 0.767719 0.070187
O O17 0.560313 0.721775 0.965929
O O18 0.862609 0.137392 0.225511
#
# Coordination Sequence:
#
# PCOD9579101 Si02
#       7
#    36  36  36  36  36  36  36
#     4   8  14  26  44  67  95 124 155 194 242 298
#     4  10  20  36  56  76 103 141 180 213 255 313
#     4  10  21  35  53  75 102 135 174 217 263 312
#     4  10  21  35  53  76 104 138 181 225 262 309
#     4  10  20  35  55  80 108 138 174 213 259 309
#     4  10  19  31  52  78 103 132 174 222 266 308
#     4   8  14  25  44  70  95 122 157 194 241 301
#
# _framework density 18.561229000000001
#
# number of rings (size 3 to 8) (size 9 to 14) (size 15 to 20)
#    0.000    2.571    0.000    3.429    2.000    3.429 
#    0.000    4.286    0.000    0.429    0.000    0.000 
#    0.000    3.429    0.000    0.000    0.000    0.000 
#
# Total GULP energy -467995.839360 kJ/mol
# GULP energy per Si atom -5571.379040 kJ/mol
# Density = 1.851898 g / cm^3
# Si number density = 18.561229 Si / 1000 Ang^3
#
#
#
# Elastic Constant Matrix: (Units=GPa)
#
#
# Indices 1 2 3 4 5 6 
#
# 1 74.8847 37.5545 3.3611 0.4296 0.0005 0.0000
# 2 37.5545 74.8847 3.3611 -0.4296 -0.0005 0.0000
# 3 3.3611 3.3611 93.0135 0.0000 0.0000 0.0000
# 4 0.4296 -0.4296 0.0000 13.6751 0.0000 -0.0005
# 5 0.0005 -0.0005 0.0000 0.0000 13.6751 0.4296
# 6 0.0000 0.0000 0.0000 -0.0005 0.4296 18.6651
#
#
#
# Elastic Compliance Matrix: (Units=1/GPa)
#
#
# Indices 1 2 3 4 5 6 
#
# 1 0.017860 -0.008947 -0.000322 -0.000842 -0.000001 0.000000
# 2 -0.008947 0.017860 -0.000322 0.000842 0.000001 0.000000
# 3 -0.000322 -0.000322 0.010774 0.000000 0.000000 0.000000
# 4 -0.000842 0.000842 0.000000 0.073178 0.000000 0.000002
# 5 -0.000001 0.000001 0.000000 0.000000 0.073178 -0.001684
# 6 0.000000 0.000000 0.000000 0.000002 -0.001684 0.053615
#
#
# Mechanical properties :
#
#
# Convention : Reuss Voigt Hill
#
# Bulk Modulus (GPa) = 36.61391 36.81512 36.71452
# Shear Modulus (GPa) = 18.19820 22.43683 20.31752
#
# Velocity S-wave (km/s) = 3.13460 3.48055 3.31210
# Velocity P-wave (km/s) = 5.73322 6.00248 5.86939
#
# Compressibility (1/GPa) = 0.02731202
#
# Stress axis : x y z
#
# Youngs Moduli (GPa) = 55.99061 55.99061 92.81259
#
# Poissons Ratio (x) = 0.50096 0.02989
# Poissons Ratio (y) = 0.50096 0.02989
# Poissons Ratio (z) = 0.01803 0.01803
#
# Static dielectric constant tensor:
#      x y z
#    x 1.659000 0.000000 0.000000 
#    y 0.000000 1.659000 0.000000 
#    z 0.000000 0.000000 1.681580 
# 
# From -- ./inp_files/5847.got.cif
#   From: 2010.05.17/outbox.cif.g08.bks.cpg/sg166_3_cif.got.tgz:5847.got - 2010.05.20 11:04:41.
