data_PCOD9579699
_publ_section_title
;
Structure prediction by ZEFSAII (Michael W. Deem and Ramdas Pophale) SiO2 
 PCOD9579699
Probable space group: R -3 C 
;
_chemical_formula_sum "Si O2"
_cell_formula_units_Z 84
_cell_length_a 16.190206
_cell_length_b 16.190206
_cell_length_c 13.578721
_cell_angle_alpha 90.000000
_cell_angle_beta 90.000000
_cell_angle_gamma 120.000000
_cell_volume 3082.437262
_symmetry_space_group_name_H-M "R -3 C "
_symmetry_group_IT_number 167
_symmetry_cell_setting 'hexagonal'
loop_
_space_group_symop_operation_xyz
x,y,z
-y,x-y,z
-x+y,-x,z
x-y,-y,1/2-z
-x,-x+y,1/2-z
y,x,1/2-z
-x,-y,-z
y,-x+y,-z
x-y,x,-z
-x+y,y,1/2+z
x,x-y,1/2+z
-y,-x,1/2+z
2/3+x,1/3+y,1/3+z
2/3-y,1/3+x-y,1/3+z
2/3-x+y,1/3-x,1/3+z
2/3+x-y,1/3-y,5/6-z
2/3-x,1/3-x+y,5/6-z
2/3+y,1/3+x,5/6-z
2/3-x,1/3-y,1/3-z
2/3+y,1/3-x+y,1/3-z
2/3+x-y,1/3+x,1/3-z
2/3-x+y,1/3+y,5/6+z
2/3+x,1/3+x-y,5/6+z
2/3-y,1/3-x,5/6+z
1/3+x,2/3+y,2/3+z
1/3-y,2/3+x-y,2/3+z
1/3-x+y,2/3-x,2/3+z
1/3+x-y,2/3-y,1/6-z
1/3-x,2/3-x+y,1/6-z
1/3+y,2/3+x,1/6-z
1/3-x,2/3-y,2/3-z
1/3+y,2/3-x+y,2/3-z
1/3+x-y,2/3+x,2/3-z
1/3-x+y,2/3+y,1/6+z
1/3+x,2/3+x-y,1/6+z
1/3-y,2/3-x,1/6+z
loop_
_atom_site_type_symbol
_atom_site_label
_atom_site_fract_x
_atom_site_fract_y
_atom_site_fract_z
Si Si1 0.706163 0.798021 0.920993
Si Si2 0.000000 0.000000 0.881603
Si Si3 0.901780 0.785186 0.385288
O O1 0.666667 0.833334 0.833334
O O2 0.771982 0.757848 0.876526
O O3 0.776564 0.878992 0.998010
O O4 0.613737 0.750037 0.993417
O O5 0.945498 0.891424 0.849717
O O6 0.000000 0.000000 0.000000
#
# Coordination Sequence:
#
# PCOD9579699 Si02
#       3
#    36  12  36
#     4  11  24  49  73 113 152 202 247 327 383 473
#     4  12  21  51  81 106 147 207 259 327 369 481
#     4  11  24  49  79 108 156 200 263 313 401 459
#
# _framework density 27.251165
#
# number of rings (size 3 to 8) (size 9 to 14) (size 15 to 20)
#    0.000    0.857    4.286    1.286    0.000    0.000 
#   54.000   15.000    0.000    0.000    0.000    0.000 
#    0.000    0.000    0.000    0.000    0.000    0.000 
#
# Total GULP energy -156571.922096 kJ/mol
# GULP energy per Si atom -5591.854361 kJ/mol
# Density = 2.718914 g / cm^3
# Si number density = 27.251165 Si / 1000 Ang^3
#
#
#
# Elastic Constant Matrix: (Units=GPa)
#
#
# Indices 1 2 3 4 5 6 
#
# 1 131.5164 65.4619 -2.5568 -16.2327 0.0000 0.0000
# 2 65.4619 131.5164 -2.5568 16.2327 0.0000 0.0000
# 3 -2.5568 -2.5568 153.0753 0.0000 0.0000 0.0000
# 4 -16.2327 16.2327 0.0000 33.0153 0.0000 0.0000
# 5 0.0000 0.0000 0.0000 0.0000 33.0153 -16.2327
# 6 0.0000 0.0000 0.0000 0.0000 -16.2327 33.0273
#
#
#
# Elastic Compliance Matrix: (Units=1/GPa)
#
#
# Indices 1 2 3 4 5 6 
#
# 1 0.012521 -0.007442 0.000085 0.009815 0.000000 0.000000
# 2 -0.007442 0.012521 0.000085 -0.009815 0.000000 0.000000
# 3 0.000085 0.000085 0.006536 0.000000 0.000000 0.000000
# 4 0.009815 -0.009815 0.000000 0.039941 0.000000 0.000000
# 5 0.000000 0.000000 0.000000 0.000000 0.039941 0.019631
# 6 0.000000 0.000000 0.000000 0.000000 0.019631 0.039926
#
#
# Mechanical properties :
#
#
# Convention : Reuss Voigt Hill
#
# Bulk Modulus (GPa) = 58.71057 59.64495 59.17776
# Shear Modulus (GPa) = 29.13612 43.52888 36.33250
#
# Velocity S-wave (km/s) = 3.27336 4.00099 3.65533
# Velocity P-wave (km/s) = 5.98979 6.57864 6.29111
#
# Compressibility (1/GPa) = 0.01703271
#
# Stress axis : x y z
#
# Youngs Moduli (GPa) = 79.86555 79.86555 153.00890
#
# Poissons Ratio (x) = 0.59437 -0.01298
# Poissons Ratio (y) = 0.59437 -0.01298
# Poissons Ratio (z) = -0.00678 -0.00678
#
# Static dielectric constant tensor:
#      x y z
#    x 2.281180 0.000000 0.000000 
#    y 0.000000 2.281180 0.000000 
#    z 0.000000 0.000000 2.153580 
# 
# From -- ./inp_files/1843.got.cif
#   From: 2010.05.17/outbox.cif.g08.bks.cpg/sg167_1_cif.got.tgz:1843.got - 2010.05.20 11:09:15.
