data_PCOD9579973
_publ_section_title
;
Structure prediction by ZEFSAII (Michael W. Deem and Ramdas Pophale) SiO2 
 PCOD9579973
Probable space group: P 61
;
_chemical_formula_sum "Si O2"
_cell_formula_units_Z 36
_cell_length_a 11.098462
_cell_length_b 11.098462
_cell_length_c 14.798100
_cell_angle_alpha 90.000000
_cell_angle_beta 90.000000
_cell_angle_gamma 120.000000
_cell_volume 1578.563978
_symmetry_space_group_name_H-M "P 61"
_symmetry_group_IT_number 169
_symmetry_cell_setting 'hexagonal'
loop_
_space_group_symop_operation_xyz
x,y,z
x-y,x,1/6+z
-y,x-y,1/3+z
-x,-y,1/2+z
-x+y,-x,2/3+z
y,-x+y,5/6+z
loop_
_atom_site_type_symbol
_atom_site_label
_atom_site_fract_x
_atom_site_fract_y
_atom_site_fract_z
Si Si1 0.838418 0.572605 0.392210
Si Si2 0.029479 0.395445 0.566994
Si Si3 0.768872 0.288010 0.349196
Si Si4 0.570349 0.839485 0.026213
Si Si5 0.479499 0.713142 0.737760
Si Si6 0.389493 0.028998 0.852514
O O1 0.805946 0.416691 0.418484
O O2 0.770766 0.555741 0.294491
O O3 0.777081 0.636438 0.464040
O O4 0.998685 0.668806 0.371081
O O5 0.138657 0.370594 0.625603
O O6 0.102437 0.452536 0.471560
O O7 0.027386 0.518314 0.624337
O O8 0.871929 0.272134 0.552965
O O9 0.635961 0.270060 0.293572
O O10 0.898910 0.351840 0.280738
O O11 0.732347 0.129390 0.367216
O O12 0.413247 0.803261 0.000134
#
# Coordination Sequence:
#
# PCOD9579973 Si02
#       6
#     6   6   6   6   6   6
#     4  11  22  37  62  93 119 161 209 257 311 374
#     4  11  20  37  57  85 128 152 204 254 313 366
#     4  10  22  36  58  89 121 162 196 258 313 364
#     4  11  22  37  62  93 119 161 209 257 311 374
#     4  10  22  36  58  89 121 162 196 258 313 364
#     4  11  20  37  57  85 128 152 204 254 313 366
#
# _framework density 22.805536
#
# number of rings (size 3 to 8) (size 9 to 14) (size 15 to 20)
#    0.000    1.333    6.667    2.000    4.667    0.000 
#    0.000    0.000    0.000   12.000    0.000    0.000 
#    0.000    0.000    0.000    0.000    0.000    0.000 
#
# Total GULP energy -201208.923459 kJ/mol
# GULP energy per Si atom -5589.136763 kJ/mol
# Density = 2.275363 g / cm^3
# Si number density = 22.805536 Si / 1000 Ang^3
#
#
#
# Elastic Constant Matrix: (Units=GPa)
#
#
# Indices 1 2 3 4 5 6 
#
# 1 105.1274 46.6785 15.1166 0.0000 0.0000 0.0000
# 2 46.6785 105.1274 15.1166 0.0000 0.0000 0.0000
# 3 15.1166 15.1166 70.1504 0.0000 0.0000 0.0000
# 4 0.0000 0.0000 0.0000 25.6643 0.0000 0.0000
# 5 0.0000 0.0000 0.0000 0.0000 25.6643 0.0000
# 6 0.0000 0.0000 0.0000 0.0000 0.0000 29.2244
#
#
#
# Elastic Compliance Matrix: (Units=1/GPa)
#
#
# Indices 1 2 3 4 5 6 
#
# 1 0.011996 -0.005113 -0.001483 0.000000 0.000000 0.000000
# 2 -0.005113 0.011996 -0.001483 0.000000 0.000000 0.000000
# 3 -0.001483 -0.001483 0.014894 0.000000 0.000000 0.000000
# 4 0.000000 0.000000 0.000000 0.038965 0.000000 0.000000
# 5 0.000000 0.000000 0.000000 0.000000 0.038965 0.000000
# 6 0.000000 0.000000 0.000000 0.000000 0.000000 0.034218
#
#
# Mechanical properties :
#
#
# Convention : Reuss Voigt Hill
#
# Bulk Modulus (GPa) = 44.00020 48.24760 46.12390
# Shear Modulus (GPa) = 28.60938 29.67682 29.14310
#
# Velocity S-wave (km/s) = 3.54572 3.61127 3.57865
# Velocity P-wave (km/s) = 6.00820 6.21211 6.11100
#
# Compressibility (1/GPa) = 0.02272717
#
# Stress axis : x y z
#
# Youngs Moduli (GPa) = 83.36213 83.36213 67.13982
#
# Poissons Ratio (x) = 0.42624 0.09958
# Poissons Ratio (y) = 0.42624 0.09958
# Poissons Ratio (z) = 0.12364 0.12364
#
# Static dielectric constant tensor:
#      x y z
#    x 1.896600 0.000000 0.000000 
#    y 0.000000 1.896600 0.000000 
#    z 0.000000 0.000000 2.798750 
# 
# From -- ./inp_files/1340.got.cif
#   From: 2010.05.17/outbox.cif.g08.bks.cpg/sg169_cif.got.tgz:1340.got - 2010.05.20 11:12:54.
