data_PCOD9579194
_publ_section_title
;
Structure prediction by ZEFSAII (Michael W. Deem and Ramdas Pophale) SiO2 
 PCOD9579194
Probable space group: R -3 M
;
_chemical_formula_sum "Si O2"
_cell_formula_units_Z 216
_cell_length_a 24.259564
_cell_length_b 24.259564
_cell_length_c 20.577461
_cell_angle_alpha 90.000000
_cell_angle_beta 90.000000
_cell_angle_gamma 120.000000
_cell_volume 10487.896711
_symmetry_space_group_name_H-M "R -3 M"
_symmetry_group_IT_number 166
_symmetry_cell_setting 'hexagonal'
loop_
_space_group_symop_operation_xyz
x,y,z
-y,x-y,z
-x+y,-x,z
x-y,-y,-z
-x,-x+y,-z
y,x,-z
-x,-y,-z
y,-x+y,-z
x-y,x,-z
-x+y,y,z
x,x-y,z
-y,-x,z
2/3+x,1/3+y,1/3+z
2/3-y,1/3+x-y,1/3+z
2/3-x+y,1/3-x,1/3+z
2/3+x-y,1/3-y,1/3-z
2/3-x,1/3-x+y,1/3-z
2/3+y,1/3+x,1/3-z
2/3-x,1/3-y,1/3-z
2/3+y,1/3-x+y,1/3-z
2/3+x-y,1/3+x,1/3-z
2/3-x+y,1/3+y,1/3+z
2/3+x,1/3+x-y,1/3+z
2/3-y,1/3-x,1/3+z
1/3+x,2/3+y,2/3+z
1/3-y,2/3+x-y,2/3+z
1/3-x+y,2/3-x,2/3+z
1/3+x-y,2/3-y,2/3-z
1/3-x,2/3-x+y,2/3-z
1/3+y,2/3+x,2/3-z
1/3-x,2/3-y,2/3-z
1/3+y,2/3-x+y,2/3-z
1/3+x-y,2/3+x,2/3-z
1/3-x+y,2/3+y,2/3+z
1/3+x,2/3+x-y,2/3+z
1/3-y,2/3-x,2/3+z
loop_
_atom_site_type_symbol
_atom_site_label
_atom_site_fract_x
_atom_site_fract_y
_atom_site_fract_z
Si Si1 0.874412 0.874635 0.710695
Si Si2 0.154327 0.639328 0.236535
Si Si3 0.332738 0.789556 0.744328
Si Si4 0.738853 0.601797 0.579485
Si Si5 0.039410 0.371547 0.089680
Si Si6 0.737570 0.600614 0.425101
O O1 0.945171 0.890341 0.727903
O O2 0.866257 0.868647 0.632351
O O3 0.826701 0.805092 0.739581
O O4 0.861452 0.930726 0.731264
O O5 0.125910 0.562955 0.234570
O O6 0.185891 0.666667 0.166667
O O7 0.101826 0.660351 0.247211
O O8 0.392128 0.784256 0.771941
O O9 0.265926 0.734075 0.769736
O O10 0.333334 0.781354 0.666667
O O11 0.348813 0.861164 0.753512
O O12 0.806621 0.613241 0.606427
O O13 0.715197 0.649489 0.602282
O O14 0.748394 0.612908 0.502150
O O15 0.024832 0.358166 0.166667
O O16 0.050519 0.315614 0.063030
O O17 0.802778 0.605557 0.397774
#
# Coordination Sequence:
#
# PCOD9579194 Si02
#       6
#    36  36  36  36  36  36
#     4  10  21  37  55  77 106 139 175 218 268 318
#     4  10  20  34  54  80 107 137 175 218 266 320
#     4   9  17  30  48  72  99 130 168 213 260 305
#     4   9  19  35  54  77 104 137 177 218 258 305
#     4   9  18  33  54  76 103 138 172 211 262 307
#     4   9  17  32  53  75 104 138 173 213 258 310
#
# _framework density 20.595168000000001
#
# number of rings (size 3 to 8) (size 9 to 14) (size 15 to 20)
#    0.000    2.667    0.000    1.333    0.000    6.667 
#    3.000    2.500    0.000    7.667    0.000    0.000 
#    0.000    0.000    0.000    0.000    0.000    0.000 
#
# Total GULP energy -401546.399333 kJ/mol
# GULP energy per Si atom -5577.033324 kJ/mol
# Density = 2.054829 g / cm^3
# Si number density = 20.595168 Si / 1000 Ang^3
#
#
#
# Elastic Constant Matrix: (Units=GPa)
#
#
# Indices 1 2 3 4 5 6 
#
# 1 130.5905 104.6878 3.5903 2.7653 0.0000 0.0000
# 2 104.6878 130.5905 3.5903 -2.7653 0.0000 0.0000
# 3 3.5903 3.5903 38.4948 0.0000 0.0000 0.0000
# 4 2.7653 -2.7653 0.0000 14.1749 0.0000 0.0000
# 5 0.0000 0.0000 0.0000 0.0000 14.1749 2.7653
# 6 0.0000 0.0000 0.0000 0.0000 2.7653 12.9513
#
#
#
# Elastic Compliance Matrix: (Units=1/GPa)
#
#
# Indices 1 2 3 4 5 6 
#
# 1 0.022273 -0.018011 -0.000398 -0.007859 0.000000 0.000000
# 2 -0.018011 0.022273 -0.000398 0.007859 0.000000 0.000000
# 3 -0.000398 -0.000398 0.026052 0.000000 0.000000 0.000000
# 4 -0.007859 0.007859 0.000000 0.073613 0.000000 0.000000
# 5 0.000000 0.000000 0.000000 0.000000 0.073613 -0.015717
# 6 0.000000 0.000000 0.000000 0.000000 -0.015717 0.080568
#
#
# Mechanical properties :
#
#
# Convention : Reuss Voigt Hill
#
# Bulk Modulus (GPa) = 30.31556 58.15695 44.23626
# Shear Modulus (GPa) = 14.40923 20.78072 17.59497
#
# Velocity S-wave (km/s) = 2.64794 3.17994 2.92606
# Velocity P-wave (km/s) = 4.90923 6.46391 5.73945
#
# Compressibility (1/GPa) = 0.03298636
#
# Stress axis : x y z
#
# Youngs Moduli (GPa) = 44.89698 44.89698 38.38520
#
# Poissons Ratio (x) = 0.80863 0.01526
# Poissons Ratio (y) = 0.80863 0.01526
# Poissons Ratio (z) = 0.01785 0.01785
#
# Static dielectric constant tensor:
#      x y z
#    x 1.735760 0.000000 0.000000 
#    y 0.000000 1.735760 0.000000 
#    z 0.000000 0.000000 1.779170 
# 
# From -- ./inp_files/8454.got.cif
#   From: 2010.05.17/outbox.cif.g08.bks.cpg/sg166_5_cif.got.tgz:8454.got - 2010.05.20 11:04:41.
