data_PCOD9579620
_publ_section_title
;
Structure prediction by ZEFSAII (Michael W. Deem and Ramdas Pophale) SiO2 
 PCOD9579620
Probable space group: R -3 C 
;
_chemical_formula_sum "Si O2"
_cell_formula_units_Z 108
_cell_length_a 18.876890
_cell_length_b 18.876890
_cell_length_c 17.664909
_cell_angle_alpha 90.000000
_cell_angle_beta 90.000000
_cell_angle_gamma 120.000000
_cell_volume 5451.335690
_symmetry_space_group_name_H-M "R -3 C "
_symmetry_group_IT_number 167
_symmetry_cell_setting 'hexagonal'
loop_
_space_group_symop_operation_xyz
x,y,z
-y,x-y,z
-x+y,-x,z
x-y,-y,1/2-z
-x,-x+y,1/2-z
y,x,1/2-z
-x,-y,-z
y,-x+y,-z
x-y,x,-z
-x+y,y,1/2+z
x,x-y,1/2+z
-y,-x,1/2+z
2/3+x,1/3+y,1/3+z
2/3-y,1/3+x-y,1/3+z
2/3-x+y,1/3-x,1/3+z
2/3+x-y,1/3-y,5/6-z
2/3-x,1/3-x+y,5/6-z
2/3+y,1/3+x,5/6-z
2/3-x,1/3-y,1/3-z
2/3+y,1/3-x+y,1/3-z
2/3+x-y,1/3+x,1/3-z
2/3-x+y,1/3+y,5/6+z
2/3+x,1/3+x-y,5/6+z
2/3-y,1/3-x,5/6+z
1/3+x,2/3+y,2/3+z
1/3-y,2/3+x-y,2/3+z
1/3-x+y,2/3-x,2/3+z
1/3+x-y,2/3-y,1/6-z
1/3-x,2/3-x+y,1/6-z
1/3+y,2/3+x,1/6-z
1/3-x,2/3-y,2/3-z
1/3+y,2/3-x+y,2/3-z
1/3+x-y,2/3+x,2/3-z
1/3-x+y,2/3+y,1/6+z
1/3+x,2/3+x-y,1/6+z
1/3-y,2/3-x,1/6+z
loop_
_atom_site_type_symbol
_atom_site_label
_atom_site_fract_x
_atom_site_fract_y
_atom_site_fract_z
Si Si1 0.545142 0.654081 0.028852
Si Si2 0.290027 0.938746 0.669169
Si Si3 0.209721 0.757242 0.925656
O O1 0.547455 0.650233 0.119978
O O2 0.635640 0.669678 0.006722
O O3 0.536699 0.726723 0.991203
O O4 0.475304 0.575055 0.985314
O O5 0.260572 0.927239 0.583334
O O6 0.210520 0.921837 0.716499
O O7 0.196025 0.666667 0.916667
#
# Coordination Sequence:
#
# PCOD9579620 Si02
#       3
#    36  36  36
#     4  10  23  42  60 100 132 163 242 269 333 447
#     4  11  22  37  67  93 134 166 211 301 342 400
#     4  11  22  40  66  91 134 184 219 285 349 405
#
# _framework density 19.811658000000001
#
# number of rings (size 3 to 8) (size 9 to 14) (size 15 to 20)
#    0.000    1.333    6.667    1.000    4.667    0.000 
#    8.000    0.000    0.000    0.000    0.000    9.333 
#    0.000    0.000    0.000    0.000    0.000    0.000 
#
# Total GULP energy -200497.159248 kJ/mol
# GULP energy per Si atom -5569.365535 kJ/mol
# Density = 1.976657 g / cm^3
# Si number density = 19.811658 Si / 1000 Ang^3
#
#
#
# Elastic Constant Matrix: (Units=GPa)
#
#
# Indices 1 2 3 4 5 6 
#
# 1 107.1024 44.2192 42.7688 -0.9736 -0.0003 0.0000
# 2 44.2192 107.1024 42.7688 0.9736 0.0003 0.0000
# 3 42.7688 42.7688 151.0596 0.0000 0.0000 0.0000
# 4 -0.9736 0.9736 0.0000 30.0045 0.0000 0.0003
# 5 -0.0003 0.0003 0.0000 0.0000 30.0045 -0.9736
# 6 0.0000 0.0000 0.0000 0.0003 -0.9736 31.4416
#
#
#
# Elastic Compliance Matrix: (Units=1/GPa)
#
#
# Indices 1 2 3 4 5 6 
#
# 1 0.011893 -0.004025 -0.002228 0.000517 0.000000 0.000000
# 2 -0.004025 0.011893 -0.002228 -0.000517 0.000000 0.000000
# 3 -0.002228 -0.002228 0.007881 0.000000 0.000000 0.000000
# 4 0.000517 -0.000517 0.000000 0.033362 0.000000 0.000000
# 5 0.000000 0.000000 0.000000 0.000000 0.033362 0.001033
# 6 0.000000 0.000000 0.000000 0.000000 0.001033 0.031837
#
#
# Mechanical properties :
#
#
# Convention : Reuss Voigt Hill
#
# Bulk Modulus (GPa) = 67.99781 69.41978 68.70879
# Shear Modulus (GPa) = 32.87502 33.99062 33.43282
#
# Velocity S-wave (km/s) = 4.07797 4.14658 4.11242
# Velocity P-wave (km/s) = 7.52128 7.61849 7.57004
#
# Compressibility (1/GPa) = 0.01470636
#
# Stress axis : x y z
#
# Youngs Moduli (GPa) = 84.08278 84.08278 126.88373
#
# Poissons Ratio (x) = 0.33847 0.28263
# Poissons Ratio (y) = 0.33847 0.28263
# Poissons Ratio (z) = 0.18730 0.18730
#
# Static dielectric constant tensor:
#      x y z
#    x 1.735660 0.000000 0.000000 
#    y 0.000000 1.735660 0.000000 
#    z 0.000000 0.000000 1.816940 
# 
# From -- ./inp_files/4081.got.cif
#   From: 2010.05.17/outbox.cif.g08.bks.cpg/sg167_3_cif.got.tgz:4081.got - 2010.05.20 11:09:15.
