data_PCOD9579261
_publ_section_title
;
Structure prediction by ZEFSAII (Michael W. Deem and Ramdas Pophale) SiO2 
 PCOD9579261
Probable space group: R -3 M
;
_chemical_formula_sum "Si O2"
_cell_formula_units_Z 162
_cell_length_a 26.804701
_cell_length_b 26.804701
_cell_length_c 15.145419
_cell_angle_alpha 90.000000
_cell_angle_beta 90.000000
_cell_angle_gamma 120.000000
_cell_volume 9423.969212
_symmetry_space_group_name_H-M "R -3 M"
_symmetry_group_IT_number 166
_symmetry_cell_setting 'hexagonal'
loop_
_space_group_symop_operation_xyz
x,y,z
-y,x-y,z
-x+y,-x,z
x-y,-y,-z
-x,-x+y,-z
y,x,-z
-x,-y,-z
y,-x+y,-z
x-y,x,-z
-x+y,y,z
x,x-y,z
-y,-x,z
2/3+x,1/3+y,1/3+z
2/3-y,1/3+x-y,1/3+z
2/3-x+y,1/3-x,1/3+z
2/3+x-y,1/3-y,1/3-z
2/3-x,1/3-x+y,1/3-z
2/3+y,1/3+x,1/3-z
2/3-x,1/3-y,1/3-z
2/3+y,1/3-x+y,1/3-z
2/3+x-y,1/3+x,1/3-z
2/3-x+y,1/3+y,1/3+z
2/3+x,1/3+x-y,1/3+z
2/3-y,1/3-x,1/3+z
1/3+x,2/3+y,2/3+z
1/3-y,2/3+x-y,2/3+z
1/3-x+y,2/3-x,2/3+z
1/3+x-y,2/3-y,2/3-z
1/3-x,2/3-x+y,2/3-z
1/3+y,2/3+x,2/3-z
1/3-x,2/3-y,2/3-z
1/3+y,2/3-x+y,2/3-z
1/3+x-y,2/3+x,2/3-z
1/3-x+y,2/3+y,2/3+z
1/3+x,2/3+x-y,2/3+z
1/3-y,2/3-x,2/3+z
loop_
_atom_site_type_symbol
_atom_site_label
_atom_site_fract_x
_atom_site_fract_y
_atom_site_fract_z
Si Si1 0.174260 0.230375 0.119219
Si Si2 0.652320 0.768520 0.039014
Si Si3 0.901814 0.394436 0.867312
Si Si4 0.453988 0.787321 0.666667
Si Si5 0.935115 0.354730 0.036474
O O1 0.117279 0.234558 0.142920
O O2 0.207084 0.279691 0.044966
O O3 0.218173 0.251834 0.201088
O O4 0.151010 0.166410 0.080666
O O5 0.642987 0.821494 0.014839
O O6 0.624177 0.747472 0.137300
O O7 0.617452 0.713579 0.978259
O O8 0.884744 0.442372 0.858320
O O9 0.853659 0.333334 0.833334
O O10 0.913820 0.385581 0.967082
O O11 0.391066 0.782131 0.652873
O O12 0.000000 0.378822 0.000000
#
# Coordination Sequence:
#
# PCOD9579261 Si02
#       5
#    36  36  36  18  36
#     4  10  21  37  56  80 110 143 182 229 276 323
#     4   9  19  34  48  72 112 147 177 218 268 321
#     4   9  17  30  48  73 104 142 180 218 263 318
#     4  10  23  44  66  84 104 138 185 240 294 338
#     4  11  20  30  54  82 107 144 187 220 263 322
#
# _framework density 17.190208999999999
#
# number of rings (size 3 to 8) (size 9 to 14) (size 15 to 20)
#    0.000    2.222    2.222    0.778    1.556    1.778 
#    0.000    0.000    0.000    4.222    0.000    0.000 
#    0.000    0.000    0.000    0.000    0.000    0.000 
#
# Total GULP energy -300684.525838 kJ/mol
# GULP energy per Si atom -5568.231960 kJ/mol
# Density = 1.715108 g / cm^3
# Si number density = 17.190209 Si / 1000 Ang^3
#
#
#
# Elastic Constant Matrix: (Units=GPa)
#
#
# Indices 1 2 3 4 5 6 
#
# 1 89.5487 96.7182 36.7264 -34.6999 0.0014 0.0000
# 2 96.7182 89.5487 36.7264 34.6999 -0.0014 0.0000
# 3 36.7264 36.7264 47.4701 0.0000 0.0000 0.0000
# 4 -34.6999 34.6999 0.0000 -56.6287 0.0000 -0.0013
# 5 0.0014 -0.0014 0.0000 0.0000 -56.6287 -34.6999
# 6 0.0000 0.0000 0.0000 -0.0013 -34.6999 -3.5848
#
#
#
# Elastic Compliance Matrix: (Units=1/GPa)
#
#
# Indices 1 2 3 4 5 6 
#
# 1 0.018005 -0.010279 -0.005977 -0.017331 0.000001 0.000000
# 2 -0.010279 0.018005 -0.005977 0.017331 -0.000001 0.000000
# 3 -0.005977 -0.005977 0.030315 0.000000 0.000000 0.000000
# 4 -0.017331 0.017331 0.000000 0.003581 0.000000 -0.000001
# 5 0.000001 -0.000001 0.000000 0.000000 0.003581 -0.034662
# 6 0.000000 0.000000 0.000000 -0.000001 -0.034662 0.056567
#
#
# Mechanical properties :
#
#
# Convention : Reuss Voigt Hill
#
# Bulk Modulus (GPa) = 45.75115 62.98993 54.37054
# Shear Modulus (GPa) = 27.50189 -19.60866 3.94661
#
# Velocity S-wave (km/s) = 4.00416 -3.38107 1.51685
# Velocity P-wave (km/s) = 6.93182 4.63468 5.89620
#
# Compressibility (1/GPa) = 0.02185737
#
# Stress axis : x y z
#
# Youngs Moduli (GPa) = 55.54106 55.54107 32.98734
#
# Poissons Ratio (x) = 0.57091 0.19717
# Poissons Ratio (y) = 0.57091 0.19717
# Poissons Ratio (z) = 0.33198 0.33198
#
# Static dielectric constant tensor:
#      x y z
#    x 1.588230 0.000000 0.000000 
#    y 0.000000 1.588230 0.000000 
#    z 0.000000 0.000000 1.647590 
# 
# From -- ./inp_files/5565.got.cif
#   From: 2010.05.17/outbox.cif.g08.bks.cpg/sg166_3_cif.got.tgz:5565.got - 2010.05.20 11:04:41.
