data_PCOD9579247
_publ_section_title
;
Structure prediction by ZEFSAII (Michael W. Deem and Ramdas Pophale) SiO2 
 PCOD9579247
Probable space group: R -3 M
;
_chemical_formula_sum "Si O2"
_cell_formula_units_Z 126
_cell_length_a 20.436402
_cell_length_b 20.436402
_cell_length_c 18.382763
_cell_angle_alpha 90.000000
_cell_angle_beta 90.000000
_cell_angle_gamma 120.000000
_cell_volume 6648.907542
_symmetry_space_group_name_H-M "R -3 M"
_symmetry_group_IT_number 166
_symmetry_cell_setting 'hexagonal'
loop_
_space_group_symop_operation_xyz
x,y,z
-y,x-y,z
-x+y,-x,z
x-y,-y,-z
-x,-x+y,-z
y,x,-z
-x,-y,-z
y,-x+y,-z
x-y,x,-z
-x+y,y,z
x,x-y,z
-y,-x,z
2/3+x,1/3+y,1/3+z
2/3-y,1/3+x-y,1/3+z
2/3-x+y,1/3-x,1/3+z
2/3+x-y,1/3-y,1/3-z
2/3-x,1/3-x+y,1/3-z
2/3+y,1/3+x,1/3-z
2/3-x,1/3-y,1/3-z
2/3+y,1/3-x+y,1/3-z
2/3+x-y,1/3+x,1/3-z
2/3-x+y,1/3+y,1/3+z
2/3+x,1/3+x-y,1/3+z
2/3-y,1/3-x,1/3+z
1/3+x,2/3+y,2/3+z
1/3-y,2/3+x-y,2/3+z
1/3-x+y,2/3-x,2/3+z
1/3+x-y,2/3-y,2/3-z
1/3-x,2/3-x+y,2/3-z
1/3+y,2/3+x,2/3-z
1/3-x,2/3-y,2/3-z
1/3+y,2/3-x+y,2/3-z
1/3+x-y,2/3+x,2/3-z
1/3-x+y,2/3+y,2/3+z
1/3+x,2/3+x-y,2/3+z
1/3-y,2/3-x,2/3+z
loop_
_atom_site_type_symbol
_atom_site_label
_atom_site_fract_x
_atom_site_fract_y
_atom_site_fract_z
Si Si1 0.295956 0.855420 0.392435
Si Si2 0.746795 0.798651 0.859793
Si Si3 0.666667 0.492539 0.333334
Si Si4 0.792038 0.054436 0.568352
O O1 0.231297 0.768704 0.390341
O O2 0.355668 0.869660 0.454249
O O3 0.254347 0.901836 0.417456
O O4 0.322625 0.880426 0.310166
O O5 0.730601 0.865301 0.880816
O O6 0.666667 0.729526 0.833334
O O7 0.792965 0.794537 0.928656
O O8 0.742479 0.484958 0.333654
O O9 0.878550 0.121451 0.558471
O O10 0.762560 0.000000 0.500000
#
# Coordination Sequence:
#
# PCOD9579247 Si02
#       4
#    36  36  18  36
#     4   9  18  33  50  70  98 130 166 204 242 295
#     4  10  21  34  50  77 108 134 164 208 262 311
#     4  10  21  38  58  78 103 140 184 222 256 304
#     4   9  18  31  49  72  95 124 162 200 239 288
#
# _framework density 18.950481
#
# number of rings (size 3 to 8) (size 9 to 14) (size 15 to 20)
#    0.000    2.571    0.000    3.571    0.000    5.714 
#    0.000    5.714    0.000    0.857    0.000    0.000 
#    0.000    0.000    0.000    0.000    0.000    0.000 
#
# Total GULP energy -233877.572958 kJ/mol
# GULP energy per Si atom -5568.513642 kJ/mol
# Density = 1.890735 g / cm^3
# Si number density = 18.950481 Si / 1000 Ang^3
#
#
#
# Elastic Constant Matrix: (Units=GPa)
#
#
# Indices 1 2 3 4 5 6 
#
# 1 40.7800 26.7043 44.3273 4.0594 -0.0003 0.0000
# 2 26.7043 40.7800 44.3273 -4.0594 0.0003 0.0000
# 3 44.3273 44.3273 162.3769 0.0000 0.0000 0.0000
# 4 4.0594 -4.0594 0.0000 32.2933 0.0000 0.0003
# 5 -0.0003 0.0003 0.0000 0.0000 32.2933 4.0594
# 6 0.0000 0.0000 0.0000 0.0003 4.0594 7.0379
#
#
#
# Elastic Compliance Matrix: (Units=1/GPa)
#
#
# Indices 1 2 3 4 5 6 
#
# 1 0.049851 -0.026747 -0.006307 -0.009629 0.000001 0.000000
# 2 -0.026747 0.049851 -0.006307 0.009629 -0.000001 0.000000
# 3 -0.006307 -0.006307 0.009602 0.000000 0.000000 0.000000
# 4 -0.009629 0.009629 0.000000 0.033387 0.000000 -0.000001
# 5 0.000001 -0.000001 0.000000 0.000000 0.033387 -0.019257
# 6 0.000000 0.000000 0.000000 -0.000001 -0.019257 0.153196
#
#
# Mechanical properties :
#
#
# Convention : Reuss Voigt Hill
#
# Bulk Modulus (GPa) = 32.69952 52.73941 42.71947
# Shear Modulus (GPa) = 11.95628 22.89674 17.42651
#
# Velocity S-wave (km/s) = 2.51454 3.47975 3.03575
# Velocity P-wave (km/s) = 5.07181 6.63592 5.90587
#
# Compressibility (1/GPa) = 0.03058149
#
# Stress axis : x y z
#
# Youngs Moduli (GPa) = 20.05978 20.05978 104.14375
#
# Poissons Ratio (x) = 0.53654 0.65685
# Poissons Ratio (y) = 0.53654 0.65685
# Poissons Ratio (z) = 0.12652 0.12652
#
# Static dielectric constant tensor:
#      x y z
#    x 1.685320 0.000000 0.000000 
#    y 0.000000 1.685320 0.000000 
#    z 0.000000 0.000000 1.677110 
# 
# From -- ./inp_files/4901.got.cif
#   From: 2010.05.17/outbox.cif.g08.bks.cpg/sg166_3_cif.got.tgz:4901.got - 2010.05.20 11:04:41.
