data_PCOD9579885
_publ_section_title
;
Structure prediction by ZEFSAII (Michael W. Deem and Ramdas Pophale) SiO2 
 PCOD9579885
Probable space group: P 61
;
_chemical_formula_sum "Si O2"
_cell_formula_units_Z 48
_cell_length_a 18.120279
_cell_length_b 18.120279
_cell_length_c 8.850224
_cell_angle_alpha 90.000000
_cell_angle_beta 90.000000
_cell_angle_gamma 120.000000
_cell_volume 2516.602682
_symmetry_space_group_name_H-M "P 61"
_symmetry_group_IT_number 169
_symmetry_cell_setting 'hexagonal'
loop_
_space_group_symop_operation_xyz
x,y,z
x-y,x,1/6+z
-y,x-y,1/3+z
-x,-y,1/2+z
-x+y,-x,2/3+z
y,-x+y,5/6+z
loop_
_atom_site_type_symbol
_atom_site_label
_atom_site_fract_x
_atom_site_fract_y
_atom_site_fract_z
Si Si1 0.629124 0.043962 0.285890
Si Si2 0.442871 0.625850 0.268117
Si Si3 0.609615 0.925946 0.047425
Si Si4 0.195474 0.335631 0.437248
Si Si5 0.555121 0.229044 0.589980
Si Si6 0.529722 0.569573 0.009120
Si Si7 0.263114 0.737581 0.085013
Si Si8 0.299829 0.968864 0.109753
O O1 0.654556 0.138246 0.227964
O O2 0.659989 0.031174 0.447450
O O3 0.524943 0.993838 0.278254
O O4 0.662783 0.002688 0.160962
O O5 0.424561 0.699029 0.211787
O O6 0.352620 0.558345 0.336482
O O7 0.476398 0.594422 0.125045
O O8 0.656399 0.891869 0.938224
O O9 0.563148 0.961001 0.937229
O O10 0.533386 0.850698 0.139324
O O11 0.211038 0.427262 0.383067
O O12 0.253283 0.313530 0.330410
O O13 0.093826 0.291103 0.445934
O O14 0.534285 0.255030 0.430201
O O15 0.636273 0.218384 0.558322
O O16 0.588444 0.645617 0.892126
#
# Coordination Sequence:
#
# PCOD9579885 Si02
#       8
#     6   6   6   6   6   6   6   6
#     4  11  22  34  60  84 118 153 209 260 306 377
#     4  11  23  37  51  79 109 160 211 258 315 363
#     4   9  21  37  52  82 113 159 206 245 312 373
#     4  10  23  41  62  84 120 155 202 250 327 383
#     4  11  22  35  51  75 115 159 205 267 298 352
#     4  10  20  37  58  79 116 160 205 257 313 367
#     4  11  22  36  52  80 115 162 219 259 302 358
#     4  11  23  41  64  93 118 162 205 268 321 393
#
# _framework density 19.073333000000002
#
# number of rings (size 3 to 8) (size 9 to 14) (size 15 to 20)
#    0.000    1.500    1.250    6.000    7.000    1.000 
#    0.000    0.000    0.000    0.000    0.000    1.750 
#    0.000    0.000    0.000    0.000    0.000    0.000 
#
# Total GULP energy -267757.937914 kJ/mol
# GULP energy per Si atom -5578.290373 kJ/mol
# Density = 1.902992 g / cm^3
# Si number density = 19.073333 Si / 1000 Ang^3
#
#
#
# Elastic Constant Matrix: (Units=GPa)
#
#
# Indices 1 2 3 4 5 6 
#
# 1 55.8251 16.3264 12.3657 0.0000 0.0000 0.0000
# 2 16.3264 55.8251 12.3657 0.0000 0.0000 0.0000
# 3 12.3657 12.3657 66.4715 0.0000 0.0000 0.0000
# 4 0.0000 0.0000 0.0000 20.3206 0.0000 0.0000
# 5 0.0000 0.0000 0.0000 0.0000 20.3206 0.0000
# 6 0.0000 0.0000 0.0000 0.0000 0.0000 19.7494
#
#
#
# Elastic Compliance Matrix: (Units=1/GPa)
#
#
# Indices 1 2 3 4 5 6 
#
# 1 0.020060 -0.005257 -0.002754 0.000000 0.000000 0.000000
# 2 -0.005257 0.020060 -0.002754 0.000000 0.000000 0.000000
# 3 -0.002754 -0.002754 0.016069 0.000000 0.000000 0.000000
# 4 0.000000 0.000000 0.000000 0.049211 0.000000 0.000000
# 5 0.000000 0.000000 0.000000 0.000000 0.049211 0.000000
# 6 0.000000 0.000000 0.000000 0.000000 0.000000 0.050635
#
#
# Mechanical properties :
#
#
# Convention : Reuss Voigt Hill
#
# Bulk Modulus (GPa) = 28.85144 28.91526 28.88335
# Shear Modulus (GPa) = 20.97939 21.21571 21.09755
#
# Velocity S-wave (km/s) = 3.32012 3.33877 3.32946
# Velocity P-wave (km/s) = 5.46416 5.48235 5.47326
#
# Compressibility (1/GPa) = 0.03466032
#
# Stress axis : x y z
#
# Youngs Moduli (GPa) = 49.84924 49.84924 62.23291
#
# Poissons Ratio (x) = 0.26205 0.17139
# Poissons Ratio (y) = 0.26205 0.17139
# Poissons Ratio (z) = 0.13728 0.13728
#
# Static dielectric constant tensor:
#      x y z
#    x 1.707950 0.000000 0.000000 
#    y 0.000000 1.707950 0.000000 
#    z 0.000000 0.000000 1.712350 
# 
# From -- ./inp_files/727.got.cif
#   From: 2010.05.17/outbox.cif.g08.bks.cpg/sg169_cif.got.tgz:727.got - 2010.05.20 11:12:54.
