data_PCOD9579256
_publ_section_title
;
Structure prediction by ZEFSAII (Michael W. Deem and Ramdas Pophale) SiO2 
 PCOD9579256
Probable space group: R -3 M
;
_chemical_formula_sum "Si O2"
_cell_formula_units_Z 162
_cell_length_a 20.032970
_cell_length_b 20.032970
_cell_length_c 22.804077
_cell_angle_alpha 90.000000
_cell_angle_beta 90.000000
_cell_angle_gamma 120.000000
_cell_volume 7925.630327
_symmetry_space_group_name_H-M "R -3 M"
_symmetry_group_IT_number 166
_symmetry_cell_setting 'hexagonal'
loop_
_space_group_symop_operation_xyz
x,y,z
-y,x-y,z
-x+y,-x,z
x-y,-y,-z
-x,-x+y,-z
y,x,-z
-x,-y,-z
y,-x+y,-z
x-y,x,-z
-x+y,y,z
x,x-y,z
-y,-x,z
2/3+x,1/3+y,1/3+z
2/3-y,1/3+x-y,1/3+z
2/3-x+y,1/3-x,1/3+z
2/3+x-y,1/3-y,1/3-z
2/3-x,1/3-x+y,1/3-z
2/3+y,1/3+x,1/3-z
2/3-x,1/3-y,1/3-z
2/3+y,1/3-x+y,1/3-z
2/3+x-y,1/3+x,1/3-z
2/3-x+y,1/3+y,1/3+z
2/3+x,1/3+x-y,1/3+z
2/3-y,1/3-x,1/3+z
1/3+x,2/3+y,2/3+z
1/3-y,2/3+x-y,2/3+z
1/3-x+y,2/3-x,2/3+z
1/3+x-y,2/3-y,2/3-z
1/3-x,2/3-x+y,2/3-z
1/3+y,2/3+x,2/3-z
1/3-x,2/3-y,2/3-z
1/3+y,2/3-x+y,2/3-z
1/3+x-y,2/3+x,2/3-z
1/3-x+y,2/3+y,2/3+z
1/3+x,2/3+x-y,2/3+z
1/3-y,2/3-x,2/3+z
loop_
_atom_site_type_symbol
_atom_site_label
_atom_site_fract_x
_atom_site_fract_y
_atom_site_fract_z
Si Si1 0.843188 0.001482 0.188024
Si Si2 0.732919 0.944044 0.599587
Si Si3 0.465316 0.083896 0.032213
Si Si4 0.158168 0.158168 0.500000
Si Si5 0.139500 0.439445 0.602091
O O1 0.919261 0.080740 0.206336
O O2 0.860612 0.930306 0.187439
O O3 0.770449 0.973388 0.232650
O O4 0.820385 0.011023 0.121858
O O5 0.725927 0.862964 0.583696
O O6 0.647757 0.930971 0.596012
O O7 0.767708 0.969405 0.663698
O O8 0.795134 0.005051 0.555369
O O9 0.554257 0.108515 0.021214
O O10 0.418155 0.000000 0.000000
O O11 0.074603 0.149205 0.503475
O O12 0.218474 0.436948 0.600297
O O13 0.135232 0.468565 0.666667
#
# Coordination Sequence:
#
# PCOD9579256 Si02
#       5
#    36  36  36  18  36
#     4  10  21  38  62  91 122 158 202 254 312 370
#     4  10  21  36  55  79 112 151 193 238 290 352
#     4  10  21  36  58  85 116 153 196 243 296 359
#     4  10  21  36  58  84 113 148 192 244 300 360
#     4  10  21  38  59  85 119 158 201 251 305 362
#
# _framework density 20.440014000000001
#
# number of rings (size 3 to 8) (size 9 to 14) (size 15 to 20)
#    0.000    2.000    0.000    3.000    3.111    0.000 
#    0.000    0.000    0.000   16.000    0.000    0.000 
#    0.000    0.000    0.000    0.000    0.000    0.000 
#
# Total GULP energy -300785.363996 kJ/mol
# GULP energy per Si atom -5570.099333 kJ/mol
# Density = 2.039349 g / cm^3
# Si number density = 20.440014 Si / 1000 Ang^3
#
#
#
# Elastic Constant Matrix: (Units=GPa)
#
#
# Indices 1 2 3 4 5 6 
#
# 1 66.4584 26.2573 33.8439 -6.9340 -0.0004 0.0000
# 2 26.2573 66.4584 33.8439 6.9340 0.0004 0.0000
# 3 33.8439 33.8439 124.5454 0.0000 0.0000 0.0000
# 4 -6.9340 6.9340 0.0000 21.3473 0.0000 0.0004
# 5 -0.0004 0.0004 0.0000 0.0000 21.3473 -6.9340
# 6 0.0000 0.0000 0.0000 0.0004 -6.9340 20.1006
#
#
#
# Elastic Compliance Matrix: (Units=1/GPa)
#
#
# Indices 1 2 3 4 5 6 
#
# 1 0.020734 -0.007280 -0.003656 0.009099 0.000001 0.000000
# 2 -0.007280 0.020734 -0.003656 -0.009099 -0.000001 0.000000
# 3 -0.003656 -0.003656 0.010016 0.000000 0.000000 0.000000
# 4 0.009099 -0.009099 0.000000 0.052756 0.000000 -0.000001
# 5 0.000001 -0.000001 0.000000 0.000000 0.052756 0.018199
# 6 0.000000 0.000000 0.000000 -0.000001 0.018199 0.056028
#
#
# Mechanical properties :
#
#
# Convention : Reuss Voigt Hill
#
# Bulk Modulus (GPa) = 44.84065 49.48360 47.16212
# Shear Modulus (GPa) = 20.02867 23.46017 21.74442
#
# Velocity S-wave (km/s) = 3.13369 3.39153 3.26516
# Velocity P-wave (km/s) = 5.92273 6.29272 6.11053
#
# Compressibility (1/GPa) = 0.02230119
#
# Stress axis : x y z
#
# Youngs Moduli (GPa) = 48.22900 48.22900 99.83743
#
# Poissons Ratio (x) = 0.35108 0.36503
# Poissons Ratio (y) = 0.35108 0.36503
# Poissons Ratio (z) = 0.17634 0.17634
#
# Static dielectric constant tensor:
#      x y z
#    x 1.743830 0.000000 0.000000 
#    y 0.000000 1.743830 0.000000 
#    z 0.000000 0.000000 1.748770 
# 
# From -- ./inp_files/6751.got.cif
#   From: 2010.05.17/outbox.cif.g08.bks.cpg/sg166_4_cif.got.tgz:6751.got - 2010.05.20 11:04:41.
