data_PCOD9579430
_publ_section_title
;
Structure prediction by ZEFSAII (Michael W. Deem and Ramdas Pophale) SiO2 
 PCOD9579430
Probable space group: R -3 C 
;
_chemical_formula_sum "Si O2"
_cell_formula_units_Z 270
_cell_length_a 26.253875
_cell_length_b 26.253875
_cell_length_c 26.896778
_cell_angle_alpha 90.000000
_cell_angle_beta 90.000000
_cell_angle_gamma 120.000000
_cell_volume 16055.273806
_symmetry_space_group_name_H-M "R -3 C "
_symmetry_group_IT_number 167
_symmetry_cell_setting 'hexagonal'
loop_
_space_group_symop_operation_xyz
x,y,z
-y,x-y,z
-x+y,-x,z
x-y,-y,1/2-z
-x,-x+y,1/2-z
y,x,1/2-z
-x,-y,-z
y,-x+y,-z
x-y,x,-z
-x+y,y,1/2+z
x,x-y,1/2+z
-y,-x,1/2+z
2/3+x,1/3+y,1/3+z
2/3-y,1/3+x-y,1/3+z
2/3-x+y,1/3-x,1/3+z
2/3+x-y,1/3-y,5/6-z
2/3-x,1/3-x+y,5/6-z
2/3+y,1/3+x,5/6-z
2/3-x,1/3-y,1/3-z
2/3+y,1/3-x+y,1/3-z
2/3+x-y,1/3+x,1/3-z
2/3-x+y,1/3+y,5/6+z
2/3+x,1/3+x-y,5/6+z
2/3-y,1/3-x,5/6+z
1/3+x,2/3+y,2/3+z
1/3-y,2/3+x-y,2/3+z
1/3-x+y,2/3-x,2/3+z
1/3+x-y,2/3-y,1/6-z
1/3-x,2/3-x+y,1/6-z
1/3+y,2/3+x,1/6-z
1/3-x,2/3-y,2/3-z
1/3+y,2/3-x+y,2/3-z
1/3+x-y,2/3+x,2/3-z
1/3-x+y,2/3+y,1/6+z
1/3+x,2/3+x-y,1/6+z
1/3-y,2/3-x,1/6+z
loop_
_atom_site_type_symbol
_atom_site_label
_atom_site_fract_x
_atom_site_fract_y
_atom_site_fract_z
Si Si1 0.030362 0.616216 0.111776
Si Si2 0.413074 0.181477 0.015502
Si Si3 0.100356 0.644343 0.361630
Si Si4 0.192565 0.925658 0.575089
Si Si5 0.460926 0.520784 0.644208
Si Si6 0.222632 0.222632 0.250000
Si Si7 0.916768 0.492684 0.963627
Si Si8 0.624423 0.878016 0.833403
O O1 0.080198 0.683737 0.107875
O O2 0.055198 0.579313 0.140122
O O3 0.021293 0.593789 0.054499
O O4 0.967598 0.598119 0.135950
O O5 0.428529 0.248694 0.016833
O O6 0.341914 0.142422 0.023299
O O7 0.444792 0.167292 0.060071
O O8 0.428955 0.164844 0.961900
O O9 0.125226 0.666667 0.416667
O O10 0.141814 0.694574 0.323136
O O11 0.206641 0.873308 0.583334
O O12 0.149794 0.905949 0.528119
O O13 0.424787 0.517222 0.595017
O O14 0.265332 0.241747 0.202303
O O15 0.910173 0.434173 0.989940
O O16 0.986350 0.537199 0.971195
#
# Coordination Sequence:
#
# PCOD9579430 Si02
#       8
#    36  36  36  36  36  18  36  36
#     4  10  19  33  51  71  98 143 172 203 251 300
#     4  10  21  33  48  72 102 133 166 212 256 295
#     4  11  20  32  51  75 104 133 169 209 253 304
#     4  10  20  34  48  68 100 137 172 208 250 300
#     4   9  20  34  48  69 102 133 170 216 250 284
#     4  12  18  30  52  72  96 126 168 212 242 296
#     4  10  19  33  49  74 100 130 167 211 250 295
#     4  10  19  31  51  72 100 128 167 211 248 291
#
# _framework density 16.816904000000001
#
# number of rings (size 3 to 8) (size 9 to 14) (size 15 to 20)
#    0.000    1.867    4.000    1.200    0.000    1.067 
#    0.000    1.333    0.000    0.000    0.000    0.000 
#   18.000    0.000    0.000    3.867    0.000    0.000 
#
# Total GULP energy -501410.820520 kJ/mol
# GULP energy per Si atom -5571.231339 kJ/mol
# Density = 1.677863 g / cm^3
# Si number density = 16.816904 Si / 1000 Ang^3
#
#
#
# Elastic Constant Matrix: (Units=GPa)
#
#
# Indices 1 2 3 4 5 6 
#
# 1 43.7762 6.7768 9.9611 5.4618 -0.0001 0.0000
# 2 6.7768 43.7762 9.9611 -5.4618 0.0001 0.0000
# 3 9.9611 9.9611 79.6198 0.0000 0.0000 0.0000
# 4 5.4618 -5.4618 0.0000 21.4488 0.0000 0.0001
# 5 -0.0001 0.0001 0.0000 0.0000 21.4488 5.4618
# 6 0.0000 0.0000 0.0000 0.0001 5.4618 18.4997
#
#
#
# Elastic Compliance Matrix: (Units=1/GPa)
#
#
# Indices 1 2 3 4 5 6 
#
# 1 0.025016 -0.004209 -0.002603 -0.007442 0.000000 0.000000
# 2 -0.004209 0.025016 -0.002603 0.007442 0.000000 0.000000
# 3 -0.002603 -0.002603 0.013211 0.000000 0.000000 0.000000
# 4 -0.007442 0.007442 0.000000 0.050413 0.000000 0.000000
# 5 0.000000 0.000000 0.000000 0.000000 0.050413 -0.014884
# 6 0.000000 0.000000 0.000000 0.000000 -0.014884 0.058449
#
#
# Mechanical properties :
#
#
# Convention : Reuss Voigt Hill
#
# Bulk Modulus (GPa) = 22.51610 24.50778 23.51194
# Shear Modulus (GPa) = 19.51969 21.64436 20.58202
#
# Velocity S-wave (km/s) = 3.41063 3.59145 3.50221
# Velocity P-wave (km/s) = 5.37846 5.63941 5.51048
#
# Compressibility (1/GPa) = 0.04441267
#
# Stress axis : x y z
#
# Youngs Moduli (GPa) = 39.97467 39.97467 75.69428
#
# Poissons Ratio (x) = 0.16824 0.19704
# Poissons Ratio (y) = 0.16824 0.19704
# Poissons Ratio (z) = 0.10406 0.10406
#
# Static dielectric constant tensor:
#      x y z
#    x 1.581560 0.000000 0.000000 
#    y 0.000000 1.581560 0.000000 
#    z 0.000000 0.000000 1.619750 
# 
# From -- ./inp_files/6500.got.cif
#   From: 2010.05.17/outbox.cif.g08.bks.cpg/sg167_4_cif.got.tgz:6500.got - 2010.05.20 11:09:15.
