data_PCOD9579982
_publ_section_title
;
Structure prediction by ZEFSAII (Michael W. Deem and Ramdas Pophale) SiO2 
 PCOD9579982
Probable space group: P 61
;
_chemical_formula_sum "Si O2"
_cell_formula_units_Z 42
_cell_length_a 14.538184
_cell_length_b 14.538184
_cell_length_c 11.380708
_cell_angle_alpha 90.000000
_cell_angle_beta 90.000000
_cell_angle_gamma 120.000000
_cell_volume 2083.148520
_symmetry_space_group_name_H-M "P 61"
_symmetry_group_IT_number 169
_symmetry_cell_setting 'hexagonal'
loop_
_space_group_symop_operation_xyz
x,y,z
x-y,x,1/6+z
-y,x-y,1/3+z
-x,-y,1/2+z
-x+y,-x,2/3+z
y,-x+y,5/6+z
loop_
_atom_site_type_symbol
_atom_site_label
_atom_site_fract_x
_atom_site_fract_y
_atom_site_fract_z
Si Si1 0.664607 0.737353 0.693680
Si Si2 0.418494 0.600472 0.351803
Si Si3 0.253622 0.878986 0.542015
Si Si4 0.122303 0.734534 0.329682
Si Si5 0.200296 0.062664 0.862281
Si Si6 0.709322 0.640353 0.892834
Si Si7 0.628677 0.189449 0.451879
O O1 0.760298 0.750877 0.614014
O O2 0.688119 0.725587 0.829386
O O3 0.651523 0.837753 0.665777
O O4 0.547791 0.640571 0.668226
O O5 0.505073 0.674691 0.256551
O O6 0.388423 0.477146 0.364518
O O7 0.458206 0.648439 0.480055
O O8 0.304041 0.589748 0.333538
O O9 0.203508 0.831773 0.412922
O O10 0.153476 0.855172 0.622742
O O11 0.330251 0.005640 0.553152
O O12 0.089336 0.742004 0.195328
O O13 0.170342 0.657042 0.314812
O O14 0.116943 0.970434 0.773942
#
# Coordination Sequence:
#
# PCOD9579982 Si02
#       7
#     6   6   6   6   6   6   6
#     4  11  21  41  67  93 131 171 223 279 331 410
#     4  10  22  39  64  99 129 177 220 276 345 416
#     4  12  24  43  68  96 140 179 229 282 349 406
#     4  11  24  43  64  97 138 176 224 284 340 407
#     4  12  25  47  67  99 131 176 233 288 339 415
#     4  10  22  40  65  94 133 172 225 274 341 408
#     4  10  22  41  65 100 136 171 228 275 345 424
#
# _framework density 20.161788000000001
#
# number of rings (size 3 to 8) (size 9 to 14) (size 15 to 20)
#    0.000    1.143    2.857    3.429    2.000    0.000 
#    5.143    0.000    0.000    0.000    0.000    0.000 
#    0.000    0.000    0.000    0.000    0.000    0.000 
#
# Total GULP energy -234150.612507 kJ/mol
# GULP energy per Si atom -5575.014584 kJ/mol
# Density = 2.011590 g / cm^3
# Si number density = 20.161788 Si / 1000 Ang^3
#
#
#
# Elastic Constant Matrix: (Units=GPa)
#
#
# Indices 1 2 3 4 5 6 
#
# 1 56.8152 14.2314 35.4377 0.0000 0.0000 0.0000
# 2 14.2314 56.8152 35.4377 0.0000 0.0000 0.0000
# 3 35.4377 35.4377 114.2061 0.0000 0.0000 0.0000
# 4 0.0000 0.0000 0.0000 37.7983 0.0000 0.0000
# 5 0.0000 0.0000 0.0000 0.0000 37.7983 0.0000
# 6 0.0000 0.0000 0.0000 0.0000 0.0000 21.2919
#
#
#
# Elastic Compliance Matrix: (Units=1/GPa)
#
#
# Indices 1 2 3 4 5 6 
#
# 1 0.021934 -0.001549 -0.006326 0.000000 0.000000 0.000000
# 2 -0.001549 0.021934 -0.006326 0.000000 0.000000 0.000000
# 3 -0.006326 -0.006326 0.012682 0.000000 0.000000 0.000000
# 4 0.000000 0.000000 0.000000 0.026456 0.000000 0.000000
# 5 0.000000 0.000000 0.000000 0.000000 0.026456 0.000000
# 6 0.000000 0.000000 0.000000 0.000000 0.000000 0.046966
#
#
# Mechanical properties :
#
#
# Convention : Reuss Voigt Hill
#
# Bulk Modulus (GPa) = 35.52321 44.22781 39.87551
# Shear Modulus (GPa) = 25.74500 28.89300 27.31900
#
# Velocity S-wave (km/s) = 3.57728 3.78968 3.68501
# Velocity P-wave (km/s) = 5.89236 6.41350 6.15844
#
# Compressibility (1/GPa) = 0.02815061
#
# Stress axis : x y z
#
# Youngs Moduli (GPa) = 45.59058 45.59058 78.85375
#
# Poissons Ratio (x) = 0.07061 0.49880
# Poissons Ratio (y) = 0.07061 0.49880
# Poissons Ratio (z) = 0.28839 0.28839
#
# Static dielectric constant tensor:
#      x y z
#    x 1.748670 0.000000 0.000000 
#    y 0.000000 1.748670 0.000000 
#    z 0.000000 0.000000 1.745210 
# 
# From -- ./inp_files/989.got.cif
#   From: 2010.05.17/outbox.cif.g08.bks.cpg/sg169_cif.got.tgz:989.got - 2010.05.20 11:12:54.
