data_PCOD9579613
_publ_section_title
;
Structure prediction by ZEFSAII (Michael W. Deem and Ramdas Pophale) SiO2 
 PCOD9579613
Probable space group: R -3 C 
;
_chemical_formula_sum "Si O2"
_cell_formula_units_Z 126
_cell_length_a 22.763552
_cell_length_b 22.763552
_cell_length_c 12.975756
_cell_angle_alpha 90.000000
_cell_angle_beta 90.000000
_cell_angle_gamma 120.000000
_cell_volume 5822.954033
_symmetry_space_group_name_H-M "R -3 C "
_symmetry_group_IT_number 167
_symmetry_cell_setting 'hexagonal'
loop_
_space_group_symop_operation_xyz
x,y,z
-y,x-y,z
-x+y,-x,z
x-y,-y,1/2-z
-x,-x+y,1/2-z
y,x,1/2-z
-x,-y,-z
y,-x+y,-z
x-y,x,-z
-x+y,y,1/2+z
x,x-y,1/2+z
-y,-x,1/2+z
2/3+x,1/3+y,1/3+z
2/3-y,1/3+x-y,1/3+z
2/3-x+y,1/3-x,1/3+z
2/3+x-y,1/3-y,5/6-z
2/3-x,1/3-x+y,5/6-z
2/3+y,1/3+x,5/6-z
2/3-x,1/3-y,1/3-z
2/3+y,1/3-x+y,1/3-z
2/3+x-y,1/3+x,1/3-z
2/3-x+y,1/3+y,5/6+z
2/3+x,1/3+x-y,5/6+z
2/3-y,1/3-x,5/6+z
1/3+x,2/3+y,2/3+z
1/3-y,2/3+x-y,2/3+z
1/3-x+y,2/3-x,2/3+z
1/3+x-y,2/3-y,1/6-z
1/3-x,2/3-x+y,1/6-z
1/3+y,2/3+x,1/6-z
1/3-x,2/3-y,2/3-z
1/3+y,2/3-x+y,2/3-z
1/3+x-y,2/3+x,2/3-z
1/3-x+y,2/3+y,1/6+z
1/3+x,2/3+x-y,1/6+z
1/3-y,2/3-x,1/6+z
loop_
_atom_site_type_symbol
_atom_site_label
_atom_site_fract_x
_atom_site_fract_y
_atom_site_fract_z
Si Si1 0.828853 0.333334 0.583334
Si Si2 0.297911 0.777406 0.127182
Si Si3 0.026101 0.447709 0.019249
Si Si4 0.414326 0.057050 0.837574
O O1 0.773460 0.294474 0.496699
O O2 0.898033 0.383722 0.525455
O O3 0.373461 0.796430 0.158327
O O4 0.288481 0.840150 0.162091
O O5 0.036741 0.424475 0.132247
O O6 0.978485 0.382398 0.948149
O O7 0.000000 0.500000 0.000000
O O8 0.398149 0.000000 0.750000
#
# Coordination Sequence:
#
# PCOD9579613 Si02
#       4
#    18  36  36  36
#     4  10  22  46  62  98 144 162 232 302 324 410
#     4  11  24  44  69  97 134 184 233 286 350 407
#     4  11  22  42  67  99 142 185 225 285 351 410
#     4  11  20  43  68  97 141 179 220 288 350 406
#
# _framework density 21.638501000000002
#
# number of rings (size 3 to 8) (size 9 to 14) (size 15 to 20)
#    0.000    1.143    5.714    3.714    0.000    1.143 
#   10.286    0.000    0.000    0.000    0.000    0.000 
#    0.000    0.000    0.000    0.000    0.000    0.000 
#
# Total GULP energy -234649.207609 kJ/mol
# GULP energy per Si atom -5586.885895 kJ/mol
# Density = 2.158925 g / cm^3
# Si number density = 21.638501 Si / 1000 Ang^3
#
#
#
# Elastic Constant Matrix: (Units=GPa)
#
#
# Indices 1 2 3 4 5 6 
#
# 1 102.0095 42.2655 11.8311 -3.1143 -0.0005 0.0000
# 2 42.2655 102.0095 11.8312 3.1143 0.0005 0.0000
# 3 11.8311 11.8312 91.2018 0.0000 0.0000 0.0000
# 4 -3.1143 3.1143 0.0000 21.2298 0.0000 0.0005
# 5 -0.0005 0.0005 0.0000 0.0000 21.2298 -3.1143
# 6 0.0000 0.0000 0.0000 0.0005 -3.1143 29.8720
#
#
#
# Elastic Compliance Matrix: (Units=1/GPa)
#
#
# Indices 1 2 3 4 5 6 
#
# 1 0.012040 -0.004958 -0.000919 0.002493 0.000000 0.000000
# 2 -0.004958 0.012040 -0.000919 -0.002493 0.000000 0.000000
# 3 -0.000919 -0.000919 0.011203 0.000000 0.000000 0.000000
# 4 0.002493 -0.002493 0.000000 0.047835 0.000000 -0.000001
# 5 0.000000 0.000000 0.000000 0.000000 0.047835 0.004987
# 6 0.000000 0.000000 0.000000 -0.000001 0.004987 0.033996
#
#
# Mechanical properties :
#
#
# Convention : Reuss Voigt Hill
#
# Bulk Modulus (GPa) = 46.09988 47.45292 46.77640
# Shear Modulus (GPa) = 26.91486 29.75252 28.33369
#
# Velocity S-wave (km/s) = 3.53064 3.71210 3.62250
# Velocity P-wave (km/s) = 6.16209 6.35219 6.25786
#
# Compressibility (1/GPa) = 0.02169203
#
# Stress axis : x y z
#
# Youngs Moduli (GPa) = 83.05677 83.05677 89.26144
#
# Poissons Ratio (x) = 0.41180 0.08200
# Poissons Ratio (y) = 0.41180 0.08200
# Poissons Ratio (z) = 0.07630 0.07630
#
# Static dielectric constant tensor:
#      x y z
#    x 1.773290 0.000000 0.000000 
#    y 0.000000 1.773290 0.000000 
#    z 0.000000 0.000000 1.909950 
# 
# From -- ./inp_files/3073.got.cif
#   From: 2010.05.17/outbox.cif.g08.bks.cpg/sg167_2_cif.got.tgz:3073.got - 2010.05.20 11:09:15.
