data_PCOD9579809
_publ_section_title
;
Structure prediction by ZEFSAII (Michael W. Deem and Ramdas Pophale) SiO2 
 PCOD9579809
Probable space group: P 61
;
_chemical_formula_sum "Si O2"
_cell_formula_units_Z 36
_cell_length_a 15.571685
_cell_length_b 15.571685
_cell_length_c 6.802594
_cell_angle_alpha 90.000000
_cell_angle_beta 90.000000
_cell_angle_gamma 120.000000
_cell_volume 1428.487364
_symmetry_space_group_name_H-M "P 61"
_symmetry_group_IT_number 169
_symmetry_cell_setting 'hexagonal'
loop_
_space_group_symop_operation_xyz
x,y,z
x-y,x,1/6+z
-y,x-y,1/3+z
-x,-y,1/2+z
-x+y,-x,2/3+z
y,-x+y,5/6+z
loop_
_atom_site_type_symbol
_atom_site_label
_atom_site_fract_x
_atom_site_fract_y
_atom_site_fract_z
Si Si1 0.885083 0.445170 0.221570
Si Si2 0.589469 0.760548 0.949089
Si Si3 0.017357 0.198057 0.579239
Si Si4 0.638903 0.915189 0.439172
Si Si5 0.700178 0.122655 0.323400
Si Si6 0.888937 0.396943 0.769843
O O1 0.818519 0.496293 0.238553
O O2 0.889836 0.360520 0.348519
O O3 0.994185 0.539285 0.237706
O O4 0.865917 0.405613 0.998492
O O5 0.697025 0.783402 0.021642
O O6 0.586484 0.722152 0.725527
O O7 0.568397 0.849641 0.913952
O O8 0.101705 0.173099 0.512218
O O9 0.959999 0.224773 0.411354
O O10 0.613667 0.804766 0.385640
O O11 0.662910 0.006126 0.291096
O O12 0.611031 0.147930 0.312420
#
# Coordination Sequence:
#
# PCOD9579809 Si02
#       6
#     6   6   6   6   6   6
#     4  10  23  38  59  91 126 158 219 262 324 401
#     4  10  20  37  62  88 126 167 214 268 332 397
#     4  11  21  39  69  94 126 180 235 277 335 409
#     4  10  18  36  59  91 115 160 216 264 317 393
#     4   9  20  34  62  86 117 163 213 257 320 395
#     4  10  22  40  59  90 124 170 207 262 334 389
#
# _framework density 25.201483
#
# number of rings (size 3 to 8) (size 9 to 14) (size 15 to 20)
#    0.000    2.000    3.333    2.000    7.000    2.667 
#    6.000    1.667    0.000    0.000    0.000    0.000 
#    0.000    0.000    0.000    0.000    0.000    0.000 
#
# Total GULP energy -200871.281738 kJ/mol
# GULP energy per Si atom -5579.757826 kJ/mol
# Density = 2.514412 g / cm^3
# Si number density = 25.201483 Si / 1000 Ang^3
#
#
#
# Elastic Constant Matrix: (Units=GPa)
#
#
# Indices 1 2 3 4 5 6 
#
# 1 166.3917 66.2954 28.4865 0.0000 0.0000 0.0000
# 2 66.2954 166.3917 28.4865 0.0000 0.0000 0.0000
# 3 28.4865 28.4865 62.9342 0.0000 0.0000 0.0000
# 4 0.0000 0.0000 0.0000 29.1998 0.0000 0.0000
# 5 0.0000 0.0000 0.0000 0.0000 29.1998 0.0000
# 6 0.0000 0.0000 0.0000 0.0000 0.0000 50.0482
#
#
#
# Elastic Compliance Matrix: (Units=1/GPa)
#
#
# Indices 1 2 3 4 5 6 
#
# 1 0.007412 -0.002579 -0.002188 0.000000 0.000000 0.000000
# 2 -0.002579 0.007412 -0.002188 0.000000 0.000000 0.000000
# 3 -0.002188 -0.002188 0.017870 0.000000 0.000000 0.000000
# 4 0.000000 0.000000 0.000000 0.034247 0.000000 0.000000
# 5 0.000000 0.000000 0.000000 0.000000 0.034247 0.000000
# 6 0.000000 0.000000 0.000000 0.000000 0.000000 0.019981
#
#
# Mechanical properties :
#
#
# Convention : Reuss Voigt Hill
#
# Bulk Modulus (GPa) = 53.23183 71.36161 62.29672
# Shear Modulus (GPa) = 35.37618 39.85285 37.61452
#
# Velocity S-wave (km/s) = 3.75071 3.98096 3.86755
# Velocity P-wave (km/s) = 6.31866 7.03623 6.68708
#
# Compressibility (1/GPa) = 0.01878575
#
# Stress axis : x y z
#
# Youngs Moduli (GPa) = 134.91948 134.91948 55.95931
#
# Poissons Ratio (x) = 0.34790 0.12242
# Poissons Ratio (y) = 0.34790 0.12242
# Poissons Ratio (z) = 0.29517 0.29517
#
# Static dielectric constant tensor:
#      x y z
#    x 1.963630 0.000000 0.000000 
#    y 0.000000 1.963630 0.000000 
#    z 0.000000 0.000000 2.217900 
# 
# From -- ./inp_files/631.got.cif
#   From: 2010.05.17/outbox.cif.g08.bks.cpg/sg169_cif.got.tgz:631.got - 2010.05.20 11:12:54.
