data_PCOD9579525
_publ_section_title
;
Structure prediction by ZEFSAII (Michael W. Deem and Ramdas Pophale) SiO2 
 PCOD9579525
Probable space group: R -3 C 
;
_chemical_formula_sum "Si O2"
_cell_formula_units_Z 126
_cell_length_a 20.943374
_cell_length_b 20.943374
_cell_length_c 16.421547
_cell_angle_alpha 90.000000
_cell_angle_beta 90.000000
_cell_angle_gamma 120.000000
_cell_volume 6237.894077
_symmetry_space_group_name_H-M "R -3 C "
_symmetry_group_IT_number 167
_symmetry_cell_setting 'hexagonal'
loop_
_space_group_symop_operation_xyz
x,y,z
-y,x-y,z
-x+y,-x,z
x-y,-y,1/2-z
-x,-x+y,1/2-z
y,x,1/2-z
-x,-y,-z
y,-x+y,-z
x-y,x,-z
-x+y,y,1/2+z
x,x-y,1/2+z
-y,-x,1/2+z
2/3+x,1/3+y,1/3+z
2/3-y,1/3+x-y,1/3+z
2/3-x+y,1/3-x,1/3+z
2/3+x-y,1/3-y,5/6-z
2/3-x,1/3-x+y,5/6-z
2/3+y,1/3+x,5/6-z
2/3-x,1/3-y,1/3-z
2/3+y,1/3-x+y,1/3-z
2/3+x-y,1/3+x,1/3-z
2/3-x+y,1/3+y,5/6+z
2/3+x,1/3+x-y,5/6+z
2/3-y,1/3-x,5/6+z
1/3+x,2/3+y,2/3+z
1/3-y,2/3+x-y,2/3+z
1/3-x+y,2/3-x,2/3+z
1/3+x-y,2/3-y,1/6-z
1/3-x,2/3-x+y,1/6-z
1/3+y,2/3+x,1/6-z
1/3-x,2/3-y,2/3-z
1/3+y,2/3-x+y,2/3-z
1/3+x-y,2/3+x,2/3-z
1/3-x+y,2/3+y,1/6+z
1/3+x,2/3+x-y,1/6+z
1/3-y,2/3-x,1/6+z
loop_
_atom_site_type_symbol
_atom_site_label
_atom_site_fract_x
_atom_site_fract_y
_atom_site_fract_z
Si Si1 0.000000 0.221644 0.250000
Si Si2 0.946095 0.116180 0.989126
Si Si3 0.143977 0.213004 0.196998
Si Si4 0.571758 0.543172 0.442841
O O1 0.068835 0.212042 0.222403
O O2 0.027331 0.276425 0.327296
O O3 0.944464 0.143000 0.898189
O O4 0.919473 0.154958 0.054699
O O5 0.028971 0.137046 0.008651
O O6 0.153986 0.153986 0.250000
O O7 0.214079 0.292302 0.218459
O O8 0.500000 0.500000 0.500000
#
# Coordination Sequence:
#
# PCOD9579525 Si02
#       4
#    18  36  36  36
#     4  10  20  46  68  98 144 184 230 298 348 430
#     4  12  24  44  71 105 148 189 241 298 361 433
#     4  11  24  44  70 105 141 184 239 295 359 430
#     4  10  22  44  69  98 140 187 237 290 354 424
#
# _framework density 20.199124000000001
#
# number of rings (size 3 to 8) (size 9 to 14) (size 15 to 20)
#    0.000    1.143    2.857    4.571    0.000    0.000 
#   16.286    0.000    0.000    0.000    0.000    0.000 
#    0.000    0.000    0.000    0.000    0.000    0.000 
#
# Total GULP energy -234691.648423 kJ/mol
# GULP energy per Si atom -5587.896391 kJ/mol
# Density = 2.015315 g / cm^3
# Si number density = 20.199124 Si / 1000 Ang^3
#
#
#
# Elastic Constant Matrix: (Units=GPa)
#
#
# Indices 1 2 3 4 5 6 
#
# 1 91.0735 91.2841 71.4707 -24.3611 0.0000 0.0000
# 2 91.2841 91.0735 71.4707 24.3611 0.0000 0.0000
# 3 71.4707 71.4707 181.5978 0.0000 0.0000 0.0000
# 4 -24.3611 24.3611 0.0000 17.6900 0.0000 0.0000
# 5 0.0000 0.0000 0.0000 0.0000 17.6900 -24.3611
# 6 0.0000 0.0000 0.0000 0.0000 -24.3611 -0.1053
#
#
#
# Elastic Compliance Matrix: (Units=1/GPa)
#
#
# Indices 1 2 3 4 5 6 
#
# 1 -0.003464 0.011394 -0.003121 -0.020460 0.000000 0.000000
# 2 0.011394 -0.003464 -0.003121 0.020460 0.000000 0.000000
# 3 -0.003121 -0.003121 0.007963 0.000000 0.000000 0.000000
# 4 -0.020460 0.020460 0.000000 0.000177 0.000000 0.000000
# 5 0.000000 0.000000 0.000000 0.000000 0.000177 -0.040921
# 6 0.000000 0.000000 0.000000 0.000000 -0.040921 -0.029715
#
#
# Mechanical properties :
#
#
# Convention : Reuss Voigt Hill
#
# Bulk Modulus (GPa) = 88.18725 92.46620 90.32672
# Shear Modulus (GPa) = -143.47673 15.68958 -63.89358
#
# Velocity S-wave (km/s) = -8.43714 2.79004 -5.63032
# Velocity P-wave (km/s) = 7.15263 7.50039 1.59620
#
# Compressibility (1/GPa) = 0.01133951
#
# Stress axis : x y z
#
# Youngs Moduli (GPa) = -288.71287 -288.71287 125.57532
#
# Poissons Ratio (x) = 3.28954 0.39193
# Poissons Ratio (y) = 3.28954 0.39193
# Poissons Ratio (z) = -0.90109 -0.90109
#
# Static dielectric constant tensor:
#      x y z
#    x 1.708170 0.000000 0.000000 
#    y 0.000000 1.708170 0.000000 
#    z 0.000000 0.000000 1.804370 
# 
# From -- ./inp_files/3044.got.cif
#   From: 2010.05.17/outbox.cif.g08.bks.cpg/sg167_2_cif.got.tgz:3044.got - 2010.05.20 11:09:15.
