data_PCOD9579366
_publ_section_title
;
Structure prediction by ZEFSAII (Michael W. Deem and Ramdas Pophale) SiO2 
 PCOD9579366
Probable space group: R -3 M
;
_chemical_formula_sum "Si O2"
_cell_formula_units_Z 48
_cell_length_a 21.000000
_cell_length_b 21.000000
_cell_length_c 21.000000
_cell_angle_alpha 90.000000
_cell_angle_beta 90.000000
_cell_angle_gamma 120.000000
_cell_volume 8020.261264
_symmetry_space_group_name_H-M "R -3 M"
_symmetry_group_IT_number 166
_symmetry_cell_setting 'hexagonal'
loop_
_space_group_symop_operation_xyz
x,y,z
-y,x-y,z
-x+y,-x,z
x-y,-y,-z
-x,-x+y,-z
y,x,-z
-x,-y,-z
y,-x+y,-z
x-y,x,-z
-x+y,y,z
x,x-y,z
-y,-x,z
2/3+x,1/3+y,1/3+z
2/3-y,1/3+x-y,1/3+z
2/3-x+y,1/3-x,1/3+z
2/3+x-y,1/3-y,1/3-z
2/3-x,1/3-x+y,1/3-z
2/3+y,1/3+x,1/3-z
2/3-x,1/3-y,1/3-z
2/3+y,1/3-x+y,1/3-z
2/3+x-y,1/3+x,1/3-z
2/3-x+y,1/3+y,1/3+z
2/3+x,1/3+x-y,1/3+z
2/3-y,1/3-x,1/3+z
1/3+x,2/3+y,2/3+z
1/3-y,2/3+x-y,2/3+z
1/3-x+y,2/3-x,2/3+z
1/3+x-y,2/3-y,2/3-z
1/3-x,2/3-x+y,2/3-z
1/3+y,2/3+x,2/3-z
1/3-x,2/3-y,2/3-z
1/3+y,2/3-x+y,2/3-z
1/3+x-y,2/3+x,2/3-z
1/3-x+y,2/3+y,2/3+z
1/3+x,2/3+x-y,2/3+z
1/3-y,2/3-x,2/3+z
loop_
_atom_site_type_symbol
_atom_site_label
_atom_site_fract_x
_atom_site_fract_y
_atom_site_fract_z
Si Si1 0.726632 0.936872 0.549520
Si Si2 0.152204 0.001298 0.205522
Si Si3 0.064754 0.415354 0.353698
Si Si4 0.908612 0.607584 0.219363
O O1 0.719310 0.859655 0.532477
O O2 0.752643 0.957729 0.622395
O O3 0.647868 0.933069 0.548185
O O4 0.777539 0.000000 0.500000
O O5 0.075294 0.924707 0.203431
O O6 0.141578 0.070789 0.220917
O O7 0.207188 0.996980 0.258461
O O8 0.196558 0.019891 0.138020
O O9 0.047724 0.333334 0.333334
O O10 0.985944 0.400861 0.382179
O O11 0.916338 0.666667 0.166667
#
# Coordination Sequence:
#
# PCOD9579366 Si02
#       4
#    36  36  36  36
#     4  10  19  32  51  76 106 138 176 222 271 320
#     4  11  22  35  53  79 114 152 183 214 260 327
#     4   9  19  35  55  81 106 135 180 232 282 320
#     4   8  17  33  53  76  99 127 169 222 275 316
#
# _framework density 5.9848420000000004
#
# number of rings (size 3 to 8) (size 9 to 14) (size 15 to 20)
#    0.000    2.500    0.000    3.250    0.000    7.000 
#    0.000    0.000    0.000    0.250    0.000    0.000 
#    0.000   20.000    0.000    0.000    0.000    0.000 
#
# Total GULP energy -267382.295966 kJ/mol
# GULP energy per Si atom -5570.464499 kJ/mol
# Density = 0.597122 g / cm^3
# Si number density = 5.984842 Si / 1000 Ang^3
#
#
#
# Elastic Constant Matrix: (Units=GPa)
#
#
# Indices 1 2 3 4 5 6 
#
# 1 88.6474 46.3460 28.5718 0.0053 -0.0001 0.0000
# 2 46.3460 88.6474 28.5718 -0.0053 0.0001 0.0000
# 3 28.5718 28.5718 100.3183 0.0000 0.0000 0.0000
# 4 0.0053 -0.0053 0.0000 18.4708 0.0000 0.0001
# 5 -0.0001 0.0001 0.0000 0.0000 18.4708 0.0053
# 6 0.0000 0.0000 0.0000 0.0001 0.0053 21.1507
#
#
#
# Elastic Compliance Matrix: (Units=1/GPa)
#
#
# Indices 1 2 3 4 5 6 
#
# 1 0.016032 -0.007608 -0.002399 -0.000007 0.000000 0.000000
# 2 -0.007608 0.016032 -0.002399 0.000007 0.000000 0.000000
# 3 -0.002399 -0.002399 0.011335 0.000000 0.000000 0.000000
# 4 -0.000007 0.000007 0.000000 0.054139 0.000000 0.000000
# 5 0.000000 0.000000 0.000000 0.000000 0.054139 -0.000014
# 6 0.000000 0.000000 0.000000 0.000000 -0.000014 0.047280
#
#
# Mechanical properties :
#
#
# Convention : Reuss Voigt Hill
#
# Bulk Modulus (GPa) = 53.80620 53.84360 53.82490
# Shear Modulus (GPa) = 21.74248 23.22670 22.48459
#
# Velocity S-wave (km/s) = 3.48368 3.60062 3.54263
# Velocity P-wave (km/s) = 6.79812 6.88040 6.83939
#
# Compressibility (1/GPa) = 0.01858522
#
# Stress axis : x y z
#
# Youngs Moduli (GPa) = 62.37684 62.37684 88.22371
#
# Poissons Ratio (x) = 0.47458 0.21165
# Poissons Ratio (y) = 0.47458 0.21165
# Poissons Ratio (z) = 0.14965 0.14965
#
# Static dielectric constant tensor:
#      x y z
#    x 1.617740 0.000000 0.000000 
#    y 0.000000 1.617740 0.000000 
#    z 0.000000 0.000000 1.667350 
# 
# From -- ./inp_files/6579.got.cif
#   From: 2010.05.17/outbox.ucp.g08.bks.cvg/sg166_4_cif.got.tgz:6579.got - 2010.06.11 15:16:39.
