data_PCOD9579265
_publ_section_title
;
Structure prediction by ZEFSAII (Michael W. Deem and Ramdas Pophale) SiO2 
 PCOD9579265
Probable space group: R -3 M
;
_chemical_formula_sum "Si O2"
_cell_formula_units_Z 144
_cell_length_a 31.379510
_cell_length_b 31.379510
_cell_length_c 8.869063
_cell_angle_alpha 90.000000
_cell_angle_beta 90.000000
_cell_angle_gamma 120.000000
_cell_volume 7563.114701
_symmetry_space_group_name_H-M "R -3 M"
_symmetry_group_IT_number 166
_symmetry_cell_setting 'hexagonal'
loop_
_space_group_symop_operation_xyz
x,y,z
-y,x-y,z
-x+y,-x,z
x-y,-y,-z
-x,-x+y,-z
y,x,-z
-x,-y,-z
y,-x+y,-z
x-y,x,-z
-x+y,y,z
x,x-y,z
-y,-x,z
2/3+x,1/3+y,1/3+z
2/3-y,1/3+x-y,1/3+z
2/3-x+y,1/3-x,1/3+z
2/3+x-y,1/3-y,1/3-z
2/3-x,1/3-x+y,1/3-z
2/3+y,1/3+x,1/3-z
2/3-x,1/3-y,1/3-z
2/3+y,1/3-x+y,1/3-z
2/3+x-y,1/3+x,1/3-z
2/3-x+y,1/3+y,1/3+z
2/3+x,1/3+x-y,1/3+z
2/3-y,1/3-x,1/3+z
1/3+x,2/3+y,2/3+z
1/3-y,2/3+x-y,2/3+z
1/3-x+y,2/3-x,2/3+z
1/3+x-y,2/3-y,2/3-z
1/3-x,2/3-x+y,2/3-z
1/3+y,2/3+x,2/3-z
1/3-x,2/3-y,2/3-z
1/3+y,2/3-x+y,2/3-z
1/3+x-y,2/3+x,2/3-z
1/3-x+y,2/3+y,2/3+z
1/3+x,2/3+x-y,2/3+z
1/3-y,2/3-x,2/3+z
loop_
_atom_site_type_symbol
_atom_site_label
_atom_site_fract_x
_atom_site_fract_y
_atom_site_fract_z
Si Si1 0.088607 0.812032 0.879409
Si Si2 0.569575 0.236244 0.649523
Si Si3 0.333719 0.472031 0.347443
Si Si4 0.427160 0.470957 0.887537
O O1 0.129129 0.870872 0.878605
O O2 0.118497 0.785163 0.833334
O O3 0.043162 0.800604 0.768758
O O4 0.074408 0.791700 0.049618
O O5 0.621047 0.242094 0.599057
O O6 0.563479 0.281740 0.599040
O O7 0.524070 0.184220 0.603937
O O8 0.570142 0.236809 0.833334
O O9 0.278927 0.428967 0.379905
O O10 0.333334 0.469124 0.166667
O O11 0.481371 0.518630 0.876171
O O12 0.433589 0.433589 0.000000
#
# Coordination Sequence:
#
# PCOD9579265 Si02
#       4
#    36  36  36  36
#     4  10  21  38  59  82 110 145 186 234 288 347
#     4   9  17  29  48  77 114 154 194 236 280 327
#     4  11  21  34  55  84 116 150 190 236 285 346
#     4  10  21  38  59  82 110 145 186 234 290 350
#
# _framework density 19.039774999999999
#
# number of rings (size 3 to 8) (size 9 to 14) (size 15 to 20)
#    0.000    2.000    0.000    4.000    0.000    6.000 
#    0.000    3.750    0.000    0.000    0.000    0.000 
#    0.000   12.000    0.000    0.000    0.000    0.000 
#
# Total GULP energy -267232.646262 kJ/mol
# GULP energy per Si atom -5567.346797 kJ/mol
# Density = 1.899644 g / cm^3
# Si number density = 19.039775 Si / 1000 Ang^3
#
#
#
# Elastic Constant Matrix: (Units=GPa)
#
#
# Indices 1 2 3 4 5 6 
#
# 1 53.1809 30.0652 24.5529 -12.2217 -0.0112 0.0440
# 2 30.0652 53.2294 24.7388 12.1978 0.0186 -0.0009
# 3 24.5529 24.7388 88.9373 -0.0545 0.1133 0.0896
# 4 -12.2217 12.1978 -0.0545 11.8551 -0.0056 0.0084
# 5 -0.0112 0.0186 0.1133 -0.0056 11.9289 -12.1348
# 6 0.0440 -0.0009 0.0896 0.0084 -12.1348 11.5824
#
#
#
# Elastic Compliance Matrix: (Units=1/GPa)
#
#
# Indices 1 2 3 4 5 6 
#
# 1 -0.241301 0.255900 -0.004861 -0.512082 -0.008377 -0.007431
# 2 0.255900 -0.241769 -0.003097 0.512556 0.007244 0.006250
# 3 -0.004861 -0.003097 0.013439 -0.001763 0.003257 0.003328
# 4 -0.512082 0.512556 -0.001763 -0.970944 -0.015727 -0.013772
# 5 -0.008377 0.007244 0.003257 -0.015727 -1.273813 -1.334549
# 6 -0.007431 0.006250 0.003328 -0.013772 -1.334549 -1.311849
#
#
# Mechanical properties :
#
#
# Convention : Reuss Voigt Hill
#
# Bulk Modulus (GPa) = 38.09159 39.34015 38.71587
# Shear Modulus (GPa) = -1.10782 14.80597 6.84907
#
# Velocity S-wave (km/s) = -0.76362 2.79163 1.89870
# Velocity P-wave (km/s) = 4.39002 5.57655 5.01847
#
# Compressibility (1/GPa) = 0.02625252
#
# Stress axis : x y z
#
# Youngs Moduli (GPa) = -4.14420 -4.13618 74.41166
#
# Poissons Ratio (x) = 1.05845 0.36170
# Poissons Ratio (y) = 1.06050 0.23048
# Poissons Ratio (z) = -0.02014 -0.01281
#
# Static dielectric constant tensor:
#      x y z
#    x 1.755560 0.000970 -0.004520 
#    y 0.000970 1.753370 -0.002300 
#    z -0.004520 -0.002300 2.320900 
# 
# From -- ./inp_files/1766.got.cif
#   From: 2010.05.17/outbox.cif.g08.bks.cpg/sg166_1_cif.got.tgz:1766.got - 2010.05.20 11:04:41.
