data_PCOD9579768
_publ_section_title
;
Structure prediction by ZEFSAII (Michael W. Deem and Ramdas Pophale) SiO2 
 PCOD9579768
Probable space group: P 6
;
_chemical_formula_sum "Si O2"
_cell_formula_units_Z 24
_cell_length_a 11.352831
_cell_length_b 11.352831
_cell_length_c 10.581856
_cell_angle_alpha 90.000000
_cell_angle_beta 90.000000
_cell_angle_gamma 120.000000
_cell_volume 1181.138497
_symmetry_space_group_name_H-M "P 6"
_symmetry_group_IT_number 168
_symmetry_cell_setting 'hexagonal'
loop_
_space_group_symop_operation_xyz
x,y,z
x-y,x,z
-y,x-y,z
-x,-y,z
-x+y,-x,z
y,-x+y,z
loop_
_atom_site_type_symbol
_atom_site_label
_atom_site_fract_x
_atom_site_fract_y
_atom_site_fract_z
Si Si1 0.824852 0.484949 0.537240
Si Si2 0.945740 0.695748 0.035558
Si Si3 0.660098 0.175149 0.821127
Si Si4 0.750008 0.054260 0.322809
O O1 0.671226 0.461502 0.527064
O O2 0.875659 0.534482 0.679184
O O3 0.914369 0.582184 0.427049
O O4 0.828718 0.736031 0.021368
O O5 0.936461 0.643710 0.179184
O O6 0.914368 0.582184 0.931319
O O7 0.790276 0.328774 0.831303
O O8 0.907313 0.171281 0.336999
#
# Coordination Sequence:
#
# PCOD9579768 Si02
#       4
#     6   6   6   6
#     4   8  18  37  56  78 106 137 171 214 267 314
#     4  10  21  36  54  77 107 142 177 215 259 308
#     4   8  18  37  56  78 106 137 171 214 267 314
#     4  10  21  36  54  77 107 142 177 215 259 308
#
# _framework density 20.319376999999999
#
# number of rings (size 3 to 8) (size 9 to 14) (size 15 to 20)
#    1.000    2.000    0.000    0.500    0.000    8.000 
#    0.000   10.000    0.000    3.000    0.000    0.000 
#    0.000    0.000    0.000    0.000    0.000    0.000 
#
# Total GULP energy -133864.007372 kJ/mol
# GULP energy per Si atom -5577.666974 kJ/mol
# Density = 2.027313 g / cm^3
# Si number density = 20.319377 Si / 1000 Ang^3
#
#
#
# Elastic Constant Matrix: (Units=GPa)
#
#
# Indices 1 2 3 4 5 6 
#
# 1 69.2980 14.7688 56.3077 0.0000 0.0000 0.0000
# 2 14.7688 69.2980 56.3077 0.0000 0.0000 0.0000
# 3 56.3077 56.3077 128.2924 0.0000 0.0000 0.0000
# 4 0.0000 0.0000 0.0000 -30.6527 0.0000 0.0000
# 5 0.0000 0.0000 0.0000 0.0000 -30.6527 0.0000
# 6 0.0000 0.0000 0.0000 0.0000 0.0000 27.2646
#
#
#
# Elastic Compliance Matrix: (Units=1/GPa)
#
#
# Indices 1 2 3 4 5 6 
#
# 1 0.023604 0.005265 -0.012670 0.000000 0.000000 0.000000
# 2 0.005265 0.023604 -0.012670 0.000000 0.000000 0.000000
# 3 -0.012670 -0.012670 0.018917 0.000000 0.000000 0.000000
# 4 0.000000 0.000000 0.000000 -0.032624 0.000000 0.000000
# 5 0.000000 0.000000 0.000000 0.000000 -0.032624 0.000000
# 6 0.000000 0.000000 0.000000 0.000000 0.000000 0.036678
#
#
# Mechanical properties :
#
#
# Convention : Reuss Voigt Hill
#
# Bulk Modulus (GPa) = 38.50273 57.96186 48.23230
# Shear Modulus (GPa) = 57.89445 2.49213 30.19329
#
# Velocity S-wave (km/s) = 5.34360 1.10867 3.85897
# Velocity P-wave (km/s) = 7.55394 5.49784 6.60637
#
# Compressibility (1/GPa) = 0.02597218
#
# Stress axis : x y z
#
# Youngs Moduli (GPa) = 42.36628 42.36628 52.86295
#
# Poissons Ratio (x) = -0.22305 0.66980
# Poissons Ratio (y) = -0.22305 0.66980
# Poissons Ratio (z) = 0.53680 0.53680
#
# Static dielectric constant tensor:
#      x y z
#    x 1.731430 0.000000 0.000000 
#    y 0.000000 1.731430 0.000000 
#    z 0.000000 0.000000 1.698490 
# 
# From -- ./inp_files/198.got.cif
#   From: 2010.05.17/outbox.cif.g08.bks.cpg/sg168_cif.got.tgz:198.got - 2010.05.20 11:12:33.
