data_PCOD9579072
_publ_section_title
;
Structure prediction by ZEFSAII (Michael W. Deem and Ramdas Pophale) SiO2 
 PCOD9579072
Probable space group: R -3 M
;
_chemical_formula_sum "Si O2"
_cell_formula_units_Z 144
_cell_length_a 29.072496
_cell_length_b 29.072496
_cell_length_c 10.909050
_cell_angle_alpha 90.000000
_cell_angle_beta 90.000000
_cell_angle_gamma 120.000000
_cell_volume 7985.133896
_symmetry_space_group_name_H-M "R -3 M"
_symmetry_group_IT_number 166
_symmetry_cell_setting 'hexagonal'
loop_
_space_group_symop_operation_xyz
x,y,z
-y,x-y,z
-x+y,-x,z
x-y,-y,-z
-x,-x+y,-z
y,x,-z
-x,-y,-z
y,-x+y,-z
x-y,x,-z
-x+y,y,z
x,x-y,z
-y,-x,z
2/3+x,1/3+y,1/3+z
2/3-y,1/3+x-y,1/3+z
2/3-x+y,1/3-x,1/3+z
2/3+x-y,1/3-y,1/3-z
2/3-x,1/3-x+y,1/3-z
2/3+y,1/3+x,1/3-z
2/3-x,1/3-y,1/3-z
2/3+y,1/3-x+y,1/3-z
2/3+x-y,1/3+x,1/3-z
2/3-x+y,1/3+y,1/3+z
2/3+x,1/3+x-y,1/3+z
2/3-y,1/3-x,1/3+z
1/3+x,2/3+y,2/3+z
1/3-y,2/3+x-y,2/3+z
1/3-x+y,2/3-x,2/3+z
1/3+x-y,2/3-y,2/3-z
1/3-x,2/3-x+y,2/3-z
1/3+y,2/3+x,2/3-z
1/3-x,2/3-y,2/3-z
1/3+y,2/3-x+y,2/3-z
1/3+x-y,2/3+x,2/3-z
1/3-x+y,2/3+y,2/3+z
1/3+x,2/3+x-y,2/3+z
1/3-y,2/3-x,2/3+z
loop_
_atom_site_type_symbol
_atom_site_label
_atom_site_fract_x
_atom_site_fract_y
_atom_site_fract_z
Si Si1 0.986088 0.190746 0.205887
Si Si2 0.106268 0.106551 0.643805
Si Si3 0.185340 0.920719 0.036246
Si Si4 0.274889 0.963765 0.696271
O O1 0.977489 0.228366 0.300893
O O2 0.982982 0.140636 0.272250
O O3 0.043472 0.224696 0.142240
O O4 0.945004 0.179041 0.093273
O O5 0.120057 0.120057 0.500000
O O6 0.115237 0.057619 0.675316
O O7 0.044560 0.089120 0.656262
O O8 0.140027 0.859974 0.043372
O O9 0.244672 0.929448 0.045709
O O10 0.280097 0.946764 0.833334
O O11 0.333334 0.011852 0.666667
#
# Coordination Sequence:
#
# PCOD9579072 Si02
#       4
#    36  36  36  36
#     4  10  20  34  56  82 109 141 182 227 275 329
#     4  10  21  38  58  80 108 145 187 229 275 328
#     4  10  19  33  54  82 111 141 178 228 279 324
#     4  10  18  34  53  77 105 145 185 218 269 324
#
# _framework density 18.033511000000001
#
# number of rings (size 3 to 8) (size 9 to 14) (size 15 to 20)
#    0.000    2.000    5.000    1.750    0.000    7.500 
#    0.000    0.000    0.000    1.500    0.000    8.750 
#    0.000    0.000    0.000    0.000    0.000    0.000 
#
# Total GULP energy -267606.581661 kJ/mol
# GULP energy per Si atom -5575.137118 kJ/mol
# Density = 1.799247 g / cm^3
# Si number density = 18.033511 Si / 1000 Ang^3
#
#
#
# Elastic Constant Matrix: (Units=GPa)
#
#
# Indices 1 2 3 4 5 6 
#
# 1 76.3844 31.1046 20.4927 2.3452 0.0133 -0.0038
# 2 31.1046 76.3683 20.4715 -2.3427 -0.0008 0.0011
# 3 20.4927 20.4715 29.9070 0.0027 0.0321 -0.0061
# 4 2.3452 -2.3427 0.0027 18.5365 0.0012 0.0009
# 5 0.0133 -0.0008 0.0321 0.0012 18.5534 2.3420
# 6 -0.0038 0.0011 -0.0061 0.0009 2.3420 22.6335
#
#
#
# Elastic Compliance Matrix: (Units=1/GPa)
#
#
# Indices 1 2 3 4 5 6 
#
# 1 0.017488 -0.004896 -0.008632 -0.002830 0.000002 0.000001
# 2 -0.004896 0.017484 -0.008614 0.002830 0.000020 -0.000006
# 3 -0.008632 -0.008614 0.045248 -0.000003 -0.000075 0.000019
# 4 -0.002830 0.002830 -0.000003 0.054663 -0.000001 -0.000003
# 5 0.000002 0.000020 -0.000075 -0.000001 0.054612 -0.005651
# 6 0.000001 -0.000006 0.000019 -0.000003 -0.005651 0.044767
#
#
# Mechanical properties :
#
#
# Convention : Reuss Voigt Hill
#
# Bulk Modulus (GPa) = 27.82582 36.31080 32.06831
# Shear Modulus (GPa) = 17.21031 19.31741 18.26386
#
# Velocity S-wave (km/s) = 3.09261 3.27646 3.18586
# Velocity P-wave (km/s) = 5.31186 5.87303 5.59948
#
# Compressibility (1/GPa) = 0.03593784
#
# Stress axis : x y z
#
# Youngs Moduli (GPa) = 57.18244 57.19409 22.10058
#
# Poissons Ratio (x) = 0.28001 0.19076
# Poissons Ratio (y) = 0.27995 0.19037
# Poissons Ratio (z) = 0.49357 0.49265
#
# Static dielectric constant tensor:
#      x y z
#    x 1.617240 0.000000 0.000000 
#    y 0.000000 1.617230 0.000000 
#    z 0.000000 0.000000 1.627920 
# 
# From -- ./inp_files/1753.got.cif
#   From: 2010.05.17/outbox.cif.g08.bks.cpg/sg166_1_cif.got.tgz:1753.got - 2010.05.20 11:04:41.
