data_PCOD9579653
_publ_section_title
;
Structure prediction by ZEFSAII (Michael W. Deem and Ramdas Pophale) SiO2 
 PCOD9579653
Probable space group: R -3 C 
;
_chemical_formula_sum "Si O2"
_cell_formula_units_Z 144
_cell_length_a 18.543836
_cell_length_b 18.543836
_cell_length_c 19.997253
_cell_angle_alpha 90.000000
_cell_angle_beta 90.000000
_cell_angle_gamma 120.000000
_cell_volume 5955.251792
_symmetry_space_group_name_H-M "R -3 C "
_symmetry_group_IT_number 167
_symmetry_cell_setting 'hexagonal'
loop_
_space_group_symop_operation_xyz
x,y,z
-y,x-y,z
-x+y,-x,z
x-y,-y,1/2-z
-x,-x+y,1/2-z
y,x,1/2-z
-x,-y,-z
y,-x+y,-z
x-y,x,-z
-x+y,y,1/2+z
x,x-y,1/2+z
-y,-x,1/2+z
2/3+x,1/3+y,1/3+z
2/3-y,1/3+x-y,1/3+z
2/3-x+y,1/3-x,1/3+z
2/3+x-y,1/3-y,5/6-z
2/3-x,1/3-x+y,5/6-z
2/3+y,1/3+x,5/6-z
2/3-x,1/3-y,1/3-z
2/3+y,1/3-x+y,1/3-z
2/3+x-y,1/3+x,1/3-z
2/3-x+y,1/3+y,5/6+z
2/3+x,1/3+x-y,5/6+z
2/3-y,1/3-x,5/6+z
1/3+x,2/3+y,2/3+z
1/3-y,2/3+x-y,2/3+z
1/3-x+y,2/3-x,2/3+z
1/3+x-y,2/3-y,1/6-z
1/3-x,2/3-x+y,1/6-z
1/3+y,2/3+x,1/6-z
1/3-x,2/3-y,2/3-z
1/3+y,2/3-x+y,2/3-z
1/3+x-y,2/3+x,2/3-z
1/3-x+y,2/3+y,1/6+z
1/3+x,2/3+x-y,1/6+z
1/3-y,2/3-x,1/6+z
loop_
_atom_site_type_symbol
_atom_site_label
_atom_site_fract_x
_atom_site_fract_y
_atom_site_fract_z
Si Si1 0.000000 0.576490 0.750000
Si Si2 0.574529 0.241195 0.083334
Si Si3 0.706459 0.052987 0.189578
Si Si4 0.890990 0.453801 0.490320
Si Si5 0.099595 0.193608 0.995079
O O1 0.970587 0.619645 0.694780
O O2 0.930361 0.492737 0.785793
O O3 0.666667 0.255118 0.083334
O O4 0.523839 0.210569 0.151360
O O5 0.805700 0.097152 0.204669
O O6 0.706713 0.136258 0.166369
O O7 0.647331 0.000000 0.250000
O O8 0.897585 0.467226 0.410629
O O9 0.139719 0.135177 0.981935
#
# Coordination Sequence:
#
# PCOD9579653 Si02
#       5
#    18  18  36  36  36
#     4  12  26  47  74 111 146 198 268 328 392 482
#     4  10  26  41  68 107 142 200 252 306 376 484
#     4  11  23  45  75 105 148 193 256 324 399 456
#     4  11  24  45  69 106 149 196 247 323 385 471
#     4  12  28  48  74 109 155 203 252 326 399 482
#
# _framework density 24.180337999999999
#
# number of rings (size 3 to 8) (size 9 to 14) (size 15 to 20)
#    0.250    0.500    6.250    0.250    5.250    2.000 
#    0.000    0.000    0.000    0.000    0.000    0.000 
#    0.000    0.000    0.000    0.000    0.000    0.000 
#
# Total GULP energy -267250.864603 kJ/mol
# GULP energy per Si atom -5567.726346 kJ/mol
# Density = 2.412530 g / cm^3
# Si number density = 24.180338 Si / 1000 Ang^3
#
#
#
# Elastic Constant Matrix: (Units=GPa)
#
#
# Indices 1 2 3 4 5 6 
#
# 1 108.8395 43.5695 40.8472 -1.6783 0.0001 0.0000
# 2 43.5695 108.8395 40.8472 1.6783 -0.0001 0.0000
# 3 40.8472 40.8472 107.5475 0.0000 0.0000 0.0000
# 4 -1.6783 1.6783 0.0000 32.6345 0.0000 -0.0001
# 5 0.0001 -0.0001 0.0000 0.0000 32.6345 -1.6783
# 6 0.0000 0.0000 0.0000 -0.0001 -1.6783 32.6350
#
#
#
# Elastic Compliance Matrix: (Units=1/GPa)
#
#
# Indices 1 2 3 4 5 6 
#
# 1 0.011800 -0.003562 -0.003129 0.000790 0.000000 0.000000
# 2 -0.003562 0.011800 -0.003129 -0.000790 0.000000 0.000000
# 3 -0.003129 -0.003129 0.011675 0.000000 0.000000 0.000000
# 4 0.000790 -0.000790 0.000000 0.030724 0.000000 0.000000
# 5 0.000000 0.000000 0.000000 0.000000 0.030724 0.001580
# 6 0.000000 0.000000 0.000000 0.000000 0.001580 0.030723
#
#
# Mechanical properties :
#
#
# Convention : Reuss Voigt Hill
#
# Bulk Modulus (GPa) = 63.95515 63.97270 63.96392
# Shear Modulus (GPa) = 32.83056 32.91161 32.87109
#
# Velocity S-wave (km/s) = 3.68875 3.69330 3.69102
# Velocity P-wave (km/s) = 6.68200 6.68589 6.68395
#
# Compressibility (1/GPa) = 0.01563596
#
# Stress axis : x y z
#
# Youngs Moduli (GPa) = 84.74525 84.74525 85.65253
#
# Poissons Ratio (x) = 0.30182 0.26801
# Poissons Ratio (y) = 0.30182 0.26801
# Poissons Ratio (z) = 0.26517 0.26517
#
# Static dielectric constant tensor:
#      x y z
#    x 2.150000 0.000000 0.000000 
#    y 0.000000 2.150000 0.000000 
#    z 0.000000 0.000000 1.511490 
# 
# From -- ./inp_files/4371.got.cif
#   From: 2010.05.17/outbox.cif.g08.bks.cpg/sg167_3_cif.got.tgz:4371.got - 2010.05.20 11:09:15.
