data_PCOD9579924
_publ_section_title
;
Structure prediction by ZEFSAII (Michael W. Deem and Ramdas Pophale) SiO2 
 PCOD9579924
Probable space group: P 61
;
_chemical_formula_sum "Si O2"
_cell_formula_units_Z 18
_cell_length_a 12.504300
_cell_length_b 12.504300
_cell_length_c 7.548978
_cell_angle_alpha 90.000000
_cell_angle_beta 90.000000
_cell_angle_gamma 120.000000
_cell_volume 1022.203964
_symmetry_space_group_name_H-M "P 61"
_symmetry_group_IT_number 169
_symmetry_cell_setting 'hexagonal'
loop_
_space_group_symop_operation_xyz
x,y,z
x-y,x,1/6+z
-y,x-y,1/3+z
-x,-y,1/2+z
-x+y,-x,2/3+z
y,-x+y,5/6+z
loop_
_atom_site_type_symbol
_atom_site_label
_atom_site_fract_x
_atom_site_fract_y
_atom_site_fract_z
Si Si1 0.250820 0.796373 0.272670
Si Si2 0.632557 0.576290 0.820240
Si Si3 0.110591 0.636225 0.591072
O O1 0.170171 0.743512 0.448154
O O2 0.379341 0.795949 0.290299
O O3 0.299438 0.939310 0.228929
O O4 0.173023 0.712296 0.108860
O O5 0.485375 0.477240 0.840843
O O6 0.666838 0.588202 0.614961
#
# Coordination Sequence:
#
# PCOD9579924 Si02
#       3
#     6   6   6
#     4  10  22  36  55  86 121 160 201 252 312 370
#     4  10  21  35  55  85 119 159 205 249 310 372
#     4  10  21  35  58  83 124 157 202 249 310 368
#
# _framework density 17.609010000000001
#
# number of rings (size 3 to 8) (size 9 to 14) (size 15 to 20)
#    2.000    0.000    3.333    0.000    4.667    5.333 
#    0.000    0.000    0.000    0.000    8.667    0.000 
#    0.000    0.000    0.000    0.000    0.000    0.000 
#
# Total GULP energy -100205.421270 kJ/mol
# GULP energy per Si atom -5566.967848 kJ/mol
# Density = 1.756893 g / cm^3
# Si number density = 17.609010 Si / 1000 Ang^3
#
#
#
# Elastic Constant Matrix: (Units=GPa)
#
#
# Indices 1 2 3 4 5 6 
#
# 1 34.0128 23.0309 16.0676 0.0000 0.0000 0.0000
# 2 23.0309 34.0129 16.0676 0.0000 0.0000 0.0000
# 3 16.0676 16.0676 126.1957 0.0000 0.0000 0.0000
# 4 0.0000 0.0000 0.0000 36.0750 0.0000 0.0000
# 5 0.0000 0.0000 0.0000 0.0000 36.0750 0.0000
# 6 0.0000 0.0000 0.0000 0.0000 0.0000 5.4910
#
#
#
# Elastic Compliance Matrix: (Units=1/GPa)
#
#
# Indices 1 2 3 4 5 6 
#
# 1 0.054972 -0.036087 -0.002404 0.000000 0.000000 0.000000
# 2 -0.036087 0.054972 -0.002404 0.000000 0.000000 0.000000
# 3 -0.002404 -0.002404 0.008536 0.000000 0.000000 0.000000
# 4 0.000000 0.000000 0.000000 0.027720 0.000000 0.000000
# 5 0.000000 0.000000 0.000000 0.000000 0.027720 0.000000
# 6 0.000000 0.000000 0.000000 0.000000 0.000000 0.182117
#
#
# Mechanical properties :
#
#
# Convention : Reuss Voigt Hill
#
# Bulk Modulus (GPa) = 27.25652 33.83928 30.54790
# Shear Modulus (GPa) = 11.10970 24.79855 17.95412
#
# Velocity S-wave (km/s) = 2.51452 3.75679 3.19658
# Velocity P-wave (km/s) = 4.89313 6.17063 5.56864
#
# Compressibility (1/GPa) = 0.03668847
#
# Stress axis : x y z
#
# Youngs Moduli (GPa) = 18.19120 18.19120 117.14408
#
# Poissons Ratio (x) = 0.65646 0.28167
# Poissons Ratio (y) = 0.65646 0.28167
# Poissons Ratio (z) = 0.04374 0.04374
#
# Static dielectric constant tensor:
#      x y z
#    x 1.610280 0.000000 0.000000 
#    y 0.000000 1.610280 0.000000 
#    z 0.000000 0.000000 1.596210 
# 
# From -- ./inp_files/434.got.cif
#   From: 2010.05.17/outbox.cif.g08.bks.cpg/sg169_cif.got.tgz:434.got - 2010.05.20 11:12:54.
