data_PCOD9579805
_publ_section_title
;
Structure prediction by ZEFSAII (Michael W. Deem and Ramdas Pophale) SiO2 
 PCOD9579805
Probable space group: P 61
;
_chemical_formula_sum "Si O2"
_cell_formula_units_Z 30
_cell_length_a 17.384232
_cell_length_b 17.384232
_cell_length_c 5.120188
_cell_angle_alpha 90.000000
_cell_angle_beta 90.000000
_cell_angle_gamma 120.000000
_cell_volume 1340.070224
_symmetry_space_group_name_H-M "P 61"
_symmetry_group_IT_number 169
_symmetry_cell_setting 'hexagonal'
loop_
_space_group_symop_operation_xyz
x,y,z
x-y,x,1/6+z
-y,x-y,1/3+z
-x,-y,1/2+z
-x+y,-x,2/3+z
y,-x+y,5/6+z
loop_
_atom_site_type_symbol
_atom_site_label
_atom_site_fract_x
_atom_site_fract_y
_atom_site_fract_z
Si Si1 0.641721 0.764944 0.942220
Si Si2 0.140325 0.466027 0.118892
Si Si3 0.332719 0.587470 0.905143
Si Si4 0.611047 0.557919 0.356311
Si Si5 0.656170 0.937912 0.696117
O O1 0.568607 0.693512 0.745864
O O2 0.658079 0.854586 0.813296
O O3 0.724381 0.750031 0.906496
O O4 0.605503 0.741045 0.236582
O O5 0.243504 0.541473 0.087607
O O6 0.049291 0.469740 0.061913
O O7 0.402305 0.687706 0.985106
O O8 0.383164 0.531581 0.890618
O O9 0.685851 0.621882 0.569977
O O10 0.642620 0.589315 0.062618
#
# Coordination Sequence:
#
# PCOD9579805 Si02
#       5
#     6   6   6   6   6
#     4  10  18  34  63  92 121 160 206 262 310 376
#     4  10  22  42  65  87 122 164 209 258 317 378
#     4  12  28  44  64  92 128 166 212 270 328 384
#     4  10  22  42  65  87 122 164 209 258 317 378
#     4  10  18  34  63  92 121 160 206 262 310 376
#
# _framework density 22.386887000000002
#
# number of rings (size 3 to 8) (size 9 to 14) (size 15 to 20)
#    0.000    1.600    4.000    0.000    5.600    0.000 
#    3.600    0.000    0.000    0.000    0.000    8.400 
#    0.000    0.000    0.000    0.000    0.000    0.000 
#
# Total GULP energy -167225.334007 kJ/mol
# GULP energy per Si atom -5574.177800 kJ/mol
# Density = 2.233593 g / cm^3
# Si number density = 22.386887 Si / 1000 Ang^3
#
#
#
# Elastic Constant Matrix: (Units=GPa)
#
#
# Indices 1 2 3 4 5 6 
#
# 1 103.4682 59.7021 17.2958 0.0000 0.0000 0.0000
# 2 59.7021 103.4682 17.2958 0.0000 0.0000 0.0000
# 3 17.2958 17.2958 93.1076 0.0000 0.0000 0.0000
# 4 0.0000 0.0000 0.0000 26.8778 0.0000 0.0000
# 5 0.0000 0.0000 0.0000 0.0000 26.8778 0.0000
# 6 0.0000 0.0000 0.0000 0.0000 0.0000 21.8830
#
#
#
# Elastic Compliance Matrix: (Units=1/GPa)
#
#
# Indices 1 2 3 4 5 6 
#
# 1 0.014614 -0.008234 -0.001185 0.000000 0.000000 0.000000
# 2 -0.008234 0.014614 -0.001185 0.000000 0.000000 0.000000
# 3 -0.001185 -0.001185 0.011181 0.000000 0.000000 0.000000
# 4 0.000000 0.000000 0.000000 0.037205 0.000000 0.000000
# 5 0.000000 0.000000 0.000000 0.000000 0.037205 0.000000
# 6 0.000000 0.000000 0.000000 0.000000 0.000000 0.045698
#
#
# Mechanical properties :
#
#
# Convention : Reuss Voigt Hill
#
# Bulk Modulus (GPa) = 52.08416 54.29236 53.18826
# Shear Modulus (GPa) = 26.57782 28.84442 27.71112
#
# Velocity S-wave (km/s) = 3.44932 3.59339 3.52210
# Velocity P-wave (km/s) = 6.25937 6.44369 6.35220
#
# Compressibility (1/GPa) = 0.01919970
#
# Stress axis : x y z
#
# Youngs Moduli (GPa) = 68.42622 68.42622 89.44093
#
# Poissons Ratio (x) = 0.56345 0.10600
# Poissons Ratio (y) = 0.56345 0.10600
# Poissons Ratio (z) = 0.08109 0.08109
#
# Static dielectric constant tensor:
#      x y z
#    x 1.945470 0.000000 0.000000 
#    y 0.000000 1.945470 0.000000 
#    z 0.000000 0.000000 1.869060 
# 
# From -- ./inp_files/150.got.cif
#   From: 2010.05.17/outbox.cif.g08.bks.cpg/sg169_cif.got.tgz:150.got - 2010.05.20 11:12:54.
