data_PCOD9579795
_publ_section_title
;
Structure prediction by ZEFSAII (Michael W. Deem and Ramdas Pophale) SiO2 
 PCOD9579795
Probable space group: P 61
;
_chemical_formula_sum "Si O2"
_cell_formula_units_Z 42
_cell_length_a 18.104912
_cell_length_b 18.104912
_cell_length_c 5.580492
_cell_angle_alpha 90.000000
_cell_angle_beta 90.000000
_cell_angle_gamma 120.000000
_cell_volume 1584.148747
_symmetry_space_group_name_H-M "P 61"
_symmetry_group_IT_number 169
_symmetry_cell_setting 'hexagonal'
loop_
_space_group_symop_operation_xyz
x,y,z
x-y,x,1/6+z
-y,x-y,1/3+z
-x,-y,1/2+z
-x+y,-x,2/3+z
y,-x+y,5/6+z
loop_
_atom_site_type_symbol
_atom_site_label
_atom_site_fract_x
_atom_site_fract_y
_atom_site_fract_z
Si Si1 0.518082 0.268925 0.845970
Si Si2 0.867520 0.373790 0.673677
Si Si3 0.628601 0.550812 0.505979
Si Si4 0.027590 0.285782 0.286344
Si Si5 0.819519 0.944952 0.126956
Si Si6 0.794088 0.669416 0.966199
Si Si7 0.756584 0.435781 0.022325
O O1 0.450230 0.168386 0.867365
O O2 0.508375 0.308145 0.595469
O O3 0.602651 0.260227 0.774332
O O4 0.520871 0.316524 0.095263
O O5 0.919319 0.413485 0.428815
O O6 0.859975 0.281638 0.699652
O O7 0.765429 0.335760 0.643555
O O8 0.909730 0.413932 0.930868
O O9 0.652892 0.649516 0.493280
O O10 0.970614 0.258561 0.524773
O O11 0.128434 0.326560 0.314213
O O12 0.992589 0.192236 0.173273
O O13 0.860488 0.886123 0.146245
O O14 0.726330 0.884188 0.024831
#
# Coordination Sequence:
#
# PCOD9579795 Si02
#       7
#     6   6   6   6   6   6   6
#     4  10  18  29  48  77 111 143 173 211 262 316
#     4   9  19  33  50  75 105 136 176 219 255 304
#     4   9  19  33  50  75 105 136 176 219 255 304
#     4  11  21  35  54  74  98 135 174 217 262 316
#     4  12  24  36  54  76 104 134 172 216 274 332
#     4  11  21  35  54  74  98 135 174 217 262 316
#     4  10  18  29  48  77 111 143 173 211 262 316
#
# _framework density 26.512664000000001
#
# number of rings (size 3 to 8) (size 9 to 14) (size 15 to 20)
#    0.000    1.714    4.286    1.714    0.000    1.143 
#    0.000    0.000    0.000    0.000    0.000   22.000 
#    0.000    0.000    0.000    0.000    0.000    0.000 
#
# Total GULP energy -233919.035714 kJ/mol
# GULP energy per Si atom -5569.500850 kJ/mol
# Density = 2.645232 g / cm^3
# Si number density = 26.512664 Si / 1000 Ang^3
#
#
#
# Elastic Constant Matrix: (Units=GPa)
#
#
# Indices 1 2 3 4 5 6 
#
# 1 106.6130 -6.3894 2.8039 0.0000 0.0000 0.0000
# 2 -6.3894 106.6130 2.8039 0.0000 0.0000 0.0000
# 3 2.8039 2.8039 183.1781 0.0000 0.0000 0.0000
# 4 0.0000 0.0000 0.0000 13.3471 0.0000 0.0000
# 5 0.0000 0.0000 0.0000 0.0000 13.3471 0.0000
# 6 0.0000 0.0000 0.0000 0.0000 0.0000 56.5012
#
#
#
# Elastic Compliance Matrix: (Units=1/GPa)
#
#
# Indices 1 2 3 4 5 6 
#
# 1 0.009418 0.000568 -0.000153 0.000000 0.000000 0.000000
# 2 0.000568 0.009418 -0.000153 0.000000 0.000000 0.000000
# 3 -0.000153 -0.000153 0.005464 0.000000 0.000000 0.000000
# 4 0.000000 0.000000 0.000000 0.074923 0.000000 0.000000
# 5 0.000000 0.000000 0.000000 0.000000 0.074923 0.000000
# 6 0.000000 0.000000 0.000000 0.000000 0.000000 0.017699
#
#
# Mechanical properties :
#
#
# Convention : Reuss Voigt Hill
#
# Bulk Modulus (GPa) = 40.28212 43.87119 42.07665
# Shear Modulus (GPa) = 25.05093 43.11812 34.08452
#
# Velocity S-wave (km/s) = 3.07720 4.03714 3.58941
# Velocity P-wave (km/s) = 5.27751 6.18987 5.75181
#
# Compressibility (1/GPa) = 0.02482491
#
# Stress axis : x y z
#
# Youngs Moduli (GPa) = 106.18183 106.18183 183.02124
#
# Poissons Ratio (x) = -0.06036 0.02798
# Poissons Ratio (y) = -0.06036 0.02798
# Poissons Ratio (z) = 0.01623 0.01623
#
# Static dielectric constant tensor:
#      x y z
#    x 2.337200 0.000000 0.000000 
#    y 0.000000 2.337200 0.000000 
#    z 0.000000 0.000000 2.449240 
# 
# From -- ./inp_files/306.got.cif
#   From: 2010.05.17/outbox.cif.g08.bks.cpg/sg169_cif.got.tgz:306.got - 2010.05.20 11:12:54.
