data_PCOD9579879
_publ_section_title
;
Structure prediction by ZEFSAII (Michael W. Deem and Ramdas Pophale) SiO2 
 PCOD9579879
Probable space group: P 61
;
_chemical_formula_sum "Si O2"
_cell_formula_units_Z 42
_cell_length_a 9.533149
_cell_length_b 9.533149
_cell_length_c 29.322232
_cell_angle_alpha 90.000000
_cell_angle_beta 90.000000
_cell_angle_gamma 120.000000
_cell_volume 2307.811957
_symmetry_space_group_name_H-M "P 61"
_symmetry_group_IT_number 169
_symmetry_cell_setting 'hexagonal'
loop_
_space_group_symop_operation_xyz
x,y,z
x-y,x,1/6+z
-y,x-y,1/3+z
-x,-y,1/2+z
-x+y,-x,2/3+z
y,-x+y,5/6+z
loop_
_atom_site_type_symbol
_atom_site_label
_atom_site_fract_x
_atom_site_fract_y
_atom_site_fract_z
Si Si1 0.430010 0.569991 0.319350
Si Si2 0.658222 0.138652 0.720258
Si Si3 0.712005 0.424010 0.652684
Si Si4 0.915603 0.429857 0.153985
Si Si5 0.658222 0.519570 0.251775
Si Si6 0.514254 0.429857 0.151382
Si Si7 0.680714 1.000000 0.902683
O O1 0.449129 0.469569 0.360341
O O2 0.504183 0.760031 0.330986
O O3 0.530431 0.550872 0.278359
O O4 0.239970 0.495817 0.307715
O O5 0.673981 0.297997 0.694820
O O6 0.602991 0.125978 0.772039
O O7 0.838528 0.161902 0.719185
O O8 0.624016 0.297996 0.610547
O O9 0.635705 0.539599 0.656786
O O10 0.903894 0.539600 0.648581
O O11 0.938275 0.552839 0.194573
O O12 0.602992 0.477012 0.199994
O O13 0.838529 0.676626 0.252848
O O14 0.614565 0.552839 0.110794
#
# Coordination Sequence:
#
# PCOD9579879 Si02
#       7
#     6   6   6   6   6   6   6
#     4  11  22  36  64  89 118 158 198 255 306 352
#     4  10  20  37  60  88 116 155 200 245 298 359
#     4   9  22  36  62  85 116 156 198 241 304 360
#     4  11  20  37  59  88 117 151 201 247 292 359
#     4  10  20  37  60  88 116 155 200 245 298 359
#     4  11  20  37  59  88 117 151 201 247 292 359
#     4  10  20  36  60  86 110 162 200 236 292 360
#
# _framework density 18.199055999999999
#
# number of rings (size 3 to 8) (size 9 to 14) (size 15 to 20)
#    0.000    1.714    2.857    1.714    4.000    0.000 
#    0.000    0.000   25.143    0.000    0.000    0.000 
#    0.000    0.000    0.000    0.000    0.000    0.000 
#
# Total GULP energy -234038.281410 kJ/mol
# GULP energy per Si atom -5572.340034 kJ/mol
# Density = 1.815763 g / cm^3
# Si number density = 18.199056 Si / 1000 Ang^3
#
#
#
# Elastic Constant Matrix: (Units=GPa)
#
#
# Indices 1 2 3 4 5 6 
#
# 1 120.4391 82.7024 36.9125 0.0000 0.0000 0.0000
# 2 82.7024 120.4391 36.9125 0.0000 0.0000 0.0000
# 3 36.9125 36.9125 128.4245 0.0000 0.0000 0.0000
# 4 0.0000 0.0000 0.0000 16.5610 0.0000 0.0000
# 5 0.0000 0.0000 0.0000 0.0000 16.5610 0.0000
# 6 0.0000 0.0000 0.0000 0.0000 0.0000 18.8684
#
#
#
# Elastic Compliance Matrix: (Units=1/GPa)
#
#
# Indices 1 2 3 4 5 6 
#
# 1 0.015998 -0.010501 -0.001580 0.000000 0.000000 0.000000
# 2 -0.010501 0.015998 -0.001580 0.000000 0.000000 0.000000
# 3 -0.001580 -0.001580 0.008695 0.000000 0.000000 0.000000
# 4 0.000000 0.000000 0.000000 0.060383 0.000000 0.000000
# 5 0.000000 0.000000 0.000000 0.000000 0.060383 0.000000
# 6 0.000000 0.000000 0.000000 0.000000 0.000000 0.052999
#
#
# Mechanical properties :
#
#
# Convention : Reuss Voigt Hill
#
# Bulk Modulus (GPa) = 74.80065 75.81748 75.30906
# Shear Modulus (GPa) = 20.30587 24.58310 22.44449
#
# Velocity S-wave (km/s) = 3.34393 3.67930 3.51561
# Velocity P-wave (km/s) = 7.48998 7.73306 7.61249
#
# Compressibility (1/GPa) = 0.01336887
#
# Stress axis : x y z
#
# Youngs Moduli (GPa) = 62.50740 62.50740 115.00986
#
# Poissons Ratio (x) = 0.65641 0.18171
# Poissons Ratio (y) = 0.65641 0.18171
# Poissons Ratio (z) = 0.09876 0.09876
#
# Static dielectric constant tensor:
#      x y z
#    x 1.643950 0.000000 0.000000 
#    y 0.000000 1.643950 0.000000 
#    z 0.000000 0.000000 1.650340 
# 
# From -- ./inp_files/1839.got.cif
#   From: 2010.05.17/outbox.cif.g08.bks.cpg/sg169_cif.got.tgz:1839.got - 2010.05.20 11:12:54.
