data_PCOD9579966
_publ_section_title
;
Structure prediction by ZEFSAII (Michael W. Deem and Ramdas Pophale) SiO2 
 PCOD9579966
Probable space group: P 61
;
_chemical_formula_sum "Si O2"
_cell_formula_units_Z 48
_cell_length_a 14.768264
_cell_length_b 14.768264
_cell_length_c 10.116125
_cell_angle_alpha 90.000000
_cell_angle_beta 90.000000
_cell_angle_gamma 120.000000
_cell_volume 1910.749318
_symmetry_space_group_name_H-M "P 61"
_symmetry_group_IT_number 169
_symmetry_cell_setting 'hexagonal'
loop_
_space_group_symop_operation_xyz
x,y,z
x-y,x,1/6+z
-y,x-y,1/3+z
-x,-y,1/2+z
-x+y,-x,2/3+z
y,-x+y,5/6+z
loop_
_atom_site_type_symbol
_atom_site_label
_atom_site_fract_x
_atom_site_fract_y
_atom_site_fract_z
Si Si1 0.559076 0.217340 0.604320
Si Si2 0.713591 0.125852 0.818789
Si Si3 0.389065 0.184278 0.003747
Si Si4 0.442999 0.979389 0.555011
Si Si5 0.401574 0.762839 0.620844
Si Si6 0.812541 0.908313 0.950445
Si Si7 0.123154 0.925911 0.685140
Si Si8 0.658697 0.038376 0.537892
O O1 0.501613 0.257347 0.504654
O O2 0.575599 0.284265 0.734395
O O3 0.679074 0.270583 0.550241
O O4 0.478362 0.093113 0.616167
O O5 0.819985 0.125725 0.793524
O O6 0.652129 0.076527 0.684134
O O7 0.650414 0.062115 0.948683
O O8 0.512287 0.221924 0.008865
O O9 0.321987 0.178986 0.875351
O O10 0.373271 0.251547 0.114394
O O11 0.332965 0.064381 0.049775
O O12 0.427316 0.882277 0.649014
O O13 0.547649 0.006429 0.472071
O O14 0.879457 0.853491 0.984968
O O15 0.830674 0.994684 0.061816
O O16 0.001781 0.854168 0.644655
#
# Coordination Sequence:
#
# PCOD9579966 Si02
#       8
#     6   6   6   6   6   6   6   6
#     4  11  22  44  69  97 144 177 231 297 356 428
#     4  11  25  44  71 105 142 186 244 302 370 443
#     4  11  22  43  67  97 142 180 244 286 357 436
#     4  10  23  45  68 100 140 180 230 293 374 425
#     4  10  24  42  68 104 134 180 240 285 357 442
#     4  10  23  46  66 103 146 196 248 303 371 435
#     4  10  21  44  64  95 140 192 238 304 361 432
#     4  11  24  42  69 105 134 185 235 296 362 431
#
# _framework density 25.121036
#
# number of rings (size 3 to 8) (size 9 to 14) (size 15 to 20)
#    0.000    1.500    2.500    1.500    3.500    1.000 
#   22.500    0.000    0.000    0.000    0.000    0.000 
#    0.000    0.000    0.000    0.000    0.000    0.000 
#
# Total GULP energy -268136.128644 kJ/mol
# GULP energy per Si atom -5586.169347 kJ/mol
# Density = 2.506386 g / cm^3
# Si number density = 25.121036 Si / 1000 Ang^3
#
#
#
# Elastic Constant Matrix: (Units=GPa)
#
#
# Indices 1 2 3 4 5 6 
#
# 1 117.6001 36.7909 19.7122 0.0000 0.0000 0.0000
# 2 36.7909 117.6001 19.7122 0.0000 0.0000 0.0000
# 3 19.7122 19.7122 43.3215 0.0000 0.0000 0.0000
# 4 0.0000 0.0000 0.0000 28.1611 0.0000 0.0000
# 5 0.0000 0.0000 0.0000 0.0000 28.1611 0.0000
# 6 0.0000 0.0000 0.0000 0.0000 0.0000 40.4046
#
#
#
# Elastic Compliance Matrix: (Units=1/GPa)
#
#
# Indices 1 2 3 4 5 6 
#
# 1 0.009852 -0.002523 -0.003335 0.000000 0.000000 0.000000
# 2 -0.002523 0.009852 -0.003335 0.000000 0.000000 0.000000
# 3 -0.003335 -0.003335 0.026118 0.000000 0.000000 0.000000
# 4 0.000000 0.000000 0.000000 0.035510 0.000000 0.000000
# 5 0.000000 0.000000 0.000000 0.000000 0.035510 0.000000
# 6 0.000000 0.000000 0.000000 0.000000 0.000000 0.024750
#
#
# Mechanical properties :
#
#
# Convention : Reuss Voigt Hill
#
# Bulk Modulus (GPa) = 36.44792 47.88361 42.16576
# Shear Modulus (GPa) = 29.56457 32.83244 31.19851
#
# Velocity S-wave (km/s) = 3.43430 3.61913 3.52792
# Velocity P-wave (km/s) = 5.50148 6.04704 5.78070
#
# Compressibility (1/GPa) = 0.02743641
#
# Stress axis : x y z
#
# Youngs Moduli (GPa) = 101.50523 101.50523 38.28790
#
# Poissons Ratio (x) = 0.25611 0.12768
# Poissons Ratio (y) = 0.25611 0.12768
# Poissons Ratio (z) = 0.33849 0.33849
#
# Static dielectric constant tensor:
#      x y z
#    x 2.043890 0.000000 0.000000 
#    y 0.000000 2.043890 0.000000 
#    z 0.000000 0.000000 1.993310 
# 
# From -- ./inp_files/1033.got.cif
#   From: 2010.05.17/outbox.cif.g08.bks.cpg/sg169_cif.got.tgz:1033.got - 2010.05.20 11:12:54.
