data_PCOD9579570
_publ_section_title
;
Structure prediction by ZEFSAII (Michael W. Deem and Ramdas Pophale) SiO2 
 PCOD9579570
Probable space group: R -3 C 
;
_chemical_formula_sum "Si O2"
_cell_formula_units_Z 126
_cell_length_a 18.220150
_cell_length_b 18.220150
_cell_length_c 18.711904
_cell_angle_alpha 90.000000
_cell_angle_beta 90.000000
_cell_angle_gamma 120.000000
_cell_volume 5379.631259
_symmetry_space_group_name_H-M "R -3 C "
_symmetry_group_IT_number 167
_symmetry_cell_setting 'hexagonal'
loop_
_space_group_symop_operation_xyz
x,y,z
-y,x-y,z
-x+y,-x,z
x-y,-y,1/2-z
-x,-x+y,1/2-z
y,x,1/2-z
-x,-y,-z
y,-x+y,-z
x-y,x,-z
-x+y,y,1/2+z
x,x-y,1/2+z
-y,-x,1/2+z
2/3+x,1/3+y,1/3+z
2/3-y,1/3+x-y,1/3+z
2/3-x+y,1/3-x,1/3+z
2/3+x-y,1/3-y,5/6-z
2/3-x,1/3-x+y,5/6-z
2/3+y,1/3+x,5/6-z
2/3-x,1/3-y,1/3-z
2/3+y,1/3-x+y,1/3-z
2/3+x-y,1/3+x,1/3-z
2/3-x+y,1/3+y,5/6+z
2/3+x,1/3+x-y,5/6+z
2/3-y,1/3-x,5/6+z
1/3+x,2/3+y,2/3+z
1/3-y,2/3+x-y,2/3+z
1/3-x+y,2/3-x,2/3+z
1/3+x-y,2/3-y,1/6-z
1/3-x,2/3-x+y,1/6-z
1/3+y,2/3+x,1/6-z
1/3-x,2/3-y,2/3-z
1/3+y,2/3-x+y,2/3-z
1/3+x-y,2/3+x,2/3-z
1/3-x+y,2/3+y,1/6+z
1/3+x,2/3+x-y,1/6+z
1/3-y,2/3-x,1/6+z
loop_
_atom_site_type_symbol
_atom_site_label
_atom_site_fract_x
_atom_site_fract_y
_atom_site_fract_z
Si Si1 0.693145 0.513587 0.501561
Si Si2 0.913047 0.086655 0.542587
Si Si3 0.801076 0.686713 0.834370
Si Si4 0.692331 0.666667 0.416667
O O1 0.666667 0.508872 0.583334
O O2 0.628195 0.435108 0.452116
O O3 0.793302 0.549433 0.508860
O O4 0.698223 0.591948 0.456071
O O5 0.863988 0.140659 0.539462
O O6 0.008918 0.142233 0.514794
O O7 0.712466 0.672697 0.809091
O O8 0.796135 0.666667 0.916667
#
# Coordination Sequence:
#
# PCOD9579570 Si02
#       4
#    36  36  36  18
#     4  11  23  42  63  99 135 170 229 282 337 407
#     4  11  23  42  68  92 133 182 221 270 341 412
#     4  11  20  40  64  94 129 172 216 274 338 400
#     4  10  22  34  64  96 128 172 216 278 338 404
#
# _framework density 23.421678
#
# number of rings (size 3 to 8) (size 9 to 14) (size 15 to 20)
#    0.000    1.143    4.286    2.857    0.000    6.857 
#    0.000    0.000    0.000    0.000    0.000    0.000 
#    0.000    0.000    0.000    0.000    0.000    0.000 
#
# Total GULP energy -234409.573506 kJ/mol
# GULP energy per Si atom -5581.180322 kJ/mol
# Density = 2.336837 g / cm^3
# Si number density = 23.421678 Si / 1000 Ang^3
#
#
#
# Elastic Constant Matrix: (Units=GPa)
#
#
# Indices 1 2 3 4 5 6 
#
# 1 57.3068 5.3526 12.6265 -3.2165 0.0007 0.0000
# 2 5.3526 57.3068 12.6265 3.2165 -0.0007 0.0000
# 3 12.6265 12.6265 129.2085 0.0000 0.0000 0.0000
# 4 -3.2165 3.2165 0.0000 21.1231 0.0000 -0.0007
# 5 0.0007 -0.0007 0.0000 0.0000 21.1231 -3.2165
# 6 0.0000 0.0000 0.0000 -0.0007 -3.2165 25.9771
#
#
#
# Elastic Compliance Matrix: (Units=1/GPa)
#
#
# Indices 1 2 3 4 5 6 
#
# 1 0.018116 -0.001502 -0.001624 0.002987 -0.000001 0.000000
# 2 -0.001502 0.018116 -0.001624 -0.002987 0.000001 0.000000
# 3 -0.001624 -0.001624 0.008057 0.000000 0.000000 0.000000
# 4 0.002987 -0.002987 0.000000 0.048251 0.000000 0.000001
# 5 -0.000001 0.000001 0.000000 0.000000 0.048251 0.005975
# 6 0.000000 0.000000 0.000000 0.000001 0.005975 0.039235
#
#
# Mechanical properties :
#
#
# Convention : Reuss Voigt Hill
#
# Bulk Modulus (GPa) = 28.74398 33.89258 31.31828
# Shear Modulus (GPa) = 24.86074 27.85911 26.35993
#
# Velocity S-wave (km/s) = 3.26151 3.45259 3.35841
# Velocity P-wave (km/s) = 5.14610 5.51325 5.33283
#
# Compressibility (1/GPa) = 0.03478989
#
# Stress axis : x y z
#
# Youngs Moduli (GPa) = 55.20107 55.20107 124.11982
#
# Poissons Ratio (x) = 0.08291 0.20151
# Poissons Ratio (y) = 0.08291 0.20151
# Poissons Ratio (z) = 0.08962 0.08962
#
# Static dielectric constant tensor:
#      x y z
#    x 2.109050 0.000000 0.000000 
#    y 0.000000 2.109050 0.000000 
#    z 0.000000 0.000000 1.874700 
# 
# From -- ./inp_files/3018.got.cif
#   From: 2010.05.17/outbox.cif.g08.bks.cpg/sg167_2_cif.got.tgz:3018.got - 2010.05.20 11:09:15.
