data_PCOD9579051
_publ_section_title
;
Structure prediction by ZEFSAII (Michael W. Deem and Ramdas Pophale) SiO2 
 PCOD9579051
Probable space group: R -3 M
;
_chemical_formula_sum "Si O2"
_cell_formula_units_Z 216
_cell_length_a 26.273855
_cell_length_b 26.273855
_cell_length_c 23.450988
_cell_angle_alpha 90.000000
_cell_angle_beta 90.000000
_cell_angle_gamma 120.000000
_cell_volume 14019.721088
_symmetry_space_group_name_H-M "R -3 M"
_symmetry_group_IT_number 166
_symmetry_cell_setting 'hexagonal'
loop_
_space_group_symop_operation_xyz
x,y,z
-y,x-y,z
-x+y,-x,z
x-y,-y,-z
-x,-x+y,-z
y,x,-z
-x,-y,-z
y,-x+y,-z
x-y,x,-z
-x+y,y,z
x,x-y,z
-y,-x,z
2/3+x,1/3+y,1/3+z
2/3-y,1/3+x-y,1/3+z
2/3-x+y,1/3-x,1/3+z
2/3+x-y,1/3-y,1/3-z
2/3-x,1/3-x+y,1/3-z
2/3+y,1/3+x,1/3-z
2/3-x,1/3-y,1/3-z
2/3+y,1/3-x+y,1/3-z
2/3+x-y,1/3+x,1/3-z
2/3-x+y,1/3+y,1/3+z
2/3+x,1/3+x-y,1/3+z
2/3-y,1/3-x,1/3+z
1/3+x,2/3+y,2/3+z
1/3-y,2/3+x-y,2/3+z
1/3-x+y,2/3-x,2/3+z
1/3+x-y,2/3-y,2/3-z
1/3-x,2/3-x+y,2/3-z
1/3+y,2/3+x,2/3-z
1/3-x,2/3-y,2/3-z
1/3+y,2/3-x+y,2/3-z
1/3+x-y,2/3+x,2/3-z
1/3-x+y,2/3+y,2/3+z
1/3+x,2/3+x-y,2/3+z
1/3-y,2/3-x,2/3+z
loop_
_atom_site_type_symbol
_atom_site_label
_atom_site_fract_x
_atom_site_fract_y
_atom_site_fract_z
Si Si1 0.159596 0.440256 0.415823
Si Si2 0.657802 0.729908 0.190524
Si Si3 0.800824 0.961454 0.056358
Si Si4 0.666590 0.211854 0.500798
Si Si5 0.443131 0.002632 0.736142
Si Si6 0.687424 0.085708 0.693394
O O1 0.214236 0.428471 0.419608
O O2 0.105643 0.389399 0.451759
O O3 0.181252 0.502838 0.445176
O O4 0.137814 0.434265 0.350954
O O5 0.645262 0.666667 0.166667
O O6 0.648168 0.760801 0.136258
O O7 0.613652 0.715963 0.243593
O O8 0.803461 0.901731 0.050337
O O9 0.732295 0.940624 0.064901
O O10 0.840062 0.994147 0.111437
O O11 0.824800 0.000000 0.000000
O O12 0.605128 0.210256 0.502590
O O13 0.721232 0.278769 0.498444
O O14 0.503862 0.007724 0.717292
O O15 0.426739 0.044722 0.701655
O O16 0.713749 0.047082 0.666667
#
# Coordination Sequence:
#
# PCOD9579051 Si02
#       6
#    36  36  36  36  36  36
#     4  10  19  33  51  72  97 128 166 203 243 294
#     4   9  17  30  48  71  96 125 156 196 243 287
#     4  10  19  31  49  69  93 126 165 206 249 297
#     4  10  20  34  52  73  98 130 169 214 257 294
#     4  10  18  30  48  69  96 128 160 194 237 296
#     4   9  19  31  47  72  96 126 156 200 244 285
#
# _framework density 15.406867999999999
#
# number of rings (size 3 to 8) (size 9 to 14) (size 15 to 20)
#    0.000    2.333    1.667    1.667    0.000    4.333 
#    0.000    0.000    0.000    3.167    0.000    0.000 
#    0.000    0.000    0.000    0.000    0.000   53.000 
#
# Total GULP energy -401180.490493 kJ/mol
# GULP energy per Si atom -5571.951257 kJ/mol
# Density = 1.537180 g / cm^3
# Si number density = 15.406868 Si / 1000 Ang^3
#
#
#
# Elastic Constant Matrix: (Units=GPa)
#
#
# Indices 1 2 3 4 5 6 
#
# 1 71.2002 41.2380 36.7942 1.1195 -0.0005 0.0000
# 2 41.2380 71.2002 36.7942 -1.1195 0.0005 0.0000
# 3 36.7942 36.7942 96.6072 0.0000 0.0000 0.0000
# 4 1.1195 -1.1195 0.0000 17.6644 0.0000 0.0005
# 5 -0.0005 0.0005 0.0000 0.0000 17.6644 1.1195
# 6 0.0000 0.0000 0.0000 0.0005 1.1195 14.9811
#
#
#
# Elastic Compliance Matrix: (Units=1/GPa)
#
#
# Indices 1 2 3 4 5 6 
#
# 1 0.022691 -0.010844 -0.004512 -0.002125 0.000001 0.000000
# 2 -0.010844 0.022691 -0.004512 0.002125 -0.000001 0.000000
# 3 -0.004512 -0.004512 0.013788 0.000000 0.000000 0.000000
# 4 -0.002125 0.002125 0.000000 0.056880 0.000000 -0.000002
# 5 0.000001 -0.000001 0.000000 0.000000 0.056880 -0.004250
# 6 0.000000 0.000000 0.000000 -0.000002 -0.004250 0.067069
#
#
# Mechanical properties :
#
#
# Convention : Reuss Voigt Hill
#
# Bulk Modulus (GPa) = 51.45714 52.07336 51.76525
# Shear Modulus (GPa) = 17.46957 18.34072 17.90515
#
# Velocity S-wave (km/s) = 3.37097 3.45400 3.41274
# Velocity P-wave (km/s) = 6.97299 7.05542 7.01433
#
# Compressibility (1/GPa) = 0.01943365
#
# Stress axis : x y z
#
# Youngs Moduli (GPa) = 44.07122 44.07122 72.52617
#
# Poissons Ratio (x) = 0.47790 0.32724
# Poissons Ratio (y) = 0.47790 0.32724
# Poissons Ratio (z) = 0.19885 0.19885
#
# Static dielectric constant tensor:
#      x y z
#    x 1.497900 0.000000 0.000000 
#    y 0.000000 1.497900 0.000000 
#    z 0.000000 0.000000 1.527860 
# 
# From -- ./inp_files/8442.got.cif
#   From: 2010.05.17/outbox.cif.g08.bks.cpg/sg166_5_cif.got.tgz:8442.got - 2010.05.20 11:04:41.
