data_PCOD9579610
_publ_section_title
;
Structure prediction by ZEFSAII (Michael W. Deem and Ramdas Pophale) SiO2 
 PCOD9579610
Probable space group: R -3 C 
;
_chemical_formula_sum "Si O2"
_cell_formula_units_Z 162
_cell_length_a 22.484201
_cell_length_b 22.484201
_cell_length_c 18.523582
_cell_angle_alpha 90.000000
_cell_angle_beta 90.000000
_cell_angle_gamma 120.000000
_cell_volume 8109.807060
_symmetry_space_group_name_H-M "R -3 C "
_symmetry_group_IT_number 167
_symmetry_cell_setting 'hexagonal'
loop_
_space_group_symop_operation_xyz
x,y,z
-y,x-y,z
-x+y,-x,z
x-y,-y,1/2-z
-x,-x+y,1/2-z
y,x,1/2-z
-x,-y,-z
y,-x+y,-z
x-y,x,-z
-x+y,y,1/2+z
x,x-y,1/2+z
-y,-x,1/2+z
2/3+x,1/3+y,1/3+z
2/3-y,1/3+x-y,1/3+z
2/3-x+y,1/3-x,1/3+z
2/3+x-y,1/3-y,5/6-z
2/3-x,1/3-x+y,5/6-z
2/3+y,1/3+x,5/6-z
2/3-x,1/3-y,1/3-z
2/3+y,1/3-x+y,1/3-z
2/3+x-y,1/3+x,1/3-z
2/3-x+y,1/3+y,5/6+z
2/3+x,1/3+x-y,5/6+z
2/3-y,1/3-x,5/6+z
1/3+x,2/3+y,2/3+z
1/3-y,2/3+x-y,2/3+z
1/3-x+y,2/3-x,2/3+z
1/3+x-y,2/3-y,1/6-z
1/3-x,2/3-x+y,1/6-z
1/3+y,2/3+x,1/6-z
1/3-x,2/3-y,2/3-z
1/3+y,2/3-x+y,2/3-z
1/3+x-y,2/3+x,2/3-z
1/3-x+y,2/3+y,1/6+z
1/3+x,2/3+x-y,1/6+z
1/3-y,2/3-x,1/6+z
loop_
_atom_site_type_symbol
_atom_site_label
_atom_site_fract_x
_atom_site_fract_y
_atom_site_fract_z
Si Si1 0.922176 0.588842 0.083334
Si Si2 0.555395 0.921800 0.070110
Si Si3 0.536150 0.108847 0.670262
Si Si4 0.158915 0.056655 0.493264
Si Si5 0.117582 0.333334 0.583334
Si Si6 0.181723 0.000000 0.750000
O O1 0.930234 0.662855 0.098913
O O2 0.893995 0.533229 0.146568
O O3 0.485966 0.883814 0.116554
O O4 0.605792 0.897056 0.105305
O O5 0.540952 0.896111 0.987544
O O6 0.557020 0.142886 0.747900
O O7 0.525877 0.032846 0.686233
O O8 0.597795 0.149439 0.612908
O O9 0.124930 0.101973 0.513113
#
# Coordination Sequence:
#
# PCOD9579610 Si02
#       6
#    18  36  36  36  18  18
#     4  11  26  38  68 112 128 184 225 284 356 429
#     4  10  23  43  69  98 138 177 231 280 352 412
#     4  11  24  41  68  99 140 171 232 281 353 409
#     4  12  25  46  71  98 132 188 238 286 332 418
#     4   9  18  43  66  90 132 185 209 278 342 409
#     4  10  22  45  64  94 138 187 216 294 348 406
#
# _framework density 19.975815000000001
#
# number of rings (size 3 to 8) (size 9 to 14) (size 15 to 20)
#    0.000    1.333    4.444    1.556    3.111    7.111 
#    0.000    0.000    0.000    1.778    0.000    0.000 
#    0.000    0.000    0.000    0.000    0.000    0.000 
#
# Total GULP energy -301138.033408 kJ/mol
# GULP energy per Si atom -5576.630248 kJ/mol
# Density = 1.993035 g / cm^3
# Si number density = 19.975815 Si / 1000 Ang^3
#
#
#
# Elastic Constant Matrix: (Units=GPa)
#
#
# Indices 1 2 3 4 5 6 
#
# 1 106.5475 46.7526 47.7445 1.6669 -0.0001 0.0000
# 2 46.7526 106.5475 47.7445 -1.6669 0.0001 0.0000
# 3 47.7445 47.7445 90.1009 0.0000 0.0000 0.0000
# 4 1.6669 -1.6669 0.0000 33.2178 0.0000 0.0001
# 5 -0.0001 0.0001 0.0000 0.0000 33.2178 1.6669
# 6 0.0000 0.0000 0.0000 0.0001 1.6669 29.8975
#
#
#
# Elastic Compliance Matrix: (Units=1/GPa)
#
#
# Indices 1 2 3 4 5 6 
#
# 1 0.013254 -0.003517 -0.005160 -0.000842 0.000000 0.000000
# 2 -0.003517 0.013254 -0.005160 0.000842 0.000000 0.000000
# 3 -0.005160 -0.005160 0.016567 0.000000 0.000000 0.000000
# 4 -0.000842 0.000842 0.000000 0.030189 0.000000 0.000000
# 5 0.000000 0.000000 0.000000 0.000000 0.030189 -0.001683
# 6 0.000000 0.000000 0.000000 0.000000 -0.001683 0.033541
#
#
# Mechanical properties :
#
#
# Convention : Reuss Voigt Hill
#
# Bulk Modulus (GPa) = 64.92530 65.29771 65.11150
# Shear Modulus (GPa) = 29.44635 29.99689 29.72162
#
# Velocity S-wave (km/s) = 3.84357 3.87933 3.86149
# Velocity P-wave (km/s) = 7.22979 7.26808 7.24896
#
# Compressibility (1/GPa) = 0.01540232
#
# Stress axis : x y z
#
# Youngs Moduli (GPa) = 75.44948 75.44948 60.36137
#
# Poissons Ratio (x) = 0.26534 0.31144
# Poissons Ratio (y) = 0.26534 0.31144
# Poissons Ratio (z) = 0.38929 0.38929
#
# Static dielectric constant tensor:
#      x y z
#    x 1.760200 0.000000 0.000000 
#    y 0.000000 1.760200 0.000000 
#    z 0.000000 0.000000 1.647260 
# 
# From -- ./inp_files/3506.got.cif
#   From: 2010.05.17/outbox.cif.g08.bks.cpg/sg167_2_cif.got.tgz:3506.got - 2010.05.20 11:09:15.
