data_PCOD9579559
_publ_section_title
;
Structure prediction by ZEFSAII (Michael W. Deem and Ramdas Pophale) SiO2 
 PCOD9579559
Probable space group: R -3 C 
;
_chemical_formula_sum "Si O2"
_cell_formula_units_Z 168
_cell_length_a 17.358622
_cell_length_b 17.358622
_cell_length_c 26.532482
_cell_angle_alpha 90.000000
_cell_angle_beta 90.000000
_cell_angle_gamma 120.000000
_cell_volume 6923.712121
_symmetry_space_group_name_H-M "R -3 C "
_symmetry_group_IT_number 167
_symmetry_cell_setting 'hexagonal'
loop_
_space_group_symop_operation_xyz
x,y,z
-y,x-y,z
-x+y,-x,z
x-y,-y,1/2-z
-x,-x+y,1/2-z
y,x,1/2-z
-x,-y,-z
y,-x+y,-z
x-y,x,-z
-x+y,y,1/2+z
x,x-y,1/2+z
-y,-x,1/2+z
2/3+x,1/3+y,1/3+z
2/3-y,1/3+x-y,1/3+z
2/3-x+y,1/3-x,1/3+z
2/3+x-y,1/3-y,5/6-z
2/3-x,1/3-x+y,5/6-z
2/3+y,1/3+x,5/6-z
2/3-x,1/3-y,1/3-z
2/3+y,1/3-x+y,1/3-z
2/3+x-y,1/3+x,1/3-z
2/3-x+y,1/3+y,5/6+z
2/3+x,1/3+x-y,5/6+z
2/3-y,1/3-x,5/6+z
1/3+x,2/3+y,2/3+z
1/3-y,2/3+x-y,2/3+z
1/3-x+y,2/3-x,2/3+z
1/3+x-y,2/3-y,1/6-z
1/3-x,2/3-x+y,1/6-z
1/3+y,2/3+x,1/6-z
1/3-x,2/3-y,2/3-z
1/3+y,2/3-x+y,2/3-z
1/3+x-y,2/3+x,2/3-z
1/3-x+y,2/3+y,1/6+z
1/3+x,2/3+x-y,1/6+z
1/3-y,2/3-x,1/6+z
loop_
_atom_site_type_symbol
_atom_site_label
_atom_site_fract_x
_atom_site_fract_y
_atom_site_fract_z
Si Si1 0.666668 0.333334 0.767656
Si Si2 0.143066 0.626596 0.496627
Si Si3 0.621359 0.731109 0.280143
Si Si4 0.666668 0.333334 0.147581
Si Si5 0.512358 0.377069 0.265565
Si Si6 0.434076 0.052624 0.315474
O O1 0.666668 0.333334 0.707752
O O2 0.763687 0.350076 0.780909
O O3 0.106790 0.541638 0.533712
O O4 0.233210 0.644414 0.469484
O O5 0.165577 0.703335 0.538458
O O6 0.058438 0.597371 0.460551
O O7 0.590806 0.640083 0.310620
O O8 0.604513 0.704790 0.221735
O O9 0.550088 0.473946 0.289322
O O10 0.422953 0.311220 0.295313
#
# Coordination Sequence:
#
# PCOD9579559 Si02
#       6
#    12  36  36  12  36  36
#     4   9  18  34  58  99 136 157 199 270 323 378
#     4  10  21  41  64  88 123 170 214 256 311 375
#     4  10  23  39  55  85 134 169 197 252 317 370
#     4   9  18  36  67  92 115 162 226 269 296 362
#     4  11  21  37  65  96 127 165 210 255 323 386
#     4  11  23  37  59  94 131 162 202 264 320 379
#
# _framework density 24.26444
#
# number of rings (size 3 to 8) (size 9 to 14) (size 15 to 20)
#    0.000    1.714    0.000    6.429    0.000    6.857 
#    0.000    0.000    0.000   12.857    0.000    0.000 
#    0.000    0.000    0.000    0.000    0.000    0.000 
#
# Total GULP energy -313349.102910 kJ/mol
# GULP energy per Si atom -5595.519695 kJ/mol
# Density = 2.420921 g / cm^3
# Si number density = 24.264440 Si / 1000 Ang^3
#
#
#
# Elastic Constant Matrix: (Units=GPa)
#
#
# Indices 1 2 3 4 5 6 
#
# 1 105.0641 32.2137 16.2708 4.7802 0.0000 0.0000
# 2 32.2137 105.0644 16.2709 -4.7803 0.0000 0.0000
# 3 16.2708 16.2709 90.4357 0.0002 0.0000 0.0000
# 4 4.7802 -4.7803 0.0002 28.3243 0.0000 0.0000
# 5 0.0000 0.0000 0.0000 0.0000 28.3245 4.7802
# 6 0.0000 0.0000 0.0000 0.0000 4.7802 36.4252
#
#
#
# Elastic Compliance Matrix: (Units=1/GPa)
#
#
# Indices 1 2 3 4 5 6 
#
# 1 0.010823 -0.003214 -0.001369 -0.002369 0.000000 0.000000
# 2 -0.003214 0.010823 -0.001369 0.002369 0.000000 0.000000
# 3 -0.001369 -0.001369 0.011550 0.000000 0.000000 0.000000
# 4 -0.002369 0.002369 0.000000 0.036105 0.000000 0.000000
# 5 0.000000 0.000000 0.000000 0.000000 0.036105 -0.004738
# 6 0.000000 0.000000 0.000000 0.000000 -0.004738 0.028075
#
#
# Mechanical properties :
#
#
# Convention : Reuss Voigt Hill
#
# Bulk Modulus (GPa) = 46.96541 47.78611 47.37576
# Shear Modulus (GPa) = 32.79033 34.33537 33.56285
#
# Velocity S-wave (km/s) = 3.68009 3.76579 3.72319
# Velocity P-wave (km/s) = 6.12006 6.21650 6.16847
#
# Compressibility (1/GPa) = 0.02129227
#
# Stress axis : x y z
#
# Youngs Moduli (GPa) = 92.39299 92.39319 86.57873
#
# Poissons Ratio (x) = 0.29698 0.11852
# Poissons Ratio (y) = 0.29698 0.11853
# Poissons Ratio (z) = 0.12648 0.12649
#
# Static dielectric constant tensor:
#      x y z
#    x 1.951520 0.000000 0.000000 
#    y 0.000000 1.951520 0.000000 
#    z 0.000000 0.000000 1.917980 
# 
# From -- ./inp_files/6996.got.cif
#   From: 2010.05.17/outbox.cif.g08.bks.cpg/sg167_4_cif.got.tgz:6996.got - 2010.05.20 11:09:15.
