data_PCOD9579835
_publ_section_title
;
Structure prediction by ZEFSAII (Michael W. Deem and Ramdas Pophale) SiO2 
 PCOD9579835
Probable space group: P 61
;
_chemical_formula_sum "Si O2"
_cell_formula_units_Z 42
_cell_length_a 8.280031
_cell_length_b 8.280031
_cell_length_c 35.170141
_cell_angle_alpha 90.000000
_cell_angle_beta 90.000000
_cell_angle_gamma 120.000000
_cell_volume 2088.183533
_symmetry_space_group_name_H-M "P 61"
_symmetry_group_IT_number 169
_symmetry_cell_setting 'hexagonal'
loop_
_space_group_symop_operation_xyz
x,y,z
x-y,x,1/6+z
-y,x-y,1/3+z
-x,-y,1/2+z
-x+y,-x,2/3+z
y,-x+y,5/6+z
loop_
_atom_site_type_symbol
_atom_site_label
_atom_site_fract_x
_atom_site_fract_y
_atom_site_fract_z
Si Si1 0.400844 0.569686 0.533460
Si Si2 0.614738 0.000000 0.720302
Si Si3 0.387653 0.010189 0.791693
Si Si4 0.010189 0.387653 0.982243
Si Si5 0.634809 0.556304 0.599649
Si Si6 0.430314 0.599157 0.740477
Si Si7 0.365191 0.921494 0.507621
O O1 0.482424 0.542949 0.494164
O O2 0.549849 0.624710 0.567129
O O3 0.374404 0.745527 0.524977
O O4 0.196924 0.397183 0.544379
O O5 0.522176 0.042545 0.756387
O O6 0.479632 0.957456 0.684216
O O7 0.602817 0.803077 0.729558
O O8 0.178493 0.848708 0.779910
O O9 0.389282 0.194641 0.803635
O O10 0.939474 0.457050 0.946439
O O11 0.848707 0.178492 0.994027
O O12 0.625597 0.371123 0.582293
O O13 0.505583 0.494418 0.636968
O O14 0.375290 0.450152 0.706808
#
# Coordination Sequence:
#
# PCOD9579835 Si02
#       7
#     6   6   6   6   6   6   6
#     4  10  20  36  56  81 112 148 193 240 291 352
#     4  10  20  34  56  84 114 150 194 242 290 350
#     4  10  19  35  59  83 111 153 198 241 292 355
#     4  10  19  35  59  83 111 153 198 241 292 355
#     4   9  20  36  54  81 114 146 192 243 291 353
#     4  10  20  36  56  81 112 148 193 240 291 352
#     4   9  20  36  54  81 114 146 192 243 291 353
#
# _framework density 20.113174000000001
#
# number of rings (size 3 to 8) (size 9 to 14) (size 15 to 20)
#    0.000    2.286    0.000    6.000    0.000    3.429 
#    0.000    5.714    0.000    0.000    0.000    0.000 
#    0.000    0.000    0.000    0.000    0.000    0.000 
#
# Total GULP energy -234345.638326 kJ/mol
# GULP energy per Si atom -5579.658055 kJ/mol
# Density = 2.006740 g / cm^3
# Si number density = 20.113174 Si / 1000 Ang^3
#
#
#
# Elastic Constant Matrix: (Units=GPa)
#
#
# Indices 1 2 3 4 5 6 
#
# 1 66.8268 37.7570 38.8979 0.0000 0.0000 0.0000
# 2 37.7570 66.8268 38.8979 0.0000 0.0000 0.0000
# 3 38.8979 38.8979 134.7022 0.0000 0.0000 0.0000
# 4 0.0000 0.0000 0.0000 28.1457 0.0000 0.0000
# 5 0.0000 0.0000 0.0000 0.0000 28.1457 0.0000
# 6 0.0000 0.0000 0.0000 0.0000 0.0000 14.5349
#
#
#
# Elastic Compliance Matrix: (Units=1/GPa)
#
#
# Indices 1 2 3 4 5 6 
#
# 1 0.023289 -0.011111 -0.003516 0.000000 0.000000 0.000000
# 2 -0.011111 0.023289 -0.003516 0.000000 0.000000 0.000000
# 3 -0.003516 -0.003516 0.009455 0.000000 0.000000 0.000000
# 4 0.000000 0.000000 0.000000 0.035529 0.000000 0.000000
# 5 0.000000 0.000000 0.000000 0.000000 0.035529 0.000000
# 6 0.000000 0.000000 0.000000 0.000000 0.000000 0.068800
#
#
# Mechanical properties :
#
#
# Convention : Reuss Voigt Hill
#
# Bulk Modulus (GPa) = 50.64905 55.49573 53.07239
# Shear Modulus (GPa) = 20.94149 24.35214 22.64682
#
# Velocity S-wave (km/s) = 3.23024 3.48337 3.35919
# Velocity P-wave (km/s) = 6.25694 6.62043 6.44125
#
# Compressibility (1/GPa) = 0.01974371
#
# Stress axis : x y z
#
# Youngs Moduli (GPa) = 42.93925 42.93925 105.76756
#
# Poissons Ratio (x) = 0.47711 0.37193
# Poissons Ratio (y) = 0.47711 0.37193
# Poissons Ratio (z) = 0.15100 0.15100
#
# Static dielectric constant tensor:
#      x y z
#    x 1.746040 0.000000 0.000000 
#    y 0.000000 1.746040 0.000000 
#    z 0.000000 0.000000 1.723530 
# 
# From -- ./inp_files/1855.got.cif
#   From: 2010.05.17/outbox.cif.g08.bks.cpg/sg169_cif.got.tgz:1855.got - 2010.05.20 11:12:54.
