data_PCOD9579465
_publ_section_title
;
Structure prediction by ZEFSAII (Michael W. Deem and Ramdas Pophale) SiO2 
 PCOD9579465
Probable space group: R -3 C 
;
_chemical_formula_sum "Si O2"
_cell_formula_units_Z 252
_cell_length_a 29.038842
_cell_length_b 29.038842
_cell_length_c 18.672189
_cell_angle_alpha 90.000000
_cell_angle_beta 90.000000
_cell_angle_gamma 120.000000
_cell_volume 13635.920289
_symmetry_space_group_name_H-M "R -3 C "
_symmetry_group_IT_number 167
_symmetry_cell_setting 'hexagonal'
loop_
_space_group_symop_operation_xyz
x,y,z
-y,x-y,z
-x+y,-x,z
x-y,-y,1/2-z
-x,-x+y,1/2-z
y,x,1/2-z
-x,-y,-z
y,-x+y,-z
x-y,x,-z
-x+y,y,1/2+z
x,x-y,1/2+z
-y,-x,1/2+z
2/3+x,1/3+y,1/3+z
2/3-y,1/3+x-y,1/3+z
2/3-x+y,1/3-x,1/3+z
2/3+x-y,1/3-y,5/6-z
2/3-x,1/3-x+y,5/6-z
2/3+y,1/3+x,5/6-z
2/3-x,1/3-y,1/3-z
2/3+y,1/3-x+y,1/3-z
2/3+x-y,1/3+x,1/3-z
2/3-x+y,1/3+y,5/6+z
2/3+x,1/3+x-y,5/6+z
2/3-y,1/3-x,5/6+z
1/3+x,2/3+y,2/3+z
1/3-y,2/3+x-y,2/3+z
1/3-x+y,2/3-x,2/3+z
1/3+x-y,2/3-y,1/6-z
1/3-x,2/3-x+y,1/6-z
1/3+y,2/3+x,1/6-z
1/3-x,2/3-y,2/3-z
1/3+y,2/3-x+y,2/3-z
1/3+x-y,2/3+x,2/3-z
1/3-x+y,2/3+y,1/6+z
1/3+x,2/3+x-y,1/6+z
1/3-y,2/3-x,1/6+z
loop_
_atom_site_type_symbol
_atom_site_label
_atom_site_fract_x
_atom_site_fract_y
_atom_site_fract_z
Si Si1 0.133191 0.235363 0.357471
Si Si2 0.390266 0.994200 0.950100
Si Si3 0.768419 0.708160 0.747147
Si Si4 0.775610 0.790871 0.955665
Si Si5 0.246493 0.391714 0.581975
Si Si6 0.898211 0.181649 0.007747
Si Si7 0.730220 0.165163 0.075862
O O1 0.182317 0.275829 0.306573
O O2 0.157266 0.204666 0.404167
O O3 0.111828 0.261489 0.416440
O O4 0.088765 0.206910 0.296096
O O5 0.419430 0.051050 0.912287
O O6 0.333334 0.962264 0.916667
O O7 0.416629 0.958056 0.938133
O O8 0.385006 0.999848 0.034050
O O9 0.758204 0.758204 0.750000
O O10 0.771701 0.673765 0.812012
O O11 0.765474 0.804338 0.035093
O O12 0.805699 0.758232 0.967831
O O13 0.241506 0.333334 0.583334
O O14 0.193996 0.379148 0.625226
O O15 0.251951 0.420588 0.506512
O O16 0.666667 0.136342 0.083334
#
# Coordination Sequence:
#
# PCOD9579465 Si02
#       7
#    36  36  36  36  36  36  36
#     4  10  22  39  55  76 111 153 189 237 292 342
#     4  10  20  32  49  76 106 140 190 240 279 311
#     4  11  22  34  57  79 112 156 195 240 287 327
#     4  10  22  35  54  76 108 145 193 237 284 323
#     4  11  22  34  54  79 104 145 190 239 282 336
#     4  11  22  38  55  77 113 151 195 242 284 329
#     4  11  21  36  56  77 103 144 189 234 287 336
#
# _framework density 18.480601
#
# number of rings (size 3 to 8) (size 9 to 14) (size 15 to 20)
#    0.000    1.429    2.857    3.000    4.000    5.714 
#    0.000    0.000    0.000    0.000    0.000    0.000 
#    0.000    0.000    0.000  163.714    0.000    0.000 
#
# Total GULP energy -467699.852017 kJ/mol
# GULP energy per Si atom -5567.855381 kJ/mol
# Density = 1.843854 g / cm^3
# Si number density = 18.480601 Si / 1000 Ang^3
#
#
#
# Elastic Constant Matrix: (Units=GPa)
#
#
# Indices 1 2 3 4 5 6 
#
# 1 37.3734 7.8749 7.4480 -2.6205 0.0000 0.0000
# 2 7.8749 37.3734 7.4480 2.6205 0.0000 0.0000
# 3 7.4480 7.4480 92.1179 0.0000 0.0000 0.0000
# 4 -2.6205 2.6205 0.0000 21.3762 0.0000 0.0000
# 5 0.0000 0.0000 0.0000 0.0000 21.3762 -2.6205
# 6 0.0000 0.0000 0.0000 0.0000 -2.6205 14.7492
#
#
#
# Elastic Compliance Matrix: (Units=1/GPa)
#
#
# Indices 1 2 3 4 5 6 
#
# 1 0.028680 -0.005975 -0.001836 0.004248 0.000000 0.000000
# 2 -0.005975 0.028680 -0.001836 -0.004248 0.000000 0.000000
# 3 -0.001836 -0.001836 0.011152 0.000000 0.000000 0.000000
# 4 0.004248 -0.004248 0.000000 0.047823 0.000000 0.000000
# 5 0.000000 0.000000 0.000000 0.000000 0.047823 0.008497
# 6 0.000000 0.000000 0.000000 0.000000 0.008497 0.069310
#
#
# Mechanical properties :
#
#
# Convention : Reuss Voigt Hill
#
# Bulk Modulus (GPa) = 20.31741 23.60070 21.95905
# Shear Modulus (GPa) = 18.57589 21.10659 19.84124
#
# Velocity S-wave (km/s) = 3.17386 3.38315 3.28018
# Velocity P-wave (km/s) = 4.94459 5.29710 5.12387
#
# Compressibility (1/GPa) = 0.04921888
#
# Stress axis : x y z
#
# Youngs Moduli (GPa) = 34.86782 34.86782 89.66600
#
# Poissons Ratio (x) = 0.20834 0.16460
# Poissons Ratio (y) = 0.20834 0.16460
# Poissons Ratio (z) = 0.06401 0.06401
#
# Static dielectric constant tensor:
#      x y z
#    x 1.722410 0.000000 0.000000 
#    y 0.000000 1.722410 0.000000 
#    z 0.000000 0.000000 1.744820 
# 
# From -- ./inp_files/3692.got.cif
#   From: 2010.05.17/outbox.cif.g08.bks.cpg/sg167_2_cif.got.tgz:3692.got - 2010.05.20 11:09:15.
