data_PCOD9579587
_publ_section_title
;
Structure prediction by ZEFSAII (Michael W. Deem and Ramdas Pophale) SiO2 
 PCOD9579587
Probable space group: R -3 C 
;
_chemical_formula_sum "Si O2"
_cell_formula_units_Z 162
_cell_length_a 22.085030
_cell_length_b 22.085030
_cell_length_c 18.828188
_cell_angle_alpha 90.000000
_cell_angle_beta 90.000000
_cell_angle_gamma 120.000000
_cell_volume 7953.076224
_symmetry_space_group_name_H-M "R -3 C "
_symmetry_group_IT_number 167
_symmetry_cell_setting 'hexagonal'
loop_
_space_group_symop_operation_xyz
x,y,z
-y,x-y,z
-x+y,-x,z
x-y,-y,1/2-z
-x,-x+y,1/2-z
y,x,1/2-z
-x,-y,-z
y,-x+y,-z
x-y,x,-z
-x+y,y,1/2+z
x,x-y,1/2+z
-y,-x,1/2+z
2/3+x,1/3+y,1/3+z
2/3-y,1/3+x-y,1/3+z
2/3-x+y,1/3-x,1/3+z
2/3+x-y,1/3-y,5/6-z
2/3-x,1/3-x+y,5/6-z
2/3+y,1/3+x,5/6-z
2/3-x,1/3-y,1/3-z
2/3+y,1/3-x+y,1/3-z
2/3+x-y,1/3+x,1/3-z
2/3-x+y,1/3+y,5/6+z
2/3+x,1/3+x-y,5/6+z
2/3-y,1/3-x,5/6+z
1/3+x,2/3+y,2/3+z
1/3-y,2/3+x-y,2/3+z
1/3-x+y,2/3-x,2/3+z
1/3+x-y,2/3-y,1/6-z
1/3-x,2/3-x+y,1/6-z
1/3+y,2/3+x,1/6-z
1/3-x,2/3-y,2/3-z
1/3+y,2/3-x+y,2/3-z
1/3+x-y,2/3+x,2/3-z
1/3-x+y,2/3+y,1/6+z
1/3+x,2/3+x-y,1/6+z
1/3-y,2/3-x,1/6+z
loop_
_atom_site_type_symbol
_atom_site_label
_atom_site_fract_x
_atom_site_fract_y
_atom_site_fract_z
Si Si1 0.268009 0.333334 0.083334
Si Si2 0.946127 0.133738 0.914821
Si Si3 0.104808 0.214238 0.929174
Si Si4 0.586047 0.590263 0.664963
Si Si5 0.156263 0.656936 0.341665
O O1 0.194129 0.266834 0.105251
O O2 0.328292 0.364441 0.143796
O O3 0.027193 0.163031 0.900304
O O4 0.895040 0.062100 0.876020
O O5 0.936288 0.122827 0.999495
O O6 0.102568 0.281943 0.958041
O O7 0.156511 0.217459 0.868126
O O8 0.580684 0.580684 0.750000
O O9 0.618592 0.544047 0.640381
O O10 0.193839 0.666667 0.416667
#
# Coordination Sequence:
#
# PCOD9579587 Si02
#       5
#    18  36  36  36  36
#     4  10  22  40  66 104 132 178 220 276 366 408
#     4  11  21  43  68  94 132 180 234 281 333 429
#     4  11  23  42  71  96 129 186 238 275 348 413
#     4  11  21  42  68  99 138 176 230 287 340 428
#     4  12  25  43  67 101 141 177 226 297 351 400
#
# _framework density 20.369475999999999
#
# number of rings (size 3 to 8) (size 9 to 14) (size 15 to 20)
#    0.000    0.889    5.556    2.667    0.000    1.778 
#    9.333    1.111    0.000    0.000    0.000    0.000 
#    0.000    0.000    0.000    0.000    0.000    0.000 
#
# Total GULP energy -301619.592642 kJ/mol
# GULP energy per Si atom -5585.548012 kJ/mol
# Density = 2.032311 g / cm^3
# Si number density = 20.369476 Si / 1000 Ang^3
#
#
#
# Elastic Constant Matrix: (Units=GPa)
#
#
# Indices 1 2 3 4 5 6 
#
# 1 71.6535 38.2560 28.0949 10.8436 0.0001 0.0000
# 2 38.2560 71.6535 28.0949 -10.8436 -0.0001 0.0000
# 3 28.0949 28.0949 117.9251 0.0000 0.0000 0.0000
# 4 10.8436 -10.8436 0.0000 18.8346 0.0000 -0.0001
# 5 0.0001 -0.0001 0.0000 0.0000 18.8346 10.8436
# 6 0.0000 0.0000 0.0000 -0.0001 10.8436 16.6987
#
#
#
# Elastic Compliance Matrix: (Units=1/GPa)
#
#
# Indices 1 2 3 4 5 6 
#
# 1 0.029090 -0.018730 -0.002468 -0.027531 0.000000 0.000000
# 2 -0.018730 0.029090 -0.002468 0.027531 0.000000 0.000000
# 3 -0.002468 -0.002468 0.009656 0.000000 0.000000 0.000000
# 4 -0.027531 0.027531 0.000000 0.084795 0.000000 0.000000
# 5 0.000000 0.000000 0.000000 0.000000 0.084795 -0.055063
# 6 0.000000 0.000000 0.000000 0.000000 -0.055063 0.095641
#
#
# Mechanical properties :
#
#
# Convention : Reuss Voigt Hill
#
# Bulk Modulus (GPa) = 48.77211 50.01374 49.39292
# Shear Modulus (GPa) = 12.91204 21.99265 17.45235
#
# Velocity S-wave (km/s) = 2.52045 3.28942 2.93027
# Velocity P-wave (km/s) = 5.69789 6.24769 5.97911
#
# Compressibility (1/GPa) = 0.02050352
#
# Stress axis : x y z
#
# Youngs Moduli (GPa) = 34.37572 34.37572 103.56187
#
# Poissons Ratio (x) = 0.64386 0.25562
# Poissons Ratio (y) = 0.64386 0.25562
# Poissons Ratio (z) = 0.08485 0.08485
#
# Static dielectric constant tensor:
#      x y z
#    x 1.745640 0.000000 0.000000 
#    y 0.000000 1.745640 0.000000 
#    z 0.000000 0.000000 1.787820 
# 
# From -- ./inp_files/3399.got.cif
#   From: 2010.05.17/outbox.cif.g08.bks.cpg/sg167_2_cif.got.tgz:3399.got - 2010.05.20 11:09:15.
