data_PCOD9579810
_publ_section_title
;
Structure prediction by ZEFSAII (Michael W. Deem and Ramdas Pophale) SiO2 
 PCOD9579810
Probable space group: P 61
;
_chemical_formula_sum "Si O2"
_cell_formula_units_Z 42
_cell_length_a 12.733603
_cell_length_b 12.733603
_cell_length_c 14.658757
_cell_angle_alpha 90.000000
_cell_angle_beta 90.000000
_cell_angle_gamma 120.000000
_cell_volume 2058.402916
_symmetry_space_group_name_H-M "P 61"
_symmetry_group_IT_number 169
_symmetry_cell_setting 'hexagonal'
loop_
_space_group_symop_operation_xyz
x,y,z
x-y,x,1/6+z
-y,x-y,1/3+z
-x,-y,1/2+z
-x+y,-x,2/3+z
y,-x+y,5/6+z
loop_
_atom_site_type_symbol
_atom_site_label
_atom_site_fract_x
_atom_site_fract_y
_atom_site_fract_z
Si Si1 0.962593 0.495644 0.024010
Si Si2 0.047860 0.892694 0.611479
Si Si3 0.221807 0.562118 0.024258
Si Si4 0.979314 0.578327 0.825406
Si Si5 0.807427 0.215053 0.031266
Si Si6 0.643731 0.154227 0.874642
Si Si7 0.162956 0.365183 0.179604
O O1 0.918874 0.352489 0.036439
O O2 0.892178 0.520600 0.104328
O O3 0.107831 0.581726 0.036296
O O4 0.931697 0.507084 0.919844
O O5 0.158593 0.873275 0.583649
O O6 0.995246 0.911021 0.518611
O O7 0.947101 0.767067 0.656524
O O8 0.364346 0.649156 0.041758
O O9 0.189307 0.451881 0.093156
O O10 0.214642 0.516277 0.920752
O O11 0.055101 0.533572 0.762211
O O12 0.075200 0.714956 0.856832
O O13 0.876777 0.580850 0.763221
O O14 0.759334 0.172093 0.930118
#
# Coordination Sequence:
#
# PCOD9579810 Si02
#       7
#     6   6   6   6   6   6   6
#     4  11  21  38  58  91 129 165 205 258 316 378
#     4  12  22  40  72  98 117 163 226 276 311 365
#     4  10  18  36  61  88 116 157 212 258 296 377
#     4  11  22  36  63  93 126 161 208 264 320 376
#     4  11  20  38  64  90 123 164 212 258 313 381
#     4  10  22  36  60  92 126 162 206 256 320 383
#     4  11  19  38  64  92 115 160 215 264 308 366
#
# _framework density 20.404167999999999
#
# number of rings (size 3 to 8) (size 9 to 14) (size 15 to 20)
#    0.000    1.143    7.143    0.857    0.000    1.143 
#    2.571    2.857    0.000    0.000    0.000    0.000 
#    0.000    0.000    0.000    0.000    0.000    0.000 
#
# Total GULP energy -234486.094905 kJ/mol
# GULP energy per Si atom -5583.002260 kJ/mol
# Density = 2.035773 g / cm^3
# Si number density = 20.404168 Si / 1000 Ang^3
#
#
#
# Elastic Constant Matrix: (Units=GPa)
#
#
# Indices 1 2 3 4 5 6 
#
# 1 11.1987 14.1401 14.8535 0.0000 0.0000 0.0000
# 2 14.1401 11.1987 14.8535 0.0000 0.0000 0.0000
# 3 14.8535 14.8535 122.5650 0.0000 0.0000 0.0000
# 4 0.0000 0.0000 0.0000 34.8150 0.0000 0.0000
# 5 0.0000 0.0000 0.0000 0.0000 34.8150 0.0000
# 6 0.0000 0.0000 0.0000 0.0000 0.0000 -1.4707
#
#
#
# Elastic Compliance Matrix: (Units=1/GPa)
#
#
# Indices 1 2 3 4 5 6 
#
# 1 -0.146984 0.192985 -0.005575 0.000000 0.000000 0.000000
# 2 0.192985 -0.146984 -0.005575 0.000000 0.000000 0.000000
# 3 -0.005575 -0.005575 0.009510 0.000000 0.000000 0.000000
# 4 0.000000 0.000000 0.000000 0.028723 0.000000 0.000000
# 5 0.000000 0.000000 0.000000 0.000000 0.028723 0.000000
# 6 0.000000 0.000000 0.000000 0.000000 0.000000 -0.679937
#
#
# Mechanical properties :
#
#
# Convention : Reuss Voigt Hill
#
# Bulk Modulus (GPa) = 12.62419 25.85075 19.23747
# Shear Modulus (GPa) = -4.01860 20.37288 8.17714
#
# Velocity S-wave (km/s) = -1.40491 3.16328 2.00407
# Velocity P-wave (km/s) = 1.88913 5.10281 3.84756
#
# Compressibility (1/GPa) = 0.07921299
#
# Stress axis : x y z
#
# Youngs Moduli (GPa) = -6.80347 -6.80347 105.15079
#
# Poissons Ratio (x) = 1.31297 0.58620
# Poissons Ratio (y) = 1.31297 0.58620
# Poissons Ratio (z) = -0.03793 -0.03793
#
# Static dielectric constant tensor:
#      x y z
#    x 1.748380 0.000000 0.000000 
#    y 0.000000 1.748380 0.000000 
#    z 0.000000 0.000000 1.730740 
# 
# From -- ./inp_files/948.got.cif
#   From: 2010.05.17/outbox.cif.g08.bks.cpg/sg169_cif.got.tgz:948.got - 2010.05.20 11:12:54.
