data_PCOD9579668
_publ_section_title
;
Structure prediction by ZEFSAII (Michael W. Deem and Ramdas Pophale) SiO2 
 PCOD9579668
Probable space group: R -3 C 
;
_chemical_formula_sum "Si O2"
_cell_formula_units_Z 138
_cell_length_a 17.789123
_cell_length_b 17.789123
_cell_length_c 18.937326
_cell_angle_alpha 90.000000
_cell_angle_beta 90.000000
_cell_angle_gamma 120.000000
_cell_volume 5189.892511
_symmetry_space_group_name_H-M "R -3 C "
_symmetry_group_IT_number 167
_symmetry_cell_setting 'hexagonal'
loop_
_space_group_symop_operation_xyz
x,y,z
-y,x-y,z
-x+y,-x,z
x-y,-y,1/2-z
-x,-x+y,1/2-z
y,x,1/2-z
-x,-y,-z
y,-x+y,-z
x-y,x,-z
-x+y,y,1/2+z
x,x-y,1/2+z
-y,-x,1/2+z
2/3+x,1/3+y,1/3+z
2/3-y,1/3+x-y,1/3+z
2/3-x+y,1/3-x,1/3+z
2/3+x-y,1/3-y,5/6-z
2/3-x,1/3-x+y,5/6-z
2/3+y,1/3+x,5/6-z
2/3-x,1/3-y,1/3-z
2/3+y,1/3-x+y,1/3-z
2/3+x-y,1/3+x,1/3-z
2/3-x+y,1/3+y,5/6+z
2/3+x,1/3+x-y,5/6+z
2/3-y,1/3-x,5/6+z
1/3+x,2/3+y,2/3+z
1/3-y,2/3+x-y,2/3+z
1/3-x+y,2/3-x,2/3+z
1/3+x-y,2/3-y,1/6-z
1/3-x,2/3-x+y,1/6-z
1/3+y,2/3+x,1/6-z
1/3-x,2/3-y,2/3-z
1/3+y,2/3-x+y,2/3-z
1/3+x-y,2/3+x,2/3-z
1/3-x+y,2/3+y,1/6+z
1/3+x,2/3+x-y,1/6+z
1/3-y,2/3-x,1/6+z
loop_
_atom_site_type_symbol
_atom_site_label
_atom_site_fract_x
_atom_site_fract_y
_atom_site_fract_z
Si Si1 0.082894 0.442457 0.034290
Si Si2 0.031683 0.333334 0.583334
Si Si3 0.755477 0.228430 0.438387
Si Si4 0.333334 0.666667 0.505820
Si Si5 0.230941 0.421132 0.913675
O O1 0.117539 0.524201 0.980646
O O2 0.020327 0.358008 0.985188
O O3 0.153894 0.455181 0.094770
O O4 0.008720 0.454640 0.073670
O O5 0.128797 0.417383 0.582963
O O6 0.695057 0.267722 0.459384
O O7 0.805976 0.234352 0.511918
O O8 0.333334 0.666668 0.416667
O O9 0.333334 0.482887 0.916667
#
# Coordination Sequence:
#
# PCOD9579668 Si02
#       5
#    36  18  36  12  36
#     4  11  24  41  65  96 134 178 228 284 343 413
#     4  12  26  40  64  98 142 182 222 276 344 446
#     4  12  25  42  66 102 135 182 231 281 363 409
#     4  12  27  42  72 108 136 179 235 315 354 400
#     4  11  21  39  69  92 131 171 221 296 343 394
#
# _framework density 26.590147000000002
#
# number of rings (size 3 to 8) (size 9 to 14) (size 15 to 20)
#    0.000    0.522    5.217    3.913    5.478    0.000 
#    0.000    0.000    0.000    0.000    0.000    3.652 
#    0.000    0.000    0.000    0.000    0.000    0.000 
#
# Total GULP energy -256933.020116 kJ/mol
# GULP energy per Si atom -5585.500437 kJ/mol
# Density = 2.652963 g / cm^3
# Si number density = 26.590147 Si / 1000 Ang^3
#
#
#
# Elastic Constant Matrix: (Units=GPa)
#
#
# Indices 1 2 3 4 5 6 
#
# 1 213.2754 -1.0330 16.0732 -19.6601 0.0007 0.0005
# 2 -1.0330 213.2761 16.0730 19.6609 -0.0013 0.0011
# 3 16.0732 16.0730 16.0216 0.0001 0.0000 0.0000
# 4 -19.6601 19.6609 0.0001 30.1516 0.0001 -0.0010
# 5 0.0007 -0.0013 0.0000 0.0001 30.1515 -19.6603
# 6 0.0005 0.0011 0.0000 -0.0010 -19.6603 107.1537
#
#
#
# Elastic Compliance Matrix: (Units=1/GPa)
#
#
# Indices 1 2 3 4 5 6 
#
# 1 0.005428 0.000128 -0.005574 0.003456 0.000000 0.000000
# 2 0.000128 0.005428 -0.005574 -0.003456 0.000000 0.000000
# 3 -0.005574 -0.005574 0.073599 0.000000 0.000000 0.000000
# 4 0.003456 -0.003456 0.000000 0.037673 0.000000 0.000000
# 5 0.000000 0.000000 0.000000 0.000000 0.037673 0.006912
# 6 0.000000 0.000000 0.000000 0.000000 0.006912 0.010601
#
#
# Mechanical properties :
#
#
# Convention : Reuss Voigt Hill
#
# Bulk Modulus (GPa) = 16.02153 56.08883 36.05518
# Shear Modulus (GPa) = 23.44711 60.92201 42.18456
#
# Velocity S-wave (km/s) = 2.97273 4.79179 3.98738
# Velocity P-wave (km/s) = 4.22152 7.19407 5.89813
#
# Compressibility (1/GPa) = 0.06241601
#
# Stress axis : x y z
#
# Youngs Moduli (GPa) = 184.22898 184.22921 13.58713
#
# Poissons Ratio (x) = -0.02353 0.07573
# Poissons Ratio (y) = -0.02353 0.07573
# Poissons Ratio (z) = 1.02684 1.02682
#
# Static dielectric constant tensor:
#      x y z
#    x 98.951640 0.055760 -0.000220 
#    y 0.055760 98.774780 0.000000 
#    z -0.000220 0.000000 2.360170 
# 
# From -- ./inp_files/6094.got.cif
#   From: 2010.05.17/outbox.cif.g08.bks.cpg/sg167_4_cif.got.tgz:6094.got - 2010.05.20 11:09:15.
