data_PCOD9579179
_publ_section_title
;
Structure prediction by ZEFSAII (Michael W. Deem and Ramdas Pophale) SiO2 
 PCOD9579179
Probable space group: R -3 M
;
_chemical_formula_sum "Si O2"
_cell_formula_units_Z 144
_cell_length_a 22.171608
_cell_length_b 22.171608
_cell_length_c 18.651998
_cell_angle_alpha 90.000000
_cell_angle_beta 90.000000
_cell_angle_gamma 120.000000
_cell_volume 7940.546165
_symmetry_space_group_name_H-M "R -3 M"
_symmetry_group_IT_number 166
_symmetry_cell_setting 'hexagonal'
loop_
_space_group_symop_operation_xyz
x,y,z
-y,x-y,z
-x+y,-x,z
x-y,-y,-z
-x,-x+y,-z
y,x,-z
-x,-y,-z
y,-x+y,-z
x-y,x,-z
-x+y,y,z
x,x-y,z
-y,-x,z
2/3+x,1/3+y,1/3+z
2/3-y,1/3+x-y,1/3+z
2/3-x+y,1/3-x,1/3+z
2/3+x-y,1/3-y,1/3-z
2/3-x,1/3-x+y,1/3-z
2/3+y,1/3+x,1/3-z
2/3-x,1/3-y,1/3-z
2/3+y,1/3-x+y,1/3-z
2/3+x-y,1/3+x,1/3-z
2/3-x+y,1/3+y,1/3+z
2/3+x,1/3+x-y,1/3+z
2/3-y,1/3-x,1/3+z
1/3+x,2/3+y,2/3+z
1/3-y,2/3+x-y,2/3+z
1/3-x+y,2/3-x,2/3+z
1/3+x-y,2/3-y,2/3-z
1/3-x,2/3-x+y,2/3-z
1/3+y,2/3+x,2/3-z
1/3-x,2/3-y,2/3-z
1/3+y,2/3-x+y,2/3-z
1/3+x-y,2/3+x,2/3-z
1/3-x+y,2/3+y,2/3+z
1/3+x,2/3+x-y,2/3+z
1/3-y,2/3-x,2/3+z
loop_
_atom_site_type_symbol
_atom_site_label
_atom_site_fract_x
_atom_site_fract_y
_atom_site_fract_z
Si Si1 0.043099 0.228018 0.568494
Si Si2 0.904816 0.594057 0.632041
Si Si3 0.207602 0.275516 0.134875
Si Si4 0.080623 0.782054 0.912682
O O1 0.112489 0.224978 0.579548
O O2 0.995451 0.200041 0.639240
O O3 0.069569 0.309813 0.548520
O O4 0.000000 0.185655 0.500000
O O5 0.875970 0.591904 0.552764
O O6 0.922487 0.666667 0.666667
O O7 0.975683 0.590468 0.623941
O O8 0.132271 0.264542 0.116872
O O9 0.232228 0.228267 0.093084
O O10 0.142859 0.857142 0.936110
O O11 0.100540 0.767206 0.833334
#
# Coordination Sequence:
#
# PCOD9579179 Si02
#       4
#    36  36  36  36
#     4  11  21  34  51  76 105 136 170 207 252 302
#     4  11  18  31  49  73 104 133 161 196 248 306
#     4  10  20  32  50  75 103 131 165 207 252 299
#     4   9  17  31  50  71  97 129 162 200 248 300
#
# _framework density 18.134772000000002
#
# number of rings (size 3 to 8) (size 9 to 14) (size 15 to 20)
#    0.000    1.750    5.000    1.500    0.000    2.500 
#    0.000    0.000    0.000    0.750    0.000    1.750 
#    0.000    1.000    0.000    0.000    0.000    0.000 
#
# Total GULP energy -267725.829624 kJ/mol
# GULP energy per Si atom -5577.621450 kJ/mol
# Density = 1.809350 g / cm^3
# Si number density = 18.134772 Si / 1000 Ang^3
#
#
#
# Elastic Constant Matrix: (Units=GPa)
#
#
# Indices 1 2 3 4 5 6 
#
# 1 40.9020 21.4706 -11.6739 -5.8166 -0.0008 0.0000
# 2 21.4706 40.9020 -11.6739 5.8166 0.0008 0.0000
# 3 -11.6739 -11.6739 85.3847 0.0000 0.0000 0.0000
# 4 -5.8166 5.8166 0.0000 7.0399 0.0000 0.0008
# 5 -0.0008 0.0008 0.0000 0.0000 7.0399 -5.8166
# 6 0.0000 0.0000 0.0000 0.0008 -5.8166 9.7157
#
#
#
# Elastic Compliance Matrix: (Units=1/GPa)
#
#
# Indices 1 2 3 4 5 6 
#
# 1 0.059367 -0.042469 0.002310 0.084140 0.000011 0.000000
# 2 -0.042469 0.059367 0.002310 -0.084140 -0.000011 0.000000
# 3 0.002310 0.002310 0.012343 0.000000 0.000000 0.000000
# 4 0.084140 -0.084140 0.000000 0.281087 0.000000 -0.000023
# 5 0.000011 -0.000011 0.000000 0.000000 0.281087 0.168281
# 6 0.000000 0.000000 0.000000 -0.000023 0.168281 0.203672
#
#
# Mechanical properties :
#
#
# Convention : Reuss Voigt Hill
#
# Bulk Modulus (GPa) = 18.05727 18.15935 18.10831
# Shear Modulus (GPa) = 5.04500 16.03016 10.53758
#
# Velocity S-wave (km/s) = 1.66973 2.97635 2.41316
# Velocity P-wave (km/s) = 3.70084 4.67406 4.21563
#
# Compressibility (1/GPa) = 0.05537937
#
# Stress axis : x y z
#
# Youngs Moduli (GPa) = 16.84446 16.84446 81.01479
#
# Poissons Ratio (x) = 0.71537 -0.18716
# Poissons Ratio (y) = 0.71537 -0.18716
# Poissons Ratio (z) = -0.03891 -0.03891
#
# Static dielectric constant tensor:
#      x y z
#    x 1.611780 0.000000 0.000000 
#    y 0.000000 1.611780 0.000000 
#    z 0.000000 0.000000 1.666170 
# 
# From -- ./inp_files/5229.got.cif
#   From: 2010.05.17/outbox.cif.g08.bks.cpg/sg166_3_cif.got.tgz:5229.got - 2010.05.20 11:04:41.
