data_PCOD9579358
_publ_section_title
;
Structure prediction by ZEFSAII (Michael W. Deem and Ramdas Pophale) SiO2 
 PCOD9579358
Probable space group: R -3 M
;
_chemical_formula_sum "Si O2"
_cell_formula_units_Z 144
_cell_length_a 31.996738
_cell_length_b 31.996738
_cell_length_c 6.859453
_cell_angle_alpha 90.000000
_cell_angle_beta 90.000000
_cell_angle_gamma 120.000000
_cell_volume 6081.791493
_symmetry_space_group_name_H-M "R -3 M"
_symmetry_group_IT_number 166
_symmetry_cell_setting 'hexagonal'
loop_
_space_group_symop_operation_xyz
x,y,z
-y,x-y,z
-x+y,-x,z
x-y,-y,-z
-x,-x+y,-z
y,x,-z
-x,-y,-z
y,-x+y,-z
x-y,x,-z
-x+y,y,z
x,x-y,z
-y,-x,z
2/3+x,1/3+y,1/3+z
2/3-y,1/3+x-y,1/3+z
2/3-x+y,1/3-x,1/3+z
2/3+x-y,1/3-y,1/3-z
2/3-x,1/3-x+y,1/3-z
2/3+y,1/3+x,1/3-z
2/3-x,1/3-y,1/3-z
2/3+y,1/3-x+y,1/3-z
2/3+x-y,1/3+x,1/3-z
2/3-x+y,1/3+y,1/3+z
2/3+x,1/3+x-y,1/3+z
2/3-y,1/3-x,1/3+z
1/3+x,2/3+y,2/3+z
1/3-y,2/3+x-y,2/3+z
1/3-x+y,2/3-x,2/3+z
1/3+x-y,2/3-y,2/3-z
1/3-x,2/3-x+y,2/3-z
1/3+y,2/3+x,2/3-z
1/3-x,2/3-y,2/3-z
1/3+y,2/3-x+y,2/3-z
1/3+x-y,2/3+x,2/3-z
1/3-x+y,2/3+y,2/3+z
1/3+x,2/3+x-y,2/3+z
1/3-y,2/3-x,2/3+z
loop_
_atom_site_type_symbol
_atom_site_label
_atom_site_fract_x
_atom_site_fract_y
_atom_site_fract_z
Si Si1 0.149681 0.396952 0.509405
Si Si2 0.293394 0.098085 0.379207
Si Si3 0.472996 0.321725 0.066645
Si Si4 0.573107 0.333033 0.068628
O O1 0.202884 0.405768 0.555456
O O2 0.110617 0.348975 0.624132
O O3 0.142065 0.384870 0.277465
O O4 0.145780 0.444496 0.515947
O O5 0.294229 0.147115 0.327120
O O6 0.248548 0.055456 0.266429
O O7 0.517673 0.314467 0.123968
O O8 0.480899 0.333334 0.833334
O O9 0.588114 0.294057 0.130305
O O10 0.612475 0.387526 0.127709
O O11 0.573877 0.333334 0.833334
#
# Coordination Sequence:
#
# PCOD9579358 Si02
#       4
#    36  36  36  36
#     4   8  13  20  28  38  53  72  93 118 149 182
#     4   8  13  20  28  38  53  72  93 118 149 182
#     4   9  14  19  28  39  50  70  99 122 141 174
#     4   9  15  20  25  34  50  72  96 119 140 161
#
# _framework density 23.677232
#
# number of rings (size 3 to 8) (size 9 to 14) (size 15 to 20)
#    0.000    3.500    0.000    3.250    0.000    7.000 
#    0.000    0.000    0.000    0.000    0.000    0.000 
#    0.000    0.000    0.000    9.000    0.000  288.000 
#
# Total GULP energy -268092.227980 kJ/mol
# GULP energy per Si atom -5585.254750 kJ/mol
# Density = 2.362334 g / cm^3
# Si number density = 23.677232 Si / 1000 Ang^3
#
#
#
# Elastic Constant Matrix: (Units=GPa)
#
#
# Indices 1 2 3 4 5 6 
#
# 1 155.1496 94.8616 16.1597 -7.2187 0.1106 0.0568
# 2 94.8616 155.0130 15.9171 7.3034 0.0485 -0.0064
# 3 16.1597 15.9171 103.5468 0.0735 0.3789 0.0709
# 4 -7.2187 7.3034 0.0735 15.9119 0.0975 0.0238
# 5 0.1106 0.0485 0.3789 0.0975 16.1589 -7.1995
# 6 0.0568 -0.0064 0.0709 0.0238 -7.1995 30.1398
#
#
#
# Elastic Compliance Matrix: (Units=1/GPa)
#
#
# Indices 1 2 3 4 5 6 
#
# 1 0.011366 -0.007289 -0.000659 0.008506 -0.000117 -0.000056
# 2 -0.007289 0.011375 -0.000605 -0.008526 0.000103 0.000049
# 3 -0.000659 -0.000605 0.009854 -0.000065 -0.000262 -0.000085
# 4 0.008506 -0.008526 -0.000065 0.070622 -0.000548 -0.000204
# 5 -0.000117 0.000103 -0.000262 -0.000548 0.069268 0.016547
# 6 -0.000056 0.000049 -0.000085 -0.000204 0.016547 0.037132
#
#
# Mechanical properties :
#
#
# Convention : Reuss Voigt Hill
#
# Bulk Modulus (GPa) = 64.55929 74.17625 69.36777
# Shear Modulus (GPa) = 21.56213 31.56019 26.56116
#
# Velocity S-wave (km/s) = 3.02100 3.65490 3.35296
# Velocity P-wave (km/s) = 6.28444 7.01478 6.65963
#
# Compressibility (1/GPa) = 0.01548964
#
# Stress axis : x y z
#
# Youngs Moduli (GPa) = 87.97837 87.90926 101.47703
#
# Poissons Ratio (x) = 0.64076 0.06687
# Poissons Ratio (y) = 0.64126 0.06144
# Poissons Ratio (z) = 0.05798 0.05323
#
# Static dielectric constant tensor:
#      x y z
#    x 1.842650 -0.000010 -0.000340 
#    y -0.000010 1.842760 0.000000 
#    z -0.000340 0.000000 2.057570 
# 
# From -- ./inp_files/1815.got.cif
#   From: 2010.05.17/outbox.cif.g08.bks.cpg/sg166_1_cif.got.tgz:1815.got - 2010.05.20 11:04:41.
