data_PCOD9579954
_publ_section_title
;
Structure prediction by ZEFSAII (Michael W. Deem and Ramdas Pophale) SiO2 
 PCOD9579954
Probable space group: P 61
;
_chemical_formula_sum "Si O2"
_cell_formula_units_Z 48
_cell_length_a 14.817396
_cell_length_b 14.817396
_cell_length_c 13.629002
_cell_angle_alpha 90.000000
_cell_angle_beta 90.000000
_cell_angle_gamma 120.000000
_cell_volume 2591.423915
_symmetry_space_group_name_H-M "P 61"
_symmetry_group_IT_number 169
_symmetry_cell_setting 'hexagonal'
loop_
_space_group_symop_operation_xyz
x,y,z
x-y,x,1/6+z
-y,x-y,1/3+z
-x,-y,1/2+z
-x+y,-x,2/3+z
y,-x+y,5/6+z
loop_
_atom_site_type_symbol
_atom_site_label
_atom_site_fract_x
_atom_site_fract_y
_atom_site_fract_z
Si Si1 0.818190 0.585441 0.592300
Si Si2 0.402552 0.151345 0.139585
Si Si3 0.931176 0.841118 0.059149
Si Si4 0.846064 0.942534 0.192811
Si Si5 0.358888 0.068305 0.746329
Si Si6 0.286066 0.644970 0.016798
Si Si7 0.637307 0.733409 0.820094
Si Si8 0.395649 0.591945 0.844208
O O1 0.798523 0.613115 0.699903
O O2 0.761587 0.622568 0.511652
O O3 0.763775 0.460868 0.579755
O O4 0.943195 0.636112 0.586370
O O5 0.525178 0.196777 0.156709
O O6 0.367624 0.204769 0.223840
O O7 0.340794 0.026925 0.138664
O O8 0.852109 0.856309 0.127257
O O9 0.041032 0.915075 0.115863
O O10 0.901477 0.722212 0.057891
O O11 0.876060 0.926170 0.303258
O O12 0.731117 0.923341 0.189614
O O13 0.469985 0.116915 0.692772
O O14 0.375099 0.744635 0.073977
O O15 0.336538 0.623592 0.923173
O O16 0.519833 0.662571 0.857700
#
# Coordination Sequence:
#
# PCOD9579954 Si02
#       8
#     6   6   6   6   6   6   6   6
#     4  11  22  40  63  91 128 161 208 255 314 371
#     4  11  22  40  63  91 128 161 208 255 314 371
#     4  10  21  41  62  90 129 170 216 260 311 370
#     4  10  21  41  62  90 129 170 216 260 311 370
#     4  11  22  40  63  94 127 165 207 258 310 382
#     4  10  21  42  66  88 122 162 205 262 314 372
#     4  11  22  40  63  94 127 165 207 258 310 382
#     4  10  23  40  66  94 120 162 209 256 318 368
#
# _framework density 18.522635000000001
#
# number of rings (size 3 to 8) (size 9 to 14) (size 15 to 20)
#    0.000    1.500    3.750    1.500    0.000    2.000 
#    9.000    0.000    0.000    0.000    0.000    0.000 
#    0.000    0.000    0.000    0.000    0.000    0.000 
#
# Total GULP energy -267485.225843 kJ/mol
# GULP energy per Si atom -5572.608872 kJ/mol
# Density = 1.848048 g / cm^3
# Si number density = 18.522635 Si / 1000 Ang^3
#
#
#
# Elastic Constant Matrix: (Units=GPa)
#
#
# Indices 1 2 3 4 5 6 
#
# 1 243.1077 -110.3035 9.3290 0.0000 0.0000 0.0000
# 2 -110.3035 243.1077 9.3290 0.0000 0.0000 0.0000
# 3 9.3290 9.3290 17.7487 0.0000 0.0000 0.0000
# 4 0.0000 0.0000 0.0000 17.2563 0.0000 0.0000
# 5 0.0000 0.0000 0.0000 0.0000 17.2563 0.0000
# 6 0.0000 0.0000 0.0000 0.0000 0.0000 176.7056
#
#
#
# Elastic Compliance Matrix: (Units=1/GPa)
#
#
# Indices 1 2 3 4 5 6 
#
# 1 0.005480 0.002650 -0.004273 0.000000 0.000000 0.000000
# 2 0.002650 0.005480 -0.004273 0.000000 0.000000 0.000000
# 3 -0.004273 -0.004273 0.060834 0.000000 0.000000 0.000000
# 4 0.000000 0.000000 0.000000 0.057950 0.000000 0.000000
# 5 0.000000 0.000000 0.000000 0.000000 0.057950 0.000000
# 6 0.000000 0.000000 0.000000 0.000000 0.000000 0.005659
#
#
# Mechanical properties :
#
#
# Convention : Reuss Voigt Hill
#
# Bulk Modulus (GPa) = 16.66628 35.63033 26.14831
# Shear Modulus (GPa) = 22.20779 81.95094 52.07936
#
# Velocity S-wave (km/s) = 3.46635 6.65881 5.30826
# Velocity P-wave (km/s) = 5.00381 8.85424 7.19151
#
# Compressibility (1/GPa) = 0.06000138
#
# Stress axis : x y z
#
# Youngs Moduli (GPa) = 182.48463 182.48463 16.43807
#
# Poissons Ratio (x) = -0.48365 0.07025
# Poissons Ratio (y) = -0.48365 0.07025
# Poissons Ratio (z) = 0.77983 0.77983
#
# Static dielectric constant tensor:
#      x y z
#    x 1.643130 0.000000 0.000000 
#    y 0.000000 1.643130 0.000000 
#    z 0.000000 0.000000 1.666160 
# 
# From -- ./inp_files/1019.got.cif
#   From: 2010.05.17/outbox.cif.g08.bks.cpg/sg169_cif.got.tgz:1019.got - 2010.05.20 11:12:54.
