data_PCOD9579155
_publ_section_title
;
Structure prediction by ZEFSAII (Michael W. Deem and Ramdas Pophale) SiO2 
 PCOD9579155
Probable space group: R -3 M
;
_chemical_formula_sum "Si O2"
_cell_formula_units_Z 216
_cell_length_a 23.276046
_cell_length_b 23.276046
_cell_length_c 25.434537
_cell_angle_alpha 90.000000
_cell_angle_beta 90.000000
_cell_angle_gamma 120.000000
_cell_volume 11933.638604
_symmetry_space_group_name_H-M "R -3 M"
_symmetry_group_IT_number 166
_symmetry_cell_setting 'hexagonal'
loop_
_space_group_symop_operation_xyz
x,y,z
-y,x-y,z
-x+y,-x,z
x-y,-y,-z
-x,-x+y,-z
y,x,-z
-x,-y,-z
y,-x+y,-z
x-y,x,-z
-x+y,y,z
x,x-y,z
-y,-x,z
2/3+x,1/3+y,1/3+z
2/3-y,1/3+x-y,1/3+z
2/3-x+y,1/3-x,1/3+z
2/3+x-y,1/3-y,1/3-z
2/3-x,1/3-x+y,1/3-z
2/3+y,1/3+x,1/3-z
2/3-x,1/3-y,1/3-z
2/3+y,1/3-x+y,1/3-z
2/3+x-y,1/3+x,1/3-z
2/3-x+y,1/3+y,1/3+z
2/3+x,1/3+x-y,1/3+z
2/3-y,1/3-x,1/3+z
1/3+x,2/3+y,2/3+z
1/3-y,2/3+x-y,2/3+z
1/3-x+y,2/3-x,2/3+z
1/3+x-y,2/3-y,2/3-z
1/3-x,2/3-x+y,2/3-z
1/3+y,2/3+x,2/3-z
1/3-x,2/3-y,2/3-z
1/3+y,2/3-x+y,2/3-z
1/3+x-y,2/3+x,2/3-z
1/3-x+y,2/3+y,2/3+z
1/3+x,2/3+x-y,2/3+z
1/3-y,2/3-x,2/3+z
loop_
_atom_site_type_symbol
_atom_site_label
_atom_site_fract_x
_atom_site_fract_y
_atom_site_fract_z
Si Si1 0.969510 0.160102 0.864425
Si Si2 0.566490 0.558108 0.823099
Si Si3 0.130111 0.129168 0.245700
Si Si4 0.639866 0.069541 0.632754
Si Si5 0.020800 0.735781 0.412295
Si Si6 0.273612 0.858722 0.708374
O O1 0.907986 0.092015 0.888467
O O2 0.934062 0.196818 0.836514
O O3 0.000650 0.139541 0.817208
O O4 0.023281 0.211583 0.905158
O O5 0.512406 0.487595 0.800663
O O6 0.594944 0.547781 0.877784
O O7 0.623572 0.598572 0.781378
O O8 0.108092 0.054046 0.259519
O O9 0.201201 0.177013 0.271785
O O10 0.073441 0.146881 0.260590
O O11 0.660859 0.087391 0.693856
O O12 0.694499 0.054509 0.607883
O O13 0.572596 0.998653 0.624742
O O14 0.214861 0.785140 0.694813
O O15 0.333334 0.891456 0.666667
#
# Coordination Sequence:
#
# PCOD9579155 Si02
#       6
#    36  36  36  36  36  36
#     4  10  20  36  56  81 112 150 194 238 285 332
#     4  10  19  34  57  82 113 153 191 226 277 337
#     4  11  24  41  60  82 111 151 196 240 284 337
#     4  11  21  38  56  86 116 148 184 230 293 345
#     4  10  20  35  56  82 120 146 183 234 282 339
#     4  12  23  37  57  83 114 150 192 239 289 341
#
# _framework density 18.100095
#
# number of rings (size 3 to 8) (size 9 to 14) (size 15 to 20)
#    0.000    1.333    5.000    1.667    0.000    4.000 
#    0.000    3.333    0.000    4.000    0.000    0.000 
#    0.000    0.000    0.000    8.500    0.000    0.000 
#
# Total GULP energy -401182.005781 kJ/mol
# GULP energy per Si atom -5571.972303 kJ/mol
# Density = 1.805890 g / cm^3
# Si number density = 18.100095 Si / 1000 Ang^3
#
#
#
# Elastic Constant Matrix: (Units=GPa)
#
#
# Indices 1 2 3 4 5 6 
#
# 1 84.2452 43.8724 24.4280 2.6119 -0.0001 0.0000
# 2 43.8724 84.2452 24.4280 -2.6119 0.0001 0.0000
# 3 24.4280 24.4280 75.9297 0.0000 0.0000 0.0000
# 4 2.6119 -2.6119 0.0000 10.6467 0.0000 0.0001
# 5 -0.0001 0.0001 0.0000 0.0000 10.6467 2.6119
# 6 0.0000 0.0000 0.0000 0.0001 2.6119 20.1864
#
#
#
# Elastic Compliance Matrix: (Units=1/GPa)
#
#
# Indices 1 2 3 4 5 6 
#
# 1 0.017239 -0.008342 -0.002862 -0.006276 0.000000 0.000000
# 2 -0.008342 0.017239 -0.002862 0.006276 0.000000 0.000000
# 3 -0.002862 -0.002862 0.015012 0.000000 0.000000 0.000000
# 4 -0.006276 0.006276 0.000000 0.097005 0.000000 0.000000
# 5 0.000000 0.000000 0.000000 0.000000 0.097005 -0.012551
# 6 0.000000 0.000000 0.000000 0.000000 -0.012551 0.051162
#
#
# Mechanical properties :
#
#
# Convention : Reuss Voigt Hill
#
# Bulk Modulus (GPa) = 46.82456 47.76411 47.29433
# Shear Modulus (GPa) = 15.15549 18.40876 16.78213
#
# Velocity S-wave (km/s) = 2.89678 3.19259 3.04827
# Velocity P-wave (km/s) = 6.09216 6.32743 6.21091
#
# Compressibility (1/GPa) = 0.02135632
#
# Stress axis : x y z
#
# Youngs Moduli (GPa) = 58.00807 58.00807 66.61441
#
# Poissons Ratio (x) = 0.48391 0.19067
# Poissons Ratio (y) = 0.48391 0.19067
# Poissons Ratio (z) = 0.16603 0.16603
#
# Static dielectric constant tensor:
#      x y z
#    x 1.621230 0.000000 0.000000 
#    y 0.000000 1.621230 0.000000 
#    z 0.000000 0.000000 1.643370 
# 
# From -- ./inp_files/8413.got.cif
#   From: 2010.05.17/outbox.cif.g08.bks.cpg/sg166_5_cif.got.tgz:8413.got - 2010.05.20 11:04:41.
