data_PCOD9579947
_publ_section_title
;
Structure prediction by ZEFSAII (Michael W. Deem and Ramdas Pophale) SiO2 
 PCOD9579947
Probable space group: P 61
;
_chemical_formula_sum "Si O2"
_cell_formula_units_Z 42
_cell_length_a 7.836916
_cell_length_b 7.836916
_cell_length_c 33.649363
_cell_angle_alpha 90.000000
_cell_angle_beta 90.000000
_cell_angle_gamma 120.000000
_cell_volume 1789.772631
_symmetry_space_group_name_H-M "P 61"
_symmetry_group_IT_number 169
_symmetry_cell_setting 'hexagonal'
loop_
_space_group_symop_operation_xyz
x,y,z
x-y,x,1/6+z
-y,x-y,1/3+z
-x,-y,1/2+z
-x+y,-x,2/3+z
y,-x+y,5/6+z
loop_
_atom_site_type_symbol
_atom_site_label
_atom_site_fract_x
_atom_site_fract_y
_atom_site_fract_z
Si Si1 0.392573 0.889405 0.497690
Si Si2 0.507173 0.294375 0.746185
Si Si3 0.483435 0.004512 0.293655
Si Si4 0.765781 0.379497 0.921275
Si Si5 0.893470 0.665540 0.196250
Si Si6 0.040075 0.998440 0.742793
Si Si7 0.858656 0.778579 0.659329
O O1 0.332902 0.742452 0.535325
O O2 0.302425 0.765552 0.458723
O O3 0.629819 0.005375 0.495941
O O4 0.305484 0.030663 0.507774
O O5 0.493371 0.489796 0.755316
O O6 0.280443 0.112111 0.743356
O O7 0.606062 0.216721 0.777096
O O8 0.500252 0.153243 0.259148
O O9 0.694427 0.062631 0.312690
O O10 0.362406 0.028841 0.328770
O O11 0.691544 0.237748 0.883209
O O12 0.994899 0.821057 0.231587
O O13 0.986021 0.907104 0.787172
O O14 0.948862 0.865868 0.702900
#
# Coordination Sequence:
#
# PCOD9579947 Si02
#       7
#     6   6   6   6   6   6   6
#     4   9  20  38  60  88 122 166 206 269 318 390
#     4   9  21  37  64  87 124 170 208 271 333 386
#     4  10  22  38  63  93 119 173 210 267 334 391
#     4   9  20  41  59  89 130 160 221 266 319 412
#     4  10  23  39  61  90 128 163 207 271 336 384
#     4   9  21  38  60  91 120 167 209 261 322 401
#     4  10  21  39  65  90 119 169 219 257 324 406
#
# _framework density 23.466667999999999
#
# number of rings (size 3 to 8) (size 9 to 14) (size 15 to 20)
#    0.000    2.857    0.000    0.000   18.000    1.143 
#   10.286    0.000    0.000    0.000    0.000    0.000 
#    0.000    0.000    0.000    0.000    0.000    0.000 
#
# Total GULP energy -234050.944829 kJ/mol
# GULP energy per Si atom -5572.641544 kJ/mol
# Density = 2.341326 g / cm^3
# Si number density = 23.466668 Si / 1000 Ang^3
#
#
#
# Elastic Constant Matrix: (Units=GPa)
#
#
# Indices 1 2 3 4 5 6 
#
# 1 43.9903 18.4478 14.6780 0.0000 0.0000 0.0000
# 2 18.4478 43.9903 14.6780 0.0000 0.0000 0.0000
# 3 14.6780 14.6780 88.4943 0.0000 0.0000 0.0000
# 4 0.0000 0.0000 0.0000 34.9278 0.0000 0.0000
# 5 0.0000 0.0000 0.0000 0.0000 34.9278 0.0000
# 6 0.0000 0.0000 0.0000 0.0000 0.0000 12.7712
#
#
#
# Elastic Compliance Matrix: (Units=1/GPa)
#
#
# Indices 1 2 3 4 5 6 
#
# 1 0.028261 -0.010890 -0.002881 0.000000 0.000000 0.000000
# 2 -0.010890 0.028261 -0.002881 0.000000 0.000000 0.000000
# 3 -0.002881 -0.002881 0.012256 0.000000 0.000000 0.000000
# 4 0.000000 0.000000 0.000000 0.028630 0.000000 0.000000
# 5 0.000000 0.000000 0.000000 0.000000 0.028630 0.000000
# 6 0.000000 0.000000 0.000000 0.000000 0.000000 0.078301
#
#
# Mechanical properties :
#
#
# Convention : Reuss Voigt Hill
#
# Bulk Modulus (GPa) = 28.19101 30.23141 29.21121
# Shear Modulus (GPa) = 20.04267 25.10343 22.57305
#
# Velocity S-wave (km/s) = 2.92565 3.27425 3.10485
# Velocity P-wave (km/s) = 4.84272 5.21584 5.03273
#
# Compressibility (1/GPa) = 0.03547230
#
# Stress axis : x y z
#
# Youngs Moduli (GPa) = 35.38506 35.38506 81.59320
#
# Poissons Ratio (x) = 0.38534 0.23508
# Poissons Ratio (y) = 0.38534 0.23508
# Poissons Ratio (z) = 0.10195 0.10195
#
# Static dielectric constant tensor:
#      x y z
#    x 1.961850 0.000000 0.000000 
#    y 0.000000 1.961850 0.000000 
#    z 0.000000 0.000000 1.919190 
# 
# From -- ./inp_files/1896.got.cif
#   From: 2010.05.17/outbox.cif.g08.bks.cpg/sg169_cif.got.tgz:1896.got - 2010.05.20 11:12:54.
