data_PCOD9579634
_publ_section_title
;
Structure prediction by ZEFSAII (Michael W. Deem and Ramdas Pophale) SiO2 
 PCOD9579634
Probable space group: R -3 C 
;
_chemical_formula_sum "Si O2"
_cell_formula_units_Z 144
_cell_length_a 16.890553
_cell_length_b 16.890553
_cell_length_c 22.892527
_cell_angle_alpha 90.000000
_cell_angle_beta 90.000000
_cell_angle_gamma 120.000000
_cell_volume 5656.035207
_symmetry_space_group_name_H-M "R -3 C "
_symmetry_group_IT_number 167
_symmetry_cell_setting 'hexagonal'
loop_
_space_group_symop_operation_xyz
x,y,z
-y,x-y,z
-x+y,-x,z
x-y,-y,1/2-z
-x,-x+y,1/2-z
y,x,1/2-z
-x,-y,-z
y,-x+y,-z
x-y,x,-z
-x+y,y,1/2+z
x,x-y,1/2+z
-y,-x,1/2+z
2/3+x,1/3+y,1/3+z
2/3-y,1/3+x-y,1/3+z
2/3-x+y,1/3-x,1/3+z
2/3+x-y,1/3-y,5/6-z
2/3-x,1/3-x+y,5/6-z
2/3+y,1/3+x,5/6-z
2/3-x,1/3-y,1/3-z
2/3+y,1/3-x+y,1/3-z
2/3+x-y,1/3+x,1/3-z
2/3-x+y,1/3+y,5/6+z
2/3+x,1/3+x-y,5/6+z
2/3-y,1/3-x,5/6+z
1/3+x,2/3+y,2/3+z
1/3-y,2/3+x-y,2/3+z
1/3-x+y,2/3-x,2/3+z
1/3+x-y,2/3-y,1/6-z
1/3-x,2/3-x+y,1/6-z
1/3+y,2/3+x,1/6-z
1/3-x,2/3-y,2/3-z
1/3+y,2/3-x+y,2/3-z
1/3+x-y,2/3+x,2/3-z
1/3-x+y,2/3+y,1/6+z
1/3+x,2/3+x-y,1/6+z
1/3-y,2/3-x,1/6+z
loop_
_atom_site_type_symbol
_atom_site_label
_atom_site_fract_x
_atom_site_fract_y
_atom_site_fract_z
Si Si1 0.282719 0.112693 0.860684
Si Si2 0.301889 0.464949 0.296771
Si Si3 0.059564 0.392898 0.416667
Si Si4 0.894328 0.000000 0.750000
Si Si5 0.459974 0.869674 0.142869
O O1 0.333334 0.098858 0.916667
O O2 0.203360 0.129207 0.885142
O O3 0.254459 0.043988 0.806903
O O4 0.359353 0.209343 0.831270
O O5 0.285941 0.367084 0.277664
O O6 0.304171 0.489484 0.364033
O O7 0.225921 0.473990 0.259816
O O8 0.000000 0.082556 0.750000
O O9 0.500511 0.809189 0.166080
#
# Coordination Sequence:
#
# PCOD9579634 Si02
#       5
#    36  36  18  18  36
#     4  11  21  43  68  94 141 176 227 287 351 421
#     4  11  23  47  65 100 140 177 234 287 353 424
#     4  10  24  39  69 104 126 182 228 288 354 413
#     4  10  28  45  67  96 140 190 226 284 354 423
#     4  11  23  40  70 101 134 181 232 289 349 417
#
# _framework density 25.459531999999999
#
# number of rings (size 3 to 8) (size 9 to 14) (size 15 to 20)
#    0.250    1.000    3.750    1.750    7.000    0.000 
#    0.000    2.500    0.000    0.000    0.000    0.000 
#    0.000    0.000    0.000    0.000    0.000    0.000 
#
# Total GULP energy -268407.503696 kJ/mol
# GULP energy per Si atom -5591.822994 kJ/mol
# Density = 2.540158 g / cm^3
# Si number density = 25.459532 Si / 1000 Ang^3
#
#
#
# Elastic Constant Matrix: (Units=GPa)
#
#
# Indices 1 2 3 4 5 6 
#
# 1 49.6387 16.3139 14.9813 6.6997 0.0001 0.0000
# 2 16.3139 49.6387 14.9813 -6.6997 -0.0001 0.0000
# 3 14.9813 14.9813 183.3853 0.0000 0.0000 0.0000
# 4 6.6997 -6.6997 0.0000 46.7400 0.0000 -0.0001
# 5 0.0001 -0.0001 0.0000 0.0000 46.7400 6.6997
# 6 0.0000 0.0000 0.0000 -0.0001 6.6997 16.6624
#
#
#
# Elastic Compliance Matrix: (Units=1/GPa)
#
#
# Indices 1 2 3 4 5 6 
#
# 1 0.023795 -0.008048 -0.001286 -0.004564 0.000000 0.000000
# 2 -0.008048 0.023795 -0.001286 0.004564 0.000000 0.000000
# 3 -0.001286 -0.001286 0.005663 0.000000 0.000000 0.000000
# 4 -0.004564 0.004564 0.000000 0.022703 0.000000 0.000000
# 5 0.000000 0.000000 0.000000 0.000000 0.022703 -0.009129
# 6 0.000000 0.000000 0.000000 0.000000 -0.009129 0.063686
#
#
# Mechanical properties :
#
#
# Convention : Reuss Voigt Hill
#
# Bulk Modulus (GPa) = 31.23906 41.69065 36.46485
# Shear Modulus (GPa) = 25.73901 37.78757 31.76329
#
# Velocity S-wave (km/s) = 3.18304 3.85674 3.53597
# Velocity P-wave (km/s) = 5.07993 6.02025 5.56997
#
# Compressibility (1/GPa) = 0.03201121
#
# Stress axis : x y z
#
# Youngs Moduli (GPa) = 42.02590 42.02590 176.57922
#
# Poissons Ratio (x) = 0.33823 0.22715
# Poissons Ratio (y) = 0.33823 0.22715
# Poissons Ratio (z) = 0.05406 0.05406
#
# Static dielectric constant tensor:
#      x y z
#    x 2.013430 0.000000 0.000000 
#    y 0.000000 2.013430 0.000000 
#    z 0.000000 0.000000 2.166890 
# 
# From -- ./inp_files/4380.got.cif
#   From: 2010.05.17/outbox.cif.g08.bks.cpg/sg167_3_cif.got.tgz:4380.got - 2010.05.20 11:09:15.
