data_PCOD9579738
_publ_section_title
;
Structure prediction by ZEFSAII (Michael W. Deem and Ramdas Pophale) SiO2 
 PCOD9579738
Probable space group: R -3 C 
;
_chemical_formula_sum "Si O2"
_cell_formula_units_Z 48
_cell_length_a 9.521594
_cell_length_b 9.521594
_cell_length_c 19.441255
_cell_angle_alpha 90.000000
_cell_angle_beta 90.000000
_cell_angle_gamma 120.000000
_cell_volume 1526.420700
_symmetry_space_group_name_H-M "R -3 C "
_symmetry_group_IT_number 167
_symmetry_cell_setting 'hexagonal'
loop_
_space_group_symop_operation_xyz
x,y,z
-y,x-y,z
-x+y,-x,z
x-y,-y,1/2-z
-x,-x+y,1/2-z
y,x,1/2-z
-x,-y,-z
y,-x+y,-z
x-y,x,-z
-x+y,y,1/2+z
x,x-y,1/2+z
-y,-x,1/2+z
2/3+x,1/3+y,1/3+z
2/3-y,1/3+x-y,1/3+z
2/3-x+y,1/3-x,1/3+z
2/3+x-y,1/3-y,5/6-z
2/3-x,1/3-x+y,5/6-z
2/3+y,1/3+x,5/6-z
2/3-x,1/3-y,1/3-z
2/3+y,1/3-x+y,1/3-z
2/3+x-y,1/3+x,1/3-z
2/3-x+y,1/3+y,5/6+z
2/3+x,1/3+x-y,5/6+z
2/3-y,1/3-x,5/6+z
1/3+x,2/3+y,2/3+z
1/3-y,2/3+x-y,2/3+z
1/3-x+y,2/3-x,2/3+z
1/3+x-y,2/3-y,1/6-z
1/3-x,2/3-x+y,1/6-z
1/3+y,2/3+x,1/6-z
1/3-x,2/3-y,2/3-z
1/3+y,2/3-x+y,2/3-z
1/3+x-y,2/3+x,2/3-z
1/3-x+y,2/3+y,1/6+z
1/3+x,2/3+x-y,1/6+z
1/3-y,2/3-x,1/6+z
loop_
_atom_site_type_symbol
_atom_site_label
_atom_site_fract_x
_atom_site_fract_y
_atom_site_fract_z
Si Si1 0.737733 0.619163 0.009542
Si Si2 0.000000 0.000000 0.417267
O O1 0.666667 0.537109 0.083334
O O2 0.990607 0.842697 0.118024
O O3 0.755461 0.070631 0.998157
O O4 0.000000 0.000000 0.500000
#
# Coordination Sequence:
#
# PCOD9579738 Si02
#       2
#    36  12
#     4  12  31  65  99 139 191 253 324 402 486 582
#     4  12  31  65 100 141 193 251 319 402 493 584
#
# _framework density 31.446111999999999
#
# number of rings (size 3 to 8) (size 9 to 14) (size 15 to 20)
#    0.000    0.000    0.000    5.250    0.000   18.000 
#    0.000   52.500    0.000    0.000    0.000    0.000 
#    0.000    0.000    0.000    0.000    0.000    0.000 
#
# Total GULP energy -90049.611597 kJ/mol
# GULP energy per Si atom -5628.100725 kJ/mol
# Density = 3.137454 g / cm^3
# Si number density = 31.446112 Si / 1000 Ang^3
#
#
#
# Elastic Constant Matrix: (Units=GPa)
#
#
# Indices 1 2 3 4 5 6 
#
# 1 246.2717 73.8453 97.7829 -20.6377 0.0001 0.0000
# 2 73.8453 246.2717 97.7829 20.6377 -0.0001 0.0000
# 3 97.7829 97.7829 431.9725 0.0000 0.0000 0.0000
# 4 -20.6377 20.6377 0.0000 61.8289 0.0000 -0.0001
# 5 0.0001 -0.0001 0.0000 0.0000 61.8289 -20.6377
# 6 0.0000 0.0000 0.0000 -0.0001 -20.6377 86.2132
#
#
#
# Elastic Compliance Matrix: (Units=1/GPa)
#
#
# Indices 1 2 3 4 5 6 
#
# 1 0.004964 -0.001339 -0.000821 0.002104 0.000000 0.000000
# 2 -0.001339 0.004964 -0.000821 -0.002104 0.000000 0.000000
# 3 -0.000821 -0.000821 0.002686 0.000000 0.000000 0.000000
# 4 0.002104 -0.002104 0.000000 0.017578 0.000000 0.000000
# 5 0.000000 0.000000 0.000000 0.000000 0.017578 0.004208
# 6 0.000000 0.000000 0.000000 0.000000 0.004208 0.012606
#
#
# Mechanical properties :
#
#
# Convention : Reuss Voigt Hill
#
# Bulk Modulus (GPa) = 150.27643 162.59312 156.43477
# Shear Modulus (GPa) = 72.93275 85.64786 79.29031
#
# Velocity S-wave (km/s) = 4.82113 5.22451 5.02687
# Velocity P-wave (km/s) = 8.88163 9.39210 9.14043
#
# Compressibility (1/GPa) = 0.00665440
#
# Stress axis : x y z
#
# Youngs Moduli (GPa) = 201.44232 201.44232 372.23507
#
# Poissons Ratio (x) = 0.26973 0.30546
# Poissons Ratio (y) = 0.26973 0.30546
# Poissons Ratio (z) = 0.16531 0.16531
#
# Static dielectric constant tensor:
#      x y z
#    x 2.593180 0.000000 0.000000 
#    y 0.000000 2.593180 0.000000 
#    z 0.000000 0.000000 2.389490 
# 
# From -- ./inp_files/956.got.cif
#   From: 2010.05.17/outbox.cif.g08.bks.cpg/sg167_1_cif.got.tgz:956.got - 2010.05.20 11:09:15.
