data_PCOD9579772
_publ_section_title
;
Structure prediction by ZEFSAII (Michael W. Deem and Ramdas Pophale) SiO2 
 PCOD9579772
Probable space group: P 6
;
_chemical_formula_sum "Si O2"
_cell_formula_units_Z 42
_cell_length_a 20.884615
_cell_length_b 20.884615
_cell_length_c 5.146613
_cell_angle_alpha 90.000000
_cell_angle_beta 90.000000
_cell_angle_gamma 120.000000
_cell_volume 1944.039530
_symmetry_space_group_name_H-M "P 6"
_symmetry_group_IT_number 168
_symmetry_cell_setting 'hexagonal'
loop_
_space_group_symop_operation_xyz
x,y,z
x-y,x,z
-y,x-y,z
-x,-y,z
-x+y,-x,z
y,-x+y,z
loop_
_atom_site_type_symbol
_atom_site_label
_atom_site_fract_x
_atom_site_fract_y
_atom_site_fract_z
Si Si1 0.094686 0.612715 0.110190
Si Si2 0.925031 0.544343 0.210822
Si Si3 0.295384 0.430188 0.616274
Si Si4 0.265288 0.152284 0.286199
Si Si5 0.906479 0.825395 0.775511
Si Si6 0.676842 0.703147 0.572611
Si Si7 0.844057 0.611164 0.937841
O O1 0.094890 0.539894 0.209635
O O2 0.134948 0.674595 0.330620
O O3 0.007848 0.588838 0.090293
O O4 0.127913 0.644139 0.829160
O O5 0.938873 0.591745 0.473597
O O6 0.862302 0.551962 0.059717
O O7 0.293194 0.351625 0.631462
O O8 0.218106 0.418666 0.719549
O O9 0.237473 0.108859 0.554945
O O10 0.277547 0.233958 0.357087
O O11 0.208023 0.103944 0.063639
O O12 0.344591 0.173319 0.163738
O O13 0.871219 0.876945 0.737988
O O14 0.671248 0.748481 0.813147
#
# Coordination Sequence:
#
# PCOD9579772 Si02
#       7
#     6   6   6   6   6   6   6
#     4  10  22  41  63 100 127 170 218 267 315 394
#     4   9  21  39  68  92 132 169 216 264 324 380
#     4  11  25  37  64  98 137 165 219 267 329 388
#     4  11  25  41  65  93 124 171 214 272 353 406
#     4  12  27  46  65  88 119 173 237 292 348 406
#     4  10  22  42  62  99 131 175 211 270 329 405
#     4  11  23  41  66  99 138 172 213 273 334 400
#
# _framework density 21.604498
#
# number of rings (size 3 to 8) (size 9 to 14) (size 15 to 20)
#    0.000    1.429    2.857    1.000    8.000    3.429 
#    0.000    1.429    0.000    0.571    3.714    0.000 
#    0.000    0.000    0.000    0.000    0.000    0.000 
#
# Total GULP energy -234718.269261 kJ/mol
# GULP energy per Si atom -5588.530221 kJ/mol
# Density = 2.155533 g / cm^3
# Si number density = 21.604498 Si / 1000 Ang^3
#
#
#
# Elastic Constant Matrix: (Units=GPa)
#
#
# Indices 1 2 3 4 5 6 
#
# 1 88.0254 32.7899 28.3444 0.0000 0.0000 0.0000
# 2 32.7899 88.0254 28.3444 0.0000 0.0000 0.0000
# 3 28.3444 28.3444 102.2432 0.0000 0.0000 0.0000
# 4 0.0000 0.0000 0.0000 21.8495 0.0000 0.0000
# 5 0.0000 0.0000 0.0000 0.0000 21.8495 0.0000
# 6 0.0000 0.0000 0.0000 0.0000 0.0000 27.6177
#
#
#
# Elastic Compliance Matrix: (Units=1/GPa)
#
#
# Indices 1 2 3 4 5 6 
#
# 1 0.013810 -0.004295 -0.002638 0.000000 0.000000 0.000000
# 2 -0.004295 0.013810 -0.002638 0.000000 0.000000 0.000000
# 3 -0.002638 -0.002638 0.011243 0.000000 0.000000 0.000000
# 4 0.000000 0.000000 0.000000 0.045768 0.000000 0.000000
# 5 0.000000 0.000000 0.000000 0.000000 0.045768 0.000000
# 6 0.000000 0.000000 0.000000 0.000000 0.000000 0.036209
#
#
# Mechanical properties :
#
#
# Convention : Reuss Voigt Hill
#
# Bulk Modulus (GPa) = 50.70556 50.80570 50.75563
# Shear Modulus (GPa) = 25.99826 26.85102 26.42464
#
# Velocity S-wave (km/s) = 3.47273 3.52922 3.50109
# Velocity P-wave (km/s) = 6.29291 6.33834 6.31566
#
# Compressibility (1/GPa) = 0.01972170
#
# Stress axis : x y z
#
# Youngs Moduli (GPa) = 72.41369 72.41369 88.94350
#
# Poissons Ratio (x) = 0.31100 0.23461
# Poissons Ratio (y) = 0.31100 0.23461
# Poissons Ratio (z) = 0.19101 0.19101
#
# Static dielectric constant tensor:
#      x y z
#    x 1.788110 0.000000 0.000000 
#    y 0.000000 1.788110 0.000000 
#    z 0.000000 0.000000 1.826240 
# 
# From -- ./inp_files/153.got.cif
#   From: 2010.05.17/outbox.cif.g08.bks.cpg/sg168_cif.got.tgz:153.got - 2010.05.20 11:12:33.
