data_PCOD9579531
_publ_section_title
;
Structure prediction by ZEFSAII (Michael W. Deem and Ramdas Pophale) SiO2 
 PCOD9579531
Probable space group: R -3 C 
;
_chemical_formula_sum "Si O2"
_cell_formula_units_Z 144
_cell_length_a 18.835592
_cell_length_b 18.835592
_cell_length_c 20.128843
_cell_angle_alpha 90.000000
_cell_angle_beta 90.000000
_cell_angle_gamma 120.000000
_cell_volume 6184.548410
_symmetry_space_group_name_H-M "R -3 C "
_symmetry_group_IT_number 167
_symmetry_cell_setting 'hexagonal'
loop_
_space_group_symop_operation_xyz
x,y,z
-y,x-y,z
-x+y,-x,z
x-y,-y,1/2-z
-x,-x+y,1/2-z
y,x,1/2-z
-x,-y,-z
y,-x+y,-z
x-y,x,-z
-x+y,y,1/2+z
x,x-y,1/2+z
-y,-x,1/2+z
2/3+x,1/3+y,1/3+z
2/3-y,1/3+x-y,1/3+z
2/3-x+y,1/3-x,1/3+z
2/3+x-y,1/3-y,5/6-z
2/3-x,1/3-x+y,5/6-z
2/3+y,1/3+x,5/6-z
2/3-x,1/3-y,1/3-z
2/3+y,1/3-x+y,1/3-z
2/3+x-y,1/3+x,1/3-z
2/3-x+y,1/3+y,5/6+z
2/3+x,1/3+x-y,5/6+z
2/3-y,1/3-x,5/6+z
1/3+x,2/3+y,2/3+z
1/3-y,2/3+x-y,2/3+z
1/3-x+y,2/3-x,2/3+z
1/3+x-y,2/3-y,1/6-z
1/3-x,2/3-x+y,1/6-z
1/3+y,2/3+x,1/6-z
1/3-x,2/3-y,2/3-z
1/3+y,2/3-x+y,2/3-z
1/3+x-y,2/3+x,2/3-z
1/3-x+y,2/3+y,1/6+z
1/3+x,2/3+x-y,1/6+z
1/3-y,2/3-x,1/6+z
loop_
_atom_site_type_symbol
_atom_site_label
_atom_site_fract_x
_atom_site_fract_y
_atom_site_fract_z
Si Si1 0.476899 0.659768 0.841263
Si Si2 0.991190 0.829580 0.168059
Si Si3 0.120499 0.336844 0.161354
Si Si4 0.726724 0.671892 0.020724
O O1 0.453177 0.666667 0.916667
O O2 0.394671 0.585763 0.809848
O O3 0.513917 0.751571 0.815351
O O4 0.537456 0.623333 0.844084
O O5 0.000000 0.830558 0.250000
O O6 0.013396 0.760687 0.147305
O O7 0.139572 0.333334 0.083334
O O8 0.199601 0.348286 0.200263
O O9 0.089068 0.400613 0.171449
O O10 0.666667 0.652067 0.083334
#
# Coordination Sequence:
#
# PCOD9579531 Si02
#       4
#    36  36  36  36
#     4   9  16  28  50  79 114 152 187 231 290 346
#     4   8  14  26  46  76 110 145 186 228 274 336
#     4  10  21  37  56  83 118 154 194 243 294 344
#     4   9  19  37  58  81 113 152 192 235 291 355
#
# _framework density 23.283835
#
# number of rings (size 3 to 8) (size 9 to 14) (size 15 to 20)
#    0.000    3.000    0.000    2.000    0.000    4.000 
#    0.000   10.000    0.000    0.500    0.000    0.000 
#    0.000    0.000    0.000    0.000    0.000    0.000 
#
# Total GULP energy -267423.166591 kJ/mol
# GULP energy per Si atom -5571.315971 kJ/mol
# Density = 2.323084 g / cm^3
# Si number density = 23.283835 Si / 1000 Ang^3
#
#
#
# Elastic Constant Matrix: (Units=GPa)
#
#
# Indices 1 2 3 4 5 6 
#
# 1 103.1410 97.0935 -0.5259 -17.3306 0.0003 0.0000
# 2 97.0935 103.1410 -0.5259 17.3306 -0.0003 0.0000
# 3 -0.5259 -0.5259 59.6958 0.0000 0.0000 0.0000
# 4 -17.3306 17.3306 0.0000 7.7268 0.0000 -0.0003
# 5 0.0003 -0.0003 0.0000 0.0000 7.7268 -17.3306
# 6 0.0000 0.0000 0.0000 -0.0003 -17.3306 3.0237
#
#
#
# Elastic Compliance Matrix: (Units=1/GPa)
#
#
# Indices 1 2 3 4 5 6 
#
# 1 -0.004477 0.009471 0.000044 -0.031284 0.000000 0.000000
# 2 0.009471 -0.004477 0.000044 0.031284 0.000000 0.000000
# 3 0.000044 0.000044 0.016752 0.000000 0.000000 0.000000
# 4 -0.031284 0.031284 0.000000 -0.010917 0.000000 -0.000001
# 5 0.000000 0.000000 0.000000 0.000000 -0.010917 -0.062569
# 6 0.000000 0.000000 0.000000 -0.000001 -0.062569 -0.027896
#
#
# Mechanical properties :
#
#
# Convention : Reuss Voigt Hill
#
# Bulk Modulus (GPa) = 37.15106 50.89566 44.02336
# Shear Modulus (GPa) = -96.01135 15.02456 -40.49340
#
# Velocity S-wave (km/s) = -6.42843 2.54299 -4.17480
# Velocity P-wave (km/s) = 6.25374 5.52527 2.07131
#
# Compressibility (1/GPa) = 0.02691714
#
# Stress axis : x y z
#
# Youngs Moduli (GPa) = -223.36955 -223.36955 59.69303
#
# Poissons Ratio (x) = 2.11559 -0.00263
# Poissons Ratio (y) = 2.11559 -0.00263
# Poissons Ratio (z) = 0.00983 0.00983
#
# Static dielectric constant tensor:
#      x y z
#    x 1.911530 0.000000 0.000000 
#    y 0.000000 1.911530 0.000000 
#    z 0.000000 0.000000 2.017010 
# 
# From -- ./inp_files/6161.got.cif
#   From: 2010.05.17/outbox.cif.g08.bks.cpg/sg167_4_cif.got.tgz:6161.got - 2010.05.20 11:09:15.
