data_PCOD9579704
_publ_section_title
;
Structure prediction by ZEFSAII (Michael W. Deem and Ramdas Pophale) SiO2 
 PCOD9579704
Probable space group: R -3 C 
;
_chemical_formula_sum "Si O2"
_cell_formula_units_Z 120
_cell_length_a 15.442548
_cell_length_b 15.442548
_cell_length_c 26.509549
_cell_angle_alpha 90.000000
_cell_angle_beta 90.000000
_cell_angle_gamma 120.000000
_cell_volume 5474.833182
_symmetry_space_group_name_H-M "R -3 C "
_symmetry_group_IT_number 167
_symmetry_cell_setting 'hexagonal'
loop_
_space_group_symop_operation_xyz
x,y,z
-y,x-y,z
-x+y,-x,z
x-y,-y,1/2-z
-x,-x+y,1/2-z
y,x,1/2-z
-x,-y,-z
y,-x+y,-z
x-y,x,-z
-x+y,y,1/2+z
x,x-y,1/2+z
-y,-x,1/2+z
2/3+x,1/3+y,1/3+z
2/3-y,1/3+x-y,1/3+z
2/3-x+y,1/3-x,1/3+z
2/3+x-y,1/3-y,5/6-z
2/3-x,1/3-x+y,5/6-z
2/3+y,1/3+x,5/6-z
2/3-x,1/3-y,1/3-z
2/3+y,1/3-x+y,1/3-z
2/3+x-y,1/3+x,1/3-z
2/3-x+y,1/3+y,5/6+z
2/3+x,1/3+x-y,5/6+z
2/3-y,1/3-x,5/6+z
1/3+x,2/3+y,2/3+z
1/3-y,2/3+x-y,2/3+z
1/3-x+y,2/3-x,2/3+z
1/3+x-y,2/3-y,1/6-z
1/3-x,2/3-x+y,1/6-z
1/3+y,2/3+x,1/6-z
1/3-x,2/3-y,2/3-z
1/3+y,2/3-x+y,2/3-z
1/3+x-y,2/3+x,2/3-z
1/3-x+y,2/3+y,1/6+z
1/3+x,2/3+x-y,1/6+z
1/3-y,2/3-x,1/6+z
loop_
_atom_site_type_symbol
_atom_site_label
_atom_site_fract_x
_atom_site_fract_y
_atom_site_fract_z
Si Si1 0.666668 0.333334 0.643421
Si Si2 0.210299 0.050061 0.021331
Si Si3 0.138453 0.619495 0.528824
Si Si4 0.374967 0.326983 0.694381
O O1 0.666668 0.333334 0.583334
O O2 0.766274 0.341439 0.666121
O O3 0.190633 0.018331 0.079584
O O4 0.136493 0.952424 0.989095
O O5 0.323464 0.085378 0.004651
O O6 0.103963 0.501332 0.529178
O O7 0.059451 0.639154 0.499901
O O8 0.352523 0.352523 0.750000
#
# Coordination Sequence:
#
# PCOD9579704 Si02
#       4
#    12  36  36  36
#     4  12  27  45  76 101 145 189 234 291 361 410
#     4  12  25  44  73 101 140 184 233 292 352 420
#     4  11  26  46  70 105 142 180 241 292 346 428
#     4  11  25  46  70 102 140 185 235 290 354 421
#
# _framework density 21.918475999999998
#
# number of rings (size 3 to 8) (size 9 to 14) (size 15 to 20)
#    0.000    0.600    3.000    3.900    4.200    4.800 
#    0.000    0.000    0.000    0.000    0.000    0.000 
#    0.000    0.000    0.000    0.000    0.000    0.000 
#
# Total GULP energy -223975.880215 kJ/mol
# GULP energy per Si atom -5599.397005 kJ/mol
# Density = 2.186859 g / cm^3
# Si number density = 21.918476 Si / 1000 Ang^3
#
#
#
# Elastic Constant Matrix: (Units=GPa)
#
#
# Indices 1 2 3 4 5 6 
#
# 1 51.6107 -3.2801 -0.4083 -3.1083 0.0005 0.0000
# 2 -3.2801 51.6084 -0.4089 3.1125 -0.0012 -0.0001
# 3 -0.4083 -0.4089 160.1728 -0.0002 -0.0019 -0.0002
# 4 -3.1083 3.1125 -0.0002 14.3668 -0.0025 -0.0007
# 5 0.0005 -0.0012 -0.0019 -0.0025 14.3990 -3.1094
# 6 0.0000 -0.0001 -0.0002 -0.0007 -3.1094 27.4444
#
#
#
# Elastic Compliance Matrix: (Units=1/GPa)
#
#
# Indices 1 2 3 4 5 6 
#
# 1 0.019684 0.001008 0.000053 0.004040 0.000000 0.000000
# 2 0.001008 0.019685 0.000053 -0.004047 0.000001 0.000000
# 3 0.000053 0.000053 0.006244 0.000000 0.000001 0.000000
# 4 0.004040 -0.004047 0.000000 0.071356 0.000012 0.000003
# 5 0.000000 0.000001 0.000001 0.000012 0.071191 0.008066
# 6 0.000000 0.000000 0.000000 0.000003 0.008066 0.037351
#
#
# Mechanical properties :
#
#
# Convention : Reuss Voigt Hill
#
# Bulk Modulus (GPa) = 20.90341 28.35525 24.62933
# Shear Modulus (GPa) = 20.90038 29.07464 24.98751
#
# Velocity S-wave (km/s) = 3.09131 3.64605 3.38008
# Velocity P-wave (km/s) = 4.72220 5.53983 5.14728
#
# Compressibility (1/GPa) = 0.04783909
#
# Stress axis : x y z
#
# Youngs Moduli (GPa) = 50.80370 50.79950 160.16585
#
# Poissons Ratio (x) = -0.05120 -0.00845
# Poissons Ratio (y) = -0.05120 -0.00846
# Poissons Ratio (z) = -0.00268 -0.00268
#
# Static dielectric constant tensor:
#      x y z
#    x 1.773620 0.000000 0.000000 
#    y 0.000000 1.773620 0.000000 
#    z 0.000000 0.000000 1.741740 
# 
# From -- ./inp_files/5102.got.cif
#   From: 2010.05.17/outbox.cif.g08.bks.cpg/sg167_3_cif.got.tgz:5102.got - 2010.05.20 11:09:15.
