data_PCOD9579209
_publ_section_title
;
Structure prediction by ZEFSAII (Michael W. Deem and Ramdas Pophale) SiO2 
 PCOD9579209
Probable space group: R -3 M
;
_chemical_formula_sum "Si O2"
_cell_formula_units_Z 162
_cell_length_a 25.212955
_cell_length_b 25.212955
_cell_length_c 15.659830
_cell_angle_alpha 90.000000
_cell_angle_beta 90.000000
_cell_angle_gamma 120.000000
_cell_volume 8621.149419
_symmetry_space_group_name_H-M "R -3 M"
_symmetry_group_IT_number 166
_symmetry_cell_setting 'hexagonal'
loop_
_space_group_symop_operation_xyz
x,y,z
-y,x-y,z
-x+y,-x,z
x-y,-y,-z
-x,-x+y,-z
y,x,-z
-x,-y,-z
y,-x+y,-z
x-y,x,-z
-x+y,y,z
x,x-y,z
-y,-x,z
2/3+x,1/3+y,1/3+z
2/3-y,1/3+x-y,1/3+z
2/3-x+y,1/3-x,1/3+z
2/3+x-y,1/3-y,1/3-z
2/3-x,1/3-x+y,1/3-z
2/3+y,1/3+x,1/3-z
2/3-x,1/3-y,1/3-z
2/3+y,1/3-x+y,1/3-z
2/3+x-y,1/3+x,1/3-z
2/3-x+y,1/3+y,1/3+z
2/3+x,1/3+x-y,1/3+z
2/3-y,1/3-x,1/3+z
1/3+x,2/3+y,2/3+z
1/3-y,2/3+x-y,2/3+z
1/3-x+y,2/3-x,2/3+z
1/3+x-y,2/3-y,2/3-z
1/3-x,2/3-x+y,2/3-z
1/3+y,2/3+x,2/3-z
1/3-x,2/3-y,2/3-z
1/3+y,2/3-x+y,2/3-z
1/3+x-y,2/3+x,2/3-z
1/3-x+y,2/3+y,2/3+z
1/3+x,2/3+x-y,2/3+z
1/3-y,2/3-x,2/3+z
loop_
_atom_site_type_symbol
_atom_site_label
_atom_site_fract_x
_atom_site_fract_y
_atom_site_fract_z
Si Si1 0.331817 0.165909 0.309754
Si Si2 0.426107 0.852214 0.387285
Si Si3 0.120931 0.879070 0.409317
Si Si4 0.520208 0.479793 0.160749
Si Si5 0.859178 0.310974 0.600182
Si Si6 0.001260 0.615784 0.596931
Si Si7 0.529753 0.264877 0.868487
O O1 0.257930 0.128965 0.302535
O O2 0.352071 0.176036 0.408481
O O3 0.354665 0.231079 0.265207
O O4 0.362165 0.841503 0.427180
O O5 0.405303 0.810605 0.302826
O O6 0.156872 0.843129 0.432424
O O7 0.159342 0.939501 0.351886
O O8 0.102464 0.897537 0.496700
O O9 0.591954 0.510370 0.136864
O O10 0.930454 0.347171 0.623049
O O11 0.039275 0.666667 0.666667
O O12 0.000000 0.635957 0.500000
O O13 0.564436 0.333334 0.833334
#
# Coordination Sequence:
#
# PCOD9579209 Si02
#       7
#    18  18  18  18  36  36  18
#     4  10  22  36  57  80 110 143 189 242 301 350
#     4  10  20  36  52  78 112 157 186 246 300 358
#     4  11  20  33  57  81 116 151 197 254 295 357
#     4  11  20  35  56  86 110 152 197 259 297 359
#     4  10  21  35  53  80 114 149 199 238 302 354
#     4  11  22  38  57  83 115 154 192 240 295 366
#     4  12  22  36  54  80 117 165 205 242 293 362
#
# _framework density 18.790997000000001
#
# number of rings (size 3 to 8) (size 9 to 14) (size 15 to 20)
#    0.000    1.333    3.333    4.444    0.000    0.000 
#    0.000    0.000    0.000    0.444    0.000    0.000 
#    0.000    0.000    0.000   11.111    0.000    0.000 
#
# Total GULP energy -301246.923852 kJ/mol
# GULP energy per Si atom -5578.646738 kJ/mol
# Density = 1.874823 g / cm^3
# Si number density = 18.790997 Si / 1000 Ang^3
#
#
#
# Elastic Constant Matrix: (Units=GPa)
#
#
# Indices 1 2 3 4 5 6 
#
# 1 98.1677 40.2552 13.8312 -0.4407 0.0002 0.0000
# 2 40.2552 98.1677 13.8312 0.4407 -0.0002 0.0000
# 3 13.8312 13.8312 67.2478 0.0000 0.0000 0.0000
# 4 -0.4407 0.4407 0.0000 12.9538 0.0000 -0.0002
# 5 0.0002 -0.0002 0.0000 0.0000 12.9538 -0.4407
# 6 0.0000 0.0000 0.0000 -0.0002 -0.4407 28.9563
#
#
#
# Elastic Compliance Matrix: (Units=1/GPa)
#
#
# Indices 1 2 3 4 5 6 
#
# 1 0.012405 -0.004871 -0.001550 0.000588 0.000000 0.000000
# 2 -0.004871 0.012405 -0.001550 -0.000588 0.000000 0.000000
# 3 -0.001550 -0.001550 0.015508 0.000000 0.000000 0.000000
# 4 0.000588 -0.000588 0.000000 0.077238 0.000000 0.000001
# 5 0.000000 0.000000 0.000000 0.000000 0.077238 0.001176
# 6 0.000000 0.000000 0.000000 0.000001 0.001176 0.034553
#
#
# Mechanical properties :
#
#
# Convention : Reuss Voigt Hill
#
# Bulk Modulus (GPa) = 41.02157 44.37984 42.70070
# Shear Modulus (GPa) = 19.73068 24.01714 21.87391
#
# Velocity S-wave (km/s) = 3.24390 3.57896 3.41554
# Velocity P-wave (km/s) = 5.99236 6.38337 6.19095
#
# Compressibility (1/GPa) = 0.02437742
#
# Stress axis : x y z
#
# Youngs Moduli (GPa) = 80.61181 80.61181 64.48377
#
# Poissons Ratio (x) = 0.39268 0.09992
# Poissons Ratio (y) = 0.39268 0.09992
# Poissons Ratio (z) = 0.12491 0.12491
#
# Static dielectric constant tensor:
#      x y z
#    x 1.679900 0.000000 0.000000 
#    y 0.000000 1.679900 0.000000 
#    z 0.000000 0.000000 1.660940 
# 
# From -- ./inp_files/5511.got.cif
#   From: 2010.05.17/outbox.cif.g08.bks.cpg/sg166_3_cif.got.tgz:5511.got - 2010.05.20 11:04:41.
