data_PCOD9579968
_publ_section_title
;
Structure prediction by ZEFSAII (Michael W. Deem and Ramdas Pophale) SiO2 
 PCOD9579968
Probable space group: P 61
;
_chemical_formula_sum "Si O2"
_cell_formula_units_Z 36
_cell_length_a 12.259700
_cell_length_b 12.259700
_cell_length_c 13.458380
_cell_angle_alpha 90.000000
_cell_angle_beta 90.000000
_cell_angle_gamma 120.000000
_cell_volume 1751.794281
_symmetry_space_group_name_H-M "P 61"
_symmetry_group_IT_number 169
_symmetry_cell_setting 'hexagonal'
loop_
_space_group_symop_operation_xyz
x,y,z
x-y,x,1/6+z
-y,x-y,1/3+z
-x,-y,1/2+z
-x+y,-x,2/3+z
y,-x+y,5/6+z
loop_
_atom_site_type_symbol
_atom_site_label
_atom_site_fract_x
_atom_site_fract_y
_atom_site_fract_z
Si Si1 0.500532 0.229875 0.331780
Si Si2 0.579574 0.929749 0.439664
Si Si3 0.908127 0.801361 0.229392
Si Si4 0.893235 0.801361 0.540835
Si Si5 0.500531 0.270656 0.105112
Si Si6 0.350175 0.929749 0.330562
O O1 0.531009 0.265505 0.218446
O O2 0.625490 0.250977 0.385112
O O3 0.449641 0.309447 0.391193
O O4 0.404138 0.079692 0.329834
O O5 0.660172 0.879738 0.381604
O O6 0.550360 0.859808 0.545701
O O7 0.453328 0.906654 0.385113
O O8 0.675557 0.079692 0.440390
O O9 0.889798 0.849664 0.121563
O O10 0.808328 0.808327 0.301780
O O11 0.879740 0.660173 0.221957
O O12 0.849665 0.889797 0.481997
#
# Coordination Sequence:
#
# PCOD9579968 Si02
#       6
#     6   6   6   6   6   6
#     4  11  24  46  65  97 133 179 231 282 349 418
#     4  11  23  44  70 100 139 179 230 291 348 422
#     4  10  21  44  68 107 145 184 236 288 356 419
#     4  10  21  44  68 107 145 184 236 288 356 419
#     4  11  24  46  65  97 133 179 231 282 349 418
#     4  11  23  44  70 100 139 179 230 291 348 422
#
# _framework density 20.550359
#
# number of rings (size 3 to 8) (size 9 to 14) (size 15 to 20)
#    0.000    1.333    3.333    2.000    0.000    0.000 
#   30.000    0.000    0.000    0.000    0.000    0.000 
#    0.000    0.000    0.000    0.000    0.000    0.000 
#
# Total GULP energy -200871.836899 kJ/mol
# GULP energy per Si atom -5579.773247 kJ/mol
# Density = 2.050359 g / cm^3
# Si number density = 20.550359 Si / 1000 Ang^3
#
#
#
# Elastic Constant Matrix: (Units=GPa)
#
#
# Indices 1 2 3 4 5 6 
#
# 1 -533.5710 665.8292 68.1705 0.0000 0.0000 -0.0001
# 2 665.8292 -533.5710 68.1705 0.0000 0.0000 0.0001
# 3 68.1705 68.1705 150.3814 0.0000 0.0000 0.0000
# 4 0.0000 0.0000 0.0000 30.4794 0.0000 0.0000
# 5 0.0000 0.0000 0.0000 0.0000 30.4794 0.0000
# 6 -0.0001 0.0001 0.0000 0.0000 0.0000 -599.7000
#
#
#
# Elastic Compliance Matrix: (Units=1/GPa)
#
#
# Indices 1 2 3 4 5 6 
#
# 1 0.006680 0.007514 -0.006434 0.000000 0.000000 0.000000
# 2 0.007514 0.006680 -0.006434 0.000000 0.000000 0.000000
# 3 -0.006434 -0.006434 0.012483 0.000000 0.000000 0.000000
# 4 0.000000 0.000000 0.000000 0.032809 0.000000 0.000000
# 5 0.000000 0.000000 0.000000 0.000000 0.032809 0.000000
# 6 0.000000 0.000000 0.000000 0.000000 0.000000 -0.001668
#
#
# Mechanical properties :
#
#
# Convention : Reuss Voigt Hill
#
# Bulk Modulus (GPa) = 66.07714 76.39776 71.23745
# Shear Modulus (GPa) = 47.37161 -222.34360 -87.48600
#
# Velocity S-wave (km/s) = 4.80640 -10.41294 -6.53176
# Velocity P-wave (km/s) = 7.93887 10.35934 4.70587
#
# Compressibility (1/GPa) = 0.01513383
#
# Stress axis : x y z
#
# Youngs Moduli (GPa) = 149.69826 149.69826 80.10650
#
# Poissons Ratio (x) = -1.12481 0.51543
# Poissons Ratio (y) = -1.12481 0.51543
# Poissons Ratio (z) = 0.96321 0.96321
#
# Static dielectric constant tensor:
#      x y z
#    x 1.719780 0.000000 0.000000 
#    y 0.000000 1.719780 0.000000 
#    z 0.000000 0.000000 1.744560 
# 
# From -- ./inp_files/1148.got.cif
#   From: 2010.05.17/outbox.cif.g08.bks.cpg/sg169_cif.got.tgz:1148.got - 2010.05.20 11:12:54.
