data_PCOD9579850
_publ_section_title
;
Structure prediction by ZEFSAII (Michael W. Deem and Ramdas Pophale) SiO2 
 PCOD9579850
Probable space group: P 61
;
_chemical_formula_sum "Si O2"
_cell_formula_units_Z 42
_cell_length_a 9.850565
_cell_length_b 9.850565
_cell_length_c 25.799736
_cell_angle_alpha 90.000000
_cell_angle_beta 90.000000
_cell_angle_gamma 120.000000
_cell_volume 2168.044419
_symmetry_space_group_name_H-M "P 61"
_symmetry_group_IT_number 169
_symmetry_cell_setting 'hexagonal'
loop_
_space_group_symop_operation_xyz
x,y,z
x-y,x,1/6+z
-y,x-y,1/3+z
-x,-y,1/2+z
-x+y,-x,2/3+z
y,-x+y,5/6+z
loop_
_atom_site_type_symbol
_atom_site_label
_atom_site_fract_x
_atom_site_fract_y
_atom_site_fract_z
Si Si1 0.874542 0.661015 0.151580
Si Si2 0.677485 0.484715 0.988612
Si Si3 0.355792 0.705385 0.624997
Si Si4 0.237760 0.896899 0.438691
Si Si5 0.162816 0.678004 0.534259
Si Si6 0.530958 0.707392 0.397785
Si Si7 0.962586 0.561020 0.749578
O O1 0.772533 0.480513 0.132237
O O2 0.817953 0.763291 0.120275
O O3 0.843984 0.662433 0.213363
O O4 0.056745 0.717110 0.144619
O O5 0.609728 0.375147 0.938809
O O6 0.816315 0.465407 0.013156
O O7 0.533239 0.419868 0.029634
O O8 0.310394 0.764727 0.573091
O O9 0.334618 0.787366 0.674633
O O10 0.520504 0.709155 0.617587
O O11 0.160620 0.772667 0.484326
O O12 0.422790 0.952417 0.439426
O O13 0.010033 0.630272 0.568032
O O14 0.628292 0.894224 0.406430
#
# Coordination Sequence:
#
# PCOD9579850 Si02
#       7
#     6   6   6   6   6   6   6
#     4  10  19  37  59  79 114 155 189 237 294 355
#     4  10  19  37  56  84 113 151 198 236 295 345
#     4  10  20  35  55  86 115 149 192 238 305 347
#     4  10  20  35  57  84 112 152 194 236 288 354
#     4  11  22  33  59  90 112 152 201 246 282 365
#     4  12  19  35  60  86 116 151 195 253 289 356
#     4   9  19  36  56  81 116 150 183 242 299 340
#
# _framework density 19.372297
#
# number of rings (size 3 to 8) (size 9 to 14) (size 15 to 20)
#    0.000    1.714    5.714    0.857    2.000    0.000 
#    0.000    0.000    3.143    0.000    0.000    0.000 
#    0.000    0.000    0.000    0.000    0.000    0.000 
#
# Total GULP energy -234153.114210 kJ/mol
# GULP energy per Si atom -5575.074148 kJ/mol
# Density = 1.932821 g / cm^3
# Si number density = 19.372297 Si / 1000 Ang^3
#
#
#
# Elastic Constant Matrix: (Units=GPa)
#
#
# Indices 1 2 3 4 5 6 
#
# 1 54.1262 21.6526 3.4234 0.0000 0.0000 0.0000
# 2 21.6526 54.1262 3.4234 0.0000 0.0000 0.0000
# 3 3.4234 3.4234 58.8655 0.0000 0.0000 0.0000
# 4 0.0000 0.0000 0.0000 22.7024 0.0000 0.0000
# 5 0.0000 0.0000 0.0000 0.0000 22.7024 0.0000
# 6 0.0000 0.0000 0.0000 0.0000 0.0000 16.2368
#
#
#
# Elastic Compliance Matrix: (Units=1/GPa)
#
#
# Indices 1 2 3 4 5 6 
#
# 1 0.022030 -0.008764 -0.000772 0.000000 0.000000 0.000000
# 2 -0.008764 0.022030 -0.000772 0.000000 0.000000 0.000000
# 3 -0.000772 -0.000772 0.017078 0.000000 0.000000 0.000000
# 4 0.000000 0.000000 0.000000 0.044048 0.000000 0.000000
# 5 0.000000 0.000000 0.000000 0.000000 0.044048 0.000000
# 6 0.000000 0.000000 0.000000 0.000000 0.000000 0.061589
#
#
# Mechanical properties :
#
#
# Convention : Reuss Voigt Hill
#
# Bulk Modulus (GPa) = 24.67697 24.90186 24.78942
# Shear Modulus (GPa) = 20.41275 21.56956 20.99115
#
# Velocity S-wave (km/s) = 3.24961 3.34042 3.29533
# Velocity P-wave (km/s) = 5.18130 5.26879 5.22523
#
# Compressibility (1/GPa) = 0.04052362
#
# Stress axis : x y z
#
# Youngs Moduli (GPa) = 45.39236 45.39236 58.55616
#
# Poissons Ratio (x) = 0.39782 0.04518
# Poissons Ratio (y) = 0.39782 0.04518
# Poissons Ratio (z) = 0.03502 0.03502
#
# Static dielectric constant tensor:
#      x y z
#    x 1.690620 0.000000 0.000000 
#    y 0.000000 1.690620 0.000000 
#    z 0.000000 0.000000 1.700390 
# 
# From -- ./inp_files/1854.got.cif
#   From: 2010.05.17/outbox.cif.g08.bks.cpg/sg169_cif.got.tgz:1854.got - 2010.05.20 11:12:54.
