data_PCOD9579239
_publ_section_title
;
Structure prediction by ZEFSAII (Michael W. Deem and Ramdas Pophale) SiO2 
 PCOD9579239
Probable space group: R -3 M
;
_chemical_formula_sum "Si O2"
_cell_formula_units_Z 126
_cell_length_a 27.143165
_cell_length_b 27.143165
_cell_length_c 10.377619
_cell_angle_alpha 90.000000
_cell_angle_beta 90.000000
_cell_angle_gamma 120.000000
_cell_volume 6621.392419
_symmetry_space_group_name_H-M "R -3 M"
_symmetry_group_IT_number 166
_symmetry_cell_setting 'hexagonal'
loop_
_space_group_symop_operation_xyz
x,y,z
-y,x-y,z
-x+y,-x,z
x-y,-y,-z
-x,-x+y,-z
y,x,-z
-x,-y,-z
y,-x+y,-z
x-y,x,-z
-x+y,y,z
x,x-y,z
-y,-x,z
2/3+x,1/3+y,1/3+z
2/3-y,1/3+x-y,1/3+z
2/3-x+y,1/3-x,1/3+z
2/3+x-y,1/3-y,1/3-z
2/3-x,1/3-x+y,1/3-z
2/3+y,1/3+x,1/3-z
2/3-x,1/3-y,1/3-z
2/3+y,1/3-x+y,1/3-z
2/3+x-y,1/3+x,1/3-z
2/3-x+y,1/3+y,1/3+z
2/3+x,1/3+x-y,1/3+z
2/3-y,1/3-x,1/3+z
1/3+x,2/3+y,2/3+z
1/3-y,2/3+x-y,2/3+z
1/3-x+y,2/3-x,2/3+z
1/3+x-y,2/3-y,2/3-z
1/3-x,2/3-x+y,2/3-z
1/3+y,2/3+x,2/3-z
1/3-x,2/3-y,2/3-z
1/3+y,2/3-x+y,2/3-z
1/3+x-y,2/3+x,2/3-z
1/3-x+y,2/3+y,2/3+z
1/3+x,2/3+x-y,2/3+z
1/3-y,2/3-x,2/3+z
loop_
_atom_site_type_symbol
_atom_site_label
_atom_site_fract_x
_atom_site_fract_y
_atom_site_fract_z
Si Si1 0.864410 0.135590 0.414086
Si Si2 0.540096 0.661186 0.307076
Si Si3 0.098552 0.704196 0.779417
Si Si4 0.796889 0.593777 0.364349
Si Si5 0.119605 0.559803 0.988613
O O1 0.927489 0.164254 0.356733
O O2 0.831266 0.168735 0.380715
O O3 0.868075 0.131926 0.569838
O O4 0.575107 0.670921 0.436977
O O5 0.517325 0.706019 0.313330
O O6 0.567839 0.666667 0.166667
O O7 0.056726 0.666667 0.666667
O O8 0.082071 0.748737 0.833334
O O9 0.161039 0.739675 0.714856
O O10 0.783304 0.566608 0.507063
#
# Coordination Sequence:
#
# PCOD9579239 Si02
#       5
#    18  36  36  18  18
#     4  10  20  38  64  84 117 154 199 244 298 348
#     4  10  21  39  61  85 112 152 198 241 294 353
#     4  12  24  39  56  83 116 157 199 246 291 346
#     4  12  21  38  61  82 121 153 202 240 298 349
#     4  10  21  37  60  89 116 152 195 245 297 356
#
# _framework density 19.029230999999999
#
# number of rings (size 3 to 8) (size 9 to 14) (size 15 to 20)
#    0.000    1.143    5.714    1.714    0.000    1.143 
#    0.000    0.000    0.000    0.571    0.000    4.000 
#    0.000    2.286    0.000    0.000    0.000    0.000 
#
# Total GULP energy -233860.439251 kJ/mol
# GULP energy per Si atom -5568.105696 kJ/mol
# Density = 1.898592 g / cm^3
# Si number density = 19.029231 Si / 1000 Ang^3
#
#
#
# Elastic Constant Matrix: (Units=GPa)
#
#
# Indices 1 2 3 4 5 6 
#
# 1 40.4049 1.6891 17.2257 -2.8537 0.0013 0.0008
# 2 1.6891 40.4037 17.2214 2.8559 -0.0001 -0.0004
# 3 17.2257 17.2214 156.9717 0.0061 0.0018 0.0054
# 4 -2.8537 2.8559 0.0061 22.5855 0.0028 0.0007
# 5 0.0013 -0.0001 0.0018 0.0028 22.5844 -2.8540
# 6 0.0008 -0.0004 0.0054 0.0007 -2.8540 19.3578
#
#
#
# Elastic Compliance Matrix: (Units=1/GPa)
#
#
# Indices 1 2 3 4 5 6 
#
# 1 0.026210 -0.000110 -0.002864 0.003326 -0.000002 -0.000001
# 2 -0.000110 0.026210 -0.002863 -0.003327 0.000001 0.000002
# 3 -0.002864 -0.002863 0.006999 -0.000002 -0.000001 -0.000002
# 4 0.003326 -0.003327 -0.000002 0.045117 -0.000006 -0.000003
# 5 -0.000002 0.000001 -0.000001 -0.000006 0.045119 0.006652
# 6 -0.000001 0.000002 -0.000002 -0.000003 0.006652 0.052639
#
#
# Mechanical properties :
#
#
# Convention : Reuss Voigt Hill
#
# Bulk Modulus (GPa) = 20.94487 34.45027 27.69757
# Shear Modulus (GPa) = 21.74997 26.34848 24.04922
#
# Velocity S-wave (km/s) = 3.38446 3.72510 3.55886
# Velocity P-wave (km/s) = 5.12868 6.05351 5.61019
#
# Compressibility (1/GPa) = 0.04774440
#
# Stress axis : x y z
#
# Youngs Moduli (GPa) = 38.15316 38.15272 142.87681
#
# Poissons Ratio (x) = 0.00420 0.40924
# Poissons Ratio (y) = 0.00420 0.40911
# Poissons Ratio (z) = 0.10928 0.10924
#
# Static dielectric constant tensor:
#      x y z
#    x 1.672110 0.000000 0.000000 
#    y 0.000000 1.672110 0.000000 
#    z 0.000000 0.000000 1.757230 
# 
# From -- ./inp_files/1699.got.cif
#   From: 2010.05.17/outbox.cif.g08.bks.cpg/sg166_1_cif.got.tgz:1699.got - 2010.05.20 11:04:41.
