data_PCOD9579406
_publ_section_title
;
Structure prediction by ZEFSAII (Michael W. Deem and Ramdas Pophale) SiO2 
 PCOD9579406
Probable space group: R -3 C 
;
_chemical_formula_sum "Si O2"
_cell_formula_units_Z 108
_cell_length_a 23.999530
_cell_length_b 23.999530
_cell_length_c 10.375972
_cell_angle_alpha 90.000000
_cell_angle_beta 90.000000
_cell_angle_gamma 120.000000
_cell_volume 5175.649957
_symmetry_space_group_name_H-M "R -3 C "
_symmetry_group_IT_number 167
_symmetry_cell_setting 'hexagonal'
loop_
_space_group_symop_operation_xyz
x,y,z
-y,x-y,z
-x+y,-x,z
x-y,-y,1/2-z
-x,-x+y,1/2-z
y,x,1/2-z
-x,-y,-z
y,-x+y,-z
x-y,x,-z
-x+y,y,1/2+z
x,x-y,1/2+z
-y,-x,1/2+z
2/3+x,1/3+y,1/3+z
2/3-y,1/3+x-y,1/3+z
2/3-x+y,1/3-x,1/3+z
2/3+x-y,1/3-y,5/6-z
2/3-x,1/3-x+y,5/6-z
2/3+y,1/3+x,5/6-z
2/3-x,1/3-y,1/3-z
2/3+y,1/3-x+y,1/3-z
2/3+x-y,1/3+x,1/3-z
2/3-x+y,1/3+y,5/6+z
2/3+x,1/3+x-y,5/6+z
2/3-y,1/3-x,5/6+z
1/3+x,2/3+y,2/3+z
1/3-y,2/3+x-y,2/3+z
1/3-x+y,2/3-x,2/3+z
1/3+x-y,2/3-y,1/6-z
1/3-x,2/3-x+y,1/6-z
1/3+y,2/3+x,1/6-z
1/3-x,2/3-y,2/3-z
1/3+y,2/3-x+y,2/3-z
1/3+x-y,2/3+x,2/3-z
1/3-x+y,2/3+y,1/6+z
1/3+x,2/3+x-y,1/6+z
1/3-y,2/3-x,1/6+z
loop_
_atom_site_type_symbol
_atom_site_label
_atom_site_fract_x
_atom_site_fract_y
_atom_site_fract_z
Si Si1 0.591319 0.958829 0.044089
Si Si2 0.524320 0.449746 0.275083
Si Si3 0.427663 0.264832 0.148540
O O1 0.539645 0.927140 0.161271
O O2 0.666667 0.988659 0.083334
O O3 0.584027 0.020924 0.012080
O O4 0.584568 0.917902 0.916667
O O5 0.501338 0.501338 0.250000
O O6 0.544351 0.442929 0.132254
O O7 0.579388 0.471667 0.380278
O O8 0.467825 0.333334 0.083334
#
# Coordination Sequence:
#
# PCOD9579406 Si02
#       3
#    36  36  36
#     4  10  18  28  46  72 102 141 185 217 247 301
#     4  10  20  33  49  70 100 139 181 228 270 310
#     4  10  21  35  49  70 101 138 181 225 271 319
#
# _framework density 20.866945999999999
#
# number of rings (size 3 to 8) (size 9 to 14) (size 15 to 20)
#    0.000    2.000    0.000    9.000    0.000    9.333 
#    0.000    0.000    0.000    0.000    0.000    0.000 
#    0.000    0.000    0.000   38.000    0.000    2.667 
#
# Total GULP energy -200662.874456 kJ/mol
# GULP energy per Si atom -5573.968735 kJ/mol
# Density = 2.081945 g / cm^3
# Si number density = 20.866946 Si / 1000 Ang^3
#
#
#
# Elastic Constant Matrix: (Units=GPa)
#
#
# Indices 1 2 3 4 5 6 
#
# 1 40.3930 28.1067 28.8387 10.5335 0.0000 0.0000
# 2 28.1067 40.3933 28.8391 -10.5335 0.0003 0.0001
# 3 28.8387 28.8391 140.8584 0.0009 0.0018 0.0006
# 4 10.5335 -10.5335 0.0009 34.9373 0.0004 0.0002
# 5 0.0000 0.0003 0.0018 0.0004 34.9379 10.5337
# 6 0.0000 0.0001 0.0006 0.0002 10.5337 6.1436
#
#
#
# Elastic Compliance Matrix: (Units=1/GPa)
#
#
# Indices 1 2 3 4 5 6 
#
# 1 0.093067 -0.075428 -0.003611 -0.050801 0.000000 0.000003
# 2 -0.075428 0.093068 -0.003612 0.050801 0.000000 -0.000003
# 3 -0.003611 -0.003612 0.008578 -0.000001 0.000000 0.000000
# 4 -0.050801 0.050801 -0.000001 0.059255 0.000000 -0.000003
# 5 0.000000 0.000000 0.000000 0.000000 0.059252 -0.101593
# 6 0.000003 -0.000003 0.000000 -0.000003 -0.101593 0.336963
#
#
# Mechanical properties :
#
#
# Convention : Reuss Voigt Hill
#
# Bulk Modulus (GPa) = 34.00058 43.69039 38.84549
# Shear Modulus (GPa) = 6.05848 24.26110 15.15979
#
# Velocity S-wave (km/s) = 1.70578 3.41347 2.69829
# Velocity P-wave (km/s) = 4.49544 6.04308 5.32577
#
# Compressibility (1/GPa) = 0.02941126
#
# Stress axis : x y z
#
# Youngs Moduli (GPa) = 10.74492 10.74486 116.57564
#
# Poissons Ratio (x) = 0.81046 0.42094
# Poissons Ratio (y) = 0.81047 0.42107
# Poissons Ratio (z) = 0.03880 0.03881
#
# Static dielectric constant tensor:
#      x y z
#    x 1.866430 0.000000 0.000000 
#    y 0.000000 1.866430 0.000000 
#    z 0.000000 0.000000 1.849270 
# 
# From -- ./inp_files/1256.got.cif
#   From: 2010.05.17/outbox.cif.g08.bks.cpg/sg167_1_cif.got.tgz:1256.got - 2010.05.20 11:09:15.
