data_PCOD9579900
_publ_section_title
;
Structure prediction by ZEFSAII (Michael W. Deem and Ramdas Pophale) SiO2 
 PCOD9579900
Probable space group: P 61
;
_chemical_formula_sum "Si O2"
_cell_formula_units_Z 48
_cell_length_a 16.793669
_cell_length_b 16.793669
_cell_length_c 9.734463
_cell_angle_alpha 90.000000
_cell_angle_beta 90.000000
_cell_angle_gamma 120.000000
_cell_volume 2377.572717
_symmetry_space_group_name_H-M "P 61"
_symmetry_group_IT_number 169
_symmetry_cell_setting 'hexagonal'
loop_
_space_group_symop_operation_xyz
x,y,z
x-y,x,1/6+z
-y,x-y,1/3+z
-x,-y,1/2+z
-x+y,-x,2/3+z
y,-x+y,5/6+z
loop_
_atom_site_type_symbol
_atom_site_label
_atom_site_fract_x
_atom_site_fract_y
_atom_site_fract_z
Si Si1 0.702281 0.057336 0.331810
Si Si2 0.350299 0.795670 0.213308
Si Si3 0.950862 0.538723 0.439175
Si Si4 0.311011 0.749206 0.499451
Si Si5 0.428483 0.003402 0.300229
Si Si6 0.743687 0.250870 0.418301
Si Si7 0.329014 0.057747 0.112102
Si Si8 0.103255 0.917286 0.844776
O O1 0.631199 0.006060 0.208895
O O2 0.694735 0.149321 0.351107
O O3 0.802814 0.075868 0.286425
O O4 0.683888 0.007418 0.480356
O O5 0.284990 0.743962 0.340379
O O6 0.431563 0.772286 0.228612
O O7 0.391977 0.901223 0.244631
O O8 0.298013 0.763133 0.070844
O O9 0.848253 0.511025 0.389815
O O10 0.006021 0.556676 0.295372
O O11 0.940556 0.454867 0.532211
O O12 0.401415 0.737738 0.521323
O O13 0.348946 0.024491 0.255818
O O14 0.846933 0.268953 0.418106
O O15 0.241250 0.072143 0.115689
O O16 0.015984 0.882442 0.744586
#
# Coordination Sequence:
#
# PCOD9579900 Si02
#       8
#     6   6   6   6   6   6   6   6
#     4  10  21  39  64  93 125 165 210 259 323 383
#     4  11  23  35  56  86 119 160 202 264 303 369
#     4  11  24  39  61  88 126 171 214 265 315 379
#     4  11  22  37  54  86 120 160 219 251 307 366
#     4  11  23  40  60  90 128 166 218 261 321 374
#     4  11  21  36  62  81 118 164 207 256 308 366
#     4  10  20  39  66  93 122 164 212 260 315 391
#     4   9  20  41  71  99 128 164 214 266 332 404
#
# _framework density 20.188656000000002
#
# number of rings (size 3 to 8) (size 9 to 14) (size 15 to 20)
#    0.000    1.500    3.750    1.500    1.750    1.000 
#    2.250    1.250    0.000    0.000    0.000    0.000 
#    0.000    0.000    0.000    0.000    0.000    0.000 
#
# Total GULP energy -267471.495201 kJ/mol
# GULP energy per Si atom -5572.322817 kJ/mol
# Density = 2.014271 g / cm^3
# Si number density = 20.188656 Si / 1000 Ang^3
#
#
#
# Elastic Constant Matrix: (Units=GPa)
#
#
# Indices 1 2 3 4 5 6 
#
# 1 49.2394 0.7529 19.4244 0.0000 0.0000 0.0000
# 2 0.7529 49.2394 19.4244 0.0000 0.0000 0.0000
# 3 19.4244 19.4244 123.1838 0.0000 0.0000 0.0000
# 4 0.0000 0.0000 0.0000 14.6496 0.0000 0.0000
# 5 0.0000 0.0000 0.0000 0.0000 14.6496 0.0000
# 6 0.0000 0.0000 0.0000 0.0000 0.0000 24.2432
#
#
#
# Elastic Compliance Matrix: (Units=1/GPa)
#
#
# Indices 1 2 3 4 5 6 
#
# 1 0.021710 0.001086 -0.003595 0.000000 0.000000 0.000000
# 2 0.001086 0.021710 -0.003595 0.000000 0.000000 0.000000
# 3 -0.003595 -0.003595 0.009252 0.000000 0.000000 0.000000
# 4 0.000000 0.000000 0.000000 0.068261 0.000000 0.000000
# 5 0.000000 0.000000 0.000000 0.000000 0.068261 0.000000
# 6 0.000000 0.000000 0.000000 0.000000 0.000000 0.041249
#
#
# Mechanical properties :
#
#
# Convention : Reuss Voigt Hill
#
# Bulk Modulus (GPa) = 24.71224 33.42956 29.07090
# Shear Modulus (GPa) = 19.52069 22.84589 21.18329
#
# Velocity S-wave (km/s) = 3.11290 3.36761 3.24275
# Velocity P-wave (km/s) = 5.01870 5.63166 5.33399
#
# Compressibility (1/GPa) = 0.04046578
#
# Stress axis : x y z
#
# Youngs Moduli (GPa) = 46.06093 46.06093 108.08924
#
# Poissons Ratio (x) = -0.05003 0.38855
# Poissons Ratio (y) = -0.05003 0.38855
# Poissons Ratio (z) = 0.16557 0.16557
#
# Static dielectric constant tensor:
#      x y z
#    x 1.765200 0.000000 0.000000 
#    y 0.000000 1.765200 0.000000 
#    z 0.000000 0.000000 1.762350 
# 
# From -- ./inp_files/725.got.cif
#   From: 2010.05.17/outbox.cif.g08.bks.cpg/sg169_cif.got.tgz:725.got - 2010.05.20 11:12:54.
