data_PCOD9579908
_publ_section_title
;
Structure prediction by ZEFSAII (Michael W. Deem and Ramdas Pophale) SiO2 
 PCOD9579908
Probable space group: P 61
;
_chemical_formula_sum "Si O2"
_cell_formula_units_Z 48
_cell_length_a 12.115344
_cell_length_b 12.115344
_cell_length_c 17.496399
_cell_angle_alpha 90.000000
_cell_angle_beta 90.000000
_cell_angle_gamma 120.000000
_cell_volume 2224.082053
_symmetry_space_group_name_H-M "P 61"
_symmetry_group_IT_number 169
_symmetry_cell_setting 'hexagonal'
loop_
_space_group_symop_operation_xyz
x,y,z
x-y,x,1/6+z
-y,x-y,1/3+z
-x,-y,1/2+z
-x+y,-x,2/3+z
y,-x+y,5/6+z
loop_
_atom_site_type_symbol
_atom_site_label
_atom_site_fract_x
_atom_site_fract_y
_atom_site_fract_z
Si Si1 0.710074 0.711462 0.709850
Si Si2 0.902209 0.338881 0.063186
Si Si3 0.957616 0.459921 0.672545
Si Si4 0.651257 0.338840 0.072618
Si Si5 0.299070 0.442912 0.352900
Si Si6 0.072384 0.999990 0.864672
Si Si7 0.154743 0.642017 0.765831
Si Si8 0.121385 0.350110 0.993392
O O1 0.645408 0.796964 0.706200
O O2 0.671987 0.630528 0.787070
O O3 0.863400 0.797329 0.703705
O O4 0.656915 0.612215 0.640690
O O5 0.802063 0.388645 0.068515
O O6 0.817965 0.188642 0.078507
O O7 0.001606 0.401277 0.134598
O O8 0.997277 0.365126 0.993868
O O9 0.834527 0.392209 0.725714
O O10 0.921104 0.377072 0.595879
O O11 0.085402 0.506832 0.722078
O O12 0.572790 0.253791 0.145839
O O13 0.598043 0.249512 0.997960
O O14 0.011259 0.994897 0.780608
O O15 0.213415 0.123091 0.859099
O O16 0.223745 0.765514 0.711530
#
# Coordination Sequence:
#
# PCOD9579908 Si02
#       8
#     6   6   6   6   6   6   6   6
#     4  11  20  39  68  99 135 174 239 301 357 426
#     4  11  23  39  66  99 134 178 235 296 361 427
#     4  11  24  42  66  99 134 183 231 295 361 432
#     4  11  24  42  66 102 137 180 242 300 359 432
#     4  11  24  40  64 102 135 184 232 302 361 427
#     4  12  22  37  68 108 142 185 242 311 367 437
#     4  10  20  40  68  97 131 178 233 299 352 419
#     4  11  19  37  68 100 132 178 238 294 360 430
#
# _framework density 21.581938000000001
#
# number of rings (size 3 to 8) (size 9 to 14) (size 15 to 20)
#    0.000    1.000    6.250    0.750    7.000    0.000 
#    0.000    1.250    0.000    0.000    0.000    0.000 
#    0.000    0.000    0.000    0.000    0.000    0.000 
#
# Total GULP energy -267662.276168 kJ/mol
# GULP energy per Si atom -5576.297420 kJ/mol
# Density = 2.153282 g / cm^3
# Si number density = 21.581938 Si / 1000 Ang^3
#
#
#
# Elastic Constant Matrix: (Units=GPa)
#
#
# Indices 1 2 3 4 5 6 
#
# 1 75.0050 27.4024 5.6269 0.0000 0.0000 0.0000
# 2 27.4024 75.0050 5.6269 0.0000 0.0000 0.0000
# 3 5.6269 5.6269 60.2569 0.0000 0.0000 0.0000
# 4 0.0000 0.0000 0.0000 22.9680 0.0000 0.0000
# 5 0.0000 0.0000 0.0000 0.0000 22.9680 0.0000
# 6 0.0000 0.0000 0.0000 0.0000 0.0000 23.8013
#
#
#
# Elastic Compliance Matrix: (Units=1/GPa)
#
#
# Indices 1 2 3 4 5 6 
#
# 1 0.015437 -0.005571 -0.000921 0.000000 0.000000 0.000000
# 2 -0.005571 0.015437 -0.000921 0.000000 0.000000 0.000000
# 3 -0.000921 -0.000921 0.016768 0.000000 0.000000 0.000000
# 4 0.000000 0.000000 0.000000 0.043539 0.000000 0.000000
# 5 0.000000 0.000000 0.000000 0.000000 0.043539 0.000000
# 6 0.000000 0.000000 0.000000 0.000000 0.000000 0.042014
#
#
# Mechanical properties :
#
#
# Convention : Reuss Voigt Hill
#
# Bulk Modulus (GPa) = 30.47410 31.95324 31.21367
# Shear Modulus (GPa) = 24.69163 25.38819 25.03991
#
# Velocity S-wave (km/s) = 3.38611 3.43354 3.40990
# Velocity P-wave (km/s) = 5.42572 5.52780 5.47700
#
# Compressibility (1/GPa) = 0.03281475
#
# Stress axis : x y z
#
# Youngs Moduli (GPa) = 64.78070 64.78070 59.63855
#
# Poissons Ratio (x) = 0.36086 0.05495
# Poissons Ratio (y) = 0.36086 0.05495
# Poissons Ratio (z) = 0.05968 0.05968
#
# Static dielectric constant tensor:
#      x y z
#    x 1.816950 0.000000 0.000000 
#    y 0.000000 1.816950 0.000000 
#    z 0.000000 0.000000 1.880560 
# 
# From -- ./inp_files/1436.got.cif
#   From: 2010.05.17/outbox.cif.g08.bks.cpg/sg169_cif.got.tgz:1436.got - 2010.05.20 11:12:54.
