data_PCOD9579807
_publ_section_title
;
Structure prediction by ZEFSAII (Michael W. Deem and Ramdas Pophale) SiO2 
 PCOD9579807
Probable space group: P 61
;
_chemical_formula_sum "Si O2"
_cell_formula_units_Z 48
_cell_length_a 13.182504
_cell_length_b 13.182504
_cell_length_c 18.819647
_cell_angle_alpha 90.000000
_cell_angle_beta 90.000000
_cell_angle_gamma 120.000000
_cell_volume 2832.291366
_symmetry_space_group_name_H-M "P 61"
_symmetry_group_IT_number 169
_symmetry_cell_setting 'hexagonal'
loop_
_space_group_symop_operation_xyz
x,y,z
x-y,x,1/6+z
-y,x-y,1/3+z
-x,-y,1/2+z
-x+y,-x,2/3+z
y,-x+y,5/6+z
loop_
_atom_site_type_symbol
_atom_site_label
_atom_site_fract_x
_atom_site_fract_y
_atom_site_fract_z
Si Si1 0.377083 0.841227 0.081530
Si Si2 0.907450 0.397861 0.358428
Si Si3 0.398703 0.172393 0.528357
Si Si4 0.922170 0.288504 0.108393
Si Si5 0.237760 0.630642 0.989744
Si Si6 0.181934 0.547038 0.582765
Si Si7 0.368328 0.268876 0.664598
Si Si8 0.193341 0.403348 0.077543
O O1 0.269317 0.731423 0.045841
O O2 0.360177 0.840984 0.166019
O O3 0.403405 0.954807 0.035731
O O4 0.487415 0.821692 0.066352
O O5 0.863783 0.383574 0.439022
O O6 0.887049 0.502134 0.329220
O O7 0.838529 0.281553 0.311170
O O8 0.443348 0.264283 0.463178
O O9 0.340863 0.212285 0.587700
O O10 0.315551 0.035935 0.513241
O O11 0.902382 0.401153 0.105518
O O12 0.893506 0.235907 0.187169
O O13 0.055461 0.327812 0.091469
O O14 0.825442 0.191084 0.054576
O O15 0.211371 0.517233 0.034539
O O16 0.344744 0.656087 0.936053
#
# Coordination Sequence:
#
# PCOD9579807 Si02
#       8
#     6   6   6   6   6   6   6   6
#     4  10  20  34  55  81 118 155 180 228 292 348
#     4  11  21  35  55  82 120 151 187 233 291 355
#     4  10  21  34  58  87 115 151 192 239 286 347
#     4  11  21  36  61  86 117 150 197 245 288 345
#     4  10  19  34  52  81 116 151 183 234 280 345
#     4  10  18  35  54  84 118 148 184 231 289 346
#     4  11  19  38  58  85 116 149 199 243 289 340
#     4  11  23  36  57  90 114 151 194 239 293 354
#
# _framework density 16.947407999999999
#
# number of rings (size 3 to 8) (size 9 to 14) (size 15 to 20)
#    0.000    1.500    3.750    4.500    1.750    0.000 
#    9.000    0.000    0.000    0.000   13.000    0.000 
#    0.000    0.000    0.000    0.000    0.000    0.000 
#
# Total GULP energy -267554.531883 kJ/mol
# GULP energy per Si atom -5574.052748 kJ/mol
# Density = 1.690884 g / cm^3
# Si number density = 16.947408 Si / 1000 Ang^3
#
#
#
# Elastic Constant Matrix: (Units=GPa)
#
#
# Indices 1 2 3 4 5 6 
#
# 1 67.7890 49.4528 40.1376 0.0000 0.0000 0.0000
# 2 49.4528 67.7890 40.1376 0.0000 0.0000 0.0000
# 3 40.1376 40.1376 86.4952 0.0000 0.0000 0.0000
# 4 0.0000 0.0000 0.0000 4.9772 0.0000 0.0000
# 5 0.0000 0.0000 0.0000 0.0000 4.9772 0.0000
# 6 0.0000 0.0000 0.0000 0.0000 0.0000 9.1681
#
#
#
# Elastic Compliance Matrix: (Units=1/GPa)
#
#
# Indices 1 2 3 4 5 6 
#
# 1 0.033519 -0.021018 -0.005801 0.000000 0.000000 0.000000
# 2 -0.021018 0.033519 -0.005801 0.000000 0.000000 0.000000
# 3 -0.005801 -0.005801 0.016945 0.000000 0.000000 0.000000
# 4 0.000000 0.000000 0.000000 0.200918 0.000000 0.000000
# 5 0.000000 0.000000 0.000000 0.000000 0.200918 0.000000
# 6 0.000000 0.000000 0.000000 0.000000 0.000000 0.109074
#
#
# Mechanical properties :
#
#
# Convention : Reuss Voigt Hill
#
# Bulk Modulus (GPa) = 53.35211 53.50323 53.42767
# Shear Modulus (GPa) = 7.50321 9.98083 8.74202
#
# Velocity S-wave (km/s) = 2.10641 2.42942 2.27366
# Velocity P-wave (km/s) = 6.12089 6.28555 6.20377
#
# Compressibility (1/GPa) = 0.01874340
#
# Stress axis : x y z
#
# Youngs Moduli (GPa) = 29.83366 29.83366 59.01303
#
# Poissons Ratio (x) = 0.62703 0.34235
# Poissons Ratio (y) = 0.62703 0.34235
# Poissons Ratio (z) = 0.17307 0.17307
#
# Static dielectric constant tensor:
#      x y z
#    x 1.582910 0.000000 0.000000 
#    y 0.000000 1.582910 0.000000 
#    z 0.000000 0.000000 1.588120 
# 
# From -- ./inp_files/1437.got.cif
#   From: 2010.05.17/outbox.cif.g08.bks.cpg/sg169_cif.got.tgz:1437.got - 2010.05.20 11:12:54.
