data_PCOD9579190
_publ_section_title
;
Structure prediction by ZEFSAII (Michael W. Deem and Ramdas Pophale) SiO2 
 PCOD9579190
Probable space group: R -3 M
;
_chemical_formula_sum "Si O2"
_cell_formula_units_Z 252
_cell_length_a 30.591353
_cell_length_b 30.591353
_cell_length_c 17.228229
_cell_angle_alpha 90.000000
_cell_angle_beta 90.000000
_cell_angle_gamma 120.000000
_cell_volume 13962.675293
_symmetry_space_group_name_H-M "R -3 M"
_symmetry_group_IT_number 166
_symmetry_cell_setting 'hexagonal'
loop_
_space_group_symop_operation_xyz
x,y,z
-y,x-y,z
-x+y,-x,z
x-y,-y,-z
-x,-x+y,-z
y,x,-z
-x,-y,-z
y,-x+y,-z
x-y,x,-z
-x+y,y,z
x,x-y,z
-y,-x,z
2/3+x,1/3+y,1/3+z
2/3-y,1/3+x-y,1/3+z
2/3-x+y,1/3-x,1/3+z
2/3+x-y,1/3-y,1/3-z
2/3-x,1/3-x+y,1/3-z
2/3+y,1/3+x,1/3-z
2/3-x,1/3-y,1/3-z
2/3+y,1/3-x+y,1/3-z
2/3+x-y,1/3+x,1/3-z
2/3-x+y,1/3+y,1/3+z
2/3+x,1/3+x-y,1/3+z
2/3-y,1/3-x,1/3+z
1/3+x,2/3+y,2/3+z
1/3-y,2/3+x-y,2/3+z
1/3-x+y,2/3-x,2/3+z
1/3+x-y,2/3-y,2/3-z
1/3-x,2/3-x+y,2/3-z
1/3+y,2/3+x,2/3-z
1/3-x,2/3-y,2/3-z
1/3+y,2/3-x+y,2/3-z
1/3+x-y,2/3+x,2/3-z
1/3-x+y,2/3+y,2/3+z
1/3+x,2/3+x-y,2/3+z
1/3-y,2/3-x,2/3+z
loop_
_atom_site_type_symbol
_atom_site_label
_atom_site_fract_x
_atom_site_fract_y
_atom_site_fract_z
Si Si1 0.597381 0.724857 0.679541
Si Si2 0.609810 0.048090 0.637917
Si Si3 0.122347 0.611217 0.493364
Si Si4 0.192644 0.145302 0.606189
Si Si5 0.274825 0.823850 0.092368
Si Si6 0.890997 0.395788 0.179694
Si Si7 0.943639 0.226093 0.711944
O O1 0.582241 0.666667 0.666667
O O2 0.657185 0.756951 0.691793
O O3 0.571338 0.730557 0.756571
O O4 0.574259 0.735308 0.602768
O O5 0.600272 0.081353 0.574332
O O6 0.613713 0.073145 0.721610
O O7 0.666250 0.059569 0.618854
O O8 0.141612 0.570806 0.485327
O O9 0.160124 0.672289 0.493422
O O10 0.174649 0.087325 0.621302
O O11 0.214508 0.157774 0.518537
O O12 0.152059 0.163769 0.606101
O O13 0.236577 0.181214 0.664262
O O14 0.222552 0.777449 0.066568
O O15 0.878031 0.439016 0.158983
O O16 0.939821 0.404095 0.130651
O O17 0.907807 0.241140 0.666667
#
# Coordination Sequence:
#
# PCOD9579190 Si02
#       7
#    36  36  36  36  36  36  36
#     4  10  21  36  53  77 106 139 174 212 255 302
#     4  10  20  34  52  76 103 135 174 212 251 295
#     4  10  21  37  56  77 103 136 173 215 264 312
#     4   9  18  32  48  67  95 129 163 202 249 298
#     4   9  18  31  48  71  95 123 163 207 251 296
#     4  10  22  37  54  78 106 137 173 215 263 312
#     4  10  21  35  50  73 104 141 174 206 249 300
#
# _framework density 18.048116
#
# number of rings (size 3 to 8) (size 9 to 14) (size 15 to 20)
#    0.000    2.286    0.000    2.143    2.000    4.000 
#    0.000    1.429    0.000    0.571    0.000    2.000 
#    0.000   10.286    0.000    0.286    0.000    1.143 
#
# Total GULP energy -468204.896771 kJ/mol
# GULP energy per Si atom -5573.867819 kJ/mol
# Density = 1.800704 g / cm^3
# Si number density = 18.048116 Si / 1000 Ang^3
#
#
#
# Elastic Constant Matrix: (Units=GPa)
#
#
# Indices 1 2 3 4 5 6 
#
# 1 51.9910 40.3087 8.1085 -0.1532 0.0000 0.0000
# 2 40.3087 51.9910 8.1085 0.1532 0.0000 0.0000
# 3 8.1085 8.1085 44.8915 0.0000 0.0000 0.0000
# 4 -0.1532 0.1532 0.0000 16.9371 0.0000 0.0000
# 5 0.0000 0.0000 0.0000 0.0000 16.9371 -0.1532
# 6 0.0000 0.0000 0.0000 0.0000 -0.1532 5.8411
#
#
#
# Elastic Compliance Matrix: (Units=1/GPa)
#
#
# Indices 1 2 3 4 5 6 
#
# 1 0.048405 -0.037215 -0.002021 0.000774 0.000000 0.000000
# 2 -0.037215 0.048405 -0.002021 -0.000774 0.000000 0.000000
# 3 -0.002021 -0.002021 0.023006 0.000000 0.000000 0.000000
# 4 0.000774 -0.000774 0.000000 0.059056 0.000000 0.000000
# 5 0.000000 0.000000 0.000000 0.000000 0.059056 0.001548
# 6 0.000000 0.000000 0.000000 0.000000 0.001548 0.171240
#
#
# Mechanical properties :
#
#
# Convention : Reuss Voigt Hill
#
# Bulk Modulus (GPa) = 26.80930 29.10277 27.95604
# Shear Modulus (GPa) = 9.91835 14.09956 12.00896
#
# Velocity S-wave (km/s) = 2.34679 2.79806 2.58231
# Velocity P-wave (km/s) = 4.71485 5.15742 4.94110
#
# Compressibility (1/GPa) = 0.03730049
#
# Stress axis : x y z
#
# Youngs Moduli (GPa) = 20.65915 20.65915 43.46679
#
# Poissons Ratio (x) = 0.76884 0.08785
# Poissons Ratio (y) = 0.76884 0.08785
# Poissons Ratio (z) = 0.04175 0.04175
#
# Static dielectric constant tensor:
#      x y z
#    x 1.620870 0.000000 0.000000 
#    y 0.000000 1.620870 0.000000 
#    z 0.000000 0.000000 1.654550 
# 
# From -- ./inp_files/5809.got.cif
#   From: 2010.05.17/outbox.cif.g08.bks.cpg/sg166_3_cif.got.tgz:5809.got - 2010.05.20 11:04:41.
