data_PCOD9579180
_publ_section_title
;
Structure prediction by ZEFSAII (Michael W. Deem and Ramdas Pophale) SiO2 
 PCOD9579180
Probable space group: R -3 M
;
_chemical_formula_sum "Si O2"
_cell_formula_units_Z 216
_cell_length_a 23.542265
_cell_length_b 23.542265
_cell_length_c 19.914357
_cell_angle_alpha 90.000000
_cell_angle_beta 90.000000
_cell_angle_gamma 120.000000
_cell_volume 9558.580631
_symmetry_space_group_name_H-M "R -3 M"
_symmetry_group_IT_number 166
_symmetry_cell_setting 'hexagonal'
loop_
_space_group_symop_operation_xyz
x,y,z
-y,x-y,z
-x+y,-x,z
x-y,-y,-z
-x,-x+y,-z
y,x,-z
-x,-y,-z
y,-x+y,-z
x-y,x,-z
-x+y,y,z
x,x-y,z
-y,-x,z
2/3+x,1/3+y,1/3+z
2/3-y,1/3+x-y,1/3+z
2/3-x+y,1/3-x,1/3+z
2/3+x-y,1/3-y,1/3-z
2/3-x,1/3-x+y,1/3-z
2/3+y,1/3+x,1/3-z
2/3-x,1/3-y,1/3-z
2/3+y,1/3-x+y,1/3-z
2/3+x-y,1/3+x,1/3-z
2/3-x+y,1/3+y,1/3+z
2/3+x,1/3+x-y,1/3+z
2/3-y,1/3-x,1/3+z
1/3+x,2/3+y,2/3+z
1/3-y,2/3+x-y,2/3+z
1/3-x+y,2/3-x,2/3+z
1/3+x-y,2/3-y,2/3-z
1/3-x,2/3-x+y,2/3-z
1/3+y,2/3+x,2/3-z
1/3-x,2/3-y,2/3-z
1/3+y,2/3-x+y,2/3-z
1/3+x-y,2/3+x,2/3-z
1/3-x+y,2/3+y,2/3+z
1/3+x,2/3+x-y,2/3+z
1/3-y,2/3-x,2/3+z
loop_
_atom_site_type_symbol
_atom_site_label
_atom_site_fract_x
_atom_site_fract_y
_atom_site_fract_z
Si Si1 0.001188 0.132451 0.399019
Si Si2 0.288095 0.207932 0.254729
Si Si3 0.126766 0.999629 0.897027
Si Si4 0.388663 0.258835 0.915732
Si Si5 0.484075 0.639177 0.912576
Si Si6 0.743832 0.004233 0.921072
O O1 0.069646 0.139291 0.422161
O O2 0.006413 0.143461 0.318139
O O3 0.982704 0.185597 0.426588
O O4 0.939572 0.060429 0.412608
O O5 0.272959 0.136480 0.231077
O O6 0.286920 0.204594 0.336297
O O7 0.228817 0.220827 0.237100
O O8 0.358473 0.264747 0.231161
O O9 0.071707 0.928294 0.920485
O O10 0.112869 0.056435 0.920700
O O11 0.128266 0.001582 0.815931
O O12 0.200205 0.017427 0.915156
O O13 0.382738 0.191369 0.889915
O O14 0.328261 0.266658 0.891156
O O15 0.439727 0.560274 0.909639
O O16 0.728375 0.000000 0.000000
#
# Coordination Sequence:
#
# PCOD9579180 Si02
#       6
#    36  36  36  36  36  36
#     4   9  15  25  44  69  96 121 145 174 212 261
#     4   9  16  29  48  67  87 110 144 188 225 261
#     4  11  22  34  48  66  89 116 148 186 227 270
#     4   8  15  28  44  62  87 118 149 182 217 257
#     4   9  18  31  46  67  94 120 143 173 219 269
#     4  10  20  33  48  64  83 114 154 192 228 260
#
# _framework density 22.597497000000001
#
# number of rings (size 3 to 8) (size 9 to 14) (size 15 to 20)
#    0.000    2.667    0.000    3.833    0.000    2.667 
#    0.000    4.167    0.000    6.333    0.000    0.000 
#    0.000    0.000    0.000    0.000    0.000    0.167 
#
# Total GULP energy -401872.256516 kJ/mol
# GULP energy per Si atom -5581.559118 kJ/mol
# Density = 2.254606 g / cm^3
# Si number density = 22.597497 Si / 1000 Ang^3
#
#
#
# Elastic Constant Matrix: (Units=GPa)
#
#
# Indices 1 2 3 4 5 6 
#
# 1 138.9961 76.4609 -9.3574 4.4739 0.0000 0.0000
# 2 76.4609 138.9961 -9.3574 -4.4739 0.0000 0.0000
# 3 -9.3574 -9.3574 59.5686 0.0000 0.0000 0.0000
# 4 4.4739 -4.4739 0.0000 8.1158 0.0000 0.0000
# 5 0.0000 0.0000 0.0000 0.0000 8.1158 4.4739
# 6 0.0000 0.0000 0.0000 0.0000 4.4739 31.2676
#
#
#
# Elastic Compliance Matrix: (Units=1/GPa)
#
#
# Indices 1 2 3 4 5 6 
#
# 1 0.011033 -0.006327 0.000739 -0.009570 0.000000 0.000000
# 2 -0.006327 0.011033 0.000739 0.009570 0.000000 0.000000
# 3 0.000739 0.000739 0.017020 0.000000 0.000000 0.000000
# 4 -0.009570 0.009570 0.000000 0.133768 0.000000 0.000000
# 5 0.000000 0.000000 0.000000 0.000000 0.133768 -0.019140
# 6 0.000000 0.000000 0.000000 0.000000 -0.019140 0.034721
#
#
# Mechanical properties :
#
#
# Convention : Reuss Voigt Hill
#
# Bulk Modulus (GPa) = 34.02835 50.33923 42.18379
# Shear Modulus (GPa) = 13.85674 28.15415 21.00545
#
# Velocity S-wave (km/s) = 2.47897 3.53356 3.05216
# Velocity P-wave (km/s) = 4.82544 6.24282 5.57932
#
# Compressibility (1/GPa) = 0.02938726
#
# Stress axis : x y z
#
# Youngs Moduli (GPa) = 90.63799 90.63799 58.75585
#
# Poissons Ratio (x) = 0.57350 -0.04343
# Poissons Ratio (y) = 0.57350 -0.04343
# Poissons Ratio (z) = -0.06700 -0.06700
#
# Static dielectric constant tensor:
#      x y z
#    x 1.812870 0.000000 0.000000 
#    y 0.000000 1.812870 0.000000 
#    z 0.000000 0.000000 1.915060 
# 
# From -- ./inp_files/8431.got.cif
#   From: 2010.05.17/outbox.cif.g08.bks.cpg/sg166_5_cif.got.tgz:8431.got - 2010.05.20 11:04:41.
