data_PCOD9579894
_publ_section_title
;
Structure prediction by ZEFSAII (Michael W. Deem and Ramdas Pophale) SiO2 
 PCOD9579894
Probable space group: P 61
;
_chemical_formula_sum "Si O2"
_cell_formula_units_Z 42
_cell_length_a 14.636888
_cell_length_b 14.636888
_cell_length_c 12.543775
_cell_angle_alpha 90.000000
_cell_angle_beta 90.000000
_cell_angle_gamma 120.000000
_cell_volume 2327.321526
_symmetry_space_group_name_H-M "P 61"
_symmetry_group_IT_number 169
_symmetry_cell_setting 'hexagonal'
loop_
_space_group_symop_operation_xyz
x,y,z
x-y,x,1/6+z
-y,x-y,1/3+z
-x,-y,1/2+z
-x+y,-x,2/3+z
y,-x+y,5/6+z
loop_
_atom_site_type_symbol
_atom_site_label
_atom_site_fract_x
_atom_site_fract_y
_atom_site_fract_z
Si Si1 0.766100 0.311812 0.397660
Si Si2 0.525315 0.600464 0.564220
Si Si3 0.989978 0.376676 0.446232
Si Si4 0.578071 0.226460 0.814739
Si Si5 0.604967 0.574171 0.352090
Si Si6 0.636302 0.980411 0.951397
Si Si7 0.401259 0.250542 0.450382
O O1 0.661722 0.199816 0.409166
O O2 0.863933 0.308065 0.450832
O O3 0.791927 0.343521 0.273482
O O4 0.737312 0.392358 0.453702
O O5 0.610558 0.637153 0.657841
O O6 0.580307 0.627529 0.449962
O O7 0.444272 0.474838 0.576453
O O8 0.014374 0.492986 0.480112
O O9 0.062564 0.355385 0.524398
O O10 0.482795 0.146678 0.738526
O O11 0.675249 0.204867 0.790905
O O12 0.652252 0.640665 0.246079
O O13 0.628826 0.868814 0.928845
O O14 0.726636 0.082250 0.891645
#
# Coordination Sequence:
#
# PCOD9579894 Si02
#       7
#     6   6   6   6   6   6   6
#     4  12  23  33  55  82 116 168 207 237 306 369
#     4  11  21  35  54  83 116 161 193 246 299 362
#     4  10  22  36  50  78 121 149 201 249 292 360
#     4  11  21  33  54  83 112 160 207 238 299 361
#     4  10  20  38  54  78 119 149 196 254 289 359
#     4  11  22  40  60  85 118 157 205 256 309 362
#     4  11  23  39  59  85 118 156 205 258 308 359
#
# _framework density 18.046496999999999
#
# number of rings (size 3 to 8) (size 9 to 14) (size 15 to 20)
#    0.000    1.143    5.714    2.571    6.000    1.143 
#    0.000    0.000    0.000    0.000    0.000    2.000 
#    0.000    0.000    0.000    0.000    0.000    0.000 
#
# Total GULP energy -234474.078464 kJ/mol
# GULP energy per Si atom -5582.716154 kJ/mol
# Density = 1.800542 g / cm^3
# Si number density = 18.046497 Si / 1000 Ang^3
#
#
#
# Elastic Constant Matrix: (Units=GPa)
#
#
# Indices 1 2 3 4 5 6 
#
# 1 44.6623 7.8413 21.1330 0.0000 0.0000 0.0000
# 2 7.8413 44.6623 21.1330 0.0000 0.0000 0.0000
# 3 21.1330 21.1330 94.1083 0.0000 0.0000 0.0000
# 4 0.0000 0.0000 0.0000 20.3464 0.0000 0.0000
# 5 0.0000 0.0000 0.0000 0.0000 20.3464 0.0000
# 6 0.0000 0.0000 0.0000 0.0000 0.0000 18.4105
#
#
#
# Elastic Compliance Matrix: (Units=1/GPa)
#
#
# Indices 1 2 3 4 5 6 
#
# 1 0.025204 -0.001955 -0.005221 0.000000 0.000000 0.000000
# 2 -0.001955 0.025204 -0.005221 0.000000 0.000000 0.000000
# 3 -0.005221 -0.005221 0.012971 0.000000 0.000000 0.000000
# 4 0.000000 0.000000 0.000000 0.049149 0.000000 0.000000
# 5 0.000000 0.000000 0.000000 0.000000 0.049149 0.000000
# 6 0.000000 0.000000 0.000000 0.000000 0.000000 0.054317
#
#
# Mechanical properties :
#
#
# Convention : Reuss Voigt Hill
#
# Bulk Modulus (GPa) = 25.91629 31.51641 28.71635
# Shear Modulus (GPa) = 19.71240 20.70903 20.21072
#
# Velocity S-wave (km/s) = 3.30860 3.39121 3.35016
# Velocity P-wave (km/s) = 5.38403 5.73024 5.55983
#
# Compressibility (1/GPa) = 0.03858578
#
# Stress axis : x y z
#
# Youngs Moduli (GPa) = 39.67654 39.67654 77.09600
#
# Poissons Ratio (x) = 0.07755 0.40251
# Poissons Ratio (y) = 0.07755 0.40251
# Poissons Ratio (z) = 0.20715 0.20715
#
# Static dielectric constant tensor:
#      x y z
#    x 1.622650 0.000000 0.000000 
#    y 0.000000 1.622650 0.000000 
#    z 0.000000 0.000000 1.677190 
# 
# From -- ./inp_files/930.got.cif
#   From: 2010.05.17/outbox.cif.g08.bks.cpg/sg169_cif.got.tgz:930.got - 2010.05.20 11:12:54.
