data_PCOD9579892
_publ_section_title
;
Structure prediction by ZEFSAII (Michael W. Deem and Ramdas Pophale) SiO2 
 PCOD9579892
Probable space group: P 61
;
_chemical_formula_sum "Si O2"
_cell_formula_units_Z 48
_cell_length_a 19.048890
_cell_length_b 19.048890
_cell_length_c 7.890008
_cell_angle_alpha 90.000000
_cell_angle_beta 90.000000
_cell_angle_gamma 120.000000
_cell_volume 2479.404717
_symmetry_space_group_name_H-M "P 61"
_symmetry_group_IT_number 169
_symmetry_cell_setting 'hexagonal'
loop_
_space_group_symop_operation_xyz
x,y,z
x-y,x,1/6+z
-y,x-y,1/3+z
-x,-y,1/2+z
-x+y,-x,2/3+z
y,-x+y,5/6+z
loop_
_atom_site_type_symbol
_atom_site_label
_atom_site_fract_x
_atom_site_fract_y
_atom_site_fract_z
Si Si1 0.897083 0.507847 0.420770
Si Si2 0.669270 0.281411 0.043060
Si Si3 0.473672 0.040352 0.334693
Si Si4 0.469194 0.174967 0.531815
Si Si5 0.315281 0.024576 0.163249
Si Si6 0.929416 0.250791 0.107838
Si Si7 0.159253 0.351925 0.440573
Si Si8 0.339824 0.229478 0.881484
O O1 0.814393 0.424243 0.395689
O O2 0.946808 0.499828 0.575175
O O3 0.878798 0.580171 0.455631
O O4 0.956516 0.525976 0.266070
O O5 0.639812 0.318393 0.894272
O O6 0.752910 0.291168 0.972040
O O7 0.501950 0.121513 0.442917
O O8 0.399842 0.034107 0.224161
O O9 0.399749 0.110944 0.656284
O O10 0.428211 0.207389 0.392210
O O11 0.303610 0.094144 0.256692
O O12 0.241288 0.932195 0.182181
O O13 0.330851 0.048519 0.966165
O O14 0.857298 0.159656 0.127486
O O15 0.016244 0.273555 0.037358
O O16 0.143458 0.365687 0.242479
#
# Coordination Sequence:
#
# PCOD9579892 Si02
#       8
#     6   6   6   6   6   6   6   6
#     4  12  26  42  64  93 125 169 216 276 332 389
#     4  12  29  47  67  91 131 180 223 269 342 402
#     4  11  26  37  62  93 122 162 213 273 326 385
#     4  11  22  42  65  89 125 166 218 270 322 396
#     4   9  20  38  57  92 122 161 206 259 324 380
#     4  10  20  37  64  91 127 160 212 263 324 389
#     4   9  20  35  64  90 125 160 210 266 318 393
#     4  10  21  40  63  95 127 170 212 272 328 396
#
# _framework density 19.359486
#
# number of rings (size 3 to 8) (size 9 to 14) (size 15 to 20)
#    0.000    1.500    2.500    1.500    7.000    3.000 
#    0.000    0.000    0.000    0.000    0.000   21.000 
#    0.000    0.000    0.000    0.000    0.000    0.000 
#
# Total GULP energy -267799.061751 kJ/mol
# GULP energy per Si atom -5579.147120 kJ/mol
# Density = 1.931542 g / cm^3
# Si number density = 19.359486 Si / 1000 Ang^3
#
#
#
# Elastic Constant Matrix: (Units=GPa)
#
#
# Indices 1 2 3 4 5 6 
#
# 1 42.4837 30.8465 17.6236 0.0000 0.0000 0.0000
# 2 30.8465 42.4837 17.6236 0.0000 0.0000 0.0000
# 3 17.6236 17.6236 22.9214 0.0000 0.0000 0.0000
# 4 0.0000 0.0000 0.0000 25.9372 0.0000 0.0000
# 5 0.0000 0.0000 0.0000 0.0000 25.9372 0.0000
# 6 0.0000 0.0000 0.0000 0.0000 0.0000 5.8186
#
#
#
# Elastic Compliance Matrix: (Units=1/GPa)
#
#
# Indices 1 2 3 4 5 6 
#
# 1 0.053781 -0.032150 -0.016632 0.000000 0.000000 0.000000
# 2 -0.032150 0.053781 -0.016632 0.000000 0.000000 0.000000
# 3 -0.016632 -0.016632 0.069203 0.000000 0.000000 0.000000
# 4 0.000000 0.000000 0.000000 0.038555 0.000000 0.000000
# 5 0.000000 0.000000 0.000000 0.000000 0.038555 0.000000
# 6 0.000000 0.000000 0.000000 0.000000 0.000000 0.171862
#
#
# Mechanical properties :
#
#
# Convention : Reuss Voigt Hill
#
# Bulk Modulus (GPa) = 21.76823 26.67513 24.22168
# Shear Modulus (GPa) = 8.74316 14.32493 11.53405
#
# Velocity S-wave (km/s) = 2.12744 2.72314 2.44351
# Velocity P-wave (km/s) = 4.15973 4.86786 4.52766
#
# Compressibility (1/GPa) = 0.04593851
#
# Stress axis : x y z
#
# Youngs Moduli (GPa) = 18.59390 18.59390 14.45032
#
# Poissons Ratio (x) = 0.59779 0.24033
# Poissons Ratio (y) = 0.59779 0.24033
# Poissons Ratio (z) = 0.30925 0.30925
#
# Static dielectric constant tensor:
#      x y z
#    x 1.669690 0.000000 0.000000 
#    y 0.000000 1.669690 0.000000 
#    z 0.000000 0.000000 1.741500 
# 
# From -- ./inp_files/772.got.cif
#   From: 2010.05.17/outbox.cif.g08.bks.cpg/sg169_cif.got.tgz:772.got - 2010.05.20 11:12:54.
