data_PCOD9579510
_publ_section_title
;
Structure prediction by ZEFSAII (Michael W. Deem and Ramdas Pophale) SiO2 
 PCOD9579510
Probable space group: R -3 C 
;
_chemical_formula_sum "Si O2"
_cell_formula_units_Z 108
_cell_length_a 19.350746
_cell_length_b 19.350746
_cell_length_c 14.364058
_cell_angle_alpha 90.000000
_cell_angle_beta 90.000000
_cell_angle_gamma 120.000000
_cell_volume 4658.039924
_symmetry_space_group_name_H-M "R -3 C "
_symmetry_group_IT_number 167
_symmetry_cell_setting 'hexagonal'
loop_
_space_group_symop_operation_xyz
x,y,z
-y,x-y,z
-x+y,-x,z
x-y,-y,1/2-z
-x,-x+y,1/2-z
y,x,1/2-z
-x,-y,-z
y,-x+y,-z
x-y,x,-z
-x+y,y,1/2+z
x,x-y,1/2+z
-y,-x,1/2+z
2/3+x,1/3+y,1/3+z
2/3-y,1/3+x-y,1/3+z
2/3-x+y,1/3-x,1/3+z
2/3+x-y,1/3-y,5/6-z
2/3-x,1/3-x+y,5/6-z
2/3+y,1/3+x,5/6-z
2/3-x,1/3-y,1/3-z
2/3+y,1/3-x+y,1/3-z
2/3+x-y,1/3+x,1/3-z
2/3-x+y,1/3+y,5/6+z
2/3+x,1/3+x-y,5/6+z
2/3-y,1/3-x,5/6+z
1/3+x,2/3+y,2/3+z
1/3-y,2/3+x-y,2/3+z
1/3-x+y,2/3-x,2/3+z
1/3+x-y,2/3-y,1/6-z
1/3-x,2/3-x+y,1/6-z
1/3+y,2/3+x,1/6-z
1/3-x,2/3-y,2/3-z
1/3+y,2/3-x+y,2/3-z
1/3+x-y,2/3+x,2/3-z
1/3-x+y,2/3+y,1/6+z
1/3+x,2/3+x-y,1/6+z
1/3-y,2/3-x,1/6+z
loop_
_atom_site_type_symbol
_atom_site_label
_atom_site_fract_x
_atom_site_fract_y
_atom_site_fract_z
Si Si1 0.850218 0.424969 0.112507
Si Si2 0.335397 0.254915 0.802107
Si Si3 0.170472 0.110893 0.987918
O O1 0.816747 0.333334 0.083334
O O2 0.787026 0.453692 0.083334
O O3 0.936804 0.502838 0.090834
O O4 0.862158 0.425329 0.223396
O O5 0.318222 0.318222 0.750000
O O6 0.243497 0.178859 0.043396
O O7 0.333334 0.262569 0.916667
O O8 0.104211 0.132778 0.959083
#
# Coordination Sequence:
#
# PCOD9579510 Si02
#       3
#    36  36  36
#     4  10  20  39  64  92 125 167 219 270 328 399
#     4   9  21  42  66  97 134 174 223 274 335 405
#     4  11  23  41  63  91 128 171 218 274 334 396
#
# _framework density 23.185718000000001
#
# number of rings (size 3 to 8) (size 9 to 14) (size 15 to 20)
#    0.000    2.000    0.000    2.667    0.000    4.000 
#    0.000   36.667    0.000    0.000    0.000    0.000 
#    0.000    0.000    0.000    0.000    0.000    0.000 
#
# Total GULP energy -200652.534245 kJ/mol
# GULP energy per Si atom -5573.681507 kJ/mol
# Density = 2.313295 g / cm^3
# Si number density = 23.185718 Si / 1000 Ang^3
#
#
#
# Elastic Constant Matrix: (Units=GPa)
#
#
# Indices 1 2 3 4 5 6 
#
# 1 169.7624 107.1982 31.4700 -7.0000 -0.0001 0.0000
# 2 107.1982 169.7624 31.4700 7.0000 0.0001 0.0000
# 3 31.4700 31.4700 64.3612 0.0000 0.0000 0.0000
# 4 -7.0000 7.0000 0.0000 36.6919 0.0000 0.0001
# 5 -0.0001 0.0001 0.0000 0.0000 36.6919 -7.0000
# 6 0.0000 0.0000 0.0000 0.0001 -7.0000 31.2821
#
#
#
# Elastic Compliance Matrix: (Units=1/GPa)
#
#
# Indices 1 2 3 4 5 6 
#
# 1 0.010379 -0.006317 -0.001986 0.003185 0.000000 0.000000
# 2 -0.006317 0.010379 -0.001986 -0.003185 0.000000 0.000000
# 3 -0.001986 -0.001986 0.017480 0.000000 0.000000 0.000000
# 4 0.003185 -0.003185 0.000000 0.028469 0.000000 0.000000
# 5 0.000000 0.000000 0.000000 0.000000 0.028469 0.006371
# 6 0.000000 0.000000 0.000000 0.000000 0.006371 0.033393
#
#
# Mechanical properties :
#
#
# Convention : Reuss Voigt Hill
#
# Bulk Modulus (GPa) = 56.62843 82.68474 69.65659
# Shear Modulus (GPa) = 32.25085 36.51633 34.38359
#
# Velocity S-wave (km/s) = 3.73363 3.97287 3.85511
# Velocity P-wave (km/s) = 6.56228 7.53553 7.06568
#
# Compressibility (1/GPa) = 0.01765897
#
# Stress axis : x y z
#
# Youngs Moduli (GPa) = 96.34678 96.34678 57.20959
#
# Poissons Ratio (x) = 0.60864 0.11363
# Poissons Ratio (y) = 0.60864 0.11363
# Poissons Ratio (z) = 0.19136 0.19136
#
# Static dielectric constant tensor:
#      x y z
#    x 1.939500 0.000000 0.000000 
#    y 0.000000 1.939500 0.000000 
#    z 0.000000 0.000000 1.949490 
# 
# From -- ./inp_files/2066.got.cif
#   From: 2010.05.17/outbox.cif.g08.bks.cpg/sg167_2_cif.got.tgz:2066.got - 2010.05.20 11:09:15.
