data_PCOD9579695
_publ_section_title
;
Structure prediction by ZEFSAII (Michael W. Deem and Ramdas Pophale) SiO2 
 PCOD9579695
Probable space group: R -3 C 
;
_chemical_formula_sum "Si O2"
_cell_formula_units_Z 72
_cell_length_a 17.574933
_cell_length_b 17.574933
_cell_length_c 12.690356
_cell_angle_alpha 90.000000
_cell_angle_beta 90.000000
_cell_angle_gamma 120.000000
_cell_volume 3394.624906
_symmetry_space_group_name_H-M "R -3 C "
_symmetry_group_IT_number 167
_symmetry_cell_setting 'hexagonal'
loop_
_space_group_symop_operation_xyz
x,y,z
-y,x-y,z
-x+y,-x,z
x-y,-y,1/2-z
-x,-x+y,1/2-z
y,x,1/2-z
-x,-y,-z
y,-x+y,-z
x-y,x,-z
-x+y,y,1/2+z
x,x-y,1/2+z
-y,-x,1/2+z
2/3+x,1/3+y,1/3+z
2/3-y,1/3+x-y,1/3+z
2/3-x+y,1/3-x,1/3+z
2/3+x-y,1/3-y,5/6-z
2/3-x,1/3-x+y,5/6-z
2/3+y,1/3+x,5/6-z
2/3-x,1/3-y,1/3-z
2/3+y,1/3-x+y,1/3-z
2/3+x-y,1/3+x,1/3-z
2/3-x+y,1/3+y,5/6+z
2/3+x,1/3+x-y,5/6+z
2/3-y,1/3-x,5/6+z
1/3+x,2/3+y,2/3+z
1/3-y,2/3+x-y,2/3+z
1/3-x+y,2/3-x,2/3+z
1/3+x-y,2/3-y,1/6-z
1/3-x,2/3-x+y,1/6-z
1/3+y,2/3+x,1/6-z
1/3-x,2/3-y,2/3-z
1/3+y,2/3-x+y,2/3-z
1/3+x-y,2/3+x,2/3-z
1/3-x+y,2/3+y,1/6+z
1/3+x,2/3+x-y,1/6+z
1/3-y,2/3-x,1/6+z
loop_
_atom_site_type_symbol
_atom_site_label
_atom_site_fract_x
_atom_site_fract_y
_atom_site_fract_z
Si Si1 0.787092 0.264393 0.375064
Si Si2 0.473859 0.436922 0.101343
O O1 0.700132 0.213690 0.304108
O O2 0.779879 0.224167 0.492546
O O3 0.863861 0.250870 0.329033
O O4 0.415237 0.333334 0.083334
O O5 0.500000 0.500000 0.000000
#
# Coordination Sequence:
#
# PCOD9579695 Si02
#       2
#    36  36
#     4  11  25  43  70 103 145 191 247 313 381 460
#     4  11  24  45  69 104 142 195 251 311 379 456
#
# _framework density 21.210001999999999
#
# number of rings (size 3 to 8) (size 9 to 14) (size 15 to 20)
#    0.000    1.000    5.000    0.500    7.000    2.000 
#    0.000    0.000    0.000    0.000    0.000    0.000 
#    0.000    0.000    0.000    0.000    0.000    0.000 
#
# Total GULP energy -133605.103040 kJ/mol
# GULP energy per Si atom -5566.879293 kJ/mol
# Density = 2.116173 g / cm^3
# Si number density = 21.210002 Si / 1000 Ang^3
#
#
#
# Elastic Constant Matrix: (Units=GPa)
#
#
# Indices 1 2 3 4 5 6 
#
# 1 100.4534 28.2653 37.4197 0.4723 0.0000 0.0000
# 2 28.2653 100.4534 37.4197 -0.4723 0.0000 0.0000
# 3 37.4197 37.4197 103.4184 0.0000 0.0000 0.0000
# 4 0.4723 -0.4723 0.0000 35.0303 0.0000 0.0000
# 5 0.0000 0.0000 0.0000 0.0000 35.0303 0.4723
# 6 0.0000 0.0000 0.0000 0.0000 0.4723 36.0940
#
#
#
# Elastic Compliance Matrix: (Units=1/GPa)
#
#
# Indices 1 2 3 4 5 6 
#
# 1 0.011847 -0.002008 -0.003560 -0.000187 0.000000 0.000000
# 2 -0.002008 0.011847 -0.003560 0.000187 0.000000 0.000000
# 3 -0.003560 -0.003560 0.012246 0.000000 0.000000 0.000000
# 4 -0.000187 0.000187 0.000000 0.028552 0.000000 0.000000
# 5 0.000000 0.000000 0.000000 0.000000 0.028552 -0.000374
# 6 0.000000 0.000000 0.000000 0.000000 -0.000374 0.027710
#
#
# Mechanical properties :
#
#
# Convention : Reuss Voigt Hill
#
# Bulk Modulus (GPa) = 56.55046 56.72606 56.63826
# Shear Modulus (GPa) = 34.50567 34.64564 34.57566
#
# Velocity S-wave (km/s) = 4.03781 4.04599 4.04190
# Velocity P-wave (km/s) = 6.96122 6.97350 6.96736
#
# Compressibility (1/GPa) = 0.01768332
#
# Stress axis : x y z
#
# Youngs Moduli (GPa) = 84.41021 84.41021 81.66196
#
# Poissons Ratio (x) = 0.16952 0.29071
# Poissons Ratio (y) = 0.16952 0.29071
# Poissons Ratio (z) = 0.30049 0.30049
#
# Static dielectric constant tensor:
#      x y z
#    x 1.749170 0.000000 0.000000 
#    y 0.000000 1.749170 0.000000 
#    z 0.000000 0.000000 2.046950 
# 
# From -- ./inp_files/1755.got.cif
#   From: 2010.05.17/outbox.cif.g08.bks.cpg/sg167_1_cif.got.tgz:1755.got - 2010.05.20 11:09:15.
