data_PCOD9579319
_publ_section_title
;
Structure prediction by ZEFSAII (Michael W. Deem and Ramdas Pophale) SiO2 
 PCOD9579319
Probable space group: R -3 M
;
_chemical_formula_sum "Si O2"
_cell_formula_units_Z 90
_cell_length_a 26.758119
_cell_length_b 26.758119
_cell_length_c 7.875174
_cell_angle_alpha 90.000000
_cell_angle_beta 90.000000
_cell_angle_gamma 120.000000
_cell_volume 4883.171211
_symmetry_space_group_name_H-M "R -3 M"
_symmetry_group_IT_number 166
_symmetry_cell_setting 'hexagonal'
loop_
_space_group_symop_operation_xyz
x,y,z
-y,x-y,z
-x+y,-x,z
x-y,-y,-z
-x,-x+y,-z
y,x,-z
-x,-y,-z
y,-x+y,-z
x-y,x,-z
-x+y,y,z
x,x-y,z
-y,-x,z
2/3+x,1/3+y,1/3+z
2/3-y,1/3+x-y,1/3+z
2/3-x+y,1/3-x,1/3+z
2/3+x-y,1/3-y,1/3-z
2/3-x,1/3-x+y,1/3-z
2/3+y,1/3+x,1/3-z
2/3-x,1/3-y,1/3-z
2/3+y,1/3-x+y,1/3-z
2/3+x-y,1/3+x,1/3-z
2/3-x+y,1/3+y,1/3+z
2/3+x,1/3+x-y,1/3+z
2/3-y,1/3-x,1/3+z
1/3+x,2/3+y,2/3+z
1/3-y,2/3+x-y,2/3+z
1/3-x+y,2/3-x,2/3+z
1/3+x-y,2/3-y,2/3-z
1/3-x,2/3-x+y,2/3-z
1/3+y,2/3+x,2/3-z
1/3-x,2/3-y,2/3-z
1/3+y,2/3-x+y,2/3-z
1/3+x-y,2/3+x,2/3-z
1/3-x+y,2/3+y,2/3+z
1/3+x,2/3+x-y,2/3+z
1/3-y,2/3-x,2/3+z
loop_
_atom_site_type_symbol
_atom_site_label
_atom_site_fract_x
_atom_site_fract_y
_atom_site_fract_z
Si Si1 0.888837 0.555504 0.833334
Si Si2 0.534485 0.824715 0.510991
Si Si3 0.011986 0.414307 0.689887
O O1 0.850772 0.528396 0.666301
O O2 0.900301 0.619717 0.872277
O O3 0.518224 0.759112 0.495031
O O4 0.502002 0.835335 0.666667
O O5 0.602313 0.864044 0.557384
O O6 0.035556 0.368889 0.666667
O O7 0.000000 0.427157 0.500000
#
# Coordination Sequence:
#
# PCOD9579319 Si02
#       3
#    18  36  36
#     4  12  20  36  60  86 124 166 206 236 274 348
#     4  11  25  41  60  88 120 156 197 247 302 352
#     4  11  18  33  57  85 123 168 200 227 273 338
#
# _framework density 18.430644999999998
#
# number of rings (size 3 to 8) (size 9 to 14) (size 15 to 20)
#    0.000    0.800   10.000    1.200    0.000    5.600 
#    0.000    0.000    0.000    0.400    0.000    1.400 
#    0.000    0.000    0.000    0.000    0.000    0.000 
#
# Total GULP energy -167612.466692 kJ/mol
# GULP energy per Si atom -5587.082223 kJ/mol
# Density = 1.838870 g / cm^3
# Si number density = 18.430645 Si / 1000 Ang^3
#
#
#
# Elastic Constant Matrix: (Units=GPa)
#
#
# Indices 1 2 3 4 5 6 
#
# 1 45.6536 34.3947 16.6873 0.3713 -0.0026 0.0091
# 2 34.3947 45.6413 16.6305 -0.3998 -0.0542 0.0116
# 3 16.6873 16.6305 110.4546 -0.0788 -0.1037 0.0316
# 4 0.3713 -0.3998 -0.0788 -0.9065 -0.0427 0.0126
# 5 -0.0026 -0.0542 -0.1037 -0.0427 -0.9704 0.4230
# 6 0.0091 0.0116 0.0316 0.0126 0.4230 5.6618
#
#
#
# Elastic Compliance Matrix: (Units=1/GPa)
#
#
# Indices 1 2 3 4 5 6 
#
# 1 0.049845 -0.036510 -0.002007 0.036667 0.000456 -0.000110
# 2 -0.036510 0.049835 -0.002014 -0.036716 -0.000804 0.000110
# 3 -0.002007 -0.002014 0.009659 -0.000731 -0.000874 0.000020
# 4 0.036667 -0.036716 -0.000731 -1.074219 0.048805 -0.001237
# 5 0.000456 -0.000804 -0.000874 0.048805 -0.999964 0.074599
# 6 -0.000110 0.000110 0.000020 -0.001237 0.074599 0.171052
#
#
# Mechanical properties :
#
#
# Convention : Reuss Voigt Hill
#
# Bulk Modulus (GPa) = 35.36510 37.46382 36.41446
# Shear Modulus (GPa) = -2.93547 9.69277 3.37865
#
# Velocity S-wave (km/s) = -1.26340 2.29575 1.35541
# Velocity P-wave (km/s) = 4.13541 5.23434 4.71699
#
# Compressibility (1/GPa) = 0.02827647
#
# Stress axis : x y z
#
# Youngs Moduli (GPa) = 20.06200 20.06629 103.53413
#
# Poissons Ratio (x) = 0.73262 0.20778
# Poissons Ratio (y) = 0.73246 0.20856
# Poissons Ratio (z) = 0.04026 0.04042
#
# Static dielectric constant tensor:
#      x y z
#    x 1.631700 0.000000 -0.000030 
#    y 0.000000 1.631720 0.000000 
#    z -0.000030 0.000000 1.663670 
# 
# From -- ./inp_files/1254.got.cif
#   From: 2010.05.17/outbox.cif.g08.bks.cpg/sg166_1_cif.got.tgz:1254.got - 2010.05.20 11:04:41.
