data_PCOD9579326
_publ_section_title
;
Structure prediction by ZEFSAII (Michael W. Deem and Ramdas Pophale) SiO2 
 PCOD9579326
Probable space group: R -3 M
;
_chemical_formula_sum "Si O2"
_cell_formula_units_Z 144
_cell_length_a 22.982026
_cell_length_b 22.982026
_cell_length_c 16.218628
_cell_angle_alpha 90.000000
_cell_angle_beta 90.000000
_cell_angle_gamma 120.000000
_cell_volume 7418.589964
_symmetry_space_group_name_H-M "R -3 M"
_symmetry_group_IT_number 166
_symmetry_cell_setting 'hexagonal'
loop_
_space_group_symop_operation_xyz
x,y,z
-y,x-y,z
-x+y,-x,z
x-y,-y,-z
-x,-x+y,-z
y,x,-z
-x,-y,-z
y,-x+y,-z
x-y,x,-z
-x+y,y,z
x,x-y,z
-y,-x,z
2/3+x,1/3+y,1/3+z
2/3-y,1/3+x-y,1/3+z
2/3-x+y,1/3-x,1/3+z
2/3+x-y,1/3-y,1/3-z
2/3-x,1/3-x+y,1/3-z
2/3+y,1/3+x,1/3-z
2/3-x,1/3-y,1/3-z
2/3+y,1/3-x+y,1/3-z
2/3+x-y,1/3+x,1/3-z
2/3-x+y,1/3+y,1/3+z
2/3+x,1/3+x-y,1/3+z
2/3-y,1/3-x,1/3+z
1/3+x,2/3+y,2/3+z
1/3-y,2/3+x-y,2/3+z
1/3-x+y,2/3-x,2/3+z
1/3+x-y,2/3-y,2/3-z
1/3-x,2/3-x+y,2/3-z
1/3+y,2/3+x,2/3-z
1/3-x,2/3-y,2/3-z
1/3+y,2/3-x+y,2/3-z
1/3+x-y,2/3+x,2/3-z
1/3-x+y,2/3+y,2/3+z
1/3+x,2/3+x-y,2/3+z
1/3-y,2/3-x,2/3+z
loop_
_atom_site_type_symbol
_atom_site_label
_atom_site_fract_x
_atom_site_fract_y
_atom_site_fract_z
Si Si1 0.673377 0.950633 0.094834
Si Si2 0.475220 0.399082 0.469635
Si Si3 0.961016 0.177593 0.321713
Si Si4 0.012174 0.506087 0.866029
Si Si5 0.442350 0.557651 0.018509
O O1 0.643719 0.977052 0.166667
O O2 0.684214 0.896141 0.140483
O O3 0.749471 0.010796 0.080973
O O4 0.615540 0.910995 0.025771
O O5 0.443663 0.443663 0.500000
O O6 0.548229 0.451772 0.432706
O O7 0.484703 0.369103 0.555401
O O8 0.890096 0.109905 0.342581
O O9 0.027934 0.178060 0.352973
O O10 0.068776 0.534388 0.936415
O O11 0.939193 0.469597 0.908630
#
# Coordination Sequence:
#
# PCOD9579326 Si02
#       5
#    36  36  36  18  18
#     4  11  20  32  55  78 108 143 183 228 281 329
#     4   9  20  35  51  76 109 140 175 222 282 339
#     4  11  22  36  55  80 111 148 191 237 281 334
#     4  11  20  32  52  81 106 141 188 232 273 330
#     4  11  22  36  54  79 109 147 190 234 280 337
#
# _framework density 19.410696999999999
#
# number of rings (size 3 to 8) (size 9 to 14) (size 15 to 20)
#    0.000    1.500    6.250    0.000    0.000    4.000 
#    0.750    0.000    0.000    0.000    0.000    2.625 
#    0.000    0.000    0.000    0.000    0.000  109.375 
#
# Total GULP energy -267501.651506 kJ/mol
# GULP energy per Si atom -5572.951073 kJ/mol
# Density = 1.936652 g / cm^3
# Si number density = 19.410697 Si / 1000 Ang^3
#
#
#
# Elastic Constant Matrix: (Units=GPa)
#
#
# Indices 1 2 3 4 5 6 
#
# 1 126.6535 66.0263 35.4501 -2.8336 -0.0003 0.0000
# 2 66.0263 126.6535 35.4501 2.8336 0.0003 0.0000
# 3 35.4501 35.4501 60.7467 0.0000 0.0000 0.0000
# 4 -2.8336 2.8336 0.0000 9.9661 0.0000 0.0003
# 5 -0.0003 0.0003 0.0000 0.0000 9.9661 -2.8336
# 6 0.0000 0.0000 0.0000 0.0003 -2.8336 30.3136
#
#
#
# Elastic Compliance Matrix: (Units=1/GPa)
#
#
# Indices 1 2 3 4 5 6 
#
# 1 0.011777 -0.005168 -0.003857 0.004818 0.000000 0.000000
# 2 -0.005168 0.011777 -0.003857 -0.004818 0.000000 0.000000
# 3 -0.003857 -0.003857 0.020963 0.000000 0.000000 0.000000
# 4 0.004818 -0.004818 0.000000 0.103080 0.000000 -0.000001
# 5 0.000000 0.000000 0.000000 0.000000 0.103080 0.009636
# 6 0.000000 0.000000 0.000000 -0.000001 0.009636 0.033889
#
#
# Mechanical properties :
#
#
# Convention : Reuss Voigt Hill
#
# Bulk Modulus (GPa) = 53.32189 65.32295 59.32242
# Shear Modulus (GPa) = 15.79375 21.85763 18.82569
#
# Velocity S-wave (km/s) = 2.85557 3.35932 3.11764
# Velocity P-wave (km/s) = 6.19697 6.98376 6.60209
#
# Compressibility (1/GPa) = 0.01875402
#
# Stress axis : x y z
#
# Youngs Moduli (GPa) = 84.91199 84.91199 47.70223
#
# Poissons Ratio (x) = 0.43880 0.18398
# Poissons Ratio (y) = 0.43880 0.18398
# Poissons Ratio (z) = 0.32750 0.32750
#
# Static dielectric constant tensor:
#      x y z
#    x 1.707290 0.000000 0.000000 
#    y 0.000000 1.707290 0.000000 
#    z 0.000000 0.000000 1.916810 
# 
# From -- ./inp_files/5301.got.cif
#   From: 2010.05.17/outbox.cif.g08.bks.cpg/sg166_3_cif.got.tgz:5301.got - 2010.05.20 11:04:41.
