data_PCOD9579566
_publ_section_title
;
Structure prediction by ZEFSAII (Michael W. Deem and Ramdas Pophale) SiO2 
 PCOD9579566
Probable space group: R -3 C 
;
_chemical_formula_sum "Si O2"
_cell_formula_units_Z 162
_cell_length_a 24.547397
_cell_length_b 24.547397
_cell_length_c 13.505867
_cell_angle_alpha 90.000000
_cell_angle_beta 90.000000
_cell_angle_gamma 120.000000
_cell_volume 7047.969130
_symmetry_space_group_name_H-M "R -3 C "
_symmetry_group_IT_number 167
_symmetry_cell_setting 'hexagonal'
loop_
_space_group_symop_operation_xyz
x,y,z
-y,x-y,z
-x+y,-x,z
x-y,-y,1/2-z
-x,-x+y,1/2-z
y,x,1/2-z
-x,-y,-z
y,-x+y,-z
x-y,x,-z
-x+y,y,1/2+z
x,x-y,1/2+z
-y,-x,1/2+z
2/3+x,1/3+y,1/3+z
2/3-y,1/3+x-y,1/3+z
2/3-x+y,1/3-x,1/3+z
2/3+x-y,1/3-y,5/6-z
2/3-x,1/3-x+y,5/6-z
2/3+y,1/3+x,5/6-z
2/3-x,1/3-y,1/3-z
2/3+y,1/3-x+y,1/3-z
2/3+x-y,1/3+x,1/3-z
2/3-x+y,1/3+y,5/6+z
2/3+x,1/3+x-y,5/6+z
2/3-y,1/3-x,5/6+z
1/3+x,2/3+y,2/3+z
1/3-y,2/3+x-y,2/3+z
1/3-x+y,2/3-x,2/3+z
1/3+x-y,2/3-y,1/6-z
1/3-x,2/3-x+y,1/6-z
1/3+y,2/3+x,1/6-z
1/3-x,2/3-y,2/3-z
1/3+y,2/3-x+y,2/3-z
1/3+x-y,2/3+x,2/3-z
1/3-x+y,2/3+y,1/6+z
1/3+x,2/3+x-y,1/6+z
1/3-y,2/3-x,1/6+z
loop_
_atom_site_type_symbol
_atom_site_label
_atom_site_fract_x
_atom_site_fract_y
_atom_site_fract_z
Si Si1 0.215758 0.955898 0.015388
Si Si2 0.830320 0.496986 0.083334
Si Si3 0.990139 0.118031 0.468191
Si Si4 0.708357 0.884001 0.714232
Si Si5 0.934149 0.675806 0.296534
O O1 0.173982 0.984430 0.978842
O O2 0.174635 0.905186 0.100301
O O3 0.276695 0.012897 0.066192
O O4 0.229104 0.913101 0.941306
O O5 0.802735 0.458511 0.183274
O O6 0.834262 0.564052 0.103824
O O7 0.053754 0.121946 0.498954
O O8 0.687763 0.811241 0.729043
O O9 0.931877 0.666667 0.416667
O O10 0.000000 0.729316 0.250000
#
# Coordination Sequence:
#
# PCOD9579566 Si02
#       5
#    36  18  36  36  36
#     4  10  21  43  72 103 151 189 241 310 368 460
#     4  10  26  46  70 108 150 192 254 302 370 474
#     4  11  25  46  74 104 142 194 247 312 379 442
#     4  10  21  46  69 105 155 192 241 313 368 454
#     4  12  25  42  75 112 149 198 250 306 383 458
#
# _framework density 22.985344999999999
#
# number of rings (size 3 to 8) (size 9 to 14) (size 15 to 20)
#    0.000    1.333    4.444    1.556    4.667    2.667 
#    0.000    6.667    0.000    0.000    0.000    0.000 
#    0.000    0.000    0.000    0.000    0.000    0.000 
#
# Total GULP energy -301726.159975 kJ/mol
# GULP energy per Si atom -5587.521481 kJ/mol
# Density = 2.293303 g / cm^3
# Si number density = 22.985345 Si / 1000 Ang^3
#
#
#
# Elastic Constant Matrix: (Units=GPa)
#
#
# Indices 1 2 3 4 5 6 
#
# 1 142.3547 102.6823 27.4850 31.1873 0.0005 0.0000
# 2 102.6823 142.3547 27.4850 -31.1873 -0.0005 0.0000
# 3 27.4850 27.4850 99.2093 0.0000 0.0000 -0.0001
# 4 31.1873 -31.1873 0.0000 18.9430 0.0000 -0.0005
# 5 0.0005 -0.0005 0.0000 0.0000 18.9430 31.1873
# 6 0.0000 0.0000 -0.0001 -0.0005 31.1873 19.8362
#
#
#
# Elastic Compliance Matrix: (Units=1/GPa)
#
#
# Indices 1 2 3 4 5 6 
#
# 1 -0.005758 0.010110 -0.001206 0.026125 0.000000 0.000000
# 2 0.010110 -0.005758 -0.001206 -0.026125 0.000000 0.000000
# 3 -0.001206 -0.001206 0.010748 0.000000 0.000000 0.000000
# 4 0.026125 -0.026125 0.000000 -0.033233 0.000000 -0.000001
# 5 0.000000 0.000000 0.000000 0.000000 -0.033233 0.052250
# 6 0.000000 0.000000 0.000000 -0.000001 0.052250 -0.031736
#
#
# Mechanical properties :
#
#
# Convention : Reuss Voigt Hill
#
# Bulk Modulus (GPa) = 68.35991 77.69147 73.02569
# Shear Modulus (GPa) = -45.66534 26.62888 -9.51823
#
# Velocity S-wave (km/s) = -4.46209 3.40739 -2.03715
# Velocity P-wave (km/s) = 1.80504 7.02526 5.12896
#
# Compressibility (1/GPa) = 0.01462846
#
# Stress axis : x y z
#
# Youngs Moduli (GPa) = -173.66084 -173.66087 93.04350
#
# Poissons Ratio (x) = 1.75568 0.11217
# Poissons Ratio (y) = 1.75568 0.11217
# Poissons Ratio (z) = -0.20935 -0.20935
#
# Static dielectric constant tensor:
#      x y z
#    x 1.872640 0.000000 0.000000 
#    y 0.000000 1.872640 0.000000 
#    z 0.000000 0.000000 1.933630 
# 
# From -- ./inp_files/3450.got.cif
#   From: 2010.05.17/outbox.cif.g08.bks.cpg/sg167_2_cif.got.tgz:3450.got - 2010.05.20 11:09:15.
