data_PCOD9579227
_publ_section_title
;
Structure prediction by ZEFSAII (Michael W. Deem and Ramdas Pophale) SiO2 
 PCOD9579227
Probable space group: R -3 M
;
_chemical_formula_sum "Si O2"
_cell_formula_units_Z 132
_cell_length_a 29.170982
_cell_length_b 29.170982
_cell_length_c 9.320903
_cell_angle_alpha 90.000000
_cell_angle_beta 90.000000
_cell_angle_gamma 120.000000
_cell_volume 6868.955750
_symmetry_space_group_name_H-M "R -3 M"
_symmetry_group_IT_number 166
_symmetry_cell_setting 'hexagonal'
loop_
_space_group_symop_operation_xyz
x,y,z
-y,x-y,z
-x+y,-x,z
x-y,-y,-z
-x,-x+y,-z
y,x,-z
-x,-y,-z
y,-x+y,-z
x-y,x,-z
-x+y,y,z
x,x-y,z
-y,-x,z
2/3+x,1/3+y,1/3+z
2/3-y,1/3+x-y,1/3+z
2/3-x+y,1/3-x,1/3+z
2/3+x-y,1/3-y,1/3-z
2/3-x,1/3-x+y,1/3-z
2/3+y,1/3+x,1/3-z
2/3-x,1/3-y,1/3-z
2/3+y,1/3-x+y,1/3-z
2/3+x-y,1/3+x,1/3-z
2/3-x+y,1/3+y,1/3+z
2/3+x,1/3+x-y,1/3+z
2/3-y,1/3-x,1/3+z
1/3+x,2/3+y,2/3+z
1/3-y,2/3+x-y,2/3+z
1/3-x+y,2/3-x,2/3+z
1/3+x-y,2/3-y,2/3-z
1/3-x,2/3-x+y,2/3-z
1/3+y,2/3+x,2/3-z
1/3-x,2/3-y,2/3-z
1/3+y,2/3-x+y,2/3-z
1/3+x-y,2/3+x,2/3-z
1/3-x+y,2/3+y,2/3+z
1/3+x,2/3+x-y,2/3+z
1/3-y,2/3-x,2/3+z
loop_
_atom_site_type_symbol
_atom_site_label
_atom_site_fract_x
_atom_site_fract_y
_atom_site_fract_z
Si Si1 0.704025 0.949226 0.193424
Si Si2 0.444468 0.888935 0.257166
Si Si3 0.716032 0.432063 0.937543
Si Si4 0.000000 0.000000 0.179820
Si Si5 0.802605 0.605209 0.613965
Si Si6 0.266299 0.374196 0.942232
O O1 0.666667 0.933392 0.333334
O O2 0.732164 0.913459 0.194804
O O3 0.747163 0.010428 0.199007
O O4 0.663239 0.931826 0.064274
O O5 0.413828 0.827656 0.300061
O O6 0.503544 0.918534 0.320476
O O7 0.450266 0.900532 0.085890
O O8 0.666667 0.418373 0.833334
O O9 0.696033 0.392065 0.075694
O O10 0.000000 0.000000 0.000000
O O11 0.833334 0.666667 0.666667
O O12 0.222441 0.333334 0.833334
#
# Coordination Sequence:
#
# PCOD9579227 Si02
#       6
#    36  18  18   6  18  36
#     4  11  21  38  59  84 110 161 217 254 312 374
#     4  12  24  39  62  93 129 165 206 273 326 362
#     4   9  22  42  72 106 126 165 218 261 317 388
#     4   9  19  50  79  99 145 170 202 261 328 413
#     4  10  20  37  57  84 115 158 207 263 310 368
#     4  12  24  39  59  85 126 167 211 262 318 383
#
# _framework density 19.216895000000001
#
# number of rings (size 3 to 8) (size 9 to 14) (size 15 to 20)
#    0.000    1.091    5.455    4.227    3.818    0.000 
#    0.000    2.727    0.000    0.000    0.000    0.000 
#    0.000    0.000    0.000    0.000    0.000    0.000 
#
# Total GULP energy -245649.983922 kJ/mol
# GULP energy per Si atom -5582.954180 kJ/mol
# Density = 1.917316 g / cm^3
# Si number density = 19.216895 Si / 1000 Ang^3
#
#
#
# Elastic Constant Matrix: (Units=GPa)
#
#
# Indices 1 2 3 4 5 6 
#
# 1 129.9657 70.7300 29.1672 -6.0156 0.0003 -0.0077
# 2 70.7300 129.9695 29.1550 5.9844 -0.0478 -0.0024
# 3 29.1672 29.1550 68.5317 -0.0251 -0.1195 -0.0352
# 4 -6.0156 5.9844 -0.0251 31.8982 -0.0015 -0.0214
# 5 0.0003 -0.0478 -0.1195 -0.0015 31.6272 -5.9120
# 6 -0.0077 -0.0024 -0.0352 -0.0214 -5.9120 29.5742
#
#
#
# Elastic Compliance Matrix: (Units=1/GPa)
#
#
# Indices 1 2 3 4 5 6 
#
# 1 0.011619 -0.005932 -0.002420 0.003302 -0.000018 -0.000002
# 2 -0.005932 0.011617 -0.002419 -0.003300 0.000008 -0.000004
# 3 -0.002420 -0.002419 0.016651 0.000010 0.000065 0.000032
# 4 0.003302 -0.003300 0.000010 0.032592 0.000001 0.000024
# 5 -0.000018 0.000008 0.000065 0.000001 0.032846 0.006566
# 6 -0.000002 -0.000004 0.000032 0.000024 0.006566 0.035126
#
#
# Mechanical properties :
#
#
# Convention : Reuss Voigt Hill
#
# Bulk Modulus (GPa) = 54.51126 65.17461 59.84293
# Shear Modulus (GPa) = 29.74305 31.91423 30.82864
#
# Velocity S-wave (km/s) = 3.93842 4.07964 4.00965
# Velocity P-wave (km/s) = 7.00781 7.49534 7.25567
#
# Compressibility (1/GPa) = 0.01834483
#
# Stress axis : x y z
#
# Youngs Moduli (GPa) = 86.06825 86.08158 60.05707
#
# Poissons Ratio (x) = 0.51065 0.14534
# Poissons Ratio (y) = 0.51057 0.14525
# Poissons Ratio (z) = 0.20829 0.20819
#
# Static dielectric constant tensor:
#      x y z
#    x 1.680010 0.000000 -0.000020 
#    y 0.000000 1.680010 -0.000010 
#    z -0.000020 -0.000010 1.700160 
# 
# From -- ./inp_files/1878.got.cif
#   From: 2010.05.17/outbox.cif.g08.bks.cpg/sg166_1_cif.got.tgz:1878.got - 2010.05.20 11:04:41.
