data_PCOD9579337
_publ_section_title
;
Structure prediction by ZEFSAII (Michael W. Deem and Ramdas Pophale) SiO2 
 PCOD9579337
Probable space group: R -3 M
;
_chemical_formula_sum "Si O2"
_cell_formula_units_Z 198
_cell_length_a 22.248614
_cell_length_b 22.248614
_cell_length_c 27.362167
_cell_angle_alpha 90.000000
_cell_angle_beta 90.000000
_cell_angle_gamma 120.000000
_cell_volume 11729.703751
_symmetry_space_group_name_H-M "R -3 M"
_symmetry_group_IT_number 166
_symmetry_cell_setting 'hexagonal'
loop_
_space_group_symop_operation_xyz
x,y,z
-y,x-y,z
-x+y,-x,z
x-y,-y,-z
-x,-x+y,-z
y,x,-z
-x,-y,-z
y,-x+y,-z
x-y,x,-z
-x+y,y,z
x,x-y,z
-y,-x,z
2/3+x,1/3+y,1/3+z
2/3-y,1/3+x-y,1/3+z
2/3-x+y,1/3-x,1/3+z
2/3+x-y,1/3-y,1/3-z
2/3-x,1/3-x+y,1/3-z
2/3+y,1/3+x,1/3-z
2/3-x,1/3-y,1/3-z
2/3+y,1/3-x+y,1/3-z
2/3+x-y,1/3+x,1/3-z
2/3-x+y,1/3+y,1/3+z
2/3+x,1/3+x-y,1/3+z
2/3-y,1/3-x,1/3+z
1/3+x,2/3+y,2/3+z
1/3-y,2/3+x-y,2/3+z
1/3-x+y,2/3-x,2/3+z
1/3+x-y,2/3-y,2/3-z
1/3-x,2/3-x+y,2/3-z
1/3+y,2/3+x,2/3-z
1/3-x,2/3-y,2/3-z
1/3+y,2/3-x+y,2/3-z
1/3+x-y,2/3+x,2/3-z
1/3-x+y,2/3+y,2/3+z
1/3+x,2/3+x-y,2/3+z
1/3-y,2/3-x,2/3+z
loop_
_atom_site_type_symbol
_atom_site_label
_atom_site_fract_x
_atom_site_fract_y
_atom_site_fract_z
Si Si1 0.063054 0.602580 0.293487
Si Si2 0.400602 0.130023 0.522481
Si Si3 0.333334 0.809693 0.666667
Si Si4 0.908388 0.582942 0.412874
Si Si5 0.047778 0.810810 0.454146
Si Si6 0.059348 0.459206 0.408462
O O1 0.066121 0.533061 0.281700
O O2 0.115614 0.666157 0.259997
O O3 0.075591 0.616536 0.351035
O O4 0.986222 0.588008 0.280862
O O5 0.415727 0.207864 0.529438
O O6 0.415090 0.118513 0.466801
O O7 0.318692 0.079716 0.533727
O O8 0.443400 0.108705 0.558335
O O9 0.402022 0.804044 0.668319
O O10 0.335253 0.854123 0.619513
O O11 0.980742 0.583678 0.416396
O O12 0.112372 0.887629 0.448064
O O13 0.000000 0.804490 0.500000
O O14 0.064447 0.532223 0.420100
#
# Coordination Sequence:
#
# PCOD9579337 Si02
#       6
#    36  36  18  36  36  36
#     4  11  21  37  59  85 118 156 195 238 295 353
#     4  11  23  38  58  86 119 155 194 240 296 352
#     4  12  25  40  60  86 119 160 204 248 298 362
#     4  12  21  38  59  86 117 155 196 240 298 355
#     4  11  21  35  58  88 121 156 193 241 291 347
#     4  11  23  38  60  89 120 152 194 247 295 349
#
# _framework density 16.880222
#
# number of rings (size 3 to 8) (size 9 to 14) (size 15 to 20)
#    0.000    0.727    5.455    3.364    0.000    2.909 
#    0.000    1.818    0.000    3.636    0.000    0.000 
#    0.000    0.000    0.000    0.000    0.000    0.000 
#
# Total GULP energy -369048.045991 kJ/mol
# GULP energy per Si atom -5591.637060 kJ/mol
# Density = 1.684180 g / cm^3
# Si number density = 16.880222 Si / 1000 Ang^3
#
#
#
# Elastic Constant Matrix: (Units=GPa)
#
#
# Indices 1 2 3 4 5 6 
#
# 1 101.7876 52.5845 47.0430 1.7552 0.0001 0.0000
# 2 52.5845 101.7876 47.0430 -1.7552 -0.0001 0.0000
# 3 47.0430 47.0430 74.7360 0.0000 0.0000 0.0000
# 4 1.7552 -1.7552 0.0000 7.7873 0.0000 -0.0001
# 5 0.0001 -0.0001 0.0000 0.0000 7.7873 1.7552
# 6 0.0000 0.0000 0.0000 -0.0001 1.7552 24.6015
#
#
#
# Elastic Compliance Matrix: (Units=1/GPa)
#
#
# Indices 1 2 3 4 5 6 
#
# 1 0.015583 -0.005073 -0.006615 -0.004656 0.000000 0.000000
# 2 -0.005073 0.015583 -0.006615 0.004656 0.000000 0.000000
# 3 -0.006615 -0.006615 0.021709 0.000000 0.000000 0.000000
# 4 -0.004656 0.004656 0.000000 0.130513 0.000000 0.000000
# 5 0.000000 0.000000 0.000000 0.000000 0.130513 -0.009312
# 6 0.000000 0.000000 0.000000 0.000000 -0.009312 0.041312
#
#
# Mechanical properties :
#
#
# Convention : Reuss Voigt Hill
#
# Bulk Modulus (GPa) = 61.47605 63.51690 62.49648
# Shear Modulus (GPa) = 12.58672 16.81126 14.69899
#
# Velocity S-wave (km/s) = 2.73362 3.15924 2.95410
# Velocity P-wave (km/s) = 6.81628 7.14264 6.98137
#
# Compressibility (1/GPa) = 0.01626650
#
# Stress axis : x y z
#
# Youngs Moduli (GPa) = 64.17264 64.17264 46.06451
#
# Poissons Ratio (x) = 0.32556 0.30474
# Poissons Ratio (y) = 0.32556 0.30474
# Poissons Ratio (z) = 0.42453 0.42453
#
# Static dielectric constant tensor:
#      x y z
#    x 1.548090 0.000000 0.000000 
#    y 0.000000 1.548090 0.000000 
#    z 0.000000 0.000000 1.562930 
# 
# From -- ./inp_files/9578.got.cif
#   From: 2010.05.17/outbox.cif.g08.bks.cpg/sg166_5_cif.got.tgz:9578.got - 2010.05.20 11:04:41.
