data_PCOD9579063
_publ_section_title
;
Structure prediction by ZEFSAII (Michael W. Deem and Ramdas Pophale) SiO2 
 PCOD9579063
Probable space group: R -3 M
;
_chemical_formula_sum "Si O2"
_cell_formula_units_Z 162
_cell_length_a 27.398331
_cell_length_b 27.398331
_cell_length_c 14.591658
_cell_angle_alpha 90.000000
_cell_angle_beta 90.000000
_cell_angle_gamma 120.000000
_cell_volume 9486.008074
_symmetry_space_group_name_H-M "R -3 M"
_symmetry_group_IT_number 166
_symmetry_cell_setting 'hexagonal'
loop_
_space_group_symop_operation_xyz
x,y,z
-y,x-y,z
-x+y,-x,z
x-y,-y,-z
-x,-x+y,-z
y,x,-z
-x,-y,-z
y,-x+y,-z
x-y,x,-z
-x+y,y,z
x,x-y,z
-y,-x,z
2/3+x,1/3+y,1/3+z
2/3-y,1/3+x-y,1/3+z
2/3-x+y,1/3-x,1/3+z
2/3+x-y,1/3-y,1/3-z
2/3-x,1/3-x+y,1/3-z
2/3+y,1/3+x,1/3-z
2/3-x,1/3-y,1/3-z
2/3+y,1/3-x+y,1/3-z
2/3+x-y,1/3+x,1/3-z
2/3-x+y,1/3+y,1/3+z
2/3+x,1/3+x-y,1/3+z
2/3-y,1/3-x,1/3+z
1/3+x,2/3+y,2/3+z
1/3-y,2/3+x-y,2/3+z
1/3-x+y,2/3-x,2/3+z
1/3+x-y,2/3-y,2/3-z
1/3-x,2/3-x+y,2/3-z
1/3+y,2/3+x,2/3-z
1/3-x,2/3-y,2/3-z
1/3+y,2/3-x+y,2/3-z
1/3+x-y,2/3+x,2/3-z
1/3-x+y,2/3+y,2/3+z
1/3+x,2/3+x-y,2/3+z
1/3-y,2/3-x,2/3+z
loop_
_atom_site_type_symbol
_atom_site_label
_atom_site_fract_x
_atom_site_fract_y
_atom_site_fract_z
Si Si1 0.492606 0.333334 0.833334
Si Si2 0.100499 0.607248 0.446682
Si Si3 0.220415 0.667574 0.351272
Si Si4 0.992237 0.715613 0.891942
Si Si5 0.868736 0.624386 0.918245
O O1 0.521589 0.322954 0.746087
O O2 0.431164 0.281404 0.857197
O O3 0.089182 0.544591 0.471916
O O4 0.165732 0.643530 0.416415
O O5 0.087623 0.641258 0.522692
O O6 0.062626 0.599944 0.355949
O O7 0.234250 0.617125 0.341256
O O8 0.274988 0.725013 0.381632
O O9 0.925073 0.677410 0.881316
O O10 0.018111 0.684778 0.833334
O O11 0.000000 0.713490 0.000000
O O12 0.819057 0.638113 0.918295
#
# Coordination Sequence:
#
# PCOD9579063 Si02
#       5
#    18  36  36  36  36
#     4  10  18  32  51  78 119 158 196 232 282 342
#     4   9  21  39  57  80 113 150 188 237 288 337
#     4  10  19  33  54  81 114 152 194 239 287 339
#     4  12  23  38  60  86 114 148 190 239 284 342
#     4  10  20  35  56  81 114 154 191 231 287 339
#
# _framework density 17.077784999999999
#
# number of rings (size 3 to 8) (size 9 to 14) (size 15 to 20)
#    0.000    1.778    3.333    3.556    0.000    2.222 
#    0.000    1.111    0.000    4.667    0.000    0.000 
#    0.000    4.444    0.000    0.000    0.000    0.000 
#
# Total GULP energy -301136.719341 kJ/mol
# GULP energy per Si atom -5576.605914 kJ/mol
# Density = 1.703892 g / cm^3
# Si number density = 17.077785 Si / 1000 Ang^3
#
#
#
# Elastic Constant Matrix: (Units=GPa)
#
#
# Indices 1 2 3 4 5 6 
#
# 1 105.9630 64.6787 45.6483 8.8311 0.0001 0.0000
# 2 64.6787 105.9630 45.6483 -8.8311 -0.0001 0.0000
# 3 45.6483 45.6483 83.3830 0.0000 0.0001 0.0000
# 4 8.8311 -8.8311 0.0000 17.0814 0.0000 -0.0001
# 5 0.0001 -0.0001 0.0001 0.0000 17.0814 8.8311
# 6 0.0000 0.0000 0.0000 -0.0001 8.8311 20.6421
#
#
#
# Elastic Compliance Matrix: (Units=1/GPa)
#
#
# Indices 1 2 3 4 5 6 
#
# 1 0.019695 -0.011407 -0.004537 -0.016080 0.000000 0.000000
# 2 -0.011407 0.019695 -0.004537 0.016080 0.000000 0.000000
# 3 -0.004537 -0.004537 0.016961 0.000000 0.000000 0.000000
# 4 -0.016080 0.016080 0.000000 0.075170 0.000000 0.000000
# 5 0.000000 0.000000 0.000000 0.000000 0.075170 -0.032159
# 6 0.000000 0.000000 0.000000 0.000000 -0.032159 0.062203
#
#
# Mechanical properties :
#
#
# Convention : Reuss Voigt Hill
#
# Bulk Modulus (GPa) = 64.98798 67.47329 66.23063
# Shear Modulus (GPa) = 15.87385 20.24988 18.06187
#
# Velocity S-wave (km/s) = 3.05208 3.44720 3.25564
# Velocity P-wave (km/s) = 7.11034 7.44576 7.27999
#
# Compressibility (1/GPa) = 0.01538746
#
# Stress axis : x y z
#
# Youngs Moduli (GPa) = 50.77539 50.77542 58.96025
#
# Poissons Ratio (x) = 0.57919 0.26751
# Poissons Ratio (y) = 0.57919 0.26751
# Poissons Ratio (z) = 0.23037 0.23037
#
# Static dielectric constant tensor:
#      x y z
#    x 1.584670 0.000000 0.000000 
#    y 0.000000 1.584670 0.000000 
#    z 0.000000 0.000000 1.575490 
# 
# From -- ./inp_files/4163.got.cif
#   From: 2010.05.17/outbox.cif.g08.bks.cpg/sg166_3_cif.got.tgz:4163.got - 2010.05.20 11:04:41.
