data_PCOD9579537
_publ_section_title
;
Structure prediction by ZEFSAII (Michael W. Deem and Ramdas Pophale) SiO2 
 PCOD9579537
Probable space group: R -3 C 
;
_chemical_formula_sum "Si O2"
_cell_formula_units_Z 138
_cell_length_a 16.485017
_cell_length_b 16.485017
_cell_length_c 28.866580
_cell_angle_alpha 90.000000
_cell_angle_beta 90.000000
_cell_angle_gamma 120.000000
_cell_volume 6793.674950
_symmetry_space_group_name_H-M "R -3 C "
_symmetry_group_IT_number 167
_symmetry_cell_setting 'hexagonal'
loop_
_space_group_symop_operation_xyz
x,y,z
-y,x-y,z
-x+y,-x,z
x-y,-y,1/2-z
-x,-x+y,1/2-z
y,x,1/2-z
-x,-y,-z
y,-x+y,-z
x-y,x,-z
-x+y,y,1/2+z
x,x-y,1/2+z
-y,-x,1/2+z
2/3+x,1/3+y,1/3+z
2/3-y,1/3+x-y,1/3+z
2/3-x+y,1/3-x,1/3+z
2/3+x-y,1/3-y,5/6-z
2/3-x,1/3-x+y,5/6-z
2/3+y,1/3+x,5/6-z
2/3-x,1/3-y,1/3-z
2/3+y,1/3-x+y,1/3-z
2/3+x-y,1/3+x,1/3-z
2/3-x+y,1/3+y,5/6+z
2/3+x,1/3+x-y,5/6+z
2/3-y,1/3-x,5/6+z
1/3+x,2/3+y,2/3+z
1/3-y,2/3+x-y,2/3+z
1/3-x+y,2/3-x,2/3+z
1/3+x-y,2/3-y,1/6-z
1/3-x,2/3-x+y,1/6-z
1/3+y,2/3+x,1/6-z
1/3-x,2/3-y,2/3-z
1/3+y,2/3-x+y,2/3-z
1/3+x-y,2/3+x,2/3-z
1/3-x+y,2/3+y,1/6+z
1/3+x,2/3+x-y,1/6+z
1/3-y,2/3-x,1/6+z
loop_
_atom_site_type_symbol
_atom_site_label
_atom_site_fract_x
_atom_site_fract_y
_atom_site_fract_z
Si Si1 0.622862 0.486495 0.033197
Si Si2 0.969910 0.303243 0.916667
Si Si3 0.666668 0.333334 0.389030
Si Si4 0.567074 0.151314 0.218325
Si Si5 0.016353 0.268769 0.334862
O O1 0.666667 0.492171 0.083334
O O2 0.617229 0.581292 0.024750
O O3 0.687879 0.474757 0.995153
O O4 0.516181 0.408192 0.022727
O O5 0.955418 0.203115 0.903978
O O6 0.009580 0.374321 0.873816
O O7 0.666668 0.333335 0.333334
O O8 0.704828 0.435817 0.411420
O O9 0.615108 0.091186 0.203876
#
# Coordination Sequence:
#
# PCOD9579537 Si02
#       5
#    36  18  12  36  36
#     4  10  21  38  67  96 129 175 214 283 337 384
#     4  10  24  40  66 100 132 186 216 280 340 410
#     4  12  27  48  67  95 133 177 225 288 340 416
#     4  11  23  45  66  97 135 176 228 276 348 408
#     4  10  21  40  63  94 139 166 227 274 331 403
#
# _framework density 20.313010999999999
#
# number of rings (size 3 to 8) (size 9 to 14) (size 15 to 20)
#    0.000    1.565    2.609    1.565    1.826    2.087 
#    4.696    0.000    0.000    0.000    0.000    0.000 
#    0.000    0.000    0.000    0.000    0.000    0.000 
#
# Total GULP energy -256950.491945 kJ/mol
# GULP energy per Si atom -5585.880260 kJ/mol
# Density = 2.026678 g / cm^3
# Si number density = 20.313011 Si / 1000 Ang^3
#
#
#
# Elastic Constant Matrix: (Units=GPa)
#
#
# Indices 1 2 3 4 5 6 
#
# 1 66.2638 10.9883 38.1171 0.5683 -0.0012 0.0000
# 2 10.9883 66.2633 38.1167 -0.5679 0.0012 0.0000
# 3 38.1171 38.1167 140.4167 0.0004 0.0000 0.0000
# 4 0.5683 -0.5679 0.0004 24.1794 0.0000 0.0012
# 5 -0.0012 0.0012 0.0000 0.0000 24.1794 0.5682
# 6 0.0000 0.0000 0.0000 0.0012 0.5682 27.6376
#
#
#
# Elastic Compliance Matrix: (Units=1/GPa)
#
#
# Indices 1 2 3 4 5 6 
#
# 1 0.017890 -0.000209 -0.004800 -0.000425 0.000001 0.000000
# 2 -0.000209 0.017891 -0.004800 0.000425 -0.000001 0.000000
# 3 -0.004800 -0.004800 0.009727 0.000000 0.000000 0.000000
# 4 -0.000425 0.000425 0.000000 0.041377 0.000000 -0.000002
# 5 0.000001 -0.000001 0.000000 0.000000 0.041377 -0.000851
# 6 0.000000 0.000000 0.000000 -0.000002 -0.000851 0.036200
#
#
# Mechanical properties :
#
#
# Convention : Reuss Voigt Hill
#
# Bulk Modulus (GPa) = 38.62338 49.70976 44.16657
# Shear Modulus (GPa) = 25.94554 27.58073 26.76313
#
# Velocity S-wave (km/s) = 3.57779 3.68881 3.63373
# Velocity P-wave (km/s) = 6.01023 6.53208 6.27658
#
# Compressibility (1/GPa) = 0.02589105
#
# Stress axis : x y z
#
# Youngs Moduli (GPa) = 55.89564 55.89532 102.80209
#
# Poissons Ratio (x) = 0.01171 0.49341
# Poissons Ratio (y) = 0.01171 0.49341
# Poissons Ratio (z) = 0.26828 0.26828
#
# Static dielectric constant tensor:
#      x y z
#    x 1.744040 0.000000 0.000000 
#    y 0.000000 1.744040 0.000000 
#    z 0.000000 0.000000 1.722630 
# 
# From -- ./inp_files/6082.got.cif
#   From: 2010.05.17/outbox.cif.g08.bks.cpg/sg167_4_cif.got.tgz:6082.got - 2010.05.20 11:09:15.
