data_PCOD9579843
_publ_section_title
;
Structure prediction by ZEFSAII (Michael W. Deem and Ramdas Pophale) SiO2 
 PCOD9579843
Probable space group: P 61
;
_chemical_formula_sum "Si O2"
_cell_formula_units_Z 42
_cell_length_a 23.836017
_cell_length_b 23.836017
_cell_length_c 5.418800
_cell_angle_alpha 90.000000
_cell_angle_beta 90.000000
_cell_angle_gamma 120.000000
_cell_volume 2666.251586
_symmetry_space_group_name_H-M "P 61"
_symmetry_group_IT_number 169
_symmetry_cell_setting 'hexagonal'
loop_
_space_group_symop_operation_xyz
x,y,z
x-y,x,1/6+z
-y,x-y,1/3+z
-x,-y,1/2+z
-x+y,-x,2/3+z
y,-x+y,5/6+z
loop_
_atom_site_type_symbol
_atom_site_label
_atom_site_fract_x
_atom_site_fract_y
_atom_site_fract_z
Si Si1 0.419243 0.932341 0.259160
Si Si2 0.725464 0.394076 0.430709
Si Si3 0.541005 0.865273 0.285510
Si Si4 0.425614 0.001048 0.761421
Si Si5 0.197580 0.666094 0.113067
Si Si6 0.477287 0.297038 0.281827
Si Si7 0.549854 0.745610 0.272580
O O1 0.495320 0.957521 0.253964
O O2 0.371959 0.856717 0.197760
O O3 0.405504 0.954200 0.524099
O O4 0.407548 0.966941 0.025824
O O5 0.653471 0.367881 0.536210
O O6 0.769258 0.378011 0.611236
O O7 0.761510 0.470783 0.400629
O O8 0.589922 0.941041 0.254469
O O9 0.498364 0.848053 0.538169
O O10 0.573493 0.820496 0.311095
O O11 0.499720 0.840137 0.031759
O O12 0.255589 0.741323 0.085900
O O13 0.427665 0.265160 0.509169
O O14 0.443014 0.286531 0.018150
#
# Coordination Sequence:
#
# PCOD9579843 Si02
#       7
#     6   6   6   6   6   6   6
#     4  10  21  33  47  63  75 100 131 162 193 219
#     4  12  22  30  40  58  86  96 132 142 174 244
#     4  10  19  36  45  60  83  97 131 150 193 230
#     4  10  21  33  47  63  75 100 131 162 193 219
#     4  10  22  31  46  65  77 113 118 152 194 233
#     4  10  19  36  45  60  83  97 131 150 193 230
#     4  10  22  31  46  65  77 113 118 152 194 233
#
# _framework density 15.752452
#
# number of rings (size 3 to 8) (size 9 to 14) (size 15 to 20)
#    0.000    1.714    2.857    3.429    4.000    1.143 
#    0.000    0.000    0.000    0.000    0.000    0.000 
#    0.000    0.000    0.000    0.000    0.000    0.000 
#
# Total GULP energy -234177.171169 kJ/mol
# GULP energy per Si atom -5575.646933 kJ/mol
# Density = 1.571660 g / cm^3
# Si number density = 15.752452 Si / 1000 Ang^3
#
#
#
# Elastic Constant Matrix: (Units=GPa)
#
#
# Indices 1 2 3 4 5 6 
#
# 1 33.1788 6.0114 11.7236 0.0000 0.0000 0.0000
# 2 6.0114 33.1788 11.7236 0.0000 0.0000 0.0000
# 3 11.7236 11.7236 132.9408 0.0000 0.0000 0.0000
# 4 0.0000 0.0000 0.0000 19.4357 0.0000 0.0000
# 5 0.0000 0.0000 0.0000 0.0000 19.4357 0.0000
# 6 0.0000 0.0000 0.0000 0.0000 0.0000 13.5837
#
#
#
# Elastic Compliance Matrix: (Units=1/GPa)
#
#
# Indices 1 2 3 4 5 6 
#
# 1 0.031873 -0.004935 -0.002376 0.000000 0.000000 0.000000
# 2 -0.004935 0.031873 -0.002376 0.000000 0.000000 0.000000
# 3 -0.002376 -0.002376 0.007941 0.000000 0.000000 0.000000
# 4 0.000000 0.000000 0.000000 0.051452 0.000000 0.000000
# 5 0.000000 0.000000 0.000000 0.000000 0.051452 0.000000
# 6 0.000000 0.000000 0.000000 0.000000 0.000000 0.073617
#
#
# Mechanical properties :
#
#
# Convention : Reuss Voigt Hill
#
# Bulk Modulus (GPa) = 19.11512 28.69060 23.90286
# Shear Modulus (GPa) = 17.54263 21.81368 19.67816
#
# Velocity S-wave (km/s) = 3.34075 3.72530 3.53825
# Velocity P-wave (km/s) = 5.20018 6.06274 5.64795
#
# Compressibility (1/GPa) = 0.05231462
#
# Stress axis : x y z
#
# Youngs Moduli (GPa) = 31.37424 31.37424 125.92665
#
# Poissons Ratio (x) = 0.15485 0.29915
# Poissons Ratio (y) = 0.15485 0.29915
# Poissons Ratio (z) = 0.07453 0.07453
#
# Static dielectric constant tensor:
#      x y z
#    x 1.553820 0.000000 0.000000 
#    y 0.000000 1.553820 0.000000 
#    z 0.000000 0.000000 1.676450 
# 
# From -- ./inp_files/329.got.cif
#   From: 2010.05.17/outbox.cif.g08.bks.cpg/sg169_cif.got.tgz:329.got - 2010.05.20 11:12:54.
