data_PCOD9579306
_publ_section_title
;
Structure prediction by ZEFSAII (Michael W. Deem and Ramdas Pophale) SiO2 
 PCOD9579306
Probable space group: R -3 M
;
_chemical_formula_sum "Si O2"
_cell_formula_units_Z 162
_cell_length_a 22.922159
_cell_length_b 22.922159
_cell_length_c 19.951455
_cell_angle_alpha 90.000000
_cell_angle_beta 90.000000
_cell_angle_gamma 120.000000
_cell_volume 9078.544905
_symmetry_space_group_name_H-M "R -3 M"
_symmetry_group_IT_number 166
_symmetry_cell_setting 'hexagonal'
loop_
_space_group_symop_operation_xyz
x,y,z
-y,x-y,z
-x+y,-x,z
x-y,-y,-z
-x,-x+y,-z
y,x,-z
-x,-y,-z
y,-x+y,-z
x-y,x,-z
-x+y,y,z
x,x-y,z
-y,-x,z
2/3+x,1/3+y,1/3+z
2/3-y,1/3+x-y,1/3+z
2/3-x+y,1/3-x,1/3+z
2/3+x-y,1/3-y,1/3-z
2/3-x,1/3-x+y,1/3-z
2/3+y,1/3+x,1/3-z
2/3-x,1/3-y,1/3-z
2/3+y,1/3-x+y,1/3-z
2/3+x-y,1/3+x,1/3-z
2/3-x+y,1/3+y,1/3+z
2/3+x,1/3+x-y,1/3+z
2/3-y,1/3-x,1/3+z
1/3+x,2/3+y,2/3+z
1/3-y,2/3+x-y,2/3+z
1/3-x+y,2/3-x,2/3+z
1/3+x-y,2/3-y,2/3-z
1/3-x,2/3-x+y,2/3-z
1/3+y,2/3+x,2/3-z
1/3-x,2/3-y,2/3-z
1/3+y,2/3-x+y,2/3-z
1/3+x-y,2/3+x,2/3-z
1/3-x+y,2/3+y,2/3+z
1/3+x,2/3+x-y,2/3+z
1/3-y,2/3-x,2/3+z
loop_
_atom_site_type_symbol
_atom_site_label
_atom_site_fract_x
_atom_site_fract_y
_atom_site_fract_z
Si Si1 0.260541 0.130271 0.700695
Si Si2 0.080863 0.919138 0.573485
Si Si3 0.082571 0.421683 0.886427
Si Si4 0.521291 0.478710 0.568170
Si Si5 0.641138 0.035473 0.259595
Si Si6 0.745770 0.491539 0.755202
Si Si7 0.693485 0.846743 0.622665
O O1 0.333334 0.166667 0.666667
O O2 0.250952 0.068333 0.746021
O O3 0.209638 0.104819 0.638661
O O4 0.094765 0.905236 0.496762
O O5 0.112845 0.887155 0.621460
O O6 0.001323 0.885941 0.582083
O O7 0.147346 0.415782 0.905618
O O8 0.082239 0.422656 0.805723
O O9 0.015322 0.353153 0.911667
O O10 0.500000 0.500000 0.500000
O O11 0.499020 0.500981 0.635221
O O12 0.666667 0.067229 0.333334
O O13 0.559808 0.995088 0.258932
#
# Coordination Sequence:
#
# PCOD9579306 Si02
#       7
#    18  18  36  18  36  18  18
#     4  12  27  39  57  92 132 168 200 263 317 375
#     4  10  23  40  61  86 111 170 207 261 294 363
#     4  11  24  40  62  88 129 161 209 254 324 373
#     4  12  20  41  64  87 115 165 209 266 314 384
#     4  11  22  39  59  88 119 162 202 258 309 378
#     4  10  23  41  60  83 120 155 218 248 303 350
#     4  12  23  35  60  87 121 154 212 249 321 377
#
# _framework density 17.844270000000002
#
# number of rings (size 3 to 8) (size 9 to 14) (size 15 to 20)
#    0.000    0.889    4.444    2.889    6.222    2.667 
#    0.000    0.000    0.000    0.444    0.000    0.000 
#    0.000    0.000    0.000   10.667    0.000    0.000 
#
# Total GULP energy -301235.421398 kJ/mol
# GULP energy per Si atom -5578.433730 kJ/mol
# Density = 1.780366 g / cm^3
# Si number density = 17.844270 Si / 1000 Ang^3
#
#
#
# Elastic Constant Matrix: (Units=GPa)
#
#
# Indices 1 2 3 4 5 6 
#
# 1 116.8297 60.0823 41.4327 -4.0659 -0.0001 0.0000
# 2 60.0823 116.8297 41.4327 4.0659 0.0001 0.0000
# 3 41.4327 41.4327 123.8435 0.0000 0.0000 0.0000
# 4 -4.0659 4.0659 0.0000 23.5068 0.0000 0.0001
# 5 -0.0001 0.0001 0.0000 0.0000 23.5068 -4.0659
# 6 0.0000 0.0000 0.0000 0.0001 -4.0659 28.3737
#
#
#
# Elastic Compliance Matrix: (Units=1/GPa)
#
#
# Indices 1 2 3 4 5 6 
#
# 1 0.012386 -0.005683 -0.002243 0.003125 0.000000 0.000000
# 2 -0.005683 0.012386 -0.002243 -0.003125 0.000000 0.000000
# 3 -0.002243 -0.002243 0.009575 0.000000 0.000000 0.000000
# 4 0.003125 -0.003125 0.000000 0.043622 0.000000 0.000000
# 5 0.000000 0.000000 0.000000 0.000000 0.043622 0.006251
# 6 0.000000 0.000000 0.000000 0.000000 0.006251 0.036140
#
#
# Mechanical properties :
#
#
# Convention : Reuss Voigt Hill
#
# Bulk Modulus (GPa) = 71.37244 71.48867 71.43056
# Shear Modulus (GPa) = 27.36144 29.38117 28.37130
#
# Velocity S-wave (km/s) = 3.92004 4.06215 3.99173
# Velocity P-wave (km/s) = 7.78288 7.88359 7.83340
#
# Compressibility (1/GPa) = 0.01401101
#
# Stress axis : x y z
#
# Youngs Moduli (GPa) = 80.73396 80.73396 104.43648
#
# Poissons Ratio (x) = 0.45885 0.23420
# Poissons Ratio (y) = 0.45885 0.23420
# Poissons Ratio (z) = 0.18105 0.18105
#
# Static dielectric constant tensor:
#      x y z
#    x 1.614840 0.000000 0.000000 
#    y 0.000000 1.614840 0.000000 
#    z 0.000000 0.000000 1.653130 
# 
# From -- ./inp_files/5505.got.cif
#   From: 2010.05.17/outbox.cif.g08.bks.cpg/sg166_3_cif.got.tgz:5505.got - 2010.05.20 11:04:41.
