data_PCOD9579889
_publ_section_title
;
Structure prediction by ZEFSAII (Michael W. Deem and Ramdas Pophale) SiO2 
 PCOD9579889
Probable space group: P 61
;
_chemical_formula_sum "Si O2"
_cell_formula_units_Z 48
_cell_length_a 17.283974
_cell_length_b 17.283974
_cell_length_c 8.584463
_cell_angle_alpha 90.000000
_cell_angle_beta 90.000000
_cell_angle_gamma 120.000000
_cell_volume 2220.910071
_symmetry_space_group_name_H-M "P 61"
_symmetry_group_IT_number 169
_symmetry_cell_setting 'hexagonal'
loop_
_space_group_symop_operation_xyz
x,y,z
x-y,x,1/6+z
-y,x-y,1/3+z
-x,-y,1/2+z
-x+y,-x,2/3+z
y,-x+y,5/6+z
loop_
_atom_site_type_symbol
_atom_site_label
_atom_site_fract_x
_atom_site_fract_y
_atom_site_fract_z
Si Si1 0.562764 0.787624 0.228230
Si Si2 0.508671 0.898007 0.698194
Si Si3 0.633011 0.046657 0.204938
Si Si4 0.651675 0.281854 0.081248
Si Si5 0.842455 0.007995 0.977550
Si Si6 0.948795 0.294801 0.299130
Si Si7 0.109864 0.180818 0.129584
Si Si8 0.911789 0.277943 0.798889
O O1 0.569783 0.705339 0.290306
O O2 0.458363 0.742469 0.196563
O O3 0.594046 0.862206 0.360017
O O4 0.621414 0.831167 0.075418
O O5 0.451722 0.943683 0.754100
O O6 0.438694 0.813976 0.594861
O O7 0.593050 0.960369 0.590981
O O8 0.559668 0.875292 0.831532
O O9 0.683531 0.029313 0.345662
O O10 0.606883 0.969230 0.078874
O O11 0.666444 0.307513 0.266432
O O12 0.847596 0.919631 0.024327
O O13 0.869103 0.068489 0.137669
O O14 0.739494 0.972349 0.928704
O O15 0.933603 0.200103 0.354530
O O16 0.029485 0.139604 0.248909
#
# Coordination Sequence:
#
# PCOD9579889 Si02
#       8
#     6   6   6   6   6   6   6   6
#     4  10  20  37  63  87 120 172 221 266 332 407
#     4  11  24  39  59  95 130 166 221 282 338 412
#     4  10  21  38  64  87 125 174 219 269 337 409
#     4  11  22  41  64  94 133 176 230 287 343 407
#     4  10  20  39  66  95 127 168 224 274 336 421
#     4  11  20  39  63  92 128 167 216 276 330 405
#     4  10  20  38  65  93 124 168 222 265 334 410
#     4  11  21  39  64  93 133 171 219 277 344 415
#
# _framework density 21.612762
#
# number of rings (size 3 to 8) (size 9 to 14) (size 15 to 20)
#    0.000    1.500    1.250    6.750    0.000    0.000 
#    0.000   12.500    2.750    0.000    0.000    0.000 
#    0.000    0.000    0.000    0.000    0.000    0.000 
#
# Total GULP energy -267727.932845 kJ/mol
# GULP energy per Si atom -5577.665268 kJ/mol
# Density = 2.156357 g / cm^3
# Si number density = 21.612762 Si / 1000 Ang^3
#
#
#
# Elastic Constant Matrix: (Units=GPa)
#
#
# Indices 1 2 3 4 5 6 
#
# 1 90.8085 27.5214 7.3859 0.0000 0.0000 0.0000
# 2 27.5214 90.8085 7.3859 0.0000 0.0000 0.0000
# 3 7.3859 7.3859 39.6774 0.0000 0.0000 0.0000
# 4 0.0000 0.0000 0.0000 18.1770 0.0000 0.0000
# 5 0.0000 0.0000 0.0000 0.0000 18.1770 0.0000
# 6 0.0000 0.0000 0.0000 0.0000 0.0000 31.6436
#
#
#
# Elastic Compliance Matrix: (Units=1/GPa)
#
#
# Indices 1 2 3 4 5 6 
#
# 1 0.012227 -0.003574 -0.001611 0.000000 0.000000 0.000000
# 2 -0.003574 0.012227 -0.001611 0.000000 0.000000 0.000000
# 3 -0.001611 -0.001611 0.025803 0.000000 0.000000 0.000000
# 4 0.000000 0.000000 0.000000 0.055015 0.000000 0.000000
# 5 0.000000 0.000000 0.000000 0.000000 0.055015 0.000000
# 6 0.000000 0.000000 0.000000 0.000000 0.000000 0.031602
#
#
# Mechanical properties :
#
#
# Convention : Reuss Voigt Hill
#
# Bulk Modulus (GPa) = 27.27421 33.98674 30.63048
# Shear Modulus (GPa) = 22.96740 25.53293 24.25017
#
# Velocity S-wave (km/s) = 3.26341 3.44085 3.35331
# Velocity P-wave (km/s) = 5.18138 5.61653 5.40334
#
# Compressibility (1/GPa) = 0.03666467
#
# Stress axis : x y z
#
# Youngs Moduli (GPa) = 81.78954 81.78954 38.75536
#
# Poissons Ratio (x) = 0.29236 0.06242
# Poissons Ratio (y) = 0.29236 0.06242
# Poissons Ratio (z) = 0.13173 0.13173
#
# Static dielectric constant tensor:
#      x y z
#    x 1.823920 0.000000 0.000000 
#    y 0.000000 1.823920 0.000000 
#    z 0.000000 0.000000 1.853200 
# 
# From -- ./inp_files/747.got.cif
#   From: 2010.05.17/outbox.cif.g08.bks.cpg/sg169_cif.got.tgz:747.got - 2010.05.20 11:12:54.
