data_PCOD9579082
_publ_section_title
;
Structure prediction by ZEFSAII (Michael W. Deem and Ramdas Pophale) SiO2 
 PCOD9579082
Probable space group: R -3 M
;
_chemical_formula_sum "Si O2"
_cell_formula_units_Z 126
_cell_length_a 17.257986
_cell_length_b 17.257986
_cell_length_c 33.734688
_cell_angle_alpha 90.000000
_cell_angle_beta 90.000000
_cell_angle_gamma 120.000000
_cell_volume 8701.368360
_symmetry_space_group_name_H-M "R -3 M"
_symmetry_group_IT_number 166
_symmetry_cell_setting 'hexagonal'
loop_
_space_group_symop_operation_xyz
x,y,z
-y,x-y,z
-x+y,-x,z
x-y,-y,-z
-x,-x+y,-z
y,x,-z
-x,-y,-z
y,-x+y,-z
x-y,x,-z
-x+y,y,z
x,x-y,z
-y,-x,z
2/3+x,1/3+y,1/3+z
2/3-y,1/3+x-y,1/3+z
2/3-x+y,1/3-x,1/3+z
2/3+x-y,1/3-y,1/3-z
2/3-x,1/3-x+y,1/3-z
2/3+y,1/3+x,1/3-z
2/3-x,1/3-y,1/3-z
2/3+y,1/3-x+y,1/3-z
2/3+x-y,1/3+x,1/3-z
2/3-x+y,1/3+y,1/3+z
2/3+x,1/3+x-y,1/3+z
2/3-y,1/3-x,1/3+z
1/3+x,2/3+y,2/3+z
1/3-y,2/3+x-y,2/3+z
1/3-x+y,2/3-x,2/3+z
1/3+x-y,2/3-y,2/3-z
1/3-x,2/3-x+y,2/3-z
1/3+y,2/3+x,2/3-z
1/3-x,2/3-y,2/3-z
1/3+y,2/3-x+y,2/3-z
1/3+x-y,2/3+x,2/3-z
1/3-x+y,2/3+y,2/3+z
1/3+x,2/3+x-y,2/3+z
1/3-y,2/3-x,2/3+z
loop_
_atom_site_type_symbol
_atom_site_label
_atom_site_fract_x
_atom_site_fract_y
_atom_site_fract_z
Si Si1 0.512837 0.845760 0.327326
Si Si2 0.185730 0.185730 0.500000
Si Si3 0.699741 0.939991 0.962286
Si Si4 0.711598 0.947743 0.580899
O O1 0.408243 0.816486 0.328109
O O2 0.527805 0.763903 0.336516
O O3 0.548607 0.885181 0.283502
O O4 0.562889 0.929906 0.356690
O O5 0.176419 0.088210 0.502854
O O6 0.232631 0.243167 0.539199
O O7 0.717951 0.858976 0.954849
O O8 0.715756 0.005707 0.925911
O O9 0.755949 0.000000 0.000000
O O10 0.691755 0.845878 0.581718
#
# Coordination Sequence:
#
# PCOD9579082 Si02
#       4
#    36  18  36  36
#     4   9  16  25  39  60  86 114 141 170 207 252
#     4  10  19  30  45  66  92 120 148 176 207 246
#     4   9  17  29  45  64  86 112 141 177 219 260
#     4   9  18  30  43  61  85 113 142 175 214 254
#
# _framework density 14.480480999999999
#
# number of rings (size 3 to 8) (size 9 to 14) (size 15 to 20)
#    0.000    2.857    0.000    3.857    0.000    6.286 
#    0.000    3.571    0.000    5.143    0.000    0.000 
#    0.000    2.286    0.000    0.000    0.000    0.000 
#
# Total GULP energy -234006.204415 kJ/mol
# GULP energy per Si atom -5571.576296 kJ/mol
# Density = 1.444752 g / cm^3
# Si number density = 14.480481 Si / 1000 Ang^3
#
#
#
# Elastic Constant Matrix: (Units=GPa)
#
#
# Indices 1 2 3 4 5 6 
#
# 1 78.3985 49.7564 38.9904 4.8380 0.0000 0.0000
# 2 49.7564 78.3985 38.9904 -4.8380 0.0000 0.0000
# 3 38.9904 38.9904 76.9988 0.0000 0.0000 0.0000
# 4 4.8380 -4.8380 0.0000 17.9744 0.0000 0.0000
# 5 0.0000 0.0000 0.0000 0.0000 17.9744 4.8380
# 6 0.0000 0.0000 0.0000 0.0000 4.8380 14.3211
#
#
#
# Elastic Compliance Matrix: (Units=1/GPa)
#
#
# Indices 1 2 3 4 5 6 
#
# 1 0.024842 -0.013564 -0.005711 -0.010337 0.000000 0.000000
# 2 -0.013564 0.024842 -0.005711 0.010337 0.000000 0.000000
# 3 -0.005711 -0.005711 0.018771 0.000000 0.000000 0.000000
# 4 -0.010337 0.010337 0.000000 0.061200 0.000000 0.000000
# 5 0.000000 0.000000 0.000000 0.000000 0.061200 -0.020675
# 6 0.000000 0.000000 0.000000 0.000000 -0.020675 0.076812
#
#
# Mechanical properties :
#
#
# Convention : Reuss Voigt Hill
#
# Bulk Modulus (GPa) = 54.10275 54.36339 54.23307
# Shear Modulus (GPa) = 15.44171 17.12454 16.28312
#
# Velocity S-wave (km/s) = 3.26909 3.44262 3.35698
# Velocity P-wave (km/s) = 7.18978 7.30932 7.24980
#
# Compressibility (1/GPa) = 0.01848335
#
# Stress axis : x y z
#
# Youngs Moduli (GPa) = 40.25449 40.25449 53.27355
#
# Poissons Ratio (x) = 0.54600 0.30424
# Poissons Ratio (y) = 0.54600 0.30424
# Poissons Ratio (z) = 0.22989 0.22989
#
# Static dielectric constant tensor:
#      x y z
#    x 1.478480 0.000000 0.000000 
#    y 0.000000 1.478480 0.000000 
#    z 0.000000 0.000000 1.464420 
# 
# From -- ./inp_files/9170.got.cif
#   From: 2010.05.17/outbox.cif.g08.bks.cpg/sg166_5_cif.got.tgz:9170.got - 2010.05.20 11:04:41.
