data_PCOD9579615
_publ_section_title
;
Structure prediction by ZEFSAII (Michael W. Deem and Ramdas Pophale) SiO2 
 PCOD9579615
Probable space group: R -3 C 
;
_chemical_formula_sum "Si O2"
_cell_formula_units_Z 126
_cell_length_a 24.130419
_cell_length_b 24.130419
_cell_length_c 9.310075
_cell_angle_alpha 90.000000
_cell_angle_beta 90.000000
_cell_angle_gamma 120.000000
_cell_volume 4694.761532
_symmetry_space_group_name_H-M "R -3 C "
_symmetry_group_IT_number 167
_symmetry_cell_setting 'hexagonal'
loop_
_space_group_symop_operation_xyz
x,y,z
-y,x-y,z
-x+y,-x,z
x-y,-y,1/2-z
-x,-x+y,1/2-z
y,x,1/2-z
-x,-y,-z
y,-x+y,-z
x-y,x,-z
-x+y,y,1/2+z
x,x-y,1/2+z
-y,-x,1/2+z
2/3+x,1/3+y,1/3+z
2/3-y,1/3+x-y,1/3+z
2/3-x+y,1/3-x,1/3+z
2/3+x-y,1/3-y,5/6-z
2/3-x,1/3-x+y,5/6-z
2/3+y,1/3+x,5/6-z
2/3-x,1/3-y,1/3-z
2/3+y,1/3-x+y,1/3-z
2/3+x-y,1/3+x,1/3-z
2/3-x+y,1/3+y,5/6+z
2/3+x,1/3+x-y,5/6+z
2/3-y,1/3-x,5/6+z
1/3+x,2/3+y,2/3+z
1/3-y,2/3+x-y,2/3+z
1/3-x+y,2/3-x,2/3+z
1/3+x-y,2/3-y,1/6-z
1/3-x,2/3-x+y,1/6-z
1/3+y,2/3+x,1/6-z
1/3-x,2/3-y,2/3-z
1/3+y,2/3-x+y,2/3-z
1/3+x-y,2/3+x,2/3-z
1/3-x+y,2/3+y,1/6+z
1/3+x,2/3+x-y,1/6+z
1/3-y,2/3-x,1/6+z
loop_
_atom_site_type_symbol
_atom_site_label
_atom_site_fract_x
_atom_site_fract_y
_atom_site_fract_z
Si Si1 0.415510 0.134296 0.280486
Si Si2 0.578078 0.758909 0.896845
Si Si3 0.132593 0.019636 0.022121
Si Si4 0.294668 0.294668 0.750000
O O1 0.396246 0.169960 0.161208
O O2 0.414349 0.167616 0.432541
O O3 0.489700 0.154809 0.263784
O O4 0.365404 0.058798 0.290115
O O5 0.507502 0.722502 0.827900
O O6 0.606230 0.714219 0.841584
O O7 0.068393 0.953537 0.050490
#
# Coordination Sequence:
#
# PCOD9579615 Si02
#       4
#    36  36  36  18
#     4  11  25  50  80 118 160 215 270 334 396 484
#     4  11  24  49  80 109 162 205 270 330 394 476
#     4  10  22  46  81 118 157 207 271 341 409 483
#     4  12  24  46  80 110 162 216 264 322 398 482
#
# _framework density 26.838424
#
# number of rings (size 3 to 8) (size 9 to 14) (size 15 to 20)
#    0.000    1.143    2.857    2.000    0.000    0.000 
#    0.000   58.571    0.000    0.000    0.000    0.000 
#    0.000    0.000    0.000    0.000    0.000    0.000 
#
# Total GULP energy -234280.231530 kJ/mol
# GULP energy per Si atom -5578.100751 kJ/mol
# Density = 2.677734 g / cm^3
# Si number density = 26.838424 Si / 1000 Ang^3
#
#
#
# Elastic Constant Matrix: (Units=GPa)
#
#
# Indices 1 2 3 4 5 6 
#
# 1 203.9812 95.0240 35.4982 5.1189 -0.0184 0.0043
# 2 95.0240 203.9933 35.5183 -5.1254 -0.0008 0.0012
# 3 35.4982 35.5183 97.0755 -0.0162 -0.0607 0.0075
# 4 5.1189 -5.1254 -0.0162 16.9145 -0.0099 0.0020
# 5 -0.0184 -0.0008 -0.0607 -0.0099 16.8686 5.1268
# 6 0.0043 0.0012 0.0075 0.0020 5.1268 54.4853
#
#
#
# Elastic Compliance Matrix: (Units=1/GPa)
#
#
# Indices 1 2 3 4 5 6 
#
# 1 0.006554 -0.002892 -0.001339 -0.002861 0.000001 0.000000
# 2 -0.002892 0.006554 -0.001340 0.002860 -0.000006 0.000001
# 3 -0.001339 -0.001340 0.011281 0.000010 0.000041 -0.000005
# 4 -0.002861 0.002860 0.000010 0.060853 0.000034 -0.000005
# 5 0.000001 -0.000006 0.000041 0.000034 0.061027 -0.005742
# 6 0.000000 0.000001 -0.000005 -0.000005 -0.005742 0.018894
#
#
# Mechanical properties :
#
#
# Convention : Reuss Voigt Hill
#
# Bulk Modulus (GPa) = 75.48490 93.01456 84.24973
# Shear Modulus (GPa) = 27.66666 40.25433 33.96050
#
# Velocity S-wave (km/s) = 3.21418 3.87703 3.56106
# Velocity P-wave (km/s) = 6.47776 7.40096 6.95470
#
# Compressibility (1/GPa) = 0.01324768
#
# Stress axis : x y z
#
# Youngs Moduli (GPa) = 152.56807 152.56861 88.64190
#
# Poissons Ratio (x) = 0.44121 0.11871
# Poissons Ratio (y) = 0.44121 0.11880
# Poissons Ratio (z) = 0.20432 0.20447
#
# Static dielectric constant tensor:
#      x y z
#    x 2.139680 0.000000 -0.000010 
#    y 0.000000 2.139680 0.000000 
#    z -0.000010 0.000000 2.568150 
# 
# From -- ./inp_files/3198.got.cif
#   From: 2010.05.17/outbox.cif.g08.bks.cpg/sg167_2_cif.got.tgz:3198.got - 2010.05.20 11:09:15.
