data_PCOD9579433
_publ_section_title
;
Structure prediction by ZEFSAII (Michael W. Deem and Ramdas Pophale) SiO2 
 PCOD9579433
Probable space group: R -3 C 
;
_chemical_formula_sum "Si O2"
_cell_formula_units_Z 252
_cell_length_a 30.558806
_cell_length_b 30.558806
_cell_length_c 17.792229
_cell_angle_alpha 90.000000
_cell_angle_beta 90.000000
_cell_angle_gamma 120.000000
_cell_volume 14389.104085
_symmetry_space_group_name_H-M "R -3 C "
_symmetry_group_IT_number 167
_symmetry_cell_setting 'hexagonal'
loop_
_space_group_symop_operation_xyz
x,y,z
-y,x-y,z
-x+y,-x,z
x-y,-y,1/2-z
-x,-x+y,1/2-z
y,x,1/2-z
-x,-y,-z
y,-x+y,-z
x-y,x,-z
-x+y,y,1/2+z
x,x-y,1/2+z
-y,-x,1/2+z
2/3+x,1/3+y,1/3+z
2/3-y,1/3+x-y,1/3+z
2/3-x+y,1/3-x,1/3+z
2/3+x-y,1/3-y,5/6-z
2/3-x,1/3-x+y,5/6-z
2/3+y,1/3+x,5/6-z
2/3-x,1/3-y,1/3-z
2/3+y,1/3-x+y,1/3-z
2/3+x-y,1/3+x,1/3-z
2/3-x+y,1/3+y,5/6+z
2/3+x,1/3+x-y,5/6+z
2/3-y,1/3-x,5/6+z
1/3+x,2/3+y,2/3+z
1/3-y,2/3+x-y,2/3+z
1/3-x+y,2/3-x,2/3+z
1/3+x-y,2/3-y,1/6-z
1/3-x,2/3-x+y,1/6-z
1/3+y,2/3+x,1/6-z
1/3-x,2/3-y,2/3-z
1/3+y,2/3-x+y,2/3-z
1/3+x-y,2/3+x,2/3-z
1/3-x+y,2/3+y,1/6+z
1/3+x,2/3+x-y,1/6+z
1/3-y,2/3-x,1/6+z
loop_
_atom_site_type_symbol
_atom_site_label
_atom_site_fract_x
_atom_site_fract_y
_atom_site_fract_z
Si Si1 0.392497 0.237467 0.192259
Si Si2 0.745090 0.534347 0.390330
Si Si3 0.033308 0.834630 0.990324
Si Si4 0.028417 0.481084 0.638439
Si Si5 0.953292 0.278397 0.619889
Si Si6 0.541162 0.077903 0.135726
Si Si7 0.386269 0.440846 0.788768
O O1 0.435336 0.275581 0.248779
O O2 0.365414 0.184312 0.236409
O O3 0.356143 0.260475 0.172911
O O4 0.414227 0.227412 0.115406
O O5 0.775416 0.509639 0.354272
O O6 0.688673 0.510595 0.363005
O O7 0.773706 0.591132 0.356184
O O8 0.754542 0.541996 0.479235
O O9 0.036508 0.799606 0.056160
O O10 0.029967 0.432235 0.609811
O O11 0.972532 0.460947 0.668469
O O12 0.971408 0.333334 0.583334
O O13 0.003700 0.280258 0.651197
O O14 0.484482 0.067962 0.149548
O O15 0.422845 0.422845 0.750000
#
# Coordination Sequence:
#
# PCOD9579433 Si02
#       7
#    36  36  36  36  36  36  36
#     4  10  22  35  53  77 108 144 182 233 274 317
#     4  10  20  35  58  77 100 141 175 227 264 337
#     4  10  21  37  57  77 106 138 180 219 280 322
#     4  10  19  37  51  71 107 145 185 218 272 316
#     4  10  20  32  49  74 110 139 186 230 255 307
#     4  10  19  32  55  75 102 141 181 221 272 317
#     4  10  19  35  51  73 105 146 186 219 259 320
#
# _framework density 17.513251
#
# number of rings (size 3 to 8) (size 9 to 14) (size 15 to 20)
#    0.000    2.000    1.429    4.714    4.000    0.000 
#    0.000   11.429    0.000    0.286    0.000    0.000 
#    0.000    0.000    0.000    0.857    0.000    0.000 
#
# Total GULP energy -468433.185587 kJ/mol
# GULP energy per Si atom -5576.585543 kJ/mol
# Density = 1.747339 g / cm^3
# Si number density = 17.513251 Si / 1000 Ang^3
#
#
#
# Elastic Constant Matrix: (Units=GPa)
#
#
# Indices 1 2 3 4 5 6 
#
# 1 87.8229 27.3949 28.7056 2.5501 -0.0001 0.0000
# 2 27.3949 87.8229 28.7056 -2.5501 0.0001 0.0000
# 3 28.7056 28.7056 84.2730 0.0000 0.0000 0.0000
# 4 2.5501 -2.5501 0.0000 10.2093 0.0000 0.0001
# 5 -0.0001 0.0001 0.0000 0.0000 10.2093 2.5501
# 6 0.0000 0.0000 0.0000 0.0001 2.5501 30.2140
#
#
#
# Elastic Compliance Matrix: (Units=1/GPa)
#
#
# Indices 1 2 3 4 5 6 
#
# 1 0.013679 -0.003226 -0.003561 -0.004223 0.000000 0.000000
# 2 -0.003226 0.013679 -0.003561 0.004223 0.000000 0.000000
# 3 -0.003561 -0.003561 0.014292 0.000000 0.000000 0.000000
# 4 -0.004223 0.004223 0.000000 0.100059 0.000000 0.000000
# 5 0.000000 0.000000 0.000000 0.000000 0.100059 -0.008445
# 6 0.000000 0.000000 0.000000 0.000000 -0.008445 0.033810
#
#
# Mechanical properties :
#
#
# Convention : Reuss Voigt Hill
#
# Bulk Modulus (GPa) = 47.71906 47.72566 47.72236
# Shear Modulus (GPa) = 16.48757 21.80072 19.14415
#
# Velocity S-wave (km/s) = 3.07161 3.53202 3.30983
# Velocity P-wave (km/s) = 6.31556 6.62902 6.47418
#
# Compressibility (1/GPa) = 0.02095599
#
# Stress axis : x y z
#
# Youngs Moduli (GPa) = 73.10352 73.10352 69.96946
#
# Poissons Ratio (x) = 0.23582 0.24914
# Poissons Ratio (y) = 0.23582 0.24914
# Poissons Ratio (z) = 0.26030 0.26030
#
# Static dielectric constant tensor:
#      x y z
#    x 1.601550 0.000000 0.000000 
#    y 0.000000 1.601550 0.000000 
#    z 0.000000 0.000000 1.641220 
# 
# From -- ./inp_files/3713.got.cif
#   From: 2010.05.17/outbox.cif.g08.bks.cpg/sg167_2_cif.got.tgz:3713.got - 2010.05.20 11:09:15.
