data_PCOD9579607
_publ_section_title
;
Structure prediction by ZEFSAII (Michael W. Deem and Ramdas Pophale) SiO2 
 PCOD9579607
Probable space group: R -3 C 
;
_chemical_formula_sum "Si O2"
_cell_formula_units_Z 162
_cell_length_a 23.435209
_cell_length_b 23.435209
_cell_length_c 16.042329
_cell_angle_alpha 90.000000
_cell_angle_beta 90.000000
_cell_angle_gamma 120.000000
_cell_volume 7630.196323
_symmetry_space_group_name_H-M "R -3 C "
_symmetry_group_IT_number 167
_symmetry_cell_setting 'hexagonal'
loop_
_space_group_symop_operation_xyz
x,y,z
-y,x-y,z
-x+y,-x,z
x-y,-y,1/2-z
-x,-x+y,1/2-z
y,x,1/2-z
-x,-y,-z
y,-x+y,-z
x-y,x,-z
-x+y,y,1/2+z
x,x-y,1/2+z
-y,-x,1/2+z
2/3+x,1/3+y,1/3+z
2/3-y,1/3+x-y,1/3+z
2/3-x+y,1/3-x,1/3+z
2/3+x-y,1/3-y,5/6-z
2/3-x,1/3-x+y,5/6-z
2/3+y,1/3+x,5/6-z
2/3-x,1/3-y,1/3-z
2/3+y,1/3-x+y,1/3-z
2/3+x-y,1/3+x,1/3-z
2/3-x+y,1/3+y,5/6+z
2/3+x,1/3+x-y,5/6+z
2/3-y,1/3-x,5/6+z
1/3+x,2/3+y,2/3+z
1/3-y,2/3+x-y,2/3+z
1/3-x+y,2/3-x,2/3+z
1/3+x-y,2/3-y,1/6-z
1/3-x,2/3-x+y,1/6-z
1/3+y,2/3+x,1/6-z
1/3-x,2/3-y,2/3-z
1/3+y,2/3-x+y,2/3-z
1/3+x-y,2/3+x,2/3-z
1/3-x+y,2/3+y,1/6+z
1/3+x,2/3+x-y,1/6+z
1/3-y,2/3-x,1/6+z
loop_
_atom_site_type_symbol
_atom_site_label
_atom_site_fract_x
_atom_site_fract_y
_atom_site_fract_z
Si Si1 0.713079 0.539814 0.504125
Si Si2 0.898562 0.231895 0.416667
Si Si3 0.185529 0.396549 0.725662
Si Si4 0.255961 0.847154 0.399155
Si Si5 0.644225 0.439496 0.363379
O O1 0.666667 0.518175 0.583334
O O2 0.710960 0.601549 0.461151
O O3 0.786539 0.563695 0.535902
O O4 0.687894 0.477436 0.443423
O O5 0.845059 0.211963 0.343695
O O6 0.233195 0.418326 0.806875
O O7 0.115205 0.336829 0.754153
O O8 0.187316 0.459494 0.684054
O O9 0.333334 0.889476 0.416667
O O10 0.697060 0.443375 0.296617
#
# Coordination Sequence:
#
# PCOD9579607 Si02
#       5
#    36  18  36  36  36
#     4  11  23  42  71 102 140 189 233 295 360 423
#     4  10  22  44  72  90 138 184 230 298 364 406
#     4  10  22  44  69 103 140 182 243 299 356 430
#     4  10  23  43  73 106 142 188 236 303 369 430
#     4  12  26  45  69 103 150 195 238 294 358 440
#
# _framework density 21.231434
#
# number of rings (size 3 to 8) (size 9 to 14) (size 15 to 20)
#    0.000    1.333    4.444    0.222    3.111    0.000 
#    2.000    0.000    0.000    0.000    0.000    0.000 
#    0.000    0.000    0.000    0.000    0.000    0.000 
#
# Total GULP energy -301143.895363 kJ/mol
# GULP energy per Si atom -5576.738803 kJ/mol
# Density = 2.118311 g / cm^3
# Si number density = 21.231434 Si / 1000 Ang^3
#
#
#
# Elastic Constant Matrix: (Units=GPa)
#
#
# Indices 1 2 3 4 5 6 
#
# 1 97.1613 112.0245 37.9230 -35.9107 -0.0062 0.0000
# 2 112.0245 97.1613 37.9230 35.9107 0.0062 0.0000
# 3 37.9230 37.9230 93.7510 0.0000 0.0000 0.0000
# 4 -35.9107 35.9107 0.0000 -10.5152 0.0000 0.0062
# 5 -0.0062 0.0062 0.0000 0.0000 -10.5152 -35.9107
# 6 0.0000 0.0000 0.0000 0.0062 -35.9107 -7.4316
#
#
#
# Elastic Compliance Matrix: (Units=1/GPa)
#
#
# Indices 1 2 3 4 5 6 
#
# 1 0.004971 0.000631 -0.002266 -0.014822 -0.000003 0.000000
# 2 0.000631 0.004971 -0.002266 0.014822 0.000003 0.000000
# 3 -0.002266 -0.002266 0.012500 0.000000 0.000000 0.000000
# 4 -0.014822 0.014822 0.000000 0.006135 0.000000 0.000005
# 5 -0.000003 0.000003 0.000000 0.000000 0.006135 -0.029643
# 6 0.000000 0.000000 0.000000 0.000005 -0.029643 0.008680
#
#
# Mechanical properties :
#
#
# Convention : Reuss Voigt Hill
#
# Bulk Modulus (GPa) = 68.30760 73.75719 71.03239
# Shear Modulus (GPa) = 89.16952 0.98781 45.07867
#
# Velocity S-wave (km/s) = 6.48768 0.68284 4.61282
# Velocity P-wave (km/s) = 9.40014 5.95288 7.86764
#
# Compressibility (1/GPa) = 0.01463966
#
# Stress axis : x y z
#
# Youngs Moduli (GPa) = 201.16614 201.16614 80.00100
#
# Poissons Ratio (x) = -0.12695 0.18129
# Poissons Ratio (y) = -0.12695 0.18129
# Poissons Ratio (z) = 0.45586 0.45586
#
# Static dielectric constant tensor:
#      x y z
#    x 1.800970 0.000000 0.000000 
#    y 0.000000 1.800970 0.000000 
#    z 0.000000 0.000000 1.786560 
# 
# From -- ./inp_files/3471.got.cif
#   From: 2010.05.17/outbox.cif.g08.bks.cpg/sg167_2_cif.got.tgz:3471.got - 2010.05.20 11:09:15.
