data_PCOD9579138
_publ_section_title
;
Structure prediction by ZEFSAII (Michael W. Deem and Ramdas Pophale) SiO2 
 PCOD9579138
Probable space group: R -3 M
;
_chemical_formula_sum "Si O2"
_cell_formula_units_Z 270
_cell_length_a 25.615746
_cell_length_b 25.615746
_cell_length_c 25.292474
_cell_angle_alpha 90.000000
_cell_angle_beta 90.000000
_cell_angle_gamma 120.000000
_cell_volume 14372.620564
_symmetry_space_group_name_H-M "R -3 M"
_symmetry_group_IT_number 166
_symmetry_cell_setting 'hexagonal'
loop_
_space_group_symop_operation_xyz
x,y,z
-y,x-y,z
-x+y,-x,z
x-y,-y,-z
-x,-x+y,-z
y,x,-z
-x,-y,-z
y,-x+y,-z
x-y,x,-z
-x+y,y,z
x,x-y,z
-y,-x,z
2/3+x,1/3+y,1/3+z
2/3-y,1/3+x-y,1/3+z
2/3-x+y,1/3-x,1/3+z
2/3+x-y,1/3-y,1/3-z
2/3-x,1/3-x+y,1/3-z
2/3+y,1/3+x,1/3-z
2/3-x,1/3-y,1/3-z
2/3+y,1/3-x+y,1/3-z
2/3+x-y,1/3+x,1/3-z
2/3-x+y,1/3+y,1/3+z
2/3+x,1/3+x-y,1/3+z
2/3-y,1/3-x,1/3+z
1/3+x,2/3+y,2/3+z
1/3-y,2/3+x-y,2/3+z
1/3-x+y,2/3-x,2/3+z
1/3+x-y,2/3-y,2/3-z
1/3-x,2/3-x+y,2/3-z
1/3+y,2/3+x,2/3-z
1/3-x,2/3-y,2/3-z
1/3+y,2/3-x+y,2/3-z
1/3+x-y,2/3+x,2/3-z
1/3-x+y,2/3+y,2/3+z
1/3+x,2/3+x-y,2/3+z
1/3-y,2/3-x,2/3+z
loop_
_atom_site_type_symbol
_atom_site_label
_atom_site_fract_x
_atom_site_fract_y
_atom_site_fract_z
Si Si1 0.217787 0.551120 0.666667
Si Si2 0.177428 0.236431 0.272660
Si Si3 0.242460 0.879343 0.209008
Si Si4 0.600485 0.980986 0.561127
Si Si5 0.471864 0.066588 0.648427
Si Si6 0.747267 0.037741 0.425803
Si Si7 0.807423 0.960150 0.897503
Si Si8 0.666620 0.217130 0.537089
O O1 0.280409 0.560817 0.644906
O O2 0.194897 0.502305 0.711957
O O3 0.119915 0.239829 0.296510
O O4 0.216001 0.298700 0.239755
O O5 0.218232 0.218199 0.308175
O O6 0.149250 0.179453 0.233338
O O7 0.189807 0.810194 0.212824
O O8 0.307291 0.895241 0.232859
O O9 0.257668 0.898130 0.147142
O O10 0.662010 0.985518 0.580157
O O11 0.553496 0.910516 0.560793
O O12 0.604851 0.000000 0.500000
O O13 0.583032 0.018413 0.601585
O O14 0.542703 0.085405 0.643814
O O15 0.449709 0.041960 0.707699
O O16 0.778229 0.889115 0.886115
O O17 0.860823 0.992625 0.855976
O O18 0.600728 0.201457 0.556657
O O19 0.712211 0.287790 0.540846
#
# Coordination Sequence:
#
# PCOD9579138 Si02
#       8
#    18  36  36  36  36  36  36  36
#     4  10  21  38  56  78 110 152 203 256 306 354
#     4  10  21  38  60  86 115 153 195 239 297 358
#     4  10  20  39  64  89 118 159 202 243 302 365
#     4  12  23  41  60  82 118 163 202 247 298 362
#     4  12  25  39  59  90 123 160 200 247 301 361
#     4  11  22  39  60  90 123 155 196 248 300 355
#     4  10  22  35  51  77 106 144 194 245 295 347
#     4  10  19  33  53  77 105 141 189 242 292 343
#
# _framework density 18.785719
#
# number of rings (size 3 to 8) (size 9 to 14) (size 15 to 20)
#    0.000    1.333    2.667    3.800    1.867    2.667 
#    0.000    4.000    0.000    0.267    0.000    0.000 
#    0.000    0.000    0.000    6.800    0.000    0.000 
#
# Total GULP energy -501613.200884 kJ/mol
# GULP energy per Si atom -5573.480010 kJ/mol
# Density = 1.874296 g / cm^3
# Si number density = 18.785719 Si / 1000 Ang^3
#
#
#
# Elastic Constant Matrix: (Units=GPa)
#
#
# Indices 1 2 3 4 5 6 
#
# 1 69.0993 19.0878 18.8654 0.3059 0.0000 0.0000
# 2 19.0878 69.0993 18.8654 -0.3059 0.0000 0.0000
# 3 18.8654 18.8654 79.2332 0.0000 0.0000 0.0000
# 4 0.3059 -0.3059 0.0000 14.1349 0.0000 0.0000
# 5 0.0000 0.0000 0.0000 0.0000 14.1349 0.3059
# 6 0.0000 0.0000 0.0000 0.0000 0.3059 25.0058
#
#
#
# Elastic Compliance Matrix: (Units=1/GPa)
#
#
# Indices 1 2 3 4 5 6 
#
# 1 0.016313 -0.003687 -0.003006 -0.000433 0.000000 0.000000
# 2 -0.003687 0.016313 -0.003006 0.000433 0.000000 0.000000
# 3 -0.003006 -0.003006 0.014053 0.000000 0.000000 0.000000
# 4 -0.000433 0.000433 0.000000 0.070766 0.000000 0.000000
# 5 0.000000 0.000000 0.000000 0.000000 0.070766 -0.000866
# 6 0.000000 0.000000 0.000000 0.000000 -0.000866 0.040001
#
#
# Mechanical properties :
#
#
# Convention : Reuss Voigt Hill
#
# Bulk Modulus (GPa) = 36.65791 36.78543 36.72167
# Shear Modulus (GPa) = 19.47769 21.36269 20.42019
#
# Velocity S-wave (km/s) = 3.22349 3.37586 3.30055
# Velocity P-wave (km/s) = 5.78019 5.90079 5.84080
#
# Compressibility (1/GPa) = 0.02727924
#
# Stress axis : x y z
#
# Youngs Moduli (GPa) = 61.30010 61.30010 71.16168
#
# Poissons Ratio (x) = 0.22604 0.21392
# Poissons Ratio (y) = 0.22604 0.21392
# Poissons Ratio (z) = 0.18428 0.18428
#
# Static dielectric constant tensor:
#      x y z
#    x 1.668760 0.000000 0.000000 
#    y 0.000000 1.668760 0.000000 
#    z 0.000000 0.000000 1.649380 
# 
# From -- ./inp_files/8683.got.cif
#   From: 2010.05.17/outbox.cif.g08.bks.cpg/sg166_5_cif.got.tgz:8683.got - 2010.05.20 11:04:41.
