data_PCOD9579182
_publ_section_title
;
Structure prediction by ZEFSAII (Michael W. Deem and Ramdas Pophale) SiO2 
 PCOD9579182
Probable space group: R -3 M
;
_chemical_formula_sum "Si O2"
_cell_formula_units_Z 108
_cell_length_a 13.069677
_cell_length_b 13.069677
_cell_length_c 46.902940
_cell_angle_alpha 90.000000
_cell_angle_beta 90.000000
_cell_angle_gamma 120.000000
_cell_volume 6938.417158
_symmetry_space_group_name_H-M "R -3 M"
_symmetry_group_IT_number 166
_symmetry_cell_setting 'hexagonal'
loop_
_space_group_symop_operation_xyz
x,y,z
-y,x-y,z
-x+y,-x,z
x-y,-y,-z
-x,-x+y,-z
y,x,-z
-x,-y,-z
y,-x+y,-z
x-y,x,-z
-x+y,y,z
x,x-y,z
-y,-x,z
2/3+x,1/3+y,1/3+z
2/3-y,1/3+x-y,1/3+z
2/3-x+y,1/3-x,1/3+z
2/3+x-y,1/3-y,1/3-z
2/3-x,1/3-x+y,1/3-z
2/3+y,1/3+x,1/3-z
2/3-x,1/3-y,1/3-z
2/3+y,1/3-x+y,1/3-z
2/3+x-y,1/3+x,1/3-z
2/3-x+y,1/3+y,1/3+z
2/3+x,1/3+x-y,1/3+z
2/3-y,1/3-x,1/3+z
1/3+x,2/3+y,2/3+z
1/3-y,2/3+x-y,2/3+z
1/3-x+y,2/3-x,2/3+z
1/3+x-y,2/3-y,2/3-z
1/3-x,2/3-x+y,2/3-z
1/3+y,2/3+x,2/3-z
1/3-x,2/3-y,2/3-z
1/3+y,2/3-x+y,2/3-z
1/3+x-y,2/3+x,2/3-z
1/3-x+y,2/3+y,2/3+z
1/3+x,2/3+x-y,2/3+z
1/3-y,2/3-x,2/3+z
loop_
_atom_site_type_symbol
_atom_site_label
_atom_site_fract_x
_atom_site_fract_y
_atom_site_fract_z
Si Si1 0.242507 0.243059 0.142379
Si Si2 0.757759 0.758069 0.922721
Si Si3 0.576656 0.910377 0.973736
O O1 0.224827 0.112414 0.145421
O O2 0.333334 0.321753 0.166667
O O3 0.283437 0.281863 0.109807
O O4 0.118951 0.237902 0.145884
O O5 0.789530 0.894765 0.924520
O O6 0.656139 0.687632 0.945698
O O7 0.874624 0.749248 0.928059
O O8 0.446107 0.892214 0.970300
O O9 0.571270 0.785635 0.978732
O O10 0.637988 0.000000 0.000000
#
# Coordination Sequence:
#
# PCOD9579182 Si02
#       3
#    36  36  36
#     4   9  17  29  46  68  93 121 152 187 228 273
#     4   9  17  30  48  69  92 118 150 189 232 275
#     4  10  20  33  49  69  94 123 154 188 226 269
#
# _framework density 15.56551
#
# number of rings (size 3 to 8) (size 9 to 14) (size 15 to 20)
#    0.000    2.667    0.000    2.000    0.000    4.000 
#    0.000    0.000    0.000   10.333    0.000    0.000 
#    0.000    0.000    0.000    0.000    0.000    0.000 
#
# Total GULP energy -200604.808384 kJ/mol
# GULP energy per Si atom -5572.355788 kJ/mol
# Density = 1.553008 g / cm^3
# Si number density = 15.565510 Si / 1000 Ang^3
#
#
#
# Elastic Constant Matrix: (Units=GPa)
#
#
# Indices 1 2 3 4 5 6 
#
# 1 94.7744 54.8863 81.1525 2.3191 -0.0004 0.0000
# 2 54.8863 94.7744 81.1525 -2.3191 0.0004 0.0000
# 3 81.1525 81.1525 133.8916 0.0000 0.0000 0.0000
# 4 2.3191 -2.3191 0.0000 26.8946 0.0000 0.0004
# 5 -0.0004 0.0004 0.0000 0.0000 26.8946 2.3191
# 6 0.0000 0.0000 0.0000 0.0004 2.3191 19.9441
#
#
#
# Elastic Compliance Matrix: (Units=1/GPa)
#
#
# Indices 1 2 3 4 5 6 
#
# 1 0.022411 -0.002913 -0.011818 -0.002184 0.000000 0.000000
# 2 -0.002913 0.022411 -0.011818 0.002184 0.000000 0.000000
# 3 -0.011818 -0.011818 0.021795 0.000000 0.000000 0.000000
# 4 -0.002184 0.002184 0.000000 0.037559 0.000000 -0.000001
# 5 0.000000 0.000000 0.000000 0.000000 0.037559 -0.004367
# 6 0.000000 0.000000 0.000000 -0.000001 -0.004367 0.050648
#
#
# Mechanical properties :
#
#
# Convention : Reuss Voigt Hill
#
# Bulk Modulus (GPa) = 73.96927 84.20257 79.08592
# Shear Modulus (GPa) = 20.00106 21.82993 20.91550
#
# Velocity S-wave (km/s) = 3.58852 3.74900 3.66964
# Velocity P-wave (km/s) = 8.04950 8.54126 8.29902
#
# Compressibility (1/GPa) = 0.01351913
#
# Stress axis : x y z
#
# Youngs Moduli (GPa) = 44.62066 44.62066 45.88281
#
# Poissons Ratio (x) = 0.12998 0.54224
# Poissons Ratio (y) = 0.12998 0.54224
# Poissons Ratio (z) = 0.52733 0.52733
#
# Static dielectric constant tensor:
#      x y z
#    x 1.489190 0.000000 0.000000 
#    y 0.000000 1.489190 0.000000 
#    z 0.000000 0.000000 1.525780 
# 
# From -- ./inp_files/10094.got.cif
#   From: 2010.05.17/outbox.cif.g08.bks.cpg/sg166_6_cif.got.tgz:10094.got - 2010.05.20 11:04:41.
