data_PCOD9579030
_publ_section_title
;
Structure prediction by ZEFSAII (Michael W. Deem and Ramdas Pophale) SiO2 
 PCOD9579030
Probable space group: R -3 M
;
_chemical_formula_sum "Si O2"
_cell_formula_units_Z 216
_cell_length_a 24.418383
_cell_length_b 24.418383
_cell_length_c 24.409539
_cell_angle_alpha 90.000000
_cell_angle_beta 90.000000
_cell_angle_gamma 120.000000
_cell_volume 12604.453248
_symmetry_space_group_name_H-M "R -3 M"
_symmetry_group_IT_number 166
_symmetry_cell_setting 'hexagonal'
loop_
_space_group_symop_operation_xyz
x,y,z
-y,x-y,z
-x+y,-x,z
x-y,-y,-z
-x,-x+y,-z
y,x,-z
-x,-y,-z
y,-x+y,-z
x-y,x,-z
-x+y,y,z
x,x-y,z
-y,-x,z
2/3+x,1/3+y,1/3+z
2/3-y,1/3+x-y,1/3+z
2/3-x+y,1/3-x,1/3+z
2/3+x-y,1/3-y,1/3-z
2/3-x,1/3-x+y,1/3-z
2/3+y,1/3+x,1/3-z
2/3-x,1/3-y,1/3-z
2/3+y,1/3-x+y,1/3-z
2/3+x-y,1/3+x,1/3-z
2/3-x+y,1/3+y,1/3+z
2/3+x,1/3+x-y,1/3+z
2/3-y,1/3-x,1/3+z
1/3+x,2/3+y,2/3+z
1/3-y,2/3+x-y,2/3+z
1/3-x+y,2/3-x,2/3+z
1/3+x-y,2/3-y,2/3-z
1/3-x,2/3-x+y,2/3-z
1/3+y,2/3+x,2/3-z
1/3-x,2/3-y,2/3-z
1/3+y,2/3-x+y,2/3-z
1/3+x-y,2/3+x,2/3-z
1/3-x+y,2/3+y,2/3+z
1/3+x,2/3+x-y,2/3+z
1/3-y,2/3-x,2/3+z
loop_
_atom_site_type_symbol
_atom_site_label
_atom_site_fract_x
_atom_site_fract_y
_atom_site_fract_z
Si Si1 0.201075 0.277265 0.571436
Si Si2 0.781428 0.729411 0.724133
Si Si3 0.524885 0.600008 0.819242
Si Si4 0.994266 0.591371 0.352113
Si Si5 0.183132 0.246766 0.394983
Si Si6 0.607170 0.864008 0.794279
O O1 0.127697 0.255394 0.562706
O O2 0.241198 0.334301 0.528640
O O3 0.221924 0.310207 0.631486
O O4 0.218345 0.221636 0.574243
O O5 0.811554 0.755026 0.782655
O O6 0.715935 0.728321 0.714630
O O7 0.820972 0.766324 0.670582
O O8 0.763361 0.656305 0.727002
O O9 0.456495 0.543506 0.800032
O O10 0.554310 0.669885 0.795117
O O11 0.942121 0.608787 0.333334
O O12 0.966315 0.540721 0.399422
O O13 0.114465 0.228929 0.417073
O O14 0.585371 0.792686 0.812299
O O15 0.666667 0.909401 0.833334
#
# Coordination Sequence:
#
# PCOD9579030 Si02
#       6
#    36  36  36  36  36  36
#     4  10  21  33  48  71  98 133 170 203 249 301
#     4  10  17  30  49  73  98 127 162 196 245 303
#     4  11  21  34  51  72 102 134 169 211 252 298
#     4  11  17  32  52  72 103 136 159 204 251 306
#     4  10  18  30  47  69  96 127 163 201 247 296
#     4  11  22  34  52  76 105 137 171 207 253 315
#
# _framework density 17.136800000000001
#
# number of rings (size 3 to 8) (size 9 to 14) (size 15 to 20)
#    0.000    1.500    6.667    2.500    0.000    0.000 
#    0.000    0.000    0.000    0.667    0.000    0.000 
#    0.000    2.000    0.000    5.333    0.000    0.000 
#
# Total GULP energy -401334.676943 kJ/mol
# GULP energy per Si atom -5574.092735 kJ/mol
# Density = 1.709780 g / cm^3
# Si number density = 17.136800 Si / 1000 Ang^3
#
#
#
# Elastic Constant Matrix: (Units=GPa)
#
#
# Indices 1 2 3 4 5 6 
#
# 1 62.9024 70.9924 11.2649 -9.8763 0.0014 0.0000
# 2 70.9924 62.9024 11.2649 9.8763 -0.0014 0.0000
# 3 11.2649 11.2649 48.6246 0.0000 0.0000 0.0000
# 4 -9.8763 9.8763 0.0000 1.4325 0.0000 -0.0014
# 5 0.0014 -0.0014 0.0000 0.0000 1.4325 -9.8763
# 6 0.0000 0.0000 0.0000 -0.0014 -9.8763 -4.0450
#
#
#
# Elastic Compliance Matrix: (Units=1/GPa)
#
#
# Indices 1 2 3 4 5 6 
#
# 1 0.000420 0.007351 -0.001800 -0.047788 0.000007 0.000000
# 2 0.007351 0.000420 -0.001800 0.047788 -0.000007 0.000000
# 3 -0.001800 -0.001800 0.021400 0.000000 0.000000 0.000000
# 4 -0.047788 0.047788 0.000000 0.039145 0.000000 -0.000014
# 5 0.000007 -0.000007 0.000000 0.000000 0.039145 -0.095575
# 6 0.000000 0.000000 0.000000 -0.000014 -0.095575 -0.013863
#
#
# Mechanical properties :
#
#
# Convention : Reuss Voigt Hill
#
# Bulk Modulus (GPa) = 33.62339 40.16376 36.89358
# Shear Modulus (GPa) = 56.12985 5.15780 30.64383
#
# Velocity S-wave (km/s) = 5.72932 1.73675 4.23329
# Velocity P-wave (km/s) = 7.96429 5.24498 6.74314
#
# Compressibility (1/GPa) = 0.02974120
#
# Stress axis : x y z
#
# Youngs Moduli (GPa) = 2380.56499 2380.56489 46.72912
#
# Poissons Ratio (x) = -17.50057 0.08413
# Poissons Ratio (y) = -17.50057 0.08413
# Poissons Ratio (z) = 4.28605 4.28605
#
# Static dielectric constant tensor:
#      x y z
#    x 1.587580 0.000000 0.000000 
#    y 0.000000 1.587580 0.000000 
#    z 0.000000 0.000000 1.647240 
# 
# From -- ./inp_files/8473.got.cif
#   From: 2010.05.17/outbox.cif.g08.bks.cpg/sg166_5_cif.got.tgz:8473.got - 2010.05.20 11:04:41.
