data_PCOD9579840
_publ_section_title
;
Structure prediction by ZEFSAII (Michael W. Deem and Ramdas Pophale) SiO2 
 PCOD9579840
Probable space group: P 61
;
_chemical_formula_sum "Si O2"
_cell_formula_units_Z 48
_cell_length_a 13.971358
_cell_length_b 13.971358
_cell_length_c 11.624899
_cell_angle_alpha 90.000000
_cell_angle_beta 90.000000
_cell_angle_gamma 120.000000
_cell_volume 1965.156138
_symmetry_space_group_name_H-M "P 61"
_symmetry_group_IT_number 169
_symmetry_cell_setting 'hexagonal'
loop_
_space_group_symop_operation_xyz
x,y,z
x-y,x,1/6+z
-y,x-y,1/3+z
-x,-y,1/2+z
-x+y,-x,2/3+z
y,-x+y,5/6+z
loop_
_atom_site_type_symbol
_atom_site_label
_atom_site_fract_x
_atom_site_fract_y
_atom_site_fract_z
Si Si1 0.173256 0.153928 0.113970
Si Si2 0.502388 0.130337 0.064093
Si Si3 0.852879 0.037499 0.078229
Si Si4 0.219587 0.573552 0.353415
Si Si5 0.667406 0.625744 0.326550
Si Si6 0.966901 0.614547 0.735996
Si Si7 0.381583 0.923447 0.207147
Si Si8 0.182345 0.471149 0.776788
O O1 0.303228 0.235874 0.127559
O O2 0.109823 0.148049 0.229212
O O3 0.126286 0.202794 0.013659
O O4 0.548708 0.252324 0.106846
O O5 0.413290 0.041323 0.152501
O O6 0.437232 0.091876 0.943418
O O7 0.615442 0.129289 0.039325
O O8 0.845159 0.926425 0.131251
O O9 0.726432 0.009927 0.068714
O O10 0.186122 0.493963 0.465079
O O11 0.274868 0.701289 0.389406
O O12 0.104926 0.511808 0.278767
O O13 0.636978 0.673994 0.436827
O O14 0.568010 0.499686 0.343471
O O15 0.771540 0.604405 0.327474
O O16 0.334400 0.900126 0.334462
#
# Coordination Sequence:
#
# PCOD9579840 Si02
#       8
#     6   6   6   6   6   6   6   6
#     4  10  19  35  62  90 129 163 218 284 330 408
#     4  11  24  40  72  97 133 186 223 286 357 424
#     4  10  21  37  63  94 124 165 218 272 339 403
#     4  10  23  42  67  98 137 176 228 286 361 425
#     4  11  22  39  68  95 133 173 229 288 343 421
#     4  11  21  39  66 102 126 173 233 285 341 421
#     4  10  24  44  62 101 137 176 232 286 349 424
#     4  11  24  46  64  99 141 184 227 289 358 428
#
# _framework density 24.425540999999999
#
# number of rings (size 3 to 8) (size 9 to 14) (size 15 to 20)
#    0.000    1.500    3.750    2.250    1.750    2.000 
#    2.250    0.000   38.500    0.000    0.000    0.000 
#    0.000    0.000    0.000    0.000    0.000    0.000 
#
# Total GULP energy -267396.541682 kJ/mol
# GULP energy per Si atom -5570.761285 kJ/mol
# Density = 2.436995 g / cm^3
# Si number density = 24.425541 Si / 1000 Ang^3
#
#
#
# Elastic Constant Matrix: (Units=GPa)
#
#
# Indices 1 2 3 4 5 6 
#
# 1 53.5023 -8.6554 10.9509 0.0000 0.0000 0.0000
# 2 -8.6554 53.5023 10.9509 0.0000 0.0000 0.0000
# 3 10.9509 10.9509 48.7204 0.0000 0.0000 0.0000
# 4 0.0000 0.0000 0.0000 31.2071 0.0000 0.0000
# 5 0.0000 0.0000 0.0000 0.0000 31.2071 0.0000
# 6 0.0000 0.0000 0.0000 0.0000 0.0000 31.0789
#
#
#
# Elastic Compliance Matrix: (Units=1/GPa)
#
#
# Indices 1 2 3 4 5 6 
#
# 1 0.020568 0.004480 -0.005630 0.000000 0.000000 0.000000
# 2 0.004480 0.020568 -0.005630 0.000000 0.000000 0.000000
# 3 -0.005630 -0.005630 0.023056 0.000000 0.000000 0.000000
# 4 0.000000 0.000000 0.000000 0.032044 0.000000 0.000000
# 5 0.000000 0.000000 0.000000 0.000000 0.032044 0.000000
# 6 0.000000 0.000000 0.000000 0.000000 0.000000 0.032176
#
#
# Mechanical properties :
#
#
# Convention : Reuss Voigt Hill
#
# Bulk Modulus (GPa) = 19.75052 20.24640 19.99846
# Shear Modulus (GPa) = 26.19260 28.19718 27.19489
#
# Velocity S-wave (km/s) = 3.27822 3.40135 3.34035
# Velocity P-wave (km/s) = 4.73630 4.87161 4.80443
#
# Compressibility (1/GPa) = 0.05063157
#
# Stress axis : x y z
#
# Youngs Moduli (GPa) = 48.61959 48.61959 43.37230
#
# Poissons Ratio (x) = -0.21780 0.24418
# Poissons Ratio (y) = -0.21780 0.24418
# Poissons Ratio (z) = 0.27373 0.27373
#
# Static dielectric constant tensor:
#      x y z
#    x 2.063290 0.000000 0.000000 
#    y 0.000000 2.063290 0.000000 
#    z 0.000000 0.000000 1.981540 
# 
# From -- ./inp_files/1017.got.cif
#   From: 2010.05.17/outbox.cif.g08.bks.cpg/sg169_cif.got.tgz:1017.got - 2010.05.20 11:12:54.
