data_PCOD9579384
_publ_section_title
;
Structure prediction by ZEFSAII (Michael W. Deem and Ramdas Pophale) SiO2 
 PCOD9579384
Probable space group: R -3 M
;
_chemical_formula_sum "Si O2"
_cell_formula_units_Z 48
_cell_length_a 30.000000
_cell_length_b 30.000000
_cell_length_c 9.000000
_cell_angle_alpha 90.000000
_cell_angle_beta 90.000000
_cell_angle_gamma 120.000000
_cell_volume 7014.805771
_symmetry_space_group_name_H-M "R -3 M"
_symmetry_group_IT_number 166
_symmetry_cell_setting 'hexagonal'
loop_
_space_group_symop_operation_xyz
x,y,z
-y,x-y,z
-x+y,-x,z
x-y,-y,-z
-x,-x+y,-z
y,x,-z
-x,-y,-z
y,-x+y,-z
x-y,x,-z
-x+y,y,z
x,x-y,z
-y,-x,z
2/3+x,1/3+y,1/3+z
2/3-y,1/3+x-y,1/3+z
2/3-x+y,1/3-x,1/3+z
2/3+x-y,1/3-y,1/3-z
2/3-x,1/3-x+y,1/3-z
2/3+y,1/3+x,1/3-z
2/3-x,1/3-y,1/3-z
2/3+y,1/3-x+y,1/3-z
2/3+x-y,1/3+x,1/3-z
2/3-x+y,1/3+y,1/3+z
2/3+x,1/3+x-y,1/3+z
2/3-y,1/3-x,1/3+z
1/3+x,2/3+y,2/3+z
1/3-y,2/3+x-y,2/3+z
1/3-x+y,2/3-x,2/3+z
1/3+x-y,2/3-y,2/3-z
1/3-x,2/3-x+y,2/3-z
1/3+y,2/3+x,2/3-z
1/3-x,2/3-y,2/3-z
1/3+y,2/3-x+y,2/3-z
1/3+x-y,2/3+x,2/3-z
1/3-x+y,2/3+y,2/3+z
1/3+x,2/3+x-y,2/3+z
1/3-y,2/3-x,2/3+z
loop_
_atom_site_type_symbol
_atom_site_label
_atom_site_fract_x
_atom_site_fract_y
_atom_site_fract_z
Si Si1 0.044535 0.859476 0.397941
Si Si2 0.905283 0.196719 0.773170
Si Si3 0.304712 0.503241 0.822749
Si Si4 0.278409 0.193517 0.103510
O O1 0.089144 0.910857 0.473935
O O2 0.072021 0.833221 0.314906
O O3 0.987166 0.858836 0.722373
O O4 0.000000 0.818927 0.500000
O O5 0.844580 0.155421 0.803483
O O6 0.906489 0.239823 0.666667
O O7 0.930814 0.209808 0.933338
O O8 0.253664 0.507327 0.821519
O O9 0.333334 0.519408 0.666667
O O10 0.287061 0.442594 0.846309
O O11 0.278204 0.139102 0.105996
O O12 0.333334 0.235679 0.166667
#
# Coordination Sequence:
#
# PCOD9579384 Si02
#       4
#    36  36  36  36
#     4  11  23  39  59  87 120 161 214 266 316 367
#     4   9  18  33  54  82 114 143 180 233 293 364
#     4  11  21  37  61  87 119 159 208 265 317 369
#     4   9  18  32  54  85 113 141 181 232 295 367
#
# _framework density 6.84267
#
# number of rings (size 3 to 8) (size 9 to 14) (size 15 to 20)
#    0.000    2.000    2.500    1.500    3.500    0.000 
#    0.000    0.000    0.000   13.000    0.000    0.000 
#    0.000    0.000    0.000    0.000    0.000    0.000 
#
# Total GULP energy -267286.477135 kJ/mol
# GULP energy per Si atom -5568.468274 kJ/mol
# Density = 0.682710 g / cm^3
# Si number density = 6.842670 Si / 1000 Ang^3
#
#
#
# Elastic Constant Matrix: (Units=GPa)
#
#
# Indices 1 2 3 4 5 6 
#
# 1 70.5055 25.1344 15.9895 -4.4731 0.0301 0.0029
# 2 25.1344 70.5087 15.8996 4.4671 -0.0714 -0.0216
# 3 15.9895 15.8996 58.0208 -0.0239 0.0189 0.0059
# 4 -4.4731 4.4671 -0.0239 25.9393 0.0126 -0.0050
# 5 0.0301 -0.0714 0.0189 0.0126 26.0604 -4.4533
# 6 0.0029 -0.0216 0.0059 -0.0050 -4.4533 22.6766
#
#
#
# Elastic Compliance Matrix: (Units=1/GPa)
#
#
# Indices 1 2 3 4 5 6 
#
# 1 0.017169 -0.005652 -0.003181 0.003931 -0.000037 -0.000013
# 2 -0.005652 0.017156 -0.003145 -0.003932 0.000063 0.000029
# 3 -0.003181 -0.003145 0.018974 0.000011 -0.000021 -0.000012
# 4 0.003931 -0.003932 0.000011 0.039907 -0.000035 -0.000002
# 5 -0.000037 0.000063 -0.000021 -0.000035 0.039705 0.007797
# 6 -0.000013 0.000029 -0.000012 -0.000002 0.007797 0.045630
#
#
# Mechanical properties :
#
#
# Convention : Reuss Voigt Hill
#
# Bulk Modulus (GPa) = 34.08091 34.78687 34.43389
# Shear Modulus (GPa) = 23.55410 24.40271 23.97840
#
# Velocity S-wave (km/s) = 3.39102 3.45157 3.42143
# Velocity P-wave (km/s) = 5.65422 5.73300 5.69375
#
# Compressibility (1/GPa) = 0.02934194
#
# Stress axis : x y z
#
# Youngs Moduli (GPa) = 58.24446 58.28896 52.70437
#
# Poissons Ratio (x) = 0.32945 0.16765
# Poissons Ratio (y) = 0.32920 0.16577
# Poissons Ratio (z) = 0.18528 0.18334
#
# Static dielectric constant tensor:
#      x y z
#    x 1.678440 0.350770 -0.000890 
#    y 0.350770 2.140740 0.004510 
#    z -0.000890 0.004510 1.806800 
# 
# From -- ./inp_files/1823.got.cif
#   From: 2010.05.17/outbox.ucp.g08.bks.cvg/sg166_1_cif.got.tgz:1823.got - 2010.06.11 15:16:39.
