data_PCOD9579519
_publ_section_title
;
Structure prediction by ZEFSAII (Michael W. Deem and Ramdas Pophale) SiO2 
 PCOD9579519
Probable space group: R -3 C 
;
_chemical_formula_sum "Si O2"
_cell_formula_units_Z 216
_cell_length_a 23.276999
_cell_length_b 23.276999
_cell_length_c 22.857913
_cell_angle_alpha 90.000000
_cell_angle_beta 90.000000
_cell_angle_gamma 120.000000
_cell_volume 10725.589790
_symmetry_space_group_name_H-M "R -3 C "
_symmetry_group_IT_number 167
_symmetry_cell_setting 'hexagonal'
loop_
_space_group_symop_operation_xyz
x,y,z
-y,x-y,z
-x+y,-x,z
x-y,-y,1/2-z
-x,-x+y,1/2-z
y,x,1/2-z
-x,-y,-z
y,-x+y,-z
x-y,x,-z
-x+y,y,1/2+z
x,x-y,1/2+z
-y,-x,1/2+z
2/3+x,1/3+y,1/3+z
2/3-y,1/3+x-y,1/3+z
2/3-x+y,1/3-x,1/3+z
2/3+x-y,1/3-y,5/6-z
2/3-x,1/3-x+y,5/6-z
2/3+y,1/3+x,5/6-z
2/3-x,1/3-y,1/3-z
2/3+y,1/3-x+y,1/3-z
2/3+x-y,1/3+x,1/3-z
2/3-x+y,1/3+y,5/6+z
2/3+x,1/3+x-y,5/6+z
2/3-y,1/3-x,5/6+z
1/3+x,2/3+y,2/3+z
1/3-y,2/3+x-y,2/3+z
1/3-x+y,2/3-x,2/3+z
1/3+x-y,2/3-y,1/6-z
1/3-x,2/3-x+y,1/6-z
1/3+y,2/3+x,1/6-z
1/3-x,2/3-y,2/3-z
1/3+y,2/3-x+y,2/3-z
1/3+x-y,2/3+x,2/3-z
1/3-x+y,2/3+y,1/6+z
1/3+x,2/3+x-y,1/6+z
1/3-y,2/3-x,1/6+z
loop_
_atom_site_type_symbol
_atom_site_label
_atom_site_fract_x
_atom_site_fract_y
_atom_site_fract_z
Si Si1 0.487367 0.227717 0.473758
Si Si2 0.669609 0.666667 0.916667
Si Si3 0.791905 0.469475 0.850024
Si Si4 0.490053 0.926917 0.511164
Si Si5 0.028546 0.279774 0.134126
Si Si6 0.000000 0.844605 0.750000
Si Si7 0.141459 0.459273 0.261227
O O1 0.516941 0.210041 0.417788
O O2 0.416368 0.160423 0.478573
O O3 0.525439 0.230834 0.532820
O O4 0.485091 0.292904 0.458959
O O5 0.620920 0.644280 0.861558
O O6 0.670555 0.601086 0.936541
O O7 0.794082 0.403249 0.841949
O O8 0.847017 0.525866 0.808453
O O9 0.552527 0.931746 0.546554
O O10 0.492623 0.884752 0.454111
O O11 0.419959 0.891525 0.545273
O O12 0.500000 0.000000 0.500000
O O13 0.055651 0.333334 0.083334
#
# Coordination Sequence:
#
# PCOD9579519 Si02
#       7
#    36  18  36  36  36  18  36
#     4  10  23  42  67  98 137 181 227 292 351 416
#     4  12  25  44  62  98 134 182 232 283 352 432
#     4  10  20  40  67  98 130 172 224 283 343 406
#     4  11  23  43  67  95 138 186 226 286 350 422
#     4  11  23  42  66  96 134 180 227 282 353 416
#     4  10  23  44  68  92 138 186 228 281 354 420
#     4  11  25  42  69 101 137 178 239 288 354 421
#
# _framework density 20.138753000000001
#
# number of rings (size 3 to 8) (size 9 to 14) (size 15 to 20)
#    0.000    1.333    1.667    5.167    1.167    3.333 
#    0.000    0.000    0.000   13.333    0.000    0.000 
#    0.000    0.000    0.000    0.000    0.000    0.000 
#
# Total GULP energy -401612.045684 kJ/mol
# GULP energy per Si atom -5577.945079 kJ/mol
# Density = 2.009292 g / cm^3
# Si number density = 20.138753 Si / 1000 Ang^3
#
#
#
# Elastic Constant Matrix: (Units=GPa)
#
#
# Indices 1 2 3 4 5 6 
#
# 1 22.4713 73.6574 21.9762 87.8456 -0.0064 0.0000
# 2 73.6574 22.4713 21.9762 -87.8456 0.0064 0.0000
# 3 21.9762 21.9762 125.3714 0.0000 0.0000 0.0000
# 4 87.8456 -87.8456 0.0000 -28.0340 0.0000 0.0064
# 5 -0.0064 0.0064 0.0000 0.0000 -28.0340 87.8456
# 6 0.0000 0.0000 0.0000 0.0064 87.8456 -25.5930
#
#
#
# Elastic Compliance Matrix: (Units=1/GPa)
#
#
# Indices 1 2 3 4 5 6 
#
# 1 0.006656 0.004653 -0.001982 0.006275 0.000000 0.000000
# 2 0.004653 0.006656 -0.001982 -0.006275 0.000000 0.000000
# 3 -0.001982 -0.001982 0.008671 0.000000 0.000000 0.000000
# 4 0.006275 -0.006275 0.000000 0.003656 0.000000 0.000001
# 5 0.000000 0.000000 0.000000 0.000000 0.003656 0.012550
# 6 0.000000 0.000000 0.000000 0.000001 0.012550 0.004005
#
#
# Mechanical properties :
#
#
# Convention : Reuss Voigt Hill
#
# Bulk Modulus (GPa) = 42.80812 45.05927 43.93370
# Shear Modulus (GPa) = 125.91052 -12.81858 56.54597
#
# Velocity S-wave (km/s) = 7.91563 -2.52566 5.30463
# Velocity P-wave (km/s) = 10.23942 3.73065 7.70595
#
# Compressibility (1/GPa) = 0.02336005
#
# Stress axis : x y z
#
# Youngs Moduli (GPa) = 150.24364 150.24364 115.32341
#
# Poissons Ratio (x) = -0.69912 0.22861
# Poissons Ratio (y) = -0.69912 0.22861
# Poissons Ratio (z) = 0.29784 0.29784
#
# Static dielectric constant tensor:
#      x y z
#    x 1.725960 0.000000 0.000000 
#    y 0.000000 1.725960 0.000000 
#    z 0.000000 0.000000 1.742920 
# 
# From -- ./inp_files/5574.got.cif
#   From: 2010.05.17/outbox.cif.g08.bks.cpg/sg167_3_cif.got.tgz:5574.got - 2010.05.20 11:09:15.
