data_PCOD9579008
_publ_section_title
;
Structure prediction by ZEFSAII (Michael W. Deem and Ramdas Pophale) SiO2 
 PCOD9579008
Probable space group: P -3 C 1
;
_chemical_formula_sum "Si O2"
_cell_formula_units_Z 84
_cell_length_a 21.000000
_cell_length_b 21.000000
_cell_length_c 12.000000
_cell_angle_alpha 90.000000
_cell_angle_beta 90.000000
_cell_angle_gamma 120.000000
_cell_volume 4583.006437
_symmetry_space_group_name_H-M "P -3 C 1"
_symmetry_group_IT_number 165
_symmetry_cell_setting 'hexagonal'
loop_
_space_group_symop_operation_xyz
x,y,z
-y,x-y,z
-x+y,-x,z
x-y,-y,1/2-z
-x,-x+y,1/2-z
y,x,1/2-z
-x,-y,-z
y,-x+y,-z
x-y,x,-z
-x+y,y,1/2+z
x,x-y,1/2+z
-y,-x,1/2+z
loop_
_atom_site_type_symbol
_atom_site_label
_atom_site_fract_x
_atom_site_fract_y
_atom_site_fract_z
Si Si1 0.460654 0.546594 0.035354
Si Si2 0.820676 0.452221 0.176390
Si Si3 0.384605 0.324916 0.930220
Si Si4 0.382766 0.079834 0.695327
Si Si5 0.891470 0.310684 0.034947
Si Si6 0.216049 0.698796 0.771564
Si Si7 0.804958 0.192261 0.354233
O O1 0.530777 0.612936 0.101864
O O2 0.500000 0.500000 0.000000
O O3 0.446544 0.591799 0.939442
O O4 0.376518 0.478519 0.045525
O O5 0.883149 0.530524 0.221098
O O6 0.804244 0.383618 0.253150
O O7 0.744564 0.451184 0.164830
O O8 0.335213 0.362606 0.921523
O O9 0.357131 0.248257 0.867388
O O10 0.381382 0.305080 0.061803
O O11 0.360563 0.135884 0.750907
O O12 0.337262 0.000000 0.750000
O O13 0.843307 0.303351 0.142409
O O14 0.854245 0.236442 0.962977
O O15 0.223553 0.749761 0.667915
#
# Coordination Sequence:
#
# PCOD9579008 Si02
#       7
#    12  12  12  12  12  12  12
#     4   8  16  30  49  72  95 128 178 232 267 319
#     4   9  18  33  50  67 103 138 179 232 276 332
#     4  10  20  35  53  77 102 135 185 226 276 334
#     4  10  19  36  55  75 100 142 186 224 280 344
#     4  10  19  35  53  72 104 141 180 230 280 328
#     4  10  21  35  48  75 104 143 186 232 293 329
#     4  11  21  33  53  76 105 135 179 229 281 338
#
# _framework density 18.328579999999999
#
# number of rings (size 3 to 8) (size 9 to 14) (size 15 to 20)
#    0.000    2.286    1.429    2.857    0.000    2.857 
#    7.714    0.000    0.000    7.429    0.000    0.000 
#    0.000    0.000    0.000    0.429    6.857    0.000 
#
# Total GULP energy -467646.550404 kJ/mol
# GULP energy per Si atom -5567.220838 kJ/mol
# Density = 1.828686 g / cm^3
# Si number density = 18.328580 Si / 1000 Ang^3
#
#
#
# Elastic Constant Matrix: (Units=GPa)
#
#
# Indices 1 2 3 4 5 6 
#
# 1 88.8293 41.3314 17.6030 5.4975 0.0000 0.0000
# 2 41.3314 88.8293 17.6030 -5.4975 0.0000 0.0000
# 3 17.6030 17.6030 16.1272 0.0000 0.0000 0.0000
# 4 5.4975 -5.4975 0.0000 20.9858 0.0000 0.0000
# 5 0.0000 0.0000 0.0000 0.0000 20.9858 5.4975
# 6 0.0000 0.0000 0.0000 0.0000 5.4975 23.7489
#
#
#
# Elastic Compliance Matrix: (Units=1/GPa)
#
#
# Indices 1 2 3 4 5 6 
#
# 1 0.016657 -0.005756 -0.011899 -0.005871 0.000000 0.000000
# 2 -0.005756 0.016657 -0.011899 0.005871 0.000000 0.000000
# 3 -0.011899 -0.011899 0.087982 0.000000 0.000000 0.000000
# 4 -0.005871 0.005871 0.000000 0.050727 0.000000 0.000000
# 5 0.000000 0.000000 0.000000 0.000000 0.050727 -0.011743
# 6 0.000000 0.000000 0.000000 0.000000 -0.011743 0.044825
#
#
# Mechanical properties :
#
#
# Convention : Reuss Voigt Hill
#
# Bulk Modulus (GPa) = 16.07983 38.54005 27.30994
# Shear Modulus (GPa) = 14.39210 20.96068 17.67639
#
# Velocity S-wave (km/s) = 2.80523 3.38539 3.10887
# Velocity P-wave (km/s) = 4.39142 6.02944 5.27440
#
# Compressibility (1/GPa) = 0.06218973
#
# Stress axis : x y z
#
# Youngs Moduli (GPa) = 60.03503 60.03503 11.36590
#
# Poissons Ratio (x) = 0.34555 0.13524
# Poissons Ratio (y) = 0.34555 0.13524
# Poissons Ratio (z) = 0.71434 0.71434
#
# Static dielectric constant tensor:
#      x y z
#    x 1.633150 0.000000 0.000000 
#    y 0.000000 1.633150 0.000000 
#    z 0.000000 0.000000 1.714490 
# 
# From -- ./inp_files/1221.got.cif
#   From: 2010.05.17/outbox.ucp.g08.bks.cvg/sg165_1_cif.got.tgz:1221.got - 2010.06.11 15:16:31.
