data_PCOD9579682
_publ_section_title
;
Structure prediction by ZEFSAII (Michael W. Deem and Ramdas Pophale) SiO2 
 PCOD9579682
Probable space group: R -3 C 
;
_chemical_formula_sum "Si O2"
_cell_formula_units_Z 144
_cell_length_a 28.556399
_cell_length_b 28.556399
_cell_length_c 9.828872
_cell_angle_alpha 90.000000
_cell_angle_beta 90.000000
_cell_angle_gamma 120.000000
_cell_volume 6941.306059
_symmetry_space_group_name_H-M "R -3 C "
_symmetry_group_IT_number 167
_symmetry_cell_setting 'hexagonal'
loop_
_space_group_symop_operation_xyz
x,y,z
-y,x-y,z
-x+y,-x,z
x-y,-y,1/2-z
-x,-x+y,1/2-z
y,x,1/2-z
-x,-y,-z
y,-x+y,-z
x-y,x,-z
-x+y,y,1/2+z
x,x-y,1/2+z
-y,-x,1/2+z
2/3+x,1/3+y,1/3+z
2/3-y,1/3+x-y,1/3+z
2/3-x+y,1/3-x,1/3+z
2/3+x-y,1/3-y,5/6-z
2/3-x,1/3-x+y,5/6-z
2/3+y,1/3+x,5/6-z
2/3-x,1/3-y,1/3-z
2/3+y,1/3-x+y,1/3-z
2/3+x-y,1/3+x,1/3-z
2/3-x+y,1/3+y,5/6+z
2/3+x,1/3+x-y,5/6+z
2/3-y,1/3-x,5/6+z
1/3+x,2/3+y,2/3+z
1/3-y,2/3+x-y,2/3+z
1/3-x+y,2/3-x,2/3+z
1/3+x-y,2/3-y,1/6-z
1/3-x,2/3-x+y,1/6-z
1/3+y,2/3+x,1/6-z
1/3-x,2/3-y,2/3-z
1/3+y,2/3-x+y,2/3-z
1/3+x-y,2/3+x,2/3-z
1/3-x+y,2/3+y,1/6+z
1/3+x,2/3+x-y,1/6+z
1/3-y,2/3-x,1/6+z
loop_
_atom_site_type_symbol
_atom_site_label
_atom_site_fract_x
_atom_site_fract_y
_atom_site_fract_z
Si Si1 0.185261 0.814342 0.470053
Si Si2 0.570491 0.329933 0.921904
Si Si3 0.757165 0.727384 0.889361
Si Si4 0.303934 0.854829 0.042888
O O1 0.142959 0.809625 0.583334
O O2 0.166667 0.833334 0.333334
O O3 0.244412 0.856712 0.529214
O O4 0.180290 0.756305 0.481705
O O5 0.612383 0.380480 0.829869
O O6 0.512061 0.325302 0.927528
O O7 0.587577 0.333334 0.083334
O O8 0.747141 0.747141 0.750000
O O9 0.709838 0.666667 0.916667
O O10 0.761343 0.771216 0.997671
O O11 0.333334 0.893127 0.916667
#
# Coordination Sequence:
#
# PCOD9579682 Si02
#       4
#    36  36  36  36
#     4  11  23  42  65  92 128 171 215 270 336 404
#     4  11  24  42  66  96 133 176 225 281 340 407
#     4  11  25  42  65  95 129 170 220 274 337 408
#     4  11  24  42  65  95 130 171 220 275 337 409
#
# _framework density 20.745376
#
# number of rings (size 3 to 8) (size 9 to 14) (size 15 to 20)
#    0.000    1.000    0.000    7.000    0.000   12.000 
#    0.000    0.000    0.000    0.000    0.000    0.000 
#    0.000    0.000    0.000    0.000    0.000    0.000 
#
# Total GULP energy -267294.465902 kJ/mol
# GULP energy per Si atom -5568.634706 kJ/mol
# Density = 2.069816 g / cm^3
# Si number density = 20.745376 Si / 1000 Ang^3
#
#
#
# Elastic Constant Matrix: (Units=GPa)
#
#
# Indices 1 2 3 4 5 6 
#
# 1 75.5369 8.9884 43.8921 -15.5986 -0.0071 0.0020
# 2 8.9884 75.5440 43.8863 15.5973 -0.0085 -0.0003
# 3 43.8921 43.8863 204.1092 -0.0067 -0.0308 0.0014
# 4 -15.5986 15.5973 -0.0067 42.8529 -0.0008 -0.0012
# 5 -0.0071 -0.0085 -0.0308 -0.0008 42.8352 -15.5963
# 6 0.0020 -0.0003 0.0014 -0.0012 -15.5963 33.2773
#
#
#
# Elastic Compliance Matrix: (Units=1/GPa)
#
#
# Indices 1 2 3 4 5 6 
#
# 1 0.016675 -0.001443 -0.003275 0.006594 0.000000 -0.000001
# 2 -0.001443 0.016673 -0.003275 -0.006594 0.000001 0.000000
# 3 -0.003275 -0.003275 0.006308 0.000001 0.000004 0.000002
# 4 0.006594 -0.006594 0.000001 0.028136 0.000001 0.000001
# 5 0.000000 0.000001 0.000004 0.000001 0.028149 0.013193
# 6 -0.000001 0.000000 0.000002 0.000001 0.013193 0.036234
#
#
# Mechanical properties :
#
#
# Convention : Reuss Voigt Hill
#
# Bulk Modulus (GPa) = 42.24781 60.96932 51.60856
# Shear Modulus (GPa) = 32.04087 41.02131 36.53109
#
# Velocity S-wave (km/s) = 3.93425 4.45159 4.20089
# Velocity P-wave (km/s) = 6.40679 7.47498 6.96140
#
# Compressibility (1/GPa) = 0.02366987
#
# Stress axis : x y z
#
# Youngs Moduli (GPa) = 59.96899 59.97732 158.53275
#
# Poissons Ratio (x) = 0.08653 0.51927
# Poissons Ratio (y) = 0.08652 0.51918
# Poissons Ratio (z) = 0.19643 0.19642
#
# Static dielectric constant tensor:
#      x y z
#    x 1.717110 0.000080 -0.000010 
#    y 0.000080 1.717100 -0.000020 
#    z -0.000010 -0.000020 1.721950 
# 
# From -- ./inp_files/774.got.cif
#   From: 2010.05.17/outbox.cif.g08.bks.cpg/sg167_1_cif.got.tgz:774.got - 2010.05.20 11:09:15.
