data_PCOD9579761
_publ_section_title
;
Structure prediction by ZEFSAII (Michael W. Deem and Ramdas Pophale) SiO2 
 PCOD9579761
Probable space group: P 6
;
_chemical_formula_sum "Si O2"
_cell_formula_units_Z 42
_cell_length_a 16.986948
_cell_length_b 16.986948
_cell_length_c 9.646685
_cell_angle_alpha 90.000000
_cell_angle_beta 90.000000
_cell_angle_gamma 120.000000
_cell_volume 2410.679328
_symmetry_space_group_name_H-M "P 6"
_symmetry_group_IT_number 168
_symmetry_cell_setting 'hexagonal'
loop_
_space_group_symop_operation_xyz
x,y,z
x-y,x,z
-y,x-y,z
-x,-y,z
-x+y,-x,z
y,-x+y,z
loop_
_atom_site_type_symbol
_atom_site_label
_atom_site_fract_x
_atom_site_fract_y
_atom_site_fract_z
Si Si1 0.008058 0.338444 0.251090
Si Si2 0.338444 0.330386 0.565060
Si Si3 0.635408 0.501722 0.070460
Si Si4 0.467921 0.301946 0.070163
Si Si5 0.165975 0.467921 0.745987
Si Si6 0.866314 0.364592 0.745690
Si Si7 0.200341 0.028701 0.408075
O O1 0.022528 0.376328 0.408075
O O2 0.102270 0.384874 0.168847
O O3 0.968723 0.231266 0.278261
O O4 0.940011 0.359502 0.166373
O O5 0.384874 0.282605 0.647303
O O6 0.359502 0.419490 0.649777
O O7 0.231266 0.262542 0.537889
O O8 0.549553 0.403441 0.100539
O O9 0.728403 0.499506 0.088801
O O10 0.629318 0.522244 0.908075
O O11 0.443112 0.299022 0.908075
O O12 0.146112 0.549553 0.715611
O O13 0.271597 0.500494 0.727349
O O14 0.109891 0.930586 0.408075
#
# Coordination Sequence:
#
# PCOD9579761 Si02
#       7
#     6   6   6   6   6   6   6
#     4  10  22  35  55  78 111 141 178 230 273 329
#     4  10  22  35  55  78 111 141 178 230 273 329
#     4  10  20  35  55  80 111 148 188 227 269 320
#     4  10  20  35  55  80 111 148 188 227 269 320
#     4  10  20  35  55  80 111 148 188 227 269 320
#     4  10  20  35  55  80 111 148 188 227 269 320
#     4  10  21  38  59  80 104 134 174 218 269 324
#
# _framework density 17.422476
#
# number of rings (size 3 to 8) (size 9 to 14) (size 15 to 20)
#    0.857    1.143    0.000    4.143    0.000    6.857 
#    0.000    0.000    0.000    3.429    0.000    0.000 
#    0.000   13.714    0.000    0.000    0.000    0.000 
#
# Total GULP energy -234210.883477 kJ/mol
# GULP energy per Si atom -5576.449607 kJ/mol
# Density = 1.738282 g / cm^3
# Si number density = 17.422476 Si / 1000 Ang^3
#
#
#
# Elastic Constant Matrix: (Units=GPa)
#
#
# Indices 1 2 3 4 5 6 
#
# 1 57.4172 -4.8828 24.2500 0.0000 0.0000 0.0000
# 2 -4.8828 57.4172 24.2500 0.0000 0.0000 0.0000
# 3 24.2500 24.2500 51.2696 0.0000 0.0000 0.0000
# 4 0.0000 0.0000 0.0000 17.2257 0.0000 0.0000
# 5 0.0000 0.0000 0.0000 0.0000 17.2257 0.0000
# 6 0.0000 0.0000 0.0000 0.0000 0.0000 31.1500
#
#
#
# Elastic Compliance Matrix: (Units=1/GPa)
#
#
# Indices 1 2 3 4 5 6 
#
# 1 0.024921 0.008869 -0.015982 0.000000 0.000000 0.000000
# 2 0.008869 0.024921 -0.015982 0.000000 0.000000 0.000000
# 3 -0.015982 -0.015982 0.034624 0.000000 0.000000 0.000000
# 4 0.000000 0.000000 0.000000 0.058053 0.000000 0.000000
# 5 0.000000 0.000000 0.000000 0.000000 0.058053 0.000000
# 6 0.000000 0.000000 0.000000 0.000000 0.000000 0.032103
#
#
# Mechanical properties :
#
#
# Convention : Reuss Voigt Hill
#
# Bulk Modulus (GPa) = 26.12704 28.14871 27.13788
# Shear Modulus (GPa) = 17.14544 21.28608 19.21576
#
# Velocity S-wave (km/s) = 3.14044 3.49916 3.32464
# Velocity P-wave (km/s) = 5.30835 5.70238 5.50889
#
# Compressibility (1/GPa) = 0.03827452
#
# Stress axis : x y z
#
# Youngs Moduli (GPa) = 40.12709 40.12709 28.88185
#
# Poissons Ratio (x) = -0.35591 0.46160
# Poissons Ratio (y) = -0.35591 0.46160
# Poissons Ratio (z) = 0.64133 0.64133
#
# Static dielectric constant tensor:
#      x y z
#    x 1.582880 0.000000 0.000000 
#    y 0.000000 1.582880 0.000000 
#    z 0.000000 0.000000 1.578970 
# 
# From -- ./inp_files/317.got.cif
#   From: 2010.05.17/outbox.cif.g08.bks.cpg/sg168_cif.got.tgz:317.got - 2010.05.20 11:12:33.
