data_PCOD9579994
_publ_section_title
;
Structure prediction by ZEFSAII (Michael W. Deem and Ramdas Pophale) SiO2 
 PCOD9579994
Probable space group: P 61
;
_chemical_formula_sum "Si O2"
_cell_formula_units_Z 42
_cell_length_a 7.972336
_cell_length_b 7.972336
_cell_length_c 28.907989
_cell_angle_alpha 90.000000
_cell_angle_beta 90.000000
_cell_angle_gamma 120.000000
_cell_volume 1591.181426
_symmetry_space_group_name_H-M "P 61"
_symmetry_group_IT_number 169
_symmetry_cell_setting 'hexagonal'
loop_
_space_group_symop_operation_xyz
x,y,z
x-y,x,1/6+z
-y,x-y,1/3+z
-x,-y,1/2+z
-x+y,-x,2/3+z
y,-x+y,5/6+z
loop_
_atom_site_type_symbol
_atom_site_label
_atom_site_fract_x
_atom_site_fract_y
_atom_site_fract_z
Si Si1 0.757212 0.491835 0.494290
Si Si2 0.365495 0.093775 0.096043
Si Si3 0.299531 0.459732 0.725838
Si Si4 0.971727 0.634705 0.305707
Si Si5 0.681728 0.967877 0.782258
Si Si6 0.302831 0.744461 0.845648
Si Si7 0.432734 0.061559 0.730952
O O1 0.811718 0.340607 0.469228
O O2 0.586603 0.356301 0.530398
O O3 0.713193 0.593457 0.450162
O O4 0.924243 0.648697 0.527200
O O5 0.419427 0.941064 0.073175
O O6 0.149409 0.946885 0.113880
O O7 0.399688 0.238275 0.053185
O O8 0.278650 0.296363 0.690450
O O9 0.184678 0.368393 0.771962
O O10 0.880449 0.398616 0.311917
O O11 0.174284 0.799147 0.283614
O O12 0.509937 0.868046 0.820744
O O13 0.552161 0.948274 0.738217
O O14 0.326494 0.583083 0.872765
#
# Coordination Sequence:
#
# PCOD9579994 Si02
#       7
#     6   6   6   6   6   6   6
#     4  11  21  40  69 105 151 202 261 326 412 505
#     4  10  22  41  72 104 148 201 255 337 405 499
#     4  11  22  42  67 111 152 202 262 333 414 491
#     4  11  24  40  73 107 150 201 265 325 404 501
#     4  12  22  40  76 111 140 210 265 330 411 506
#     4  10  23  45  69 106 153 200 261 328 414 490
#     4  11  22  38  72 104 146 204 261 321 412 502
#
# _framework density 26.395479999999999
#
# number of rings (size 3 to 8) (size 9 to 14) (size 15 to 20)
#    0.000    1.143    5.714    0.000    2.000    0.000 
#    0.000    0.000   22.000    0.000    0.000    0.000 
#    0.000    0.000    0.000    0.000    0.000    0.000 
#
# Total GULP energy -233939.121965 kJ/mol
# GULP energy per Si atom -5569.979094 kJ/mol
# Density = 2.633540 g / cm^3
# Si number density = 26.395480 Si / 1000 Ang^3
#
#
#
# Elastic Constant Matrix: (Units=GPa)
#
#
# Indices 1 2 3 4 5 6 
#
# 1 71.2731 22.4819 7.6465 0.0000 0.0000 0.0000
# 2 22.4819 71.2731 7.6465 0.0000 0.0000 0.0000
# 3 7.6465 7.6465 104.5316 0.0000 0.0000 0.0000
# 4 0.0000 0.0000 0.0000 28.8238 0.0000 0.0000
# 5 0.0000 0.0000 0.0000 0.0000 28.8238 0.0000
# 6 0.0000 0.0000 0.0000 0.0000 0.0000 24.3956
#
#
#
# Elastic Compliance Matrix: (Units=1/GPa)
#
#
# Indices 1 2 3 4 5 6 
#
# 1 0.015645 -0.004850 -0.000790 0.000000 0.000000 0.000000
# 2 -0.004850 0.015645 -0.000790 0.000000 0.000000 0.000000
# 3 -0.000790 -0.000790 0.009682 0.000000 0.000000 0.000000
# 4 0.000000 0.000000 0.000000 0.034694 0.000000 0.000000
# 5 0.000000 0.000000 0.000000 0.000000 0.034694 0.000000
# 6 0.000000 0.000000 0.000000 0.000000 0.000000 0.040991
#
#
# Mechanical properties :
#
#
# Convention : Reuss Voigt Hill
#
# Bulk Modulus (GPa) = 35.57047 35.84754 35.70900
# Shear Modulus (GPa) = 28.80500 30.36214 29.58357
#
# Velocity S-wave (km/s) = 3.30704 3.39525 3.35144
# Velocity P-wave (km/s) = 5.29974 5.38338 5.34172
#
# Compressibility (1/GPa) = 0.02811320
#
# Stress axis : x y z
#
# Youngs Moduli (GPa) = 63.91730 63.91730 103.28436
#
# Poissons Ratio (x) = 0.31002 0.08156
# Poissons Ratio (y) = 0.31002 0.08156
# Poissons Ratio (z) = 0.05047 0.05047
#
# Static dielectric constant tensor:
#      x y z
#    x 2.248730 0.000000 0.000000 
#    y 0.000000 2.248730 0.000000 
#    z 0.000000 0.000000 2.183280 
# 
# From -- ./inp_files/1901.got.cif
#   From: 2010.05.17/outbox.cif.g08.bks.cpg/sg169_cif.got.tgz:1901.got - 2010.05.20 11:12:54.
