data_PCOD9579544
_publ_section_title
;
Structure prediction by ZEFSAII (Michael W. Deem and Ramdas Pophale) SiO2 
 PCOD9579544
Probable space group: R -3 C 
;
_chemical_formula_sum "Si O2"
_cell_formula_units_Z 162
_cell_length_a 20.262498
_cell_length_b 20.262498
_cell_length_c 19.777959
_cell_angle_alpha 90.000000
_cell_angle_beta 90.000000
_cell_angle_gamma 120.000000
_cell_volume 7032.311081
_symmetry_space_group_name_H-M "R -3 C "
_symmetry_group_IT_number 167
_symmetry_cell_setting 'hexagonal'
loop_
_space_group_symop_operation_xyz
x,y,z
-y,x-y,z
-x+y,-x,z
x-y,-y,1/2-z
-x,-x+y,1/2-z
y,x,1/2-z
-x,-y,-z
y,-x+y,-z
x-y,x,-z
-x+y,y,1/2+z
x,x-y,1/2+z
-y,-x,1/2+z
2/3+x,1/3+y,1/3+z
2/3-y,1/3+x-y,1/3+z
2/3-x+y,1/3-x,1/3+z
2/3+x-y,1/3-y,5/6-z
2/3-x,1/3-x+y,5/6-z
2/3+y,1/3+x,5/6-z
2/3-x,1/3-y,1/3-z
2/3+y,1/3-x+y,1/3-z
2/3+x-y,1/3+x,1/3-z
2/3-x+y,1/3+y,5/6+z
2/3+x,1/3+x-y,5/6+z
2/3-y,1/3-x,5/6+z
1/3+x,2/3+y,2/3+z
1/3-y,2/3+x-y,2/3+z
1/3-x+y,2/3-x,2/3+z
1/3+x-y,2/3-y,1/6-z
1/3-x,2/3-x+y,1/6-z
1/3+y,2/3+x,1/6-z
1/3-x,2/3-y,2/3-z
1/3+y,2/3-x+y,2/3-z
1/3+x-y,2/3+x,2/3-z
1/3-x+y,2/3+y,1/6+z
1/3+x,2/3+x-y,1/6+z
1/3-y,2/3-x,1/6+z
loop_
_atom_site_type_symbol
_atom_site_label
_atom_site_fract_x
_atom_site_fract_y
_atom_site_fract_z
Si Si1 0.000000 0.358248 0.250000
Si Si2 0.741395 0.652054 0.129073
Si Si3 0.952278 0.841675 0.184247
Si Si4 0.503411 0.347237 0.919639
Si Si5 0.795410 0.856397 0.558838
O O1 0.949335 0.287800 0.201792
O O2 0.941630 0.379959 0.284973
O O3 0.666667 0.619315 0.083334
O O4 0.758323 0.582374 0.129715
O O5 0.800809 0.733597 0.100532
O O6 0.893655 0.862553 0.149292
O O7 0.000000 0.886182 0.250000
O O8 0.008224 0.849987 0.122213
O O9 0.445587 0.257244 0.912088
O O10 0.543961 0.373416 0.846849
#
# Coordination Sequence:
#
# PCOD9579544 Si02
#       5
#    18  36  36  36  36
#     4  10  22  40  62 104 140 172 218 284 336 414
#     4  10  21  39  67  99 139 178 222 281 355 403
#     4  10  24  46  64  95 141 176 226 290 336 392
#     4  12  23  43  70 101 131 186 229 276 344 413
#     4  11  24  40  69  98 135 175 230 278 332 413
#
# _framework density 23.036522999999999
#
# number of rings (size 3 to 8) (size 9 to 14) (size 15 to 20)
#    0.000    1.333    4.444    0.667    1.556    2.667 
#    1.333    1.111    0.000    0.000    0.000    0.000 
#    0.000    0.000    0.000    0.000    0.000    0.000 
#
# Total GULP energy -301349.131073 kJ/mol
# GULP energy per Si atom -5580.539464 kJ/mol
# Density = 2.298409 g / cm^3
# Si number density = 23.036523 Si / 1000 Ang^3
#
#
#
# Elastic Constant Matrix: (Units=GPa)
#
#
# Indices 1 2 3 4 5 6 
#
# 1 42.4441 25.3734 28.2413 4.3158 -0.0006 0.0000
# 2 25.3734 42.4441 28.2413 -4.3158 0.0006 0.0000
# 3 28.2413 28.2413 141.7224 0.0000 0.0000 0.0000
# 4 4.3158 -4.3158 0.0000 24.3867 0.0000 0.0006
# 5 -0.0006 0.0006 0.0000 0.0000 24.3867 4.3158
# 6 0.0000 0.0000 0.0000 0.0006 4.3158 8.5354
#
#
#
# Elastic Compliance Matrix: (Units=1/GPa)
#
#
# Indices 1 2 3 4 5 6 
#
# 1 0.041008 -0.023329 -0.003523 -0.011386 0.000001 0.000000
# 2 -0.023329 0.041008 -0.003523 0.011386 -0.000001 0.000000
# 3 -0.003523 -0.003523 0.008460 0.000000 0.000000 0.000000
# 4 -0.011386 0.011386 0.000000 0.045036 0.000000 -0.000003
# 5 0.000001 -0.000001 0.000000 0.000000 0.045036 -0.022772
# 6 0.000000 0.000000 0.000000 -0.000003 -0.022772 0.128674
#
#
# Mechanical properties :
#
#
# Convention : Reuss Voigt Hill
#
# Bulk Modulus (GPa) = 33.63918 43.36917 38.50417
# Shear Modulus (GPa) = 13.16197 21.11205 17.13701
#
# Velocity S-wave (km/s) = 2.39289 3.03059 2.73042
# Velocity P-wave (km/s) = 4.71898 5.57791 5.16633
#
# Compressibility (1/GPa) = 0.02972724
#
# Stress axis : x y z
#
# Youngs Moduli (GPa) = 24.38525 24.38525 118.20139
#
# Poissons Ratio (x) = 0.56888 0.41643
# Poissons Ratio (y) = 0.56888 0.41643
# Poissons Ratio (z) = 0.08591 0.08591
#
# Static dielectric constant tensor:
#      x y z
#    x 1.882060 0.000000 0.000000 
#    y 0.000000 1.882060 0.000000 
#    z 0.000000 0.000000 1.907430 
# 
# From -- ./inp_files/3413.got.cif
#   From: 2010.05.17/outbox.cif.g08.bks.cpg/sg167_2_cif.got.tgz:3413.got - 2010.05.20 11:09:15.
