data_PCOD9579435
_publ_section_title
;
Structure prediction by ZEFSAII (Michael W. Deem and Ramdas Pophale) SiO2 
 PCOD9579435
Probable space group: R -3 C 
;
_chemical_formula_sum "Si O2"
_cell_formula_units_Z 216
_cell_length_a 27.183186
_cell_length_b 27.183186
_cell_length_c 18.408037
_cell_angle_alpha 90.000000
_cell_angle_beta 90.000000
_cell_angle_gamma 120.000000
_cell_volume 11779.824598
_symmetry_space_group_name_H-M "R -3 C "
_symmetry_group_IT_number 167
_symmetry_cell_setting 'hexagonal'
loop_
_space_group_symop_operation_xyz
x,y,z
-y,x-y,z
-x+y,-x,z
x-y,-y,1/2-z
-x,-x+y,1/2-z
y,x,1/2-z
-x,-y,-z
y,-x+y,-z
x-y,x,-z
-x+y,y,1/2+z
x,x-y,1/2+z
-y,-x,1/2+z
2/3+x,1/3+y,1/3+z
2/3-y,1/3+x-y,1/3+z
2/3-x+y,1/3-x,1/3+z
2/3+x-y,1/3-y,5/6-z
2/3-x,1/3-x+y,5/6-z
2/3+y,1/3+x,5/6-z
2/3-x,1/3-y,1/3-z
2/3+y,1/3-x+y,1/3-z
2/3+x-y,1/3+x,1/3-z
2/3-x+y,1/3+y,5/6+z
2/3+x,1/3+x-y,5/6+z
2/3-y,1/3-x,5/6+z
1/3+x,2/3+y,2/3+z
1/3-y,2/3+x-y,2/3+z
1/3-x+y,2/3-x,2/3+z
1/3+x-y,2/3-y,1/6-z
1/3-x,2/3-x+y,1/6-z
1/3+y,2/3+x,1/6-z
1/3-x,2/3-y,2/3-z
1/3+y,2/3-x+y,2/3-z
1/3+x-y,2/3+x,2/3-z
1/3-x+y,2/3+y,1/6+z
1/3+x,2/3+x-y,1/6+z
1/3-y,2/3-x,1/6+z
loop_
_atom_site_type_symbol
_atom_site_label
_atom_site_fract_x
_atom_site_fract_y
_atom_site_fract_z
Si Si1 0.063938 0.839930 0.603301
Si Si2 0.203519 0.308490 0.719077
Si Si3 0.233332 0.059393 0.142015
Si Si4 0.890636 0.236605 0.805897
Si Si5 0.278005 0.850990 0.551801
Si Si6 0.498709 0.098309 0.903830
O O1 0.076690 0.793902 0.642000
O O2 0.118264 0.899076 0.628768
O O3 0.065981 0.840131 0.516246
O O4 0.001165 0.822622 0.630380
O O5 0.184122 0.258528 0.777436
O O6 0.156740 0.328270 0.711784
O O7 0.256117 0.367625 0.745044
O O8 0.283274 0.059203 0.093610
O O9 0.227611 0.111559 0.109309
O O10 0.868590 0.257187 0.874653
O O11 0.942708 0.227684 0.826826
O O12 0.339538 0.859876 0.563115
#
# Coordination Sequence:
#
# PCOD9579435 Si02
#       6
#    36  36  36  36  36  36
#     4  11  19  36  55  80 106 150 181 219 272 342
#     4  10  21  35  55  76 112 142 179 227 279 321
#     4  11  21  36  56  80 111 143 185 229 278 326
#     4   9  17  34  52  73 105 140 176 224 268 327
#     4  10  19  33  57  78 104 141 186 222 270 329
#     4  11  19  36  57  79 107 144 183 228 268 329
#
# _framework density 18.336435999999999
#
# number of rings (size 3 to 8) (size 9 to 14) (size 15 to 20)
#    0.000    1.667    5.000    3.000    0.000    0.000 
#    6.000    7.500    0.000    0.667    0.000    2.333 
#    0.000    0.000    0.000    0.000    0.000    0.000 
#
# Total GULP energy -401057.480655 kJ/mol
# GULP energy per Si atom -5570.242787 kJ/mol
# Density = 1.829470 g / cm^3
# Si number density = 18.336436 Si / 1000 Ang^3
#
#
#
# Elastic Constant Matrix: (Units=GPa)
#
#
# Indices 1 2 3 4 5 6 
#
# 1 84.4823 46.7232 17.2530 -2.5027 0.0000 0.0000
# 2 46.7232 84.4823 17.2530 2.5027 0.0000 0.0000
# 3 17.2530 17.2530 42.5843 0.0000 0.0000 0.0000
# 4 -2.5027 2.5027 0.0000 9.3504 0.0000 0.0000
# 5 0.0000 0.0000 0.0000 0.0000 9.3504 -2.5027
# 6 0.0000 0.0000 0.0000 0.0000 -2.5027 18.8795
#
#
#
# Elastic Compliance Matrix: (Units=1/GPa)
#
#
# Indices 1 2 3 4 5 6 
#
# 1 0.017994 -0.009464 -0.003456 0.007349 0.000000 0.000000
# 2 -0.009464 0.017994 -0.003456 -0.007349 0.000000 0.000000
# 3 -0.003456 -0.003456 0.026283 0.000000 0.000000 0.000000
# 4 0.007349 -0.007349 0.000000 0.110881 0.000000 0.000000
# 5 0.000000 0.000000 0.000000 0.000000 0.110881 0.014699
# 6 0.000000 0.000000 0.000000 0.000000 0.014699 0.054916
#
#
# Mechanical properties :
#
#
# Convention : Reuss Voigt Hill
#
# Bulk Modulus (GPa) = 33.87548 41.55638 37.71593
# Shear Modulus (GPa) = 13.10469 16.20403 14.65436
#
# Velocity S-wave (km/s) = 2.67625 2.97595 2.83007
# Velocity P-wave (km/s) = 5.29757 5.87544 5.59397
#
# Compressibility (1/GPa) = 0.02951988
#
# Stress axis : x y z
#
# Youngs Moduli (GPa) = 55.57323 55.57323 38.04684
#
# Poissons Ratio (x) = 0.52593 0.13150
# Poissons Ratio (y) = 0.52593 0.13150
# Poissons Ratio (z) = 0.19207 0.19207
#
# Static dielectric constant tensor:
#      x y z
#    x 1.661650 0.000000 0.000000 
#    y 0.000000 1.661650 0.000000 
#    z 0.000000 0.000000 1.706340 
# 
# From -- ./inp_files/4642.got.cif
#   From: 2010.05.17/outbox.cif.g08.bks.cpg/sg167_3_cif.got.tgz:4642.got - 2010.05.20 11:09:15.
