data_PCOD9579549
_publ_section_title
;
Structure prediction by ZEFSAII (Michael W. Deem and Ramdas Pophale) SiO2 
 PCOD9579549
Probable space group: R -3 C 
;
_chemical_formula_sum "Si O2"
_cell_formula_units_Z 162
_cell_length_a 22.889232
_cell_length_b 22.889232
_cell_length_c 17.828691
_cell_angle_alpha 90.000000
_cell_angle_beta 90.000000
_cell_angle_gamma 120.000000
_cell_volume 8089.329614
_symmetry_space_group_name_H-M "R -3 C "
_symmetry_group_IT_number 167
_symmetry_cell_setting 'hexagonal'
loop_
_space_group_symop_operation_xyz
x,y,z
-y,x-y,z
-x+y,-x,z
x-y,-y,1/2-z
-x,-x+y,1/2-z
y,x,1/2-z
-x,-y,-z
y,-x+y,-z
x-y,x,-z
-x+y,y,1/2+z
x,x-y,1/2+z
-y,-x,1/2+z
2/3+x,1/3+y,1/3+z
2/3-y,1/3+x-y,1/3+z
2/3-x+y,1/3-x,1/3+z
2/3+x-y,1/3-y,5/6-z
2/3-x,1/3-x+y,5/6-z
2/3+y,1/3+x,5/6-z
2/3-x,1/3-y,1/3-z
2/3+y,1/3-x+y,1/3-z
2/3+x-y,1/3+x,1/3-z
2/3-x+y,1/3+y,5/6+z
2/3+x,1/3+x-y,5/6+z
2/3-y,1/3-x,5/6+z
1/3+x,2/3+y,2/3+z
1/3-y,2/3+x-y,2/3+z
1/3-x+y,2/3-x,2/3+z
1/3+x-y,2/3-y,1/6-z
1/3-x,2/3-x+y,1/6-z
1/3+y,2/3+x,1/6-z
1/3-x,2/3-y,2/3-z
1/3+y,2/3-x+y,2/3-z
1/3+x-y,2/3+x,2/3-z
1/3-x+y,2/3+y,1/6+z
1/3+x,2/3+x-y,1/6+z
1/3-y,2/3-x,1/6+z
loop_
_atom_site_type_symbol
_atom_site_label
_atom_site_fract_x
_atom_site_fract_y
_atom_site_fract_z
Si Si1 0.666667 0.463734 0.583334
Si Si2 0.192028 0.784866 0.166247
Si Si3 0.003040 0.336373 0.416667
Si Si4 0.467087 0.800420 0.916667
Si Si5 0.871663 0.530544 0.234514
Si Si6 0.863604 0.259530 0.992425
O O1 0.604345 0.393099 0.555703
O O2 0.646685 0.491440 0.656524
O O3 0.181607 0.732255 0.231132
O O4 0.266482 0.826113 0.130542
O O5 0.151275 0.825108 0.184457
O O6 0.147432 0.741488 0.095606
O O7 0.933722 0.327323 0.446688
O O8 0.059986 0.363569 0.480219
O O9 0.530061 0.825108 0.972518
#
# Coordination Sequence:
#
# PCOD9579549 Si02
#       6
#    18  36  18  18  36  36
#     4  12  27  42  65  93 128 183 216 278 318 392
#     4  10  21  40  64  95 127 167 212 274 322 385
#     4   9  20  40  63  99 132 161 216 268 330 411
#     4  11  23  44  62  90 132 172 226 258 328 391
#     4  11  24  39  65  97 129 169 219 266 338 385
#     4   9  19  40  66  89 127 174 205 274 331 377
#
# _framework density 20.026382000000002
#
# number of rings (size 3 to 8) (size 9 to 14) (size 15 to 20)
#    0.000    1.778    2.222    1.556    3.111    3.556 
#    0.000    3.333    0.000    1.778    0.000    0.000 
#    0.000    0.000    0.000    0.000    0.000    0.000 
#
# Total GULP energy -300882.264937 kJ/mol
# GULP energy per Si atom -5571.893795 kJ/mol
# Density = 1.998080 g / cm^3
# Si number density = 20.026382 Si / 1000 Ang^3
#
#
#
# Elastic Constant Matrix: (Units=GPa)
#
#
# Indices 1 2 3 4 5 6 
#
# 1 99.0215 62.9771 20.4678 -7.0457 -0.0004 0.0000
# 2 62.9771 99.0215 20.4678 7.0457 0.0004 0.0000
# 3 20.4678 20.4678 34.5482 0.0000 0.0000 0.0000
# 4 -7.0457 7.0457 0.0000 21.9044 0.0000 0.0004
# 5 -0.0004 0.0004 0.0000 0.0000 21.9044 -7.0457
# 6 0.0000 0.0000 0.0000 0.0004 -7.0457 18.0222
#
#
#
# Elastic Compliance Matrix: (Units=1/GPa)
#
#
# Indices 1 2 3 4 5 6 
#
# 1 0.019497 -0.012237 -0.004301 0.010207 0.000001 0.000000
# 2 -0.012237 0.019497 -0.004301 -0.010207 -0.000001 0.000000
# 3 -0.004301 -0.004301 0.034041 0.000000 0.000000 0.000000
# 4 0.010207 -0.010207 0.000000 0.052220 0.000000 -0.000001
# 5 0.000001 -0.000001 0.000000 0.000000 0.052220 0.020415
# 6 0.000000 0.000000 0.000000 -0.000001 0.020415 0.063468
#
#
# Mechanical properties :
#
#
# Convention : Reuss Voigt Hill
#
# Bulk Modulus (GPa) = 31.89101 48.93518 40.41309
# Shear Modulus (GPa) = 17.06062 20.94476 19.00269
#
# Velocity S-wave (km/s) = 2.92191 3.23748 3.08374
# Velocity P-wave (km/s) = 5.22900 6.20189 5.73611
#
# Compressibility (1/GPa) = 0.03135680
#
# Stress axis : x y z
#
# Youngs Moduli (GPa) = 51.29028 51.29028 29.37616
#
# Poissons Ratio (x) = 0.62765 0.12635
# Poissons Ratio (y) = 0.62765 0.12635
# Poissons Ratio (z) = 0.22060 0.22060
#
# Static dielectric constant tensor:
#      x y z
#    x 1.762270 0.000000 0.000000 
#    y 0.000000 1.762270 0.000000 
#    z 0.000000 0.000000 1.720580 
# 
# From -- ./inp_files/3505.got.cif
#   From: 2010.05.17/outbox.cif.g08.bks.cpg/sg167_2_cif.got.tgz:3505.got - 2010.05.20 11:09:15.
