data_PCOD9579983
_publ_section_title
;
Structure prediction by ZEFSAII (Michael W. Deem and Ramdas Pophale) SiO2 
 PCOD9579983
Probable space group: P 61
;
_chemical_formula_sum "Si O2"
_cell_formula_units_Z 48
_cell_length_a 12.304996
_cell_length_b 12.304996
_cell_length_c 16.586967
_cell_angle_alpha 90.000000
_cell_angle_beta 90.000000
_cell_angle_gamma 120.000000
_cell_volume 2175.006534
_symmetry_space_group_name_H-M "P 61"
_symmetry_group_IT_number 169
_symmetry_cell_setting 'hexagonal'
loop_
_space_group_symop_operation_xyz
x,y,z
x-y,x,1/6+z
-y,x-y,1/3+z
-x,-y,1/2+z
-x+y,-x,2/3+z
y,-x+y,5/6+z
loop_
_atom_site_type_symbol
_atom_site_label
_atom_site_fract_x
_atom_site_fract_y
_atom_site_fract_z
Si Si1 0.975497 0.277465 0.043220
Si Si2 0.853911 0.659440 0.114237
Si Si3 0.500455 0.513335 0.606428
Si Si4 0.710837 0.393122 0.855142
Si Si5 0.016218 0.090359 0.812358
Si Si6 0.256989 0.443192 0.024535
Si Si7 0.111440 0.685947 0.129829
Si Si8 0.737859 0.217380 0.949795
O O1 0.907000 0.247464 0.128279
O O2 0.114830 0.391528 0.051938
O O3 0.975308 0.159600 0.001238
O O4 0.872893 0.286653 0.989423
O O5 0.834399 0.775149 0.138082
O O6 0.807436 0.566726 0.189994
O O7 0.000627 0.712381 0.107388
O O8 0.786915 0.594735 0.031889
O O9 0.452996 0.601184 0.649794
O O10 0.646428 0.555752 0.591334
O O11 0.441624 0.491001 0.516160
O O12 0.455190 0.374086 0.645804
O O13 0.580704 0.279641 0.816975
O O14 0.689646 0.505296 0.883325
O O15 0.699909 0.323061 0.940586
O O16 0.002192 0.035041 0.723433
#
# Coordination Sequence:
#
# PCOD9579983 Si02
#       8
#     6   6   6   6   6   6   6   6
#     4  12  23  42  70 104 135 178 241 293 354 433
#     4  11  20  41  68  98 131 177 235 307 347 415
#     4  10  23  46  66  95 142 181 230 295 358 419
#     4  11  25  43  66 101 135 190 231 285 364 444
#     4  12  22  41  69 101 136 184 246 307 368 432
#     4  11  26  45  67 102 144 187 227 297 365 437
#     4  11  23  41  67  99 136 179 236 295 357 434
#     4  10  22  39  73  96 123 174 244 297 339 410
#
# _framework density 22.068898000000001
#
# number of rings (size 3 to 8) (size 9 to 14) (size 15 to 20)
#    0.000    1.000    5.000    1.500    3.500    1.000 
#    2.250    0.000    0.000    0.000    0.000    0.000 
#    0.000    0.000    0.000    0.000    0.000    0.000 
#
# Total GULP energy -267309.480891 kJ/mol
# GULP energy per Si atom -5568.947519 kJ/mol
# Density = 2.201867 g / cm^3
# Si number density = 22.068898 Si / 1000 Ang^3
#
#
#
# Elastic Constant Matrix: (Units=GPa)
#
#
# Indices 1 2 3 4 5 6 
#
# 1 73.6253 61.2319 10.4898 0.0000 0.0000 0.0000
# 2 61.2319 73.6253 10.4898 0.0000 0.0000 0.0000
# 3 10.4898 10.4898 47.7859 0.0000 0.0000 0.0000
# 4 0.0000 0.0000 0.0000 30.6671 0.0000 0.0000
# 5 0.0000 0.0000 0.0000 0.0000 30.6671 0.0000
# 6 0.0000 0.0000 0.0000 0.0000 0.0000 6.1967
#
#
#
# Elastic Compliance Matrix: (Units=1/GPa)
#
#
# Indices 1 2 3 4 5 6 
#
# 1 0.044183 -0.036506 -0.001685 0.000000 0.000000 0.000000
# 2 -0.036506 0.044183 -0.001685 0.000000 0.000000 0.000000
# 3 -0.001685 -0.001685 0.021667 0.000000 0.000000 0.000000
# 4 0.000000 0.000000 0.000000 0.032608 0.000000 0.000000
# 5 0.000000 0.000000 0.000000 0.000000 0.032608 0.000000
# 6 0.000000 0.000000 0.000000 0.000000 0.000000 0.161377
#
#
# Mechanical properties :
#
#
# Convention : Reuss Voigt Hill
#
# Bulk Modulus (GPa) = 33.02491 39.93994 36.48242
# Shear Modulus (GPa) = 11.72411 21.02784 16.37597
#
# Velocity S-wave (km/s) = 2.30739 3.09014 2.72699
# Velocity P-wave (km/s) = 4.70060 5.55599 5.14610
#
# Compressibility (1/GPa) = 0.03028017
#
# Stress axis : x y z
#
# Youngs Moduli (GPa) = 22.63317 22.63317 46.15399
#
# Poissons Ratio (x) = 0.82624 0.07778
# Poissons Ratio (y) = 0.82624 0.07778
# Poissons Ratio (z) = 0.03814 0.03814
#
# Static dielectric constant tensor:
#      x y z
#    x 1.881950 0.000000 0.000000 
#    y 0.000000 1.881950 0.000000 
#    z 0.000000 0.000000 1.867430 
# 
# From -- ./inp_files/1411.got.cif
#   From: 2010.05.17/outbox.cif.g08.bks.cpg/sg169_cif.got.tgz:1411.got - 2010.05.20 11:12:54.
