data_PCOD9579321
_publ_section_title
;
Structure prediction by ZEFSAII (Michael W. Deem and Ramdas Pophale) SiO2 
 PCOD9579321
Probable space group: R -3 M
;
_chemical_formula_sum "Si O2"
_cell_formula_units_Z 108
_cell_length_a 29.162414
_cell_length_b 29.162414
_cell_length_c 10.163989
_cell_angle_alpha 90.000000
_cell_angle_beta 90.000000
_cell_angle_gamma 120.000000
_cell_volume 7485.861025
_symmetry_space_group_name_H-M "R -3 M"
_symmetry_group_IT_number 166
_symmetry_cell_setting 'hexagonal'
loop_
_space_group_symop_operation_xyz
x,y,z
-y,x-y,z
-x+y,-x,z
x-y,-y,-z
-x,-x+y,-z
y,x,-z
-x,-y,-z
y,-x+y,-z
x-y,x,-z
-x+y,y,z
x,x-y,z
-y,-x,z
2/3+x,1/3+y,1/3+z
2/3-y,1/3+x-y,1/3+z
2/3-x+y,1/3-x,1/3+z
2/3+x-y,1/3-y,1/3-z
2/3-x,1/3-x+y,1/3-z
2/3+y,1/3+x,1/3-z
2/3-x,1/3-y,1/3-z
2/3+y,1/3-x+y,1/3-z
2/3+x-y,1/3+x,1/3-z
2/3-x+y,1/3+y,1/3+z
2/3+x,1/3+x-y,1/3+z
2/3-y,1/3-x,1/3+z
1/3+x,2/3+y,2/3+z
1/3-y,2/3+x-y,2/3+z
1/3-x+y,2/3-x,2/3+z
1/3+x-y,2/3-y,2/3-z
1/3-x,2/3-x+y,2/3-z
1/3+y,2/3+x,2/3-z
1/3-x,2/3-y,2/3-z
1/3+y,2/3-x+y,2/3-z
1/3+x-y,2/3+x,2/3-z
1/3-x+y,2/3+y,2/3+z
1/3+x,2/3+x-y,2/3+z
1/3-y,2/3-x,2/3+z
loop_
_atom_site_type_symbol
_atom_site_label
_atom_site_fract_x
_atom_site_fract_y
_atom_site_fract_z
Si Si1 0.696728 0.102861 0.459377
Si Si2 0.464959 0.535041 0.893916
Si Si3 0.717884 0.759160 0.618313
Si Si4 0.806346 0.193655 0.858987
O O1 0.666667 0.106672 0.333334
O O2 0.740350 0.161336 0.505987
O O3 0.724836 0.069863 0.409885
O O4 0.657512 0.070254 0.579140
O O5 0.496171 0.503830 0.853586
O O6 0.459413 0.540588 0.049661
O O7 0.745701 0.745701 0.500000
O O8 0.731595 0.819710 0.605959
#
# Coordination Sequence:
#
# PCOD9579321 Si02
#       4
#    36  18  36  18
#     4  11  21  31  47  69  93 123 159 199 231 269
#     4   9  18  33  45  63  93 123 153 193 241 274
#     4  11  19  31  48  67  91 123 162 195 227 269
#     4   9  18  31  47  65  89 123 157 193 236 274
#
# _framework density 14.427198000000001
#
# number of rings (size 3 to 8) (size 9 to 14) (size 15 to 20)
#    0.000    1.667    3.333    4.000    0.000    1.333 
#    0.000    5.000    0.000    0.000    0.000    0.000 
#    0.000    0.000    0.000   20.000    0.000    0.000 
#
# Total GULP energy -200648.461781 kJ/mol
# GULP energy per Si atom -5573.568383 kJ/mol
# Density = 1.439436 g / cm^3
# Si number density = 14.427198 Si / 1000 Ang^3
#
#
#
# Elastic Constant Matrix: (Units=GPa)
#
#
# Indices 1 2 3 4 5 6 
#
# 1 76.2186 40.3343 46.0729 0.6408 -0.0113 0.0006
# 2 40.3343 76.2198 46.0741 -0.6428 -0.0069 0.0003
# 3 46.0729 46.0741 120.5935 -0.0101 -0.0221 -0.0001
# 4 0.6408 -0.6428 -0.0101 2.1198 -0.0088 0.0016
# 5 -0.0113 -0.0069 -0.0221 -0.0088 2.0986 0.6422
# 6 0.0006 0.0003 -0.0001 0.0016 0.6422 17.9439
#
#
#
# Elastic Compliance Matrix: (Units=1/GPa)
#
#
# Indices 1 2 3 4 5 6 
#
# 1 0.020233 -0.007940 -0.004697 -0.008547 -0.000003 0.000000
# 2 -0.007940 0.020232 -0.004696 0.008513 0.000010 -0.000001
# 3 -0.004697 -0.004696 0.011881 0.000053 0.000085 -0.000003
# 4 -0.008547 0.008513 0.000053 0.476927 0.002017 -0.000115
# 5 -0.000003 0.000010 0.000085 0.002017 0.481789 -0.017242
# 6 0.000000 -0.000001 -0.000003 -0.000115 -0.017242 0.056346
#
#
# Mechanical properties :
#
#
# Convention : Reuss Voigt Hill
#
# Bulk Modulus (GPa) = 56.55953 59.77718 58.16835
# Shear Modulus (GPa) = 4.51277 13.80249 9.15763
#
# Velocity S-wave (km/s) = 1.77052 3.09641 2.52215
# Velocity P-wave (km/s) = 6.59304 7.36935 6.99198
#
# Compressibility (1/GPa) = 0.01768049
#
# Stress axis : x y z
#
# Youngs Moduli (GPa) = 49.42407 49.42725 84.16768
#
# Poissons Ratio (x) = 0.39243 0.39537
# Poissons Ratio (y) = 0.39241 0.39523
# Poissons Ratio (z) = 0.23216 0.23210
#
# Static dielectric constant tensor:
#      x y z
#    x 1.490310 0.000000 0.000000 
#    y 0.000000 1.490300 0.000000 
#    z 0.000000 0.000000 1.480210 
# 
# From -- ./inp_files/1505.got.cif
#   From: 2010.05.17/outbox.cif.g08.bks.cpg/sg166_1_cif.got.tgz:1505.got - 2010.05.20 11:04:41.
