data_PCOD9579163
_publ_section_title
;
Structure prediction by ZEFSAII (Michael W. Deem and Ramdas Pophale) SiO2 
 PCOD9579163
Probable space group: R -3 M
;
_chemical_formula_sum "Si O2"
_cell_formula_units_Z 162
_cell_length_a 30.092801
_cell_length_b 30.092801
_cell_length_c 11.889213
_cell_angle_alpha 90.000000
_cell_angle_beta 90.000000
_cell_angle_gamma 120.000000
_cell_volume 9324.143866
_symmetry_space_group_name_H-M "R -3 M"
_symmetry_group_IT_number 166
_symmetry_cell_setting 'hexagonal'
loop_
_space_group_symop_operation_xyz
x,y,z
-y,x-y,z
-x+y,-x,z
x-y,-y,-z
-x,-x+y,-z
y,x,-z
-x,-y,-z
y,-x+y,-z
x-y,x,-z
-x+y,y,z
x,x-y,z
-y,-x,z
2/3+x,1/3+y,1/3+z
2/3-y,1/3+x-y,1/3+z
2/3-x+y,1/3-x,1/3+z
2/3+x-y,1/3-y,1/3-z
2/3-x,1/3-x+y,1/3-z
2/3+y,1/3+x,1/3-z
2/3-x,1/3-y,1/3-z
2/3+y,1/3-x+y,1/3-z
2/3+x-y,1/3+x,1/3-z
2/3-x+y,1/3+y,1/3+z
2/3+x,1/3+x-y,1/3+z
2/3-y,1/3-x,1/3+z
1/3+x,2/3+y,2/3+z
1/3-y,2/3+x-y,2/3+z
1/3-x+y,2/3-x,2/3+z
1/3+x-y,2/3-y,2/3-z
1/3-x,2/3-x+y,2/3-z
1/3+y,2/3+x,2/3-z
1/3-x,2/3-y,2/3-z
1/3+y,2/3-x+y,2/3-z
1/3+x-y,2/3+x,2/3-z
1/3-x+y,2/3+y,2/3+z
1/3+x,2/3+x-y,2/3+z
1/3-y,2/3-x,2/3+z
loop_
_atom_site_type_symbol
_atom_site_label
_atom_site_fract_x
_atom_site_fract_y
_atom_site_fract_z
Si Si1 0.805576 0.805576 0.500000
Si Si2 0.920770 0.460385 0.344936
Si Si3 0.478886 0.957772 0.299410
Si Si4 0.789913 0.579825 0.566666
Si Si5 0.937225 0.727281 0.187817
Si Si6 0.103936 0.896065 0.471526
Si Si7 0.233764 0.276252 0.297002
O O1 0.813637 0.861697 0.522944
O O2 0.783866 0.762776 0.597596
O O3 0.891650 0.445825 0.226801
O O4 0.914580 0.501005 0.422449
O O5 0.981170 0.490585 0.309726
O O6 0.511539 0.937141 0.366922
O O7 0.467335 0.934670 0.175485
O O8 0.769549 0.539098 0.669650
O O9 0.851014 0.611034 0.584170
O O10 0.910685 0.666667 0.166667
O O11 0.997005 0.748844 0.206530
O O12 0.276552 0.333334 0.333334
#
# Coordination Sequence:
#
# PCOD9579163 Si02
#       7
#    18  18  18  18  36  18  36
#     4  10  22  36  54  79 104 143 170 232 272 330
#     4   9  20  35  55  71 101 143 177 214 278 317
#     4   9  16  33  57  69  98 130 177 213 267 327
#     4  10  24  35  48  74 104 143 172 216 271 321
#     4   9  19  36  53  75  97 136 179 225 263 316
#     4  10  19  36  58  75 105 134 180 216 276 334
#     4  11  23  34  51  77 109 138 184 223 274 315
#
# _framework density 17.374248999999999
#
# number of rings (size 3 to 8) (size 9 to 14) (size 15 to 20)
#    0.000    2.222    2.222    1.667    7.778    0.889 
#    0.000    0.000    0.000    0.222    0.000    0.000 
#    0.000    0.000    0.000    0.000    0.000   48.556 
#
# Total GULP energy -300848.917444 kJ/mol
# GULP energy per Si atom -5571.276249 kJ/mol
# Density = 1.733470 g / cm^3
# Si number density = 17.374249 Si / 1000 Ang^3
#
#
#
# Elastic Constant Matrix: (Units=GPa)
#
#
# Indices 1 2 3 4 5 6 
#
# 1 90.8608 58.4377 30.4917 4.2539 -0.0001 0.0000
# 2 58.4377 90.8615 30.4918 -4.2543 -0.0003 0.0002
# 3 30.4917 30.4918 90.8074 -0.0016 0.0003 -0.0012
# 4 4.2539 -4.2543 -0.0016 17.5206 -0.0007 -0.0003
# 5 -0.0001 -0.0003 0.0003 -0.0007 17.5219 4.2543
# 6 0.0000 0.0002 -0.0012 -0.0003 4.2543 16.2115
#
#
#
# Elastic Compliance Matrix: (Units=1/GPa)
#
#
# Indices 1 2 3 4 5 6 
#
# 1 0.020352 -0.012589 -0.002607 -0.007998 0.000000 0.000000
# 2 -0.012589 0.020352 -0.002606 0.007998 0.000001 -0.000001
# 3 -0.002607 -0.002606 0.012763 0.000001 -0.000001 0.000001
# 4 -0.007998 0.007998 0.000001 0.060960 0.000003 0.000001
# 5 0.000000 0.000001 -0.000001 0.000003 0.060955 -0.015996
# 6 0.000000 -0.000001 0.000001 0.000001 -0.015996 0.065883
#
#
# Mechanical properties :
#
#
# Convention : Reuss Voigt Hill
#
# Bulk Modulus (GPa) = 55.98533 56.81912 56.40222
# Shear Modulus (GPa) = 17.67894 20.45802 19.06848
#
# Velocity S-wave (km/s) = 3.19335 3.43518 3.31647
# Velocity P-wave (km/s) = 6.77420 6.96477 6.87014
#
# Compressibility (1/GPa) = 0.01786182
#
# Stress axis : x y z
#
# Youngs Moduli (GPa) = 49.13561 49.13619 78.35252
#
# Poissons Ratio (x) = 0.61858 0.20425
# Poissons Ratio (y) = 0.61857 0.20422
# Poissons Ratio (z) = 0.12808 0.12807
#
# Static dielectric constant tensor:
#      x y z
#    x 1.595990 0.000000 0.000000 
#    y 0.000000 1.595990 0.000000 
#    z 0.000000 0.000000 1.656200 
# 
# From -- ./inp_files/3156.got.cif
#   From: 2010.05.17/outbox.cif.g08.bks.cpg/sg166_2_cif.got.tgz:3156.got - 2010.05.20 11:04:41.
