data_PCOD9579563
_publ_section_title
;
Structure prediction by ZEFSAII (Michael W. Deem and Ramdas Pophale) SiO2 
 PCOD9579563
Probable space group: R -3 C 
;
_chemical_formula_sum "Si O2"
_cell_formula_units_Z 144
_cell_length_a 28.417365
_cell_length_b 28.417365
_cell_length_c 9.182458
_cell_angle_alpha 90.000000
_cell_angle_beta 90.000000
_cell_angle_gamma 120.000000
_cell_volume 6421.806173
_symmetry_space_group_name_H-M "R -3 C "
_symmetry_group_IT_number 167
_symmetry_cell_setting 'hexagonal'
loop_
_space_group_symop_operation_xyz
x,y,z
-y,x-y,z
-x+y,-x,z
x-y,-y,1/2-z
-x,-x+y,1/2-z
y,x,1/2-z
-x,-y,-z
y,-x+y,-z
x-y,x,-z
-x+y,y,1/2+z
x,x-y,1/2+z
-y,-x,1/2+z
2/3+x,1/3+y,1/3+z
2/3-y,1/3+x-y,1/3+z
2/3-x+y,1/3-x,1/3+z
2/3+x-y,1/3-y,5/6-z
2/3-x,1/3-x+y,5/6-z
2/3+y,1/3+x,5/6-z
2/3-x,1/3-y,1/3-z
2/3+y,1/3-x+y,1/3-z
2/3+x-y,1/3+x,1/3-z
2/3-x+y,1/3+y,5/6+z
2/3+x,1/3+x-y,5/6+z
2/3-y,1/3-x,5/6+z
1/3+x,2/3+y,2/3+z
1/3-y,2/3+x-y,2/3+z
1/3-x+y,2/3-x,2/3+z
1/3+x-y,2/3-y,1/6-z
1/3-x,2/3-x+y,1/6-z
1/3+y,2/3+x,1/6-z
1/3-x,2/3-y,2/3-z
1/3+y,2/3-x+y,2/3-z
1/3+x-y,2/3+x,2/3-z
1/3-x+y,2/3+y,1/6+z
1/3+x,2/3+x-y,1/6+z
1/3-y,2/3-x,1/6+z
loop_
_atom_site_type_symbol
_atom_site_label
_atom_site_fract_x
_atom_site_fract_y
_atom_site_fract_z
Si Si1 0.416432 0.973814 0.592499
Si Si2 0.844438 0.619496 0.298512
Si Si3 0.559718 0.239661 0.410476
Si Si4 0.521695 0.858507 0.752998
O O1 0.457217 0.949626 0.566626
O O2 0.358549 0.920528 0.576183
O O3 0.424971 0.000000 0.750000
O O4 0.439461 0.024141 0.482229
O O5 0.864925 0.666667 0.416667
O O6 0.832631 0.564180 0.370559
O O7 0.570940 0.237607 0.583334
O O8 0.564900 0.295485 0.353650
O O9 0.500919 0.190044 0.363380
O O10 0.503667 0.837000 0.916667
#
# Coordination Sequence:
#
# PCOD9579563 Si02
#       4
#    36  36  36  36
#     4  10  23  40  64  91 128 176 218 272 334 400
#     4  10  21  42  63  89 131 173 217 268 338 393
#     4  12  27  47  74 105 142 180 225 280 342 411
#     4  12  24  42  67 101 135 178 229 284 333 407
#
# _framework density 22.423597999999998
#
# number of rings (size 3 to 8) (size 9 to 14) (size 15 to 20)
#    0.000    1.000    2.500    4.000    3.500    0.000 
#    4.500    0.000    0.000    0.000    0.000    0.000 
#    0.000    0.000    0.000    0.000    0.000    0.000 
#
# Total GULP energy -268256.002157 kJ/mol
# GULP energy per Si atom -5588.666712 kJ/mol
# Density = 2.237256 g / cm^3
# Si number density = 22.423598 Si / 1000 Ang^3
#
#
#
# Elastic Constant Matrix: (Units=GPa)
#
#
# Indices 1 2 3 4 5 6 
#
# 1 56.8060 7.7544 13.0115 -4.6580 -0.0050 0.0005
# 2 7.7544 56.8061 13.0213 4.6476 0.0047 0.0004
# 3 13.0115 13.0213 153.7670 -0.0185 -0.0299 -0.0077
# 4 -4.6580 4.6476 -0.0185 30.6180 -0.0103 -0.0019
# 5 -0.0050 0.0047 -0.0299 -0.0103 30.5999 -4.6593
# 6 0.0005 0.0004 -0.0077 -0.0019 -4.6593 24.5240
#
#
#
# Elastic Compliance Matrix: (Units=1/GPa)
#
#
# Indices 1 2 3 4 5 6 
#
# 1 0.018514 -0.002478 -0.001356 0.003192 0.000003 0.000000
# 2 -0.002478 0.018514 -0.001359 -0.003188 -0.000006 -0.000002
# 3 -0.001356 -0.001359 0.006733 0.000004 0.000007 0.000004
# 4 0.003192 -0.003188 0.000004 0.033630 0.000013 0.000005
# 5 0.000003 -0.000006 0.000007 0.000013 0.033653 0.006394
# 6 0.000000 -0.000002 0.000004 0.000005 0.006394 0.041991
#
#
# Mechanical properties :
#
#
# Convention : Reuss Voigt Hill
#
# Bulk Modulus (GPa) = 29.96110 37.21705 33.58908
# Shear Modulus (GPa) = 28.64556 32.72117 30.68336
#
# Velocity S-wave (km/s) = 3.57805 3.82413 3.70314
# Velocity P-wave (km/s) = 5.51909 6.01098 5.77028
#
# Compressibility (1/GPa) = 0.03337661
#
# Stress axis : x y z
#
# Youngs Moduli (GPa) = 54.01199 54.01264 148.51833
#
# Poissons Ratio (x) = 0.13382 0.20146
# Poissons Ratio (y) = 0.13382 0.20177
# Poissons Ratio (z) = 0.07327 0.07338
#
# Static dielectric constant tensor:
#      x y z
#    x 1.848430 0.000000 -0.000020 
#    y 0.000000 1.848430 0.000000 
#    z -0.000020 0.000000 1.851980 
# 
# From -- ./inp_files/761.got.cif
#   From: 2010.05.17/outbox.cif.g08.bks.cpg/sg167_1_cif.got.tgz:761.got - 2010.05.20 11:09:15.
