data_PCOD9579763
_publ_section_title
;
Structure prediction by ZEFSAII (Michael W. Deem and Ramdas Pophale) SiO2 
 PCOD9579763
Probable space group: P 6
;
_chemical_formula_sum "Si O2"
_cell_formula_units_Z 34
_cell_length_a 14.097000
_cell_length_b 14.097000
_cell_length_c 9.369043
_cell_angle_alpha 90.000000
_cell_angle_beta 90.000000
_cell_angle_gamma 120.000000
_cell_volume 1612.424036
_symmetry_space_group_name_H-M "P 6"
_symmetry_group_IT_number 168
_symmetry_cell_setting 'hexagonal'
loop_
_space_group_symop_operation_xyz
x,y,z
x-y,x,z
-y,x-y,z
-x,-y,z
-x+y,-x,z
y,-x+y,z
loop_
_atom_site_type_symbol
_atom_site_label
_atom_site_fract_x
_atom_site_fract_y
_atom_site_fract_z
Si Si1 0.479146 0.381613 0.717430
Si Si2 0.834533 0.077068 0.682078
Si Si3 0.333334 0.666668 0.261277
Si Si4 0.105352 0.864084 0.350005
Si Si5 0.333334 0.666668 0.606271
Si Si6 0.582103 0.615437 0.042776
Si Si7 0.751405 0.569528 0.163106
O O1 0.500000 0.500000 0.660559
O O2 0.364234 0.271103 0.683801
O O3 0.577904 0.364386 0.665545
O O4 0.469413 0.389608 0.888083
O O5 0.873816 0.102730 0.516085
O O6 0.954757 0.163495 0.744966
O O7 0.333334 0.666667 0.433256
O O8 0.233411 0.676238 0.197310
O O9 0.142974 0.778214 0.311249
O O10 0.984501 0.809630 0.287003
O O11 0.500000 0.500000 0.118597
O O12 0.695678 0.614072 0.051975
O O13 0.590564 0.721943 0.112222
#
# Coordination Sequence:
#
# PCOD9579763 Si02
#       7
#     6   6   2   6   2   6   6
#     4  11  26  45  68  99 132 184 232 293 353 425
#     4  10  21  39  64  95 131 176 227 282 348 421
#     4  12  27  43  71 103 141 180 229 311 349 441
#     4  10  20  37  61  91 128 170 218 277 341 421
#     4  12  27  49  71 103 141 186 238 293 376 435
#     4  11  26  43  69  98 132 184 229 289 342 423
#     4  12  23  43  66 101 135 176 236 281 358 413
#
# _framework density 21.086265000000001
#
# number of rings (size 3 to 8) (size 9 to 14) (size 15 to 20)
#    0.000    1.059    3.529    2.471    7.412    2.824 
#    3.176    0.000    0.000    0.000    0.000    0.000 
#    0.000    0.000    0.000    0.000    0.000    0.000 
#
# Total GULP energy -189304.076725 kJ/mol
# GULP energy per Si atom -5567.766963 kJ/mol
# Density = 2.103827 g / cm^3
# Si number density = 21.086265 Si / 1000 Ang^3
#
#
#
# Elastic Constant Matrix: (Units=GPa)
#
#
# Indices 1 2 3 4 5 6 
#
# 1 148.8837 38.8888 4.2488 0.0000 0.0000 -0.0027
# 2 38.8888 148.8846 4.2465 0.0000 0.0000 0.0005
# 3 4.2488 4.2465 38.0728 0.0000 0.0000 0.0007
# 4 0.0000 0.0000 0.0000 13.8005 0.0009 0.0000
# 5 0.0000 0.0000 0.0000 0.0009 13.8021 0.0000
# 6 -0.0027 0.0005 0.0007 0.0000 0.0000 54.9920
#
#
#
# Elastic Compliance Matrix: (Units=1/GPa)
#
#
# Indices 1 2 3 4 5 6 
#
# 1 0.007222 -0.001869 -0.000597 0.000000 0.000000 0.000000
# 2 -0.001869 0.007222 -0.000597 0.000000 0.000000 0.000000
# 3 -0.000597 -0.000597 0.026399 0.000000 0.000000 0.000000
# 4 0.000000 0.000000 0.000000 0.072461 -0.000005 0.000000
# 5 0.000000 0.000000 0.000000 -0.000005 0.072453 0.000000
# 6 0.000000 0.000000 0.000000 0.000000 0.000000 0.018184
#
#
# Mechanical properties :
#
#
# Convention : Reuss Voigt Hill
#
# Bulk Modulus (GPa) = 28.80580 47.84549 38.32565
# Shear Modulus (GPa) = 22.55909 35.74939 29.15424
#
# Velocity S-wave (km/s) = 3.27440 4.12198 3.72239
# Velocity P-wave (km/s) = 5.29020 6.73750 6.05723
#
# Compressibility (1/GPa) = 0.03471523
#
# Stress axis : x y z
#
# Youngs Moduli (GPa) = 138.46615 138.46748 37.88063
#
# Poissons Ratio (x) = 0.25884 0.02263
# Poissons Ratio (y) = 0.25884 0.02261
# Poissons Ratio (z) = 0.08273 0.08265
#
# Static dielectric constant tensor:
#      x y z
#    x 1.847350 0.000000 0.000000 
#    y 0.000000 1.847340 0.000000 
#    z 0.000000 0.000000 1.802740 
# 
# From -- ./inp_files/274.got.cif
#   From: 2010.05.17/outbox.cif.g08.bks.cpg/sg168_cif.got.tgz:274.got - 2010.05.20 11:12:33.
