data_PCOD9579784
_publ_section_title
;
Structure prediction by ZEFSAII (Michael W. Deem and Ramdas Pophale) SiO2 
 PCOD9579784
Probable space group: P 61
;
_chemical_formula_sum "Si O2"
_cell_formula_units_Z 48
_cell_length_a 16.432576
_cell_length_b 16.432576
_cell_length_c 12.000747
_cell_angle_alpha 90.000000
_cell_angle_beta 90.000000
_cell_angle_gamma 120.000000
_cell_volume 2806.404130
_symmetry_space_group_name_H-M "P 61"
_symmetry_group_IT_number 169
_symmetry_cell_setting 'hexagonal'
loop_
_space_group_symop_operation_xyz
x,y,z
x-y,x,1/6+z
-y,x-y,1/3+z
-x,-y,1/2+z
-x+y,-x,2/3+z
y,-x+y,5/6+z
loop_
_atom_site_type_symbol
_atom_site_label
_atom_site_fract_x
_atom_site_fract_y
_atom_site_fract_z
Si Si1 0.973894 0.124895 0.740350
Si Si2 0.747615 0.505445 0.217174
Si Si3 0.618754 0.836963 0.639474
Si Si4 0.888201 0.363305 0.678160
Si Si5 0.731986 0.779416 0.792967
Si Si6 0.666968 0.392952 0.429871
Si Si7 0.313027 0.775079 0.818194
Si Si8 0.339540 0.283043 0.538610
O O1 0.064673 0.128769 0.685413
O O2 0.998781 0.233136 0.752115
O O3 0.886416 0.073614 0.653468
O O4 0.697212 0.528173 0.118438
O O5 0.678981 0.453751 0.320675
O O6 0.774695 0.432452 0.159994
O O7 0.842205 0.596044 0.257552
O O8 0.558475 0.854920 0.734671
O O9 0.666507 0.784063 0.699320
O O10 0.552734 0.771077 0.542076
O O11 0.703897 0.939219 0.604076
O O12 0.864012 0.446027 0.663008
O O13 0.993915 0.388942 0.703191
O O14 0.675868 0.748497 0.909514
O O15 0.680541 0.307779 0.384530
O O16 0.743966 0.451069 0.523299
#
# Coordination Sequence:
#
# PCOD9579784 Si02
#       8
#     6   6   6   6   6   6   6   6
#     4  10  17  31  57  82 106 138 182 229 287 331
#     4  10  19  34  56  76 109 143 191 221 276 334
#     4  11  19  34  56  84 110 137 188 237 289 323
#     4  10  18  31  53  81 104 141 175 234 275 330
#     4  10  18  31  57  84 104 136 178 241 280 327
#     4   9  20  35  55  72  99 160 187 221 263 339
#     4  10  19  35  53  73 109 146 190 222 275 325
#     4  10  18  31  53  86 111 131 183 237 281 317
#
# _framework density 17.103736999999999
#
# number of rings (size 3 to 8) (size 9 to 14) (size 15 to 20)
#    0.000    2.000    6.250    0.750    1.750    0.000 
#    4.500    1.250    2.750    0.000    0.000    0.000 
#    0.000    0.000    0.000    0.000    0.000    0.000 
#
# Total GULP energy -267376.144827 kJ/mol
# GULP energy per Si atom -5570.336351 kJ/mol
# Density = 1.706481 g / cm^3
# Si number density = 17.103737 Si / 1000 Ang^3
#
#
#
# Elastic Constant Matrix: (Units=GPa)
#
#
# Indices 1 2 3 4 5 6 
#
# 1 52.2691 8.3162 5.5476 0.0000 0.0000 0.0000
# 2 8.3162 52.2691 5.5476 0.0000 0.0000 0.0000
# 3 5.5476 5.5476 38.4983 0.0000 0.0000 0.0000
# 4 0.0000 0.0000 0.0000 19.5136 0.0000 0.0000
# 5 0.0000 0.0000 0.0000 0.0000 19.5136 0.0000
# 6 0.0000 0.0000 0.0000 0.0000 0.0000 21.9764
#
#
#
# Elastic Compliance Matrix: (Units=1/GPa)
#
#
# Indices 1 2 3 4 5 6 
#
# 1 0.019852 -0.002899 -0.002443 0.000000 0.000000 0.000000
# 2 -0.002899 0.019852 -0.002443 0.000000 0.000000 0.000000
# 3 -0.002443 -0.002443 0.026679 0.000000 0.000000 0.000000
# 4 0.000000 0.000000 0.000000 0.051246 0.000000 0.000000
# 5 0.000000 0.000000 0.000000 0.000000 0.051246 0.000000
# 6 0.000000 0.000000 0.000000 0.000000 0.000000 0.045503
#
#
# Mechanical properties :
#
#
# Convention : Reuss Voigt Hill
#
# Bulk Modulus (GPa) = 19.67981 20.20662 19.94321
# Shear Modulus (GPa) = 20.25209 20.44239 20.34724
#
# Velocity S-wave (km/s) = 3.44477 3.46092 3.45285
# Velocity P-wave (km/s) = 5.23001 5.27356 5.25183
#
# Compressibility (1/GPa) = 0.05081349
#
# Stress axis : x y z
#
# Youngs Moduli (GPa) = 50.37188 50.37188 37.48237
#
# Poissons Ratio (x) = 0.14604 0.09157
# Poissons Ratio (y) = 0.14604 0.09157
# Poissons Ratio (z) = 0.12306 0.12306
#
# Static dielectric constant tensor:
#      x y z
#    x 1.601320 0.000000 0.000000 
#    y 0.000000 1.601320 0.000000 
#    z 0.000000 0.000000 1.568880 
# 
# From -- ./inp_files/1079.got.cif
#   From: 2010.05.17/outbox.cif.g08.bks.cpg/sg169_cif.got.tgz:1079.got - 2010.05.20 11:12:54.
