data_PCOD9579748
_publ_section_title
;
Structure prediction by ZEFSAII (Michael W. Deem and Ramdas Pophale) SiO2 
 PCOD9579748
Probable space group: P 6
;
_chemical_formula_sum "Si O2"
_cell_formula_units_Z 42
_cell_length_a 13.533103
_cell_length_b 13.533103
_cell_length_c 15.860469
_cell_angle_alpha 90.000000
_cell_angle_beta 90.000000
_cell_angle_gamma 120.000000
_cell_volume 2515.599105
_symmetry_space_group_name_H-M "P 6"
_symmetry_group_IT_number 168
_symmetry_cell_setting 'hexagonal'
loop_
_space_group_symop_operation_xyz
x,y,z
x-y,x,z
-y,x-y,z
-x,-y,z
-x+y,-x,z
y,-x+y,z
loop_
_atom_site_type_symbol
_atom_site_label
_atom_site_fract_x
_atom_site_fract_y
_atom_site_fract_z
Si Si1 0.200392 0.265472 0.629950
Si Si2 0.113578 0.679767 0.783785
Si Si3 0.799608 0.734528 0.256132
Si Si4 0.870656 0.520193 0.847989
Si Si5 0.433811 0.113578 0.102298
Si Si6 0.479807 0.350464 0.038093
Si Si7 0.196124 0.259667 0.443041
O O1 0.223053 0.158299 0.639501
O O2 0.273287 0.362912 0.697868
O O3 0.237988 0.315130 0.534783
O O4 0.220918 0.782434 0.828396
O O5 0.141239 0.576276 0.782167
O O6 0.997802 0.624877 0.837522
O O7 0.776947 0.841701 0.246582
O O8 0.726713 0.637088 0.188214
O O9 0.762013 0.684870 0.351299
O O10 0.853452 0.473244 0.943041
O O11 0.438484 0.220918 0.057686
O O12 0.564963 0.141240 0.103915
O O13 0.372926 0.997802 0.048561
O O14 0.214936 0.152418 0.443041
#
# Coordination Sequence:
#
# PCOD9579748 Si02
#       7
#     6   6   6   6   6   6   6
#     4  10  18  33  54  84 115 143 175 211 265 320
#     4  11  21  35  56  76 106 136 178 229 266 314
#     4  10  18  33  54  84 115 143 175 211 265 320
#     4  11  22  37  54  77 104 140 181 221 269 318
#     4  11  21  35  56  76 106 136 178 229 266 314
#     4  11  22  37  54  77 104 140 181 221 269 318
#     4   8  15  26  50  79 111 143 173 210 250 314
#
# _framework density 16.695824000000002
#
# number of rings (size 3 to 8) (size 9 to 14) (size 15 to 20)
#    0.000    1.714    2.857    4.429    0.000    2.286 
#    0.000    0.000    0.000    5.143    0.000    4.000 
#    0.000    0.000    0.000    0.000    0.000    0.000 
#
# Total GULP energy -233866.359992 kJ/mol
# GULP energy per Si atom -5568.246666 kJ/mol
# Density = 1.665782 g / cm^3
# Si number density = 16.695824 Si / 1000 Ang^3
#
#
#
# Elastic Constant Matrix: (Units=GPa)
#
#
# Indices 1 2 3 4 5 6 
#
# 1 79.1769 42.1561 36.1398 0.0000 0.0000 0.0000
# 2 42.1561 79.1769 36.1398 0.0000 0.0000 0.0000
# 3 36.1398 36.1398 130.8678 0.0000 0.0000 0.0000
# 4 0.0000 0.0000 0.0000 23.8499 0.0000 0.0000
# 5 0.0000 0.0000 0.0000 0.0000 23.8499 0.0000
# 6 0.0000 0.0000 0.0000 0.0000 0.0000 18.5104
#
#
#
# Elastic Compliance Matrix: (Units=1/GPa)
#
#
# Indices 1 2 3 4 5 6 
#
# 1 0.018438 -0.008574 -0.002724 0.000000 0.000000 0.000000
# 2 -0.008574 0.018438 -0.002724 0.000000 0.000000 0.000000
# 3 -0.002724 -0.002724 0.009146 0.000000 0.000000 0.000000
# 4 0.000000 0.000000 0.000000 0.041929 0.000000 0.000000
# 5 0.000000 0.000000 0.000000 0.000000 0.041929 0.000000
# 6 0.000000 0.000000 0.000000 0.000000 0.000000 0.054024
#
#
# Mechanical properties :
#
#
# Convention : Reuss Voigt Hill
#
# Bulk Modulus (GPa) = 55.62220 57.56592 56.59406
# Shear Modulus (GPa) = 22.94205 24.89443 23.91824
#
# Velocity S-wave (km/s) = 3.71093 3.86561 3.78906
# Velocity P-wave (km/s) = 7.19366 7.38092 7.28789
#
# Compressibility (1/GPa) = 0.01797843
#
# Stress axis : x y z
#
# Youngs Moduli (GPa) = 54.23522 54.23522 109.33884
#
# Poissons Ratio (x) = 0.46499 0.29786
# Poissons Ratio (y) = 0.46499 0.29786
# Poissons Ratio (z) = 0.14775 0.14775
#
# Static dielectric constant tensor:
#      x y z
#    x 1.557770 0.000000 0.000000 
#    y 0.000000 1.557770 0.000000 
#    z 0.000000 0.000000 1.585510 
# 
# From -- ./inp_files/415.got.cif
#   From: 2010.05.17/outbox.cif.g08.bks.cpg/sg168_cif.got.tgz:415.got - 2010.05.20 11:12:33.
