data_PCOD9579484
_publ_section_title
;
Structure prediction by ZEFSAII (Michael W. Deem and Ramdas Pophale) SiO2 
 PCOD9579484
Probable space group: R -3 C 
;
_chemical_formula_sum "Si O2"
_cell_formula_units_Z 168
_cell_length_a 17.478975
_cell_length_b 17.478975
_cell_length_c 29.291149
_cell_angle_alpha 90.000000
_cell_angle_beta 90.000000
_cell_angle_gamma 120.000000
_cell_volume 7749.951098
_symmetry_space_group_name_H-M "R -3 C "
_symmetry_group_IT_number 167
_symmetry_cell_setting 'hexagonal'
loop_
_space_group_symop_operation_xyz
x,y,z
-y,x-y,z
-x+y,-x,z
x-y,-y,1/2-z
-x,-x+y,1/2-z
y,x,1/2-z
-x,-y,-z
y,-x+y,-z
x-y,x,-z
-x+y,y,1/2+z
x,x-y,1/2+z
-y,-x,1/2+z
2/3+x,1/3+y,1/3+z
2/3-y,1/3+x-y,1/3+z
2/3-x+y,1/3-x,1/3+z
2/3+x-y,1/3-y,5/6-z
2/3-x,1/3-x+y,5/6-z
2/3+y,1/3+x,5/6-z
2/3-x,1/3-y,1/3-z
2/3+y,1/3-x+y,1/3-z
2/3+x-y,1/3+x,1/3-z
2/3-x+y,1/3+y,5/6+z
2/3+x,1/3+x-y,5/6+z
2/3-y,1/3-x,5/6+z
1/3+x,2/3+y,2/3+z
1/3-y,2/3+x-y,2/3+z
1/3-x+y,2/3-x,2/3+z
1/3+x-y,2/3-y,1/6-z
1/3-x,2/3-x+y,1/6-z
1/3+y,2/3+x,1/6-z
1/3-x,2/3-y,2/3-z
1/3+y,2/3-x+y,2/3-z
1/3+x-y,2/3+x,2/3-z
1/3-x+y,2/3+y,1/6+z
1/3+x,2/3+x-y,1/6+z
1/3-y,2/3-x,1/6+z
loop_
_atom_site_type_symbol
_atom_site_label
_atom_site_fract_x
_atom_site_fract_y
_atom_site_fract_z
Si Si1 0.894501 0.227834 0.916667
Si Si2 0.000000 0.000000 0.185954
Si Si3 0.666668 0.333334 0.907564
Si Si4 0.710654 0.950032 0.348533
Si Si5 0.046397 0.860755 0.829319
Si Si6 0.964620 0.809426 0.922490
Si Si7 0.666667 0.646486 0.083334
O O1 0.928505 0.296731 0.957197
O O2 0.882767 0.136475 0.935065
O O3 0.000000 0.000000 0.130022
O O4 0.928551 0.899941 0.198630
O O5 0.755837 0.424163 0.894088
O O6 0.778307 0.915263 0.358419
O O7 0.609321 0.878378 0.360701
O O8 0.715890 0.967189 0.294172
O O9 0.969759 0.814127 0.866843
O O10 0.009800 0.750127 0.933029
#
# Coordination Sequence:
#
# PCOD9579484 Si02
#       7
#    18  12  12  36  36  36  18
#     4  11  20  34  60  87 108 142 188 233 282 336
#     4   9  15  30  54  76 107 151 187 227 280 337
#     4   9  15  30  54  76 107 154 190 224 283 340
#     4  10  20  36  59  85 112 147 189 234 284 335
#     4   9  18  35  56  80 112 149 188 230 280 335
#     4   9  18  34  55  81 112 146 186 231 280 335
#     4   9  20  38  56  81 116 146 184 239 284 332
#
# _framework density 21.677555000000002
#
# number of rings (size 3 to 8) (size 9 to 14) (size 15 to 20)
#    0.000    2.571    0.000    3.857    0.000    0.000 
#    0.000   34.286    0.000    2.571    0.000    0.000 
#    0.000    0.000    0.000    0.000    0.000    0.000 
#
# Total GULP energy -312281.803655 kJ/mol
# GULP energy per Si atom -5576.460780 kJ/mol
# Density = 2.162822 g / cm^3
# Si number density = 21.677555 Si / 1000 Ang^3
#
#
#
# Elastic Constant Matrix: (Units=GPa)
#
#
# Indices 1 2 3 4 5 6 
#
# 1 65.3263 1.2902 -1.1338 -6.1198 -0.0002 0.0000
# 2 1.2902 65.3265 -1.1339 6.1197 0.0002 0.0000
# 3 -1.1338 -1.1339 25.8123 0.0000 0.0000 0.0000
# 4 -6.1198 6.1197 0.0000 20.0641 0.0000 0.0002
# 5 -0.0002 0.0002 0.0000 0.0000 20.0640 -6.1197
# 6 0.0000 0.0000 0.0000 0.0002 -6.1197 32.0178
#
#
#
# Elastic Compliance Matrix: (Units=1/GPa)
#
#
# Indices 1 2 3 4 5 6 
#
# 1 0.015808 -0.000775 0.000660 0.005058 0.000000 0.000000
# 2 -0.000775 0.015808 0.000660 -0.005058 0.000000 0.000000
# 3 0.000660 0.000660 0.038799 0.000000 0.000000 0.000000
# 4 0.005058 -0.005058 0.000000 0.052926 0.000000 0.000000
# 5 0.000000 0.000000 0.000000 0.000000 0.052926 0.010116
# 6 0.000000 0.000000 0.000000 0.000000 0.010116 0.033166
#
#
# Mechanical properties :
#
#
# Convention : Reuss Voigt Hill
#
# Bulk Modulus (GPa) = 13.98437 17.16777 15.57607
# Shear Modulus (GPa) = 21.53528 24.92538 23.23033
#
# Velocity S-wave (km/s) = 3.15530 3.39458 3.27713
# Velocity P-wave (km/s) = 4.44293 4.82712 4.63901
#
# Compressibility (1/GPa) = 0.07150839
#
# Stress axis : x y z
#
# Youngs Moduli (GPa) = 63.25769 63.25791 25.77370
#
# Poissons Ratio (x) = 0.04900 -0.01702
# Poissons Ratio (y) = 0.04900 -0.01702
# Poissons Ratio (z) = -0.04177 -0.04178
#
# Static dielectric constant tensor:
#      x y z
#    x 1.806520 0.000000 0.000000 
#    y 0.000000 1.806510 0.000000 
#    z 0.000000 0.000000 1.802320 
# 
# From -- ./inp_files/7011.got.cif
#   From: 2010.05.17/outbox.cif.g08.bks.cpg/sg167_4_cif.got.tgz:7011.got - 2010.05.20 11:09:15.
