data_PCOD9579402
_publ_section_title
;
Structure prediction by ZEFSAII (Michael W. Deem and Ramdas Pophale) SiO2 
 PCOD9579402
Probable space group: R -3 C 
;
_chemical_formula_sum "Si O2"
_cell_formula_units_Z 216
_cell_length_a 22.245483
_cell_length_b 22.245483
_cell_length_c 22.633402
_cell_angle_alpha 90.000000
_cell_angle_beta 90.000000
_cell_angle_gamma 120.000000
_cell_volume 9699.830568
_symmetry_space_group_name_H-M "R -3 C "
_symmetry_group_IT_number 167
_symmetry_cell_setting 'hexagonal'
loop_
_space_group_symop_operation_xyz
x,y,z
-y,x-y,z
-x+y,-x,z
x-y,-y,1/2-z
-x,-x+y,1/2-z
y,x,1/2-z
-x,-y,-z
y,-x+y,-z
x-y,x,-z
-x+y,y,1/2+z
x,x-y,1/2+z
-y,-x,1/2+z
2/3+x,1/3+y,1/3+z
2/3-y,1/3+x-y,1/3+z
2/3-x+y,1/3-x,1/3+z
2/3+x-y,1/3-y,5/6-z
2/3-x,1/3-x+y,5/6-z
2/3+y,1/3+x,5/6-z
2/3-x,1/3-y,1/3-z
2/3+y,1/3-x+y,1/3-z
2/3+x-y,1/3+x,1/3-z
2/3-x+y,1/3+y,5/6+z
2/3+x,1/3+x-y,5/6+z
2/3-y,1/3-x,5/6+z
1/3+x,2/3+y,2/3+z
1/3-y,2/3+x-y,2/3+z
1/3-x+y,2/3-x,2/3+z
1/3+x-y,2/3-y,1/6-z
1/3-x,2/3-x+y,1/6-z
1/3+y,2/3+x,1/6-z
1/3-x,2/3-y,2/3-z
1/3+y,2/3-x+y,2/3-z
1/3+x-y,2/3+x,2/3-z
1/3-x+y,2/3+y,1/6+z
1/3+x,2/3+x-y,1/6+z
1/3-y,2/3-x,1/6+z
loop_
_atom_site_type_symbol
_atom_site_label
_atom_site_fract_x
_atom_site_fract_y
_atom_site_fract_z
Si Si1 0.439273 0.897816 0.219078
Si Si2 0.409346 0.546740 0.498632
Si Si3 0.317599 0.238059 0.732541
Si Si4 0.367299 0.156857 0.006319
Si Si5 0.511716 0.133046 0.895676
Si Si6 0.920258 0.000000 0.750000
Si Si7 0.666667 0.531778 0.083334
O O1 0.466086 0.927184 0.283632
O O2 0.484452 0.883775 0.172620
O O3 0.364207 0.832933 0.229735
O O4 0.433291 0.959141 0.185112
O O5 0.413265 0.476802 0.488286
O O6 0.421501 0.568473 0.566578
O O7 0.341327 0.545578 0.471701
O O8 0.469549 0.608854 0.458361
O O9 0.284674 0.284674 0.750000
O O10 0.306050 0.179932 0.780564
O O11 0.400851 0.283671 0.735444
O O12 0.407842 0.123764 0.038170
O O13 0.937114 0.937114 0.750000
#
# Coordination Sequence:
#
# PCOD9579402 Si02
#       7
#    36  36  36  36  36  18  18
#     4  10  22  43  60  88 127 172 206 256 313 397
#     4  11  20  38  61  93 124 158 205 274 315 370
#     4  10  22  37  64  98 127 160 208 273 323 370
#     4   9  20  38  64  91 124 163 214 259 315 378
#     4  11  24  41  62  91 131 174 213 250 327 394
#     4  10  21  38  60  96 122 155 214 270 330 362
#     4  10  17  34  64  92 116 159 210 264 318 354
#
# _framework density 22.268431
#
# number of rings (size 3 to 8) (size 9 to 14) (size 15 to 20)
#    0.167    1.667    3.333    0.500    2.333    1.333 
#    3.000    3.333    0.000    0.333    0.000    0.000 
#    0.000    0.000    0.000    0.000    0.000    0.000 
#
# Total GULP energy -401187.655232 kJ/mol
# GULP energy per Si atom -5572.050767 kJ/mol
# Density = 2.221775 g / cm^3
# Si number density = 22.268431 Si / 1000 Ang^3
#
#
#
# Elastic Constant Matrix: (Units=GPa)
#
#
# Indices 1 2 3 4 5 6 
#
# 1 24.4186 15.1222 -1.1815 -6.5242 -0.0001 0.0000
# 2 15.1222 24.4186 -1.1815 6.5242 0.0001 0.0000
# 3 -1.1815 -1.1815 74.2481 0.0000 0.0000 0.0000
# 4 -6.5242 6.5242 0.0000 24.3077 0.0000 0.0001
# 5 -0.0001 0.0001 0.0000 0.0000 24.3077 -6.5242
# 6 0.0000 0.0000 0.0000 0.0001 -6.5242 4.6482
#
#
#
# Elastic Compliance Matrix: (Units=1/GPa)
#
#
# Indices 1 2 3 4 5 6 
#
# 1 0.098950 -0.073636 0.000403 0.046322 0.000001 0.000000
# 2 -0.073636 0.098950 0.000403 -0.046322 -0.000001 0.000000
# 3 0.000403 0.000403 0.013481 0.000000 0.000000 0.000000
# 4 0.046322 -0.046322 0.000000 0.066005 0.000000 -0.000001
# 5 0.000001 -0.000001 0.000000 0.000000 0.066005 0.092644
# 6 0.000000 0.000000 0.000000 -0.000001 0.092644 0.345171
#
#
# Mechanical properties :
#
#
# Convention : Reuss Voigt Hill
#
# Bulk Modulus (GPa) = 15.21574 16.51150 15.86362
# Shear Modulus (GPa) = 5.84024 18.00780 11.92402
#
# Velocity S-wave (km/s) = 1.62122 2.84680 2.31653
# Velocity P-wave (km/s) = 3.21748 4.27042 3.78079
#
# Compressibility (1/GPa) = 0.06572142
#
# Stress axis : x y z
#
# Youngs Moduli (GPa) = 10.10611 10.10611 74.17751
#
# Poissons Ratio (x) = 0.74417 -0.02988
# Poissons Ratio (y) = 0.74417 -0.02988
# Poissons Ratio (z) = -0.00407 -0.00407
#
# Static dielectric constant tensor:
#      x y z
#    x 1.865540 0.000000 0.000000 
#    y 0.000000 1.865540 0.000000 
#    z 0.000000 0.000000 1.655370 
# 
# From -- ./inp_files/5577.got.cif
#   From: 2010.05.17/outbox.cif.g08.bks.cpg/sg167_3_cif.got.tgz:5577.got - 2010.05.20 11:09:15.
