data_PCOD9579574
_publ_section_title
;
Structure prediction by ZEFSAII (Michael W. Deem and Ramdas Pophale) SiO2 
 PCOD9579574
Probable space group: R -3 C 
;
_chemical_formula_sum "Si O2"
_cell_formula_units_Z 90
_cell_length_a 11.392697
_cell_length_b 11.392697
_cell_length_c 36.367343
_cell_angle_alpha 90.000000
_cell_angle_beta 90.000000
_cell_angle_gamma 120.000000
_cell_volume 4087.853267
_symmetry_space_group_name_H-M "R -3 C "
_symmetry_group_IT_number 167
_symmetry_cell_setting 'hexagonal'
loop_
_space_group_symop_operation_xyz
x,y,z
-y,x-y,z
-x+y,-x,z
x-y,-y,1/2-z
-x,-x+y,1/2-z
y,x,1/2-z
-x,-y,-z
y,-x+y,-z
x-y,x,-z
-x+y,y,1/2+z
x,x-y,1/2+z
-y,-x,1/2+z
2/3+x,1/3+y,1/3+z
2/3-y,1/3+x-y,1/3+z
2/3-x+y,1/3-x,1/3+z
2/3+x-y,1/3-y,5/6-z
2/3-x,1/3-x+y,5/6-z
2/3+y,1/3+x,5/6-z
2/3-x,1/3-y,1/3-z
2/3+y,1/3-x+y,1/3-z
2/3+x-y,1/3+x,1/3-z
2/3-x+y,1/3+y,5/6+z
2/3+x,1/3+x-y,5/6+z
2/3-y,1/3-x,5/6+z
1/3+x,2/3+y,2/3+z
1/3-y,2/3+x-y,2/3+z
1/3-x+y,2/3-x,2/3+z
1/3+x-y,2/3-y,1/6-z
1/3-x,2/3-x+y,1/6-z
1/3+y,2/3+x,1/6-z
1/3-x,2/3-y,2/3-z
1/3+y,2/3-x+y,2/3-z
1/3+x-y,2/3+x,2/3-z
1/3-x+y,2/3+y,1/6+z
1/3+x,2/3+x-y,1/6+z
1/3-y,2/3-x,1/6+z
loop_
_atom_site_type_symbol
_atom_site_label
_atom_site_fract_x
_atom_site_fract_y
_atom_site_fract_z
Si Si1 0.486323 0.000000 0.750000
Si Si2 0.886198 0.585234 0.814342
Si Si3 0.000686 0.847174 0.853488
O O1 0.612706 0.082513 0.777579
O O2 0.461747 0.102935 0.725362
O O3 0.898468 0.494407 0.846926
O O4 0.986614 0.743825 0.822070
O O5 0.873125 0.874835 0.851176
#
# Coordination Sequence:
#
# PCOD9579574 Si02
#       3
#    18  36  36
#     4  10  22  36  64  94 120 172 206 254 322 370
#     4  10  22  39  63  95 124 165 211 263 310 374
#     4   9  22  41  61  86 131 162 203 260 316 364
#
# _framework density 22.016444
#
# number of rings (size 3 to 8) (size 9 to 14) (size 15 to 20)
#    0.800    1.600    0.000    0.400   11.200    6.400 
#    0.000    6.000    0.000    0.000    0.000    0.000 
#    0.000    0.000    0.000    0.000    0.000    0.000 
#
# Total GULP energy -167326.763975 kJ/mol
# GULP energy per Si atom -5577.558799 kJ/mol
# Density = 2.196633 g / cm^3
# Si number density = 22.016444 Si / 1000 Ang^3
#
#
#
# Elastic Constant Matrix: (Units=GPa)
#
#
# Indices 1 2 3 4 5 6 
#
# 1 69.9476 -16.9548 3.8637 0.6561 0.0000 0.0000
# 2 -16.9548 69.9476 3.8637 -0.6561 0.0000 0.0000
# 3 3.8637 3.8637 69.7035 0.0000 0.0000 0.0000
# 4 0.6561 -0.6561 0.0000 37.1403 0.0000 0.0000
# 5 0.0000 0.0000 0.0000 0.0000 37.1403 0.6561
# 6 0.0000 0.0000 0.0000 0.0000 0.6561 43.4512
#
#
#
# Elastic Compliance Matrix: (Units=1/GPa)
#
#
# Indices 1 2 3 4 5 6 
#
# 1 0.015267 0.003757 -0.001055 -0.000203 0.000000 0.000000
# 2 0.003757 0.015267 -0.001055 0.000203 0.000000 0.000000
# 3 -0.001055 -0.001055 0.014463 0.000000 0.000000 0.000000
# 4 -0.000203 0.000203 0.000000 0.026932 0.000000 0.000000
# 5 0.000000 0.000000 0.000000 0.000000 0.026932 -0.000407
# 6 0.000000 0.000000 0.000000 0.000000 -0.000407 0.023020
#
#
# Mechanical properties :
#
#
# Convention : Reuss Voigt Hill
#
# Bulk Modulus (GPa) = 20.70660 21.23822 20.97241
# Shear Modulus (GPa) = 37.12376 38.13475 37.62926
#
# Velocity S-wave (km/s) = 4.11077 4.16637 4.13866
# Velocity P-wave (km/s) = 5.65303 5.72820 5.69074
#
# Compressibility (1/GPa) = 0.04829379
#
# Stress axis : x y z
#
# Youngs Moduli (GPa) = 65.49971 65.49971 69.14007
#
# Poissons Ratio (x) = -0.24608 0.07291
# Poissons Ratio (y) = -0.24608 0.07291
# Poissons Ratio (z) = 0.06907 0.06907
#
# Static dielectric constant tensor:
#      x y z
#    x 1.869720 0.000000 0.000000 
#    y 0.000000 1.869720 0.000000 
#    z 0.000000 0.000000 1.801350 
# 
# From -- ./inp_files/6764.got.cif
#   From: 2010.05.17/outbox.cif.g08.bks.cpg/sg167_4_cif.got.tgz:6764.got - 2010.05.20 11:09:15.
