data_PCOD9579497
_publ_section_title
;
Structure prediction by ZEFSAII (Michael W. Deem and Ramdas Pophale) SiO2 
 PCOD9579497
Probable space group: R -3 C 
;
_chemical_formula_sum "Si O2"
_cell_formula_units_Z 162
_cell_length_a 20.167729
_cell_length_b 20.167729
_cell_length_c 22.332635
_cell_angle_alpha 90.000000
_cell_angle_beta 90.000000
_cell_angle_gamma 120.000000
_cell_volume 7866.555184
_symmetry_space_group_name_H-M "R -3 C "
_symmetry_group_IT_number 167
_symmetry_cell_setting 'hexagonal'
loop_
_space_group_symop_operation_xyz
x,y,z
-y,x-y,z
-x+y,-x,z
x-y,-y,1/2-z
-x,-x+y,1/2-z
y,x,1/2-z
-x,-y,-z
y,-x+y,-z
x-y,x,-z
-x+y,y,1/2+z
x,x-y,1/2+z
-y,-x,1/2+z
2/3+x,1/3+y,1/3+z
2/3-y,1/3+x-y,1/3+z
2/3-x+y,1/3-x,1/3+z
2/3+x-y,1/3-y,5/6-z
2/3-x,1/3-x+y,5/6-z
2/3+y,1/3+x,5/6-z
2/3-x,1/3-y,1/3-z
2/3+y,1/3-x+y,1/3-z
2/3+x-y,1/3+x,1/3-z
2/3-x+y,1/3+y,5/6+z
2/3+x,1/3+x-y,5/6+z
2/3-y,1/3-x,5/6+z
1/3+x,2/3+y,2/3+z
1/3-y,2/3+x-y,2/3+z
1/3-x+y,2/3-x,2/3+z
1/3+x-y,2/3-y,1/6-z
1/3-x,2/3-x+y,1/6-z
1/3+y,2/3+x,1/6-z
1/3-x,2/3-y,2/3-z
1/3+y,2/3-x+y,2/3-z
1/3+x-y,2/3+x,2/3-z
1/3-x+y,2/3+y,1/6+z
1/3+x,2/3+x-y,1/6+z
1/3-y,2/3-x,1/6+z
loop_
_atom_site_type_symbol
_atom_site_label
_atom_site_fract_x
_atom_site_fract_y
_atom_site_fract_z
Si Si1 0.188482 0.278569 0.942879
Si Si2 0.764800 0.740777 0.552115
Si Si3 0.087764 0.087764 0.250000
Si Si4 0.894487 0.501336 0.665432
Si Si5 0.042471 0.271745 0.137700
O O1 0.100466 0.253605 0.945555
O O2 0.243589 0.370221 0.950266
O O3 0.210136 0.251788 0.882498
O O4 0.207776 0.242091 0.999971
O O5 0.752465 0.771355 0.614795
O O6 0.712724 0.653996 0.528503
O O7 0.133775 0.143170 0.194818
O O8 0.000000 0.071345 0.250000
O O9 0.902772 0.430330 0.688949
O O10 0.076529 0.333334 0.083334
#
# Coordination Sequence:
#
# PCOD9579497 Si02
#       5
#    36  36  18  36  36
#     4  10  21  38  64 101 131 167 210 273 321 387
#     4  10  20  37  67  95 129 170 212 265 325 382
#     4  10  28  48  62  88 130 176 220 260 324 392
#     4  11  22  42  69  89 127 174 213 265 326 383
#     4   9  20  39  65  97 135 160 212 266 322 384
#
# _framework density 20.593513000000002
#
# number of rings (size 3 to 8) (size 9 to 14) (size 15 to 20)
#    0.222    1.778    0.000    4.667    7.778    0.000 
#    0.000   17.778    0.000    1.778    0.000    0.000 
#    0.000    0.000    0.000    0.000    0.000    0.000 
#
# Total GULP energy -301493.149793 kJ/mol
# GULP energy per Si atom -5583.206478 kJ/mol
# Density = 2.054664 g / cm^3
# Si number density = 20.593513 Si / 1000 Ang^3
#
#
#
# Elastic Constant Matrix: (Units=GPa)
#
#
# Indices 1 2 3 4 5 6 
#
# 1 112.1524 53.3882 43.7148 10.7448 0.0000 0.0000
# 2 53.3882 112.1524 43.7148 -10.7448 0.0000 0.0000
# 3 43.7148 43.7148 78.3564 0.0000 0.0000 0.0000
# 4 10.7448 -10.7448 0.0000 31.9571 0.0000 0.0000
# 5 0.0000 0.0000 0.0000 0.0000 31.9571 10.7448
# 6 0.0000 0.0000 0.0000 0.0000 10.7448 29.3821
#
#
#
# Elastic Compliance Matrix: (Units=1/GPa)
#
#
# Indices 1 2 3 4 5 6 
#
# 1 0.013984 -0.005419 -0.004778 -0.006524 0.000000 0.000000
# 2 -0.005419 0.013984 -0.004778 0.006524 0.000000 0.000000
# 3 -0.004778 -0.004778 0.018093 0.000000 0.000000 0.000000
# 4 -0.006524 0.006524 0.000000 0.035679 0.000000 0.000000
# 5 0.000000 0.000000 0.000000 0.000000 0.035679 -0.013047
# 6 0.000000 0.000000 0.000000 0.000000 -0.013047 0.038806
#
#
# Mechanical properties :
#
#
# Convention : Reuss Voigt Hill
#
# Bulk Modulus (GPa) = 62.07298 64.92187 63.49743
# Shear Modulus (GPa) = 26.10360 29.44883 27.77621
#
# Velocity S-wave (km/s) = 3.56415 3.78564 3.67656
# Velocity P-wave (km/s) = 6.86622 7.12053 6.99453
#
# Compressibility (1/GPa) = 0.01611007
#
# Stress axis : x y z
#
# Youngs Moduli (GPa) = 71.51251 71.51251 55.26863
#
# Poissons Ratio (x) = 0.38755 0.26407
# Poissons Ratio (y) = 0.38755 0.26407
# Poissons Ratio (z) = 0.34169 0.34169
#
# Static dielectric constant tensor:
#      x y z
#    x 1.732220 0.000000 0.000000 
#    y 0.000000 1.732220 0.000000 
#    z 0.000000 0.000000 1.744440 
# 
# From -- ./inp_files/5319.got.cif
#   From: 2010.05.17/outbox.cif.g08.bks.cpg/sg167_3_cif.got.tgz:5319.got - 2010.05.20 11:09:15.
