data_PCOD9579548
_publ_section_title
;
Structure prediction by ZEFSAII (Michael W. Deem and Ramdas Pophale) SiO2 
 PCOD9579548
Probable space group: R -3 C 
;
_chemical_formula_sum "Si O2"
_cell_formula_units_Z 210
_cell_length_a 27.258533
_cell_length_b 27.258533
_cell_length_c 14.849534
_cell_angle_alpha 90.000000
_cell_angle_beta 90.000000
_cell_angle_gamma 120.000000
_cell_volume 9555.389955
_symmetry_space_group_name_H-M "R -3 C "
_symmetry_group_IT_number 167
_symmetry_cell_setting 'hexagonal'
loop_
_space_group_symop_operation_xyz
x,y,z
-y,x-y,z
-x+y,-x,z
x-y,-y,1/2-z
-x,-x+y,1/2-z
y,x,1/2-z
-x,-y,-z
y,-x+y,-z
x-y,x,-z
-x+y,y,1/2+z
x,x-y,1/2+z
-y,-x,1/2+z
2/3+x,1/3+y,1/3+z
2/3-y,1/3+x-y,1/3+z
2/3-x+y,1/3-x,1/3+z
2/3+x-y,1/3-y,5/6-z
2/3-x,1/3-x+y,5/6-z
2/3+y,1/3+x,5/6-z
2/3-x,1/3-y,1/3-z
2/3+y,1/3-x+y,1/3-z
2/3+x-y,1/3+x,1/3-z
2/3-x+y,1/3+y,5/6+z
2/3+x,1/3+x-y,5/6+z
2/3-y,1/3-x,5/6+z
1/3+x,2/3+y,2/3+z
1/3-y,2/3+x-y,2/3+z
1/3-x+y,2/3-x,2/3+z
1/3+x-y,2/3-y,1/6-z
1/3-x,2/3-x+y,1/6-z
1/3+y,2/3+x,1/6-z
1/3-x,2/3-y,2/3-z
1/3+y,2/3-x+y,2/3-z
1/3+x-y,2/3+x,2/3-z
1/3-x+y,2/3+y,1/6+z
1/3+x,2/3+x-y,1/6+z
1/3-y,2/3-x,1/6+z
loop_
_atom_site_type_symbol
_atom_site_label
_atom_site_fract_x
_atom_site_fract_y
_atom_site_fract_z
Si Si1 0.333334 0.666667 0.019512
Si Si2 0.333334 0.470547 0.416667
Si Si3 0.393849 0.251028 0.409648
Si Si4 0.789190 0.580330 0.095299
Si Si5 0.964860 0.447185 0.891314
Si Si6 0.888042 0.351419 0.779109
Si Si7 0.973283 0.085384 0.452360
O O1 0.309388 0.707357 0.050787
O O2 0.333334 0.666668 0.916667
O O3 0.273813 0.470588 0.405478
O O4 0.336693 0.442716 0.323037
O O5 0.333334 0.248802 0.416667
O O6 0.416557 0.243398 0.506426
O O7 0.376945 0.198704 0.342427
O O8 0.439647 0.302215 0.352045
O O9 0.764976 0.590028 0.188691
O O10 0.851360 0.637299 0.089782
O O11 0.946363 0.394879 0.826112
O O12 0.842145 0.372837 0.768602
O O13 0.038873 0.115982 0.485431
#
# Coordination Sequence:
#
# PCOD9579548 Si02
#       7
#    12  18  36  36  36  36  36
#     4   9  19  38  58  81 127 179 205 252 328 365
#     4  12  24  34  64  96 124 156 218 256 316 384
#     4  10  21  40  64  89 129 168 202 256 330 385
#     4  10  22  42  64  91 122 169 209 257 326 391
#     4  10  21  41  67  87 128 166 203 261 330 376
#     4  12  23  38  64  98 125 165 214 275 306 386
#     4   9  20  37  57  83 122 168 209 253 312 366
#
# _framework density 21.977124
#
# number of rings (size 3 to 8) (size 9 to 14) (size 15 to 20)
#    0.000    1.714    3.429    1.714    1.200    0.686 
#    1.543    0.000    0.000    0.000    0.000    0.000 
#    0.000    0.000    0.000    0.000    0.000    0.000 
#
# Total GULP energy -389799.749191 kJ/mol
# GULP energy per Si atom -5568.567846 kJ/mol
# Density = 2.192710 g / cm^3
# Si number density = 21.977124 Si / 1000 Ang^3
#
#
#
# Elastic Constant Matrix: (Units=GPa)
#
#
# Indices 1 2 3 4 5 6 
#
# 1 40.9980 9.0423 16.8044 0.7833 0.0003 0.0000
# 2 9.0423 40.9969 16.8043 -0.7826 -0.0008 -0.0001
# 3 16.8044 16.8043 162.0801 0.0007 -0.0003 0.0000
# 4 0.7833 -0.7826 0.0007 16.6342 0.0000 -0.0006
# 5 0.0003 -0.0008 -0.0003 0.0000 16.6337 0.7828
# 6 0.0000 -0.0001 0.0000 -0.0006 0.7828 15.9775
#
#
#
# Elastic Compliance Matrix: (Units=1/GPa)
#
#
# Indices 1 2 3 4 5 6 
#
# 1 0.026423 -0.004943 -0.002227 -0.001477 -0.000001 0.000000
# 2 -0.004943 0.026423 -0.002227 0.001476 0.000001 0.000000
# 3 -0.002227 -0.002227 0.006632 0.000000 0.000000 0.000000
# 4 -0.001477 0.001476 0.000000 0.060256 0.000000 0.000002
# 5 -0.000001 0.000001 0.000000 0.000000 0.060258 -0.002952
# 6 0.000000 0.000000 0.000000 0.000002 -0.002952 0.062733
#
#
# Mechanical properties :
#
#
# Convention : Reuss Voigt Hill
#
# Bulk Modulus (GPa) = 24.58014 36.59743 30.58878
# Shear Modulus (GPa) = 18.17656 23.27736 20.72696
#
# Velocity S-wave (km/s) = 2.87900 3.25801 3.07435
# Velocity P-wave (km/s) = 4.71807 5.55351 5.15275
#
# Compressibility (1/GPa) = 0.04068325
#
# Stress axis : x y z
#
# Youngs Moduli (GPa) = 37.84631 37.84533 150.79362
#
# Poissons Ratio (x) = 0.18707 0.33581
# Poissons Ratio (y) = 0.18708 0.33583
# Poissons Ratio (z) = 0.08428 0.08428
#
# Static dielectric constant tensor:
#      x y z
#    x 1.870420 0.000000 0.000000 
#    y 0.000000 1.870430 0.000000 
#    z 0.000000 0.000000 1.823270 
# 
# From -- ./inp_files/2489.got.cif
#   From: 2010.05.17/outbox.cif.g08.bks.cpg/sg167_2_cif.got.tgz:2489.got - 2010.05.20 11:09:15.
