data_PCOD9579084
_publ_section_title
;
Structure prediction by ZEFSAII (Michael W. Deem and Ramdas Pophale) SiO2 
 PCOD9579084
Probable space group: R -3 M
;
_chemical_formula_sum "Si O2"
_cell_formula_units_Z 144
_cell_length_a 22.194868
_cell_length_b 22.194868
_cell_length_c 19.788844
_cell_angle_alpha 90.000000
_cell_angle_beta 90.000000
_cell_angle_gamma 120.000000
_cell_volume 8442.210748
_symmetry_space_group_name_H-M "R -3 M"
_symmetry_group_IT_number 166
_symmetry_cell_setting 'hexagonal'
loop_
_space_group_symop_operation_xyz
x,y,z
-y,x-y,z
-x+y,-x,z
x-y,-y,-z
-x,-x+y,-z
y,x,-z
-x,-y,-z
y,-x+y,-z
x-y,x,-z
-x+y,y,z
x,x-y,z
-y,-x,z
2/3+x,1/3+y,1/3+z
2/3-y,1/3+x-y,1/3+z
2/3-x+y,1/3-x,1/3+z
2/3+x-y,1/3-y,1/3-z
2/3-x,1/3-x+y,1/3-z
2/3+y,1/3+x,1/3-z
2/3-x,1/3-y,1/3-z
2/3+y,1/3-x+y,1/3-z
2/3+x-y,1/3+x,1/3-z
2/3-x+y,1/3+y,1/3+z
2/3+x,1/3+x-y,1/3+z
2/3-y,1/3-x,1/3+z
1/3+x,2/3+y,2/3+z
1/3-y,2/3+x-y,2/3+z
1/3-x+y,2/3-x,2/3+z
1/3+x-y,2/3-y,2/3-z
1/3-x,2/3-x+y,2/3-z
1/3+y,2/3+x,2/3-z
1/3-x,2/3-y,2/3-z
1/3+y,2/3-x+y,2/3-z
1/3+x-y,2/3+x,2/3-z
1/3-x+y,2/3+y,2/3+z
1/3+x,2/3+x-y,2/3+z
1/3-y,2/3-x,2/3+z
loop_
_atom_site_type_symbol
_atom_site_label
_atom_site_fract_x
_atom_site_fract_y
_atom_site_fract_z
Si Si1 0.420655 0.137936 0.270865
Si Si2 0.384475 0.123377 0.482938
Si Si3 0.287417 0.210964 0.350353
Si Si4 0.925583 0.208386 0.603027
O O1 0.427605 0.213803 0.267945
O O2 0.465366 0.132033 0.333334
O O3 0.442609 0.113083 0.203548
O O4 0.339809 0.083376 0.290172
O O5 0.407713 0.203857 0.498951
O O6 0.339155 0.104113 0.414611
O O7 0.331702 0.077393 0.541598
O O8 0.262112 0.131056 0.336358
O O9 0.227608 0.226110 0.372859
O O10 0.871867 0.128134 0.585445
O O11 0.895417 0.228750 0.666667
#
# Coordination Sequence:
#
# PCOD9579084 Si02
#       4
#    36  36  36  36
#     4   9  16  28  48  71  98 131 160 192 238 287
#     4   9  17  29  46  66  90 122 156 193 237 278
#     4   9  17  29  46  68  93 120 150 188 235 287
#     4  10  19  30  46  67  91 122 159 198 239 284
#
# _framework density 17.057144000000001
#
# number of rings (size 3 to 8) (size 9 to 14) (size 15 to 20)
#    0.000    2.750    0.000    5.250    0.000    0.000 
#    0.000    1.250    0.000   24.500    0.000    0.000 
#    0.000    6.000    0.000    0.000    0.000    1.500 
#
# Total GULP energy -267246.643990 kJ/mol
# GULP energy per Si atom -5567.638416 kJ/mol
# Density = 1.701832 g / cm^3
# Si number density = 17.057144 Si / 1000 Ang^3
#
#
#
# Elastic Constant Matrix: (Units=GPa)
#
#
# Indices 1 2 3 4 5 6 
#
# 1 114.5404 47.3713 16.6342 16.9148 -0.0026 0.0000
# 2 47.3713 114.5404 16.6342 -16.9148 0.0026 0.0000
# 3 16.6342 16.6342 34.7092 0.0000 0.0000 0.0000
# 4 16.9148 -16.9148 0.0000 20.9678 0.0000 0.0026
# 5 -0.0026 0.0026 0.0000 0.0000 20.9678 16.9148
# 6 0.0000 0.0000 0.0000 0.0026 16.9148 33.5846
#
#
#
# Elastic Compliance Matrix: (Units=1/GPa)
#
#
# Indices 1 2 3 4 5 6 
#
# 1 0.015963 -0.009113 -0.003283 -0.020229 0.000003 0.000000
# 2 -0.009113 0.015963 -0.003283 0.020229 -0.000003 0.000000
# 3 -0.003283 -0.003283 0.031958 0.000000 0.000000 0.000000
# 4 -0.020229 0.020229 0.000000 0.080330 0.000000 -0.000006
# 5 0.000003 -0.000003 0.000000 0.000000 0.080330 -0.040458
# 6 0.000000 0.000000 0.000000 -0.000006 -0.040458 0.050152
#
#
# Mechanical properties :
#
#
# Convention : Reuss Voigt Hill
#
# Bulk Modulus (GPa) = 30.74419 47.22993 38.98706
# Shear Modulus (GPa) = 15.77800 27.31404 21.54602
#
# Velocity S-wave (km/s) = 3.04469 4.00600 3.55796
# Velocity P-wave (km/s) = 5.51576 7.01047 6.30755
#
# Compressibility (1/GPa) = 0.03252647
#
# Stress axis : x y z
#
# Youngs Moduli (GPa) = 62.64304 62.64304 31.29134
#
# Poissons Ratio (x) = 0.57084 0.10274
# Poissons Ratio (y) = 0.57084 0.10274
# Poissons Ratio (z) = 0.20567 0.20567
#
# Static dielectric constant tensor:
#      x y z
#    x 1.617270 0.000000 0.000000 
#    y 0.000000 1.617270 0.000000 
#    z 0.000000 0.000000 1.630550 
# 
# From -- ./inp_files/6590.got.cif
#   From: 2010.05.17/outbox.cif.g08.bks.cpg/sg166_4_cif.got.tgz:6590.got - 2010.05.20 11:04:41.
