data_PCOD9579997
_publ_section_title
;
Structure prediction by ZEFSAII (Michael W. Deem and Ramdas Pophale) SiO2 
 PCOD9579997
Probable space group: P 61
;
_chemical_formula_sum "Si O2"
_cell_formula_units_Z 48
_cell_length_a 12.049643
_cell_length_b 12.049643
_cell_length_c 21.042787
_cell_angle_alpha 90.000000
_cell_angle_beta 90.000000
_cell_angle_gamma 120.000000
_cell_volume 2645.953764
_symmetry_space_group_name_H-M "P 61"
_symmetry_group_IT_number 169
_symmetry_cell_setting 'hexagonal'
loop_
_space_group_symop_operation_xyz
x,y,z
x-y,x,1/6+z
-y,x-y,1/3+z
-x,-y,1/2+z
-x+y,-x,2/3+z
y,-x+y,5/6+z
loop_
_atom_site_type_symbol
_atom_site_label
_atom_site_fract_x
_atom_site_fract_y
_atom_site_fract_z
Si Si1 0.438887 0.365586 0.557080
Si Si2 0.630333 0.160308 0.570628
Si Si3 0.336556 0.532999 0.510770
Si Si4 0.626367 0.726778 0.500986
Si Si5 0.830623 0.185399 0.103983
Si Si6 0.360234 0.385702 0.132061
Si Si7 0.277435 0.639393 0.635304
Si Si8 0.256400 0.363092 0.790737
O O1 0.341150 0.415450 0.543395
O O2 0.545697 0.468880 0.605979
O O3 0.518642 0.372969 0.494140
O O4 0.369249 0.222908 0.583704
O O5 0.736280 0.229759 0.624359
O O6 0.650035 0.268950 0.519507
O O7 0.491479 0.106383 0.602765
O O8 0.633033 0.050311 0.530250
O O9 0.480048 0.621087 0.483257
O O10 0.314232 0.612011 0.566177
O O11 0.734141 0.703058 0.470121
O O12 0.640930 0.859749 0.478623
O O13 0.634946 0.704204 0.576353
O O14 0.742913 0.239425 0.133137
O O15 0.758527 0.032989 0.112664
O O16 0.853560 0.223494 0.030326
#
# Coordination Sequence:
#
# PCOD9579997 Si02
#       8
#     6   6   6   6   6   6   6   6
#     4  10  22  42  64  90 134 172 198 263 331 375
#     4  11  23  37  66  99 128 165 209 271 324 386
#     4  11  22  40  65  97 129 165 210 267 330 381
#     4  11  23  42  66  91 131 169 210 263 324 374
#     4  12  24  40  64 100 122 168 213 268 308 386
#     4  11  22  42  65  94 126 170 209 264 324 383
#     4  11  21  39  62  96 129 160 208 263 326 373
#     4  11  25  38  64  97 131 161 219 259 315 378
#
# _framework density 18.140906000000001
#
# number of rings (size 3 to 8) (size 9 to 14) (size 15 to 20)
#    0.000    1.000    6.250    3.000    5.250    0.000 
#    2.250    0.000    8.250    0.000    0.000    0.000 
#    0.000    0.000    0.000    0.000    0.000    0.000 
#
# Total GULP energy -268118.571398 kJ/mol
# GULP energy per Si atom -5585.803571 kJ/mol
# Density = 1.809962 g / cm^3
# Si number density = 18.140906 Si / 1000 Ang^3
#
#
#
# Elastic Constant Matrix: (Units=GPa)
#
#
# Indices 1 2 3 4 5 6 
#
# 1 97.0398 51.0834 24.6599 0.0000 0.0000 0.0000
# 2 51.0834 97.0398 24.6599 0.0000 0.0000 0.0000
# 3 24.6599 24.6599 56.7942 0.0000 0.0000 0.0000
# 4 0.0000 0.0000 0.0000 23.8249 0.0000 0.0000
# 5 0.0000 0.0000 0.0000 0.0000 23.8249 0.0000
# 6 0.0000 0.0000 0.0000 0.0000 0.0000 22.9782
#
#
#
# Elastic Compliance Matrix: (Units=1/GPa)
#
#
# Indices 1 2 3 4 5 6 
#
# 1 0.014826 -0.006934 -0.003427 0.000000 0.000000 0.000000
# 2 -0.006934 0.014826 -0.003427 0.000000 0.000000 0.000000
# 3 -0.003427 -0.003427 0.020583 0.000000 0.000000 0.000000
# 4 0.000000 0.000000 0.000000 0.041973 0.000000 0.000000
# 5 0.000000 0.000000 0.000000 0.000000 0.041973 0.000000
# 6 0.000000 0.000000 0.000000 0.000000 0.000000 0.043520
#
#
# Mechanical properties :
#
#
# Convention : Reuss Voigt Hill
#
# Bulk Modulus (GPa) = 44.12967 50.18667 47.15817
# Shear Modulus (GPa) = 23.49309 24.15697 23.82503
#
# Velocity S-wave (km/s) = 3.60256 3.65311 3.62792
# Velocity P-wave (km/s) = 6.45627 6.74675 6.60311
#
# Compressibility (1/GPa) = 0.02266049
#
# Stress axis : x y z
#
# Youngs Moduli (GPa) = 67.44934 67.44934 48.58328
#
# Poissons Ratio (x) = 0.46768 0.16648
# Poissons Ratio (y) = 0.46768 0.16648
# Poissons Ratio (z) = 0.23113 0.23113
#
# Static dielectric constant tensor:
#      x y z
#    x 1.616900 0.000000 0.000000 
#    y 0.000000 1.616900 0.000000 
#    z 0.000000 0.000000 1.637570 
# 
# From -- ./inp_files/1548.got.cif
#   From: 2010.05.17/outbox.cif.g08.bks.cpg/sg169_cif.got.tgz:1548.got - 2010.05.20 11:12:54.
