data_PCOD9579111
_publ_section_title
;
Structure prediction by ZEFSAII (Michael W. Deem and Ramdas Pophale) SiO2 
 PCOD9579111
Probable space group: R -3 M
;
_chemical_formula_sum "Si O2"
_cell_formula_units_Z 162
_cell_length_a 20.430636
_cell_length_b 20.430636
_cell_length_c 28.849904
_cell_angle_alpha 90.000000
_cell_angle_beta 90.000000
_cell_angle_gamma 120.000000
_cell_volume 10428.906568
_symmetry_space_group_name_H-M "R -3 M"
_symmetry_group_IT_number 166
_symmetry_cell_setting 'hexagonal'
loop_
_space_group_symop_operation_xyz
x,y,z
-y,x-y,z
-x+y,-x,z
x-y,-y,-z
-x,-x+y,-z
y,x,-z
-x,-y,-z
y,-x+y,-z
x-y,x,-z
-x+y,y,z
x,x-y,z
-y,-x,z
2/3+x,1/3+y,1/3+z
2/3-y,1/3+x-y,1/3+z
2/3-x+y,1/3-x,1/3+z
2/3+x-y,1/3-y,1/3-z
2/3-x,1/3-x+y,1/3-z
2/3+y,1/3+x,1/3-z
2/3-x,1/3-y,1/3-z
2/3+y,1/3-x+y,1/3-z
2/3+x-y,1/3+x,1/3-z
2/3-x+y,1/3+y,1/3+z
2/3+x,1/3+x-y,1/3+z
2/3-y,1/3-x,1/3+z
1/3+x,2/3+y,2/3+z
1/3-y,2/3+x-y,2/3+z
1/3-x+y,2/3-x,2/3+z
1/3+x-y,2/3-y,2/3-z
1/3-x,2/3-x+y,2/3-z
1/3+y,2/3+x,2/3-z
1/3-x,2/3-y,2/3-z
1/3+y,2/3-x+y,2/3-z
1/3+x-y,2/3+x,2/3-z
1/3-x+y,2/3+y,2/3+z
1/3+x,2/3+x-y,2/3+z
1/3-y,2/3-x,2/3+z
loop_
_atom_site_type_symbol
_atom_site_label
_atom_site_fract_x
_atom_site_fract_y
_atom_site_fract_z
Si Si1 0.100817 0.748359 0.123960
Si Si2 0.091143 0.468633 0.877120
Si Si3 0.774730 0.225271 0.154054
Si Si4 0.333334 0.512538 0.166667
Si Si5 0.848687 0.697373 0.087039
Si Si6 0.970328 0.662980 0.051317
O O1 0.166908 0.833093 0.114740
O O2 0.060182 0.754264 0.171121
O O3 0.142491 0.698892 0.129728
O O4 0.040877 0.715807 0.083637
O O5 0.089441 0.544721 0.884877
O O6 0.173204 0.486242 0.858995
O O7 0.069271 0.418356 0.923349
O O8 0.812558 0.187443 0.121946
O O9 0.784402 0.215599 0.208651
O O10 0.260602 0.521203 0.179705
O O11 0.911137 0.692842 0.056176
O O12 0.000000 0.665348 0.000000
#
# Coordination Sequence:
#
# PCOD9579111 Si02
#       6
#    36  36  18  18  18  36
#     4  10  19  32  51  74 101 133 172 216 256 303
#     4  10  19  34  53  75 100 131 172 214 260 309
#     4   9  16  32  56  72  95 133 167 218 259 301
#     4  10  19  32  52  75 102 132 170 214 258 305
#     4   9  18  32  50  74 103 133 175 209 260 312
#     4  11  21  32  50  76 108 137 168 210 265 315
#
# _framework density 15.533747
#
# number of rings (size 3 to 8) (size 9 to 14) (size 15 to 20)
#    0.000    2.000    4.444    0.111    1.556    0.444 
#    0.667    0.000    0.000    0.000    0.000    0.000 
#    0.000    1.778    0.000    0.000    0.000    0.000 
#
# Total GULP energy -300619.496963 kJ/mol
# GULP energy per Si atom -5567.027722 kJ/mol
# Density = 1.549839 g / cm^3
# Si number density = 15.533747 Si / 1000 Ang^3
#
#
#
# Elastic Constant Matrix: (Units=GPa)
#
#
# Indices 1 2 3 4 5 6 
#
# 1 99.7749 55.5983 49.2974 -0.7676 0.0000 0.0000
# 2 55.5983 99.7749 49.2974 0.7676 0.0000 0.0000
# 3 49.2974 49.2974 99.6155 0.0000 0.0000 0.0000
# 4 -0.7676 0.7676 0.0000 15.4889 0.0000 0.0000
# 5 0.0000 0.0000 0.0000 0.0000 15.4889 -0.7676
# 6 0.0000 0.0000 0.0000 0.0000 -0.7676 22.0883
#
#
#
# Elastic Compliance Matrix: (Units=1/GPa)
#
#
# Indices 1 2 3 4 5 6 
#
# 1 0.016029 -0.006646 -0.004643 0.001124 0.000000 0.000000
# 2 -0.006646 0.016029 -0.004643 -0.001124 0.000000 0.000000
# 3 -0.004643 -0.004643 0.014634 0.000000 0.000000 0.000000
# 4 0.001124 -0.001124 0.000000 0.064674 0.000000 0.000000
# 5 0.000000 0.000000 0.000000 0.000000 0.064674 0.002247
# 6 0.000000 0.000000 0.000000 0.000000 0.002247 0.045351
#
#
# Mechanical properties :
#
#
# Convention : Reuss Voigt Hill
#
# Bulk Modulus (GPa) = 67.44681 67.50573 67.47627
# Shear Modulus (GPa) = 19.36492 20.27801 19.82147
#
# Velocity S-wave (km/s) = 3.53460 3.61697 3.57603
# Velocity P-wave (km/s) = 7.75704 7.80994 7.78354
#
# Compressibility (1/GPa) = 0.01482650
#
# Stress axis : x y z
#
# Youngs Moduli (GPa) = 62.38689 62.38689 68.33294
#
# Poissons Ratio (x) = 0.41465 0.31728
# Poissons Ratio (y) = 0.41465 0.31728
# Poissons Ratio (z) = 0.28968 0.28968
#
# Static dielectric constant tensor:
#      x y z
#    x 1.535730 0.000000 0.000000 
#    y 0.000000 1.535730 0.000000 
#    z 0.000000 0.000000 1.493900 
# 
# From -- ./inp_files/8238.got.cif
#   From: 2010.05.17/outbox.cif.g08.bks.cpg/sg166_5_cif.got.tgz:8238.got - 2010.05.20 11:04:41.
