data_PCOD9579231
_publ_section_title
;
Structure prediction by ZEFSAII (Michael W. Deem and Ramdas Pophale) SiO2 
 PCOD9579231
Probable space group: R -3 M
;
_chemical_formula_sum "Si O2"
_cell_formula_units_Z 144
_cell_length_a 29.409025
_cell_length_b 29.409025
_cell_length_c 9.557363
_cell_angle_alpha 90.000000
_cell_angle_beta 90.000000
_cell_angle_gamma 120.000000
_cell_volume 7158.630824
_symmetry_space_group_name_H-M "R -3 M"
_symmetry_group_IT_number 166
_symmetry_cell_setting 'hexagonal'
loop_
_space_group_symop_operation_xyz
x,y,z
-y,x-y,z
-x+y,-x,z
x-y,-y,-z
-x,-x+y,-z
y,x,-z
-x,-y,-z
y,-x+y,-z
x-y,x,-z
-x+y,y,z
x,x-y,z
-y,-x,z
2/3+x,1/3+y,1/3+z
2/3-y,1/3+x-y,1/3+z
2/3-x+y,1/3-x,1/3+z
2/3+x-y,1/3-y,1/3-z
2/3-x,1/3-x+y,1/3-z
2/3+y,1/3+x,1/3-z
2/3-x,1/3-y,1/3-z
2/3+y,1/3-x+y,1/3-z
2/3+x-y,1/3+x,1/3-z
2/3-x+y,1/3+y,1/3+z
2/3+x,1/3+x-y,1/3+z
2/3-y,1/3-x,1/3+z
1/3+x,2/3+y,2/3+z
1/3-y,2/3+x-y,2/3+z
1/3-x+y,2/3-x,2/3+z
1/3+x-y,2/3-y,2/3-z
1/3-x,2/3-x+y,2/3-z
1/3+y,2/3+x,2/3-z
1/3-x,2/3-y,2/3-z
1/3+y,2/3-x+y,2/3-z
1/3+x-y,2/3+x,2/3-z
1/3-x+y,2/3+y,2/3+z
1/3+x,2/3+x-y,2/3+z
1/3-y,2/3-x,2/3+z
loop_
_atom_site_type_symbol
_atom_site_label
_atom_site_fract_x
_atom_site_fract_y
_atom_site_fract_z
Si Si1 0.955623 0.811093 0.889671
Si Si2 0.303624 0.803751 0.019060
Si Si3 0.966390 0.401143 0.135714
Si Si4 0.367127 0.426162 0.311318
O O1 0.909623 0.819246 0.950434
O O2 0.930058 0.752792 0.826052
O O3 0.986867 0.851707 0.766137
O O4 0.000000 0.819841 0.000000
O O5 0.253351 0.746649 0.015381
O O6 0.333334 0.816376 0.166667
O O7 0.286365 0.847932 0.995332
O O8 0.003035 0.418692 0.271843
O O9 0.944710 0.339992 0.095074
O O10 0.000000 0.433599 0.000000
O O11 0.333334 0.408911 0.166667
#
# Coordination Sequence:
#
# PCOD9579231 Si02
#       4
#    36  36  36  36
#     4  11  24  41  61  85 115 155 197 239 293 352
#     4  10  20  37  61  86 113 148 191 244 305 358
#     4   9  18  32  54  83 116 156 196 232 273 328
#     4   8  16  30  49  77 112 150 186 222 267 323
#
# _framework density 20.115577999999999
#
# number of rings (size 3 to 8) (size 9 to 14) (size 15 to 20)
#    0.000    2.500    0.000    3.000    0.000    6.500 
#    0.000    3.750    0.000   17.500    0.000    0.000 
#    0.000    0.000    0.000    0.000    0.000    0.000 
#
# Total GULP energy -267878.575905 kJ/mol
# GULP energy per Si atom -5580.803665 kJ/mol
# Density = 2.006979 g / cm^3
# Si number density = 20.115578 Si / 1000 Ang^3
#
#
#
# Elastic Constant Matrix: (Units=GPa)
#
#
# Indices 1 2 3 4 5 6 
#
# 1 77.6799 64.7938 10.8128 1.1501 -0.0115 0.0054
# 2 64.7938 77.6846 10.8071 -1.1579 -0.0003 -0.0022
# 3 10.8128 10.8071 41.2018 -0.0068 -0.0380 0.0161
# 4 1.1501 -1.1579 -0.0068 15.3273 -0.0035 0.0041
# 5 -0.0115 -0.0003 -0.0380 -0.0035 15.3098 1.1700
# 6 0.0054 -0.0022 0.0161 0.0041 1.1700 6.4526
#
#
#
# Elastic Compliance Matrix: (Units=1/GPa)
#
#
# Indices 1 2 3 4 5 6 
#
# 1 0.042981 -0.035670 -0.001925 -0.005921 0.000029 -0.000045
# 2 -0.035670 0.042977 -0.001911 0.005922 -0.000033 0.000052
# 3 -0.001925 -0.001911 0.025277 0.000011 0.000067 -0.000074
# 4 -0.005921 0.005922 0.000011 0.066135 0.000013 -0.000037
# 5 0.000029 -0.000033 0.000067 0.000013 0.066235 -0.012010
# 6 -0.000045 0.000052 -0.000074 -0.000037 -0.012010 0.157154
#
#
# Mechanical properties :
#
#
# Convention : Reuss Voigt Hill
#
# Bulk Modulus (GPa) = 31.03142 41.04374 36.03758
# Shear Modulus (GPa) = 10.19341 14.76146 12.47744
#
# Velocity S-wave (km/s) = 2.25354 2.71187 2.49326
# Velocity P-wave (km/s) = 4.71501 5.50036 5.12275
#
# Compressibility (1/GPa) = 0.03222541
#
# Stress axis : x y z
#
# Youngs Moduli (GPa) = 23.26585 23.26803 39.56128
#
# Poissons Ratio (x) = 0.82996 0.07614
# Poissons Ratio (y) = 0.82989 0.07560
# Poissons Ratio (z) = 0.04478 0.04446
#
# Static dielectric constant tensor:
#      x y z
#    x 1.716130 0.000000 -0.000010 
#    y 0.000000 1.716130 0.000000 
#    z -0.000010 0.000000 1.754500 
# 
# From -- ./inp_files/1758.got.cif
#   From: 2010.05.17/outbox.cif.g08.bks.cpg/sg166_1_cif.got.tgz:1758.got - 2010.05.20 11:04:41.
