data_PCOD9579596
_publ_section_title
;
Structure prediction by ZEFSAII (Michael W. Deem and Ramdas Pophale) SiO2 
 PCOD9579596
Probable space group: R -3 C 
;
_chemical_formula_sum "Si O2"
_cell_formula_units_Z 102
_cell_length_a 18.866899
_cell_length_b 18.866899
_cell_length_c 16.627195
_cell_angle_alpha 90.000000
_cell_angle_beta 90.000000
_cell_angle_gamma 120.000000
_cell_volume 5125.670340
_symmetry_space_group_name_H-M "R -3 C "
_symmetry_group_IT_number 167
_symmetry_cell_setting 'hexagonal'
loop_
_space_group_symop_operation_xyz
x,y,z
-y,x-y,z
-x+y,-x,z
x-y,-y,1/2-z
-x,-x+y,1/2-z
y,x,1/2-z
-x,-y,-z
y,-x+y,-z
x-y,x,-z
-x+y,y,1/2+z
x,x-y,1/2+z
-y,-x,1/2+z
2/3+x,1/3+y,1/3+z
2/3-y,1/3+x-y,1/3+z
2/3-x+y,1/3-x,1/3+z
2/3+x-y,1/3-y,5/6-z
2/3-x,1/3-x+y,5/6-z
2/3+y,1/3+x,5/6-z
2/3-x,1/3-y,1/3-z
2/3+y,1/3-x+y,1/3-z
2/3+x-y,1/3+x,1/3-z
2/3-x+y,1/3+y,5/6+z
2/3+x,1/3+x-y,5/6+z
2/3-y,1/3-x,5/6+z
1/3+x,2/3+y,2/3+z
1/3-y,2/3+x-y,2/3+z
1/3-x+y,2/3-x,2/3+z
1/3+x-y,2/3-y,1/6-z
1/3-x,2/3-x+y,1/6-z
1/3+y,2/3+x,1/6-z
1/3-x,2/3-y,2/3-z
1/3+y,2/3-x+y,2/3-z
1/3+x-y,2/3+x,2/3-z
1/3-x+y,2/3+y,1/6+z
1/3+x,2/3+x-y,1/6+z
1/3-y,2/3-x,1/6+z
loop_
_atom_site_type_symbol
_atom_site_label
_atom_site_fract_x
_atom_site_fract_y
_atom_site_fract_z
Si Si1 0.535404 0.387275 0.946454
Si Si2 0.079083 0.666667 0.416667
Si Si3 0.000000 0.000000 0.653411
Si Si4 0.809640 0.088402 0.984932
O O1 0.612551 0.373544 0.958229
O O2 0.466598 0.311346 0.896097
O O3 0.553248 0.464658 0.893712
O O4 0.493542 0.388472 0.030414
O O5 0.058782 0.720235 0.477416
O O6 0.000000 0.000000 0.750000
O O7 0.821566 0.154899 0.916667
#
# Coordination Sequence:
#
# PCOD9579596 Si02
#       4
#    36  18  12  36
#     4  11  22  42  65  95 132 173 224 276 330 395
#     4  10  22  42  62  96 132 176 220 272 326 410
#     4  12  24  43  68 100 129 175 227 280 336 385
#     4  10  23  39  63  94 130 170 222 267 337 394
#
# _framework density 19.899837999999999
#
# number of rings (size 3 to 8) (size 9 to 14) (size 15 to 20)
#    0.000    1.412    1.765    3.176    2.471    1.412 
#    0.000    1.765    0.000    0.000    0.000    0.000 
#    0.000    0.000    0.000    0.000    0.000    0.000 
#
# Total GULP energy -189687.970239 kJ/mol
# GULP energy per Si atom -5579.057948 kJ/mol
# Density = 1.985454 g / cm^3
# Si number density = 19.899838 Si / 1000 Ang^3
#
#
#
# Elastic Constant Matrix: (Units=GPa)
#
#
# Indices 1 2 3 4 5 6 
#
# 1 41.8925 55.1123 24.0180 -3.0423 -0.0016 0.0000
# 2 55.1123 41.8925 24.0180 3.0423 0.0016 0.0000
# 3 24.0180 24.0180 103.1784 0.0000 0.0000 0.0000
# 4 -3.0423 3.0423 0.0000 25.1535 0.0000 0.0016
# 5 -0.0016 0.0016 0.0000 0.0000 25.1535 -3.0423
# 6 0.0000 0.0000 0.0000 0.0016 -3.0423 -6.6099
#
#
#
# Elastic Compliance Matrix: (Units=1/GPa)
#
#
# Indices 1 2 3 4 5 6 
#
# 1 -0.030001 0.041653 -0.002712 -0.008667 -0.000005 0.000000
# 2 0.041653 -0.030001 -0.002712 0.008667 0.000005 0.000000
# 3 -0.002712 -0.002712 0.010955 0.000000 0.000000 0.000000
# 4 -0.008667 0.008667 0.000000 0.037660 0.000000 0.000009
# 5 -0.000005 0.000005 0.000000 0.000000 0.037660 -0.017333
# 6 0.000000 0.000000 0.000000 0.000009 -0.017333 -0.143309
#
#
# Mechanical properties :
#
#
# Convention : Reuss Voigt Hill
#
# Bulk Modulus (GPa) = 42.71835 43.69554 43.20695
# Shear Modulus (GPa) = -27.51899 14.32706 -6.59596
#
# Velocity S-wave (km/s) = -3.72274 2.68612 -1.82257
# Velocity P-wave (km/s) = 1.74210 5.62367 4.16297
#
# Compressibility (1/GPa) = 0.02340914
#
# Stress axis : x y z
#
# Youngs Moduli (GPa) = -33.33176 -33.33176 91.28495
#
# Poissons Ratio (x) = 1.38838 0.24760
# Poissons Ratio (y) = 1.38838 0.24760
# Poissons Ratio (z) = -0.09041 -0.09041
#
# Static dielectric constant tensor:
#      x y z
#    x 1.747260 0.000000 0.000000 
#    y 0.000000 1.747260 0.000000 
#    z 0.000000 0.000000 1.722630 
# 
# From -- ./inp_files/2089.got.cif
#   From: 2010.05.17/outbox.cif.g08.bks.cpg/sg167_2_cif.got.tgz:2089.got - 2010.05.20 11:09:15.
