data_PCOD9579859
_publ_section_title
;
Structure prediction by ZEFSAII (Michael W. Deem and Ramdas Pophale) SiO2 
 PCOD9579859
Probable space group: P 61
;
_chemical_formula_sum "Si O2"
_cell_formula_units_Z 36
_cell_length_a 14.574350
_cell_length_b 14.574350
_cell_length_c 7.687474
_cell_angle_alpha 90.000000
_cell_angle_beta 90.000000
_cell_angle_gamma 120.000000
_cell_volume 1414.140894
_symmetry_space_group_name_H-M "P 61"
_symmetry_group_IT_number 169
_symmetry_cell_setting 'hexagonal'
loop_
_space_group_symop_operation_xyz
x,y,z
x-y,x,1/6+z
-y,x-y,1/3+z
-x,-y,1/2+z
-x+y,-x,2/3+z
y,-x+y,5/6+z
loop_
_atom_site_type_symbol
_atom_site_label
_atom_site_fract_x
_atom_site_fract_y
_atom_site_fract_z
Si Si1 0.819531 0.812233 0.194320
Si Si2 0.354717 0.745865 0.930188
Si Si3 0.077536 0.870517 0.872381
Si Si4 0.670839 0.081170 0.985961
Si Si5 0.980278 0.496228 0.623826
Si Si6 0.429616 0.160357 0.885867
O O1 0.926788 0.811149 0.213597
O O2 0.813691 0.866437 0.373456
O O3 0.711095 0.702938 0.183578
O O4 0.382313 0.673650 0.798871
O O5 0.439320 0.871460 0.904870
O O6 0.247403 0.725414 0.837156
O O7 0.111893 0.784717 0.843039
O O8 0.952751 0.820597 0.858963
O O9 0.574077 0.065712 0.107372
O O10 0.771939 0.190329 0.056406
O O11 0.611873 0.051468 0.800338
O O12 0.062314 0.619092 0.666215
#
# Coordination Sequence:
#
# PCOD9579859 Si02
#       6
#     6   6   6   6   6   6
#     4   9  17  34  62  95 128 177 227 287 353 443
#     4  11  26  48  71 109 150 195 256 323 388 465
#     4   9  16  29  55  90 124 174 234 293 362 448
#     4  10  21  38  66 100 140 188 245 305 371 442
#     4  11  23  42  69 103 141 197 249 313 378 452
#     4  10  19  39  69  99 133 187 251 305 378 450
#
# _framework density 25.457149999999999
#
# number of rings (size 3 to 8) (size 9 to 14) (size 15 to 20)
#    0.000    2.000    0.000    7.000    2.333    0.000 
#    3.000    0.000    0.000   50.000    0.000    0.000 
#    0.000    0.000    0.000    0.000    0.000    0.000 
#
# Total GULP energy -201005.789396 kJ/mol
# GULP energy per Si atom -5583.494150 kJ/mol
# Density = 2.539921 g / cm^3
# Si number density = 25.457150 Si / 1000 Ang^3
#
#
#
# Elastic Constant Matrix: (Units=GPa)
#
#
# Indices 1 2 3 4 5 6 
#
# 1 98.9767 70.0820 26.3646 0.0000 0.0000 0.0000
# 2 70.0820 98.9767 26.3646 0.0000 0.0000 0.0000
# 3 26.3646 26.3646 94.7877 0.0000 0.0000 0.0000
# 4 0.0000 0.0000 0.0000 10.7831 0.0000 0.0000
# 5 0.0000 0.0000 0.0000 0.0000 10.7831 0.0000
# 6 0.0000 0.0000 0.0000 0.0000 0.0000 14.4474
#
#
#
# Elastic Compliance Matrix: (Units=1/GPa)
#
#
# Indices 1 2 3 4 5 6 
#
# 1 0.020543 -0.014066 -0.001802 0.000000 0.000000 0.000000
# 2 -0.014066 0.020543 -0.001802 0.000000 0.000000 0.000000
# 3 -0.001802 -0.001802 0.011552 0.000000 0.000000 0.000000
# 4 0.000000 0.000000 0.000000 0.092738 0.000000 0.000000
# 5 0.000000 0.000000 0.000000 0.000000 0.092738 0.000000
# 6 0.000000 0.000000 0.000000 0.000000 0.000000 0.069217
#
#
# Mechanical properties :
#
#
# Convention : Reuss Voigt Hill
#
# Bulk Modulus (GPa) = 57.80375 59.81818 58.81096
# Shear Modulus (GPa) = 14.34991 18.53137 16.44064
#
# Velocity S-wave (km/s) = 2.37679 2.70097 2.54405
# Velocity P-wave (km/s) = 5.50343 5.76850 5.63752
#
# Compressibility (1/GPa) = 0.01729992
#
# Stress axis : x y z
#
# Youngs Moduli (GPa) = 48.67916 48.67916 86.56463
#
# Poissons Ratio (x) = 0.68471 0.15595
# Poissons Ratio (y) = 0.68471 0.15595
# Poissons Ratio (z) = 0.08770 0.08770
#
# Static dielectric constant tensor:
#      x y z
#    x 2.022510 0.000000 0.000000 
#    y 0.000000 2.022510 0.000000 
#    z 0.000000 0.000000 2.299000 
# 
# From -- ./inp_files/588.got.cif
#   From: 2010.05.17/outbox.cif.g08.bks.cpg/sg169_cif.got.tgz:588.got - 2010.05.20 11:12:54.
