data_PCOD9579599
_publ_section_title
;
Structure prediction by ZEFSAII (Michael W. Deem and Ramdas Pophale) SiO2 
 PCOD9579599
Probable space group: R -3 C 
;
_chemical_formula_sum "Si O2"
_cell_formula_units_Z 144
_cell_length_a 21.006382
_cell_length_b 21.006382
_cell_length_c 14.682550
_cell_angle_alpha 90.000000
_cell_angle_beta 90.000000
_cell_angle_gamma 120.000000
_cell_volume 5610.927251
_symmetry_space_group_name_H-M "R -3 C "
_symmetry_group_IT_number 167
_symmetry_cell_setting 'hexagonal'
loop_
_space_group_symop_operation_xyz
x,y,z
-y,x-y,z
-x+y,-x,z
x-y,-y,1/2-z
-x,-x+y,1/2-z
y,x,1/2-z
-x,-y,-z
y,-x+y,-z
x-y,x,-z
-x+y,y,1/2+z
x,x-y,1/2+z
-y,-x,1/2+z
2/3+x,1/3+y,1/3+z
2/3-y,1/3+x-y,1/3+z
2/3-x+y,1/3-x,1/3+z
2/3+x-y,1/3-y,5/6-z
2/3-x,1/3-x+y,5/6-z
2/3+y,1/3+x,5/6-z
2/3-x,1/3-y,1/3-z
2/3+y,1/3-x+y,1/3-z
2/3+x-y,1/3+x,1/3-z
2/3-x+y,1/3+y,5/6+z
2/3+x,1/3+x-y,5/6+z
2/3-y,1/3-x,5/6+z
1/3+x,2/3+y,2/3+z
1/3-y,2/3+x-y,2/3+z
1/3-x+y,2/3-x,2/3+z
1/3+x-y,2/3-y,1/6-z
1/3-x,2/3-x+y,1/6-z
1/3+y,2/3+x,1/6-z
1/3-x,2/3-y,2/3-z
1/3+y,2/3-x+y,2/3-z
1/3+x-y,2/3+x,2/3-z
1/3-x+y,2/3+y,1/6+z
1/3+x,2/3+x-y,1/6+z
1/3-y,2/3-x,1/6+z
loop_
_atom_site_type_symbol
_atom_site_label
_atom_site_fract_x
_atom_site_fract_y
_atom_site_fract_z
Si Si1 0.899508 0.064113 0.311754
Si Si2 0.187239 0.644869 0.618918
Si Si3 0.330803 0.926262 0.308741
Si Si4 0.806765 0.733975 0.188590
O O1 0.976333 0.103297 0.361944
O O2 0.825283 0.033671 0.372906
O O3 0.890212 0.118171 0.243638
O O4 0.892724 0.000000 0.250000
O O5 0.193795 0.574008 0.646301
O O6 0.103766 0.616626 0.579772
O O7 0.333334 0.942797 0.416667
O O8 0.243005 0.889806 0.293069
O O9 0.374896 0.000000 0.250000
O O10 0.760953 0.760953 0.250000
#
# Coordination Sequence:
#
# PCOD9579599 Si02
#       4
#    36  36  36  36
#     4  10  22  42  65  99 140 189 238 294 376 429
#     4  11  23  40  68 103 136 180 246 304 358 430
#     4  10  23  43  69 102 145 193 248 295 370 441
#     4   9  21  44  65  95 147 190 233 300 368 434
#
# _framework density 25.664207999999999
#
# number of rings (size 3 to 8) (size 9 to 14) (size 15 to 20)
#    0.000    2.000    0.000    1.750    3.500    4.000 
#    4.500    6.250    0.000    0.000    0.000    0.000 
#    0.000    0.000    0.000    0.000    0.000    0.000 
#
# Total GULP energy -267480.832389 kJ/mol
# GULP energy per Si atom -5572.517341 kJ/mol
# Density = 2.560579 g / cm^3
# Si number density = 25.664208 Si / 1000 Ang^3
#
#
#
# Elastic Constant Matrix: (Units=GPa)
#
#
# Indices 1 2 3 4 5 6 
#
# 1 74.4547 63.5917 13.2919 -31.6085 0.0001 0.0000
# 2 63.5917 74.4547 13.2919 31.6085 -0.0001 0.0000
# 3 13.2919 13.2919 59.1879 0.0000 0.0000 0.0000
# 4 -31.6085 31.6085 0.0000 2.4685 0.0000 -0.0001
# 5 0.0001 -0.0001 0.0000 0.0000 2.4685 -31.6085
# 6 0.0000 0.0000 0.0000 -0.0001 -31.6085 5.4315
#
#
#
# Elastic Compliance Matrix: (Units=1/GPa)
#
#
# Indices 1 2 3 4 5 6 
#
# 1 0.003160 0.004412 -0.001700 -0.016034 0.000000 0.000000
# 2 0.004412 0.003160 -0.001700 0.016034 0.000000 0.000000
# 3 -0.001700 -0.001700 0.017659 0.000000 0.000000 0.000000
# 4 -0.016034 0.016034 0.000000 -0.005510 0.000000 0.000000
# 5 0.000000 0.000000 0.000000 0.000000 -0.005510 -0.032067
# 6 0.000000 0.000000 0.000000 0.000000 -0.032067 -0.002504
#
#
# Mechanical properties :
#
#
# Convention : Reuss Voigt Hill
#
# Bulk Modulus (GPa) = 38.46076 43.16093 40.81084
# Shear Modulus (GPa) = 292.43470 9.93513 151.18491
#
# Velocity S-wave (km/s) = 10.68615 1.96967 7.68354
# Velocity P-wave (km/s) = 12.93357 4.69328 9.72893
#
# Compressibility (1/GPa) = 0.02600053
#
# Stress axis : x y z
#
# Youngs Moduli (GPa) = 316.49544 316.49544 56.62821
#
# Poissons Ratio (x) = -1.39630 0.09629
# Poissons Ratio (y) = -1.39630 0.09629
# Poissons Ratio (z) = 0.53814 0.53814
#
# Static dielectric constant tensor:
#      x y z
#    x 2.042640 0.000000 0.000000 
#    y 0.000000 2.042640 0.000000 
#    z 0.000000 0.000000 2.245060 
# 
# From -- ./inp_files/3277.got.cif
#   From: 2010.05.17/outbox.cif.g08.bks.cpg/sg167_2_cif.got.tgz:3277.got - 2010.05.20 11:09:15.
