data_PCOD9579264
_publ_section_title
;
Structure prediction by ZEFSAII (Michael W. Deem and Ramdas Pophale) SiO2 
 PCOD9579264
Probable space group: R -3 M
;
_chemical_formula_sum "Si O2"
_cell_formula_units_Z 216
_cell_length_a 22.806081
_cell_length_b 22.806081
_cell_length_c 24.462137
_cell_angle_alpha 90.000000
_cell_angle_beta 90.000000
_cell_angle_gamma 120.000000
_cell_volume 11018.598306
_symmetry_space_group_name_H-M "R -3 M"
_symmetry_group_IT_number 166
_symmetry_cell_setting 'hexagonal'
loop_
_space_group_symop_operation_xyz
x,y,z
-y,x-y,z
-x+y,-x,z
x-y,-y,-z
-x,-x+y,-z
y,x,-z
-x,-y,-z
y,-x+y,-z
x-y,x,-z
-x+y,y,z
x,x-y,z
-y,-x,z
2/3+x,1/3+y,1/3+z
2/3-y,1/3+x-y,1/3+z
2/3-x+y,1/3-x,1/3+z
2/3+x-y,1/3-y,1/3-z
2/3-x,1/3-x+y,1/3-z
2/3+y,1/3+x,1/3-z
2/3-x,1/3-y,1/3-z
2/3+y,1/3-x+y,1/3-z
2/3+x-y,1/3+x,1/3-z
2/3-x+y,1/3+y,1/3+z
2/3+x,1/3+x-y,1/3+z
2/3-y,1/3-x,1/3+z
1/3+x,2/3+y,2/3+z
1/3-y,2/3+x-y,2/3+z
1/3-x+y,2/3-x,2/3+z
1/3+x-y,2/3-y,2/3-z
1/3-x,2/3-x+y,2/3-z
1/3+y,2/3+x,2/3-z
1/3-x,2/3-y,2/3-z
1/3+y,2/3-x+y,2/3-z
1/3+x-y,2/3+x,2/3-z
1/3-x+y,2/3+y,2/3+z
1/3+x,2/3+x-y,2/3+z
1/3-y,2/3-x,2/3+z
loop_
_atom_site_type_symbol
_atom_site_label
_atom_site_fract_x
_atom_site_fract_y
_atom_site_fract_z
Si Si1 0.332259 0.526484 0.003140
Si Si2 0.041879 0.456102 0.611006
Si Si3 0.818594 0.769900 0.226804
Si Si4 0.816959 0.775928 0.555349
Si Si5 0.218732 0.301807 0.184752
Si Si6 0.924677 0.206498 0.933773
O O1 0.270421 0.540841 0.011406
O O2 0.403424 0.596577 0.996468
O O3 0.338908 0.488416 0.056383
O O4 0.314141 0.480240 0.948986
O O5 0.070637 0.535319 0.603760
O O6 0.098034 0.435671 0.601283
O O7 0.016186 0.438993 0.674015
O O8 0.976308 0.417565 0.573813
O O9 0.891558 0.783115 0.205991
O O10 0.768942 0.783526 0.190082
O O11 0.809201 0.809201 0.500000
O O12 0.887492 0.774984 0.551804
O O13 0.758081 0.696843 0.554989
O O14 0.145058 0.290115 0.198677
O O15 0.233400 0.324989 0.121369
O O16 0.874564 0.125436 0.930918
#
# Coordination Sequence:
#
# PCOD9579264 Si02
#       6
#    36  36  36  36  36  36
#     4  10  21  38  59  81 109 146 190 236 280 330
#     4   9  19  34  54  82 109 139 181 227 276 325
#     4  10  22  37  56  82 112 147 184 229 280 332
#     4  10  22  35  53  80 109 146 185 229 279 327
#     4  10  22  37  55  81 113 148 185 226 278 336
#     4   9  19  35  55  77 106 144 181 220 270 330
#
# _framework density 19.603218999999999
#
# number of rings (size 3 to 8) (size 9 to 14) (size 15 to 20)
#    0.000    2.333    0.000    1.167    4.667    2.667 
#    0.000    4.167    0.000    3.333    0.000    2.333 
#    0.000    0.000    0.000    0.000    0.000    0.000 
#
# Total GULP energy -401566.198115 kJ/mol
# GULP energy per Si atom -5577.308307 kJ/mol
# Density = 1.955860 g / cm^3
# Si number density = 19.603219 Si / 1000 Ang^3
#
#
#
# Elastic Constant Matrix: (Units=GPa)
#
#
# Indices 1 2 3 4 5 6 
#
# 1 74.5240 28.6901 13.6793 -0.9346 0.0000 0.0000
# 2 28.6901 74.5240 13.6793 0.9346 0.0000 0.0000
# 3 13.6793 13.6793 61.5973 0.0000 0.0000 0.0000
# 4 -0.9346 0.9346 0.0000 22.0510 0.0000 0.0000
# 5 0.0000 0.0000 0.0000 0.0000 22.0510 -0.9346
# 6 0.0000 0.0000 0.0000 0.0000 -0.9346 22.9170
#
#
#
# Elastic Compliance Matrix: (Units=1/GPa)
#
#
# Indices 1 2 3 4 5 6 
#
# 1 0.016075 -0.005781 -0.002286 0.000926 0.000000 0.000000
# 2 -0.005781 0.016075 -0.002286 -0.000926 0.000000 0.000000
# 3 -0.002286 -0.002286 0.017250 0.000000 0.000000 0.000000
# 4 0.000926 -0.000926 0.000000 0.045428 0.000000 0.000000
# 5 0.000000 0.000000 0.000000 0.000000 0.045428 0.001853
# 6 0.000000 0.000000 0.000000 0.000000 0.001853 0.043711
#
#
# Mechanical properties :
#
#
# Convention : Reuss Voigt Hill
#
# Bulk Modulus (GPa) = 34.85009 35.86031 35.35520
# Shear Modulus (GPa) = 23.33851 23.71021 23.52436
#
# Velocity S-wave (km/s) = 3.45417 3.48157 3.46790
# Velocity P-wave (km/s) = 5.80730 5.87321 5.84035
#
# Compressibility (1/GPa) = 0.02869433
#
# Stress axis : x y z
#
# Youngs Moduli (GPa) = 62.20787 62.20787 57.97134
#
# Poissons Ratio (x) = 0.35960 0.13253
# Poissons Ratio (y) = 0.35960 0.13253
# Poissons Ratio (z) = 0.14222 0.14222
#
# Static dielectric constant tensor:
#      x y z
#    x 1.683400 0.000000 0.000000 
#    y 0.000000 1.683400 0.000000 
#    z 0.000000 0.000000 1.722480 
# 
# From -- ./inp_files/8412.got.cif
#   From: 2010.05.17/outbox.cif.g08.bks.cpg/sg166_5_cif.got.tgz:8412.got - 2010.05.20 11:04:41.
