data_PCOD9579977
_publ_section_title
;
Structure prediction by ZEFSAII (Michael W. Deem and Ramdas Pophale) SiO2 
 PCOD9579977
Probable space group: P 61
;
_chemical_formula_sum "Si O2"
_cell_formula_units_Z 48
_cell_length_a 14.057518
_cell_length_b 14.057518
_cell_length_c 13.744348
_cell_angle_alpha 90.000000
_cell_angle_beta 90.000000
_cell_angle_gamma 120.000000
_cell_volume 2352.188222
_symmetry_space_group_name_H-M "P 61"
_symmetry_group_IT_number 169
_symmetry_cell_setting 'hexagonal'
loop_
_space_group_symop_operation_xyz
x,y,z
x-y,x,1/6+z
-y,x-y,1/3+z
-x,-y,1/2+z
-x+y,-x,2/3+z
y,-x+y,5/6+z
loop_
_atom_site_type_symbol
_atom_site_label
_atom_site_fract_x
_atom_site_fract_y
_atom_site_fract_z
Si Si1 0.508013 0.520228 0.423520
Si Si2 0.834856 0.907445 0.798049
Si Si3 0.884551 0.605504 0.018400
Si Si4 0.696210 0.776690 0.058636
Si Si5 0.570417 0.837575 0.183853
Si Si6 0.596468 0.376056 0.218730
Si Si7 0.640302 0.201500 0.135342
Si Si8 0.980709 0.523059 0.303646
O O1 0.422470 0.402542 0.376593
O O2 0.621526 0.570746 0.365616
O O3 0.459977 0.599372 0.404855
O O4 0.532204 0.498958 0.532146
O O5 0.716543 0.796146 0.792223
O O6 0.880539 0.966459 0.695249
O O7 0.812029 0.993868 0.858580
O O8 0.858601 0.631137 0.126372
O O9 0.794811 0.499434 0.960692
O O10 0.679295 0.852819 0.134522
O O11 0.633054 0.657200 0.109894
O O12 0.465190 0.764160 0.113403
O O13 0.533032 0.764016 0.279940
O O14 0.626460 0.307482 0.144777
O O15 0.551238 0.450145 0.170815
O O16 0.568841 0.112913 0.050741
#
# Coordination Sequence:
#
# PCOD9579977 Si02
#       8
#     6   6   6   6   6   6   6   6
#     4  10  22  41  61  85 127 160 203 249 305 368
#     4  10  22  37  65  92 115 151 209 259 303 351
#     4   9  20  37  58  89 114 156 197 254 299 352
#     4   9  21  36  64  87 120 155 204 252 308 352
#     4  10  23  38  58  90 128 161 197 251 308 368
#     4  11  24  34  61  88 129 162 195 246 312 361
#     4  11  24  36  56  91 118 161 203 243 298 382
#     4  10  22  39  57  86 125 156 200 248 295 368
#
# _framework density 20.40653
#
# number of rings (size 3 to 8) (size 9 to 14) (size 15 to 20)
#    0.000    2.000    2.500    0.000   17.500    0.000 
#    0.000    0.000    2.750    0.000    0.000    0.000 
#    0.000    0.000    0.000    0.000    0.000    0.000 
#
# Total GULP energy -267737.143340 kJ/mol
# GULP energy per Si atom -5577.857153 kJ/mol
# Density = 2.036008 g / cm^3
# Si number density = 20.406530 Si / 1000 Ang^3
#
#
#
# Elastic Constant Matrix: (Units=GPa)
#
#
# Indices 1 2 3 4 5 6 
#
# 1 37.5206 0.0629 2.3124 0.0000 0.0000 0.0000
# 2 0.0629 37.5206 2.3124 0.0000 0.0000 0.0000
# 3 2.3124 2.3124 37.0594 0.0000 0.0000 0.0000
# 4 0.0000 0.0000 0.0000 25.4568 0.0000 0.0000
# 5 0.0000 0.0000 0.0000 0.0000 25.4568 0.0000
# 6 0.0000 0.0000 0.0000 0.0000 0.0000 18.7288
#
#
#
# Elastic Compliance Matrix: (Units=1/GPa)
#
#
# Indices 1 2 3 4 5 6 
#
# 1 0.026755 0.000058 -0.001673 0.000000 0.000000 0.000000
# 2 0.000058 0.026755 -0.001673 0.000000 0.000000 0.000000
# 3 -0.001673 -0.001673 0.027193 0.000000 0.000000 0.000000
# 4 0.000000 0.000000 0.000000 0.039282 0.000000 0.000000
# 5 0.000000 0.000000 0.000000 0.000000 0.039282 0.000000
# 6 0.000000 0.000000 0.000000 0.000000 0.000000 0.053394
#
#
# Mechanical properties :
#
#
# Convention : Reuss Voigt Hill
#
# Bulk Modulus (GPa) = 13.49042 13.49735 13.49388
# Shear Modulus (GPa) = 20.49638 21.08935 20.79286
#
# Velocity S-wave (km/s) = 3.17267 3.21824 3.19553
# Velocity P-wave (km/s) = 4.47731 4.52084 4.49913
#
# Compressibility (1/GPa) = 0.07412670
#
# Stress axis : x y z
#
# Youngs Moduli (GPa) = 37.37610 37.37610 36.77481
#
# Poissons Ratio (x) = -0.00218 0.06153
# Poissons Ratio (y) = -0.00218 0.06153
# Poissons Ratio (z) = 0.06253 0.06253
#
# Static dielectric constant tensor:
#      x y z
#    x 1.731290 0.000000 0.000000 
#    y 0.000000 1.731290 0.000000 
#    z 0.000000 0.000000 1.813930 
# 
# From -- ./inp_files/1237.got.cif
#   From: 2010.05.17/outbox.cif.g08.bks.cpg/sg169_cif.got.tgz:1237.got - 2010.05.20 11:12:54.
