data_PCOD9579832
_publ_section_title
;
Structure prediction by ZEFSAII (Michael W. Deem and Ramdas Pophale) SiO2 
 PCOD9579832
Probable space group: P 61
;
_chemical_formula_sum "Si O2"
_cell_formula_units_Z 30
_cell_length_a 14.055214
_cell_length_b 14.055214
_cell_length_c 7.245266
_cell_angle_alpha 90.000000
_cell_angle_beta 90.000000
_cell_angle_gamma 120.000000
_cell_volume 1239.538131
_symmetry_space_group_name_H-M "P 61"
_symmetry_group_IT_number 169
_symmetry_cell_setting 'hexagonal'
loop_
_space_group_symop_operation_xyz
x,y,z
x-y,x,1/6+z
-y,x-y,1/3+z
-x,-y,1/2+z
-x+y,-x,2/3+z
y,-x+y,5/6+z
loop_
_atom_site_type_symbol
_atom_site_label
_atom_site_fract_x
_atom_site_fract_y
_atom_site_fract_z
Si Si1 0.383876 0.228329 0.620740
Si Si2 0.390793 0.429272 0.100512
Si Si3 0.383699 0.628863 0.295418
Si Si4 0.826846 0.778707 0.569766
Si Si5 0.367029 0.438300 0.658243
O O1 0.488694 0.283110 0.757805
O O2 0.279778 0.130051 0.726129
O O3 0.367814 0.331348 0.578532
O O4 0.420429 0.174368 0.459481
O O5 0.378460 0.516496 0.229015
O O6 0.290517 0.311459 0.149951
O O7 0.516467 0.456178 0.110042
O O8 0.375032 0.438924 0.881836
O O9 0.354525 0.657229 0.492163
O O10 0.814127 0.881912 0.525152
#
# Coordination Sequence:
#
# PCOD9579832 Si02
#       5
#     6   6   6   6   6
#     4  10  19  34  62  96 125 177 233 275 349 424
#     4  10  22  39  64  97 131 178 228 285 362 424
#     4  11  22  38  61 102 146 186 234 282 357 431
#     4  11  21  41  72  92 127 184 242 298 365 425
#     4  10  20  38  61  95 133 175 225 282 345 424
#
# _framework density 24.202563000000001
#
# number of rings (size 3 to 8) (size 9 to 14) (size 15 to 20)
#    0.000    1.600    8.000    0.000    0.000    4.800 
#    0.000    0.000    8.800    0.000    0.000    0.000 
#    0.000    0.000    0.000    0.000    0.000    0.000 
#
# Total GULP energy -167578.057013 kJ/mol
# GULP energy per Si atom -5585.935234 kJ/mol
# Density = 2.414748 g / cm^3
# Si number density = 24.202563 Si / 1000 Ang^3
#
#
#
# Elastic Constant Matrix: (Units=GPa)
#
#
# Indices 1 2 3 4 5 6 
#
# 1 143.9033 73.8221 33.3171 0.0000 0.0000 0.0000
# 2 73.8221 143.9033 33.3171 0.0000 0.0000 0.0000
# 3 33.3171 33.3171 43.3122 0.0000 0.0000 0.0000
# 4 0.0000 0.0000 0.0000 30.7953 0.0000 0.0000
# 5 0.0000 0.0000 0.0000 0.0000 30.7953 0.0000
# 6 0.0000 0.0000 0.0000 0.0000 0.0000 35.0406
#
#
#
# Elastic Compliance Matrix: (Units=1/GPa)
#
#
# Indices 1 2 3 4 5 6 
#
# 1 0.010138 -0.004131 -0.004621 0.000000 0.000000 0.000000
# 2 -0.004131 0.010138 -0.004621 0.000000 0.000000 0.000000
# 3 -0.004621 -0.004621 0.030197 0.000000 0.000000 0.000000
# 4 0.000000 0.000000 0.000000 0.032472 0.000000 0.000000
# 5 0.000000 0.000000 0.000000 0.000000 0.032472 0.000000
# 6 0.000000 0.000000 0.000000 0.000000 0.000000 0.028538
#
#
# Mechanical properties :
#
#
# Convention : Reuss Voigt Hill
#
# Bulk Modulus (GPa) = 42.14434 68.00351 55.07393
# Shear Modulus (GPa) = 27.99369 32.03708 30.01538
#
# Velocity S-wave (km/s) = 3.40463 3.64222 3.52543
# Velocity P-wave (km/s) = 5.73640 6.77100 6.27506
#
# Compressibility (1/GPa) = 0.02372798
#
# Stress axis : x y z
#
# Youngs Moduli (GPa) = 98.63726 98.63726 33.11563
#
# Poissons Ratio (x) = 0.40747 0.15302
# Poissons Ratio (y) = 0.40747 0.15302
# Poissons Ratio (z) = 0.45579 0.45579
#
# Static dielectric constant tensor:
#      x y z
#    x 1.972590 0.000000 0.000000 
#    y 0.000000 1.972590 0.000000 
#    z 0.000000 0.000000 1.991550 
# 
# From -- ./inp_files/566.got.cif
#   From: 2010.05.17/outbox.cif.g08.bks.cpg/sg169_cif.got.tgz:566.got - 2010.05.20 11:12:54.
