data_PCOD9579173
_publ_section_title
;
Structure prediction by ZEFSAII (Michael W. Deem and Ramdas Pophale) SiO2 
 PCOD9579173
Probable space group: R -3 M
;
_chemical_formula_sum "Si O2"
_cell_formula_units_Z 144
_cell_length_a 30.538560
_cell_length_b 30.538560
_cell_length_c 8.044796
_cell_angle_alpha 90.000000
_cell_angle_beta 90.000000
_cell_angle_gamma 120.000000
_cell_volume 6497.447467
_symmetry_space_group_name_H-M "R -3 M"
_symmetry_group_IT_number 166
_symmetry_cell_setting 'hexagonal'
loop_
_space_group_symop_operation_xyz
x,y,z
-y,x-y,z
-x+y,-x,z
x-y,-y,-z
-x,-x+y,-z
y,x,-z
-x,-y,-z
y,-x+y,-z
x-y,x,-z
-x+y,y,z
x,x-y,z
-y,-x,z
2/3+x,1/3+y,1/3+z
2/3-y,1/3+x-y,1/3+z
2/3-x+y,1/3-x,1/3+z
2/3+x-y,1/3-y,1/3-z
2/3-x,1/3-x+y,1/3-z
2/3+y,1/3+x,1/3-z
2/3-x,1/3-y,1/3-z
2/3+y,1/3-x+y,1/3-z
2/3+x-y,1/3+x,1/3-z
2/3-x+y,1/3+y,1/3+z
2/3+x,1/3+x-y,1/3+z
2/3-y,1/3-x,1/3+z
1/3+x,2/3+y,2/3+z
1/3-y,2/3+x-y,2/3+z
1/3-x+y,2/3-x,2/3+z
1/3+x-y,2/3-y,2/3-z
1/3-x,2/3-x+y,2/3-z
1/3+y,2/3+x,2/3-z
1/3-x,2/3-y,2/3-z
1/3+y,2/3-x+y,2/3-z
1/3+x-y,2/3+x,2/3-z
1/3-x+y,2/3+y,2/3+z
1/3+x,2/3+x-y,2/3+z
1/3-y,2/3-x,2/3+z
loop_
_atom_site_type_symbol
_atom_site_label
_atom_site_fract_x
_atom_site_fract_y
_atom_site_fract_z
Si Si1 0.304662 0.057713 0.996436
Si Si2 0.086466 0.273144 0.512374
Si Si3 0.471232 0.633213 0.004719
Si Si4 0.177785 0.455726 0.803152
O O1 0.333334 0.083345 0.166667
O O2 0.251698 0.056937 0.006641
O O3 0.344638 0.091874 0.858064
O O4 0.290651 0.000000 0.000000
O O5 0.144990 0.289980 0.490386
O O6 0.054000 0.230655 0.377988
O O7 0.069269 0.241489 0.686032
O O8 0.415860 0.584141 0.988521
O O9 0.474419 0.666667 0.166667
O O10 0.493641 0.670337 0.848544
O O11 0.233417 0.466833 0.763071
#
# Coordination Sequence:
#
# PCOD9579173 Si02
#       4
#    36  36  36  36
#     4  10  20  31  46  68  95 128 165 201 238 281
#     4   8  15  29  48  68  92 123 157 193 238 292
#     4   9  16  28  49  75 101 128 158 198 249 301
#     4   9  17  31  50  69  94 130 167 201 239 289
#
# _framework density 22.162551000000001
#
# number of rings (size 3 to 8) (size 9 to 14) (size 15 to 20)
#    0.000    3.000    0.000    3.000    0.000    8.000 
#    0.000    2.500    0.000    7.500    0.000    0.000 
#    0.000    2.000    0.000    0.000    0.000    0.000 
#
# Total GULP energy -268185.466242 kJ/mol
# GULP energy per Si atom -5587.197213 kJ/mol
# Density = 2.211211 g / cm^3
# Si number density = 22.162551 Si / 1000 Ang^3
#
#
#
# Elastic Constant Matrix: (Units=GPa)
#
#
# Indices 1 2 3 4 5 6 
#
# 1 143.8074 97.9446 22.5045 19.3575 -0.0405 0.1216
# 2 97.9446 143.8786 22.5499 -19.3528 0.0197 -0.0344
# 3 22.5045 22.5499 82.2217 0.0912 0.1177 0.1251
# 4 19.3575 -19.3528 0.0912 6.7841 0.0532 0.0129
# 5 -0.0405 0.0197 0.1177 0.0532 6.8008 19.4394
# 6 0.1216 -0.0344 0.1251 0.0129 19.4394 22.9130
#
#
#
# Elastic Compliance Matrix: (Units=1/GPa)
#
#
# Indices 1 2 3 4 5 6 
#
# 1 -0.005561 0.009927 -0.001250 0.044201 0.000324 -0.000248
# 2 0.009927 -0.005576 -0.001139 -0.044213 -0.000370 0.000284
# 3 -0.001250 -0.001139 0.012816 0.000145 0.000029 -0.000090
# 4 0.044201 -0.044213 0.000145 -0.104838 -0.001335 0.000890
# 5 0.000324 -0.000370 0.000029 -0.001335 -0.103195 0.087549
# 6 -0.000248 0.000284 -0.000090 0.000890 0.087549 -0.030631
#
#
# Mechanical properties :
#
#
# Convention : Reuss Voigt Hill
#
# Bulk Modulus (GPa) = 59.67726 72.87842 66.27784
# Shear Modulus (GPa) = -20.28592 22.42683 1.07045
#
# Velocity S-wave (km/s) = -3.02871 3.18453 0.69574
# Velocity P-wave (km/s) = 3.84119 6.81737 5.53314
#
# Compressibility (1/GPa) = 0.01675680
#
# Stress axis : x y z
#
# Youngs Moduli (GPa) = -179.81679 -179.34416 78.02469
#
# Poissons Ratio (x) = 1.78033 0.09749
# Poissons Ratio (y) = 1.78502 0.08884
# Poissons Ratio (z) = -0.22469 -0.20421
#
# Static dielectric constant tensor:
#      x y z
#    x 1.812000 0.000100 -0.000180 
#    y 0.000100 1.812060 -0.000060 
#    z -0.000180 -0.000060 1.906110 
# 
# From -- ./inp_files/1810.got.cif
#   From: 2010.05.17/outbox.cif.g08.bks.cpg/sg166_1_cif.got.tgz:1810.got - 2010.05.20 11:04:41.
