data_PCOD9579066
_publ_section_title
;
Structure prediction by ZEFSAII (Michael W. Deem and Ramdas Pophale) SiO2 
 PCOD9579066
Probable space group: R -3 M
;
_chemical_formula_sum "Si O2"
_cell_formula_units_Z 162
_cell_length_a 21.615596
_cell_length_b 21.615596
_cell_length_c 23.890095
_cell_angle_alpha 90.000000
_cell_angle_beta 90.000000
_cell_angle_gamma 120.000000
_cell_volume 9666.804550
_symmetry_space_group_name_H-M "R -3 M"
_symmetry_group_IT_number 166
_symmetry_cell_setting 'hexagonal'
loop_
_space_group_symop_operation_xyz
x,y,z
-y,x-y,z
-x+y,-x,z
x-y,-y,-z
-x,-x+y,-z
y,x,-z
-x,-y,-z
y,-x+y,-z
x-y,x,-z
-x+y,y,z
x,x-y,z
-y,-x,z
2/3+x,1/3+y,1/3+z
2/3-y,1/3+x-y,1/3+z
2/3-x+y,1/3-x,1/3+z
2/3+x-y,1/3-y,1/3-z
2/3-x,1/3-x+y,1/3-z
2/3+y,1/3+x,1/3-z
2/3-x,1/3-y,1/3-z
2/3+y,1/3-x+y,1/3-z
2/3+x-y,1/3+x,1/3-z
2/3-x+y,1/3+y,1/3+z
2/3+x,1/3+x-y,1/3+z
2/3-y,1/3-x,1/3+z
1/3+x,2/3+y,2/3+z
1/3-y,2/3+x-y,2/3+z
1/3-x+y,2/3-x,2/3+z
1/3+x-y,2/3-y,2/3-z
1/3-x,2/3-x+y,2/3-z
1/3+y,2/3+x,2/3-z
1/3-x,2/3-y,2/3-z
1/3+y,2/3-x+y,2/3-z
1/3+x-y,2/3+x,2/3-z
1/3-x+y,2/3+y,2/3+z
1/3+x,2/3+x-y,2/3+z
1/3-y,2/3-x,2/3+z
loop_
_atom_site_type_symbol
_atom_site_label
_atom_site_fract_x
_atom_site_fract_y
_atom_site_fract_z
Si Si1 0.917401 0.533155 0.659138
Si Si2 0.798810 0.745593 0.451290
Si Si3 0.912380 0.530379 0.216640
Si Si4 0.000000 0.741010 0.000000
Si Si5 0.517580 0.184354 0.110876
O O1 0.923277 0.461639 0.658008
O O2 0.895586 0.540256 0.722398
O O3 0.862478 0.523390 0.610460
O O4 0.996568 0.599893 0.652586
O O5 0.789839 0.789839 0.500000
O O6 0.874476 0.748951 0.454961
O O7 0.738623 0.662144 0.458241
O O8 0.910995 0.455498 0.218167
O O9 0.893144 0.545293 0.278009
O O10 0.861064 0.523912 0.165951
O O11 0.594920 0.189839 0.108945
O O12 0.525281 0.262641 0.112380
#
# Coordination Sequence:
#
# PCOD9579066 Si02
#       5
#    36  36  36  18  36
#     4   9  20  34  49  76 105 132 170 209 247 304
#     4   9  18  33  52  73 104 135 166 207 254 299
#     4   9  20  34  50  76 104 130 168 210 249 305
#     4  10  18  32  55  72 105 138 160 204 264 296
#     4  10  21  37  54  74 102 135 174 215 254 298
#
# _framework density 16.758381
#
# number of rings (size 3 to 8) (size 9 to 14) (size 15 to 20)
#    0.000    2.667    0.000    2.222    6.222    2.667 
#    0.000    2.778    0.000    0.222    0.000    3.889 
#    0.000    0.000    0.000    0.000    0.000    0.000 
#
# Total GULP energy -300882.337394 kJ/mol
# GULP energy per Si atom -5571.895137 kJ/mol
# Density = 1.672024 g / cm^3
# Si number density = 16.758381 Si / 1000 Ang^3
#
#
#
# Elastic Constant Matrix: (Units=GPa)
#
#
# Indices 1 2 3 4 5 6 
#
# 1 35.0749 28.9189 60.3720 0.1779 0.0000 0.0000
# 2 28.9189 35.0749 60.3720 -0.1779 0.0000 0.0000
# 3 60.3720 60.3720 163.2968 0.0000 0.0000 0.0000
# 4 0.1779 -0.1779 0.0000 27.9321 0.0000 0.0000
# 5 0.0000 0.0000 0.0000 0.0000 27.9321 0.1779
# 6 0.0000 0.0000 0.0000 0.0000 0.1779 3.0780
#
#
#
# Elastic Compliance Matrix: (Units=1/GPa)
#
#
# Indices 1 2 3 4 5 6 
#
# 1 0.107086 -0.055417 -0.019103 -0.001035 0.000000 0.000000
# 2 -0.055417 0.107086 -0.019103 0.001035 0.000000 0.000000
# 3 -0.019103 -0.019103 0.020248 0.000000 0.000000 0.000000
# 4 -0.001035 0.001035 0.000000 0.035814 0.000000 0.000000
# 5 0.000000 0.000000 0.000000 0.000000 0.035814 -0.002070
# 6 0.000000 0.000000 0.000000 0.000000 -0.002070 0.325007
#
#
# Mechanical properties :
#
#
# Convention : Reuss Voigt Hill
#
# Bulk Modulus (GPa) = 21.19677 59.19695 40.19686
# Shear Modulus (GPa) = 5.99501 17.37401 11.68451
#
# Velocity S-wave (km/s) = 1.89343 3.22333 2.64338
# Velocity P-wave (km/s) = 4.17804 7.01809 5.77536
#
# Compressibility (1/GPa) = 0.04717700
#
# Stress axis : x y z
#
# Youngs Moduli (GPa) = 9.33826 9.33826 49.38641
#
# Poissons Ratio (x) = 0.51750 0.94340
# Poissons Ratio (y) = 0.51750 0.94340
# Poissons Ratio (z) = 0.17838 0.17838
#
# Static dielectric constant tensor:
#      x y z
#    x 1.551550 0.000000 0.000000 
#    y 0.000000 1.551550 0.000000 
#    z 0.000000 0.000000 1.583150 
# 
# From -- ./inp_files/8176.got.cif
#   From: 2010.05.17/outbox.cif.g08.bks.cpg/sg166_5_cif.got.tgz:8176.got - 2010.05.20 11:04:41.
