data_PCOD9579332
_publ_section_title
;
Structure prediction by ZEFSAII (Michael W. Deem and Ramdas Pophale) SiO2 
 PCOD9579332
Probable space group: R -3 M
;
_chemical_formula_sum "Si O2"
_cell_formula_units_Z 162
_cell_length_a 21.788241
_cell_length_b 21.788241
_cell_length_c 20.822756
_cell_angle_alpha 90.000000
_cell_angle_beta 90.000000
_cell_angle_gamma 120.000000
_cell_volume 8560.776966
_symmetry_space_group_name_H-M "R -3 M"
_symmetry_group_IT_number 166
_symmetry_cell_setting 'hexagonal'
loop_
_space_group_symop_operation_xyz
x,y,z
-y,x-y,z
-x+y,-x,z
x-y,-y,-z
-x,-x+y,-z
y,x,-z
-x,-y,-z
y,-x+y,-z
x-y,x,-z
-x+y,y,z
x,x-y,z
-y,-x,z
2/3+x,1/3+y,1/3+z
2/3-y,1/3+x-y,1/3+z
2/3-x+y,1/3-x,1/3+z
2/3+x-y,1/3-y,1/3-z
2/3-x,1/3-x+y,1/3-z
2/3+y,1/3+x,1/3-z
2/3-x,1/3-y,1/3-z
2/3+y,1/3-x+y,1/3-z
2/3+x-y,1/3+x,1/3-z
2/3-x+y,1/3+y,1/3+z
2/3+x,1/3+x-y,1/3+z
2/3-y,1/3-x,1/3+z
1/3+x,2/3+y,2/3+z
1/3-y,2/3+x-y,2/3+z
1/3-x+y,2/3-x,2/3+z
1/3+x-y,2/3-y,2/3-z
1/3-x,2/3-x+y,2/3-z
1/3+y,2/3+x,2/3-z
1/3-x,2/3-y,2/3-z
1/3+y,2/3-x+y,2/3-z
1/3+x-y,2/3+x,2/3-z
1/3-x+y,2/3+y,2/3+z
1/3+x,2/3+x-y,2/3+z
1/3-y,2/3-x,2/3+z
loop_
_atom_site_type_symbol
_atom_site_label
_atom_site_fract_x
_atom_site_fract_y
_atom_site_fract_z
Si Si1 0.263514 0.022487 0.209042
Si Si2 0.808555 0.472940 0.450867
Si Si3 0.120587 0.382209 0.022842
Si Si4 0.892901 0.559568 0.333334
Si Si5 0.254554 0.369260 0.262093
O O1 0.333334 0.071444 0.166667
O O2 0.271622 0.054150 0.280184
O O3 0.192694 0.012470 0.176910
O O4 0.255885 0.945182 0.216406
O O5 0.744249 0.488497 0.444167
O O6 0.779625 0.389813 0.456039
O O7 0.860822 0.503114 0.389951
O O8 0.195851 0.391701 0.039513
O O9 0.099696 0.431955 0.062823
O O10 0.059595 0.300184 0.030137
O O11 0.193456 0.386912 0.244568
O O12 0.235258 0.333334 0.333334
#
# Coordination Sequence:
#
# PCOD9579332 Si02
#       5
#    36  36  36  18  36
#     4  11  20  35  56  84 109 139 179 227 277 318
#     4  12  25  39  55  77 110 149 186 223 268 326
#     4  11  20  35  57  84 114 142 178 225 276 323
#     4  12  22  38  56  78 106 144 190 234 274 312
#     4   9  18  35  56  79 108 140 179 222 270 324
#
# _framework density 18.923515999999999
#
# number of rings (size 3 to 8) (size 9 to 14) (size 15 to 20)
#    0.000    1.111    5.556    3.556    0.000    1.778 
#    0.000    2.222    0.000    0.444    0.000    0.000 
#    0.000    0.889    0.000    0.000    0.000    0.000 
#
# Total GULP energy -301765.084288 kJ/mol
# GULP energy per Si atom -5588.242302 kJ/mol
# Density = 1.888044 g / cm^3
# Si number density = 18.923516 Si / 1000 Ang^3
#
#
#
# Elastic Constant Matrix: (Units=GPa)
#
#
# Indices 1 2 3 4 5 6 
#
# 1 82.2749 62.4148 -9.6349 -12.9114 0.0005 0.0000
# 2 62.4148 82.2749 -9.6349 12.9114 -0.0005 0.0000
# 3 -9.6349 -9.6349 15.0471 0.0000 0.0000 0.0000
# 4 -12.9114 12.9114 0.0000 -3.4771 0.0000 -0.0005
# 5 0.0005 -0.0005 0.0000 0.0000 -3.4771 -12.9114
# 6 0.0000 0.0000 0.0000 -0.0005 -12.9114 9.9301
#
#
#
# Elastic Compliance Matrix: (Units=1/GPa)
#
#
# Indices 1 2 3 4 5 6 
#
# 1 0.008098 -0.000542 0.004838 -0.032081 0.000001 0.000000
# 2 -0.000542 0.008098 0.004838 0.032081 -0.000001 0.000000
# 3 0.004838 0.004838 0.072653 0.000000 0.000000 0.000000
# 4 -0.032081 0.032081 0.000000 -0.049346 0.000000 -0.000002
# 5 0.000001 -0.000001 0.000000 0.000000 -0.049346 -0.064162
# 6 0.000000 0.000000 0.000000 -0.000002 -0.064162 0.017279
#
#
# Mechanical properties :
#
#
# Convention : Reuss Voigt Hill
#
# Bulk Modulus (GPa) = 9.33560 29.54299 19.43930
# Shear Modulus (GPa) = 201.02949 9.69199 105.36074
#
# Velocity S-wave (km/s) = 10.31810 2.26556 7.46981
# Velocity P-wave (km/s) = 12.12003 4.74230 9.20284
#
# Compressibility (1/GPa) = 0.10711683
#
# Stress axis : x y z
#
# Youngs Moduli (GPa) = 123.49405 123.49405 13.76397
#
# Poissons Ratio (x) = 0.06692 -0.06659
# Poissons Ratio (y) = 0.06692 -0.06659
# Poissons Ratio (z) = -0.59747 -0.59747
#
# Static dielectric constant tensor:
#      x y z
#    x 1.655630 0.000000 0.000000 
#    y 0.000000 1.655630 0.000000 
#    z 0.000000 0.000000 1.679320 
# 
# From -- ./inp_files/6739.got.cif
#   From: 2010.05.17/outbox.cif.g08.bks.cpg/sg166_4_cif.got.tgz:6739.got - 2010.05.20 11:04:41.
