data_PCOD9579988
_publ_section_title
;
Structure prediction by ZEFSAII (Michael W. Deem and Ramdas Pophale) SiO2 
 PCOD9579988
Probable space group: P 61
;
_chemical_formula_sum "Si O2"
_cell_formula_units_Z 36
_cell_length_a 14.434408
_cell_length_b 14.434408
_cell_length_c 9.262304
_cell_angle_alpha 90.000000
_cell_angle_beta 90.000000
_cell_angle_gamma 120.000000
_cell_volume 1671.273844
_symmetry_space_group_name_H-M "P 61"
_symmetry_group_IT_number 169
_symmetry_cell_setting 'hexagonal'
loop_
_space_group_symop_operation_xyz
x,y,z
x-y,x,1/6+z
-y,x-y,1/3+z
-x,-y,1/2+z
-x+y,-x,2/3+z
y,-x+y,5/6+z
loop_
_atom_site_type_symbol
_atom_site_label
_atom_site_fract_x
_atom_site_fract_y
_atom_site_fract_z
Si Si1 0.416086 0.244998 0.209440
Si Si2 0.207672 0.803915 0.722770
Si Si3 0.414333 0.562874 0.358282
Si Si4 0.019706 0.511040 0.299204
Si Si5 0.900834 0.779854 0.080346
Si Si6 0.287531 0.336239 0.802385
O O1 0.507634 0.215197 0.242492
O O2 0.466023 0.370146 0.182713
O O3 0.322452 0.207899 0.324631
O O4 0.372899 0.183393 0.056571
O O5 0.309456 0.785520 0.712272
O O6 0.111063 0.729676 0.618954
O O7 0.258097 0.924457 0.664910
O O8 0.471650 0.515052 0.461917
O O9 0.434970 0.534049 0.196797
O O10 0.057107 0.626828 0.367681
O O11 0.822407 0.729585 0.216795
O O12 0.018226 0.856814 0.142655
#
# Coordination Sequence:
#
# PCOD9579988 Si02
#       6
#     6   6   6   6   6   6
#     4  11  24  42  69 100 137 173 228 277 342 412
#     4  10  25  40  65  97 132 180 220 277 343 408
#     4  10  22  41  62  95 132 170 219 262 332 402
#     4  10  23  40  65  95 131 172 216 272 331 410
#     4  12  26  48  72 100 135 186 236 298 352 415
#     4  11  22  45  67  95 135 179 223 280 350 409
#
# _framework density 21.540457
#
# number of rings (size 3 to 8) (size 9 to 14) (size 15 to 20)
#    0.000    1.333    3.333    1.000    9.333    2.667 
#    3.000    0.000    0.000    0.000    0.000    0.000 
#    0.000    0.000    0.000    0.000    0.000    0.000 
#
# Total GULP energy -201258.689035 kJ/mol
# GULP energy per Si atom -5590.519140 kJ/mol
# Density = 2.149143 g / cm^3
# Si number density = 21.540457 Si / 1000 Ang^3
#
#
#
# Elastic Constant Matrix: (Units=GPa)
#
#
# Indices 1 2 3 4 5 6 
#
# 1 48.5995 15.1196 0.3678 0.0000 0.0000 0.0000
# 2 15.1196 48.5995 0.3678 0.0000 0.0000 0.0000
# 3 0.3678 0.3678 53.6519 0.0000 0.0000 0.0000
# 4 0.0000 0.0000 0.0000 36.0361 0.0000 0.0000
# 5 0.0000 0.0000 0.0000 0.0000 36.0361 0.0000
# 6 0.0000 0.0000 0.0000 0.0000 0.0000 16.7399
#
#
#
# Elastic Compliance Matrix: (Units=1/GPa)
#
#
# Indices 1 2 3 4 5 6 
#
# 1 0.022782 -0.007087 -0.000108 0.000000 0.000000 0.000000
# 2 -0.007087 0.022782 -0.000108 0.000000 0.000000 0.000000
# 3 -0.000108 -0.000108 0.018640 0.000000 0.000000 0.000000
# 4 0.000000 0.000000 0.000000 0.027750 0.000000 0.000000
# 5 0.000000 0.000000 0.000000 0.000000 0.027750 0.000000
# 6 0.000000 0.000000 0.000000 0.000000 0.000000 0.059737
#
#
# Mechanical properties :
#
#
# Convention : Reuss Voigt Hill
#
# Bulk Modulus (GPa) = 20.16129 20.28460 20.22295
# Shear Modulus (GPa) = 23.74410 26.76212 25.25311
#
# Velocity S-wave (km/s) = 3.32370 3.52861 3.42768
# Velocity P-wave (km/s) = 4.91012 5.10283 5.00740
#
# Compressibility (1/GPa) = 0.04959999
#
# Stress axis : x y z
#
# Youngs Moduli (GPa) = 43.89447 43.89447 53.64764
#
# Poissons Ratio (x) = 0.31107 0.00577
# Poissons Ratio (y) = 0.31107 0.00577
# Poissons Ratio (z) = 0.00472 0.00472
#
# Static dielectric constant tensor:
#      x y z
#    x 1.775470 0.000000 0.000000 
#    y 0.000000 1.775470 0.000000 
#    z 0.000000 0.000000 1.812070 
# 
# From -- ./inp_files/582.got.cif
#   From: 2010.05.17/outbox.cif.g08.bks.cpg/sg169_cif.got.tgz:582.got - 2010.05.20 11:12:54.
