data_PCOD9579017
_publ_section_title
;
Structure prediction by ZEFSAII (Michael W. Deem and Ramdas Pophale) SiO2 
 PCOD9579017
Probable space group: R -3 M
;
_chemical_formula_sum "Si O2"
_cell_formula_units_Z 144
_cell_length_a 23.707276
_cell_length_b 23.707276
_cell_length_c 16.900809
_cell_angle_alpha 90.000000
_cell_angle_beta 90.000000
_cell_angle_gamma 120.000000
_cell_volume 8226.241158
_symmetry_space_group_name_H-M "R -3 M"
_symmetry_group_IT_number 166
_symmetry_cell_setting 'hexagonal'
loop_
_space_group_symop_operation_xyz
x,y,z
-y,x-y,z
-x+y,-x,z
x-y,-y,-z
-x,-x+y,-z
y,x,-z
-x,-y,-z
y,-x+y,-z
x-y,x,-z
-x+y,y,z
x,x-y,z
-y,-x,z
2/3+x,1/3+y,1/3+z
2/3-y,1/3+x-y,1/3+z
2/3-x+y,1/3-x,1/3+z
2/3+x-y,1/3-y,1/3-z
2/3-x,1/3-x+y,1/3-z
2/3+y,1/3+x,1/3-z
2/3-x,1/3-y,1/3-z
2/3+y,1/3-x+y,1/3-z
2/3+x-y,1/3+x,1/3-z
2/3-x+y,1/3+y,1/3+z
2/3+x,1/3+x-y,1/3+z
2/3-y,1/3-x,1/3+z
1/3+x,2/3+y,2/3+z
1/3-y,2/3+x-y,2/3+z
1/3-x+y,2/3-x,2/3+z
1/3+x-y,2/3-y,2/3-z
1/3-x,2/3-x+y,2/3-z
1/3+y,2/3+x,2/3-z
1/3-x,2/3-y,2/3-z
1/3+y,2/3-x+y,2/3-z
1/3+x-y,2/3+x,2/3-z
1/3-x+y,2/3+y,2/3+z
1/3+x,2/3+x-y,2/3+z
1/3-y,2/3-x,2/3+z
loop_
_atom_site_type_symbol
_atom_site_label
_atom_site_fract_x
_atom_site_fract_y
_atom_site_fract_z
Si Si1 0.682768 0.906015 0.154682
Si Si2 0.908392 0.393025 0.957786
Si Si3 0.611291 0.000000 0.500000
Si Si4 0.207923 0.666667 0.166667
Si Si5 0.609647 0.867788 0.985204
O O1 0.712120 0.856060 0.156091
O O2 0.635217 0.885589 0.231097
O O3 0.716819 0.984597 0.154884
O O4 0.642214 0.886403 0.072136
O O5 0.914121 0.457061 0.996553
O O6 0.845672 0.361379 0.901065
O O7 0.895600 0.335320 0.015440
O O8 0.569889 0.990895 0.420975
O O9 0.216997 0.608499 0.198151
O O10 0.580769 0.790385 0.977363
#
# Coordination Sequence:
#
# PCOD9579017 Si02
#       5
#    36  36  18  18  36
#     4  10  20  34  53  75 100 130 168 213 258 305
#     4  10  18  31  53  74  97 133 168 206 255 300
#     4  12  22  34  52  74 102 140 178 212 258 314
#     4  10  16  24  40  66  96 128 162 198 242 292
#     4  11  21  35  51  73 105 139 173 216 260 307
#
# _framework density 17.504957999999998
#
# number of rings (size 3 to 8) (size 9 to 14) (size 15 to 20)
#    0.000    1.500    5.000    2.000    0.000    1.000 
#    0.000    2.500    0.000    0.500    0.000    0.000 
#    0.000    0.000    0.000    0.000    0.000   34.250 
#
# Total GULP energy -267456.315152 kJ/mol
# GULP energy per Si atom -5572.006566 kJ/mol
# Density = 1.746512 g / cm^3
# Si number density = 17.504958 Si / 1000 Ang^3
#
#
#
# Elastic Constant Matrix: (Units=GPa)
#
#
# Indices 1 2 3 4 5 6 
#
# 1 50.6743 25.4761 34.7367 5.2243 0.0000 0.0000
# 2 25.4761 50.6743 34.7367 -5.2243 0.0000 0.0000
# 3 34.7367 34.7367 70.3594 0.0000 0.0000 0.0000
# 4 5.2243 -5.2243 0.0000 17.4919 0.0000 0.0000
# 5 0.0000 0.0000 0.0000 0.0000 17.4919 5.2243
# 6 0.0000 0.0000 0.0000 0.0000 5.2243 12.5991
#
#
#
# Elastic Compliance Matrix: (Units=1/GPa)
#
#
# Indices 1 2 3 4 5 6 
#
# 1 0.034595 -0.010700 -0.011797 -0.013528 0.000000 0.000000
# 2 -0.010700 0.034595 -0.011797 0.013528 0.000000 0.000000
# 3 -0.011797 -0.011797 0.025861 0.000000 0.000000 0.000000
# 4 -0.013528 0.013528 0.000000 0.065250 0.000000 0.000000
# 5 0.000000 0.000000 0.000000 0.000000 0.065250 -0.027056
# 6 0.000000 0.000000 0.000000 0.000000 -0.027056 0.090589
#
#
# Mechanical properties :
#
#
# Convention : Reuss Voigt Hill
#
# Bulk Modulus (GPa) = 37.78914 40.17857 38.98385
# Shear Modulus (GPa) = 12.70494 14.63383 13.66938
#
# Velocity S-wave (km/s) = 2.69697 2.89447 2.79747
# Velocity P-wave (km/s) = 5.59757 5.84578 5.72302
#
# Compressibility (1/GPa) = 0.02646263
#
# Stress axis : x y z
#
# Youngs Moduli (GPa) = 28.90633 28.90633 38.66838
#
# Poissons Ratio (x) = 0.30930 0.45616
# Poissons Ratio (y) = 0.30930 0.45616
# Poissons Ratio (z) = 0.34100 0.34100
#
# Static dielectric constant tensor:
#      x y z
#    x 1.637040 0.000000 0.000000 
#    y 0.000000 1.637040 0.000000 
#    z 0.000000 0.000000 1.583630 
# 
# From -- ./inp_files/5289.got.cif
#   From: 2010.05.17/outbox.cif.g08.bks.cpg/sg166_3_cif.got.tgz:5289.got - 2010.05.20 11:04:41.
