data_PCOD9579694
_publ_section_title
;
Structure prediction by ZEFSAII (Michael W. Deem and Ramdas Pophale) SiO2 
 PCOD9579694
Probable space group: R -3 C 
;
_chemical_formula_sum "Si O2"
_cell_formula_units_Z 126
_cell_length_a 18.412074
_cell_length_b 18.412074
_cell_length_c 19.825964
_cell_angle_alpha 90.000000
_cell_angle_beta 90.000000
_cell_angle_gamma 120.000000
_cell_volume 5820.635026
_symmetry_space_group_name_H-M "R -3 C "
_symmetry_group_IT_number 167
_symmetry_cell_setting 'hexagonal'
loop_
_space_group_symop_operation_xyz
x,y,z
-y,x-y,z
-x+y,-x,z
x-y,-y,1/2-z
-x,-x+y,1/2-z
y,x,1/2-z
-x,-y,-z
y,-x+y,-z
x-y,x,-z
-x+y,y,1/2+z
x,x-y,1/2+z
-y,-x,1/2+z
2/3+x,1/3+y,1/3+z
2/3-y,1/3+x-y,1/3+z
2/3-x+y,1/3-x,1/3+z
2/3+x-y,1/3-y,5/6-z
2/3-x,1/3-x+y,5/6-z
2/3+y,1/3+x,5/6-z
2/3-x,1/3-y,1/3-z
2/3+y,1/3-x+y,1/3-z
2/3+x-y,1/3+x,1/3-z
2/3-x+y,1/3+y,5/6+z
2/3+x,1/3+x-y,5/6+z
2/3-y,1/3-x,5/6+z
1/3+x,2/3+y,2/3+z
1/3-y,2/3+x-y,2/3+z
1/3-x+y,2/3-x,2/3+z
1/3+x-y,2/3-y,1/6-z
1/3-x,2/3-x+y,1/6-z
1/3+y,2/3+x,1/6-z
1/3-x,2/3-y,2/3-z
1/3+y,2/3-x+y,2/3-z
1/3+x-y,2/3+x,2/3-z
1/3-x+y,2/3+y,1/6+z
1/3+x,2/3+x-y,1/6+z
1/3-y,2/3-x,1/6+z
loop_
_atom_site_type_symbol
_atom_site_label
_atom_site_fract_x
_atom_site_fract_y
_atom_site_fract_z
Si Si1 0.333334 0.436006 0.916667
Si Si2 0.311452 0.985749 0.989032
Si Si3 0.942208 0.132599 0.312384
Si Si4 0.156631 0.004665 0.464271
O O1 0.294876 0.360374 0.862955
O O2 0.271407 0.454254 0.959570
O O3 0.277642 0.887876 0.979996
O O4 0.333334 0.029665 0.916667
O O5 0.240005 0.997798 0.024404
O O6 0.974261 0.124734 0.385994
O O7 0.000000 0.136606 0.250000
O O8 0.160381 0.078406 0.510685
#
# Coordination Sequence:
#
# PCOD9579694 Si02
#       4
#    18  36  36  36
#     4  12  24  48  72 106 152 192 246 314 380 440
#     4  11  24  44  77 106 140 190 252 318 373 444
#     4  11  27  44  71 110 144 198 251 316 377 448
#     4  12  26  47  71 107 150 201 253 309 383 461
#
# _framework density 21.647122
#
# number of rings (size 3 to 8) (size 9 to 14) (size 15 to 20)
#    0.000    0.571    2.857    3.714    8.000    2.286 
#    0.857    0.000    0.000    0.000    0.000    0.000 
#    0.000    0.000    0.000    0.000    0.000    0.000 
#
# Total GULP energy -234809.045592 kJ/mol
# GULP energy per Si atom -5590.691562 kJ/mol
# Density = 2.159785 g / cm^3
# Si number density = 21.647122 Si / 1000 Ang^3
#
#
#
# Elastic Constant Matrix: (Units=GPa)
#
#
# Indices 1 2 3 4 5 6 
#
# 1 132.3885 -0.2136 51.6457 -24.7931 -0.0021 0.0000
# 2 -0.2136 132.3885 51.6457 24.7931 0.0021 0.0000
# 3 51.6457 51.6457 206.9747 0.0000 0.0000 0.0000
# 4 -24.7931 24.7931 0.0000 58.1563 0.0000 0.0021
# 5 -0.0021 0.0021 0.0000 0.0000 58.1563 -24.7931
# 6 0.0000 0.0000 0.0000 0.0021 -24.7931 66.3010
#
#
#
# Elastic Compliance Matrix: (Units=1/GPa)
#
#
# Indices 1 2 3 4 5 6 
#
# 1 0.009185 0.000213 -0.002345 0.003825 0.000000 0.000000
# 2 0.000213 0.009185 -0.002345 -0.003825 0.000000 0.000000
# 3 -0.002345 -0.002345 0.006002 0.000000 0.000000 0.000000
# 4 0.003825 -0.003825 0.000000 0.020456 0.000000 -0.000001
# 5 0.000000 0.000000 0.000000 0.000000 0.020456 0.007650
# 6 0.000000 0.000000 0.000000 -0.000001 0.007650 0.017943
#
#
# Mechanical properties :
#
#
# Convention : Reuss Voigt Hill
#
# Bulk Modulus (GPa) = 64.85896 75.32305 70.09101
# Shear Modulus (GPa) = 51.37655 61.10098 56.23877
#
# Velocity S-wave (km/s) = 4.87701 5.31857 5.10257
# Velocity P-wave (km/s) = 7.85752 8.51984 8.19537
#
# Compressibility (1/GPa) = 0.01541807
#
# Stress axis : x y z
#
# Youngs Moduli (GPa) = 108.87293 108.87293 166.61477
#
# Poissons Ratio (x) = -0.02323 0.39074
# Poissons Ratio (y) = -0.02323 0.39074
# Poissons Ratio (z) = 0.25532 0.25532
#
# Static dielectric constant tensor:
#      x y z
#    x 1.762450 0.000000 0.000000 
#    y 0.000000 1.762450 0.000000 
#    z 0.000000 0.000000 1.846910 
# 
# From -- ./inp_files/3103.got.cif
#   From: 2010.05.17/outbox.cif.g08.bks.cpg/sg167_2_cif.got.tgz:3103.got - 2010.05.20 11:09:15.
