data_PCOD9579441
_publ_section_title
;
Structure prediction by ZEFSAII (Michael W. Deem and Ramdas Pophale) SiO2 
 PCOD9579441
Probable space group: R -3 C 
;
_chemical_formula_sum "Si O2"
_cell_formula_units_Z 252
_cell_length_a 26.657488
_cell_length_b 26.657488
_cell_length_c 18.109097
_cell_angle_alpha 90.000000
_cell_angle_beta 90.000000
_cell_angle_gamma 120.000000
_cell_volume 11144.635566
_symmetry_space_group_name_H-M "R -3 C "
_symmetry_group_IT_number 167
_symmetry_cell_setting 'hexagonal'
loop_
_space_group_symop_operation_xyz
x,y,z
-y,x-y,z
-x+y,-x,z
x-y,-y,1/2-z
-x,-x+y,1/2-z
y,x,1/2-z
-x,-y,-z
y,-x+y,-z
x-y,x,-z
-x+y,y,1/2+z
x,x-y,1/2+z
-y,-x,1/2+z
2/3+x,1/3+y,1/3+z
2/3-y,1/3+x-y,1/3+z
2/3-x+y,1/3-x,1/3+z
2/3+x-y,1/3-y,5/6-z
2/3-x,1/3-x+y,5/6-z
2/3+y,1/3+x,5/6-z
2/3-x,1/3-y,1/3-z
2/3+y,1/3-x+y,1/3-z
2/3+x-y,1/3+x,1/3-z
2/3-x+y,1/3+y,5/6+z
2/3+x,1/3+x-y,5/6+z
2/3-y,1/3-x,5/6+z
1/3+x,2/3+y,2/3+z
1/3-y,2/3+x-y,2/3+z
1/3-x+y,2/3-x,2/3+z
1/3+x-y,2/3-y,1/6-z
1/3-x,2/3-x+y,1/6-z
1/3+y,2/3+x,1/6-z
1/3-x,2/3-y,2/3-z
1/3+y,2/3-x+y,2/3-z
1/3+x-y,2/3+x,2/3-z
1/3-x+y,2/3+y,1/6+z
1/3+x,2/3+x-y,1/6+z
1/3-y,2/3-x,1/6+z
loop_
_atom_site_type_symbol
_atom_site_label
_atom_site_fract_x
_atom_site_fract_y
_atom_site_fract_z
Si Si1 0.881668 0.307933 0.854547
Si Si2 0.558863 0.397897 0.181918
Si Si3 0.119832 0.103663 0.531236
Si Si4 0.671937 0.155479 0.666254
Si Si5 0.724668 0.907916 0.539582
Si Si6 0.813535 0.689849 0.072442
Si Si7 0.429006 0.201722 0.630362
O O1 0.820850 0.303960 0.827906
O O2 0.882477 0.321664 0.940219
O O3 0.930473 0.362150 0.810804
O O4 0.884319 0.252481 0.828422
O O5 0.553317 0.340083 0.217452
O O6 0.625374 0.448350 0.173576
O O7 0.529593 0.419171 0.243665
O O8 0.529623 0.398142 0.104004
O O9 0.110909 0.040616 0.512997
O O10 0.666667 0.132917 0.583334
O O11 0.737712 0.207106 0.671685
O O12 0.666667 0.869642 0.583334
O O13 0.717742 0.878106 0.460750
O O14 0.793588 0.624868 0.095233
O O15 0.817878 0.729281 0.142813
#
# Coordination Sequence:
#
# PCOD9579441 Si02
#       7
#    36  36  36  36  36  36  36
#     4  11  21  38  64  91 123 172 216 270 329 401
#     4  10  20  37  61  90 120 167 214 265 334 395
#     4  11  22  38  64  97 130 172 230 280 334 407
#     4  10  19  34  59  91 121 153 209 266 319 389
#     4  11  20  35  60  87 120 162 212 258 316 397
#     4  11  21  38  65  90 126 166 222 270 330 406
#     4  10  22  37  62  96 122 164 215 279 330 397
#
# _framework density 22.611775000000002
#
# number of rings (size 3 to 8) (size 9 to 14) (size 15 to 20)
#    0.000    1.429    5.714    1.000    0.000    0.000 
#    0.000    5.000    0.000    0.000    0.000    2.000 
#    0.000    0.000    0.000    0.000    0.000    0.000 
#
# Total GULP energy -469095.591048 kJ/mol
# GULP energy per Si atom -5584.471322 kJ/mol
# Density = 2.256031 g / cm^3
# Si number density = 22.611775 Si / 1000 Ang^3
#
#
#
# Elastic Constant Matrix: (Units=GPa)
#
#
# Indices 1 2 3 4 5 6 
#
# 1 64.1591 26.8135 28.0544 1.1938 0.0004 0.0000
# 2 26.8135 64.1591 28.0544 -1.1938 -0.0004 0.0000
# 3 28.0544 28.0544 126.6611 0.0000 0.0000 0.0000
# 4 1.1938 -1.1938 0.0000 30.4806 0.0000 -0.0004
# 5 0.0004 -0.0004 0.0000 0.0000 30.4806 1.1938
# 6 0.0000 0.0000 0.0000 -0.0004 1.1938 18.6728
#
#
#
# Elastic Compliance Matrix: (Units=1/GPa)
#
#
# Indices 1 2 3 4 5 6 
#
# 1 0.019788 -0.007056 -0.002820 -0.001051 0.000000 0.000000
# 2 -0.007056 0.019788 -0.002820 0.001051 0.000000 0.000000
# 3 -0.002820 -0.002820 0.009144 0.000000 0.000000 0.000000
# 4 -0.001051 0.001051 0.000000 0.032890 0.000000 0.000001
# 5 0.000000 0.000000 0.000000 0.000000 0.032890 -0.002103
# 6 0.000000 0.000000 0.000000 0.000001 -0.002103 0.053688
#
#
# Mechanical properties :
#
#
# Convention : Reuss Voigt Hill
#
# Bulk Modulus (GPa) = 42.86757 46.75820 44.81288
# Shear Modulus (GPa) = 24.83155 27.39726 26.11440
#
# Velocity S-wave (km/s) = 3.31746 3.48463 3.40207
# Velocity P-wave (km/s) = 5.80287 6.07567 5.94084
#
# Compressibility (1/GPa) = 0.02332766
#
# Stress axis : x y z
#
# Youngs Moduli (GPa) = 50.53603 50.53603 109.35801
#
# Poissons Ratio (x) = 0.35660 0.30838
# Poissons Ratio (y) = 0.35660 0.30838
# Poissons Ratio (z) = 0.14251 0.14251
#
# Static dielectric constant tensor:
#      x y z
#    x 1.837320 0.000000 0.000000 
#    y 0.000000 1.837320 0.000000 
#    z 0.000000 0.000000 1.910340 
# 
# From -- ./inp_files/3691.got.cif
#   From: 2010.05.17/outbox.cif.g08.bks.cpg/sg167_2_cif.got.tgz:3691.got - 2010.05.20 11:09:15.
