data_PCOD9579029
_publ_section_title
;
Structure prediction by ZEFSAII (Michael W. Deem and Ramdas Pophale) SiO2 
 PCOD9579029
Probable space group: R -3 M
;
_chemical_formula_sum "Si O2"
_cell_formula_units_Z 234
_cell_length_a 27.200816
_cell_length_b 27.200816
_cell_length_c 20.023701
_cell_angle_alpha 90.000000
_cell_angle_beta 90.000000
_cell_angle_gamma 120.000000
_cell_volume 12830.360192
_symmetry_space_group_name_H-M "R -3 M"
_symmetry_group_IT_number 166
_symmetry_cell_setting 'hexagonal'
loop_
_space_group_symop_operation_xyz
x,y,z
-y,x-y,z
-x+y,-x,z
x-y,-y,-z
-x,-x+y,-z
y,x,-z
-x,-y,-z
y,-x+y,-z
x-y,x,-z
-x+y,y,z
x,x-y,z
-y,-x,z
2/3+x,1/3+y,1/3+z
2/3-y,1/3+x-y,1/3+z
2/3-x+y,1/3-x,1/3+z
2/3+x-y,1/3-y,1/3-z
2/3-x,1/3-x+y,1/3-z
2/3+y,1/3+x,1/3-z
2/3-x,1/3-y,1/3-z
2/3+y,1/3-x+y,1/3-z
2/3+x-y,1/3+x,1/3-z
2/3-x+y,1/3+y,1/3+z
2/3+x,1/3+x-y,1/3+z
2/3-y,1/3-x,1/3+z
1/3+x,2/3+y,2/3+z
1/3-y,2/3+x-y,2/3+z
1/3-x+y,2/3-x,2/3+z
1/3+x-y,2/3-y,2/3-z
1/3-x,2/3-x+y,2/3-z
1/3+y,2/3+x,2/3-z
1/3-x,2/3-y,2/3-z
1/3+y,2/3-x+y,2/3-z
1/3+x-y,2/3+x,2/3-z
1/3-x+y,2/3+y,2/3+z
1/3+x,2/3+x-y,2/3+z
1/3-y,2/3-x,2/3+z
loop_
_atom_site_type_symbol
_atom_site_label
_atom_site_fract_x
_atom_site_fract_y
_atom_site_fract_z
Si Si1 0.572762 0.427239 0.717297
Si Si2 0.968888 0.828794 0.773311
Si Si3 0.760197 0.520393 0.103174
Si Si4 0.517300 0.482700 0.637040
Si Si5 0.269852 0.347966 0.642590
Si Si6 0.713126 0.086959 0.727337
Si Si7 0.369703 0.128324 0.501690
Si Si8 0.524678 0.159673 0.944660
O O1 0.584365 0.415636 0.640663
O O2 0.538929 0.461072 0.702123
O O3 0.634510 0.466352 0.748095
O O4 0.925323 0.850645 0.789713
O O5 0.942432 0.765850 0.801626
O O6 0.970698 0.825478 0.692641
O O7 0.032035 0.867974 0.800051
O O8 0.794011 0.588021 0.091304
O O9 0.449310 0.448858 0.641089
O O10 0.333334 0.392296 0.666667
O O11 0.272050 0.290477 0.626275
O O12 0.254472 0.369080 0.575559
O O13 0.751304 0.084638 0.666667
O O14 0.736663 0.072283 0.792701
O O15 0.718846 0.147389 0.740314
O O16 0.349812 0.174906 0.511951
O O17 0.588377 0.176753 0.925433
#
# Coordination Sequence:
#
# PCOD9579029 Si02
#       8
#    18  36  18  18  36  36  36  36
#     4   8  16  30  46  70  97 146 174 216 265 308
#     4   9  17  30  50  77 110 142 172 218 277 327
#     4   8  16  30  51  74 103 144 173 213 266 339
#     4  10  18  38  57  72 102 148 183 226 285 313
#     4  11  23  38  58  76 106 149 190 230 274 331
#     4  11  20  32  52  83 110 145 179 219 271 337
#     4  11  22  35  53  81 114 140 182 237 280 328
#     4  10  17  29  49  73 105 142 182 214 267 326
#
# _framework density 18.237991000000001
#
# number of rings (size 3 to 8) (size 9 to 14) (size 15 to 20)
#    0.462    1.538    3.846    0.923    2.154    0.615 
#    0.923    0.769    0.000    0.923    0.000    0.000 
#    0.000    0.000    0.000    8.846    0.000    0.077 
#
# Total GULP energy -434714.255959 kJ/mol
# GULP energy per Si atom -5573.259692 kJ/mol
# Density = 1.819648 g / cm^3
# Si number density = 18.237991 Si / 1000 Ang^3
#
#
#
# Elastic Constant Matrix: (Units=GPa)
#
#
# Indices 1 2 3 4 5 6 
#
# 1 88.6064 41.9999 1.1461 -1.8393 0.0001 0.0000
# 2 41.9999 88.6064 1.1461 1.8393 -0.0001 0.0000
# 3 1.1461 1.1461 12.6641 0.0000 0.0000 0.0000
# 4 -1.8393 1.8393 0.0000 10.8819 0.0000 -0.0001
# 5 0.0001 -0.0001 0.0000 0.0000 10.8819 -1.8393
# 6 0.0000 0.0000 0.0000 -0.0001 -1.8393 23.3032
#
#
#
# Elastic Compliance Matrix: (Units=1/GPa)
#
#
# Indices 1 2 3 4 5 6 
#
# 1 0.014708 -0.007039 -0.000694 0.003676 0.000000 0.000000
# 2 -0.007039 0.014708 -0.000694 -0.003676 0.000000 0.000000
# 3 -0.000694 -0.000694 0.079089 0.000000 0.000000 0.000000
# 4 0.003676 -0.003676 0.000000 0.093139 0.000000 0.000000
# 5 0.000000 0.000000 0.000000 0.000000 0.093139 0.007351
# 6 0.000000 0.000000 0.000000 0.000000 0.007351 0.043493
#
#
# Mechanical properties :
#
#
# Convention : Reuss Voigt Hill
#
# Bulk Modulus (GPa) = 10.91101 30.94011 20.92556
# Shear Modulus (GPa) = 12.96419 18.71904 15.84161
#
# Velocity S-wave (km/s) = 2.66904 3.20719 2.95041
# Velocity P-wave (km/s) = 3.93623 5.54222 4.80677
#
# Compressibility (1/GPa) = 0.09165056
#
# Stress axis : x y z
#
# Youngs Moduli (GPa) = 67.99217 67.99217 12.64397
#
# Poissons Ratio (x) = 0.47858 0.00878
# Poissons Ratio (y) = 0.47858 0.00878
# Poissons Ratio (z) = 0.04719 0.04719
#
# Static dielectric constant tensor:
#      x y z
#    x 1.653770 0.000000 0.000000 
#    y 0.000000 1.653770 0.000000 
#    z 0.000000 0.000000 1.620200 
# 
# From -- ./inp_files/7261.got.cif
#   From: 2010.05.17/outbox.cif.g08.bks.cpg/sg166_4_cif.got.tgz:7261.got - 2010.05.20 11:04:41.
