data_PCOD9579347
_publ_section_title
;
Structure prediction by ZEFSAII (Michael W. Deem and Ramdas Pophale) SiO2 
 PCOD9579347
Probable space group: R -3 M
;
_chemical_formula_sum "Si O2"
_cell_formula_units_Z 126
_cell_length_a 31.384828
_cell_length_b 31.384828
_cell_length_c 7.904658
_cell_angle_alpha 90.000000
_cell_angle_beta 90.000000
_cell_angle_gamma 120.000000
_cell_volume 6743.000970
_symmetry_space_group_name_H-M "R -3 M"
_symmetry_group_IT_number 166
_symmetry_cell_setting 'hexagonal'
loop_
_space_group_symop_operation_xyz
x,y,z
-y,x-y,z
-x+y,-x,z
x-y,-y,-z
-x,-x+y,-z
y,x,-z
-x,-y,-z
y,-x+y,-z
x-y,x,-z
-x+y,y,z
x,x-y,z
-y,-x,z
2/3+x,1/3+y,1/3+z
2/3-y,1/3+x-y,1/3+z
2/3-x+y,1/3-x,1/3+z
2/3+x-y,1/3-y,1/3-z
2/3-x,1/3-x+y,1/3-z
2/3+y,1/3+x,1/3-z
2/3-x,1/3-y,1/3-z
2/3+y,1/3-x+y,1/3-z
2/3+x-y,1/3+x,1/3-z
2/3-x+y,1/3+y,1/3+z
2/3+x,1/3+x-y,1/3+z
2/3-y,1/3-x,1/3+z
1/3+x,2/3+y,2/3+z
1/3-y,2/3+x-y,2/3+z
1/3-x+y,2/3-x,2/3+z
1/3+x-y,2/3-y,2/3-z
1/3-x,2/3-x+y,2/3-z
1/3+y,2/3+x,2/3-z
1/3-x,2/3-y,2/3-z
1/3+y,2/3-x+y,2/3-z
1/3+x-y,2/3+x,2/3-z
1/3-x+y,2/3+y,2/3+z
1/3+x,2/3+x-y,2/3+z
1/3-y,2/3-x,2/3+z
loop_
_atom_site_type_symbol
_atom_site_label
_atom_site_fract_x
_atom_site_fract_y
_atom_site_fract_z
Si Si1 0.196935 0.496091 0.511802
Si Si2 0.516501 0.666667 0.166667
Si Si3 0.810103 0.087072 0.979517
Si Si4 0.141169 0.756140 0.045002
O O1 0.249434 0.498867 0.502439
O O2 0.194307 0.527640 0.666667
O O3 0.181523 0.508639 0.334200
O O4 0.155682 0.439381 0.553298
O O5 0.570278 0.714087 0.146718
O O6 0.860689 0.139312 0.972317
O O7 0.800964 0.075379 0.179112
O O8 0.769033 0.098789 0.909171
O O9 0.193568 0.806433 0.062216
#
# Coordination Sequence:
#
# PCOD9579347 Si02
#       4
#    36  18  36  36
#     4  11  23  39  62  89 119 153 195 247 301 355
#     4  12  22  32  56  90 121 154 199 244 290 350
#     4   8  16  34  58  79 107 150 193 234 279 333
#     4   9  17  32  56  82 112 151 195 236 281 336
#
# _framework density 18.686042
#
# number of rings (size 3 to 8) (size 9 to 14) (size 15 to 20)
#    0.000    2.286    2.857    2.571    0.000    2.286 
#    0.000    4.286    6.286    0.286    0.000    1.000 
#    0.000    0.000    0.000    0.000    0.000    0.000 
#
# Total GULP energy -234308.303528 kJ/mol
# GULP energy per Si atom -5578.769132 kJ/mol
# Density = 1.864351 g / cm^3
# Si number density = 18.686042 Si / 1000 Ang^3
#
#
#
# Elastic Constant Matrix: (Units=GPa)
#
#
# Indices 1 2 3 4 5 6 
#
# 1 53.7710 5.3661 15.0032 3.9474 0.0407 0.0183
# 2 5.3661 53.7382 14.9727 -3.9380 0.0214 0.0061
# 3 15.0032 14.9727 78.1801 0.0046 0.1158 0.0281
# 4 3.9474 -3.9380 0.0046 18.7674 0.0038 0.0151
# 5 0.0407 0.0214 0.1158 0.0038 18.8206 3.9628
# 6 0.0183 0.0061 0.0281 0.0151 3.9628 24.2030
#
#
#
# Elastic Compliance Matrix: (Units=1/GPa)
#
#
# Indices 1 2 3 4 5 6 
#
# 1 0.020064 -0.001331 -0.003595 -0.004499 -0.000018 -0.000005
# 2 -0.001331 0.020071 -0.003589 0.004492 0.000002 -0.000003
# 3 -0.003595 -0.003589 0.014168 0.000000 -0.000075 0.000000
# 4 -0.004499 0.004492 0.000000 0.055173 0.000000 -0.000032
# 5 -0.000018 0.000002 -0.000075 0.000000 0.055031 -0.009010
# 6 -0.000005 -0.000003 0.000000 -0.000032 -0.009010 0.042792
#
#
# Mechanical properties :
#
#
# Convention : Reuss Voigt Hill
#
# Bulk Modulus (GPa) = 26.82949 28.48593 27.65771
# Shear Modulus (GPa) = 21.11904 22.38136 21.75020
#
# Velocity S-wave (km/s) = 3.36550 3.46462 3.41542
# Velocity P-wave (km/s) = 5.43059 5.59306 5.51243
#
# Compressibility (1/GPa) = 0.03727243
#
# Stress axis : x y z
#
# Youngs Moduli (GPa) = 49.84153 49.82371 70.58028
#
# Poissons Ratio (x) = 0.06634 0.25374
# Poissons Ratio (y) = 0.06636 0.25329
# Poissons Ratio (z) = 0.17918 0.17880
#
# Static dielectric constant tensor:
#      x y z
#    x 1.642670 -0.000010 -0.000040 
#    y -0.000010 1.642700 -0.000020 
#    z -0.000040 -0.000020 1.679610 
# 
# From -- ./inp_files/1666.got.cif
#   From: 2010.05.17/outbox.cif.g08.bks.cpg/sg166_1_cif.got.tgz:1666.got - 2010.05.20 11:04:41.
