data_PCOD9579428
_publ_section_title
;
Structure prediction by ZEFSAII (Michael W. Deem and Ramdas Pophale) SiO2 
 PCOD9579428
Probable space group: R -3 C 
;
_chemical_formula_sum "Si O2"
_cell_formula_units_Z 162
_cell_length_a 26.359040
_cell_length_b 26.359040
_cell_length_c 16.678690
_cell_angle_alpha 90.000000
_cell_angle_beta 90.000000
_cell_angle_gamma 120.000000
_cell_volume 10035.794197
_symmetry_space_group_name_H-M "R -3 C "
_symmetry_group_IT_number 167
_symmetry_cell_setting 'hexagonal'
loop_
_space_group_symop_operation_xyz
x,y,z
-y,x-y,z
-x+y,-x,z
x-y,-y,1/2-z
-x,-x+y,1/2-z
y,x,1/2-z
-x,-y,-z
y,-x+y,-z
x-y,x,-z
-x+y,y,1/2+z
x,x-y,1/2+z
-y,-x,1/2+z
2/3+x,1/3+y,1/3+z
2/3-y,1/3+x-y,1/3+z
2/3-x+y,1/3-x,1/3+z
2/3+x-y,1/3-y,5/6-z
2/3-x,1/3-x+y,5/6-z
2/3+y,1/3+x,5/6-z
2/3-x,1/3-y,1/3-z
2/3+y,1/3-x+y,1/3-z
2/3+x-y,1/3+x,1/3-z
2/3-x+y,1/3+y,5/6+z
2/3+x,1/3+x-y,5/6+z
2/3-y,1/3-x,5/6+z
1/3+x,2/3+y,2/3+z
1/3-y,2/3+x-y,2/3+z
1/3-x+y,2/3-x,2/3+z
1/3+x-y,2/3-y,1/6-z
1/3-x,2/3-x+y,1/6-z
1/3+y,2/3+x,1/6-z
1/3-x,2/3-y,2/3-z
1/3+y,2/3-x+y,2/3-z
1/3+x-y,2/3+x,2/3-z
1/3-x+y,2/3+y,1/6+z
1/3+x,2/3+x-y,1/6+z
1/3-y,2/3-x,1/6+z
loop_
_atom_site_type_symbol
_atom_site_label
_atom_site_fract_x
_atom_site_fract_y
_atom_site_fract_z
Si Si1 0.643332 0.000000 0.250000
Si Si2 0.241092 0.925468 0.847814
Si Si3 0.150703 0.301410 0.211574
Si Si4 0.686394 0.559716 0.319917
Si Si5 0.241670 0.130187 0.451984
O O1 0.693976 0.030667 0.183165
O O2 0.638832 0.053634 0.288594
O O3 0.197864 0.896049 0.772673
O O4 0.232784 0.870900 0.903106
O O5 0.218397 0.960679 0.900665
O O6 0.131113 0.252623 0.143226
O O7 0.183937 0.362559 0.163441
O O8 0.730646 0.539026 0.350691
O O9 0.620908 0.506995 0.312432
#
# Coordination Sequence:
#
# PCOD9579428 Si02
#       5
#    18  36  36  36  36
#     4  12  20  32  50  78 104 144 172 202 254 308
#     4  10  19  30  51  75 102 141 171 204 247 303
#     4   9  18  34  50  72 107 132 173 211 244 307
#     4  11  22  33  53  73 103 136 172 216 255 310
#     4  10  20  36  49  72 101 136 170 216 257 303
#
# _framework density 16.142219999999998
#
# number of rings (size 3 to 8) (size 9 to 14) (size 15 to 20)
#    0.000    1.778    2.222    4.667    3.111    0.000 
#    0.000    0.000    0.000    0.444    0.000    0.000 
#    0.000    0.000    1.333    0.000    0.000    0.000 
#
# Total GULP energy -301202.679893 kJ/mol
# GULP energy per Si atom -5577.827405 kJ/mol
# Density = 1.610548 g / cm^3
# Si number density = 16.142220 Si / 1000 Ang^3
#
#
#
# Elastic Constant Matrix: (Units=GPa)
#
#
# Indices 1 2 3 4 5 6 
#
# 1 80.1437 48.3335 32.9001 -6.8879 0.0000 0.0000
# 2 48.3335 80.1437 32.9001 6.8879 0.0000 0.0000
# 3 32.9001 32.9001 93.7958 0.0000 0.0000 0.0000
# 4 -6.8879 6.8879 0.0000 17.2487 0.0000 0.0000
# 5 0.0000 0.0000 0.0000 0.0000 17.2487 -6.8879
# 6 0.0000 0.0000 0.0000 0.0000 -6.8879 15.9051
#
#
#
# Elastic Compliance Matrix: (Units=1/GPa)
#
#
# Indices 1 2 3 4 5 6 
#
# 1 0.023749 -0.014261 -0.003328 0.015178 0.000000 0.000000
# 2 -0.014261 0.023749 -0.003328 -0.015178 0.000000 0.000000
# 3 -0.003328 -0.003328 0.012996 0.000000 0.000000 0.000000
# 4 0.015178 -0.015178 0.000000 0.070098 0.000000 0.000000
# 5 0.000000 0.000000 0.000000 0.000000 0.070098 0.030356
# 6 0.000000 0.000000 0.000000 0.000000 0.030356 0.076019
#
#
# Mechanical properties :
#
#
# Convention : Reuss Voigt Hill
#
# Bulk Modulus (GPa) = 53.59067 53.59449 53.59258
# Shear Modulus (GPa) = 15.39593 19.41048 17.40321
#
# Velocity S-wave (km/s) = 3.09166 3.47142 3.28703
# Velocity P-wave (km/s) = 6.78348 7.02433 6.90496
#
# Compressibility (1/GPa) = 0.01865997
#
# Stress axis : x y z
#
# Youngs Moduli (GPa) = 42.10757 42.10757 76.94590
#
# Poissons Ratio (x) = 0.60049 0.25608
# Poissons Ratio (y) = 0.60049 0.25608
# Poissons Ratio (z) = 0.14013 0.14013
#
# Static dielectric constant tensor:
#      x y z
#    x 1.539210 0.000000 0.000000 
#    y 0.000000 1.539210 0.000000 
#    z 0.000000 0.000000 1.580890 
# 
# From -- ./inp_files/3550.got.cif
#   From: 2010.05.17/outbox.cif.g08.bks.cpg/sg167_2_cif.got.tgz:3550.got - 2010.05.20 11:09:15.
