data_PCOD9579929
_publ_section_title
;
Structure prediction by ZEFSAII (Michael W. Deem and Ramdas Pophale) SiO2 
 PCOD9579929
Probable space group: P 61
;
_chemical_formula_sum "Si O2"
_cell_formula_units_Z 36
_cell_length_a 13.737875
_cell_length_b 13.737875
_cell_length_c 8.921145
_cell_angle_alpha 90.000000
_cell_angle_beta 90.000000
_cell_angle_gamma 120.000000
_cell_volume 1458.110209
_symmetry_space_group_name_H-M "P 61"
_symmetry_group_IT_number 169
_symmetry_cell_setting 'hexagonal'
loop_
_space_group_symop_operation_xyz
x,y,z
x-y,x,1/6+z
-y,x-y,1/3+z
-x,-y,1/2+z
-x+y,-x,2/3+z
y,-x+y,5/6+z
loop_
_atom_site_type_symbol
_atom_site_label
_atom_site_fract_x
_atom_site_fract_y
_atom_site_fract_z
Si Si1 0.813342 0.790021 0.708100
Si Si2 0.457189 0.874119 0.854053
Si Si3 0.711517 0.045172 0.815969
Si Si4 0.792557 0.479542 0.928685
Si Si5 0.835963 0.301063 0.301774
Si Si6 0.333896 0.867275 0.589282
O O1 0.810893 0.874852 0.586383
O O2 0.766619 0.794798 0.875199
O O3 0.727264 0.663425 0.649307
O O4 0.436331 0.870905 0.029689
O O5 0.406151 0.741269 0.815272
O O6 0.400003 0.923195 0.744074
O O7 0.587601 0.936204 0.813804
O O8 0.706357 0.144677 0.729593
O O9 0.722920 0.077390 0.990357
O O10 0.773778 0.531937 0.775784
O O11 0.862272 0.428283 0.330387
O O12 0.768140 0.250917 0.148184
#
# Coordination Sequence:
#
# PCOD9579929 Si02
#       6
#     6   6   6   6   6   6
#     4  12  26  53  78 100 145 203 265 331 391 431
#     4  10  21  37  57  95 134 193 226 276 361 440
#     4  12  21  40  66 102 135 187 241 308 362 436
#     4  10  21  37  63  87 142 184 231 278 354 443
#     4  10  22  45  69 110 155 198 235 304 381 469
#     4  10  23  38  69 110 153 187 236 287 375 475
#
# _framework density 24.689491
#
# number of rings (size 3 to 8) (size 9 to 14) (size 15 to 20)
#    0.000    1.333    5.000    1.000    0.000    9.333 
#    3.000    3.333    0.000    0.000    0.000    0.000 
#    0.000    0.000    0.000    0.000    0.000    0.000 
#
# Total GULP energy -200755.679277 kJ/mol
# GULP energy per Si atom -5576.546647 kJ/mol
# Density = 2.463330 g / cm^3
# Si number density = 24.689491 Si / 1000 Ang^3
#
#
#
# Elastic Constant Matrix: (Units=GPa)
#
#
# Indices 1 2 3 4 5 6 
#
# 1 73.2903 17.9555 27.0133 0.0000 0.0000 0.0000
# 2 17.9555 73.2903 27.0133 0.0000 0.0000 0.0000
# 3 27.0133 27.0133 56.7521 0.0000 0.0000 0.0000
# 4 0.0000 0.0000 0.0000 35.1363 0.0000 0.0000
# 5 0.0000 0.0000 0.0000 0.0000 35.1363 0.0000
# 6 0.0000 0.0000 0.0000 0.0000 0.0000 27.6674
#
#
#
# Elastic Compliance Matrix: (Units=1/GPa)
#
#
# Indices 1 2 3 4 5 6 
#
# 1 0.016666 -0.001406 -0.007264 0.000000 0.000000 0.000000
# 2 -0.001406 0.016666 -0.007264 0.000000 0.000000 0.000000
# 3 -0.007264 -0.007264 0.024535 0.000000 0.000000 0.000000
# 4 0.000000 0.000000 0.000000 0.028461 0.000000 0.000000
# 5 0.000000 0.000000 0.000000 0.000000 0.028461 0.000000
# 6 0.000000 0.000000 0.000000 0.000000 0.000000 0.036144
#
#
# Mechanical properties :
#
#
# Convention : Reuss Voigt Hill
#
# Bulk Modulus (GPa) = 38.45995 38.58854 38.52424
# Shear Modulus (GPa) = 26.11439 28.34473 27.22956
#
# Velocity S-wave (km/s) = 3.25578 3.39196 3.32457
# Velocity P-wave (km/s) = 5.45387 5.56812 5.51129
#
# Compressibility (1/GPa) = 0.02600108
#
# Stress axis : x y z
#
# Youngs Moduli (GPa) = 60.00238 60.00238 40.75763
#
# Poissons Ratio (x) = 0.08435 0.29605
# Poissons Ratio (y) = 0.08435 0.29605
# Poissons Ratio (z) = 0.43584 0.43584
#
# Static dielectric constant tensor:
#      x y z
#    x 2.110190 0.000000 0.000000 
#    y 0.000000 2.110190 0.000000 
#    z 0.000000 0.000000 1.986160 
# 
# From -- ./inp_files/585.got.cif
#   From: 2010.05.17/outbox.cif.g08.bks.cpg/sg169_cif.got.tgz:585.got - 2010.05.20 11:12:54.
