data_PCOD9579294
_publ_section_title
;
Structure prediction by ZEFSAII (Michael W. Deem and Ramdas Pophale) SiO2 
 PCOD9579294
Probable space group: R -3 M
;
_chemical_formula_sum "Si O2"
_cell_formula_units_Z 108
_cell_length_a 21.487713
_cell_length_b 21.487713
_cell_length_c 10.697508
_cell_angle_alpha 90.000000
_cell_angle_beta 90.000000
_cell_angle_gamma 120.000000
_cell_volume 4277.535683
_symmetry_space_group_name_H-M "R -3 M"
_symmetry_group_IT_number 166
_symmetry_cell_setting 'hexagonal'
loop_
_space_group_symop_operation_xyz
x,y,z
-y,x-y,z
-x+y,-x,z
x-y,-y,-z
-x,-x+y,-z
y,x,-z
-x,-y,-z
y,-x+y,-z
x-y,x,-z
-x+y,y,z
x,x-y,z
-y,-x,z
2/3+x,1/3+y,1/3+z
2/3-y,1/3+x-y,1/3+z
2/3-x+y,1/3-x,1/3+z
2/3+x-y,1/3-y,1/3-z
2/3-x,1/3-x+y,1/3-z
2/3+y,1/3+x,1/3-z
2/3-x,1/3-y,1/3-z
2/3+y,1/3-x+y,1/3-z
2/3+x-y,1/3+x,1/3-z
2/3-x+y,1/3+y,1/3+z
2/3+x,1/3+x-y,1/3+z
2/3-y,1/3-x,1/3+z
1/3+x,2/3+y,2/3+z
1/3-y,2/3+x-y,2/3+z
1/3-x+y,2/3-x,2/3+z
1/3+x-y,2/3-y,2/3-z
1/3-x,2/3-x+y,2/3-z
1/3+y,2/3+x,2/3-z
1/3-x,2/3-y,2/3-z
1/3+y,2/3-x+y,2/3-z
1/3+x-y,2/3+x,2/3-z
1/3-x+y,2/3+y,2/3+z
1/3+x,2/3+x-y,2/3+z
1/3-y,2/3-x,2/3+z
loop_
_atom_site_type_symbol
_atom_site_label
_atom_site_fract_x
_atom_site_fract_y
_atom_site_fract_z
Si Si1 0.963897 0.410160 0.249358
Si Si2 0.000000 0.852472 0.500000
Si Si3 0.666638 0.481744 0.115808
Si Si4 0.000000 0.366396 0.000000
O O1 0.969369 0.484685 0.277061
O O2 0.881008 0.355136 0.210284
O O3 0.003750 0.411222 0.120316
O O4 0.009214 0.393724 0.349176
O O5 0.996513 0.822810 0.640003
O O6 0.929805 0.859609 0.492235
O O7 0.743871 0.487742 0.138175
O O8 0.601656 0.398345 0.123919
#
# Coordination Sequence:
#
# PCOD9579294 Si02
#       4
#    36  18  36  18
#     4  10  22  40  62  88 119 157 202 250 300 355
#     4   8  13  22  40  70 108 148 189 234 286 342
#     4   9  17  30  51  81 116 153 194 243 300 359
#     4  10  23  42  62  86 117 156 202 252 302 352
#
# _framework density 25.248182
#
# number of rings (size 3 to 8) (size 9 to 14) (size 15 to 20)
#    0.000    2.667    0.000    1.000    0.000    8.000 
#    0.000    6.667    0.000    0.000    0.000    5.833 
#    0.000    0.000    0.000    6.667    0.000    0.000 
#
# Total GULP energy -200822.989651 kJ/mol
# GULP energy per Si atom -5578.416379 kJ/mol
# Density = 2.519072 g / cm^3
# Si number density = 25.248182 Si / 1000 Ang^3
#
#
#
# Elastic Constant Matrix: (Units=GPa)
#
#
# Indices 1 2 3 4 5 6 
#
# 1 109.6688 33.2477 -6.9904 -6.6348 0.0000 0.0000
# 2 33.2477 109.6688 -6.9904 6.6348 0.0000 0.0000
# 3 -6.9904 -6.9904 77.9229 0.0000 -0.0001 0.0000
# 4 -6.6348 6.6348 0.0000 22.7119 0.0000 0.0000
# 5 0.0000 0.0000 -0.0001 0.0000 22.7118 -6.6348
# 6 0.0000 0.0000 0.0000 0.0000 -6.6348 38.2105
#
#
#
# Elastic Compliance Matrix: (Units=1/GPa)
#
#
# Indices 1 2 3 4 5 6 
#
# 1 0.010422 -0.003363 0.000633 0.004027 0.000000 0.000000
# 2 -0.003363 0.010422 0.000633 -0.004027 0.000000 0.000000
# 3 0.000633 0.000633 0.012947 0.000000 0.000000 0.000000
# 4 0.004027 -0.004027 0.000000 0.046383 0.000000 0.000000
# 5 0.000000 0.000000 0.000000 0.000000 0.046383 0.008054
# 6 0.000000 0.000000 0.000000 0.000000 0.008054 0.027569
#
#
# Mechanical properties :
#
#
# Convention : Reuss Voigt Hill
#
# Bulk Modulus (GPa) = 33.78612 37.31047 35.54829
# Shear Modulus (GPa) = 29.72946 35.25976 32.49461
#
# Velocity S-wave (km/s) = 3.43518 3.74107 3.59138
# Velocity P-wave (km/s) = 5.39857 5.78536 5.59531
#
# Compressibility (1/GPa) = 0.02959795
#
# Stress axis : x y z
#
# Youngs Moduli (GPa) = 95.95243 95.95245 77.23906
#
# Poissons Ratio (x) = 0.32267 -0.04891
# Poissons Ratio (y) = 0.32267 -0.04891
# Poissons Ratio (z) = -0.06076 -0.06076
#
# Static dielectric constant tensor:
#      x y z
#    x 2.041690 0.000000 0.000000 
#    y 0.000000 2.041690 0.000000 
#    z 0.000000 0.000000 2.075700 
# 
# From -- ./inp_files/3710.got.cif
#   From: 2010.05.17/outbox.cif.g08.bks.cpg/sg166_2_cif.got.tgz:3710.got - 2010.05.20 11:04:41.
