data_PCOD9579744
_publ_section_title
;
Structure prediction by ZEFSAII (Michael W. Deem and Ramdas Pophale) SiO2 
 PCOD9579744
Probable space group: R -3 C 
;
_chemical_formula_sum "Si O2"
_cell_formula_units_Z 48
_cell_length_a 30.000000
_cell_length_b 30.000000
_cell_length_c 9.000000
_cell_angle_alpha 90.000000
_cell_angle_beta 90.000000
_cell_angle_gamma 120.000000
_cell_volume 7014.805771
_symmetry_space_group_name_H-M "R -3 C "
_symmetry_group_IT_number 167
_symmetry_cell_setting 'hexagonal'
loop_
_space_group_symop_operation_xyz
x,y,z
-y,x-y,z
-x+y,-x,z
x-y,-y,1/2-z
-x,-x+y,1/2-z
y,x,1/2-z
-x,-y,-z
y,-x+y,-z
x-y,x,-z
-x+y,y,1/2+z
x,x-y,1/2+z
-y,-x,1/2+z
2/3+x,1/3+y,1/3+z
2/3-y,1/3+x-y,1/3+z
2/3-x+y,1/3-x,1/3+z
2/3+x-y,1/3-y,5/6-z
2/3-x,1/3-x+y,5/6-z
2/3+y,1/3+x,5/6-z
2/3-x,1/3-y,1/3-z
2/3+y,1/3-x+y,1/3-z
2/3+x-y,1/3+x,1/3-z
2/3-x+y,1/3+y,5/6+z
2/3+x,1/3+x-y,5/6+z
2/3-y,1/3-x,5/6+z
1/3+x,2/3+y,2/3+z
1/3-y,2/3+x-y,2/3+z
1/3-x+y,2/3-x,2/3+z
1/3+x-y,2/3-y,1/6-z
1/3-x,2/3-x+y,1/6-z
1/3+y,2/3+x,1/6-z
1/3-x,2/3-y,2/3-z
1/3+y,2/3-x+y,2/3-z
1/3+x-y,2/3+x,2/3-z
1/3-x+y,2/3+y,1/6+z
1/3+x,2/3+x-y,1/6+z
1/3-y,2/3-x,1/6+z
loop_
_atom_site_type_symbol
_atom_site_label
_atom_site_fract_x
_atom_site_fract_y
_atom_site_fract_z
Si Si1 0.837529 0.280953 0.881200
Si Si2 0.205042 0.813943 0.899467
Si Si3 0.700969 0.606081 0.435831
Si Si4 0.318978 0.754695 0.589027
O O1 0.819039 0.242666 0.737244
O O2 0.896319 0.328891 0.851371
O O3 0.800155 0.305073 0.895624
O O4 0.827541 0.242483 0.022215
O O5 0.166667 0.833334 0.833334
O O6 0.245707 0.852197 0.025120
O O7 0.719497 0.666667 0.416667
O O8 0.666667 0.587211 0.583334
O O9 0.333334 0.752925 0.416667
O O10 0.368095 0.764955 0.689024
#
# Coordination Sequence:
#
# PCOD9579744 Si02
#       4
#    36  36  36  36
#     4  11  24  44  70 100 137 183 235 294 356 428
#     4  11  23  43  69  98 134 179 233 291 356 432
#     4  10  23  40  61  94 134 174 225 285 350 425
#     4  12  26  45  70 102 141 186 238 296 358 427
#
# _framework density 6.84267
#
# number of rings (size 3 to 8) (size 9 to 14) (size 15 to 20)
#    0.000    1.000    0.000    6.250    0.000   10.000 
#    0.000    0.000    0.000    0.000    0.000    0.000 
#    0.000    0.000    0.000    0.000    0.000    0.000 
#
# Total GULP energy -268360.763984 kJ/mol
# GULP energy per Si atom -5590.849250 kJ/mol
# Density = 0.682710 g / cm^3
# Si number density = 6.842670 Si / 1000 Ang^3
#
#
#
# Elastic Constant Matrix: (Units=GPa)
#
#
# Indices 1 2 3 4 5 6 
#
# 1 182.3204 75.9285 54.8227 3.5139 -0.0272 0.0049
# 2 75.9285 182.3399 54.8426 -3.4999 -0.0157 0.0014
# 3 54.8227 54.8426 113.8002 0.0187 -0.0683 0.0117
# 4 3.5139 -3.4999 0.0187 49.9208 0.0151 -0.0076
# 5 -0.0272 -0.0157 -0.0683 0.0151 49.8923 3.5098
# 6 0.0049 0.0014 0.0117 -0.0076 3.5098 53.1942
#
#
#
# Elastic Compliance Matrix: (Units=1/GPa)
#
#
# Indices 1 2 3 4 5 6 
#
# 1 0.007155 -0.002287 -0.002345 -0.000663 0.000000 0.000000
# 2 -0.002287 0.007155 -0.002347 0.000663 -0.000002 0.000001
# 3 -0.002345 -0.002347 0.011048 -0.000004 0.000013 -0.000003
# 4 -0.000663 0.000663 -0.000004 0.020125 -0.000006 0.000003
# 5 0.000000 -0.000002 0.000013 -0.000006 0.020137 -0.001329
# 6 0.000000 0.000001 -0.000003 0.000003 -0.001329 0.018887
#
#
# Mechanical properties :
#
#
# Convention : Reuss Voigt Hill
#
# Bulk Modulus (GPa) = 87.70781 94.40533 91.05657
# Shear Modulus (GPa) = 48.89347 50.12590 49.50968
#
# Velocity S-wave (km/s) = 4.88566 4.94685 4.91635
# Velocity P-wave (km/s) = 8.63973 8.87225 8.75676
#
# Compressibility (1/GPa) = 0.01140149
#
# Stress axis : x y z
#
# Youngs Moduli (GPa) = 139.76072 139.76050 90.51631
#
# Poissons Ratio (x) = 0.31963 0.21223
# Poissons Ratio (y) = 0.31963 0.21240
# Poissons Ratio (z) = 0.32769 0.32796
#
# Static dielectric constant tensor:
#      x y z
#    x 1.732560 0.000000 -0.000030 
#    y 0.000000 1.732570 0.000000 
#    z -0.000030 0.000000 1.759220 
# 
# From -- ./inp_files/836.got.cif
#   From: 2010.05.17/outbox.ucp.g08.bks.cvg/sg167_1_cif.got.tgz:836.got - 2010.06.11 15:17:31.
