data_PCOD9579508
_publ_section_title
;
Structure prediction by ZEFSAII (Michael W. Deem and Ramdas Pophale) SiO2 
 PCOD9579508
Probable space group: R -3 C 
;
_chemical_formula_sum "Si O2"
_cell_formula_units_Z 126
_cell_length_a 18.039039
_cell_length_b 18.039039
_cell_length_c 21.800938
_cell_angle_alpha 90.000000
_cell_angle_beta 90.000000
_cell_angle_gamma 120.000000
_cell_volume 6143.736863
_symmetry_space_group_name_H-M "R -3 C "
_symmetry_group_IT_number 167
_symmetry_cell_setting 'hexagonal'
loop_
_space_group_symop_operation_xyz
x,y,z
-y,x-y,z
-x+y,-x,z
x-y,-y,1/2-z
-x,-x+y,1/2-z
y,x,1/2-z
-x,-y,-z
y,-x+y,-z
x-y,x,-z
-x+y,y,1/2+z
x,x-y,1/2+z
-y,-x,1/2+z
2/3+x,1/3+y,1/3+z
2/3-y,1/3+x-y,1/3+z
2/3-x+y,1/3-x,1/3+z
2/3+x-y,1/3-y,5/6-z
2/3-x,1/3-x+y,5/6-z
2/3+y,1/3+x,5/6-z
2/3-x,1/3-y,1/3-z
2/3+y,1/3-x+y,1/3-z
2/3+x-y,1/3+x,1/3-z
2/3-x+y,1/3+y,5/6+z
2/3+x,1/3+x-y,5/6+z
2/3-y,1/3-x,5/6+z
1/3+x,2/3+y,2/3+z
1/3-y,2/3+x-y,2/3+z
1/3-x+y,2/3-x,2/3+z
1/3+x-y,2/3-y,1/6-z
1/3-x,2/3-x+y,1/6-z
1/3+y,2/3+x,1/6-z
1/3-x,2/3-y,2/3-z
1/3+y,2/3-x+y,2/3-z
1/3+x-y,2/3+x,2/3-z
1/3-x+y,2/3+y,1/6+z
1/3+x,2/3+x-y,1/6+z
1/3-y,2/3-x,1/6+z
loop_
_atom_site_type_symbol
_atom_site_label
_atom_site_fract_x
_atom_site_fract_y
_atom_site_fract_z
Si Si1 0.427159 0.902849 0.389692
Si Si2 0.601367 0.934701 0.416667
Si Si3 0.531450 0.101757 0.743142
Si Si4 0.694527 0.098501 0.331441
O O1 0.333334 0.842073 0.416667
O O2 0.508187 0.922355 0.431777
O O3 0.445094 0.868114 0.326021
O O4 0.433101 0.991356 0.367801
O O5 0.638152 0.003794 0.361138
O O6 0.481140 0.135341 0.783292
O O7 0.612494 0.107721 0.777472
O O8 0.464898 0.000000 0.750000
#
# Coordination Sequence:
#
# PCOD9579508 Si02
#       4
#    36  18  36  36
#     4  11  25  41  66 100 139 177 228 283 346 409
#     4  12  22  42  68  98 134 182 220 282 354 396
#     4  10  20  39  61  95 139 166 221 285 329 398
#     4  11  20  40  68  99 132 176 222 286 338 397
#
# _framework density 20.508690999999999
#
# number of rings (size 3 to 8) (size 9 to 14) (size 15 to 20)
#    0.000    1.143   10.000    0.857    0.000    1.143 
#    6.000    0.000    0.000    0.571    0.000    0.000 
#    0.000    0.000    0.000    0.000    0.000    0.000 
#
# Total GULP energy -234089.553333 kJ/mol
# GULP energy per Si atom -5573.560794 kJ/mol
# Density = 2.046201 g / cm^3
# Si number density = 20.508691 Si / 1000 Ang^3
#
#
#
# Elastic Constant Matrix: (Units=GPa)
#
#
# Indices 1 2 3 4 5 6 
#
# 1 76.4254 45.5239 29.9782 -8.2592 0.0000 0.0000
# 2 45.5239 76.4254 29.9782 8.2592 0.0000 0.0000
# 3 29.9782 29.9782 93.9628 0.0000 0.0000 0.0000
# 4 -8.2592 8.2592 0.0000 37.9942 0.0000 0.0000
# 5 0.0000 0.0000 0.0000 0.0000 37.9942 -8.2592
# 6 0.0000 0.0000 0.0000 0.0000 -8.2592 15.4507
#
#
#
# Elastic Compliance Matrix: (Units=1/GPa)
#
#
# Indices 1 2 3 4 5 6 
#
# 1 0.023171 -0.013445 -0.003103 0.007959 0.000000 0.000000
# 2 -0.013445 0.023171 -0.003103 -0.007959 0.000000 0.000000
# 3 -0.003103 -0.003103 0.012622 0.000000 0.000000 0.000000
# 4 0.007959 -0.007959 0.000000 0.029780 0.000000 0.000000
# 5 0.000000 0.000000 0.000000 0.000000 0.029780 0.015919
# 6 0.000000 0.000000 0.000000 0.000000 0.015919 0.073231
#
#
# Mechanical properties :
#
#
# Convention : Reuss Voigt Hill
#
# Bulk Modulus (GPa) = 50.85913 50.86377 50.86145
# Shear Modulus (GPa) = 21.04278 27.71005 24.37641
#
# Velocity S-wave (km/s) = 3.20666 3.67977 3.45133
# Velocity P-wave (km/s) = 6.20990 6.55051 6.38248
#
# Compressibility (1/GPa) = 0.01966215
#
# Stress axis : x y z
#
# Youngs Moduli (GPa) = 43.15804 43.15804 79.22405
#
# Poissons Ratio (x) = 0.58026 0.24582
# Poissons Ratio (y) = 0.58026 0.24582
# Poissons Ratio (z) = 0.13392 0.13392
#
# Static dielectric constant tensor:
#      x y z
#    x 1.768530 0.000000 0.000000 
#    y 0.000000 1.768530 0.000000 
#    z 0.000000 0.000000 1.769910 
# 
# From -- ./inp_files/3059.got.cif
#   From: 2010.05.17/outbox.cif.g08.bks.cpg/sg167_2_cif.got.tgz:3059.got - 2010.05.20 11:09:15.
