data_PCOD9579719
_publ_section_title
;
Structure prediction by ZEFSAII (Michael W. Deem and Ramdas Pophale) SiO2 
 PCOD9579719
Probable space group: R -3 C 
;
_chemical_formula_sum "Si O2"
_cell_formula_units_Z 108
_cell_length_a 16.907153
_cell_length_b 16.907153
_cell_length_c 16.891779
_cell_angle_alpha 90.000000
_cell_angle_beta 90.000000
_cell_angle_gamma 120.000000
_cell_volume 4181.643338
_symmetry_space_group_name_H-M "R -3 C "
_symmetry_group_IT_number 167
_symmetry_cell_setting 'hexagonal'
loop_
_space_group_symop_operation_xyz
x,y,z
-y,x-y,z
-x+y,-x,z
x-y,-y,1/2-z
-x,-x+y,1/2-z
y,x,1/2-z
-x,-y,-z
y,-x+y,-z
x-y,x,-z
-x+y,y,1/2+z
x,x-y,1/2+z
-y,-x,1/2+z
2/3+x,1/3+y,1/3+z
2/3-y,1/3+x-y,1/3+z
2/3-x+y,1/3-x,1/3+z
2/3+x-y,1/3-y,5/6-z
2/3-x,1/3-x+y,5/6-z
2/3+y,1/3+x,5/6-z
2/3-x,1/3-y,1/3-z
2/3+y,1/3-x+y,1/3-z
2/3+x-y,1/3+x,1/3-z
2/3-x+y,1/3+y,5/6+z
2/3+x,1/3+x-y,5/6+z
2/3-y,1/3-x,5/6+z
1/3+x,2/3+y,2/3+z
1/3-y,2/3+x-y,2/3+z
1/3-x+y,2/3-x,2/3+z
1/3+x-y,2/3-y,1/6-z
1/3-x,2/3-x+y,1/6-z
1/3+y,2/3+x,1/6-z
1/3-x,2/3-y,2/3-z
1/3+y,2/3-x+y,2/3-z
1/3+x-y,2/3+x,2/3-z
1/3-x+y,2/3+y,1/6+z
1/3+x,2/3+x-y,1/6+z
1/3-y,2/3-x,1/6+z
loop_
_atom_site_type_symbol
_atom_site_label
_atom_site_fract_x
_atom_site_fract_y
_atom_site_fract_z
Si Si1 0.172840 0.680699 0.709184
Si Si2 0.032212 0.575721 0.333061
Si Si3 0.220096 0.477153 0.864206
O O1 0.255687 0.759807 0.658242
O O2 0.090050 0.699670 0.696515
O O3 0.167472 0.537308 0.532942
O O4 0.121194 0.675865 0.322597
O O5 0.065035 0.534260 0.404023
O O6 0.000000 0.523982 0.250000
O O7 0.226743 0.560076 0.916667
#
# Coordination Sequence:
#
# PCOD9579719 Si02
#       3
#    36  36  36
#     4  12  22  39  63  94 134 175 216 268 338 404
#     4   9  18  41  64  90 126 164 217 274 324 387
#     4   8  20  38  66  91 126 165 217 280 321 391
#
# _framework density 25.827166999999999
#
# number of rings (size 3 to 8) (size 9 to 14) (size 15 to 20)
#    2.000    0.000    3.333    1.333    0.000    0.000 
#    6.000    6.667    0.000    0.000    0.000    0.000 
#    0.000    0.000    0.000    0.000    0.000    0.000 
#
# Total GULP energy -200770.364844 kJ/mol
# GULP energy per Si atom -5576.954579 kJ/mol
# Density = 2.576838 g / cm^3
# Si number density = 25.827167 Si / 1000 Ang^3
#
#
#
# Elastic Constant Matrix: (Units=GPa)
#
#
# Indices 1 2 3 4 5 6 
#
# 1 85.7877 26.8308 28.8549 -0.2257 0.0000 0.0000
# 2 26.8308 85.7877 28.8549 0.2257 0.0000 0.0000
# 3 28.8549 28.8549 186.9600 0.0000 0.0000 0.0000
# 4 -0.2257 0.2257 0.0000 48.2555 0.0000 0.0000
# 5 0.0000 0.0000 0.0000 0.0000 48.2555 -0.2257
# 6 0.0000 0.0000 0.0000 0.0000 -0.2257 29.4785
#
#
#
# Elastic Compliance Matrix: (Units=1/GPa)
#
#
# Indices 1 2 3 4 5 6 
#
# 1 0.013302 -0.003660 -0.001488 0.000079 0.000000 0.000000
# 2 -0.003660 0.013302 -0.001488 -0.000079 0.000000 0.000000
# 3 -0.001488 -0.001488 0.005808 0.000000 0.000000 0.000000
# 4 0.000079 -0.000079 0.000000 0.020724 0.000000 0.000000
# 5 0.000000 0.000000 0.000000 0.000000 0.020724 0.000159
# 6 0.000000 0.000000 0.000000 0.000000 0.000159 0.033924
#
#
# Mechanical properties :
#
#
# Convention : Reuss Voigt Hill
#
# Bulk Modulus (GPa) = 52.24724 58.62406 55.43565
# Shear Modulus (GPa) = 39.23516 43.46419 41.34967
#
# Velocity S-wave (km/s) = 3.90185 4.10675 4.00561
# Velocity P-wave (km/s) = 6.36967 6.72570 6.55011
#
# Compressibility (1/GPa) = 0.01913977
#
# Stress axis : x y z
#
# Youngs Moduli (GPa) = 75.17591 75.17591 172.17366
#
# Poissons Ratio (x) = 0.27515 0.25622
# Poissons Ratio (y) = 0.27515 0.25622
# Poissons Ratio (z) = 0.11187 0.11187
#
# Static dielectric constant tensor:
#      x y z
#    x 2.009200 0.000000 0.000000 
#    y 0.000000 2.009200 0.000000 
#    z 0.000000 0.000000 2.140870 
# 
# From -- ./inp_files/3132.got.cif
#   From: 2010.05.17/outbox.cif.g08.bks.cpg/sg167_2_cif.got.tgz:3132.got - 2010.05.20 11:09:15.
