data_PCOD9579967
_publ_section_title
;
Structure prediction by ZEFSAII (Michael W. Deem and Ramdas Pophale) SiO2 
 PCOD9579967
Probable space group: P 61
;
_chemical_formula_sum "Si O2"
_cell_formula_units_Z 30
_cell_length_a 7.149217
_cell_length_b 7.149217
_cell_length_c 29.653800
_cell_angle_alpha 90.000000
_cell_angle_beta 90.000000
_cell_angle_gamma 120.000000
_cell_volume 1312.586534
_symmetry_space_group_name_H-M "P 61"
_symmetry_group_IT_number 169
_symmetry_cell_setting 'hexagonal'
loop_
_space_group_symop_operation_xyz
x,y,z
x-y,x,1/6+z
-y,x-y,1/3+z
-x,-y,1/2+z
-x+y,-x,2/3+z
y,-x+y,5/6+z
loop_
_atom_site_type_symbol
_atom_site_label
_atom_site_fract_x
_atom_site_fract_y
_atom_site_fract_z
Si Si1 0.769929 0.121215 0.767510
Si Si2 0.510143 0.690650 0.240094
Si Si3 0.954387 0.882327 0.014953
Si Si4 0.492115 0.733364 0.709903
Si Si5 0.766492 0.100399 0.173673
O O1 0.698828 0.296701 0.757825
O O2 0.943958 0.148981 0.730117
O O3 0.848112 0.080415 0.814533
O O4 0.566714 0.883452 0.754742
O O5 0.486665 0.474392 0.218435
O O6 0.642173 0.731604 0.286791
O O7 0.615529 0.882260 0.202631
O O8 0.132138 0.132498 0.016118
O O9 0.095997 0.766151 0.007261
O O10 0.270143 0.711242 0.693415
#
# Coordination Sequence:
#
# PCOD9579967 Si02
#       5
#     6   6   6   6   6
#     4   9  22  42  72  99 149 188 255 313 377 464
#     4  11  24  45  71 109 145 197 253 326 372 482
#     4  10  21  44  67 100 139 191 241 310 379 446
#     4   9  23  44  68 101 146 187 248 309 387 455
#     4  11  24  45  68 107 147 187 259 306 387 467
#
# _framework density 22.855637000000002
#
# number of rings (size 3 to 8) (size 9 to 14) (size 15 to 20)
#    1.200    0.800    0.000    2.400    2.800    1.600 
#   10.800    0.000    0.000    0.000    0.000    0.000 
#    0.000    0.000    0.000    0.000    0.000    0.000 
#
# Total GULP energy -167063.408125 kJ/mol
# GULP energy per Si atom -5568.780271 kJ/mol
# Density = 2.280362 g / cm^3
# Si number density = 22.855637 Si / 1000 Ang^3
#
#
#
# Elastic Constant Matrix: (Units=GPa)
#
#
# Indices 1 2 3 4 5 6 
#
# 1 106.1246 26.6750 42.0056 0.0000 0.0000 0.0000
# 2 26.6750 106.1246 42.0056 0.0000 0.0000 0.0000
# 3 42.0056 42.0056 128.7006 0.0000 0.0000 0.0000
# 4 0.0000 0.0000 0.0000 33.3220 0.0000 0.0000
# 5 0.0000 0.0000 0.0000 0.0000 33.3220 0.0000
# 6 0.0000 0.0000 0.0000 0.0000 0.0000 39.7248
#
#
#
# Elastic Compliance Matrix: (Units=1/GPa)
#
#
# Indices 1 2 3 4 5 6 
#
# 1 0.011038 -0.001549 -0.003097 0.000000 0.000000 0.000000
# 2 -0.001549 0.011038 -0.003097 0.000000 0.000000 0.000000
# 3 -0.003097 -0.003097 0.009792 0.000000 0.000000 0.000000
# 4 0.000000 0.000000 0.000000 0.030010 0.000000 0.000000
# 5 0.000000 0.000000 0.000000 0.000000 0.030010 0.000000
# 6 0.000000 0.000000 0.000000 0.000000 0.000000 0.025173
#
#
# Mechanical properties :
#
#
# Convention : Reuss Voigt Hill
#
# Bulk Modulus (GPa) = 61.04305 62.48025 61.76165
# Shear Modulus (GPa) = 36.22980 36.62466 36.42723
#
# Velocity S-wave (km/s) = 3.98572 4.00738 3.99657
# Velocity P-wave (km/s) = 6.92441 6.98630 6.95542
#
# Compressibility (1/GPa) = 0.01638188
#
# Stress axis : x y z
#
# Youngs Moduli (GPa) = 90.59576 90.59576 102.12722
#
# Poissons Ratio (x) = 0.14029 0.31631
# Poissons Ratio (y) = 0.14029 0.31631
# Poissons Ratio (z) = 0.28059 0.28059
#
# Static dielectric constant tensor:
#      x y z
#    x 1.888600 0.000000 0.000000 
#    y 0.000000 1.888600 0.000000 
#    z 0.000000 0.000000 1.890690 
# 
# From -- ./inp_files/1706.got.cif
#   From: 2010.05.17/outbox.cif.g08.bks.cpg/sg169_cif.got.tgz:1706.got - 2010.05.20 11:12:54.
