data_PCOD9579552
_publ_section_title
;
Structure prediction by ZEFSAII (Michael W. Deem and Ramdas Pophale) SiO2 
 PCOD9579552
Probable space group: R -3 C 
;
_chemical_formula_sum "Si O2"
_cell_formula_units_Z 120
_cell_length_a 17.746030
_cell_length_b 17.746030
_cell_length_c 21.807542
_cell_angle_alpha 90.000000
_cell_angle_beta 90.000000
_cell_angle_gamma 120.000000
_cell_volume 5947.572874
_symmetry_space_group_name_H-M "R -3 C "
_symmetry_group_IT_number 167
_symmetry_cell_setting 'hexagonal'
loop_
_space_group_symop_operation_xyz
x,y,z
-y,x-y,z
-x+y,-x,z
x-y,-y,1/2-z
-x,-x+y,1/2-z
y,x,1/2-z
-x,-y,-z
y,-x+y,-z
x-y,x,-z
-x+y,y,1/2+z
x,x-y,1/2+z
-y,-x,1/2+z
2/3+x,1/3+y,1/3+z
2/3-y,1/3+x-y,1/3+z
2/3-x+y,1/3-x,1/3+z
2/3+x-y,1/3-y,5/6-z
2/3-x,1/3-x+y,5/6-z
2/3+y,1/3+x,5/6-z
2/3-x,1/3-y,1/3-z
2/3+y,1/3-x+y,1/3-z
2/3+x-y,1/3+x,1/3-z
2/3-x+y,1/3+y,5/6+z
2/3+x,1/3+x-y,5/6+z
2/3-y,1/3-x,5/6+z
1/3+x,2/3+y,2/3+z
1/3-y,2/3+x-y,2/3+z
1/3-x+y,2/3-x,2/3+z
1/3+x-y,2/3-y,1/6-z
1/3-x,2/3-x+y,1/6-z
1/3+y,2/3+x,1/6-z
1/3-x,2/3-y,2/3-z
1/3+y,2/3-x+y,2/3-z
1/3+x-y,2/3+x,2/3-z
1/3-x+y,2/3+y,1/6+z
1/3+x,2/3+x-y,1/6+z
1/3-y,2/3-x,1/6+z
loop_
_atom_site_type_symbol
_atom_site_label
_atom_site_fract_x
_atom_site_fract_y
_atom_site_fract_z
Si Si1 0.261616 0.312466 0.187433
Si Si2 0.666668 0.333334 0.657211
Si Si3 0.367676 0.534156 0.768007
Si Si4 0.832264 0.082677 0.002316
O O1 0.274960 0.274960 0.250000
O O2 0.217660 0.237465 0.137230
O O3 0.352615 0.395867 0.167748
O O4 0.196303 0.350847 0.192830
O O5 0.666668 0.333334 0.583334
O O6 0.760956 0.400006 0.685782
O O7 0.295535 0.498955 0.714409
O O8 0.458734 0.574600 0.731402
#
# Coordination Sequence:
#
# PCOD9579552 Si02
#       4
#    36  12  36  36
#     4  11  22  39  62  92 126 159 199 249 306 358
#     4  12  24  40  59  88 129 159 196 254 310 366
#     4  11  23  40  63  90 119 161 207 249 304 359
#     4  10  21  40  66  89 118 160 209 253 288 356
#
# _framework density 20.176297999999999
#
# number of rings (size 3 to 8) (size 9 to 14) (size 15 to 20)
#    0.000    1.200    0.000    9.900    0.000    2.400 
#    0.000    9.000    0.000    0.000    0.000    0.000 
#    0.000    0.000    0.000    0.000    0.000    0.000 
#
# Total GULP energy -223580.759114 kJ/mol
# GULP energy per Si atom -5589.518978 kJ/mol
# Density = 2.013038 g / cm^3
# Si number density = 20.176298 Si / 1000 Ang^3
#
#
#
# Elastic Constant Matrix: (Units=GPa)
#
#
# Indices 1 2 3 4 5 6 
#
# 1 85.9626 53.1148 73.0247 -0.4311 -0.0002 0.0000
# 2 53.1148 85.9636 73.0236 0.4325 0.0000 -0.0001
# 3 73.0247 73.0236 161.6038 -0.0003 -0.0001 0.0000
# 4 -0.4311 0.4325 -0.0003 33.4216 0.0001 0.0001
# 5 -0.0002 0.0000 -0.0001 0.0001 33.4220 -0.4322
# 6 0.0000 -0.0001 0.0000 0.0001 -0.4322 16.4238
#
#
#
# Elastic Compliance Matrix: (Units=1/GPa)
#
#
# Indices 1 2 3 4 5 6 
#
# 1 0.022069 -0.008385 -0.006183 0.000393 0.000000 0.000000
# 2 -0.008385 0.022068 -0.006183 -0.000394 0.000000 0.000000
# 3 -0.006183 -0.006183 0.011776 0.000000 0.000000 0.000000
# 4 0.000393 -0.000394 0.000000 0.029931 0.000000 0.000000
# 5 0.000000 0.000000 0.000000 0.000000 0.029931 0.000788
# 6 0.000000 0.000000 0.000000 0.000000 0.000788 0.060908
#
#
# Mechanical properties :
#
#
# Convention : Reuss Voigt Hill
#
# Bulk Modulus (GPa) = 69.39622 81.31736 75.35679
# Shear Modulus (GPa) = 22.42281 25.61129 24.01705
#
# Velocity S-wave (km/s) = 3.33730 3.56669 3.45390
# Velocity P-wave (km/s) = 7.02280 7.57315 7.30316
#
# Compressibility (1/GPa) = 0.01441001
#
# Stress axis : x y z
#
# Youngs Moduli (GPa) = 45.31314 45.31490 84.91979
#
# Poissons Ratio (x) = 0.37997 0.52508
# Poissons Ratio (y) = 0.37996 0.52503
# Poissons Ratio (z) = 0.28018 0.28017
#
# Static dielectric constant tensor:
#      x y z
#    x 1.723650 0.000000 0.000000 
#    y 0.000000 1.723650 0.000000 
#    z 0.000000 0.000000 1.737400 
# 
# From -- ./inp_files/5064.got.cif
#   From: 2010.05.17/outbox.cif.g08.bks.cpg/sg167_3_cif.got.tgz:5064.got - 2010.05.20 11:09:15.
