data_PCOD9579806
_publ_section_title
;
Structure prediction by ZEFSAII (Michael W. Deem and Ramdas Pophale) SiO2 
 PCOD9579806
Probable space group: P 61
;
_chemical_formula_sum "Si O2"
_cell_formula_units_Z 42
_cell_length_a 17.902139
_cell_length_b 17.902139
_cell_length_c 7.950703
_cell_angle_alpha 90.000000
_cell_angle_beta 90.000000
_cell_angle_gamma 120.000000
_cell_volume 2206.713805
_symmetry_space_group_name_H-M "P 61"
_symmetry_group_IT_number 169
_symmetry_cell_setting 'hexagonal'
loop_
_space_group_symop_operation_xyz
x,y,z
x-y,x,1/6+z
-y,x-y,1/3+z
-x,-y,1/2+z
-x+y,-x,2/3+z
y,-x+y,5/6+z
loop_
_atom_site_type_symbol
_atom_site_label
_atom_site_fract_x
_atom_site_fract_y
_atom_site_fract_z
Si Si1 0.193611 0.652168 0.907860
Si Si2 0.125538 0.958262 0.346234
Si Si3 0.342530 0.121528 0.112836
Si Si4 0.642229 0.174632 0.778400
Si Si5 0.828191 0.938069 0.485920
Si Si6 0.398764 0.774682 0.932713
Si Si7 0.746492 0.079498 0.721100
O O1 0.162469 0.721450 0.893914
O O2 0.158261 0.581614 0.762213
O O3 0.298136 0.705605 0.898441
O O4 0.172816 0.611432 0.094909
O O5 0.188872 0.920167 0.362201
O O6 0.027939 0.886521 0.317794
O O7 0.151751 0.010320 0.166073
O O8 0.274285 0.111420 0.970597
O O9 0.334913 0.186234 0.249143
O O10 0.309684 0.021919 0.168410
O O11 0.600302 0.173629 0.597560
O O12 0.720659 0.273443 0.798529
O O13 0.683004 0.113348 0.774631
O O14 0.865741 0.875526 0.514252
#
# Coordination Sequence:
#
# PCOD9579806 Si02
#       7
#     6   6   6   6   6   6   6
#     4  11  20  36  58  91 115 155 205 250 303 362
#     4   9  15  27  51  86 109 149 201 253 302 369
#     4  11  19  33  56  87 119 155 202 257 312 378
#     4  11  20  36  58  91 115 155 205 250 303 362
#     4   9  15  27  51  86 109 149 201 253 302 369
#     4  10  18  34  64  84 110 158 200 246 302 364
#     4  11  19  33  56  87 119 155 202 257 312 378
#
# _framework density 19.032827999999999
#
# number of rings (size 3 to 8) (size 9 to 14) (size 15 to 20)
#    0.000    1.714   11.429    0.000    0.000    0.000 
#    2.571    0.000    0.000    0.000   66.857    0.000 
#    0.000    0.000    0.000    0.000    0.000    0.000 
#
# Total GULP energy -234087.803315 kJ/mol
# GULP energy per Si atom -5573.519127 kJ/mol
# Density = 1.898951 g / cm^3
# Si number density = 19.032828 Si / 1000 Ang^3
#
#
#
# Elastic Constant Matrix: (Units=GPa)
#
#
# Indices 1 2 3 4 5 6 
#
# 1 49.5091 -10.1486 11.8628 0.0000 0.0000 0.0000
# 2 -10.1486 49.5091 11.8628 0.0000 0.0000 0.0000
# 3 11.8628 11.8628 88.4950 0.0000 0.0000 0.0000
# 4 0.0000 0.0000 0.0000 6.8231 0.0000 0.0000
# 5 0.0000 0.0000 0.0000 0.0000 6.8231 0.0000
# 6 0.0000 0.0000 0.0000 0.0000 0.0000 29.8289
#
#
#
# Elastic Compliance Matrix: (Units=1/GPa)
#
#
# Indices 1 2 3 4 5 6 
#
# 1 0.022201 0.005439 -0.003705 0.000000 0.000000 0.000000
# 2 0.005439 0.022201 -0.003705 0.000000 0.000000 0.000000
# 3 -0.003705 -0.003705 0.012293 0.000000 0.000000 0.000000
# 4 0.000000 0.000000 0.000000 0.146560 0.000000 0.000000
# 5 0.000000 0.000000 0.000000 0.000000 0.146560 0.000000
# 6 0.000000 0.000000 0.000000 0.000000 0.000000 0.033525
#
#
# Mechanical properties :
#
#
# Convention : Reuss Voigt Hill
#
# Bulk Modulus (GPa) = 18.95660 23.85190 21.40425
# Shear Modulus (GPa) = 12.34973 20.29079 16.32026
#
# Velocity S-wave (km/s) = 2.55005 3.26865 2.93145
# Velocity P-wave (km/s) = 4.31878 5.17732 4.76742
#
# Compressibility (1/GPa) = 0.05275209
#
# Stress axis : x y z
#
# Youngs Moduli (GPa) = 45.04324 45.04324 81.34441
#
# Poissons Ratio (x) = -0.24497 0.30139
# Poissons Ratio (y) = -0.24497 0.30139
# Poissons Ratio (z) = 0.16689 0.16689
#
# Static dielectric constant tensor:
#      x y z
#    x 1.675720 0.000000 0.000000 
#    y 0.000000 1.675720 0.000000 
#    z 0.000000 0.000000 1.731170 
# 
# From -- ./inp_files/679.got.cif
#   From: 2010.05.17/outbox.cif.g08.bks.cpg/sg169_cif.got.tgz:679.got - 2010.05.20 11:12:54.
