data_PCOD9579109
_publ_section_title
;
Structure prediction by ZEFSAII (Michael W. Deem and Ramdas Pophale) SiO2 
 PCOD9579109
Probable space group: R -3 M
;
_chemical_formula_sum "Si O2"
_cell_formula_units_Z 162
_cell_length_a 23.314888
_cell_length_b 23.314888
_cell_length_c 18.508278
_cell_angle_alpha 90.000000
_cell_angle_beta 90.000000
_cell_angle_gamma 120.000000
_cell_volume 8712.911703
_symmetry_space_group_name_H-M "R -3 M"
_symmetry_group_IT_number 166
_symmetry_cell_setting 'hexagonal'
loop_
_space_group_symop_operation_xyz
x,y,z
-y,x-y,z
-x+y,-x,z
x-y,-y,-z
-x,-x+y,-z
y,x,-z
-x,-y,-z
y,-x+y,-z
x-y,x,-z
-x+y,y,z
x,x-y,z
-y,-x,z
2/3+x,1/3+y,1/3+z
2/3-y,1/3+x-y,1/3+z
2/3-x+y,1/3-x,1/3+z
2/3+x-y,1/3-y,1/3-z
2/3-x,1/3-x+y,1/3-z
2/3+y,1/3+x,1/3-z
2/3-x,1/3-y,1/3-z
2/3+y,1/3-x+y,1/3-z
2/3+x-y,1/3+x,1/3-z
2/3-x+y,1/3+y,1/3+z
2/3+x,1/3+x-y,1/3+z
2/3-y,1/3-x,1/3+z
1/3+x,2/3+y,2/3+z
1/3-y,2/3+x-y,2/3+z
1/3-x+y,2/3-x,2/3+z
1/3+x-y,2/3-y,2/3-z
1/3-x,2/3-x+y,2/3-z
1/3+y,2/3+x,2/3-z
1/3-x,2/3-y,2/3-z
1/3+y,2/3-x+y,2/3-z
1/3+x-y,2/3+x,2/3-z
1/3-x+y,2/3+y,2/3+z
1/3+x,2/3+x-y,2/3+z
1/3-y,2/3-x,2/3+z
loop_
_atom_site_type_symbol
_atom_site_label
_atom_site_fract_x
_atom_site_fract_y
_atom_site_fract_z
Si Si1 0.334765 0.533602 0.365358
Si Si2 0.567178 0.934384 0.049690
Si Si3 0.237953 0.893632 0.133557
Si Si4 0.531291 0.333334 0.333334
Si Si5 0.138487 0.638805 0.817289
O O1 0.275005 0.550010 0.364458
O O2 0.403357 0.596644 0.339754
O O3 0.310034 0.465471 0.321583
O O4 0.343873 0.515404 0.447433
O O5 0.625655 0.920268 0.073443
O O6 0.542175 0.946842 0.126130
O O7 0.593705 0.000000 0.000000
O O8 0.170550 0.829451 0.107962
O O9 0.221966 0.950633 0.156657
O O10 0.538629 0.269315 0.339793
O O11 0.492650 0.327947 0.259978
O O12 0.139335 0.569668 0.817564
#
# Coordination Sequence:
#
# PCOD9579109 Si02
#       5
#    36  36  36  18  36
#     4  11  22  38  61  91 124 158 197 246 301 358
#     4  11  22  37  62  88 119 155 201 249 299 355
#     4  10  21  38  58  84 116 155 199 244 297 357
#     4  10  19  32  50  76 110 154 199 242 294 358
#     4   9  19  34  55  79 112 153 196 241 290 349
#
# _framework density 18.593095999999999
#
# number of rings (size 3 to 8) (size 9 to 14) (size 15 to 20)
#    0.000    1.778    2.222    2.333    1.556    0.889 
#    0.000    2.222    0.000    1.333    0.000    7.778 
#    0.000    0.000    0.000    0.000    0.000    0.000 
#
# Total GULP energy -301161.348027 kJ/mol
# GULP energy per Si atom -5577.062000 kJ/mol
# Density = 1.855078 g / cm^3
# Si number density = 18.593096 Si / 1000 Ang^3
#
#
#
# Elastic Constant Matrix: (Units=GPa)
#
#
# Indices 1 2 3 4 5 6 
#
# 1 57.3700 55.5588 16.8878 -11.5666 0.0013 0.0000
# 2 55.5588 57.3700 16.8878 11.5666 -0.0013 0.0000
# 3 16.8878 16.8878 77.9914 0.0000 0.0000 0.0000
# 4 -11.5666 11.5666 0.0000 24.5796 0.0000 -0.0013
# 5 0.0013 -0.0013 0.0000 0.0000 24.5796 -11.5666
# 6 0.0000 0.0000 0.0000 -0.0013 -11.5666 0.9056
#
#
#
# Elastic Compliance Matrix: (Units=1/GPa)
#
#
# Indices 1 2 3 4 5 6 
#
# 1 -0.050363 0.059832 -0.002050 -0.051855 0.000006 0.000000
# 2 0.059832 -0.050363 -0.002050 0.051855 -0.000006 0.000000
# 3 -0.002050 -0.002050 0.013710 0.000000 0.000000 0.000000
# 4 -0.051855 0.051855 0.000000 -0.008120 0.000000 -0.000012
# 5 0.000006 -0.000006 0.000000 0.000000 -0.008120 -0.103711
# 6 0.000000 0.000000 0.000000 -0.000012 -0.103711 -0.220391
#
#
# Mechanical properties :
#
#
# Convention : Reuss Voigt Hill
#
# Bulk Modulus (GPa) = 40.90715 41.26669 41.08692
# Shear Modulus (GPa) = -11.71065 16.90609 2.59772
#
# Velocity S-wave (km/s) = -2.51238 3.01868 1.18329
# Velocity P-wave (km/s) = 3.69228 5.86453 4.90029
#
# Compressibility (1/GPa) = 0.02444560
#
# Stress axis : x y z
#
# Youngs Moduli (GPa) = -19.85567 -19.85567 72.94041
#
# Poissons Ratio (x) = 1.18800 0.14954
# Poissons Ratio (y) = 1.18800 0.14954
# Poissons Ratio (z) = -0.04071 -0.04071
#
# Static dielectric constant tensor:
#      x y z
#    x 1.643390 0.000000 0.000000 
#    y 0.000000 1.643390 0.000000 
#    z 0.000000 0.000000 1.658280 
# 
# From -- ./inp_files/5439.got.cif
#   From: 2010.05.17/outbox.cif.g08.bks.cpg/sg166_3_cif.got.tgz:5439.got - 2010.05.20 11:04:41.
