data_PCOD9579759
_publ_section_title
;
Structure prediction by ZEFSAII (Michael W. Deem and Ramdas Pophale) SiO2 
 PCOD9579759
Probable space group: P 6
;
_chemical_formula_sum "Si O2"
_cell_formula_units_Z 48
_cell_length_a 17.334484
_cell_length_b 17.334484
_cell_length_c 8.286452
_cell_angle_alpha 90.000000
_cell_angle_beta 90.000000
_cell_angle_gamma 120.000000
_cell_volume 2156.359108
_symmetry_space_group_name_H-M "P 6"
_symmetry_group_IT_number 168
_symmetry_cell_setting 'hexagonal'
loop_
_space_group_symop_operation_xyz
x,y,z
x-y,x,z
-y,x-y,z
-x,-y,z
-x+y,-x,z
y,-x+y,z
loop_
_atom_site_type_symbol
_atom_site_label
_atom_site_fract_x
_atom_site_fract_y
_atom_site_fract_z
Si Si1 0.868902 0.500749 0.384600
Si Si2 0.866416 0.367745 0.950617
Si Si3 0.703278 0.797942 0.962084
Si Si4 0.630975 0.816067 0.469055
Si Si5 0.327898 0.064941 0.780540
Si Si6 0.311300 0.815388 0.028648
Si Si7 0.923939 0.369003 0.312025
Si Si8 0.852263 0.053531 0.294975
O O1 0.826454 0.545096 0.498174
O O2 0.814030 0.479147 0.216323
O O3 0.875904 0.412860 0.416488
O O4 0.972270 0.576907 0.356945
O O5 0.769556 0.278861 0.970992
O O6 0.848201 0.448409 0.923623
O O7 0.914968 0.385412 0.123827
O O8 0.923327 0.347199 0.822986
O O9 0.608018 0.721429 0.022546
O O10 0.772205 0.827444 0.107796
O O11 0.690455 0.880045 0.916917
O O12 0.722270 0.755273 0.804866
O O13 0.662788 0.882474 0.618639
O O14 0.607259 0.870608 0.338458
O O15 0.708913 0.801405 0.399000
O O16 0.954916 0.124004 0.329959
#
# Coordination Sequence:
#
# PCOD9579759 Si02
#       8
#     6   6   6   6   6   6   6   6
#     4  10  20  37  62  95 124 163 216 267 323 388
#     4  10  20  39  60  94 125 165 213 270 318 391
#     4  11  22  43  65  96 121 169 216 269 326 405
#     4  12  24  42  64  96 132 178 211 274 337 405
#     4  11  26  40  62  93 130 168 217 263 340 399
#     4  10  19  35  66  91 125 162 219 271 326 380
#     4  10  21  38  64  91 125 166 217 268 319 388
#     4  12  25  44  73  99 133 168 225 279 342 415
#
# _framework density 22.259741999999999
#
# number of rings (size 3 to 8) (size 9 to 14) (size 15 to 20)
#    0.000    1.250    3.750    2.625    3.500    1.500 
#    5.250    0.000    0.000    0.000    0.000    0.000 
#    0.000    0.000    0.000    0.000    0.000    0.000 
#
# Total GULP energy -268227.014809 kJ/mol
# GULP energy per Si atom -5588.062809 kJ/mol
# Density = 2.220908 g / cm^3
# Si number density = 22.259742 Si / 1000 Ang^3
#
#
#
# Elastic Constant Matrix: (Units=GPa)
#
#
# Indices 1 2 3 4 5 6 
#
# 1 76.9160 21.4318 -5.0105 0.0000 0.0000 0.0000
# 2 21.4318 76.9160 -5.0105 0.0000 0.0000 0.0000
# 3 -5.0105 -5.0105 34.0806 0.0000 0.0000 0.0000
# 4 0.0000 0.0000 0.0000 24.5350 0.0000 0.0000
# 5 0.0000 0.0000 0.0000 0.0000 24.5350 0.0000
# 6 0.0000 0.0000 0.0000 0.0000 0.0000 27.7421
#
#
#
# Elastic Compliance Matrix: (Units=1/GPa)
#
#
# Indices 1 2 3 4 5 6 
#
# 1 0.014173 -0.003850 0.001518 0.000000 0.000000 0.000000
# 2 -0.003850 0.014173 0.001518 0.000000 0.000000 0.000000
# 3 0.001518 0.001518 0.029788 0.000000 0.000000 0.000000
# 4 0.000000 0.000000 0.000000 0.040758 0.000000 0.000000
# 5 0.000000 0.000000 0.000000 0.000000 0.040758 0.000000
# 6 0.000000 0.000000 0.000000 0.000000 0.000000 0.036046
#
#
# Mechanical properties :
#
#
# Convention : Reuss Voigt Hill
#
# Bulk Modulus (GPa) = 17.69780 23.41490 20.55635
# Shear Modulus (GPa) = 25.48922 27.12922 26.30922
#
# Velocity S-wave (km/s) = 3.38758 3.49486 3.44163
# Velocity P-wave (km/s) = 4.82377 5.17949 5.00479
#
# Compressibility (1/GPa) = 0.05650420
#
# Stress axis : x y z
#
# Youngs Moduli (GPa) = 70.55723 70.55723 33.57008
#
# Poissons Ratio (x) = 0.27166 -0.05095
# Poissons Ratio (y) = 0.27166 -0.05095
# Poissons Ratio (z) = -0.10708 -0.10708
#
# Static dielectric constant tensor:
#      x y z
#    x 1.826810 0.000000 0.000000 
#    y 0.000000 1.826810 0.000000 
#    z 0.000000 0.000000 1.836130 
# 
# From -- ./inp_files/340.got.cif
#   From: 2010.05.17/outbox.cif.g08.bks.cpg/sg168_cif.got.tgz:340.got - 2010.05.20 11:12:33.
