data_PCOD9579741
_publ_section_title
;
Structure prediction by ZEFSAII (Michael W. Deem and Ramdas Pophale) SiO2 
 PCOD9579741
Probable space group: R -3 C 
;
_chemical_formula_sum "Si O2"
_cell_formula_units_Z 84
_cell_length_a 30.000000
_cell_length_b 30.000000
_cell_length_c 18.000000
_cell_angle_alpha 90.000000
_cell_angle_beta 90.000000
_cell_angle_gamma 120.000000
_cell_volume 14029.611541
_symmetry_space_group_name_H-M "R -3 C "
_symmetry_group_IT_number 167
_symmetry_cell_setting 'hexagonal'
loop_
_space_group_symop_operation_xyz
x,y,z
-y,x-y,z
-x+y,-x,z
x-y,-y,1/2-z
-x,-x+y,1/2-z
y,x,1/2-z
-x,-y,-z
y,-x+y,-z
x-y,x,-z
-x+y,y,1/2+z
x,x-y,1/2+z
-y,-x,1/2+z
2/3+x,1/3+y,1/3+z
2/3-y,1/3+x-y,1/3+z
2/3-x+y,1/3-x,1/3+z
2/3+x-y,1/3-y,5/6-z
2/3-x,1/3-x+y,5/6-z
2/3+y,1/3+x,5/6-z
2/3-x,1/3-y,1/3-z
2/3+y,1/3-x+y,1/3-z
2/3+x-y,1/3+x,1/3-z
2/3-x+y,1/3+y,5/6+z
2/3+x,1/3+x-y,5/6+z
2/3-y,1/3-x,5/6+z
1/3+x,2/3+y,2/3+z
1/3-y,2/3+x-y,2/3+z
1/3-x+y,2/3-x,2/3+z
1/3+x-y,2/3-y,1/6-z
1/3-x,2/3-x+y,1/6-z
1/3+y,2/3+x,1/6-z
1/3-x,2/3-y,2/3-z
1/3+y,2/3-x+y,2/3-z
1/3+x-y,2/3+x,2/3-z
1/3-x+y,2/3+y,1/6+z
1/3+x,2/3+x-y,1/6+z
1/3-y,2/3-x,1/6+z
loop_
_atom_site_type_symbol
_atom_site_label
_atom_site_fract_x
_atom_site_fract_y
_atom_site_fract_z
Si Si1 0.209776 0.102450 0.425844
Si Si2 0.618770 0.608450 0.448327
Si Si3 0.253081 0.553109 0.190534
Si Si4 0.025285 0.259903 0.905872
Si Si5 0.613875 0.553849 0.755453
Si Si6 0.151724 0.997495 0.661713
Si Si7 0.579966 0.541424 0.306850
O O1 0.165399 0.058985 0.475810
O O2 0.241122 0.077570 0.390475
O O3 0.185908 0.124170 0.365761
O O4 0.245599 0.151452 0.478440
O O5 0.644493 0.666667 0.416667
O O6 0.591588 0.612405 0.523950
O O7 0.666119 0.596559 0.449522
O O8 0.582129 0.568589 0.384826
O O9 0.240527 0.593733 0.151266
O O10 0.228829 0.539607 0.273426
O O11 0.022142 0.212354 0.859284
O O12 0.966509 0.243486 0.927824
O O13 0.046629 0.262794 0.988834
O O14 0.575842 0.575842 0.750000
O O15 0.144861 0.000000 0.750000
O O16 0.537104 0.537104 0.250000
#
# Coordination Sequence:
#
# PCOD9579741 Si02
#       7
#    36  36  36  36  36  36  36
#     4  10  21  39  58  85 120 163 199 252 315 370
#     4  10  19  31  54  82 117 156 202 253 294 342
#     4  10  21  41  69  93 120 157 200 249 313 382
#     4  10  19  35  55  88 120 157 209 256 293 354
#     4  10  21  35  55  78 124 165 209 246 298 362
#     4  10  21  38  67  93 121 153 203 258 307 367
#     4  10  19  31  56  83 114 158 211 249 298 358
#
# _framework density 5.987336
#
# number of rings (size 3 to 8) (size 9 to 14) (size 15 to 20)
#    0.000    2.000    2.857    1.000    4.000    0.000 
#    0.000    5.000    3.143    0.000    0.000    0.000 
#    0.000    0.000    0.000    0.000    0.000    0.000 
#
# Total GULP energy -468114.130461 kJ/mol
# GULP energy per Si atom -5572.787267 kJ/mol
# Density = 0.597371 g / cm^3
# Si number density = 5.987336 Si / 1000 Ang^3
#
#
#
# Elastic Constant Matrix: (Units=GPa)
#
#
# Indices 1 2 3 4 5 6 
#
# 1 95.5103 44.1758 40.6299 2.7608 0.0000 0.0000
# 2 44.1758 95.5103 40.6299 -2.7608 0.0000 0.0000
# 3 40.6299 40.6299 103.4345 0.0000 0.0000 0.0000
# 4 2.7608 -2.7608 0.0000 21.3449 0.0000 0.0000
# 5 0.0000 0.0000 0.0000 0.0000 21.3449 2.7608
# 6 0.0000 0.0000 0.0000 0.0000 2.7608 25.6672
#
#
#
# Elastic Compliance Matrix: (Units=1/GPa)
#
#
# Indices 1 2 3 4 5 6 
#
# 1 0.014517 -0.005238 -0.003645 -0.002555 0.000000 0.000000
# 2 -0.005238 0.014517 -0.003645 0.002555 0.000000 0.000000
# 3 -0.003645 -0.003645 0.012532 0.000000 0.000000 0.000000
# 4 -0.002555 0.002555 0.000000 0.047510 0.000000 0.000000
# 5 0.000000 0.000000 0.000000 0.000000 0.047510 -0.005110
# 6 0.000000 0.000000 0.000000 0.000000 -0.005110 0.039510
#
#
# Mechanical properties :
#
#
# Convention : Reuss Voigt Hill
#
# Bulk Modulus (GPa) = 60.56867 60.59182 60.58025
# Shear Modulus (GPa) = 24.19484 24.93937 24.56711
#
# Velocity S-wave (km/s) = 3.67413 3.73024 3.70229
# Velocity P-wave (km/s) = 7.19671 7.23598 7.21637
#
# Compressibility (1/GPa) = 0.01651019
#
# Stress axis : x y z
#
# Youngs Moduli (GPa) = 68.88415 68.88415 79.79877
#
# Poissons Ratio (x) = 0.36080 0.29087
# Poissons Ratio (y) = 0.36080 0.29087
# Poissons Ratio (z) = 0.25108 0.25108
#
# Static dielectric constant tensor:
#      x y z
#    x 1.658060 0.000000 0.000000 
#    y 0.000000 1.658060 0.000000 
#    z 0.000000 0.000000 1.604650 
# 
# From -- ./inp_files/3681.got.cif
#   From: 2010.05.17/outbox.ucp.g08.bks.cvg/sg167_2_cif.got.tgz:3681.got - 2010.06.11 15:17:31.
