data_PCOD9579541
_publ_section_title
;
Structure prediction by ZEFSAII (Michael W. Deem and Ramdas Pophale) SiO2 
 PCOD9579541
Probable space group: R -3 C 
;
_chemical_formula_sum "Si O2"
_cell_formula_units_Z 126
_cell_length_a 16.812694
_cell_length_b 16.812694
_cell_length_c 22.915719
_cell_angle_alpha 90.000000
_cell_angle_beta 90.000000
_cell_angle_gamma 120.000000
_cell_volume 5609.688386
_symmetry_space_group_name_H-M "R -3 C "
_symmetry_group_IT_number 167
_symmetry_cell_setting 'hexagonal'
loop_
_space_group_symop_operation_xyz
x,y,z
-y,x-y,z
-x+y,-x,z
x-y,-y,1/2-z
-x,-x+y,1/2-z
y,x,1/2-z
-x,-y,-z
y,-x+y,-z
x-y,x,-z
-x+y,y,1/2+z
x,x-y,1/2+z
-y,-x,1/2+z
2/3+x,1/3+y,1/3+z
2/3-y,1/3+x-y,1/3+z
2/3-x+y,1/3-x,1/3+z
2/3+x-y,1/3-y,5/6-z
2/3-x,1/3-x+y,5/6-z
2/3+y,1/3+x,5/6-z
2/3-x,1/3-y,1/3-z
2/3+y,1/3-x+y,1/3-z
2/3+x-y,1/3+x,1/3-z
2/3-x+y,1/3+y,5/6+z
2/3+x,1/3+x-y,5/6+z
2/3-y,1/3-x,5/6+z
1/3+x,2/3+y,2/3+z
1/3-y,2/3+x-y,2/3+z
1/3-x+y,2/3-x,2/3+z
1/3+x-y,2/3-y,1/6-z
1/3-x,2/3-x+y,1/6-z
1/3+y,2/3+x,1/6-z
1/3-x,2/3-y,2/3-z
1/3+y,2/3-x+y,2/3-z
1/3+x-y,2/3+x,2/3-z
1/3-x+y,2/3+y,1/6+z
1/3+x,2/3+x-y,1/6+z
1/3-y,2/3-x,1/6+z
loop_
_atom_site_type_symbol
_atom_site_label
_atom_site_fract_x
_atom_site_fract_y
_atom_site_fract_z
Si Si1 0.518512 0.000000 0.750000
Si Si2 0.278682 0.055020 0.632883
Si Si3 0.809907 0.000000 0.750000
Si Si4 0.505458 0.666667 0.416667
Si Si5 0.128350 0.917153 0.984572
O O1 0.549847 0.934104 0.780310
O O2 0.446348 0.958778 0.698131
O O3 0.388826 0.100339 0.627607
O O4 0.245662 0.047431 0.698610
O O5 0.248731 0.101209 0.581470
O O6 0.910522 0.078192 0.772788
O O7 0.022866 0.858768 0.002695
#
# Coordination Sequence:
#
# PCOD9579541 Si02
#       5
#    18  36  18  18  36
#     4   9  20  40  62  91 130 172 222 277 329 404
#     4  10  23  43  67  97 132 177 225 269 339 412
#     4  11  25  46  67  99 136 180 228 273 341 404
#     4  12  25  44  69 100 138 176 220 284 334 404
#     4  10  21  39  66 101 134 174 225 285 345 406
#
# _framework density 22.461138999999999
#
# number of rings (size 3 to 8) (size 9 to 14) (size 15 to 20)
#    0.000    1.714    0.000    3.143    0.000    6.857 
#    0.000   28.571    0.000    0.000    0.000    0.000 
#    0.000    0.000    0.000    0.000    0.000    0.000 
#
# Total GULP energy -234050.310365 kJ/mol
# GULP energy per Si atom -5572.626437 kJ/mol
# Density = 2.241002 g / cm^3
# Si number density = 22.461139 Si / 1000 Ang^3
#
#
#
# Elastic Constant Matrix: (Units=GPa)
#
#
# Indices 1 2 3 4 5 6 
#
# 1 104.7388 63.1187 59.6973 -19.1207 0.0004 0.0000
# 2 63.1187 104.7388 59.6973 19.1207 -0.0004 0.0000
# 3 59.6973 59.6973 143.7706 0.0000 0.0000 0.0000
# 4 -19.1207 19.1207 0.0000 3.7578 0.0000 -0.0004
# 5 0.0004 -0.0004 0.0000 0.0000 3.7578 -19.1207
# 6 0.0000 0.0000 0.0000 -0.0004 -19.1207 20.8101
#
#
#
# Elastic Compliance Matrix: (Units=1/GPa)
#
#
# Indices 1 2 3 4 5 6 
#
# 1 0.000958 0.007496 -0.003510 -0.033265 0.000001 0.000000
# 2 0.007496 0.000958 -0.003510 0.033265 -0.000001 0.000000
# 3 -0.003510 -0.003510 0.009871 0.000000 0.000000 0.000000
# 4 -0.033265 0.033265 0.000000 -0.072408 0.000000 -0.000002
# 5 0.000001 -0.000001 0.000000 0.000000 -0.072408 -0.066530
# 6 0.000000 0.000000 0.000000 -0.000002 -0.066530 -0.013075
#
#
# Mechanical properties :
#
#
# Convention : Reuss Voigt Hill
#
# Bulk Modulus (GPa) = 78.50734 79.80830 79.15782
# Shear Modulus (GPa) = -35.01205 17.04746 -8.98229
#
# Velocity S-wave (km/s) = -3.95243 2.75794 -2.00193
# Velocity P-wave (km/s) = 3.76822 6.76391 5.47494
#
# Compressibility (1/GPa) = 0.01273766
#
# Stress axis : x y z
#
# Youngs Moduli (GPa) = 1043.40050 1043.40050 101.30873
#
# Poissons Ratio (x) = -7.82132 0.35564
# Poissons Ratio (y) = -7.82132 0.35564
# Poissons Ratio (z) = 3.66284 3.66284
#
# Static dielectric constant tensor:
#      x y z
#    x 1.891800 0.000000 0.000000 
#    y 0.000000 1.891800 0.000000 
#    z 0.000000 0.000000 1.742250 
# 
# From -- ./inp_files/3124.got.cif
#   From: 2010.05.17/outbox.cif.g08.bks.cpg/sg167_2_cif.got.tgz:3124.got - 2010.05.20 11:09:15.
