data_PCOD9579941
_publ_section_title
;
Structure prediction by ZEFSAII (Michael W. Deem and Ramdas Pophale) SiO2 
 PCOD9579941
Probable space group: P 61
;
_chemical_formula_sum "Si O2"
_cell_formula_units_Z 36
_cell_length_a 9.048570
_cell_length_b 9.048570
_cell_length_c 23.795887
_cell_angle_alpha 90.000000
_cell_angle_beta 90.000000
_cell_angle_gamma 120.000000
_cell_volume 1687.300482
_symmetry_space_group_name_H-M "P 61"
_symmetry_group_IT_number 169
_symmetry_cell_setting 'hexagonal'
loop_
_space_group_symop_operation_xyz
x,y,z
x-y,x,1/6+z
-y,x-y,1/3+z
-x,-y,1/2+z
-x+y,-x,2/3+z
y,-x+y,5/6+z
loop_
_atom_site_type_symbol
_atom_site_label
_atom_site_fract_x
_atom_site_fract_y
_atom_site_fract_z
Si Si1 0.357873 0.344792 0.198280
Si Si2 0.517137 0.196985 0.360269
Si Si3 0.422800 0.049905 0.234946
Si Si4 0.327047 0.257173 0.833387
Si Si5 0.325290 0.286432 0.077540
Si Si6 0.287478 0.852636 0.538289
O O1 0.392041 0.192594 0.207975
O O2 0.272288 0.320076 0.137699
O O3 0.223188 0.338330 0.243267
O O4 0.534529 0.523071 0.198385
O O5 0.456723 0.102741 0.300445
O O6 0.398055 0.261264 0.388850
O O7 0.562053 0.077707 0.397628
O O8 0.694972 0.378185 0.355178
O O9 0.587682 0.061997 0.203657
O O10 0.390953 0.249231 0.771061
O O11 0.173227 0.299885 0.835630
O O12 0.277286 0.083795 0.865132
#
# Coordination Sequence:
#
# PCOD9579941 Si02
#       6
#     6   6   6   6   6   6
#     4  11  22  39  61  90 126 166 209 263 332 401
#     4  10  21  38  61  92 124 167 215 268 336 405
#     4  11  21  39  64  90 124 167 219 273 326 402
#     4  11  21  39  64  90 124 167 219 273 326 402
#     4  11  22  39  61  90 126 166 209 263 332 401
#     4  10  21  38  61  92 124 167 215 268 336 405
#
# _framework density 21.335854999999999
#
# number of rings (size 3 to 8) (size 9 to 14) (size 15 to 20)
#    0.000    1.333    0.000   10.000    0.000    0.000 
#    0.000    6.667    0.000    0.000    0.000    0.000 
#    0.000    0.000    0.000    0.000    0.000    0.000 
#
# Total GULP energy -200995.232265 kJ/mol
# GULP energy per Si atom -5583.200896 kJ/mol
# Density = 2.128729 g / cm^3
# Si number density = 21.335855 Si / 1000 Ang^3
#
#
#
# Elastic Constant Matrix: (Units=GPa)
#
#
# Indices 1 2 3 4 5 6 
#
# 1 84.9597 19.6632 -0.0361 0.0000 0.0000 0.0000
# 2 19.6632 84.9597 -0.0361 0.0000 0.0000 0.0000
# 3 -0.0361 -0.0361 81.9110 0.0000 0.0000 0.0000
# 4 0.0000 0.0000 0.0000 28.0028 0.0000 0.0000
# 5 0.0000 0.0000 0.0000 0.0000 28.0028 0.0000
# 6 0.0000 0.0000 0.0000 0.0000 0.0000 32.6482
#
#
#
# Elastic Compliance Matrix: (Units=1/GPa)
#
#
# Indices 1 2 3 4 5 6 
#
# 1 0.012436 -0.002878 0.000004 0.000000 0.000000 0.000000
# 2 -0.002878 0.012436 0.000004 0.000000 0.000000 0.000000
# 3 0.000004 0.000004 0.012208 0.000000 0.000000 0.000000
# 4 0.000000 0.000000 0.000000 0.035711 0.000000 0.000000
# 5 0.000000 0.000000 0.000000 0.000000 0.035711 0.000000
# 6 0.000000 0.000000 0.000000 0.000000 0.000000 0.030630
#
#
# Mechanical properties :
#
#
# Convention : Reuss Voigt Hill
#
# Bulk Modulus (GPa) = 31.90657 32.33472 32.12064
# Shear Modulus (GPa) = 32.19178 33.21340 32.70259
#
# Velocity S-wave (km/s) = 3.88856 3.94978 3.91929
# Velocity P-wave (km/s) = 5.92858 5.99908 5.96394
#
# Compressibility (1/GPa) = 0.03134150
#
# Stress axis : x y z
#
# Youngs Moduli (GPa) = 80.40879 80.40879 81.91095
#
# Poissons Ratio (x) = 0.23144 -0.00034
# Poissons Ratio (y) = 0.23144 -0.00034
# Poissons Ratio (z) = -0.00034 -0.00034
#
# Static dielectric constant tensor:
#      x y z
#    x 1.787290 0.000000 0.000000 
#    y 0.000000 1.787290 0.000000 
#    z 0.000000 0.000000 1.810330 
# 
# From -- ./inp_files/1721.got.cif
#   From: 2010.05.17/outbox.cif.g08.bks.cpg/sg169_cif.got.tgz:1721.got - 2010.05.20 11:12:54.
