data_PCOD9579364
_publ_section_title
;
Structure prediction by ZEFSAII (Michael W. Deem and Ramdas Pophale) SiO2 
 PCOD9579364
Probable space group: R -3 M
;
_chemical_formula_sum "Si O2"
_cell_formula_units_Z 72
_cell_length_a 27.000000
_cell_length_b 27.000000
_cell_length_c 21.000000
_cell_angle_alpha 90.000000
_cell_angle_beta 90.000000
_cell_angle_gamma 120.000000
_cell_volume 13257.982907
_symmetry_space_group_name_H-M "R -3 M"
_symmetry_group_IT_number 166
_symmetry_cell_setting 'hexagonal'
loop_
_space_group_symop_operation_xyz
x,y,z
-y,x-y,z
-x+y,-x,z
x-y,-y,-z
-x,-x+y,-z
y,x,-z
-x,-y,-z
y,-x+y,-z
x-y,x,-z
-x+y,y,z
x,x-y,z
-y,-x,z
2/3+x,1/3+y,1/3+z
2/3-y,1/3+x-y,1/3+z
2/3-x+y,1/3-x,1/3+z
2/3+x-y,1/3-y,1/3-z
2/3-x,1/3-x+y,1/3-z
2/3+y,1/3+x,1/3-z
2/3-x,1/3-y,1/3-z
2/3+y,1/3-x+y,1/3-z
2/3+x-y,1/3+x,1/3-z
2/3-x+y,1/3+y,1/3+z
2/3+x,1/3+x-y,1/3+z
2/3-y,1/3-x,1/3+z
1/3+x,2/3+y,2/3+z
1/3-y,2/3+x-y,2/3+z
1/3-x+y,2/3-x,2/3+z
1/3+x-y,2/3-y,2/3-z
1/3-x,2/3-x+y,2/3-z
1/3+y,2/3+x,2/3-z
1/3-x,2/3-y,2/3-z
1/3+y,2/3-x+y,2/3-z
1/3+x-y,2/3+x,2/3-z
1/3-x+y,2/3+y,2/3+z
1/3+x,2/3+x-y,2/3+z
1/3-y,2/3-x,2/3+z
loop_
_atom_site_type_symbol
_atom_site_label
_atom_site_fract_x
_atom_site_fract_y
_atom_site_fract_z
Si Si1 0.244787 0.311218 0.487647
Si Si2 0.885404 0.999501 0.747700
Si Si3 0.939160 0.565078 0.982292
Si Si4 0.729513 0.571711 0.554743
Si Si5 0.222279 0.554952 0.260151
Si Si6 0.065568 0.238724 0.598823
O O1 0.289313 0.289313 0.500000
O O2 0.214211 0.282567 0.420741
O O3 0.275459 0.378979 0.480799
O O4 0.199975 0.285604 0.544234
O O5 0.879106 0.939553 0.765101
O O6 0.882509 0.001832 0.670426
O O7 0.839005 0.012406 0.778885
O O8 0.947890 0.052111 0.764499
O O9 0.890008 0.581085 0.978618
O O10 0.923007 0.519268 0.037366
O O11 0.000000 0.618745 0.000000
O O12 0.786688 0.573375 0.532191
O O13 0.270096 0.540191 0.238711
O O14 0.242078 0.621039 0.247115
O O15 0.157916 0.517024 0.235896
O O16 0.118891 0.237782 0.629659
#
# Coordination Sequence:
#
# PCOD9579364 Si02
#       6
#    36  36  36  36  36  36
#     4   9  19  32  42  58  84 113 141 180 228 259
#     4   9  16  26  42  65  90 113 138 173 215 257
#     4   9  18  30  42  58  81 107 138 178 222 255
#     4  10  18  28  45  65  83 108 145 183 218 259
#     4   9  16  26  41  61  87 115 145 175 208 247
#     4  10  18  29  44  62  84 110 141 174 214 265
#
# _framework density 5.4306900000000002
#
# number of rings (size 3 to 8) (size 9 to 14) (size 15 to 20)
#    0.000    2.667    1.667    0.833    0.000    5.000 
#    0.000   10.833    0.000    0.500    0.000    3.500 
#    0.000   32.667    0.000    0.000    0.000    0.000 
#
# Total GULP energy -400808.018657 kJ/mol
# GULP energy per Si atom -5566.778037 kJ/mol
# Density = 0.541833 g / cm^3
# Si number density = 5.430690 Si / 1000 Ang^3
#
#
#
# Elastic Constant Matrix: (Units=GPa)
#
#
# Indices 1 2 3 4 5 6 
#
# 1 84.6161 59.4867 9.9769 2.2509 0.0000 0.0000
# 2 59.4867 84.6161 9.9769 -2.2509 0.0000 0.0000
# 3 9.9769 9.9769 13.1658 0.0000 0.0000 0.0000
# 4 2.2509 -2.2509 0.0000 6.4203 0.0000 0.0000
# 5 0.0000 0.0000 0.0000 0.0000 6.4203 2.2509
# 6 0.0000 0.0000 0.0000 0.0000 2.2509 12.5647
#
#
#
# Elastic Compliance Matrix: (Units=1/GPa)
#
#
# Indices 1 2 3 4 5 6 
#
# 1 0.025107 -0.017354 -0.005875 -0.014886 0.000000 0.000000
# 2 -0.017354 0.025107 -0.005875 0.014886 0.000000 0.000000
# 3 -0.005875 -0.005875 0.084859 0.000000 0.000000 0.000000
# 4 -0.014886 0.014886 0.000000 0.166193 0.000000 0.000000
# 5 0.000000 0.000000 0.000000 0.000000 0.166193 -0.029773
# 6 0.000000 0.000000 0.000000 0.000000 -0.029773 0.084922
#
#
# Mechanical properties :
#
#
# Convention : Reuss Voigt Hill
#
# Bulk Modulus (GPa) = 13.00998 37.91988 25.46493
# Shear Modulus (GPa) = 7.85903 11.94491 9.90197
#
# Velocity S-wave (km/s) = 2.19871 2.71066 2.46799
# Velocity P-wave (km/s) = 3.80113 5.75521 4.87704
#
# Compressibility (1/GPa) = 0.07686407
#
# Stress axis : x y z
#
# Youngs Moduli (GPa) = 39.82965 39.82965 11.78430
#
# Poissons Ratio (x) = 0.69120 0.06923
# Poissons Ratio (y) = 0.69120 0.06923
# Poissons Ratio (z) = 0.23401 0.23401
#
# Static dielectric constant tensor:
#      x y z
#    x 1.573900 0.000000 0.000000 
#    y 0.000000 1.573900 0.000000 
#    z 0.000000 0.000000 1.563650 
# 
# From -- ./inp_files/7121.got.cif
#   From: 2010.05.17/outbox.ucp.g08.bks.cvg/sg166_4_cif.got.tgz:7121.got - 2010.06.11 15:16:39.
