data_PCOD9579560
_publ_section_title
;
Structure prediction by ZEFSAII (Michael W. Deem and Ramdas Pophale) SiO2 
 PCOD9579560
Probable space group: R -3 C 
;
_chemical_formula_sum "Si O2"
_cell_formula_units_Z 120
_cell_length_a 17.454891
_cell_length_b 17.454891
_cell_length_c 16.663037
_cell_angle_alpha 90.000000
_cell_angle_beta 90.000000
_cell_angle_gamma 120.000000
_cell_volume 4396.621432
_symmetry_space_group_name_H-M "R -3 C "
_symmetry_group_IT_number 167
_symmetry_cell_setting 'hexagonal'
loop_
_space_group_symop_operation_xyz
x,y,z
-y,x-y,z
-x+y,-x,z
x-y,-y,1/2-z
-x,-x+y,1/2-z
y,x,1/2-z
-x,-y,-z
y,-x+y,-z
x-y,x,-z
-x+y,y,1/2+z
x,x-y,1/2+z
-y,-x,1/2+z
2/3+x,1/3+y,1/3+z
2/3-y,1/3+x-y,1/3+z
2/3-x+y,1/3-x,1/3+z
2/3+x-y,1/3-y,5/6-z
2/3-x,1/3-x+y,5/6-z
2/3+y,1/3+x,5/6-z
2/3-x,1/3-y,1/3-z
2/3+y,1/3-x+y,1/3-z
2/3+x-y,1/3+x,1/3-z
2/3-x+y,1/3+y,5/6+z
2/3+x,1/3+x-y,5/6+z
2/3-y,1/3-x,5/6+z
1/3+x,2/3+y,2/3+z
1/3-y,2/3+x-y,2/3+z
1/3-x+y,2/3-x,2/3+z
1/3+x-y,2/3-y,1/6-z
1/3-x,2/3-x+y,1/6-z
1/3+y,2/3+x,1/6-z
1/3-x,2/3-y,2/3-z
1/3+y,2/3-x+y,2/3-z
1/3+x-y,2/3+x,2/3-z
1/3-x+y,2/3+y,1/6+z
1/3+x,2/3+x-y,1/6+z
1/3-y,2/3-x,1/6+z
loop_
_atom_site_type_symbol
_atom_site_label
_atom_site_fract_x
_atom_site_fract_y
_atom_site_fract_z
Si Si1 0.278884 0.158957 0.290617
Si Si2 0.666667 0.333334 0.679974
Si Si3 0.044386 0.643242 0.157980
Si Si4 0.850321 0.390676 0.964626
O O1 0.354925 0.265239 0.290914
O O2 0.300644 0.092344 0.340198
O O3 0.194438 0.156426 0.330239
O O4 0.249307 0.126369 0.199422
O O5 0.666668 0.333334 0.583334
O O6 0.568674 0.267972 0.709146
O O7 0.007140 0.673807 0.083334
O O8 0.112438 0.616577 0.120263
#
# Coordination Sequence:
#
# PCOD9579560 Si02
#       4
#    36  12  36  36
#     4  10  21  41  64  90 129 169 215 269 325 387
#     4  12  21  39  66  91 131 166 219 285 303 397
#     4  10  23  41  60  98 128 171 221 262 328 394
#     4  10  23  41  62 101 121 172 226 257 341 379
#
# _framework density 27.293683999999999
#
# number of rings (size 3 to 8) (size 9 to 14) (size 15 to 20)
#    0.000    1.800    3.000    0.900    4.200    2.400 
#   32.400    0.000    0.000    2.400    0.000    0.000 
#    0.000    0.000    0.000    0.000    0.000    0.000 
#
# Total GULP energy -223278.331246 kJ/mol
# GULP energy per Si atom -5581.958281 kJ/mol
# Density = 2.723156 g / cm^3
# Si number density = 27.293684 Si / 1000 Ang^3
#
#
#
# Elastic Constant Matrix: (Units=GPa)
#
#
# Indices 1 2 3 4 5 6 
#
# 1 108.3894 22.1659 16.7348 8.1265 -0.0006 0.0000
# 2 22.1659 108.3891 16.7348 -8.1265 0.0002 0.0000
# 3 16.7348 16.7348 57.8119 0.0002 -0.0002 0.0000
# 4 8.1265 -8.1265 0.0002 8.1933 -0.0001 0.0002
# 5 -0.0006 0.0002 -0.0002 -0.0001 8.1943 8.1268
# 6 0.0000 0.0000 0.0000 0.0002 8.1268 43.1119
#
#
#
# Elastic Compliance Matrix: (Units=1/GPa)
#
#
# Indices 1 2 3 4 5 6 
#
# 1 0.011269 -0.002996 -0.002395 -0.014148 0.000001 0.000000
# 2 -0.002996 0.011269 -0.002395 0.014149 0.000000 0.000000
# 3 -0.002395 -0.002395 0.018684 0.000000 0.000001 0.000000
# 4 -0.014148 0.014149 0.000000 0.150118 0.000001 -0.000001
# 5 0.000001 0.000000 0.000001 0.000001 0.150097 -0.028294
# 6 0.000000 0.000000 0.000000 -0.000001 -0.028294 0.028529
#
#
# Mechanical properties :
#
#
# Convention : Reuss Voigt Hill
#
# Bulk Modulus (GPa) = 38.98429 42.87350 40.92890
# Shear Modulus (GPa) = 12.68752 26.49688 19.59220
#
# Velocity S-wave (km/s) = 2.15838 3.11916 2.68214
# Velocity P-wave (km/s) = 4.53054 5.35859 4.96187
#
# Compressibility (1/GPa) = 0.02565136
#
# Stress axis : x y z
#
# Youngs Moduli (GPa) = 88.73789 88.73737 53.52166
#
# Poissons Ratio (x) = 0.26582 0.12818
# Poissons Ratio (y) = 0.26582 0.12818
# Poissons Ratio (z) = 0.21252 0.21253
#
# Static dielectric constant tensor:
#      x y z
#    x 2.214090 0.000000 0.000000 
#    y 0.000000 2.214090 0.000000 
#    z 0.000000 0.000000 2.322090 
# 
# From -- ./inp_files/5072.got.cif
#   From: 2010.05.17/outbox.cif.g08.bks.cpg/sg167_3_cif.got.tgz:5072.got - 2010.05.20 11:09:15.
