data_PCOD9579468
_publ_section_title
;
Structure prediction by ZEFSAII (Michael W. Deem and Ramdas Pophale) SiO2 
 PCOD9579468
Probable space group: R -3 C 
;
_chemical_formula_sum "Si O2"
_cell_formula_units_Z 126
_cell_length_a 29.250580
_cell_length_b 29.250580
_cell_length_c 10.138835
_cell_angle_alpha 90.000000
_cell_angle_beta 90.000000
_cell_angle_gamma 120.000000
_cell_volume 7512.554767
_symmetry_space_group_name_H-M "R -3 C "
_symmetry_group_IT_number 167
_symmetry_cell_setting 'hexagonal'
loop_
_space_group_symop_operation_xyz
x,y,z
-y,x-y,z
-x+y,-x,z
x-y,-y,1/2-z
-x,-x+y,1/2-z
y,x,1/2-z
-x,-y,-z
y,-x+y,-z
x-y,x,-z
-x+y,y,1/2+z
x,x-y,1/2+z
-y,-x,1/2+z
2/3+x,1/3+y,1/3+z
2/3-y,1/3+x-y,1/3+z
2/3-x+y,1/3-x,1/3+z
2/3+x-y,1/3-y,5/6-z
2/3-x,1/3-x+y,5/6-z
2/3+y,1/3+x,5/6-z
2/3-x,1/3-y,1/3-z
2/3+y,1/3-x+y,1/3-z
2/3+x-y,1/3+x,1/3-z
2/3-x+y,1/3+y,5/6+z
2/3+x,1/3+x-y,5/6+z
2/3-y,1/3-x,5/6+z
1/3+x,2/3+y,2/3+z
1/3-y,2/3+x-y,2/3+z
1/3-x+y,2/3-x,2/3+z
1/3+x-y,2/3-y,1/6-z
1/3-x,2/3-x+y,1/6-z
1/3+y,2/3+x,1/6-z
1/3-x,2/3-y,2/3-z
1/3+y,2/3-x+y,2/3-z
1/3+x-y,2/3+x,2/3-z
1/3-x+y,2/3+y,1/6+z
1/3+x,2/3+x-y,1/6+z
1/3-y,2/3-x,1/6+z
loop_
_atom_site_type_symbol
_atom_site_label
_atom_site_fract_x
_atom_site_fract_y
_atom_site_fract_z
Si Si1 0.719911 0.053244 0.916667
Si Si2 0.276340 0.193835 0.693337
Si Si3 0.149948 0.396160 0.390023
Si Si4 0.674897 0.573574 0.868247
O O1 0.768759 0.065078 0.821584
O O2 0.671019 0.046520 0.833031
O O3 0.332365 0.216456 0.616616
O O4 0.256422 0.133362 0.726908
O O5 0.235946 0.200764 0.599581
O O6 0.130683 0.413808 0.517213
O O7 0.136804 0.421875 0.263426
#
# Coordination Sequence:
#
# PCOD9579468 Si02
#       4
#    18  36  36  36
#     4  10  22  34  50  78  98 136 176 218 262 296
#     4  10  20  33  52  67  99 133 171 210 261 313
#     4   9  21  33  49  72  95 131 171 213 263 305
#     4  10  20  34  49  71  97 126 174 220 255 299
#
# _framework density 16.771923000000001
#
# number of rings (size 3 to 8) (size 9 to 14) (size 15 to 20)
#    0.000    2.286    0.000    1.714   12.000    9.143 
#    0.000    0.000    0.000    0.000    0.000    0.000 
#    0.000    0.000    0.000    0.857   24.000    5.714 
#
# Total GULP energy -233956.095495 kJ/mol
# GULP energy per Si atom -5570.383226 kJ/mol
# Density = 1.673375 g / cm^3
# Si number density = 16.771923 Si / 1000 Ang^3
#
#
#
# Elastic Constant Matrix: (Units=GPa)
#
#
# Indices 1 2 3 4 5 6 
#
# 1 74.0610 36.0508 33.0584 -4.1383 0.0116 0.0014
# 2 36.0508 74.0541 33.0326 4.1395 0.0032 -0.0002
# 3 33.0584 33.0326 99.7540 0.0049 0.0413 0.0039
# 4 -4.1383 4.1395 0.0049 15.6739 0.0027 0.0010
# 5 0.0116 0.0032 0.0413 0.0027 15.6934 -4.1383
# 6 0.0014 -0.0002 0.0039 0.0010 -4.1383 19.0030
#
#
#
# Elastic Compliance Matrix: (Units=1/GPa)
#
#
# Indices 1 2 3 4 5 6 
#
# 1 0.019628 -0.008290 -0.003760 0.007373 -0.000005 -0.000002
# 2 -0.008290 0.019625 -0.003751 -0.007370 0.000015 0.000005
# 3 -0.003760 -0.003751 0.012513 -0.000006 -0.000032 -0.000009
# 4 0.007373 -0.007370 -0.000006 0.067694 -0.000018 -0.000008
# 5 -0.000005 0.000015 -0.000032 -0.000018 0.067603 0.014722
# 6 -0.000002 0.000005 -0.000009 -0.000008 0.014722 0.055829
#
#
# Mechanical properties :
#
#
# Convention : Reuss Voigt Hill
#
# Bulk Modulus (GPa) = 49.59433 50.23920 49.91676
# Shear Modulus (GPa) = 17.78002 19.78921 18.78461
#
# Velocity S-wave (km/s) = 3.25946 3.43870 3.35028
# Velocity P-wave (km/s) = 6.61812 6.76650 6.69272
#
# Compressibility (1/GPa) = 0.02016360
#
# Stress axis : x y z
#
# Youngs Moduli (GPa) = 50.94727 50.95656 79.91876
#
# Poissons Ratio (x) = 0.42245 0.30048
# Poissons Ratio (y) = 0.42237 0.29975
# Poissons Ratio (z) = 0.19155 0.19112
#
# Static dielectric constant tensor:
#      x y z
#    x 1.579420 0.000000 -0.000010 
#    y 0.000000 1.579430 0.000000 
#    z -0.000010 0.000000 1.680830 
# 
# From -- ./inp_files/1514.got.cif
#   From: 2010.05.17/outbox.cif.g08.bks.cpg/sg167_1_cif.got.tgz:1514.got - 2010.05.20 11:09:15.
