data_PCOD9579811
_publ_section_title
;
Structure prediction by ZEFSAII (Michael W. Deem and Ramdas Pophale) SiO2 
 PCOD9579811
Probable space group: P 61
;
_chemical_formula_sum "Si O2"
_cell_formula_units_Z 42
_cell_length_a 17.787350
_cell_length_b 17.787350
_cell_length_c 8.075574
_cell_angle_alpha 90.000000
_cell_angle_beta 90.000000
_cell_angle_gamma 120.000000
_cell_volume 2212.720372
_symmetry_space_group_name_H-M "P 61"
_symmetry_group_IT_number 169
_symmetry_cell_setting 'hexagonal'
loop_
_space_group_symop_operation_xyz
x,y,z
x-y,x,1/6+z
-y,x-y,1/3+z
-x,-y,1/2+z
-x+y,-x,2/3+z
y,-x+y,5/6+z
loop_
_atom_site_type_symbol
_atom_site_label
_atom_site_fract_x
_atom_site_fract_y
_atom_site_fract_z
Si Si1 0.172279 0.638919 0.006630
Si Si2 0.931092 0.824776 0.347999
Si Si3 0.333290 0.071877 0.231973
Si Si4 0.652341 0.197016 0.871808
Si Si5 0.829188 0.954865 0.553679
Si Si6 0.372439 0.775060 0.015151
Si Si7 0.782929 0.128603 0.832158
O O1 0.105915 0.674378 0.012179
O O2 0.268979 0.722867 0.987975
O O3 0.174063 0.596662 0.183745
O O4 0.160300 0.576537 0.853424
O O5 0.888773 0.855173 0.205740
O O6 0.903909 0.828635 0.534383
O O7 0.894586 0.724786 0.308311
O O8 0.267452 0.066878 0.091691
O O9 0.337577 0.142162 0.369837
O O10 0.286438 0.969622 0.275802
O O11 0.611175 0.173087 0.687175
O O12 0.702368 0.302018 0.877966
O O13 0.726690 0.171733 0.886045
O O14 0.849565 0.904049 0.695635
#
# Coordination Sequence:
#
# PCOD9579811 Si02
#       7
#     6   6   6   6   6   6   6
#     4  11  21  40  66  97 124 171 224 269 336 396
#     4  10  22  42  63  97 131 173 226 270 328 399
#     4  12  24  43  66  93 135 175 215 274 339 402
#     4  11  21  40  66  97 124 171 224 269 336 396
#     4  10  22  42  63  97 131 173 226 270 328 399
#     4  10  18  36  68  96 120 162 220 274 320 400
#     4  12  24  43  66  93 135 175 215 274 339 402
#
# _framework density 18.981161
#
# number of rings (size 3 to 8) (size 9 to 14) (size 15 to 20)
#    0.000    1.143    8.571    0.000    0.000    2.286 
#   18.000    0.000    0.000    0.000    0.000    0.000 
#    0.000    0.000    0.000    0.000    0.000    0.000 
#
# Total GULP energy -233943.093378 kJ/mol
# GULP energy per Si atom -5570.073652 kJ/mol
# Density = 1.893796 g / cm^3
# Si number density = 18.981161 Si / 1000 Ang^3
#
#
#
# Elastic Constant Matrix: (Units=GPa)
#
#
# Indices 1 2 3 4 5 6 
#
# 1 43.4837 -13.0785 16.1292 0.0000 0.0000 0.0000
# 2 -13.0785 43.4837 16.1292 0.0000 0.0000 0.0000
# 3 16.1292 16.1292 110.8025 0.0000 0.0000 0.0000
# 4 0.0000 0.0000 0.0000 55.7553 0.0000 0.0000
# 5 0.0000 0.0000 0.0000 0.0000 55.7553 0.0000
# 6 0.0000 0.0000 0.0000 0.0000 0.0000 28.2811
#
#
#
# Elastic Compliance Matrix: (Units=1/GPa)
#
#
# Indices 1 2 3 4 5 6 
#
# 1 0.028288 0.010608 -0.005662 0.000000 0.000000 0.000000
# 2 0.010608 0.028288 -0.005662 0.000000 0.000000 0.000000
# 3 -0.005662 -0.005662 0.010673 0.000000 0.000000 0.000000
# 4 0.000000 0.000000 0.000000 0.017936 0.000000 0.000000
# 5 0.000000 0.000000 0.000000 0.000000 0.017936 0.000000
# 6 0.000000 0.000000 0.000000 0.000000 0.000000 0.035359
#
#
# Mechanical properties :
#
#
# Convention : Reuss Voigt Hill
#
# Bulk Modulus (GPa) = 15.19344 26.23662 20.71503
# Shear Modulus (GPa) = 30.89275 39.86435 35.37855
#
# Velocity S-wave (km/s) = 4.03866 4.58777 4.32195
# Velocity P-wave (km/s) = 5.45615 6.47426 5.98689
#
# Compressibility (1/GPa) = 0.06581786
#
# Stress axis : x y z
#
# Youngs Moduli (GPa) = 35.35079 35.35079 93.69028
#
# Poissons Ratio (x) = -0.37501 0.53047
# Poissons Ratio (y) = -0.37501 0.53047
# Poissons Ratio (z) = 0.20016 0.20016
#
# Static dielectric constant tensor:
#      x y z
#    x 1.652100 0.000000 0.000000 
#    y 0.000000 1.652100 0.000000 
#    z 0.000000 0.000000 1.679160 
# 
# From -- ./inp_files/678.got.cif
#   From: 2010.05.17/outbox.cif.g08.bks.cpg/sg169_cif.got.tgz:678.got - 2010.05.20 11:12:54.
