data_PCOD9579888
_publ_section_title
;
Structure prediction by ZEFSAII (Michael W. Deem and Ramdas Pophale) SiO2 
 PCOD9579888
Probable space group: P 61
;
_chemical_formula_sum "Si O2"
_cell_formula_units_Z 36
_cell_length_a 8.735672
_cell_length_b 8.735672
_cell_length_c 22.463032
_cell_angle_alpha 90.000000
_cell_angle_beta 90.000000
_cell_angle_gamma 120.000000
_cell_volume 1484.539118
_symmetry_space_group_name_H-M "P 61"
_symmetry_group_IT_number 169
_symmetry_cell_setting 'hexagonal'
loop_
_space_group_symop_operation_xyz
x,y,z
x-y,x,1/6+z
-y,x-y,1/3+z
-x,-y,1/2+z
-x+y,-x,2/3+z
y,-x+y,5/6+z
loop_
_atom_site_type_symbol
_atom_site_label
_atom_site_fract_x
_atom_site_fract_y
_atom_site_fract_z
Si Si1 0.432013 0.267383 0.200300
Si Si2 0.233081 0.413426 0.649322
Si Si3 0.917683 0.157689 0.275398
Si Si4 0.426939 0.077934 0.821407
Si Si5 0.118491 0.223327 0.768181
Si Si6 0.539427 0.019916 0.142875
O O1 0.579238 0.414013 0.156578
O O2 0.254505 0.225004 0.166800
O O3 0.462414 0.098876 0.193071
O O4 0.456854 0.377830 0.261451
O O5 0.093591 0.478325 0.655993
O O6 0.210496 0.291684 0.705310
O O7 0.221137 0.287119 0.597237
O O8 0.957712 0.279094 0.217277
O O9 0.710031 0.085166 0.282996
O O10 0.924742 0.976939 0.273504
O O11 0.465897 0.268748 0.795555
O O12 0.265226 0.372617 0.813434
#
# Coordination Sequence:
#
# PCOD9579888 Si02
#       6
#     6   6   6   6   6   6
#     4  10  20  37  63  92 126 169 218 272 329 394
#     4  10  21  40  64  91 128 174 218 266 328 395
#     4  11  21  39  66  95 131 176 222 276 333 395
#     4  10  22  40  64  96 133 174 223 274 335 401
#     4  10  20  37  62  92 128 169 215 268 329 395
#     4   9  20  37  59  90 128 170 216 270 332 396
#
# _framework density 24.249949000000001
#
# number of rings (size 3 to 8) (size 9 to 14) (size 15 to 20)
#    0.000    2.000    0.000    4.000    0.000    1.333 
#    0.000   13.333    0.000    0.000    0.000    0.000 
#    0.000    0.000    0.000    0.000    0.000    0.000 
#
# Total GULP energy -200436.211828 kJ/mol
# GULP energy per Si atom -5567.672551 kJ/mol
# Density = 2.419476 g / cm^3
# Si number density = 24.249949 Si / 1000 Ang^3
#
#
#
# Elastic Constant Matrix: (Units=GPa)
#
#
# Indices 1 2 3 4 5 6 
#
# 1 92.1800 26.2601 29.5746 0.0000 0.0000 0.0000
# 2 26.2601 92.1800 29.5746 0.0000 0.0000 0.0000
# 3 29.5746 29.5746 63.3876 0.0000 0.0000 0.0000
# 4 0.0000 0.0000 0.0000 37.2069 0.0000 0.0000
# 5 0.0000 0.0000 0.0000 0.0000 37.2069 0.0000
# 6 0.0000 0.0000 0.0000 0.0000 0.0000 32.9600
#
#
#
# Elastic Compliance Matrix: (Units=1/GPa)
#
#
# Indices 1 2 3 4 5 6 
#
# 1 0.013089 -0.002081 -0.005136 0.000000 0.000000 0.000000
# 2 -0.002081 0.013089 -0.005136 0.000000 0.000000 0.000000
# 3 -0.005136 -0.005136 0.020569 0.000000 0.000000 0.000000
# 4 0.000000 0.000000 0.000000 0.026877 0.000000 0.000000
# 5 0.000000 0.000000 0.000000 0.000000 0.026877 0.000000
# 6 0.000000 0.000000 0.000000 0.000000 0.000000 0.030340
#
#
# Mechanical properties :
#
#
# Convention : Reuss Voigt Hill
#
# Bulk Modulus (GPa) = 45.37079 46.50736 45.93907
# Shear Modulus (GPa) = 30.69509 32.29731 31.49620
#
# Velocity S-wave (km/s) = 3.56164 3.65341 3.60782
# Velocity P-wave (km/s) = 5.97193 6.08412 6.02829
#
# Compressibility (1/GPa) = 0.02204061
#
# Stress axis : x y z
#
# Youngs Moduli (GPa) = 76.40026 76.40026 48.61793
#
# Poissons Ratio (x) = 0.15899 0.24970
# Poissons Ratio (y) = 0.15899 0.24970
# Poissons Ratio (z) = 0.39239 0.39239
#
# Static dielectric constant tensor:
#      x y z
#    x 1.982470 0.000000 0.000000 
#    y 0.000000 1.982470 0.000000 
#    z 0.000000 0.000000 2.151020 
# 
# From -- ./inp_files/1748.got.cif
#   From: 2010.05.17/outbox.cif.g08.bks.cpg/sg169_cif.got.tgz:1748.got - 2010.05.20 11:12:54.
