data_PCOD9579591
_publ_section_title
;
Structure prediction by ZEFSAII (Michael W. Deem and Ramdas Pophale) SiO2 
 PCOD9579591
Probable space group: R -3 C 
;
_chemical_formula_sum "Si O2"
_cell_formula_units_Z 138
_cell_length_a 23.992172
_cell_length_b 23.992172
_cell_length_c 13.736031
_cell_angle_alpha 90.000000
_cell_angle_beta 90.000000
_cell_angle_gamma 120.000000
_cell_volume 6847.484004
_symmetry_space_group_name_H-M "R -3 C "
_symmetry_group_IT_number 167
_symmetry_cell_setting 'hexagonal'
loop_
_space_group_symop_operation_xyz
x,y,z
-y,x-y,z
-x+y,-x,z
x-y,-y,1/2-z
-x,-x+y,1/2-z
y,x,1/2-z
-x,-y,-z
y,-x+y,-z
x-y,x,-z
-x+y,y,1/2+z
x,x-y,1/2+z
-y,-x,1/2+z
2/3+x,1/3+y,1/3+z
2/3-y,1/3+x-y,1/3+z
2/3-x+y,1/3-x,1/3+z
2/3+x-y,1/3-y,5/6-z
2/3-x,1/3-x+y,5/6-z
2/3+y,1/3+x,5/6-z
2/3-x,1/3-y,1/3-z
2/3+y,1/3-x+y,1/3-z
2/3+x-y,1/3+x,1/3-z
2/3-x+y,1/3+y,5/6+z
2/3+x,1/3+x-y,5/6+z
2/3-y,1/3-x,5/6+z
1/3+x,2/3+y,2/3+z
1/3-y,2/3+x-y,2/3+z
1/3-x+y,2/3-x,2/3+z
1/3+x-y,2/3-y,1/6-z
1/3-x,2/3-x+y,1/6-z
1/3+y,2/3+x,1/6-z
1/3-x,2/3-y,2/3-z
1/3+y,2/3-x+y,2/3-z
1/3+x-y,2/3+x,2/3-z
1/3-x+y,2/3+y,1/6+z
1/3+x,2/3+x-y,1/6+z
1/3-y,2/3-x,1/6+z
loop_
_atom_site_type_symbol
_atom_site_label
_atom_site_fract_x
_atom_site_fract_y
_atom_site_fract_z
Si Si1 0.572702 0.657358 0.612241
Si Si2 0.333334 0.666667 0.550009
Si Si3 0.123746 0.557433 0.185428
Si Si4 0.693155 0.693155 0.750000
Si Si5 0.323368 0.539800 0.311140
O O1 0.509208 0.595955 0.657671
O O2 0.567684 0.722446 0.597909
O O3 0.628778 0.678362 0.692253
O O4 0.589815 0.640045 0.506676
O O5 0.333335 0.666668 0.666667
O O6 0.376123 0.739119 0.514608
O O7 0.182124 0.610584 0.250337
O O8 0.149325 0.546389 0.083718
O O9 0.333334 0.519674 0.416667
#
# Coordination Sequence:
#
# PCOD9579591 Si02
#       5
#    36  12  36  18  36
#     4  10  23  44  68  96 131 168 213 278 319 397
#     4  12  16  29  46  70 125 166 193 251 310 364
#     4  10  22  41  62  95 129 163 215 264 325 394
#     4  10  24  44  64  94 126 168 232 274 322 370
#     4  11  21  33  55  92 126 169 211 260 310 401
#
# _framework density 20.153389000000001
#
# number of rings (size 3 to 8) (size 9 to 14) (size 15 to 20)
#    0.000    1.565    2.609    2.348    3.652    3.130 
#   18.783    0.000    0.000    0.000    0.000    0.000 
#    0.000    0.000    0.000    0.000    0.000    0.000 
#
# Total GULP energy -256270.830131 kJ/mol
# GULP energy per Si atom -5571.105003 kJ/mol
# Density = 2.010752 g / cm^3
# Si number density = 20.153389 Si / 1000 Ang^3
#
#
#
# Elastic Constant Matrix: (Units=GPa)
#
#
# Indices 1 2 3 4 5 6 
#
# 1 71.6210 5.5821 22.7429 1.8754 0.0001 0.0000
# 2 5.5821 71.6218 22.7429 -1.8757 -0.0001 0.0000
# 3 22.7429 22.7429 138.6842 0.0002 0.0000 0.0000
# 4 1.8754 -1.8757 0.0002 3.8347 0.0000 -0.0001
# 5 0.0001 -0.0001 0.0000 0.0000 3.8348 1.8755
# 6 0.0000 0.0000 0.0000 -0.0001 1.8755 33.0196
#
#
#
# Elastic Compliance Matrix: (Units=1/GPa)
#
#
# Indices 1 2 3 4 5 6 
#
# 1 0.014957 -0.000619 -0.002351 -0.007617 0.000000 0.000000
# 2 -0.000619 0.014957 -0.002351 0.007619 0.000000 0.000000
# 3 -0.002351 -0.002351 0.007982 -0.000001 0.000000 0.000000
# 4 -0.007617 0.007619 -0.000001 0.268230 0.000000 0.000001
# 5 0.000000 0.000000 0.000000 0.000000 0.268220 -0.015235
# 6 0.000000 0.000000 0.000000 0.000001 -0.015235 0.031150
#
#
# Mechanical properties :
#
#
# Convention : Reuss Voigt Hill
#
# Bulk Modulus (GPa) = 36.69355 42.67365 39.68360
# Shear Modulus (GPa) = 7.99716 23.52843 15.76280
#
# Velocity S-wave (km/s) = 1.99418 3.42053 2.79971
# Velocity P-wave (km/s) = 4.85273 6.06798 5.49406
#
# Compressibility (1/GPa) = 0.02725275
#
# Stress axis : x y z
#
# Youngs Moduli (GPa) = 66.85965 66.86011 125.28484
#
# Poissons Ratio (x) = 0.04136 0.29458
# Poissons Ratio (y) = 0.04136 0.29458
# Poissons Ratio (z) = 0.15721 0.15721
#
# Static dielectric constant tensor:
#      x y z
#    x 1.741890 0.000000 0.000000 
#    y 0.000000 1.741880 0.000000 
#    z 0.000000 0.000000 1.765300 
# 
# From -- ./inp_files/1453.got.cif
#   From: 2010.05.17/outbox.cif.g08.bks.cpg/sg167_1_cif.got.tgz:1453.got - 2010.05.20 11:09:15.
