data_PCOD9579135
_publ_section_title
;
Structure prediction by ZEFSAII (Michael W. Deem and Ramdas Pophale) SiO2 
 PCOD9579135
Probable space group: R -3 M
;
_chemical_formula_sum "Si O2"
_cell_formula_units_Z 252
_cell_length_a 28.743384
_cell_length_b 28.743384
_cell_length_c 20.137976
_cell_angle_alpha 90.000000
_cell_angle_beta 90.000000
_cell_angle_gamma 120.000000
_cell_volume 14408.615245
_symmetry_space_group_name_H-M "R -3 M"
_symmetry_group_IT_number 166
_symmetry_cell_setting 'hexagonal'
loop_
_space_group_symop_operation_xyz
x,y,z
-y,x-y,z
-x+y,-x,z
x-y,-y,-z
-x,-x+y,-z
y,x,-z
-x,-y,-z
y,-x+y,-z
x-y,x,-z
-x+y,y,z
x,x-y,z
-y,-x,z
2/3+x,1/3+y,1/3+z
2/3-y,1/3+x-y,1/3+z
2/3-x+y,1/3-x,1/3+z
2/3+x-y,1/3-y,1/3-z
2/3-x,1/3-x+y,1/3-z
2/3+y,1/3+x,1/3-z
2/3-x,1/3-y,1/3-z
2/3+y,1/3-x+y,1/3-z
2/3+x-y,1/3+x,1/3-z
2/3-x+y,1/3+y,1/3+z
2/3+x,1/3+x-y,1/3+z
2/3-y,1/3-x,1/3+z
1/3+x,2/3+y,2/3+z
1/3-y,2/3+x-y,2/3+z
1/3-x+y,2/3-x,2/3+z
1/3+x-y,2/3-y,2/3-z
1/3-x,2/3-x+y,2/3-z
1/3+y,2/3+x,2/3-z
1/3-x,2/3-y,2/3-z
1/3+y,2/3-x+y,2/3-z
1/3+x-y,2/3+x,2/3-z
1/3-x+y,2/3+y,2/3+z
1/3+x,2/3+x-y,2/3+z
1/3-y,2/3-x,2/3+z
loop_
_atom_site_type_symbol
_atom_site_label
_atom_site_fract_x
_atom_site_fract_y
_atom_site_fract_z
Si Si1 0.872794 0.382044 0.863453
Si Si2 0.102636 0.496137 0.408495
Si Si3 0.231865 0.881142 0.128531
Si Si4 0.477485 0.185764 0.651760
Si Si5 0.393332 0.999149 0.342661
Si Si6 0.026613 0.459861 0.933136
Si Si7 0.278646 0.086179 0.122704
O O1 0.872179 0.436090 0.860089
O O2 0.820197 0.333334 0.833334
O O3 0.921465 0.391889 0.815364
O O4 0.875905 0.372243 0.940845
O O5 0.089931 0.544966 0.397845
O O6 0.159974 0.511202 0.377460
O O7 0.057680 0.440497 0.373791
O O8 0.099072 0.485681 0.487849
O O9 0.173099 0.826902 0.120650
O O10 0.233444 0.913438 0.194766
O O11 0.247609 0.915436 0.062168
O O12 0.499823 0.249912 0.652957
O O13 0.423152 0.159863 0.609114
O O14 0.344973 0.011640 0.333334
O O15 0.435370 0.043872 0.394220
O O16 0.004611 0.502306 0.929768
O O17 0.000000 0.426629 0.000000
O O18 0.271368 0.135684 0.099076
O O19 0.333334 0.112715 0.166667
#
# Coordination Sequence:
#
# PCOD9579135 Si02
#       7
#    36  36  36  36  36  36  36
#     4  10  20  34  51  74  98 131 173 218 267 321
#     4  10  21  39  60  76 104 151 188 220 275 342
#     4  10  19  33  52  70  98 139 177 216 269 320
#     4  10  20  34  54  79 104 128 172 228 273 327
#     4  11  22  33  48  79 108 140 189 238 265 302
#     4   9  16  30  50  73 102 136 167 208 271 327
#     4   8  16  34  55  71  96 139 188 229 266 315
#
# _framework density 17.489536999999999
#
# number of rings (size 3 to 8) (size 9 to 14) (size 15 to 20)
#    0.000    2.286    1.429    3.000    2.000    2.286 
#    2.571    0.000    0.000    0.429    0.000    0.000 
#    0.000    0.000    0.000    0.000    0.000    5.714 
#
# Total GULP energy -467791.904156 kJ/mol
# GULP energy per Si atom -5568.951240 kJ/mol
# Density = 1.744973 g / cm^3
# Si number density = 17.489537 Si / 1000 Ang^3
#
#
#
# Elastic Constant Matrix: (Units=GPa)
#
#
# Indices 1 2 3 4 5 6 
#
# 1 -168.8153 237.1901 35.7598 66.6100 0.0163 0.0000
# 2 237.1901 -168.8153 35.7598 -66.6100 -0.0163 0.0000
# 3 35.7598 35.7598 120.3452 0.0000 0.0000 0.0000
# 4 66.6100 -66.6100 0.0000 2.7868 0.0000 -0.0163
# 5 0.0163 -0.0163 0.0000 0.0000 2.7868 66.6100
# 6 0.0000 0.0000 0.0000 -0.0163 66.6100 -203.0027
#
#
#
# Elastic Compliance Matrix: (Units=1/GPa)
#
#
# Indices 1 2 3 4 5 6 
#
# 1 0.010471 0.010750 -0.006306 0.006658 0.000002 0.000000
# 2 0.010750 0.010471 -0.006306 -0.006658 -0.000002 0.000000
# 3 -0.006306 -0.006306 0.012057 0.000000 0.000000 0.000000
# 4 0.006658 -0.006658 0.000000 0.040579 0.000000 -0.000003
# 5 0.000002 -0.000002 0.000000 0.000000 0.040579 0.013315
# 6 0.000000 0.000000 0.000000 -0.000003 0.013315 -0.000557
#
#
# Mechanical properties :
#
#
# Convention : Reuss Voigt Hill
#
# Bulk Modulus (GPa) = 34.15762 44.45935 39.30849
# Shear Modulus (GPa) = 39.34442 -74.55218 -17.60388
#
# Velocity S-wave (km/s) = 4.74814 -6.53600 -3.17604
# Velocity P-wave (km/s) = 7.04503 5.61100 3.01241
#
# Compressibility (1/GPa) = 0.02927604
#
# Stress axis : x y z
#
# Youngs Moduli (GPa) = 95.49988 95.49988 82.94066
#
# Poissons Ratio (x) = -1.02660 0.52300
# Poissons Ratio (y) = -1.02660 0.52300
# Poissons Ratio (z) = 0.60219 0.60219
#
# Static dielectric constant tensor:
#      x y z
#    x 1.640130 0.000000 0.000000 
#    y 0.000000 1.640130 0.000000 
#    z 0.000000 0.000000 1.622620 
# 
# From -- ./inp_files/5840.got.cif
#   From: 2010.05.17/outbox.cif.g08.bks.cpg/sg166_3_cif.got.tgz:5840.got - 2010.05.20 11:04:41.
