data_PCOD9579489
_publ_section_title
;
Structure prediction by ZEFSAII (Michael W. Deem and Ramdas Pophale) SiO2 
 PCOD9579489
Probable space group: R -3 C 
;
_chemical_formula_sum "Si O2"
_cell_formula_units_Z 216
_cell_length_a 22.583870
_cell_length_b 22.583870
_cell_length_c 23.242778
_cell_angle_alpha 90.000000
_cell_angle_beta 90.000000
_cell_angle_gamma 120.000000
_cell_volume 10266.334164
_symmetry_space_group_name_H-M "R -3 C "
_symmetry_group_IT_number 167
_symmetry_cell_setting 'hexagonal'
loop_
_space_group_symop_operation_xyz
x,y,z
-y,x-y,z
-x+y,-x,z
x-y,-y,1/2-z
-x,-x+y,1/2-z
y,x,1/2-z
-x,-y,-z
y,-x+y,-z
x-y,x,-z
-x+y,y,1/2+z
x,x-y,1/2+z
-y,-x,1/2+z
2/3+x,1/3+y,1/3+z
2/3-y,1/3+x-y,1/3+z
2/3-x+y,1/3-x,1/3+z
2/3+x-y,1/3-y,5/6-z
2/3-x,1/3-x+y,5/6-z
2/3+y,1/3+x,5/6-z
2/3-x,1/3-y,1/3-z
2/3+y,1/3-x+y,1/3-z
2/3+x-y,1/3+x,1/3-z
2/3-x+y,1/3+y,5/6+z
2/3+x,1/3+x-y,5/6+z
2/3-y,1/3-x,5/6+z
1/3+x,2/3+y,2/3+z
1/3-y,2/3+x-y,2/3+z
1/3-x+y,2/3-x,2/3+z
1/3+x-y,2/3-y,1/6-z
1/3-x,2/3-x+y,1/6-z
1/3+y,2/3+x,1/6-z
1/3-x,2/3-y,2/3-z
1/3+y,2/3-x+y,2/3-z
1/3+x-y,2/3+x,2/3-z
1/3-x+y,2/3+y,1/6+z
1/3+x,2/3+x-y,1/6+z
1/3-y,2/3-x,1/6+z
loop_
_atom_site_type_symbol
_atom_site_label
_atom_site_fract_x
_atom_site_fract_y
_atom_site_fract_z
Si Si1 0.996767 0.132145 0.978561
Si Si2 0.649313 0.590717 0.855676
Si Si3 0.195502 0.541981 0.508214
Si Si4 0.708465 0.886212 0.642603
Si Si5 0.650882 0.186641 0.147445
Si Si6 0.693702 0.601847 0.988346
O O1 0.999726 0.200877 0.000924
O O2 0.993743 0.130311 0.909212
O O3 0.065430 0.133754 0.997583
O O4 0.569575 0.564175 0.853582
O O5 0.671122 0.597423 0.922082
O O6 0.691551 0.663528 0.823526
O O7 0.260246 0.543353 0.477660
O O8 0.195096 0.612100 0.503020
O O9 0.125607 0.474920 0.487173
O O10 0.666667 0.871879 0.583334
O O11 0.785183 0.950178 0.646951
O O12 0.714664 0.819917 0.655845
O O13 0.666667 0.171556 0.083334
#
# Coordination Sequence:
#
# PCOD9579489 Si02
#       6
#    36  36  36  36  36  36
#     4  11  22  33  59  97 136 168 210 273 345 402
#     4  10  20  36  65  85 127 166 211 250 328 384
#     4  10  22  40  63  92 131 172 220 269 327 399
#     4  11  23  40  66  95 128 169 217 270 329 396
#     4  11  24  42  67  93 127 175 226 271 327 388
#     4   9  20  41  63  89 127 167 206 266 321 390
#
# _framework density 21.039642000000001
#
# number of rings (size 3 to 8) (size 9 to 14) (size 15 to 20)
#    0.000    1.667    1.667    3.000    9.333    0.000 
#    0.000    4.167    0.000    0.000    0.000    0.000 
#    0.000    0.000    0.000    0.000    0.000    0.000 
#
# Total GULP energy -401977.599079 kJ/mol
# GULP energy per Si atom -5583.022209 kJ/mol
# Density = 2.099175 g / cm^3
# Si number density = 21.039642 Si / 1000 Ang^3
#
#
#
# Elastic Constant Matrix: (Units=GPa)
#
#
# Indices 1 2 3 4 5 6 
#
# 1 68.9343 3.7672 0.2133 11.9495 -0.0011 0.0000
# 2 3.7672 68.9343 0.2133 -11.9495 0.0011 0.0000
# 3 0.2133 0.2133 37.7261 0.0000 0.0000 0.0000
# 4 11.9495 -11.9495 0.0000 14.0245 0.0000 0.0011
# 5 -0.0011 0.0011 0.0000 0.0000 14.0245 11.9495
# 6 0.0000 0.0000 0.0000 0.0011 11.9495 32.5835
#
#
#
# Elastic Compliance Matrix: (Units=1/GPa)
#
#
# Indices 1 2 3 4 5 6 
#
# 1 0.018037 -0.004282 -0.000078 -0.019017 0.000002 0.000000
# 2 -0.004282 0.018037 -0.000078 0.019017 -0.000002 0.000000
# 3 -0.000078 -0.000078 0.026508 0.000000 0.000000 0.000000
# 4 -0.019017 0.019017 0.000000 0.103711 0.000000 -0.000004
# 5 0.000002 -0.000002 0.000000 0.000000 0.103711 -0.038034
# 6 0.000000 0.000000 0.000000 -0.000004 -0.038034 0.044639
#
#
# Mechanical properties :
#
#
# Convention : Reuss Voigt Hill
#
# Bulk Modulus (GPa) = 18.61942 20.44245 19.53093
# Shear Modulus (GPa) = 14.64473 23.55323 19.09898
#
# Velocity S-wave (km/s) = 2.64115 3.34948 3.01618
# Velocity P-wave (km/s) = 4.26260 4.96950 4.62956
#
# Compressibility (1/GPa) = 0.05370737
#
# Stress axis : x y z
#
# Youngs Moduli (GPa) = 55.44052 55.44052 37.72486
#
# Poissons Ratio (x) = 0.23740 0.00293
# Poissons Ratio (y) = 0.23740 0.00293
# Poissons Ratio (z) = 0.00431 0.00431
#
# Static dielectric constant tensor:
#      x y z
#    x 1.758690 0.000000 0.000000 
#    y 0.000000 1.758690 0.000000 
#    z 0.000000 0.000000 1.776030 
# 
# From -- ./inp_files/5528.got.cif
#   From: 2010.05.17/outbox.cif.g08.bks.cpg/sg167_3_cif.got.tgz:5528.got - 2010.05.20 11:09:15.
