data_PCOD9579903
_publ_section_title
;
Structure prediction by ZEFSAII (Michael W. Deem and Ramdas Pophale) SiO2 
 PCOD9579903
Probable space group: P 61
;
_chemical_formula_sum "Si O2"
_cell_formula_units_Z 42
_cell_length_a 16.988533
_cell_length_b 16.988533
_cell_length_c 7.844790
_cell_angle_alpha 90.000000
_cell_angle_beta 90.000000
_cell_angle_gamma 120.000000
_cell_volume 1960.756712
_symmetry_space_group_name_H-M "P 61"
_symmetry_group_IT_number 169
_symmetry_cell_setting 'hexagonal'
loop_
_space_group_symop_operation_xyz
x,y,z
x-y,x,1/6+z
-y,x-y,1/3+z
-x,-y,1/2+z
-x+y,-x,2/3+z
y,-x+y,5/6+z
loop_
_atom_site_type_symbol
_atom_site_label
_atom_site_fract_x
_atom_site_fract_y
_atom_site_fract_z
Si Si1 0.739428 0.684763 0.587710
Si Si2 0.806874 0.933348 0.145157
Si Si3 0.385894 0.491487 0.508330
Si Si4 0.215239 0.782984 0.990201
Si Si5 0.045114 0.184331 0.460474
Si Si6 0.042147 0.448654 0.385493
Si Si7 0.388082 0.676757 0.457187
O O1 0.790761 0.725400 0.411710
O O2 0.793643 0.648708 0.703054
O O3 0.748838 0.770414 0.694069
O O4 0.632101 0.612025 0.583563
O O5 0.848004 0.883643 0.260758
O O6 0.776625 0.877788 0.968088
O O7 0.277308 0.436133 0.486289
O O8 0.449424 0.516501 0.672081
O O9 0.418743 0.438692 0.384672
O O10 0.405687 0.591653 0.450367
O O11 0.310087 0.864995 0.054978
O O12 0.242508 0.725158 0.860526
O O13 0.099391 0.149844 0.347894
O O14 0.317908 0.665384 0.608849
#
# Coordination Sequence:
#
# PCOD9579903 Si02
#       7
#     6   6   6   6   6   6   6
#     4  11  21  37  58  82 120 167 199 254 330 372
#     4  10  21  34  53  82 115 154 212 256 301 372
#     4   9  20  39  59  94 120 158 205 250 320 382
#     4   9  19  38  62  88 119 164 210 252 321 389
#     4  10  21  34  53  81 114 157 210 257 306 366
#     4  10  20  40  64  85 127 161 198 262 316 390
#     4   9  18  38  65  94 127 159 212 263 318 391
#
# _framework density 21.420302
#
# number of rings (size 3 to 8) (size 9 to 14) (size 15 to 20)
#    0.000    2.286    0.000    2.571    0.000    6.857 
#   23.143   12.857    6.286    0.000    0.000    0.000 
#    0.000    0.000    0.000    0.000    0.000    0.000 
#
# Total GULP energy -234005.394389 kJ/mol
# GULP energy per Si atom -5571.557009 kJ/mol
# Density = 2.137155 g / cm^3
# Si number density = 21.420302 Si / 1000 Ang^3
#
#
#
# Elastic Constant Matrix: (Units=GPa)
#
#
# Indices 1 2 3 4 5 6 
#
# 1 63.1430 20.1657 24.7047 0.0000 0.0000 0.0000
# 2 20.1657 63.1430 24.7047 0.0000 0.0000 0.0000
# 3 24.7047 24.7047 44.7576 0.0000 0.0000 0.0000
# 4 0.0000 0.0000 0.0000 22.8775 0.0000 0.0000
# 5 0.0000 0.0000 0.0000 0.0000 22.8775 0.0000
# 6 0.0000 0.0000 0.0000 0.0000 0.0000 21.4887
#
#
#
# Elastic Compliance Matrix: (Units=1/GPa)
#
#
# Indices 1 2 3 4 5 6 
#
# 1 0.020557 -0.002711 -0.009850 0.000000 0.000000 0.000000
# 2 -0.002711 0.020557 -0.009850 0.000000 0.000000 0.000000
# 3 -0.009850 -0.009850 0.033217 0.000000 0.000000 0.000000
# 4 0.000000 0.000000 0.000000 0.043711 0.000000 0.000000
# 5 0.000000 0.000000 0.000000 0.000000 0.043711 0.000000
# 6 0.000000 0.000000 0.000000 0.000000 0.000000 0.046536
#
#
# Mechanical properties :
#
#
# Convention : Reuss Voigt Hill
#
# Bulk Modulus (GPa) = 33.89028 34.46598 34.17813
# Shear Modulus (GPa) = 19.01521 20.21329 19.61425
#
# Velocity S-wave (km/s) = 2.98269 3.07522 3.02931
# Velocity P-wave (km/s) = 5.26478 5.36047 5.31284
#
# Compressibility (1/GPa) = 0.02950699
#
# Stress axis : x y z
#
# Youngs Moduli (GPa) = 48.64566 48.64566 30.10552
#
# Poissons Ratio (x) = 0.13189 0.29654
# Poissons Ratio (y) = 0.13189 0.29654
# Poissons Ratio (z) = 0.47917 0.47917
#
# Static dielectric constant tensor:
#      x y z
#    x 1.827640 0.000000 0.000000 
#    y 0.000000 1.827640 0.000000 
#    z 0.000000 0.000000 1.785710 
# 
# From -- ./inp_files/712.got.cif
#   From: 2010.05.17/outbox.cif.g08.bks.cpg/sg169_cif.got.tgz:712.got - 2010.05.20 11:12:54.
