data_PCOD9579117
_publ_section_title
;
Structure prediction by ZEFSAII (Michael W. Deem and Ramdas Pophale) SiO2 
 PCOD9579117
Probable space group: R -3 M
;
_chemical_formula_sum "Si O2"
_cell_formula_units_Z 162
_cell_length_a 25.121584
_cell_length_b 25.121584
_cell_length_c 16.838291
_cell_angle_alpha 90.000000
_cell_angle_beta 90.000000
_cell_angle_gamma 120.000000
_cell_volume 9202.857170
_symmetry_space_group_name_H-M "R -3 M"
_symmetry_group_IT_number 166
_symmetry_cell_setting 'hexagonal'
loop_
_space_group_symop_operation_xyz
x,y,z
-y,x-y,z
-x+y,-x,z
x-y,-y,-z
-x,-x+y,-z
y,x,-z
-x,-y,-z
y,-x+y,-z
x-y,x,-z
-x+y,y,z
x,x-y,z
-y,-x,z
2/3+x,1/3+y,1/3+z
2/3-y,1/3+x-y,1/3+z
2/3-x+y,1/3-x,1/3+z
2/3+x-y,1/3-y,1/3-z
2/3-x,1/3-x+y,1/3-z
2/3+y,1/3+x,1/3-z
2/3-x,1/3-y,1/3-z
2/3+y,1/3-x+y,1/3-z
2/3+x-y,1/3+x,1/3-z
2/3-x+y,1/3+y,1/3+z
2/3+x,1/3+x-y,1/3+z
2/3-y,1/3-x,1/3+z
1/3+x,2/3+y,2/3+z
1/3-y,2/3+x-y,2/3+z
1/3-x+y,2/3-x,2/3+z
1/3+x-y,2/3-y,2/3-z
1/3-x,2/3-x+y,2/3-z
1/3+y,2/3+x,2/3-z
1/3-x,2/3-y,2/3-z
1/3+y,2/3-x+y,2/3-z
1/3+x-y,2/3+x,2/3-z
1/3-x+y,2/3+y,2/3+z
1/3+x,2/3+x-y,2/3+z
1/3-y,2/3-x,2/3+z
loop_
_atom_site_type_symbol
_atom_site_label
_atom_site_fract_x
_atom_site_fract_y
_atom_site_fract_z
Si Si1 0.298309 0.337184 0.581528
Si Si2 0.615845 0.111593 0.700368
Si Si3 0.707798 0.540015 0.411159
Si Si4 0.666667 0.215463 0.833334
Si Si5 0.460605 0.667677 0.431913
O O1 0.326877 0.326877 0.500000
O O2 0.333334 0.347811 0.666667
O O3 0.233465 0.276552 0.599492
O O4 0.291381 0.396997 0.568266
O O5 0.544410 0.088819 0.683785
O O6 0.639281 0.164266 0.766469
O O7 0.654407 0.149359 0.623812
O O8 0.776646 0.553292 0.397540
O O9 0.666667 0.512859 0.333334
O O10 0.678811 0.489901 0.480916
O O11 0.612588 0.225176 0.866296
O O12 0.458474 0.729237 0.409574
O O13 0.392760 0.607240 0.427209
#
# Coordination Sequence:
#
# PCOD9579117 Si02
#       5
#    36  36  36  18  36
#     4  11  22  38  58  81 111 148 191 236 280 329
#     4  10  20  35  54  77 110 145 179 222 271 321
#     4  10  21  37  57  81 109 143 185 234 286 337
#     4  10  19  32  52  76 106 140 175 214 260 316
#     4  10  20  35  56  83 113 145 182 226 280 341
#
# _framework density 17.603228999999999
#
# number of rings (size 3 to 8) (size 9 to 14) (size 15 to 20)
#    0.000    1.778    1.111    3.667    0.000    0.000 
#    0.000    2.222    0.000   19.556    0.000    0.000 
#    0.000    0.000    0.000    0.000    0.000    0.000 
#
# Total GULP energy -301034.076496 kJ/mol
# GULP energy per Si atom -5574.705120 kJ/mol
# Density = 1.756316 g / cm^3
# Si number density = 17.603229 Si / 1000 Ang^3
#
#
#
# Elastic Constant Matrix: (Units=GPa)
#
#
# Indices 1 2 3 4 5 6 
#
# 1 62.3016 38.7222 29.9099 -6.0220 0.0007 0.0000
# 2 38.7222 62.3016 29.9099 6.0220 -0.0007 0.0000
# 3 29.9099 29.9099 89.9591 0.0000 0.0000 0.0000
# 4 -6.0220 6.0220 0.0000 28.2303 0.0000 -0.0007
# 5 0.0007 -0.0007 0.0000 0.0000 28.2303 -6.0220
# 6 0.0000 0.0000 0.0000 -0.0007 -6.0220 11.7897
#
#
#
# Elastic Compliance Matrix: (Units=1/GPa)
#
#
# Indices 1 2 3 4 5 6 
#
# 1 0.029961 -0.017635 -0.004098 0.010153 -0.000001 0.000000
# 2 -0.017635 0.029961 -0.004098 -0.010153 0.000001 0.000000
# 3 -0.004098 -0.004098 0.013841 0.000000 0.000000 0.000000
# 4 0.010153 -0.010153 0.000000 0.039755 0.000000 0.000002
# 5 -0.000001 0.000001 0.000000 0.000000 0.039755 0.020306
# 6 0.000000 0.000000 0.000000 0.000002 0.020306 0.095192
#
#
# Mechanical properties :
#
#
# Convention : Reuss Voigt Hill
#
# Bulk Modulus (GPa) = 45.24921 45.73848 45.49385
# Shear Modulus (GPa) = 16.26057 21.38474 18.82265
#
# Velocity S-wave (km/s) = 3.04258 3.48921 3.27352
# Velocity P-wave (km/s) = 6.17284 6.50170 6.33941
#
# Compressibility (1/GPa) = 0.02209983
#
# Stress axis : x y z
#
# Youngs Moduli (GPa) = 33.37724 33.37724 72.24843
#
# Poissons Ratio (x) = 0.58862 0.29607
# Poissons Ratio (y) = 0.58862 0.29607
# Poissons Ratio (z) = 0.13678 0.13678
#
# Static dielectric constant tensor:
#      x y z
#    x 1.588850 0.000000 0.000000 
#    y 0.000000 1.588850 0.000000 
#    z 0.000000 0.000000 1.614400 
# 
# From -- ./inp_files/5407.got.cif
#   From: 2010.05.17/outbox.cif.g08.bks.cpg/sg166_3_cif.got.tgz:5407.got - 2010.05.20 11:04:41.
