data_PCOD9579476
_publ_section_title
;
Structure prediction by ZEFSAII (Michael W. Deem and Ramdas Pophale) SiO2 
 PCOD9579476
Probable space group: R -3 C 
;
_chemical_formula_sum "Si O2"
_cell_formula_units_Z 162
_cell_length_a 27.706842
_cell_length_b 27.706842
_cell_length_c 14.041439
_cell_angle_alpha 90.000000
_cell_angle_beta 90.000000
_cell_angle_gamma 120.000000
_cell_volume 9335.042630
_symmetry_space_group_name_H-M "R -3 C "
_symmetry_group_IT_number 167
_symmetry_cell_setting 'hexagonal'
loop_
_space_group_symop_operation_xyz
x,y,z
-y,x-y,z
-x+y,-x,z
x-y,-y,1/2-z
-x,-x+y,1/2-z
y,x,1/2-z
-x,-y,-z
y,-x+y,-z
x-y,x,-z
-x+y,y,1/2+z
x,x-y,1/2+z
-y,-x,1/2+z
2/3+x,1/3+y,1/3+z
2/3-y,1/3+x-y,1/3+z
2/3-x+y,1/3-x,1/3+z
2/3+x-y,1/3-y,5/6-z
2/3-x,1/3-x+y,5/6-z
2/3+y,1/3+x,5/6-z
2/3-x,1/3-y,1/3-z
2/3+y,1/3-x+y,1/3-z
2/3+x-y,1/3+x,1/3-z
2/3-x+y,1/3+y,5/6+z
2/3+x,1/3+x-y,5/6+z
2/3-y,1/3-x,5/6+z
1/3+x,2/3+y,2/3+z
1/3-y,2/3+x-y,2/3+z
1/3-x+y,2/3-x,2/3+z
1/3+x-y,2/3-y,1/6-z
1/3-x,2/3-x+y,1/6-z
1/3+y,2/3+x,1/6-z
1/3-x,2/3-y,2/3-z
1/3+y,2/3-x+y,2/3-z
1/3+x-y,2/3+x,2/3-z
1/3-x+y,2/3+y,1/6+z
1/3+x,2/3+x-y,1/6+z
1/3-y,2/3-x,1/6+z
loop_
_atom_site_type_symbol
_atom_site_label
_atom_site_fract_x
_atom_site_fract_y
_atom_site_fract_z
Si Si1 0.845056 0.292271 0.884861
Si Si2 0.096868 0.430201 0.416667
Si Si3 0.551525 0.527388 0.616082
Si Si4 0.987634 0.428980 0.409131
Si Si5 0.164928 0.237931 0.539869
O O1 0.889292 0.277563 0.835889
O O2 0.786758 0.234147 0.873127
O O3 0.855294 0.346853 0.827069
O O4 0.861773 0.312315 0.993395
O O5 0.035804 0.418183 0.442023
O O6 0.569273 0.528003 0.507541
O O7 0.491604 0.472425 0.631649
O O8 0.593211 0.523971 0.690335
O O9 0.533687 0.573808 0.639863
#
# Coordination Sequence:
#
# PCOD9579476 Si02
#       5
#    36  18  36  36  36
#     4  11  23  36  56  79 111 149 193 229 285 332
#     4  12  20  36  54  80 114 148 182 226 278 342
#     4   9  18  35  57  77 110 143 181 229 283 329
#     4  10  20  35  54  78 109 148 182 226 275 340
#     4  10  20  37  56  82 110 149 188 236 279 341
#
# _framework density 17.353964999999999
#
# number of rings (size 3 to 8) (size 9 to 14) (size 15 to 20)
#    0.000    1.778    4.444    0.667    0.000    2.667 
#    4.000    0.000    0.000    0.444    0.000    0.000 
#    0.000    0.444    0.000    0.000    0.000    0.000 
#
# Total GULP energy -300716.957279 kJ/mol
# GULP energy per Si atom -5568.832542 kJ/mol
# Density = 1.731447 g / cm^3
# Si number density = 17.353965 Si / 1000 Ang^3
#
#
#
# Elastic Constant Matrix: (Units=GPa)
#
#
# Indices 1 2 3 4 5 6 
#
# 1 60.4992 28.0216 25.0060 2.3288 0.0000 0.0000
# 2 28.0216 60.4992 25.0060 -2.3288 0.0000 0.0000
# 3 25.0060 25.0060 108.6917 0.0000 0.0000 0.0000
# 4 2.3288 -2.3288 0.0000 22.1207 0.0000 0.0000
# 5 0.0000 0.0000 0.0000 0.0000 22.1207 2.3288
# 6 0.0000 0.0000 0.0000 0.0000 2.3288 16.2388
#
#
#
# Elastic Compliance Matrix: (Units=1/GPa)
#
#
# Indices 1 2 3 4 5 6 
#
# 1 0.022123 -0.009139 -0.002987 -0.003291 0.000000 0.000000
# 2 -0.009139 0.022123 -0.002987 0.003291 0.000000 0.000000
# 3 -0.002987 -0.002987 0.010575 0.000000 0.000000 0.000000
# 4 -0.003291 0.003291 0.000000 0.045899 0.000000 0.000000
# 5 0.000000 0.000000 0.000000 0.000000 0.045899 -0.006583
# 6 0.000000 0.000000 0.000000 0.000000 -0.006583 0.062525
#
#
# Mechanical properties :
#
#
# Convention : Reuss Voigt Hill
#
# Bulk Modulus (GPa) = 40.65899 42.86194 41.76047
# Shear Modulus (GPa) = 20.19623 22.20648 21.20135
#
# Velocity S-wave (km/s) = 3.41513 3.58106 3.49908
# Velocity P-wave (km/s) = 6.24747 6.46923 6.35931
#
# Compressibility (1/GPa) = 0.02459480
#
# Stress axis : x y z
#
# Youngs Moduli (GPa) = 45.20084 45.20083 94.56394
#
# Poissons Ratio (x) = 0.41309 0.28249
# Poissons Ratio (y) = 0.41309 0.28249
# Poissons Ratio (z) = 0.13503 0.13503
#
# Static dielectric constant tensor:
#      x y z
#    x 1.616790 0.000000 0.000000 
#    y 0.000000 1.616790 0.000000 
#    z 0.000000 0.000000 1.652960 
# 
# From -- ./inp_files/2442.got.cif
#   From: 2010.05.17/outbox.cif.g08.bks.cpg/sg167_2_cif.got.tgz:2442.got - 2010.05.20 11:09:15.
