data_PCOD9579335
_publ_section_title
;
Structure prediction by ZEFSAII (Michael W. Deem and Ramdas Pophale) SiO2 
 PCOD9579335
Probable space group: R -3 M
;
_chemical_formula_sum "Si O2"
_cell_formula_units_Z 126
_cell_length_a 20.916294
_cell_length_b 20.916294
_cell_length_c 17.003900
_cell_angle_alpha 90.000000
_cell_angle_beta 90.000000
_cell_angle_gamma 120.000000
_cell_volume 6442.414287
_symmetry_space_group_name_H-M "R -3 M"
_symmetry_group_IT_number 166
_symmetry_cell_setting 'hexagonal'
loop_
_space_group_symop_operation_xyz
x,y,z
-y,x-y,z
-x+y,-x,z
x-y,-y,-z
-x,-x+y,-z
y,x,-z
-x,-y,-z
y,-x+y,-z
x-y,x,-z
-x+y,y,z
x,x-y,z
-y,-x,z
2/3+x,1/3+y,1/3+z
2/3-y,1/3+x-y,1/3+z
2/3-x+y,1/3-x,1/3+z
2/3+x-y,1/3-y,1/3-z
2/3-x,1/3-x+y,1/3-z
2/3+y,1/3+x,1/3-z
2/3-x,1/3-y,1/3-z
2/3+y,1/3-x+y,1/3-z
2/3+x-y,1/3+x,1/3-z
2/3-x+y,1/3+y,1/3+z
2/3+x,1/3+x-y,1/3+z
2/3-y,1/3-x,1/3+z
1/3+x,2/3+y,2/3+z
1/3-y,2/3+x-y,2/3+z
1/3-x+y,2/3-x,2/3+z
1/3+x-y,2/3-y,2/3-z
1/3-x,2/3-x+y,2/3-z
1/3+y,2/3+x,2/3-z
1/3-x,2/3-y,2/3-z
1/3+y,2/3-x+y,2/3-z
1/3+x-y,2/3+x,2/3-z
1/3-x+y,2/3+y,2/3+z
1/3+x,2/3+x-y,2/3+z
1/3-y,2/3-x,2/3+z
loop_
_atom_site_type_symbol
_atom_site_label
_atom_site_fract_x
_atom_site_fract_y
_atom_site_fract_z
Si Si1 0.605774 0.540445 0.135847
Si Si2 0.763694 0.763694 0.500000
Si Si3 0.737861 0.794706 0.938743
Si Si4 0.902619 0.523711 0.663195
O O1 0.537214 0.462787 0.164005
O O2 0.578902 0.599853 0.132058
O O3 0.675231 0.579615 0.194515
O O4 0.638407 0.530011 0.054705
O O5 0.781674 0.812770 0.577852
O O6 0.745131 0.872566 0.921834
O O7 0.796771 0.796771 0.000000
O O8 0.657240 0.745102 0.979204
O O9 0.886347 0.443174 0.636526
#
# Coordination Sequence:
#
# PCOD9579335 Si02
#       4
#    36  18  36  36
#     4  12  23  38  61  91 125 163 204 254 308 364
#     4  12  22  38  59  92 125 156 202 256 314 364
#     4  11  20  37  61  90 126 162 204 249 301 368
#     4  11  23  40  63  89 124 164 204 253 310 371
#
# _framework density 19.557886
#
# number of rings (size 3 to 8) (size 9 to 14) (size 15 to 20)
#    0.000    0.571    5.714    3.429    0.000    5.714 
#    0.000    0.000    0.000   10.857    0.000    1.000 
#    0.000    0.000    0.000    0.000    0.000    0.000 
#
# Total GULP energy -234572.595684 kJ/mol
# GULP energy per Si atom -5585.061802 kJ/mol
# Density = 1.951337 g / cm^3
# Si number density = 19.557886 Si / 1000 Ang^3
#
#
#
# Elastic Constant Matrix: (Units=GPa)
#
#
# Indices 1 2 3 4 5 6 
#
# 1 53.3711 26.2786 1.2433 3.1056 0.0000 0.0000
# 2 26.2786 53.3711 1.2433 -3.1056 0.0000 0.0000
# 3 1.2433 1.2433 83.3237 0.0000 0.0000 0.0000
# 4 3.1056 -3.1056 0.0000 21.9554 0.0000 0.0000
# 5 0.0000 0.0000 0.0000 0.0000 21.9554 3.1056
# 6 0.0000 0.0000 0.0000 0.0000 3.1056 13.5463
#
#
#
# Elastic Compliance Matrix: (Units=1/GPa)
#
#
# Indices 1 2 3 4 5 6 
#
# 1 0.025354 -0.012793 -0.000187 -0.005396 0.000000 0.000000
# 2 -0.012793 0.025354 -0.000187 0.005396 0.000000 0.000000
# 3 -0.000187 -0.000187 0.012007 0.000000 0.000000 0.000000
# 4 -0.005396 0.005396 0.000000 0.047073 0.000000 0.000000
# 5 0.000000 0.000000 0.000000 0.000000 0.047073 -0.010792
# 6 0.000000 0.000000 0.000000 0.000000 -0.010792 0.076295
#
#
# Mechanical properties :
#
#
# Convention : Reuss Voigt Hill
#
# Bulk Modulus (GPa) = 27.48844 27.51071 27.49957
# Shear Modulus (GPa) = 18.40803 22.24480 20.32642
#
# Velocity S-wave (km/s) = 3.07124 3.37617 3.22731
# Velocity P-wave (km/s) = 5.16354 5.41247 5.28947
#
# Compressibility (1/GPa) = 0.03637893
#
# Stress axis : x y z
#
# Youngs Moduli (GPa) = 39.44113 39.44113 83.28490
#
# Poissons Ratio (x) = 0.50459 0.01561
# Poissons Ratio (y) = 0.50459 0.01561
# Poissons Ratio (z) = 0.00739 0.00739
#
# Static dielectric constant tensor:
#      x y z
#    x 1.672600 0.000000 0.000000 
#    y 0.000000 1.672600 0.000000 
#    z 0.000000 0.000000 1.774490 
# 
# From -- ./inp_files/4872.got.cif
#   From: 2010.05.17/outbox.cif.g08.bks.cpg/sg166_3_cif.got.tgz:4872.got - 2010.05.20 11:04:41.
