data_PCOD9579556
_publ_section_title
;
Structure prediction by ZEFSAII (Michael W. Deem and Ramdas Pophale) SiO2 
 PCOD9579556
Probable space group: R -3 C 
;
_chemical_formula_sum "Si O2"
_cell_formula_units_Z 84
_cell_length_a 16.066459
_cell_length_b 16.066459
_cell_length_c 15.379059
_cell_angle_alpha 90.000000
_cell_angle_beta 90.000000
_cell_angle_gamma 120.000000
_cell_volume 3437.959331
_symmetry_space_group_name_H-M "R -3 C "
_symmetry_group_IT_number 167
_symmetry_cell_setting 'hexagonal'
loop_
_space_group_symop_operation_xyz
x,y,z
-y,x-y,z
-x+y,-x,z
x-y,-y,1/2-z
-x,-x+y,1/2-z
y,x,1/2-z
-x,-y,-z
y,-x+y,-z
x-y,x,-z
-x+y,y,1/2+z
x,x-y,1/2+z
-y,-x,1/2+z
2/3+x,1/3+y,1/3+z
2/3-y,1/3+x-y,1/3+z
2/3-x+y,1/3-x,1/3+z
2/3+x-y,1/3-y,5/6-z
2/3-x,1/3-x+y,5/6-z
2/3+y,1/3+x,5/6-z
2/3-x,1/3-y,1/3-z
2/3+y,1/3-x+y,1/3-z
2/3+x-y,1/3+x,1/3-z
2/3-x+y,1/3+y,5/6+z
2/3+x,1/3+x-y,5/6+z
2/3-y,1/3-x,5/6+z
1/3+x,2/3+y,2/3+z
1/3-y,2/3+x-y,2/3+z
1/3-x+y,2/3-x,2/3+z
1/3+x-y,2/3-y,1/6-z
1/3-x,2/3-x+y,1/6-z
1/3+y,2/3+x,1/6-z
1/3-x,2/3-y,2/3-z
1/3+y,2/3-x+y,2/3-z
1/3+x-y,2/3+x,2/3-z
1/3-x+y,2/3+y,1/6+z
1/3+x,2/3+x-y,1/6+z
1/3-y,2/3-x,1/6+z
loop_
_atom_site_type_symbol
_atom_site_label
_atom_site_fract_x
_atom_site_fract_y
_atom_site_fract_z
Si Si1 0.476856 0.863884 0.323171
Si Si2 0.227972 0.885017 0.747331
Si Si3 0.000000 0.000000 0.102697
O O1 0.508842 0.842175 0.416667
O O2 0.548102 0.863423 0.249665
O O3 0.480323 0.964052 0.337811
O O4 0.372203 0.774236 0.303964
O O5 0.166667 0.833334 0.833334
O O6 0.277524 0.000000 0.750000
O O7 0.000000 0.000000 0.000000
#
# Coordination Sequence:
#
# PCOD9579556 Si02
#       3
#    36  36  12
#     4  10  21  41  68  98 135 186 240 300 364 438
#     4  10  21  40  68  99 135 184 239 298 366 437
#     4  12  25  41  67 105 142 194 253 306 370 455
#
# _framework density 24.433098000000001
#
# number of rings (size 3 to 8) (size 9 to 14) (size 15 to 20)
#    0.000    1.714    0.000    6.429    0.000    3.429 
#    0.000   10.714    0.000    0.000    0.000    0.000 
#    0.000    0.000    0.000    0.000    0.000    0.000 
#
# Total GULP energy -156550.042520 kJ/mol
# GULP energy per Si atom -5591.072947 kJ/mol
# Density = 2.437749 g / cm^3
# Si number density = 24.433098 Si / 1000 Ang^3
#
#
#
# Elastic Constant Matrix: (Units=GPa)
#
#
# Indices 1 2 3 4 5 6 
#
# 1 106.4577 24.2722 36.4521 2.6842 0.0000 0.0000
# 2 24.2722 106.4577 36.4521 -2.6842 0.0000 0.0000
# 3 36.4521 36.4521 86.6587 0.0000 0.0000 0.0000
# 4 2.6842 -2.6842 0.0000 33.2936 0.0000 0.0000
# 5 0.0000 0.0000 0.0000 0.0000 33.2936 2.6842
# 6 0.0000 0.0000 0.0000 0.0000 2.6842 41.0928
#
#
#
# Elastic Compliance Matrix: (Units=1/GPa)
#
#
# Indices 1 2 3 4 5 6 
#
# 1 0.011113 -0.001119 -0.004204 -0.000986 0.000000 0.000000
# 2 -0.001119 0.011113 -0.004204 0.000986 0.000000 0.000000
# 3 -0.004204 -0.004204 0.015076 0.000000 0.000000 0.000000
# 4 -0.000986 0.000986 0.000000 0.030195 0.000000 0.000000
# 5 0.000000 0.000000 0.000000 0.000000 0.030195 -0.001972
# 6 0.000000 0.000000 0.000000 0.000000 -0.001972 0.024464
#
#
# Mechanical properties :
#
#
# Convention : Reuss Voigt Hill
#
# Bulk Modulus (GPa) = 54.79926 54.88078 54.84002
# Shear Modulus (GPa) = 33.94631 35.02917 34.48774
#
# Velocity S-wave (km/s) = 3.73145 3.79050 3.76109
# Velocity P-wave (km/s) = 6.40640 6.45505 6.43077
#
# Compressibility (1/GPa) = 0.01824842
#
# Stress axis : x y z
#
# Youngs Moduli (GPa) = 89.98609 89.98609 66.33050
#
# Poissons Ratio (x) = 0.10071 0.27884
# Poissons Ratio (y) = 0.10071 0.27884
# Poissons Ratio (z) = 0.37828 0.37828
#
# Static dielectric constant tensor:
#      x y z
#    x 1.937270 0.000000 0.000000 
#    y 0.000000 1.937270 0.000000 
#    z 0.000000 0.000000 1.868460 
# 
# From -- ./inp_files/1855.got.cif
#   From: 2010.05.17/outbox.cif.g08.bks.cpg/sg167_1_cif.got.tgz:1855.got - 2010.05.20 11:09:15.
