data_PCOD9579868
_publ_section_title
;
Structure prediction by ZEFSAII (Michael W. Deem and Ramdas Pophale) SiO2 
 PCOD9579868
Probable space group: P 61
;
_chemical_formula_sum "Si O2"
_cell_formula_units_Z 42
_cell_length_a 10.829307
_cell_length_b 10.829307
_cell_length_c 17.027208
_cell_angle_alpha 90.000000
_cell_angle_beta 90.000000
_cell_angle_gamma 120.000000
_cell_volume 1729.320160
_symmetry_space_group_name_H-M "P 61"
_symmetry_group_IT_number 169
_symmetry_cell_setting 'hexagonal'
loop_
_space_group_symop_operation_xyz
x,y,z
x-y,x,1/6+z
-y,x-y,1/3+z
-x,-y,1/2+z
-x+y,-x,2/3+z
y,-x+y,5/6+z
loop_
_atom_site_type_symbol
_atom_site_label
_atom_site_fract_x
_atom_site_fract_y
_atom_site_fract_z
Si Si1 0.569178 0.259262 0.542600
Si Si2 0.433363 0.125325 0.221071
Si Si3 0.397509 0.376326 0.808354
Si Si4 0.169798 0.823102 0.900509
Si Si5 0.852808 0.368643 0.725886
Si Si6 0.950467 0.871499 0.511404
Si Si7 0.446737 0.890495 0.494241
O O1 0.707889 0.245577 0.536393
O O2 0.526680 0.267330 0.453163
O O3 0.624414 0.396886 0.595290
O O4 0.454853 0.130753 0.596548
O O5 0.514648 0.038851 0.198183
O O6 0.316984 0.100367 0.155110
O O7 0.426737 0.123830 0.314594
O O8 0.274074 0.232212 0.844704
O O9 0.490217 0.354514 0.739477
O O10 0.327335 0.839079 0.883733
O O11 0.071849 0.674641 0.854338
O O12 0.163621 0.955333 0.866559
O O13 0.988836 0.424095 0.781147
O O14 0.968773 0.920873 0.418669
#
# Coordination Sequence:
#
# PCOD9579868 Si02
#       7
#     6   6   6   6   6   6   6
#     4  10  21  38  60  94 135 171 225 291 342 411
#     4  10  21  39  62  98 133 175 220 283 357 413
#     4  10  23  41  67  97 133 178 229 283 348 417
#     4  10  21  38  63  93 134 172 228 285 339 415
#     4  10  20  34  57  91 132 174 216 272 353 413
#     4  12  26  46  71 101 133 185 241 289 347 426
#     4  10  20  38  60  92 134 177 225 289 340 413
#
# _framework density 24.287002000000001
#
# number of rings (size 3 to 8) (size 9 to 14) (size 15 to 20)
#    0.000    1.714    1.429    2.571    2.000    2.286 
#    0.000    4.286    0.000    0.000    0.000    0.000 
#    0.000    0.000    0.000    0.000    0.000    0.000 
#
# Total GULP energy -234046.884293 kJ/mol
# GULP energy per Si atom -5572.544864 kJ/mol
# Density = 2.423172 g / cm^3
# Si number density = 24.287002 Si / 1000 Ang^3
#
#
#
# Elastic Constant Matrix: (Units=GPa)
#
#
# Indices 1 2 3 4 5 6 
#
# 1 22.2090 19.5090 18.3877 0.0000 0.0000 0.0000
# 2 19.5090 22.2090 18.3877 0.0000 0.0000 0.0000
# 3 18.3877 18.3877 152.6089 0.0000 0.0000 0.0000
# 4 0.0000 0.0000 0.0000 26.5548 0.0000 0.0000
# 5 0.0000 0.0000 0.0000 0.0000 26.5548 0.0000
# 6 0.0000 0.0000 0.0000 0.0000 0.0000 1.3500
#
#
#
# Elastic Compliance Matrix: (Units=1/GPa)
#
#
# Indices 1 2 3 4 5 6 
#
# 1 0.198592 -0.171773 -0.003231 0.000000 0.000000 0.000000
# 2 -0.171773 0.198592 -0.003231 0.000000 0.000000 0.000000
# 3 -0.003231 -0.003231 0.007331 0.000000 0.000000 0.000000
# 4 0.000000 0.000000 0.000000 0.037658 0.000000 0.000000
# 5 0.000000 0.000000 0.000000 0.000000 0.037658 0.000000
# 6 0.000000 0.000000 0.000000 0.000000 0.000000 0.740731
#
#
# Mechanical properties :
#
#
# Convention : Reuss Voigt Hill
#
# Bulk Modulus (GPa) = 20.81435 34.39954 27.60694
# Shear Modulus (GPa) = 3.13863 20.27474 11.70669
#
# Velocity S-wave (km/s) = 1.13803 2.89242 2.19786
# Velocity P-wave (km/s) = 3.21179 5.03481 4.22285
#
# Compressibility (1/GPa) = 0.04804379
#
# Stress axis : x y z
#
# Youngs Moduli (GPa) = 5.03544 5.03544 136.39969
#
# Poissons Ratio (x) = 0.86495 0.44076
# Poissons Ratio (y) = 0.86495 0.44076
# Poissons Ratio (z) = 0.01627 0.01627
#
# Static dielectric constant tensor:
#      x y z
#    x 2.112950 0.000000 0.000000 
#    y 0.000000 2.112950 0.000000 
#    z 0.000000 0.000000 2.124050 
# 
# From -- ./inp_files/1364.got.cif
#   From: 2010.05.17/outbox.cif.g08.bks.cpg/sg169_cif.got.tgz:1364.got - 2010.05.20 11:12:54.
