data_PCOD9579602
_publ_section_title
;
Structure prediction by ZEFSAII (Michael W. Deem and Ramdas Pophale) SiO2 
 PCOD9579602
Probable space group: R -3 C 
;
_chemical_formula_sum "Si O2"
_cell_formula_units_Z 84
_cell_length_a 18.044705
_cell_length_b 18.044705
_cell_length_c 12.965463
_cell_angle_alpha 90.000000
_cell_angle_beta 90.000000
_cell_angle_gamma 120.000000
_cell_volume 3656.101422
_symmetry_space_group_name_H-M "R -3 C "
_symmetry_group_IT_number 167
_symmetry_cell_setting 'hexagonal'
loop_
_space_group_symop_operation_xyz
x,y,z
-y,x-y,z
-x+y,-x,z
x-y,-y,1/2-z
-x,-x+y,1/2-z
y,x,1/2-z
-x,-y,-z
y,-x+y,-z
x-y,x,-z
-x+y,y,1/2+z
x,x-y,1/2+z
-y,-x,1/2+z
2/3+x,1/3+y,1/3+z
2/3-y,1/3+x-y,1/3+z
2/3-x+y,1/3-x,1/3+z
2/3+x-y,1/3-y,5/6-z
2/3-x,1/3-x+y,5/6-z
2/3+y,1/3+x,5/6-z
2/3-x,1/3-y,1/3-z
2/3+y,1/3-x+y,1/3-z
2/3+x-y,1/3+x,1/3-z
2/3-x+y,1/3+y,5/6+z
2/3+x,1/3+x-y,5/6+z
2/3-y,1/3-x,5/6+z
1/3+x,2/3+y,2/3+z
1/3-y,2/3+x-y,2/3+z
1/3-x+y,2/3-x,2/3+z
1/3+x-y,2/3-y,1/6-z
1/3-x,2/3-x+y,1/6-z
1/3+y,2/3+x,1/6-z
1/3-x,2/3-y,2/3-z
1/3+y,2/3-x+y,2/3-z
1/3+x-y,2/3+x,2/3-z
1/3-x+y,2/3+y,1/6+z
1/3+x,2/3+x-y,1/6+z
1/3-y,2/3-x,1/6+z
loop_
_atom_site_type_symbol
_atom_site_label
_atom_site_fract_x
_atom_site_fract_y
_atom_site_fract_z
Si Si1 0.333334 0.666667 0.038036
Si Si2 0.587859 0.145849 0.003837
Si Si3 0.419888 0.423378 0.872918
O O1 0.333334 0.666668 0.916667
O O2 0.397188 0.767834 0.055406
O O3 0.666667 0.176815 0.083334
O O4 0.505707 0.085154 0.075236
O O5 0.583713 0.081883 0.917013
O O6 0.422787 0.422787 0.750000
O O7 0.333334 0.343823 0.916667
#
# Coordination Sequence:
#
# PCOD9579602 Si02
#       3
#    12  36  36
#     4   9  18  42  71  98 130 170 226 280 335 400
#     4  10  22  42  68  97 132 175 225 282 341 408
#     4  11  24  42  66  98 136 178 225 280 344 413
#
# _framework density 22.975293000000001
#
# number of rings (size 3 to 8) (size 9 to 14) (size 15 to 20)
#    0.000    1.714    0.000    5.143    0.000    8.571 
#    0.000    8.571    0.000   12.857    0.000    0.000 
#    0.000    0.000    0.000    0.000    0.000    0.000 
#
# Total GULP energy -156162.915909 kJ/mol
# GULP energy per Si atom -5577.246997 kJ/mol
# Density = 2.292300 g / cm^3
# Si number density = 22.975293 Si / 1000 Ang^3
#
#
#
# Elastic Constant Matrix: (Units=GPa)
#
#
# Indices 1 2 3 4 5 6 
#
# 1 102.5488 98.4200 51.5759 -3.5744 0.0020 0.0014
# 2 98.4200 102.5501 51.5768 3.5743 -0.0018 -0.0013
# 3 51.5759 51.5768 196.2495 -0.0002 0.0000 0.0003
# 4 -3.5744 3.5743 -0.0002 -5.7556 0.0003 -0.0030
# 5 0.0020 -0.0018 0.0000 0.0003 -5.7565 -3.5730
# 6 0.0014 -0.0013 0.0003 -0.0030 -3.5730 2.0624
#
#
#
# Elastic Compliance Matrix: (Units=1/GPa)
#
#
# Indices 1 2 3 4 5 6 
#
# 1 0.061227 -0.055475 -0.001511 -0.072474 0.000072 -0.000059
# 2 -0.055475 0.061227 -0.001512 0.072474 -0.000072 0.000060
# 3 -0.001511 -0.001512 0.005890 0.000000 0.000000 0.000000
# 4 -0.072474 0.072474 0.000000 -0.083729 -0.000017 -0.000056
# 5 0.000072 -0.000072 0.000000 -0.000017 -0.083706 -0.145018
# 6 -0.000059 0.000060 0.000000 -0.000056 -0.145018 0.233640
#
#
# Mechanical properties :
#
#
# Convention : Reuss Voigt Hill
#
# Bulk Modulus (GPa) = 88.12803 89.38820 88.75812
# Shear Modulus (GPa) = 15.85650 11.42844 13.64247
#
# Velocity S-wave (km/s) = 2.62993 2.23272 2.43942
# Velocity P-wave (km/s) = 6.90384 6.75555 6.83010
#
# Compressibility (1/GPa) = 0.01134713
#
# Stress axis : x y z
#
# Youngs Moduli (GPa) = 16.33264 16.33278 169.77669
#
# Poissons Ratio (x) = 0.90606 0.25662
# Poissons Ratio (y) = 0.90605 0.25666
# Poissons Ratio (z) = 0.02469 0.02469
#
# Static dielectric constant tensor:
#      x y z
#    x 2.600870 0.000160 0.000000 
#    y 0.000160 2.601050 0.000000 
#    z 0.000000 0.000000 1.783060 
# 
# From -- ./inp_files/1109.got.cif
#   From: 2010.05.17/outbox.cif.g08.bks.cpg/sg167_1_cif.got.tgz:1109.got - 2010.05.20 11:09:15.
