data_PCOD9579640
_publ_section_title
;
Structure prediction by ZEFSAII (Michael W. Deem and Ramdas Pophale) SiO2 
 PCOD9579640
Probable space group: R -3 C 
;
_chemical_formula_sum "Si O2"
_cell_formula_units_Z 210
_cell_length_a 27.021385
_cell_length_b 27.021385
_cell_length_c 14.172121
_cell_angle_alpha 90.000000
_cell_angle_beta 90.000000
_cell_angle_gamma 120.000000
_cell_volume 8961.499687
_symmetry_space_group_name_H-M "R -3 C "
_symmetry_group_IT_number 167
_symmetry_cell_setting 'hexagonal'
loop_
_space_group_symop_operation_xyz
x,y,z
-y,x-y,z
-x+y,-x,z
x-y,-y,1/2-z
-x,-x+y,1/2-z
y,x,1/2-z
-x,-y,-z
y,-x+y,-z
x-y,x,-z
-x+y,y,1/2+z
x,x-y,1/2+z
-y,-x,1/2+z
2/3+x,1/3+y,1/3+z
2/3-y,1/3+x-y,1/3+z
2/3-x+y,1/3-x,1/3+z
2/3+x-y,1/3-y,5/6-z
2/3-x,1/3-x+y,5/6-z
2/3+y,1/3+x,5/6-z
2/3-x,1/3-y,1/3-z
2/3+y,1/3-x+y,1/3-z
2/3+x-y,1/3+x,1/3-z
2/3-x+y,1/3+y,5/6+z
2/3+x,1/3+x-y,5/6+z
2/3-y,1/3-x,5/6+z
1/3+x,2/3+y,2/3+z
1/3-y,2/3+x-y,2/3+z
1/3-x+y,2/3-x,2/3+z
1/3+x-y,2/3-y,1/6-z
1/3-x,2/3-x+y,1/6-z
1/3+y,2/3+x,1/6-z
1/3-x,2/3-y,2/3-z
1/3+y,2/3-x+y,2/3-z
1/3+x-y,2/3+x,2/3-z
1/3-x+y,2/3+y,1/6+z
1/3+x,2/3+x-y,1/6+z
1/3-y,2/3-x,1/6+z
loop_
_atom_site_type_symbol
_atom_site_label
_atom_site_fract_x
_atom_site_fract_y
_atom_site_fract_z
Si Si1 0.333334 0.666667 0.028902
Si Si2 0.709760 0.081467 0.715758
Si Si3 0.478024 0.269768 0.273048
Si Si4 0.114105 0.001506 0.603758
Si Si5 0.716144 0.888510 0.534483
Si Si6 0.343011 0.412577 0.583685
Si Si7 0.812622 0.000000 0.250000
O O1 0.284038 0.679769 0.060094
O O2 0.333334 0.666668 0.916667
O O3 0.767034 0.125722 0.770892
O O4 0.662886 0.059050 0.803087
O O5 0.717098 0.036139 0.651131
O O6 0.698981 0.123357 0.649864
O O7 0.512638 0.248517 0.209493
O O8 0.525421 0.321315 0.335012
O O9 0.439070 0.218155 0.343395
O O10 0.434637 0.287974 0.232192
O O11 0.134016 0.970246 0.678209
O O12 0.666667 0.832516 0.583334
O O13 0.728347 0.943504 0.598289
#
# Coordination Sequence:
#
# PCOD9579640 Si02
#       7
#    12  36  36  36  36  36  18
#     4  12  27  40  74 112 150 202 239 304 363 460
#     4  10  24  46  71 108 144 197 245 303 374 447
#     4  12  22  50  74 106 148 192 248 313 375 438
#     4  12  25  47  76 110 150 196 256 301 375 443
#     4  10  24  45  66 109 148 188 251 308 367 454
#     4  10  24  46  74 108 146 194 250 308 372 445
#     4  12  22  46  72 106 152 188 246 314 356 442
#
# _framework density 23.433577
#
# number of rings (size 3 to 8) (size 9 to 14) (size 15 to 20)
#    1.029    0.000    6.000    1.029    1.200    5.486 
#    3.086    0.000    0.000    0.000    0.000    0.000 
#    0.000    0.000    0.000    0.000    0.000    0.000 
#
# Total GULP energy -390196.577630 kJ/mol
# GULP energy per Si atom -5574.236823 kJ/mol
# Density = 2.338024 g / cm^3
# Si number density = 23.433577 Si / 1000 Ang^3
#
#
#
# Elastic Constant Matrix: (Units=GPa)
#
#
# Indices 1 2 3 4 5 6 
#
# 1 97.0327 30.5387 22.6471 -4.1940 0.0003 0.0000
# 2 30.5387 97.0311 22.6472 4.1937 -0.0003 -0.0002
# 3 22.6471 22.6472 82.3588 -0.0002 -0.0001 0.0000
# 4 -4.1940 4.1937 -0.0002 27.4918 0.0001 0.0000
# 5 0.0003 -0.0003 -0.0001 0.0001 27.4932 -4.1934
# 6 0.0000 -0.0002 0.0000 0.0000 -4.1934 33.2467
#
#
#
# Elastic Compliance Matrix: (Units=1/GPa)
#
#
# Indices 1 2 3 4 5 6 
#
# 1 0.012010 -0.003324 -0.002389 0.002339 0.000000 0.000000
# 2 -0.003324 0.012011 -0.002389 -0.002339 0.000000 0.000000
# 3 -0.002389 -0.002389 0.013456 0.000000 0.000000 0.000000
# 4 0.002339 -0.002339 0.000000 0.037088 0.000000 0.000000
# 5 0.000000 0.000000 0.000000 0.000000 0.037086 0.004678
# 6 0.000000 0.000000 0.000000 0.000000 0.004678 0.030668
#
#
# Mechanical properties :
#
#
# Convention : Reuss Voigt Hill
#
# Bulk Modulus (GPa) = 47.00442 47.56539 47.28491
# Shear Modulus (GPa) = 30.19089 31.01901 30.60495
#
# Velocity S-wave (km/s) = 3.59327 3.64221 3.61782
# Velocity P-wave (km/s) = 6.10881 6.16682 6.13788
#
# Compressibility (1/GPa) = 0.02127459
#
# Stress axis : x y z
#
# Youngs Moduli (GPa) = 83.26079 83.25929 74.31791
#
# Poissons Ratio (x) = 0.27672 0.17752
# Poissons Ratio (y) = 0.27673 0.17753
# Poissons Ratio (z) = 0.19888 0.19889
#
# Static dielectric constant tensor:
#      x y z
#    x 1.910270 0.000000 0.000000 
#    y 0.000000 1.910270 0.000000 
#    z 0.000000 0.000000 1.972690 
# 
# From -- ./inp_files/2501.got.cif
#   From: 2010.05.17/outbox.cif.g08.bks.cpg/sg167_2_cif.got.tgz:2501.got - 2010.05.20 11:09:15.
