data_PCOD9579459
_publ_section_title
;
Structure prediction by ZEFSAII (Michael W. Deem and Ramdas Pophale) SiO2 
 PCOD9579459
Probable space group: R -3 C 
;
_chemical_formula_sum "Si O2"
_cell_formula_units_Z 108
_cell_length_a 21.111434
_cell_length_b 21.111434
_cell_length_c 12.060127
_cell_angle_alpha 90.000000
_cell_angle_beta 90.000000
_cell_angle_gamma 120.000000
_cell_volume 4654.981729
_symmetry_space_group_name_H-M "R -3 C "
_symmetry_group_IT_number 167
_symmetry_cell_setting 'hexagonal'
loop_
_space_group_symop_operation_xyz
x,y,z
-y,x-y,z
-x+y,-x,z
x-y,-y,1/2-z
-x,-x+y,1/2-z
y,x,1/2-z
-x,-y,-z
y,-x+y,-z
x-y,x,-z
-x+y,y,1/2+z
x,x-y,1/2+z
-y,-x,1/2+z
2/3+x,1/3+y,1/3+z
2/3-y,1/3+x-y,1/3+z
2/3-x+y,1/3-x,1/3+z
2/3+x-y,1/3-y,5/6-z
2/3-x,1/3-x+y,5/6-z
2/3+y,1/3+x,5/6-z
2/3-x,1/3-y,1/3-z
2/3+y,1/3-x+y,1/3-z
2/3+x-y,1/3+x,1/3-z
2/3-x+y,1/3+y,5/6+z
2/3+x,1/3+x-y,5/6+z
2/3-y,1/3-x,5/6+z
1/3+x,2/3+y,2/3+z
1/3-y,2/3+x-y,2/3+z
1/3-x+y,2/3-x,2/3+z
1/3+x-y,2/3-y,1/6-z
1/3-x,2/3-x+y,1/6-z
1/3+y,2/3+x,1/6-z
1/3-x,2/3-y,2/3-z
1/3+y,2/3-x+y,2/3-z
1/3+x-y,2/3+x,2/3-z
1/3-x+y,2/3+y,1/6+z
1/3+x,2/3+x-y,1/6+z
1/3-y,2/3-x,1/6+z
loop_
_atom_site_type_symbol
_atom_site_label
_atom_site_fract_x
_atom_site_fract_y
_atom_site_fract_z
Si Si1 0.806314 0.318677 0.345981
Si Si2 0.227770 0.952350 0.842763
Si Si3 0.723930 0.834468 0.179660
O O1 0.727192 0.253973 0.305549
O O2 0.867026 0.328521 0.255450
O O3 0.822872 0.285572 0.454996
O O4 0.158064 0.896714 0.768583
O O5 0.285842 0.000000 0.750000
O O6 0.250574 0.906465 0.919434
O O7 0.666667 0.828128 0.083334
#
# Coordination Sequence:
#
# PCOD9579459 Si02
#       3
#    36  36  36
#     4  11  22  38  63  96 138 178 218 272 336 407
#     4  10  19  39  68  89 126 176 220 283 341 398
#     4   9  20  38  65  89 127 174 225 283 344 389
#
# _framework density 23.200949999999999
#
# number of rings (size 3 to 8) (size 9 to 14) (size 15 to 20)
#    0.000    2.000    3.333    0.333    0.000    1.333 
#    0.000    0.000   22.000    0.000    0.000    0.000 
#    0.000    0.000    0.000    0.000    0.000    0.000 
#
# Total GULP energy -201479.733708 kJ/mol
# GULP energy per Si atom -5596.659270 kJ/mol
# Density = 2.314814 g / cm^3
# Si number density = 23.200950 Si / 1000 Ang^3
#
#
#
# Elastic Constant Matrix: (Units=GPa)
#
#
# Indices 1 2 3 4 5 6 
#
# 1 74.1150 26.8830 32.1875 -7.1563 -0.0004 0.0000
# 2 26.8830 74.1150 32.1875 7.1563 0.0004 0.0000
# 3 32.1875 32.1875 94.6520 0.0000 0.0000 0.0000
# 4 -7.1563 7.1563 0.0000 31.6145 0.0000 0.0004
# 5 -0.0004 0.0004 0.0000 0.0000 31.6145 -7.1563
# 6 0.0000 0.0000 0.0000 0.0004 -7.1563 23.6160
#
#
#
# Elastic Compliance Matrix: (Units=1/GPa)
#
#
# Indices 1 2 3 4 5 6 
#
# 1 0.017686 -0.005045 -0.004299 0.005145 0.000000 0.000000
# 2 -0.005045 0.017686 -0.004299 -0.005145 0.000000 0.000000
# 3 -0.004299 -0.004299 0.013489 0.000000 0.000000 0.000000
# 4 0.005145 -0.005145 0.000000 0.033960 0.000000 -0.000001
# 5 0.000000 0.000000 0.000000 0.000000 0.033960 0.010291
# 6 0.000000 0.000000 0.000000 -0.000001 0.010291 0.045463
#
#
# Mechanical properties :
#
#
# Convention : Reuss Voigt Hill
#
# Bulk Modulus (GPa) = 46.34786 47.26643 46.80715
# Shear Modulus (GPa) = 25.41658 27.47729 26.44693
#
# Velocity S-wave (km/s) = 3.31342 3.44512 3.37991
# Velocity P-wave (km/s) = 5.88714 6.02014 5.95401
#
# Compressibility (1/GPa) = 0.02157597
#
# Stress axis : x y z
#
# Youngs Moduli (GPa) = 56.54112 56.54112 74.13611
#
# Poissons Ratio (x) = 0.28525 0.31869
# Poissons Ratio (y) = 0.28525 0.31869
# Poissons Ratio (z) = 0.24306 0.24306
#
# Static dielectric constant tensor:
#      x y z
#    x 1.874950 0.000000 0.000000 
#    y 0.000000 1.874950 0.000000 
#    z 0.000000 0.000000 1.860740 
# 
# From -- ./inp_files/1191.got.cif
#   From: 2010.05.17/outbox.cif.g08.bks.cpg/sg167_1_cif.got.tgz:1191.got - 2010.05.20 11:09:15.
