data_PCOD9579400
_publ_section_title
;
Structure prediction by ZEFSAII (Michael W. Deem and Ramdas Pophale) SiO2 
 PCOD9579400
Probable space group: R -3 C 
;
_chemical_formula_sum "Si O2"
_cell_formula_units_Z 216
_cell_length_a 23.633955
_cell_length_b 23.633955
_cell_length_c 25.797065
_cell_angle_alpha 90.000000
_cell_angle_beta 90.000000
_cell_angle_gamma 120.000000
_cell_volume 12478.826261
_symmetry_space_group_name_H-M "R -3 C "
_symmetry_group_IT_number 167
_symmetry_cell_setting 'hexagonal'
loop_
_space_group_symop_operation_xyz
x,y,z
-y,x-y,z
-x+y,-x,z
x-y,-y,1/2-z
-x,-x+y,1/2-z
y,x,1/2-z
-x,-y,-z
y,-x+y,-z
x-y,x,-z
-x+y,y,1/2+z
x,x-y,1/2+z
-y,-x,1/2+z
2/3+x,1/3+y,1/3+z
2/3-y,1/3+x-y,1/3+z
2/3-x+y,1/3-x,1/3+z
2/3+x-y,1/3-y,5/6-z
2/3-x,1/3-x+y,5/6-z
2/3+y,1/3+x,5/6-z
2/3-x,1/3-y,1/3-z
2/3+y,1/3-x+y,1/3-z
2/3+x-y,1/3+x,1/3-z
2/3-x+y,1/3+y,5/6+z
2/3+x,1/3+x-y,5/6+z
2/3-y,1/3-x,5/6+z
1/3+x,2/3+y,2/3+z
1/3-y,2/3+x-y,2/3+z
1/3-x+y,2/3-x,2/3+z
1/3+x-y,2/3-y,1/6-z
1/3-x,2/3-x+y,1/6-z
1/3+y,2/3+x,1/6-z
1/3-x,2/3-y,2/3-z
1/3+y,2/3-x+y,2/3-z
1/3+x-y,2/3+x,2/3-z
1/3-x+y,2/3+y,1/6+z
1/3+x,2/3+x-y,1/6+z
1/3-y,2/3-x,1/6+z
loop_
_atom_site_type_symbol
_atom_site_label
_atom_site_fract_x
_atom_site_fract_y
_atom_site_fract_z
Si Si1 0.772782 0.940717 0.607824
Si Si2 0.744124 0.625916 0.221406
Si Si3 0.818801 0.075510 0.646454
Si Si4 0.923727 0.196603 0.876749
Si Si5 0.738793 0.676834 0.780132
Si Si6 0.936932 0.700878 0.990394
O O1 0.781307 0.877985 0.613210
O O2 0.759436 0.944549 0.546696
O O3 0.701887 0.918961 0.633489
O O4 0.820382 0.008674 0.636848
O O5 0.779329 0.699006 0.196254
O O6 0.781249 0.591705 0.194318
O O7 0.667141 0.581217 0.211041
O O8 0.746665 0.628234 0.283799
O O9 0.775908 0.073835 0.597370
O O10 0.886848 0.220182 0.916667
O O11 0.902807 0.201560 0.818599
O O12 0.732659 0.732659 0.750000
O O13 0.673514 0.634784 0.814566
#
# Coordination Sequence:
#
# PCOD9579400 Si02
#       6
#    36  36  36  36  36  36
#     4  10  20  33  49  74 104 139 173 218 264 314
#     4  11  22  33  53  77 104 140 179 217 264 325
#     4  10  22  37  49  73 110 143 170 218 275 315
#     4  12  21  32  54  81 100 137 185 218 255 327
#     4  11  18  33  52  73 111 141 165 217 265 313
#     4  10  17  31  52  74 104 138 173 208 262 314
#
# _framework density 17.309321000000001
#
# number of rings (size 3 to 8) (size 9 to 14) (size 15 to 20)
#    0.000    1.333    8.333    1.000    0.000    0.000 
#    0.000    0.000    0.000    0.667    0.000    0.000 
#    0.000    4.333    1.000    0.000    0.000    0.000 
#
# Total GULP energy -401090.877960 kJ/mol
# GULP energy per Si atom -5570.706638 kJ/mol
# Density = 1.726992 g / cm^3
# Si number density = 17.309321 Si / 1000 Ang^3
#
#
#
# Elastic Constant Matrix: (Units=GPa)
#
#
# Indices 1 2 3 4 5 6 
#
# 1 60.3098 17.4182 19.8809 -0.7779 0.0000 0.0000
# 2 17.4182 60.3098 19.8809 0.7779 0.0000 0.0000
# 3 19.8809 19.8809 95.8916 0.0000 0.0000 0.0000
# 4 -0.7779 0.7779 0.0000 14.2375 0.0000 0.0000
# 5 0.0000 0.0000 0.0000 0.0000 14.2375 -0.7779
# 6 0.0000 0.0000 0.0000 0.0000 -0.7779 21.4458
#
#
#
# Elastic Compliance Matrix: (Units=1/GPa)
#
#
# Indices 1 2 3 4 5 6 
#
# 1 0.018876 -0.004485 -0.002984 0.001276 0.000000 0.000000
# 2 -0.004485 0.018876 -0.002984 -0.001276 0.000000 0.000000
# 3 -0.002984 -0.002984 0.011666 0.000000 0.000000 0.000000
# 4 0.001276 -0.001276 0.000000 0.070376 0.000000 0.000000
# 5 0.000000 0.000000 0.000000 0.000000 0.070376 0.002553
# 6 0.000000 0.000000 0.000000 0.000000 0.002553 0.046722
#
#
# Mechanical properties :
#
#
# Convention : Reuss Voigt Hill
#
# Bulk Modulus (GPa) = 35.07052 36.76348 35.91700
# Shear Modulus (GPa) = 18.70545 20.60625 19.65585
#
# Velocity S-wave (km/s) = 3.29090 3.45406 3.37347
# Velocity P-wave (km/s) = 5.89450 6.09858 5.99741
#
# Compressibility (1/GPa) = 0.02851397
#
# Stress axis : x y z
#
# Youngs Moduli (GPa) = 52.97644 52.97644 85.72149
#
# Poissons Ratio (x) = 0.23758 0.25578
# Poissons Ratio (y) = 0.23758 0.25578
# Poissons Ratio (z) = 0.15807 0.15807
#
# Static dielectric constant tensor:
#      x y z
#    x 1.649060 0.000000 0.000000 
#    y 0.000000 1.649060 0.000000 
#    z 0.000000 0.000000 1.641860 
# 
# From -- ./inp_files/6400.got.cif
#   From: 2010.05.17/outbox.cif.g08.bks.cpg/sg167_4_cif.got.tgz:6400.got - 2010.05.20 11:09:15.
