data_PCOD9579778
_publ_section_title
;
Structure prediction by ZEFSAII (Michael W. Deem and Ramdas Pophale) SiO2 
 PCOD9579778
Probable space group: P 6
;
_chemical_formula_sum "Si O2"
_cell_formula_units_Z 48
_cell_length_a 18.000000
_cell_length_b 18.000000
_cell_length_c 9.000000
_cell_angle_alpha 90.000000
_cell_angle_beta 90.000000
_cell_angle_gamma 120.000000
_cell_volume 2525.330077
_symmetry_space_group_name_H-M "P 6"
_symmetry_group_IT_number 168
_symmetry_cell_setting 'hexagonal'
loop_
_space_group_symop_operation_xyz
x,y,z
x-y,x,z
-y,x-y,z
-x,-y,z
-x+y,-x,z
y,-x+y,z
loop_
_atom_site_type_symbol
_atom_site_label
_atom_site_fract_x
_atom_site_fract_y
_atom_site_fract_z
Si Si1 0.631933 0.510314 0.269790
Si Si2 0.361319 0.265958 0.538190
Si Si3 0.683759 0.912547 0.627508
Si Si4 0.406801 0.207906 0.055041
Si Si5 0.917351 0.553758 0.250965
Si Si6 0.654076 0.488727 0.627183
Si Si7 0.915808 0.129367 0.920176
Si Si8 0.316489 0.814888 0.759890
O O1 0.717175 0.545952 0.165634
O O2 0.547997 0.421195 0.218515
O O3 0.598533 0.578295 0.252002
O O4 0.641643 0.495447 0.447896
O O5 0.335851 0.167444 0.522595
O O6 0.278518 0.276424 0.542529
O O7 0.429057 0.324030 0.415374
O O8 0.410594 0.298260 0.694514
O O9 0.588543 0.891799 0.682418
O O10 0.747163 0.913304 0.755354
O O11 0.401174 0.282976 0.142425
O O12 0.307626 0.134110 0.009740
O O13 0.471801 0.263271 0.917029
O O14 0.572278 0.416642 0.722809
O O15 0.730235 0.468208 0.658497
O O16 0.022204 0.166280 0.940675
#
# Coordination Sequence:
#
# PCOD9579778 Si02
#       8
#     6   6   6   6   6   6   6   6
#     4  11  25  44  69  96 138 184 236 289 346 430
#     4  11  21  42  66 101 128 178 229 287 348 421
#     4  11  21  37  70  98 132 170 232 285 353 420
#     4  12  25  45  68 101 142 189 235 292 361 426
#     4  11  25  44  66  99 138 183 236 283 351 421
#     4  11  22  43  65  98 129 183 232 289 344 412
#     4  12  24  45  71 105 141 184 234 300 369 442
#     4  11  24  40  67  95 138 179 233 289 347 413
#
# _framework density 19.007415999999999
#
# number of rings (size 3 to 8) (size 9 to 14) (size 15 to 20)
#    0.000    0.750    6.250    2.625    1.750    0.500 
#    0.750    0.000    0.000    0.000    0.000    0.000 
#    0.000    0.000    0.000    0.000    0.000    0.000 
#
# Total GULP energy -267233.914236 kJ/mol
# GULP energy per Si atom -5567.373213 kJ/mol
# Density = 1.896415 g / cm^3
# Si number density = 19.007416 Si / 1000 Ang^3
#
#
#
# Elastic Constant Matrix: (Units=GPa)
#
#
# Indices 1 2 3 4 5 6 
#
# 1 126.8657 48.7038 29.8902 0.0000 0.0000 0.0000
# 2 48.7038 126.8657 29.8902 0.0000 0.0000 0.0000
# 3 29.8902 29.8902 81.1982 0.0000 0.0000 0.0000
# 4 0.0000 0.0000 0.0000 35.4266 0.0000 0.0000
# 5 0.0000 0.0000 0.0000 0.0000 35.4266 0.0000
# 6 0.0000 0.0000 0.0000 0.0000 0.0000 39.0810
#
#
#
# Elastic Compliance Matrix: (Units=1/GPa)
#
#
# Indices 1 2 3 4 5 6 
#
# 1 0.009653 -0.003141 -0.002397 0.000000 0.000000 0.000000
# 2 -0.003141 0.009653 -0.002397 0.000000 0.000000 0.000000
# 3 -0.002397 -0.002397 0.014080 0.000000 0.000000 0.000000
# 4 0.000000 0.000000 0.000000 0.028227 0.000000 0.000000
# 5 0.000000 0.000000 0.000000 0.000000 0.028227 0.000000
# 6 0.000000 0.000000 0.000000 0.000000 0.000000 0.025588
#
#
# Mechanical properties :
#
#
# Convention : Reuss Voigt Hill
#
# Bulk Modulus (GPa) = 57.09154 61.32202 59.20678
# Shear Modulus (GPa) = 36.45959 37.08319 36.77139
#
# Velocity S-wave (km/s) = 4.38445 4.42179 4.40316
# Velocity P-wave (km/s) = 7.46545 7.64211 7.55429
#
# Compressibility (1/GPa) = 0.01751573
#
# Stress axis : x y z
#
# Youngs Moduli (GPa) = 103.59519 103.59519 71.02078
#
# Poissons Ratio (x) = 0.32539 0.17025
# Poissons Ratio (y) = 0.32539 0.17025
# Poissons Ratio (z) = 0.24833 0.24833
#
# Static dielectric constant tensor:
#      x y z
#    x 1.694570 0.000000 0.000000 
#    y 0.000000 1.694570 0.000000 
#    z 0.000000 0.000000 1.719280 
# 
# From -- ./inp_files/334.got.cif
#   From: 2010.05.17/outbox.ucp.g08.bks.cvg/sg168_cif.got.tgz:334.got - 2010.06.11 15:17:55.
