data_PCOD9579829
_publ_section_title
;
Structure prediction by ZEFSAII (Michael W. Deem and Ramdas Pophale) SiO2 
 PCOD9579829
Probable space group: P 61
;
_chemical_formula_sum "Si O2"
_cell_formula_units_Z 36
_cell_length_a 15.318566
_cell_length_b 15.318566
_cell_length_c 7.608026
_cell_angle_alpha 90.000000
_cell_angle_beta 90.000000
_cell_angle_gamma 120.000000
_cell_volume 1546.104499
_symmetry_space_group_name_H-M "P 61"
_symmetry_group_IT_number 169
_symmetry_cell_setting 'hexagonal'
loop_
_space_group_symop_operation_xyz
x,y,z
x-y,x,1/6+z
-y,x-y,1/3+z
-x,-y,1/2+z
-x+y,-x,2/3+z
y,-x+y,5/6+z
loop_
_atom_site_type_symbol
_atom_site_label
_atom_site_fract_x
_atom_site_fract_y
_atom_site_fract_z
Si Si1 0.816044 0.003978 0.502890
Si Si2 0.592664 0.263171 0.188198
Si Si3 0.536730 0.959248 0.278812
Si Si4 0.804845 0.643299 0.472663
Si Si5 0.406674 0.288658 0.162025
Si Si6 0.895240 0.534579 0.316875
O O1 0.748753 0.047890 0.588440
O O2 0.923749 0.097059 0.454161
O O3 0.751332 0.938138 0.330993
O O4 0.650253 0.291524 0.372984
O O5 0.484156 0.253259 0.224025
O O6 0.606004 0.174048 0.098189
O O7 0.559046 0.870581 0.321918
O O8 0.418611 0.918328 0.299759
O O9 0.597873 0.046490 0.423949
O O10 0.588959 0.002161 0.094033
O O11 0.858692 0.631588 0.643717
O O12 0.849061 0.607600 0.315411
#
# Coordination Sequence:
#
# PCOD9579829 Si02
#       6
#     6   6   6   6   6   6
#     4   9  18  34  65  88 114 169 230 290 347 393
#     4  12  23  41  66  99 142 183 224 271 335 416
#     4  10  19  34  59  82 121 165 212 262 319 387
#     4   9  17  35  57  87 117 162 219 270 322 407
#     4   9  18  35  59  93 118 168 228 269 324 414
#     4  11  21  37  58  91 128 167 221 270 331 403
#
# _framework density 23.284326
#
# number of rings (size 3 to 8) (size 9 to 14) (size 15 to 20)
#    0.000    2.000    5.000    1.000    0.000    2.667 
#    0.000    0.000    3.667    0.000    0.000    0.000 
#    0.000    0.000    0.000    0.000    0.000    0.000 
#
# Total GULP energy -200815.368950 kJ/mol
# GULP energy per Si atom -5578.204693 kJ/mol
# Density = 2.323133 g / cm^3
# Si number density = 23.284326 Si / 1000 Ang^3
#
#
#
# Elastic Constant Matrix: (Units=GPa)
#
#
# Indices 1 2 3 4 5 6 
#
# 1 89.2466 22.2079 1.0664 0.0000 0.0000 0.0000
# 2 22.2079 89.2466 1.0664 0.0000 0.0000 0.0000
# 3 1.0664 1.0664 41.2645 0.0000 0.0000 0.0000
# 4 0.0000 0.0000 0.0000 23.0692 0.0000 0.0000
# 5 0.0000 0.0000 0.0000 0.0000 23.0692 0.0000
# 6 0.0000 0.0000 0.0000 0.0000 0.0000 33.5194
#
#
#
# Elastic Compliance Matrix: (Units=1/GPa)
#
#
# Indices 1 2 3 4 5 6 
#
# 1 0.011947 -0.002970 -0.000232 0.000000 0.000000 0.000000
# 2 -0.002970 0.011947 -0.000232 0.000000 0.000000 0.000000
# 3 -0.000232 -0.000232 0.024246 0.000000 0.000000 0.000000
# 4 0.000000 0.000000 0.000000 0.043348 0.000000 0.000000
# 5 0.000000 0.000000 0.000000 0.000000 0.043348 0.000000
# 6 0.000000 0.000000 0.000000 0.000000 0.000000 0.029834
#
#
# Mechanical properties :
#
#
# Convention : Reuss Voigt Hill
#
# Bulk Modulus (GPa) = 24.22986 29.82656 27.02821
# Shear Modulus (GPa) = 26.98418 28.95934 27.97176
#
# Velocity S-wave (km/s) = 3.40795 3.53048 3.46976
# Velocity P-wave (km/s) = 5.09060 5.42739 5.26169
#
# Compressibility (1/GPa) = 0.04127139
#
# Stress axis : x y z
#
# Youngs Moduli (GPa) = 83.70489 83.70489 41.24405
#
# Poissons Ratio (x) = 0.24861 0.00957
# Poissons Ratio (y) = 0.24861 0.00957
# Poissons Ratio (z) = 0.01942 0.01942
#
# Static dielectric constant tensor:
#      x y z
#    x 1.922540 0.000000 0.000000 
#    y 0.000000 1.922540 0.000000 
#    z 0.000000 0.000000 1.951470 
# 
# From -- ./inp_files/621.got.cif
#   From: 2010.05.17/outbox.cif.g08.bks.cpg/sg169_cif.got.tgz:621.got - 2010.05.20 11:12:54.
