data_PCOD9579876
_publ_section_title
;
Structure prediction by ZEFSAII (Michael W. Deem and Ramdas Pophale) SiO2 
 PCOD9579876
Probable space group: P 61
;
_chemical_formula_sum "Si O2"
_cell_formula_units_Z 30
_cell_length_a 12.241589
_cell_length_b 12.241589
_cell_length_c 9.962858
_cell_angle_alpha 90.000000
_cell_angle_beta 90.000000
_cell_angle_gamma 120.000000
_cell_volume 1292.975098
_symmetry_space_group_name_H-M "P 61"
_symmetry_group_IT_number 169
_symmetry_cell_setting 'hexagonal'
loop_
_space_group_symop_operation_xyz
x,y,z
x-y,x,1/6+z
-y,x-y,1/3+z
-x,-y,1/2+z
-x+y,-x,2/3+z
y,-x+y,5/6+z
loop_
_atom_site_type_symbol
_atom_site_label
_atom_site_fract_x
_atom_site_fract_y
_atom_site_fract_z
Si Si1 0.584879 0.309795 0.535390
Si Si2 0.500226 0.358962 0.810325
Si Si3 0.481359 0.382820 0.278780
Si Si4 0.750062 0.869620 0.832487
Si Si5 0.780030 0.997912 0.101577
O O1 0.505477 0.306545 0.663471
O O2 0.733088 0.411452 0.560650
O O3 0.537453 0.361177 0.415920
O O4 0.577867 0.176192 0.512473
O O5 0.551933 0.507653 0.798509
O O6 0.352476 0.294557 0.841735
O O7 0.361155 0.247483 0.255065
O O8 0.822598 0.984520 0.732610
O O9 0.708563 0.917904 0.966132
O O10 0.800229 0.908910 0.203989
#
# Coordination Sequence:
#
# PCOD9579876 Si02
#       5
#     6   6   6   6   6
#     4  10  23  38  58  92 118 153 207 249 299 366
#     4  11  22  39  61  88 123 160 200 254 307 364
#     4  11  21  39  63  86 121 160 198 252 308 364
#     4  10  20  36  58  84 113 154 199 242 297 356
#     4  10  20  38  62  86 117 161 200 241 297 358
#
# _framework density 23.202300999999999
#
# number of rings (size 3 to 8) (size 9 to 14) (size 15 to 20)
#    0.000    1.600    0.000    7.200    0.000    3.200 
#    0.000   10.000    0.000    0.000    0.000    0.000 
#    0.000    0.000    0.000    0.000    0.000    0.000 
#
# Total GULP energy -167738.125617 kJ/mol
# GULP energy per Si atom -5591.270854 kJ/mol
# Density = 2.314949 g / cm^3
# Si number density = 23.202301 Si / 1000 Ang^3
#
#
#
# Elastic Constant Matrix: (Units=GPa)
#
#
# Indices 1 2 3 4 5 6 
#
# 1 109.5213 30.7547 -12.9144 0.0000 0.0000 0.0000
# 2 30.7547 109.5213 -12.9144 0.0000 0.0000 0.0000
# 3 -12.9144 -12.9144 18.6548 0.0000 0.0000 0.0000
# 4 0.0000 0.0000 0.0000 15.0541 0.0000 0.0000
# 5 0.0000 0.0000 0.0000 0.0000 15.0541 0.0000
# 6 0.0000 0.0000 0.0000 0.0000 0.0000 39.3833
#
#
#
# Elastic Compliance Matrix: (Units=1/GPa)
#
#
# Indices 1 2 3 4 5 6 
#
# 1 0.010433 -0.002263 0.005656 0.000000 0.000000 0.000000
# 2 -0.002263 0.010433 0.005656 0.000000 0.000000 0.000000
# 3 0.005656 0.005656 0.061437 0.000000 0.000000 0.000000
# 4 0.000000 0.000000 0.000000 0.066427 0.000000 0.000000
# 5 0.000000 0.000000 0.000000 0.000000 0.066427 0.000000
# 6 0.000000 0.000000 0.000000 0.000000 0.000000 0.025391
#
#
# Mechanical properties :
#
#
# Convention : Reuss Voigt Hill
#
# Bulk Modulus (GPa) = 9.95997 27.50545 18.73271
# Shear Modulus (GPa) = 19.53760 29.41639 24.47699
#
# Velocity S-wave (km/s) = 2.90497 3.56451 3.25150
# Velocity P-wave (km/s) = 3.94382 5.36855 4.71037
#
# Compressibility (1/GPa) = 0.10040187
#
# Stress axis : x y z
#
# Youngs Moduli (GPa) = 95.84964 95.84964 16.27690
#
# Poissons Ratio (x) = 0.21688 -0.09206
# Poissons Ratio (y) = 0.21688 -0.09206
# Poissons Ratio (z) = -0.54214 -0.54214
#
# Static dielectric constant tensor:
#      x y z
#    x 1.873980 0.000000 0.000000 
#    y 0.000000 1.873980 0.000000 
#    z 0.000000 0.000000 1.884750 
# 
# From -- ./inp_files/875.got.cif
#   From: 2010.05.17/outbox.cif.g08.bks.cpg/sg169_cif.got.tgz:875.got - 2010.05.20 11:12:54.
