data_PCOD9579153
_publ_section_title
;
Structure prediction by ZEFSAII (Michael W. Deem and Ramdas Pophale) SiO2 
 PCOD9579153
Probable space group: R -3 M
;
_chemical_formula_sum "Si O2"
_cell_formula_units_Z 162
_cell_length_a 20.827452
_cell_length_b 20.827452
_cell_length_c 23.843124
_cell_angle_alpha 90.000000
_cell_angle_beta 90.000000
_cell_angle_gamma 120.000000
_cell_volume 8957.072172
_symmetry_space_group_name_H-M "R -3 M"
_symmetry_group_IT_number 166
_symmetry_cell_setting 'hexagonal'
loop_
_space_group_symop_operation_xyz
x,y,z
-y,x-y,z
-x+y,-x,z
x-y,-y,-z
-x,-x+y,-z
y,x,-z
-x,-y,-z
y,-x+y,-z
x-y,x,-z
-x+y,y,z
x,x-y,z
-y,-x,z
2/3+x,1/3+y,1/3+z
2/3-y,1/3+x-y,1/3+z
2/3-x+y,1/3-x,1/3+z
2/3+x-y,1/3-y,1/3-z
2/3-x,1/3-x+y,1/3-z
2/3+y,1/3+x,1/3-z
2/3-x,1/3-y,1/3-z
2/3+y,1/3-x+y,1/3-z
2/3+x-y,1/3+x,1/3-z
2/3-x+y,1/3+y,1/3+z
2/3+x,1/3+x-y,1/3+z
2/3-y,1/3-x,1/3+z
1/3+x,2/3+y,2/3+z
1/3-y,2/3+x-y,2/3+z
1/3-x+y,2/3-x,2/3+z
1/3+x-y,2/3-y,2/3-z
1/3-x,2/3-x+y,2/3-z
1/3+y,2/3+x,2/3-z
1/3-x,2/3-y,2/3-z
1/3+y,2/3-x+y,2/3-z
1/3+x-y,2/3+x,2/3-z
1/3-x+y,2/3+y,2/3+z
1/3+x,2/3+x-y,2/3+z
1/3-y,2/3-x,2/3+z
loop_
_atom_site_type_symbol
_atom_site_label
_atom_site_fract_x
_atom_site_fract_y
_atom_site_fract_z
Si Si1 0.800200 0.046425 0.162610
Si Si2 0.761255 0.958553 0.612745
Si Si3 0.513264 0.179257 0.058924
Si Si4 0.000000 0.846110 0.500000
Si Si5 0.128498 0.410649 0.613326
O O1 0.879790 0.120211 0.153179
O O2 0.741005 0.074338 0.166667
O O3 0.806158 0.010611 0.220580
O O4 0.780179 0.991620 0.110620
O O5 0.761511 0.880755 0.612728
O O6 0.802348 0.999138 0.555827
O O7 0.675674 0.935337 0.613954
O O8 0.804980 0.000235 0.668564
O O9 0.591672 0.183344 0.063502
O O10 0.523911 0.261956 0.056811
O O11 0.926869 0.853737 0.499749
O O12 0.206916 0.413832 0.616762
O O13 0.116690 0.450024 0.666667
#
# Coordination Sequence:
#
# PCOD9579153 Si02
#       5
#    36  36  36  18  36
#     4  10  21  37  60  86 112 146 187 232 282 338
#     4   9  20  35  53  79 113 149 185 226 271 328
#     4  10  19  34  56  84 115 146 183 229 280 333
#     4  10  19  34  56  82 115 152 192 234 282 336
#     4  11  22  38  60  83 111 150 191 235 285 336
#
# _framework density 18.086266999999999
#
# number of rings (size 3 to 8) (size 9 to 14) (size 15 to 20)
#    0.000    2.000    0.000    3.667    1.556    3.556 
#    0.000    2.222    0.000    8.000    0.000    0.000 
#    0.000    0.000    0.000    0.000    0.000    0.000 
#
# Total GULP energy -301578.089792 kJ/mol
# GULP energy per Si atom -5584.779441 kJ/mol
# Density = 1.804510 g / cm^3
# Si number density = 18.086267 Si / 1000 Ang^3
#
#
#
# Elastic Constant Matrix: (Units=GPa)
#
#
# Indices 1 2 3 4 5 6 
#
# 1 87.8634 42.0782 81.4699 -4.3805 -0.0010 0.0000
# 2 42.0782 87.8634 81.4699 4.3805 0.0010 0.0000
# 3 81.4699 81.4699 203.2485 0.0000 0.0000 0.0000
# 4 -4.3805 4.3805 0.0000 28.6776 0.0000 0.0010
# 5 -0.0010 0.0010 0.0000 0.0000 28.6776 -4.3805
# 6 0.0000 0.0000 0.0000 0.0010 -4.3805 22.8926
#
#
#
# Elastic Compliance Matrix: (Units=1/GPa)
#
#
# Indices 1 2 3 4 5 6 
#
# 1 0.018986 -0.003513 -0.006202 0.003437 0.000001 0.000000
# 2 -0.003513 0.018986 -0.006202 -0.003437 -0.000001 0.000000
# 3 -0.006202 -0.006202 0.009892 0.000000 0.000000 0.000000
# 4 0.003437 -0.003437 0.000000 0.035920 0.000000 -0.000002
# 5 0.000001 -0.000001 0.000000 0.000000 0.035920 0.006873
# 6 0.000000 0.000000 0.000000 -0.000002 0.006873 0.044997
#
#
# Mechanical properties :
#
#
# Convention : Reuss Voigt Hill
#
# Bulk Modulus (GPa) = 62.38507 87.66792 75.02650
# Shear Modulus (GPa) = 24.76724 27.64670 26.20697
#
# Velocity S-wave (km/s) = 3.70455 3.91398 3.81070
# Velocity P-wave (km/s) = 7.27091 8.30680 7.80606
#
# Compressibility (1/GPa) = 0.01602948
#
# Stress axis : x y z
#
# Youngs Moduli (GPa) = 52.67084 52.67084 101.08947
#
# Poissons Ratio (x) = 0.18503 0.62697
# Poissons Ratio (y) = 0.18503 0.62697
# Poissons Ratio (z) = 0.32667 0.32667
#
# Static dielectric constant tensor:
#      x y z
#    x 1.598900 0.000000 0.000000 
#    y 0.000000 1.598900 0.000000 
#    z 0.000000 0.000000 1.597100 
# 
# From -- ./inp_files/6728.got.cif
#   From: 2010.05.17/outbox.cif.g08.bks.cpg/sg166_4_cif.got.tgz:6728.got - 2010.05.20 11:04:41.
