data_PCOD9579505
_publ_section_title
;
Structure prediction by ZEFSAII (Michael W. Deem and Ramdas Pophale) SiO2 
 PCOD9579505
Probable space group: R -3 C 
;
_chemical_formula_sum "Si O2"
_cell_formula_units_Z 144
_cell_length_a 28.471233
_cell_length_b 28.471233
_cell_length_c 9.694215
_cell_angle_alpha 90.000000
_cell_angle_beta 90.000000
_cell_angle_gamma 120.000000
_cell_volume 6805.434055
_symmetry_space_group_name_H-M "R -3 C "
_symmetry_group_IT_number 167
_symmetry_cell_setting 'hexagonal'
loop_
_space_group_symop_operation_xyz
x,y,z
-y,x-y,z
-x+y,-x,z
x-y,-y,1/2-z
-x,-x+y,1/2-z
y,x,1/2-z
-x,-y,-z
y,-x+y,-z
x-y,x,-z
-x+y,y,1/2+z
x,x-y,1/2+z
-y,-x,1/2+z
2/3+x,1/3+y,1/3+z
2/3-y,1/3+x-y,1/3+z
2/3-x+y,1/3-x,1/3+z
2/3+x-y,1/3-y,5/6-z
2/3-x,1/3-x+y,5/6-z
2/3+y,1/3+x,5/6-z
2/3-x,1/3-y,1/3-z
2/3+y,1/3-x+y,1/3-z
2/3+x-y,1/3+x,1/3-z
2/3-x+y,1/3+y,5/6+z
2/3+x,1/3+x-y,5/6+z
2/3-y,1/3-x,5/6+z
1/3+x,2/3+y,2/3+z
1/3-y,2/3+x-y,2/3+z
1/3-x+y,2/3-x,2/3+z
1/3+x-y,2/3-y,1/6-z
1/3-x,2/3-x+y,1/6-z
1/3+y,2/3+x,1/6-z
1/3-x,2/3-y,2/3-z
1/3+y,2/3-x+y,2/3-z
1/3+x-y,2/3+x,2/3-z
1/3-x+y,2/3+y,1/6+z
1/3+x,2/3+x-y,1/6+z
1/3-y,2/3-x,1/6+z
loop_
_atom_site_type_symbol
_atom_site_label
_atom_site_fract_x
_atom_site_fract_y
_atom_site_fract_z
Si Si1 0.637608 0.856273 0.936737
Si Si2 0.878448 0.082425 0.746290
Si Si3 0.089222 0.361116 0.935765
Si Si4 0.608429 0.207336 0.327471
O O1 0.666667 0.833334 0.833334
O O2 0.574796 0.812956 0.946648
O O3 0.651263 0.908857 0.851952
O O4 0.666667 0.869136 0.083334
O O5 0.814598 0.064507 0.749102
O O6 0.903736 0.075059 0.605926
O O7 0.895819 0.055094 0.864077
O O8 0.045694 0.379027 0.916667
O O9 0.086074 0.333334 0.083334
O O10 0.579856 0.242704 0.290927
#
# Coordination Sequence:
#
# PCOD9579505 Si02
#       4
#    36  36  36  36
#     4  10  20  38  65  94 127 167 216 271 322 376
#     4  11  22  41  67  91 120 167 216 257 309 389
#     4  11  23  41  63  93 133 172 215 270 327 388
#     4  12  25  42  63  92 125 160 204 262 326 385
#
# _framework density 21.159562000000001
#
# number of rings (size 3 to 8) (size 9 to 14) (size 15 to 20)
#    0.000    1.000    0.000   10.750    0.000    1.000 
#    0.000    7.500    0.000    0.000    0.000    0.000 
#    0.000    0.000    0.000    0.000    0.000    0.000 
#
# Total GULP energy -267888.487086 kJ/mol
# GULP energy per Si atom -5581.010148 kJ/mol
# Density = 2.111140 g / cm^3
# Si number density = 21.159562 Si / 1000 Ang^3
#
#
#
# Elastic Constant Matrix: (Units=GPa)
#
#
# Indices 1 2 3 4 5 6 
#
# 1 85.3132 19.7975 4.7079 5.1716 -0.0090 -0.0045
# 2 19.7975 85.3235 4.7112 -5.1651 0.0027 -0.0006
# 3 4.7079 4.7112 119.8550 0.0218 -0.0498 -0.0243
# 4 5.1716 -5.1651 0.0218 15.3250 0.0198 0.0056
# 5 -0.0090 0.0027 -0.0498 0.0198 15.2948 5.1608
# 6 -0.0045 -0.0006 -0.0243 0.0056 5.1608 32.7509
#
#
#
# Elastic Compliance Matrix: (Units=1/GPa)
#
#
# Indices 1 2 3 4 5 6 
#
# 1 0.012834 -0.003287 -0.000374 -0.005438 0.000014 0.000000
# 2 -0.003287 0.012832 -0.000376 0.005435 -0.000013 0.000001
# 3 -0.000374 -0.000376 0.008373 -0.000013 0.000026 0.000002
# 4 -0.005438 0.005435 -0.000013 0.068920 -0.000094 0.000002
# 5 0.000014 -0.000013 0.000026 -0.000094 0.069054 -0.010881
# 6 0.000000 0.000001 0.000002 0.000002 -0.010881 0.032248
#
#
# Mechanical properties :
#
#
# Convention : Reuss Voigt Hill
#
# Bulk Modulus (GPa) = 38.51156 38.76943 38.64050
# Shear Modulus (GPa) = 22.62537 30.09245 26.35891
#
# Velocity S-wave (km/s) = 3.27352 3.77526 3.53331
# Velocity P-wave (km/s) = 5.70333 6.11274 5.91158
#
# Compressibility (1/GPa) = 0.02596623
#
# Stress axis : x y z
#
# Youngs Moduli (GPa) = 77.91507 77.92749 119.43275
#
# Poissons Ratio (x) = 0.25611 0.04466
# Poissons Ratio (y) = 0.25607 0.04494
# Poissons Ratio (z) = 0.02914 0.02932
#
# Static dielectric constant tensor:
#      x y z
#    x 2.042690 0.000330 -0.000030 
#    y 0.000330 2.043250 0.000040 
#    z -0.000030 0.000040 1.675070 
# 
# From -- ./inp_files/771.got.cif
#   From: 2010.05.17/outbox.cif.g08.bks.cpg/sg167_1_cif.got.tgz:771.got - 2010.05.20 11:09:15.
