data_PCOD9579608
_publ_section_title
;
Structure prediction by ZEFSAII (Michael W. Deem and Ramdas Pophale) SiO2 
 PCOD9579608
Probable space group: R -3 C 
;
_chemical_formula_sum "Si O2"
_cell_formula_units_Z 84
_cell_length_a 13.978627
_cell_length_b 13.978627
_cell_length_c 19.606281
_cell_angle_alpha 90.000000
_cell_angle_beta 90.000000
_cell_angle_gamma 120.000000
_cell_volume 3317.835788
_symmetry_space_group_name_H-M "R -3 C "
_symmetry_group_IT_number 167
_symmetry_cell_setting 'hexagonal'
loop_
_space_group_symop_operation_xyz
x,y,z
-y,x-y,z
-x+y,-x,z
x-y,-y,1/2-z
-x,-x+y,1/2-z
y,x,1/2-z
-x,-y,-z
y,-x+y,-z
x-y,x,-z
-x+y,y,1/2+z
x,x-y,1/2+z
-y,-x,1/2+z
2/3+x,1/3+y,1/3+z
2/3-y,1/3+x-y,1/3+z
2/3-x+y,1/3-x,1/3+z
2/3+x-y,1/3-y,5/6-z
2/3-x,1/3-x+y,5/6-z
2/3+y,1/3+x,5/6-z
2/3-x,1/3-y,1/3-z
2/3+y,1/3-x+y,1/3-z
2/3+x-y,1/3+x,1/3-z
2/3-x+y,1/3+y,5/6+z
2/3+x,1/3+x-y,5/6+z
2/3-y,1/3-x,5/6+z
1/3+x,2/3+y,2/3+z
1/3-y,2/3+x-y,2/3+z
1/3-x+y,2/3-x,2/3+z
1/3+x-y,2/3-y,1/6-z
1/3-x,2/3-x+y,1/6-z
1/3+y,2/3+x,1/6-z
1/3-x,2/3-y,2/3-z
1/3+y,2/3-x+y,2/3-z
1/3+x-y,2/3+x,2/3-z
1/3-x+y,2/3+y,1/6+z
1/3+x,2/3+x-y,1/6+z
1/3-y,2/3-x,1/6+z
loop_
_atom_site_type_symbol
_atom_site_label
_atom_site_fract_x
_atom_site_fract_y
_atom_site_fract_z
Si Si1 0.634613 0.032832 0.176139
Si Si2 0.833918 0.562965 0.712681
Si Si3 0.000000 0.000000 0.079915
O O1 0.730184 0.163528 0.177545
O O2 0.724947 0.992635 0.166624
O O3 0.581034 0.000000 0.250000
O O4 0.549258 0.973315 0.114102
O O5 0.780873 0.436049 0.730794
O O6 0.000000 0.000000 0.000000
#
# Coordination Sequence:
#
# PCOD9579608 Si02
#       3
#    36  36  12
#     4  10  22  44  70 101 142 194 239 318 380 462
#     4  10  24  42  70 103 144 186 256 304 390 445
#     4  12  24  42  64 110 139 186 252 319 362 478
#
# _framework density 25.317708
#
# number of rings (size 3 to 8) (size 9 to 14) (size 15 to 20)
#    0.000    1.714    0.000    2.571    6.000    0.000 
#    0.000    0.000    0.000    0.000    0.000    0.000 
#    0.000    0.000    0.000    0.000    0.000    0.000 
#
# Total GULP energy -156102.086275 kJ/mol
# GULP energy per Si atom -5575.074510 kJ/mol
# Density = 2.526008 g / cm^3
# Si number density = 25.317708 Si / 1000 Ang^3
#
#
#
# Elastic Constant Matrix: (Units=GPa)
#
#
# Indices 1 2 3 4 5 6 
#
# 1 107.4448 51.3654 32.6896 5.0317 0.0000 0.0000
# 2 51.3654 107.4448 32.6896 -5.0317 0.0000 0.0000
# 3 32.6896 32.6896 133.5180 0.0000 0.0000 0.0000
# 4 5.0317 -5.0317 0.0000 42.2452 0.0000 0.0000
# 5 0.0000 0.0000 0.0000 0.0000 42.2452 5.0317
# 6 0.0000 0.0000 0.0000 0.0000 5.0317 28.0397
#
#
#
# Elastic Compliance Matrix: (Units=1/GPa)
#
#
# Indices 1 2 3 4 5 6 
#
# 1 0.012612 -0.005609 -0.001714 -0.002170 0.000000 0.000000
# 2 -0.005609 0.012612 -0.001714 0.002170 0.000000 0.000000
# 3 -0.001714 -0.001714 0.008329 0.000000 0.000000 0.000000
# 4 -0.002170 0.002170 0.000000 0.024188 0.000000 0.000000
# 5 0.000000 0.000000 0.000000 0.000000 0.024188 -0.004341
# 6 0.000000 0.000000 0.000000 0.000000 -0.004341 0.036443
#
#
# Mechanical properties :
#
#
# Convention : Reuss Voigt Hill
#
# Bulk Modulus (GPa) = 64.61401 64.65522 64.63461
# Shear Modulus (GPa) = 35.30880 37.95021 36.62951
#
# Velocity S-wave (km/s) = 3.73852 3.87584 3.80780
# Velocity P-wave (km/s) = 6.64922 6.75444 6.70204
#
# Compressibility (1/GPa) = 0.01547652
#
# Stress axis : x y z
#
# Youngs Moduli (GPa) = 79.28976 79.28976 120.06028
#
# Poissons Ratio (x) = 0.44476 0.20584
# Poissons Ratio (y) = 0.44476 0.20584
# Poissons Ratio (z) = 0.13594 0.13594
#
# Static dielectric constant tensor:
#      x y z
#    x 1.417820 0.000000 0.000000 
#    y 0.000000 1.417820 0.000000 
#    z 0.000000 0.000000 2.097900 
# 
# From -- ./inp_files/3988.got.cif
#   From: 2010.05.17/outbox.cif.g08.bks.cpg/sg167_2_cif.got.tgz:3988.got - 2010.05.20 11:09:15.
