data_PCOD9579775
_publ_section_title
;
Structure prediction by ZEFSAII (Michael W. Deem and Ramdas Pophale) SiO2 
 PCOD9579775
Probable space group: P 6
;
_chemical_formula_sum "Si O2"
_cell_formula_units_Z 31
_cell_length_a 14.830350
_cell_length_b 14.830350
_cell_length_c 9.163977
_cell_angle_alpha 90.000000
_cell_angle_beta 90.000000
_cell_angle_gamma 120.000000
_cell_volume 1745.490235
_symmetry_space_group_name_H-M "P 6"
_symmetry_group_IT_number 168
_symmetry_cell_setting 'hexagonal'
loop_
_space_group_symop_operation_xyz
x,y,z
x-y,x,z
-y,x-y,z
-x,-y,z
-x+y,-x,z
y,-x+y,z
loop_
_atom_site_type_symbol
_atom_site_label
_atom_site_fract_x
_atom_site_fract_y
_atom_site_fract_z
Si Si1 0.500000 0.000000 0.544370
Si Si2 0.870547 0.762120 0.721366
Si Si3 0.705911 0.528692 0.690726
Si Si4 0.762120 0.870552 0.367385
Si Si5 0.705912 0.177218 0.398025
Si Si6 0.333334 0.666667 0.871868
Si Si7 0.333334 0.666668 0.216886
O O1 0.528127 0.926499 0.640504
O O2 0.398370 0.926503 0.448239
O O3 0.814767 0.825539 0.773664
O O4 0.794012 0.640493 0.749786
O O5 0.884121 0.768248 0.544376
O O6 0.753037 0.506071 0.544377
O O7 0.678836 0.439090 0.806253
O O8 0.825536 0.814770 0.315087
O O9 0.640493 0.794018 0.338965
O O10 0.678836 0.239746 0.282500
O O11 0.333334 0.666667 0.044377
#
# Coordination Sequence:
#
# PCOD9579775 Si02
#       7
#     3   6   6   6   6   2   2
#     4  12  20  32  66  88 114 148 210 252 306 340
#     4   9  17  29  51  83 117 146 181 231 293 351
#     4  11  20  37  60  89 115 154 198 247 294 357
#     4   9  17  29  51  83 117 146 181 231 293 351
#     4  11  20  37  60  89 115 154 198 247 294 357
#     4  12  25  41  58  84 124 161 193 240 304 368
#     4  12  25  41  58  84 124 161 193 240 304 368
#
# _framework density 17.760054
#
# number of rings (size 3 to 8) (size 9 to 14) (size 15 to 20)
#    0.000    1.548    3.871    5.032    0.000    1.548 
#    0.000    0.968    0.000    0.000    0.000    0.000 
#    0.000    3.097    0.000    0.000    0.000    0.000 
#
# Total GULP energy -173009.531525 kJ/mol
# GULP energy per Si atom -5580.952630 kJ/mol
# Density = 1.771963 g / cm^3
# Si number density = 17.760054 Si / 1000 Ang^3
#
#
#
# Elastic Constant Matrix: (Units=GPa)
#
#
# Indices 1 2 3 4 5 6 
#
# 1 152.2189 74.3999 53.8263 0.0000 0.0000 -0.0003
# 2 74.3999 152.2200 53.8264 0.0000 0.0000 -0.0004
# 3 53.8263 53.8264 66.1494 0.0000 0.0000 -0.0001
# 4 0.0000 0.0000 0.0000 0.3369 -0.0002 0.0000
# 5 0.0000 0.0000 0.0000 -0.0002 0.3366 0.0000
# 6 -0.0003 -0.0004 -0.0001 0.0000 0.0000 38.9098
#
#
#
# Elastic Compliance Matrix: (Units=1/GPa)
#
#
# Indices 1 2 3 4 5 6 
#
# 1 0.010022 -0.002829 -0.005853 0.000000 0.000000 0.000000
# 2 -0.002829 0.010022 -0.005853 0.000000 0.000000 0.000000
# 3 -0.005853 -0.005853 0.024643 0.000000 0.000000 0.000000
# 4 0.000000 0.000000 0.000000 2.967966 0.001714 0.000000
# 5 0.000000 0.000000 0.000000 0.001714 2.970479 0.000000
# 6 0.000000 0.000000 0.000000 0.000000 0.000000 0.025700
#
#
# Mechanical properties :
#
#
# Convention : Reuss Voigt Hill
#
# Bulk Modulus (GPa) = 64.03458 81.63262 72.83360
# Shear Modulus (GPa) = 0.82739 20.48571 10.65655
#
# Velocity S-wave (km/s) = 0.68329 3.39996 2.45221
# Velocity P-wave (km/s) = 6.06269 7.84072 7.00832
#
# Compressibility (1/GPa) = 0.01561656
#
# Stress axis : x y z
#
# Youngs Moduli (GPa) = 99.78308 99.78397 40.57982
#
# Poissons Ratio (x) = 0.28224 0.23752
# Poissons Ratio (y) = 0.28224 0.23752
# Poissons Ratio (z) = 0.58405 0.58405
#
# Static dielectric constant tensor:
#      x y z
#    x 1.617150 0.000000 0.000000 
#    y 0.000000 1.617150 0.000000 
#    z 0.000000 0.000000 1.573240 
# 
# From -- ./inp_files/276.got.cif
#   From: 2010.05.17/outbox.cif.g08.bks.cpg/sg168_cif.got.tgz:276.got - 2010.05.20 11:12:33.
