data_PCOD9579713
_publ_section_title
;
Structure prediction by ZEFSAII (Michael W. Deem and Ramdas Pophale) SiO2 
 PCOD9579713
Probable space group: R -3 C 
;
_chemical_formula_sum "Si O2"
_cell_formula_units_Z 162
_cell_length_a 20.143460
_cell_length_b 20.143460
_cell_length_c 22.358576
_cell_angle_alpha 90.000000
_cell_angle_beta 90.000000
_cell_angle_gamma 120.000000
_cell_volume 7856.749614
_symmetry_space_group_name_H-M "R -3 C "
_symmetry_group_IT_number 167
_symmetry_cell_setting 'hexagonal'
loop_
_space_group_symop_operation_xyz
x,y,z
-y,x-y,z
-x+y,-x,z
x-y,-y,1/2-z
-x,-x+y,1/2-z
y,x,1/2-z
-x,-y,-z
y,-x+y,-z
x-y,x,-z
-x+y,y,1/2+z
x,x-y,1/2+z
-y,-x,1/2+z
2/3+x,1/3+y,1/3+z
2/3-y,1/3+x-y,1/3+z
2/3-x+y,1/3-x,1/3+z
2/3+x-y,1/3-y,5/6-z
2/3-x,1/3-x+y,5/6-z
2/3+y,1/3+x,5/6-z
2/3-x,1/3-y,1/3-z
2/3+y,1/3-x+y,1/3-z
2/3+x-y,1/3+x,1/3-z
2/3-x+y,1/3+y,5/6+z
2/3+x,1/3+x-y,5/6+z
2/3-y,1/3-x,5/6+z
1/3+x,2/3+y,2/3+z
1/3-y,2/3+x-y,2/3+z
1/3-x+y,2/3-x,2/3+z
1/3+x-y,2/3-y,1/6-z
1/3-x,2/3-x+y,1/6-z
1/3+y,2/3+x,1/6-z
1/3-x,2/3-y,2/3-z
1/3+y,2/3-x+y,2/3-z
1/3+x-y,2/3+x,2/3-z
1/3-x+y,2/3+y,1/6+z
1/3+x,2/3+x-y,1/6+z
1/3-y,2/3-x,1/6+z
loop_
_atom_site_type_symbol
_atom_site_label
_atom_site_fract_x
_atom_site_fract_y
_atom_site_fract_z
Si Si1 0.481517 0.983252 0.119984
Si Si2 0.594131 0.953942 0.049560
Si Si3 0.650160 0.106287 0.970609
Si Si4 0.066639 0.872280 0.289683
Si Si5 0.853850 0.666667 0.916667
O O1 0.515342 0.067052 0.088936
O O2 0.471585 0.974844 0.189997
O O3 0.540580 0.956309 0.100965
O O4 0.403217 0.929114 0.086727
O O5 0.666667 0.960004 0.083334
O O6 0.532857 0.890671 0.003461
O O7 0.630144 0.033296 0.012265
O O8 0.735416 0.140410 0.945321
O O9 0.614977 0.151444 0.008216
O O10 0.000000 0.872218 0.250000
#
# Coordination Sequence:
#
# PCOD9579713 Si02
#       5
#    36  36  36  36  18
#     4   9  20  32  47  85 105 153 203 217 301 363
#     4   9  15  29  50  71 100 153 189 227 289 332
#     4   9  20  34  53  75 115 159 191 235 306 351
#     4   9  19  35  50  75 115 148 208 238 279 367
#     4  12  20  36  56  80 128 150 190 244 290 374
#
# _framework density 20.619213999999999
#
# number of rings (size 3 to 8) (size 9 to 14) (size 15 to 20)
#    0.000    2.667    2.222    2.667    6.222    0.000 
#   10.000    0.000    0.000    0.000    0.000    0.000 
#    8.889    1.778    0.000    0.000    0.000    0.000 
#
# Total GULP energy -300662.696925 kJ/mol
# GULP energy per Si atom -5567.827721 kJ/mol
# Density = 2.057228 g / cm^3
# Si number density = 20.619214 Si / 1000 Ang^3
#
#
#
# Elastic Constant Matrix: (Units=GPa)
#
#
# Indices 1 2 3 4 5 6 
#
# 1 35.5991 51.9960 46.5170 10.4386 -0.0009 0.0000
# 2 51.9960 35.5991 46.5170 -10.4386 0.0009 0.0000
# 3 46.5170 46.5170 172.6708 0.0000 0.0000 0.0000
# 4 10.4386 -10.4386 0.0000 15.5066 0.0000 0.0009
# 5 -0.0009 0.0009 0.0000 0.0000 15.5066 10.4386
# 6 0.0000 0.0000 0.0000 0.0009 10.4386 -8.1984
#
#
#
# Elastic Compliance Matrix: (Units=1/GPa)
#
#
# Indices 1 2 3 4 5 6 
#
# 1 -0.008424 0.024416 -0.004308 0.022107 -0.000002 0.000000
# 2 0.024416 -0.008424 -0.004308 -0.022107 0.000002 0.000000
# 3 -0.004308 -0.004308 0.008113 0.000000 0.000000 0.000000
# 4 0.022107 -0.022107 0.000000 0.034725 0.000000 0.000004
# 5 -0.000002 0.000002 0.000000 0.000000 0.034725 0.044214
# 6 0.000000 0.000000 0.000000 0.000004 0.044214 -0.065680
#
#
# Mechanical properties :
#
#
# Convention : Reuss Voigt Hill
#
# Bulk Modulus (GPa) = 43.73761 59.32546 51.53153
# Shear Modulus (GPa) = -172.75399 11.15224 -80.80087
#
# Velocity S-wave (km/s) = -9.16324 2.32818 -6.26676
# Velocity P-wave (km/s) = 9.52340 6.00513 5.22654
#
# Compressibility (1/GPa) = 0.02286362
#
# Stress axis : x y z
#
# Youngs Moduli (GPa) = -118.70762 -118.70762 123.26540
#
# Poissons Ratio (x) = 2.89835 0.53105
# Poissons Ratio (y) = 2.89835 0.53105
# Poissons Ratio (z) = -0.51141 -0.51141
#
# Static dielectric constant tensor:
#      x y z
#    x 2.766650 0.000000 0.000000 
#    y 0.000000 2.766650 0.000000 
#    z 0.000000 0.000000 1.752930 
# 
# From -- ./inp_files/4420.got.cif
#   From: 2010.05.17/outbox.cif.g08.bks.cpg/sg167_3_cif.got.tgz:4420.got - 2010.05.20 11:09:15.
