data_PCOD9579971
_publ_section_title
;
Structure prediction by ZEFSAII (Michael W. Deem and Ramdas Pophale) SiO2 
 PCOD9579971
Probable space group: P 61
;
_chemical_formula_sum "Si O2"
_cell_formula_units_Z 48
_cell_length_a 14.618499
_cell_length_b 14.618499
_cell_length_c 12.371841
_cell_angle_alpha 90.000000
_cell_angle_beta 90.000000
_cell_angle_gamma 120.000000
_cell_volume 2289.657518
_symmetry_space_group_name_H-M "P 61"
_symmetry_group_IT_number 169
_symmetry_cell_setting 'hexagonal'
loop_
_space_group_symop_operation_xyz
x,y,z
x-y,x,1/6+z
-y,x-y,1/3+z
-x,-y,1/2+z
-x+y,-x,2/3+z
y,-x+y,5/6+z
loop_
_atom_site_type_symbol
_atom_site_label
_atom_site_fract_x
_atom_site_fract_y
_atom_site_fract_z
Si Si1 0.231506 0.839591 0.920310
Si Si2 0.267699 0.473069 0.475600
Si Si3 0.993668 0.848007 0.738027
Si Si4 0.951912 0.477517 0.723520
Si Si5 0.332553 0.507720 0.082683
Si Si6 0.996979 0.151657 0.906344
Si Si7 0.272679 0.693990 0.522501
Si Si8 0.600921 0.889085 0.030356
O O1 0.217036 0.940182 0.908411
O O2 0.353559 0.872747 0.917866
O O3 0.174256 0.757967 0.822055
O O4 0.196057 0.790396 0.038445
O O5 0.389415 0.499888 0.466297
O O6 0.260814 0.579461 0.493447
O O7 0.230868 0.409892 0.589059
O O8 0.905239 0.869125 0.684984
O O9 0.093426 0.905316 0.656636
O O10 0.959856 0.408467 0.821346
O O11 0.063299 0.578894 0.702368
O O12 0.388650 0.608826 0.159947
O O13 0.293910 0.545938 0.980307
O O14 0.043901 0.139470 0.792995
O O15 0.955087 0.233678 0.899252
O O16 0.190545 0.711779 0.452059
#
# Coordination Sequence:
#
# PCOD9579971 Si02
#       8
#     6   6   6   6   6   6   6   6
#     4  12  23  46  72 104 150 198 243 308 378 450
#     4  10  21  47  67 101 152 189 242 293 375 453
#     4  10  24  50  72 101 140 192 258 315 384 441
#     4  10  24  42  63 109 138 187 244 288 368 447
#     4  12  25  41  71 107 145 191 243 300 375 449
#     4  10  24  48  72 100 142 187 254 322 377 444
#     4  12  22  45  72 101 150 194 233 305 381 443
#     4  10  23  43  73 103 141 188 245 305 372 447
#
# _framework density 20.963836000000001
#
# number of rings (size 3 to 8) (size 9 to 14) (size 15 to 20)
#    0.750    0.500    3.750    1.500    1.750    6.000 
#   13.500    0.000    0.000    0.000    0.000    0.000 
#    0.000    0.000    0.000    0.000    0.000    0.000 
#
# Total GULP energy -267931.613869 kJ/mol
# GULP energy per Si atom -5581.908622 kJ/mol
# Density = 2.091612 g / cm^3
# Si number density = 20.963836 Si / 1000 Ang^3
#
#
#
# Elastic Constant Matrix: (Units=GPa)
#
#
# Indices 1 2 3 4 5 6 
#
# 1 99.0741 46.2126 26.7098 0.0000 0.0000 0.0000
# 2 46.2126 99.0741 26.7098 0.0000 0.0000 0.0000
# 3 26.7098 26.7098 66.6212 0.0000 0.0000 0.0000
# 4 0.0000 0.0000 0.0000 21.7646 0.0000 0.0000
# 5 0.0000 0.0000 0.0000 0.0000 21.7646 0.0000
# 6 0.0000 0.0000 0.0000 0.0000 0.0000 26.4307
#
#
#
# Elastic Compliance Matrix: (Units=1/GPa)
#
#
# Indices 1 2 3 4 5 6 
#
# 1 0.013495 -0.005422 -0.003237 0.000000 0.000000 0.000000
# 2 -0.005422 0.013495 -0.003237 0.000000 0.000000 0.000000
# 3 -0.003237 -0.003237 0.017606 0.000000 0.000000 0.000000
# 4 0.000000 0.000000 0.000000 0.045946 0.000000 0.000000
# 5 0.000000 0.000000 0.000000 0.000000 0.045946 0.000000
# 6 0.000000 0.000000 0.000000 0.000000 0.000000 0.037835
#
#
# Mechanical properties :
#
#
# Convention : Reuss Voigt Hill
#
# Bulk Modulus (GPa) = 48.06544 51.55934 49.81239
# Shear Modulus (GPa) = 24.38445 25.00114 24.69280
#
# Velocity S-wave (km/s) = 3.41422 3.45713 3.43574
# Velocity P-wave (km/s) = 6.20646 6.37051 6.28902
#
# Compressibility (1/GPa) = 0.02080497
#
# Stress axis : x y z
#
# Youngs Moduli (GPa) = 74.10052 74.10052 56.80042
#
# Poissons Ratio (x) = 0.40179 0.18384
# Poissons Ratio (y) = 0.40179 0.18384
# Poissons Ratio (z) = 0.23984 0.23984
#
# Static dielectric constant tensor:
#      x y z
#    x 1.756640 0.000000 0.000000 
#    y 0.000000 1.756640 0.000000 
#    z 0.000000 0.000000 1.788830 
# 
# From -- ./inp_files/1050.got.cif
#   From: 2010.05.17/outbox.cif.g08.bks.cpg/sg169_cif.got.tgz:1050.got - 2010.05.20 11:12:54.
