data_PCOD9579186
_publ_section_title
;
Structure prediction by ZEFSAII (Michael W. Deem and Ramdas Pophale) SiO2 
 PCOD9579186
Probable space group: R -3 M
;
_chemical_formula_sum "Si O2"
_cell_formula_units_Z 144
_cell_length_a 17.820223
_cell_length_b 17.820223
_cell_length_c 27.703856
_cell_angle_alpha 90.000000
_cell_angle_beta 90.000000
_cell_angle_gamma 120.000000
_cell_volume 7618.985056
_symmetry_space_group_name_H-M "R -3 M"
_symmetry_group_IT_number 166
_symmetry_cell_setting 'hexagonal'
loop_
_space_group_symop_operation_xyz
x,y,z
-y,x-y,z
-x+y,-x,z
x-y,-y,-z
-x,-x+y,-z
y,x,-z
-x,-y,-z
y,-x+y,-z
x-y,x,-z
-x+y,y,z
x,x-y,z
-y,-x,z
2/3+x,1/3+y,1/3+z
2/3-y,1/3+x-y,1/3+z
2/3-x+y,1/3-x,1/3+z
2/3+x-y,1/3-y,1/3-z
2/3-x,1/3-x+y,1/3-z
2/3+y,1/3+x,1/3-z
2/3-x,1/3-y,1/3-z
2/3+y,1/3-x+y,1/3-z
2/3+x-y,1/3+x,1/3-z
2/3-x+y,1/3+y,1/3+z
2/3+x,1/3+x-y,1/3+z
2/3-y,1/3-x,1/3+z
1/3+x,2/3+y,2/3+z
1/3-y,2/3+x-y,2/3+z
1/3-x+y,2/3-x,2/3+z
1/3+x-y,2/3-y,2/3-z
1/3-x,2/3-x+y,2/3-z
1/3+y,2/3+x,2/3-z
1/3-x,2/3-y,2/3-z
1/3+y,2/3-x+y,2/3-z
1/3+x-y,2/3+x,2/3-z
1/3-x+y,2/3+y,2/3+z
1/3+x,2/3+x-y,2/3+z
1/3-y,2/3-x,2/3+z
loop_
_atom_site_type_symbol
_atom_site_label
_atom_site_fract_x
_atom_site_fract_y
_atom_site_fract_z
Si Si1 0.741760 0.650235 0.511016
Si Si2 0.632437 0.732831 0.598827
Si Si3 0.825615 0.825066 0.636443
Si Si4 0.390028 0.283434 0.066421
O O1 0.734330 0.734330 0.500000
O O2 0.834991 0.669982 0.526994
O O3 0.722947 0.607518 0.457905
O O4 0.672319 0.593344 0.551386
O O5 0.612210 0.806105 0.619133
O O6 0.737054 0.775708 0.605361
O O7 0.627659 0.698182 0.716746
O O8 0.852715 0.926358 0.635367
O O9 0.791205 0.789624 0.690517
O O10 0.905956 0.811912 0.623597
O O11 0.390741 0.195371 0.074376
#
# Coordination Sequence:
#
# PCOD9579186 Si02
#       4
#    36  36  36  36
#     4   9  18  32  50  73 102 138 179 220 262 312
#     4   9  19  33  48  70 103 140 175 213 259 315
#     4  10  20  34  53  80 113 146 179 218 267 322
#     4  10  20  33  54  81 105 135 178 228 282 333
#
# _framework density 18.900155999999999
#
# number of rings (size 3 to 8) (size 9 to 14) (size 15 to 20)
#    0.000    2.500    0.000    1.750    0.000   10.500 
#    0.000    0.000    0.000    1.250    0.000    5.250 
#    0.000    6.000    0.000    0.250    0.000    0.000 
#
# Total GULP energy -267225.867028 kJ/mol
# GULP energy per Si atom -5567.205563 kJ/mol
# Density = 1.885714 g / cm^3
# Si number density = 18.900156 Si / 1000 Ang^3
#
#
#
# Elastic Constant Matrix: (Units=GPa)
#
#
# Indices 1 2 3 4 5 6 
#
# 1 68.7848 34.2408 23.8553 -3.6898 0.0000 0.0000
# 2 34.2408 68.7848 23.8553 3.6898 0.0000 0.0000
# 3 23.8553 23.8553 95.5269 0.0000 0.0000 0.0000
# 4 -3.6898 3.6898 0.0000 19.3085 0.0000 0.0000
# 5 0.0000 0.0000 0.0000 0.0000 19.3085 -3.6898
# 6 0.0000 0.0000 0.0000 0.0000 -3.6898 17.2720
#
#
#
# Elastic Compliance Matrix: (Units=1/GPa)
#
#
# Indices 1 2 3 4 5 6 
#
# 1 0.020578 -0.009602 -0.002741 0.005767 0.000000 0.000000
# 2 -0.009602 0.020578 -0.002741 -0.005767 0.000000 0.000000
# 3 -0.002741 -0.002741 0.011837 0.000000 0.000000 0.000000
# 4 0.005767 -0.005767 0.000000 0.053995 0.000000 0.000000
# 5 0.000000 0.000000 0.000000 0.000000 0.053995 0.011535
# 6 0.000000 0.000000 0.000000 0.000000 0.011535 0.060361
#
#
# Mechanical properties :
#
#
# Convention : Reuss Voigt Hill
#
# Bulk Modulus (GPa) = 43.81176 44.11103 43.96140
# Shear Modulus (GPa) = 19.29600 21.25416 20.27508
#
# Velocity S-wave (km/s) = 3.19869 3.35707 3.27883
# Velocity P-wave (km/s) = 6.07232 6.19808 6.13552
#
# Compressibility (1/GPa) = 0.02282492
#
# Stress axis : x y z
#
# Youngs Moduli (GPa) = 48.59533 48.59533 84.47965
#
# Poissons Ratio (x) = 0.46664 0.23155
# Poissons Ratio (y) = 0.46664 0.23155
# Poissons Ratio (z) = 0.13319 0.13319
#
# Static dielectric constant tensor:
#      x y z
#    x 1.660420 0.000000 0.000000 
#    y 0.000000 1.660420 0.000000 
#    z 0.000000 0.000000 1.731080 
# 
# From -- ./inp_files/9382.got.cif
#   From: 2010.05.17/outbox.cif.g08.bks.cpg/sg166_5_cif.got.tgz:9382.got - 2010.05.20 11:04:41.
