data_PCOD9579503
_publ_section_title
;
Structure prediction by ZEFSAII (Michael W. Deem and Ramdas Pophale) SiO2 
 PCOD9579503
Probable space group: R -3 C 
;
_chemical_formula_sum "Si O2"
_cell_formula_units_Z 144
_cell_length_a 21.079709
_cell_length_b 21.079709
_cell_length_c 18.482943
_cell_angle_alpha 90.000000
_cell_angle_beta 90.000000
_cell_angle_gamma 120.000000
_cell_volume 7112.642466
_symmetry_space_group_name_H-M "R -3 C "
_symmetry_group_IT_number 167
_symmetry_cell_setting 'hexagonal'
loop_
_space_group_symop_operation_xyz
x,y,z
-y,x-y,z
-x+y,-x,z
x-y,-y,1/2-z
-x,-x+y,1/2-z
y,x,1/2-z
-x,-y,-z
y,-x+y,-z
x-y,x,-z
-x+y,y,1/2+z
x,x-y,1/2+z
-y,-x,1/2+z
2/3+x,1/3+y,1/3+z
2/3-y,1/3+x-y,1/3+z
2/3-x+y,1/3-x,1/3+z
2/3+x-y,1/3-y,5/6-z
2/3-x,1/3-x+y,5/6-z
2/3+y,1/3+x,5/6-z
2/3-x,1/3-y,1/3-z
2/3+y,1/3-x+y,1/3-z
2/3+x-y,1/3+x,1/3-z
2/3-x+y,1/3+y,5/6+z
2/3+x,1/3+x-y,5/6+z
2/3-y,1/3-x,5/6+z
1/3+x,2/3+y,2/3+z
1/3-y,2/3+x-y,2/3+z
1/3-x+y,2/3-x,2/3+z
1/3+x-y,2/3-y,1/6-z
1/3-x,2/3-x+y,1/6-z
1/3+y,2/3+x,1/6-z
1/3-x,2/3-y,2/3-z
1/3+y,2/3-x+y,2/3-z
1/3+x-y,2/3+x,2/3-z
1/3-x+y,2/3+y,1/6+z
1/3+x,2/3+x-y,1/6+z
1/3-y,2/3-x,1/6+z
loop_
_atom_site_type_symbol
_atom_site_label
_atom_site_fract_x
_atom_site_fract_y
_atom_site_fract_z
Si Si1 0.493164 0.462392 0.898646
Si Si2 0.322862 0.055879 0.636592
Si Si3 0.053273 0.890522 0.028774
Si Si4 0.550217 0.716635 0.483187
O O1 0.570883 0.520557 0.932447
O O2 0.507107 0.418135 0.837110
O O3 0.462703 0.516680 0.876193
O O4 0.440747 0.409156 0.961891
O O5 0.370804 0.037471 0.583334
O O6 0.252873 0.982038 0.663917
O O7 0.050053 0.878818 0.115086
O O8 0.973858 0.865429 0.995131
O O9 0.501608 0.666667 0.416667
#
# Coordination Sequence:
#
# PCOD9579503 Si02
#       4
#    36  36  36  36
#     4  10  22  38  63  94 128 164 203 256 316 374
#     4  10  20  38  63  97 129 157 205 258 312 380
#     4  12  25  43  63  91 125 168 215 258 305 369
#     4  10  22  43  65  91 129 161 203 260 314 376
#
# _framework density 20.245640000000002
#
# number of rings (size 3 to 8) (size 9 to 14) (size 15 to 20)
#    0.000    1.500    2.500    2.500    3.500    0.000 
#    0.000    1.250    0.000    0.000    0.000    0.000 
#    0.000    0.000    0.000    0.000    0.000    0.000 
#
# Total GULP energy -267829.944316 kJ/mol
# GULP energy per Si atom -5579.790507 kJ/mol
# Density = 2.019956 g / cm^3
# Si number density = 20.245640 Si / 1000 Ang^3
#
#
#
# Elastic Constant Matrix: (Units=GPa)
#
#
# Indices 1 2 3 4 5 6 
#
# 1 35.0865 13.5801 31.5303 -2.7027 0.0003 0.0000
# 2 13.5801 35.0865 31.5303 2.7027 -0.0003 0.0000
# 3 31.5303 31.5303 151.8629 0.0000 0.0000 0.0000
# 4 -2.7027 2.7027 0.0000 19.2766 0.0000 -0.0003
# 5 0.0003 -0.0003 0.0000 0.0000 19.2766 -2.7027
# 6 0.0000 0.0000 0.0000 -0.0003 -2.7027 10.7532
#
#
#
# Elastic Compliance Matrix: (Units=1/GPa)
#
#
# Indices 1 2 3 4 5 6 
#
# 1 0.038153 -0.010043 -0.005836 0.006757 -0.000001 0.000000
# 2 -0.010043 0.038153 -0.005836 -0.006757 0.000001 0.000000
# 3 -0.005836 -0.005836 0.009008 0.000000 0.000000 0.000000
# 4 0.006757 -0.006757 0.000000 0.053771 0.000000 0.000002
# 5 -0.000001 0.000001 0.000000 0.000000 0.053771 0.013515
# 6 0.000000 0.000000 0.000000 0.000002 0.013515 0.096392
#
#
# Mechanical properties :
#
#
# Convention : Reuss Voigt Hill
#
# Bulk Modulus (GPa) = 23.87549 41.70196 32.78873
# Shear Modulus (GPa) = 14.42406 19.55427 16.98917
#
# Velocity S-wave (km/s) = 2.67208 3.11119 2.89995
# Velocity P-wave (km/s) = 4.61936 5.79212 5.23866
#
# Compressibility (1/GPa) = 0.04188395
#
# Stress axis : x y z
#
# Youngs Moduli (GPa) = 26.20997 26.20997 111.00691
#
# Poissons Ratio (x) = 0.26322 0.64788
# Poissons Ratio (y) = 0.26322 0.64788
# Poissons Ratio (z) = 0.15297 0.15297
#
# Static dielectric constant tensor:
#      x y z
#    x 1.678640 0.000000 0.000000 
#    y 0.000000 1.678640 0.000000 
#    z 0.000000 0.000000 1.738880 
# 
# From -- ./inp_files/4304.got.cif
#   From: 2010.05.17/outbox.cif.g08.bks.cpg/sg167_3_cif.got.tgz:4304.got - 2010.05.20 11:09:15.
