data_PCOD9579800
_publ_section_title
;
Structure prediction by ZEFSAII (Michael W. Deem and Ramdas Pophale) SiO2 
 PCOD9579800
Probable space group: P 61
;
_chemical_formula_sum "Si O2"
_cell_formula_units_Z 48
_cell_length_a 15.250615
_cell_length_b 15.250615
_cell_length_c 11.005350
_cell_angle_alpha 90.000000
_cell_angle_beta 90.000000
_cell_angle_gamma 120.000000
_cell_volume 2216.711659
_symmetry_space_group_name_H-M "P 61"
_symmetry_group_IT_number 169
_symmetry_cell_setting 'hexagonal'
loop_
_space_group_symop_operation_xyz
x,y,z
x-y,x,1/6+z
-y,x-y,1/3+z
-x,-y,1/2+z
-x+y,-x,2/3+z
y,-x+y,5/6+z
loop_
_atom_site_type_symbol
_atom_site_label
_atom_site_fract_x
_atom_site_fract_y
_atom_site_fract_z
Si Si1 0.100569 0.695575 0.974460
Si Si2 0.189652 0.106261 0.481396
Si Si3 0.771028 0.654631 0.338232
Si Si4 0.548011 0.447519 0.015468
Si Si5 0.408175 0.303044 0.830472
Si Si6 0.638531 0.758464 0.795024
Si Si7 0.876263 0.434263 0.291734
Si Si8 0.521630 0.256572 0.481766
O O1 0.152895 0.663433 0.872164
O O2 0.988245 0.656803 0.921931
O O3 0.088700 0.625524 0.091130
O O4 0.163124 0.810375 0.024096
O O5 0.116810 0.135547 0.550204
O O6 0.246109 0.085256 0.590720
O O7 0.278669 0.193739 0.402758
O O8 0.673049 0.662955 0.363332
O O9 0.829124 0.642058 0.453306
O O10 0.747371 0.561844 0.248096
O O11 0.484671 0.344634 0.941627
O O12 0.476983 0.490679 0.063591
O O13 0.618683 0.430626 0.109918
O O14 0.473778 0.368934 0.715134
O O15 0.534355 0.728261 0.864979
O O16 0.783991 0.415643 0.204262
#
# Coordination Sequence:
#
# PCOD9579800 Si02
#       8
#     6   6   6   6   6   6   6   6
#     4  10  20  33  59  92 137 175 231 279 347 409
#     4  11  20  32  60 100 142 176 222 270 330 401
#     4  10  18  32  56  97 129 173 228 279 326 413
#     4  10  19  35  57  91 126 184 229 288 344 409
#     4  10  20  33  59  92 137 175 231 279 347 409
#     4  10  18  32  56  97 129 173 228 279 326 413
#     4  10  19  35  57  91 126 184 229 288 344 409
#     4   9  18  30  58  88 126 172 232 282 340 405
#
# _framework density 21.653696
#
# number of rings (size 3 to 8) (size 9 to 14) (size 15 to 20)
#    0.000    2.000    5.000    0.000    0.000    0.000 
#    0.000    1.250    0.000   13.500    0.000    0.000 
#    0.000    0.000    0.000    0.000    0.000    0.000 
#
# Total GULP energy -267929.598429 kJ/mol
# GULP energy per Si atom -5581.866634 kJ/mol
# Density = 2.160441 g / cm^3
# Si number density = 21.653696 Si / 1000 Ang^3
#
#
#
# Elastic Constant Matrix: (Units=GPa)
#
#
# Indices 1 2 3 4 5 6 
#
# 1 62.5644 41.3696 38.3943 0.0000 0.0000 0.0000
# 2 41.3696 62.5644 38.3943 0.0000 0.0000 0.0000
# 3 38.3943 38.3943 58.0715 0.0000 0.0000 0.0000
# 4 0.0000 0.0000 0.0000 30.8996 0.0000 0.0000
# 5 0.0000 0.0000 0.0000 0.0000 30.8996 0.0000
# 6 0.0000 0.0000 0.0000 0.0000 0.0000 10.5974
#
#
#
# Elastic Compliance Matrix: (Units=1/GPa)
#
#
# Indices 1 2 3 4 5 6 
#
# 1 0.032995 -0.014186 -0.012436 0.000000 0.000000 0.000000
# 2 -0.014186 0.032995 -0.012436 0.000000 0.000000 0.000000
# 3 -0.012436 -0.012436 0.033664 0.000000 0.000000 0.000000
# 4 0.000000 0.000000 0.000000 0.032363 0.000000 0.000000
# 5 0.000000 0.000000 0.000000 0.000000 0.032363 0.000000
# 6 0.000000 0.000000 0.000000 0.000000 0.000000 0.094363
#
#
# Mechanical properties :
#
#
# Convention : Reuss Voigt Hill
#
# Bulk Modulus (GPa) = 46.42658 46.61296 46.51977
# Shear Modulus (GPa) = 14.53323 18.81546 16.67434
#
# Velocity S-wave (km/s) = 2.59350 2.95095 2.77798
# Velocity P-wave (km/s) = 5.51864 5.76057 5.64090
#
# Compressibility (1/GPa) = 0.02153939
#
# Stress axis : x y z
#
# Youngs Moduli (GPa) = 30.30724 30.30724 29.70507
#
# Poissons Ratio (x) = 0.42994 0.36941
# Poissons Ratio (y) = 0.42994 0.36941
# Poissons Ratio (z) = 0.37690 0.37690
#
# Static dielectric constant tensor:
#      x y z
#    x 1.825770 0.000000 0.000000 
#    y 0.000000 1.825770 0.000000 
#    z 0.000000 0.000000 1.804720 
# 
# From -- ./inp_files/1044.got.cif
#   From: 2010.05.17/outbox.cif.g08.bks.cpg/sg169_cif.got.tgz:1044.got - 2010.05.20 11:12:54.
