data_PCOD9579911
_publ_section_title
;
Structure prediction by ZEFSAII (Michael W. Deem and Ramdas Pophale) SiO2 
 PCOD9579911
Probable space group: P 61
;
_chemical_formula_sum "Si O2"
_cell_formula_units_Z 42
_cell_length_a 8.860561
_cell_length_b 8.860561
_cell_length_c 27.771513
_cell_angle_alpha 90.000000
_cell_angle_beta 90.000000
_cell_angle_gamma 120.000000
_cell_volume 1888.220082
_symmetry_space_group_name_H-M "P 61"
_symmetry_group_IT_number 169
_symmetry_cell_setting 'hexagonal'
loop_
_space_group_symop_operation_xyz
x,y,z
x-y,x,1/6+z
-y,x-y,1/3+z
-x,-y,1/2+z
-x+y,-x,2/3+z
y,-x+y,5/6+z
loop_
_atom_site_type_symbol
_atom_site_label
_atom_site_fract_x
_atom_site_fract_y
_atom_site_fract_z
Si Si1 0.886923 0.027787 0.006200
Si Si2 0.768794 0.911538 0.551334
Si Si3 0.031036 0.409292 0.296421
Si Si4 0.316010 0.000165 0.594498
Si Si5 0.677063 0.814127 0.810037
Si Si6 0.333002 0.672020 0.767858
Si Si7 0.385700 0.567473 0.334324
O O1 0.762817 0.058206 0.041813
O O2 0.829866 0.824141 0.999792
O O3 0.067954 0.103519 0.034539
O O4 0.922634 0.132745 0.956518
O O5 0.644486 0.740189 0.581793
O O6 0.697770 0.954818 0.503429
O O7 0.818408 0.066655 0.589683
O O8 0.208816 0.562794 0.318027
O O9 0.865113 0.425057 0.284549
O O10 0.516339 0.146935 0.589014
O O11 0.323080 0.859935 0.629524
O O12 0.484467 0.787803 0.806035
O O13 0.656661 0.635083 0.832851
O O14 0.358833 0.788263 0.721184
#
# Coordination Sequence:
#
# PCOD9579911 Si02
#       7
#     6   6   6   6   6   6   6
#     4  12  21  42  66 103 136 183 233 292 353 420
#     4  11  19  39  69  99 124 184 236 274 352 423
#     4  11  23  38  74  94 137 181 234 289 351 427
#     4  11  27  39  68 100 144 180 236 294 350 425
#     4  10  20  40  73  97 136 186 227 285 349 429
#     4  11  24  42  66 102 138 185 233 290 361 420
#     4  10  22  44  66  97 141 181 229 292 350 422
#
# _framework density 22.243169999999999
#
# number of rings (size 3 to 8) (size 9 to 14) (size 15 to 20)
#    0.000    1.143    5.714    0.857    2.000    1.143 
#    0.000    2.857    0.000    0.000    0.000    0.000 
#    0.000    0.000    0.000    0.000    0.000    0.000 
#
# Total GULP energy -234608.940599 kJ/mol
# GULP energy per Si atom -5585.927157 kJ/mol
# Density = 2.219254 g / cm^3
# Si number density = 22.243170 Si / 1000 Ang^3
#
#
#
# Elastic Constant Matrix: (Units=GPa)
#
#
# Indices 1 2 3 4 5 6 
#
# 1 59.1772 5.9322 15.8660 0.0000 0.0000 0.0000
# 2 5.9322 59.1772 15.8660 0.0000 0.0000 0.0000
# 3 15.8660 15.8660 65.0474 0.0000 0.0000 0.0000
# 4 0.0000 0.0000 0.0000 33.5915 0.0000 0.0000
# 5 0.0000 0.0000 0.0000 0.0000 33.5915 0.0000
# 6 0.0000 0.0000 0.0000 0.0000 0.0000 26.6225
#
#
#
# Elastic Compliance Matrix: (Units=1/GPa)
#
#
# Indices 1 2 3 4 5 6 
#
# 1 0.018106 -0.000675 -0.004252 0.000000 0.000000 0.000000
# 2 -0.000675 0.018106 -0.004252 0.000000 0.000000 0.000000
# 3 -0.004252 -0.004252 0.017447 0.000000 0.000000 0.000000
# 4 0.000000 0.000000 0.000000 0.029769 0.000000 0.000000
# 5 0.000000 0.000000 0.000000 0.000000 0.029769 0.000000
# 6 0.000000 0.000000 0.000000 0.000000 0.000000 0.037562
#
#
# Mechanical properties :
#
#
# Convention : Reuss Voigt Hill
#
# Bulk Modulus (GPa) = 28.32646 28.74777 28.53712
# Shear Modulus (GPa) = 27.64188 28.47693 28.05941
#
# Velocity S-wave (km/s) = 3.52904 3.58195 3.55559
# Velocity P-wave (km/s) = 5.41923 5.48265 5.45103
#
# Compressibility (1/GPa) = 0.03530268
#
# Stress axis : x y z
#
# Youngs Moduli (GPa) = 55.23032 55.23032 57.31484
#
# Poissons Ratio (x) = 0.03729 0.24368
# Poissons Ratio (y) = 0.03729 0.24368
# Poissons Ratio (z) = 0.23482 0.23482
#
# Static dielectric constant tensor:
#      x y z
#    x 1.852910 0.000000 0.000000 
#    y 0.000000 1.852910 0.000000 
#    z 0.000000 0.000000 1.824460 
# 
# From -- ./inp_files/1874.got.cif
#   From: 2010.05.17/outbox.cif.g08.bks.cpg/sg169_cif.got.tgz:1874.got - 2010.05.20 11:12:54.
