data_PCOD9579893
_publ_section_title
;
Structure prediction by ZEFSAII (Michael W. Deem and Ramdas Pophale) SiO2 
 PCOD9579893
Probable space group: P 61
;
_chemical_formula_sum "Si O2"
_cell_formula_units_Z 48
_cell_length_a 11.853423
_cell_length_b 11.853423
_cell_length_c 18.733977
_cell_angle_alpha 90.000000
_cell_angle_beta 90.000000
_cell_angle_gamma 120.000000
_cell_volume 2279.545054
_symmetry_space_group_name_H-M "P 61"
_symmetry_group_IT_number 169
_symmetry_cell_setting 'hexagonal'
loop_
_space_group_symop_operation_xyz
x,y,z
x-y,x,1/6+z
-y,x-y,1/3+z
-x,-y,1/2+z
-x+y,-x,2/3+z
y,-x+y,5/6+z
loop_
_atom_site_type_symbol
_atom_site_label
_atom_site_fract_x
_atom_site_fract_y
_atom_site_fract_z
Si Si1 0.081237 0.830519 0.163930
Si Si2 0.636641 0.987071 0.711099
Si Si3 0.779213 0.547106 0.370451
Si Si4 0.120982 0.581726 0.656135
Si Si5 0.066620 0.438937 0.282306
Si Si6 0.869462 0.336059 0.399163
Si Si7 0.683125 0.483508 0.221107
Si Si8 0.205205 0.244053 0.653713
O O1 0.219964 0.954481 0.176994
O O2 0.047783 0.756026 0.239399
O O3 0.107879 0.751206 0.103212
O O4 0.953680 0.846899 0.151151
O O5 0.611135 0.080916 0.762365
O O6 0.545134 0.933903 0.643486
O O7 0.711471 0.547757 0.444034
O O8 0.827059 0.440835 0.375077
O O9 0.674975 0.490906 0.305823
O O10 0.897330 0.691812 0.350874
O O11 0.243010 0.593094 0.699250
O O12 0.009760 0.549415 0.714170
O O13 0.190406 0.435145 0.250692
O O14 0.126587 0.558755 0.337979
O O15 0.960131 0.330639 0.336016
O O16 0.772571 0.633041 0.198778
#
# Coordination Sequence:
#
# PCOD9579893 Si02
#       8
#     6   6   6   6   6   6   6   6
#     4  10  20  37  69  96 131 173 243 291 337 409
#     4  11  23  39  66 104 129 180 231 292 348 421
#     4  12  25  41  68 109 139 187 234 297 372 428
#     4  12  25  41  71 109 142 178 241 296 368 440
#     4  12  27  47  70 103 142 194 228 301 366 440
#     4  12  26  45  70  99 151 185 240 295 371 441
#     4  12  20  42  71 101 141 175 235 293 362 425
#     4  11  20  40  67  99 139 180 230 301 342 422
#
# _framework density 21.056832
#
# number of rings (size 3 to 8) (size 9 to 14) (size 15 to 20)
#    0.000    0.500    7.500    2.250    0.000    2.000 
#    0.000    0.000   19.250    0.000    0.000    0.000 
#    0.000    0.000    0.000    0.000    0.000    0.000 
#
# Total GULP energy -267527.714430 kJ/mol
# GULP energy per Si atom -5573.494051 kJ/mol
# Density = 2.100891 g / cm^3
# Si number density = 21.056832 Si / 1000 Ang^3
#
#
#
# Elastic Constant Matrix: (Units=GPa)
#
#
# Indices 1 2 3 4 5 6 
#
# 1 63.8260 25.7742 39.3280 0.0000 0.0000 0.0000
# 2 25.7742 63.8260 39.3280 0.0000 0.0000 0.0000
# 3 39.3280 39.3280 136.5852 0.0000 0.0000 0.0000
# 4 0.0000 0.0000 0.0000 38.2708 0.0000 0.0000
# 5 0.0000 0.0000 0.0000 0.0000 38.2708 0.0000
# 6 0.0000 0.0000 0.0000 0.0000 0.0000 19.0259
#
#
#
# Elastic Compliance Matrix: (Units=1/GPa)
#
#
# Indices 1 2 3 4 5 6 
#
# 1 0.020608 -0.005672 -0.004301 0.000000 0.000000 0.000000
# 2 -0.005672 0.020608 -0.004301 0.000000 0.000000 0.000000
# 3 -0.004301 -0.004301 0.009798 0.000000 0.000000 0.000000
# 4 0.000000 0.000000 0.000000 0.026130 0.000000 0.000000
# 5 0.000000 0.000000 0.000000 0.000000 0.026130 0.000000
# 6 0.000000 0.000000 0.000000 0.000000 0.000000 0.052560
#
#
# Mechanical properties :
#
#
# Convention : Reuss Voigt Hill
#
# Bulk Modulus (GPa) = 44.50860 52.56638 48.53749
# Shear Modulus (GPa) = 26.05949 29.76732 27.91341
#
# Velocity S-wave (km/s) = 3.52174 3.76395 3.64486
# Velocity P-wave (km/s) = 6.14167 6.62631 6.38859
#
# Compressibility (1/GPa) = 0.02246757
#
# Stress axis : x y z
#
# Youngs Moduli (GPa) = 48.52489 48.52489 102.06103
#
# Poissons Ratio (x) = 0.27523 0.43893
# Poissons Ratio (y) = 0.27523 0.43893
# Poissons Ratio (z) = 0.20869 0.20869
#
# Static dielectric constant tensor:
#      x y z
#    x 1.813990 0.000000 0.000000 
#    y 0.000000 1.813990 0.000000 
#    z 0.000000 0.000000 1.787120 
# 
# From -- ./inp_files/1410.got.cif
#   From: 2010.05.17/outbox.cif.g08.bks.cpg/sg169_cif.got.tgz:1410.got - 2010.05.20 11:12:54.
