data_PCOD9579303
_publ_section_title
;
Structure prediction by ZEFSAII (Michael W. Deem and Ramdas Pophale) SiO2 
 PCOD9579303
Probable space group: R -3 M
;
_chemical_formula_sum "Si O2"
_cell_formula_units_Z 144
_cell_length_a 30.071615
_cell_length_b 30.071615
_cell_length_c 9.446626
_cell_angle_alpha 90.000000
_cell_angle_beta 90.000000
_cell_angle_gamma 120.000000
_cell_volume 7398.111261
_symmetry_space_group_name_H-M "R -3 M"
_symmetry_group_IT_number 166
_symmetry_cell_setting 'hexagonal'
loop_
_space_group_symop_operation_xyz
x,y,z
-y,x-y,z
-x+y,-x,z
x-y,-y,-z
-x,-x+y,-z
y,x,-z
-x,-y,-z
y,-x+y,-z
x-y,x,-z
-x+y,y,z
x,x-y,z
-y,-x,z
2/3+x,1/3+y,1/3+z
2/3-y,1/3+x-y,1/3+z
2/3-x+y,1/3-x,1/3+z
2/3+x-y,1/3-y,1/3-z
2/3-x,1/3-x+y,1/3-z
2/3+y,1/3+x,1/3-z
2/3-x,1/3-y,1/3-z
2/3+y,1/3-x+y,1/3-z
2/3+x-y,1/3+x,1/3-z
2/3-x+y,1/3+y,1/3+z
2/3+x,1/3+x-y,1/3+z
2/3-y,1/3-x,1/3+z
1/3+x,2/3+y,2/3+z
1/3-y,2/3+x-y,2/3+z
1/3-x+y,2/3-x,2/3+z
1/3+x-y,2/3-y,2/3-z
1/3-x,2/3-x+y,2/3-z
1/3+y,2/3+x,2/3-z
1/3-x,2/3-y,2/3-z
1/3+y,2/3-x+y,2/3-z
1/3+x-y,2/3+x,2/3-z
1/3-x+y,2/3+y,2/3+z
1/3+x,2/3+x-y,2/3+z
1/3-y,2/3-x,2/3+z
loop_
_atom_site_type_symbol
_atom_site_label
_atom_site_fract_x
_atom_site_fract_y
_atom_site_fract_z
Si Si1 0.481601 0.128184 0.491954
Si Si2 0.228134 0.666523 0.998475
Si Si3 0.138523 0.861478 0.770359
Si Si4 0.192415 0.807586 0.235610
Si Si5 0.393845 0.098475 0.699685
O O1 0.476579 0.143245 0.333334
O O2 0.520033 0.179569 0.578041
O O3 0.502483 0.088906 0.509968
O O4 0.426084 0.100293 0.564534
O O5 0.226602 0.613301 0.964759
O O6 0.284690 0.715311 0.971457
O O7 0.218174 0.666667 0.166667
O O8 0.166667 0.833334 0.833334
O O9 0.142784 0.857217 0.600857
O O10 0.166667 0.833334 0.333334
O O11 0.252245 0.842181 0.270912
O O12 0.333334 0.066398 0.666667
O O13 0.409055 0.075722 0.833334
#
# Coordination Sequence:
#
# PCOD9579303 Si02
#       5
#    36  36  18  18  36
#     4  12  28  43  67 101 142 182 232 286 351 418
#     4  10  22  42  70 102 139 181 231 286 349 419
#     4  12  28  48  70 100 143 187 232 291 353 418
#     4  10  24  46  74 100 131 172 229 280 360 411
#     4  11  25  45  70  98 132 175 227 287 346 418
#
# _framework density 19.464427000000001
#
# number of rings (size 3 to 8) (size 9 to 14) (size 15 to 20)
#    0.000    1.000    3.750    1.000   10.500    3.000 
#    0.000    0.000    0.000    1.500    0.000    0.000 
#    0.000    0.000    0.000    0.000    0.000    0.000 
#
# Total GULP energy -268264.411214 kJ/mol
# GULP energy per Si atom -5588.841900 kJ/mol
# Density = 1.942013 g / cm^3
# Si number density = 19.464427 Si / 1000 Ang^3
#
#
#
# Elastic Constant Matrix: (Units=GPa)
#
#
# Indices 1 2 3 4 5 6 
#
# 1 127.4362 115.3864 66.4694 -32.1277 -0.1788 -0.2373
# 2 115.3864 127.4852 66.4204 32.1084 0.1424 0.1977
# 3 66.4694 66.4204 108.5153 0.0294 -0.0091 -0.0083
# 4 -32.1277 32.1084 0.0294 1.3839 -0.1009 -0.1749
# 5 -0.1788 0.1424 -0.0091 -0.1009 1.5007 -31.9988
# 6 -0.2373 0.1977 -0.0083 -0.1749 -31.9988 6.1534
#
#
#
# Elastic Compliance Matrix: (Units=1/GPa)
#
#
# Indices 1 2 3 4 5 6 
#
# 1 0.002752 0.003435 -0.003784 -0.015702 0.000098 0.000055
# 2 0.003435 0.002764 -0.003800 0.015689 -0.000105 -0.000060
# 3 -0.003784 -0.003800 0.013859 0.000016 0.000001 0.000000
# 4 -0.015702 0.015689 0.000016 -0.005903 0.000282 0.000189
# 5 0.000098 -0.000105 0.000001 0.000282 -0.006068 -0.031538
# 6 0.000055 -0.000060 0.000000 0.000189 -0.031538 -0.001480
#
#
# Mechanical properties :
#
#
# Convention : Reuss Voigt Hill
#
# Bulk Modulus (GPa) = 90.27795 95.55433 92.91614
# Shear Modulus (GPa) = 279.11339 9.48498 144.29918
#
# Velocity S-wave (km/s) = 11.98783 2.20988 8.61950
# Velocity P-wave (km/s) = 15.43024 7.46390 12.12027
#
# Compressibility (1/GPa) = 0.01107690
#
# Stress axis : x y z
#
# Youngs Moduli (GPa) = 363.32436 361.85712 72.15571
#
# Poissons Ratio (x) = -1.24293 0.27304
# Poissons Ratio (y) = -1.24797 0.27417
# Poissons Ratio (z) = 1.37484 1.37496
#
# Static dielectric constant tensor:
#      x y z
#    x 1.669050 0.000020 0.000000 
#    y 0.000020 1.669170 0.000020 
#    z 0.000000 0.000020 1.653470 
# 
# From -- ./inp_files/1835.got.cif
#   From: 2010.05.17/outbox.cif.g08.bks.cpg/sg166_1_cif.got.tgz:1835.got - 2010.05.20 11:04:41.
