data_PCOD9579600
_publ_section_title
;
Structure prediction by ZEFSAII (Michael W. Deem and Ramdas Pophale) SiO2 
 PCOD9579600
Probable space group: R -3 C 
;
_chemical_formula_sum "Si O2"
_cell_formula_units_Z 90
_cell_length_a 14.584442
_cell_length_b 14.584442
_cell_length_c 18.351888
_cell_angle_alpha 90.000000
_cell_angle_beta 90.000000
_cell_angle_gamma 120.000000
_cell_volume 3380.578438
_symmetry_space_group_name_H-M "R -3 C "
_symmetry_group_IT_number 167
_symmetry_cell_setting 'hexagonal'
loop_
_space_group_symop_operation_xyz
x,y,z
-y,x-y,z
-x+y,-x,z
x-y,-y,1/2-z
-x,-x+y,1/2-z
y,x,1/2-z
-x,-y,-z
y,-x+y,-z
x-y,x,-z
-x+y,y,1/2+z
x,x-y,1/2+z
-y,-x,1/2+z
2/3+x,1/3+y,1/3+z
2/3-y,1/3+x-y,1/3+z
2/3-x+y,1/3-x,1/3+z
2/3+x-y,1/3-y,5/6-z
2/3-x,1/3-x+y,5/6-z
2/3+y,1/3+x,5/6-z
2/3-x,1/3-y,1/3-z
2/3+y,1/3-x+y,1/3-z
2/3+x-y,1/3+x,1/3-z
2/3-x+y,1/3+y,5/6+z
2/3+x,1/3+x-y,5/6+z
2/3-y,1/3-x,5/6+z
1/3+x,2/3+y,2/3+z
1/3-y,2/3+x-y,2/3+z
1/3-x+y,2/3-x,2/3+z
1/3+x-y,2/3-y,1/6-z
1/3-x,2/3-x+y,1/6-z
1/3+y,2/3+x,1/6-z
1/3-x,2/3-y,2/3-z
1/3+y,2/3-x+y,2/3-z
1/3+x-y,2/3+x,2/3-z
1/3-x+y,2/3+y,1/6+z
1/3+x,2/3+x-y,1/6+z
1/3-y,2/3-x,1/6+z
loop_
_atom_site_type_symbol
_atom_site_label
_atom_site_fract_x
_atom_site_fract_y
_atom_site_fract_z
Si Si1 0.271247 0.835659 0.804750
Si Si2 0.798266 0.464932 0.583334
Si Si3 0.830980 0.164413 0.498717
O O1 0.166667 0.833334 0.833334
O O2 0.282427 0.748883 0.854483
O O3 0.374142 0.949634 0.822336
O O4 0.242000 0.809793 0.718579
O O5 0.833644 0.568095 0.535567
O O6 0.795732 0.129065 0.416667
#
# Coordination Sequence:
#
# PCOD9579600 Si02
#       3
#    36  18  36
#     4  10  23  44  69 106 142 195 243 309 378 461
#     4  10  22  42  66 102 142 192 240 302 384 434
#     4  11  26  43  75 108 150 194 254 315 384 463
#
# _framework density 26.622661999999998
#
# number of rings (size 3 to 8) (size 9 to 14) (size 15 to 20)
#    0.000    1.600    0.000    4.800   16.800    0.000 
#    9.600    0.000    0.000    2.400    0.000    0.000 
#    0.000    0.000    0.000    0.000    0.000    0.000 
#
# Total GULP energy -167052.095447 kJ/mol
# GULP energy per Si atom -5568.403182 kJ/mol
# Density = 2.656207 g / cm^3
# Si number density = 26.622662 Si / 1000 Ang^3
#
#
#
# Elastic Constant Matrix: (Units=GPa)
#
#
# Indices 1 2 3 4 5 6 
#
# 1 93.5525 21.6867 50.0754 8.3395 0.0001 0.0000
# 2 21.6867 93.5525 50.0754 -8.3395 -0.0001 0.0000
# 3 50.0754 50.0754 283.4470 0.0000 0.0000 0.0000
# 4 8.3395 -8.3395 0.0000 41.1710 0.0000 -0.0001
# 5 0.0001 -0.0001 0.0000 0.0000 41.1710 8.3395
# 6 0.0000 0.0000 0.0000 -0.0001 8.3395 35.9329
#
#
#
# Elastic Compliance Matrix: (Units=1/GPa)
#
#
# Indices 1 2 3 4 5 6 
#
# 1 0.012426 -0.002175 -0.001811 -0.002958 0.000000 0.000000
# 2 -0.002175 0.012426 -0.001811 0.002958 0.000000 0.000000
# 3 -0.001811 -0.001811 0.004168 0.000000 0.000000 0.000000
# 4 -0.002958 0.002958 0.000000 0.025487 0.000000 0.000000
# 5 0.000000 0.000000 0.000000 0.000000 0.025487 -0.005915
# 6 0.000000 0.000000 0.000000 0.000000 -0.005915 0.029202
#
#
# Mechanical properties :
#
#
# Convention : Reuss Voigt Hill
#
# Bulk Modulus (GPa) = 57.38334 79.35853 68.37093
# Shear Modulus (GPa) = 39.49435 46.90261 43.19848
#
# Velocity S-wave (km/s) = 3.85578 4.20188 4.03255
# Velocity P-wave (km/s) = 6.43614 7.30852 6.88616
#
# Compressibility (1/GPa) = 0.01742666
#
# Stress axis : x y z
#
# Youngs Moduli (GPa) = 80.47381 80.47381 239.92811
#
# Poissons Ratio (x) = 0.17502 0.43453
# Poissons Ratio (y) = 0.17502 0.43453
# Poissons Ratio (z) = 0.14575 0.14575
#
# Static dielectric constant tensor:
#      x y z
#    x 2.358230 0.000000 0.000000 
#    y 0.000000 2.358230 0.000000 
#    z 0.000000 0.000000 2.439000 
# 
# From -- ./inp_files/2914.got.cif
#   From: 2010.05.17/outbox.cif.g08.bks.cpg/sg167_2_cif.got.tgz:2914.got - 2010.05.20 11:09:15.
