data_PCOD9579116
_publ_section_title
;
Structure prediction by ZEFSAII (Michael W. Deem and Ramdas Pophale) SiO2 
 PCOD9579116
Probable space group: R -3 M
;
_chemical_formula_sum "Si O2"
_cell_formula_units_Z 162
_cell_length_a 21.040522
_cell_length_b 21.040522
_cell_length_c 22.894515
_cell_angle_alpha 90.000000
_cell_angle_beta 90.000000
_cell_angle_gamma 120.000000
_cell_volume 8777.586133
_symmetry_space_group_name_H-M "R -3 M"
_symmetry_group_IT_number 166
_symmetry_cell_setting 'hexagonal'
loop_
_space_group_symop_operation_xyz
x,y,z
-y,x-y,z
-x+y,-x,z
x-y,-y,-z
-x,-x+y,-z
y,x,-z
-x,-y,-z
y,-x+y,-z
x-y,x,-z
-x+y,y,z
x,x-y,z
-y,-x,z
2/3+x,1/3+y,1/3+z
2/3-y,1/3+x-y,1/3+z
2/3-x+y,1/3-x,1/3+z
2/3+x-y,1/3-y,1/3-z
2/3-x,1/3-x+y,1/3-z
2/3+y,1/3+x,1/3-z
2/3-x,1/3-y,1/3-z
2/3+y,1/3-x+y,1/3-z
2/3+x-y,1/3+x,1/3-z
2/3-x+y,1/3+y,1/3+z
2/3+x,1/3+x-y,1/3+z
2/3-y,1/3-x,1/3+z
1/3+x,2/3+y,2/3+z
1/3-y,2/3+x-y,2/3+z
1/3-x+y,2/3-x,2/3+z
1/3+x-y,2/3-y,2/3-z
1/3-x,2/3-x+y,2/3-z
1/3+y,2/3+x,2/3-z
1/3-x,2/3-y,2/3-z
1/3+y,2/3-x+y,2/3-z
1/3+x-y,2/3+x,2/3-z
1/3-x+y,2/3+y,2/3+z
1/3+x,2/3+x-y,2/3+z
1/3-y,2/3-x,2/3+z
loop_
_atom_site_type_symbol
_atom_site_label
_atom_site_fract_x
_atom_site_fract_y
_atom_site_fract_z
Si Si1 0.904459 0.525733 0.124324
Si Si2 0.126475 0.730133 0.783096
Si Si3 0.543613 0.939439 0.360829
Si Si4 0.144568 0.000000 0.500000
Si Si5 0.062115 0.794052 0.401634
O O1 0.885175 0.442588 0.119762
O O2 0.894641 0.546701 0.190063
O O3 0.859116 0.547373 0.079834
O O4 0.988537 0.575541 0.102045
O O5 0.213177 0.786824 0.778996
O O6 0.095803 0.762470 0.833334
O O7 0.089791 0.737743 0.724038
O O8 0.468537 0.937073 0.341911
O O9 0.583539 0.917721 0.311901
O O10 0.134959 0.067480 0.480182
O O11 0.203161 0.027805 0.551621
O O12 0.134433 0.865568 0.375747
#
# Coordination Sequence:
#
# PCOD9579116 Si02
#       5
#    36  36  36  18  36
#     4  10  19  32  52  76 106 138 167 211 265 311
#     4   8  16  31  53  75  96 132 173 209 259 311
#     4  10  19  33  54  74  98 137 177 216 261 305
#     4  10  21  36  52  72 103 144 186 220 252 298
#     4  10  21  34  52  77 105 139 176 215 261 307
#
# _framework density 18.456098999999998
#
# number of rings (size 3 to 8) (size 9 to 14) (size 15 to 20)
#    0.000    2.444    0.000    4.111    4.667    1.778 
#    0.000    0.000    0.000   10.667    0.000    0.000 
#    0.000    0.000    0.000    0.000    0.000  337.778 
#
# Total GULP energy -301165.667287 kJ/mol
# GULP energy per Si atom -5577.141987 kJ/mol
# Density = 1.841409 g / cm^3
# Si number density = 18.456099 Si / 1000 Ang^3
#
#
#
# Elastic Constant Matrix: (Units=GPa)
#
#
# Indices 1 2 3 4 5 6 
#
# 1 72.0602 27.9318 35.1546 9.6685 -0.0001 0.0000
# 2 27.9318 72.0602 35.1546 -9.6685 0.0001 0.0000
# 3 35.1546 35.1546 67.4742 0.0000 0.0000 0.0000
# 4 9.6685 -9.6685 0.0000 32.0589 0.0000 0.0001
# 5 -0.0001 0.0001 0.0000 0.0000 32.0589 9.6685
# 6 0.0000 0.0000 0.0000 0.0001 9.6685 22.0642
#
#
#
# Elastic Compliance Matrix: (Units=1/GPa)
#
#
# Indices 1 2 3 4 5 6 
#
# 1 0.020947 -0.005165 -0.008223 -0.007875 0.000000 0.000000
# 2 -0.005165 0.020947 -0.008223 0.007875 0.000000 0.000000
# 3 -0.008223 -0.008223 0.023389 0.000000 0.000000 0.000000
# 4 -0.007875 0.007875 0.000000 0.035942 0.000000 0.000000
# 5 0.000000 0.000000 0.000000 0.000000 0.035942 -0.015750
# 6 0.000000 0.000000 0.000000 0.000000 -0.015750 0.052224
#
#
# Mechanical properties :
#
#
# Convention : Reuss Voigt Hill
#
# Bulk Modulus (GPa) = 45.32546 45.34184 45.33365
# Shear Modulus (GPa) = 20.83617 24.79332 22.81475
#
# Velocity S-wave (km/s) = 3.36364 3.66917 3.51973
# Velocity P-wave (km/s) = 6.30058 6.52466 6.41360
#
# Compressibility (1/GPa) = 0.02206265
#
# Stress axis : x y z
#
# Youngs Moduli (GPa) = 47.73885 47.73885 42.75533
#
# Poissons Ratio (x) = 0.24655 0.35157
# Poissons Ratio (y) = 0.24655 0.35157
# Poissons Ratio (z) = 0.39255 0.39255
#
# Static dielectric constant tensor:
#      x y z
#    x 1.651960 0.000000 0.000000 
#    y 0.000000 1.651960 0.000000 
#    z 0.000000 0.000000 1.678890 
# 
# From -- ./inp_files/8174.got.cif
#   From: 2010.05.17/outbox.cif.g08.bks.cpg/sg166_5_cif.got.tgz:8174.got - 2010.05.20 11:04:41.
