data_PCOD9579564
_publ_section_title
;
Structure prediction by ZEFSAII (Michael W. Deem and Ramdas Pophale) SiO2 
 PCOD9579564
Probable space group: R -3 C 
;
_chemical_formula_sum "Si O2"
_cell_formula_units_Z 138
_cell_length_a 15.535682
_cell_length_b 15.535682
_cell_length_c 28.255461
_cell_angle_alpha 90.000000
_cell_angle_beta 90.000000
_cell_angle_gamma 120.000000
_cell_volume 5906.003163
_symmetry_space_group_name_H-M "R -3 C "
_symmetry_group_IT_number 167
_symmetry_cell_setting 'hexagonal'
loop_
_space_group_symop_operation_xyz
x,y,z
-y,x-y,z
-x+y,-x,z
x-y,-y,1/2-z
-x,-x+y,1/2-z
y,x,1/2-z
-x,-y,-z
y,-x+y,-z
x-y,x,-z
-x+y,y,1/2+z
x,x-y,1/2+z
-y,-x,1/2+z
2/3+x,1/3+y,1/3+z
2/3-y,1/3+x-y,1/3+z
2/3-x+y,1/3-x,1/3+z
2/3+x-y,1/3-y,5/6-z
2/3-x,1/3-x+y,5/6-z
2/3+y,1/3+x,5/6-z
2/3-x,1/3-y,1/3-z
2/3+y,1/3-x+y,1/3-z
2/3+x-y,1/3+x,1/3-z
2/3-x+y,1/3+y,5/6+z
2/3+x,1/3+x-y,5/6+z
2/3-y,1/3-x,5/6+z
1/3+x,2/3+y,2/3+z
1/3-y,2/3+x-y,2/3+z
1/3-x+y,2/3-x,2/3+z
1/3+x-y,2/3-y,1/6-z
1/3-x,2/3-x+y,1/6-z
1/3+y,2/3+x,1/6-z
1/3-x,2/3-y,2/3-z
1/3+y,2/3-x+y,2/3-z
1/3+x-y,2/3+x,2/3-z
1/3-x+y,2/3+y,1/6+z
1/3+x,2/3+x-y,1/6+z
1/3-y,2/3-x,1/6+z
loop_
_atom_site_type_symbol
_atom_site_label
_atom_site_fract_x
_atom_site_fract_y
_atom_site_fract_z
Si Si1 0.530747 0.666506 0.710531
Si Si2 0.222757 0.152557 0.160362
Si Si3 0.937531 0.604198 0.583334
Si Si4 0.523894 0.856359 0.723353
Si Si5 0.000000 0.000000 0.309916
O O1 0.619304 0.712429 0.747371
O O2 0.488299 0.741941 0.709326
O O3 0.444904 0.561531 0.726199
O O4 0.572415 0.658659 0.659027
O O5 0.333334 0.166667 0.166667
O O6 0.214206 0.215051 0.203499
O O7 0.230506 0.200331 0.109041
O O8 0.114512 0.049636 0.168535
O O9 0.000000 0.000000 0.250000
#
# Coordination Sequence:
#
# PCOD9579564 Si02
#       5
#    36  36  18  36  12
#     4  10  22  42  69 107 141 184 249 315 387 461
#     4  12  26  50  78 111 151 204 261 315 384 473
#     4  12  26  44  68 110 154 188 258 318 366 470
#     4  10  21  42  71 101 139 192 239 312 388 455
#     4  12  27  54  84 112 158 217 255 321 402 466
#
# _framework density 23.366053999999998
#
# number of rings (size 3 to 8) (size 9 to 14) (size 15 to 20)
#    0.000    1.043    3.913    2.087    0.000    7.304 
#    4.696    0.000    0.000    0.000    0.000    0.000 
#    0.000    0.000    0.000    0.000    0.000    0.000 
#
# Total GULP energy -256086.386693 kJ/mol
# GULP energy per Si atom -5567.095363 kJ/mol
# Density = 2.331287 g / cm^3
# Si number density = 23.366054 Si / 1000 Ang^3
#
#
#
# Elastic Constant Matrix: (Units=GPa)
#
#
# Indices 1 2 3 4 5 6 
#
# 1 74.9919 30.7678 26.8935 -5.6418 -0.0001 0.0000
# 2 30.7678 74.9919 26.8935 5.6418 0.0001 0.0000
# 3 26.8935 26.8935 190.1478 0.0000 0.0000 0.0000
# 4 -5.6418 5.6418 0.0000 28.8624 0.0000 0.0001
# 5 -0.0001 0.0001 0.0000 0.0000 28.8624 -5.6418
# 6 0.0000 0.0000 0.0000 0.0001 -5.6418 22.1121
#
#
#
# Elastic Compliance Matrix: (Units=1/GPa)
#
#
# Indices 1 2 3 4 5 6 
#
# 1 0.016994 -0.006805 -0.001441 0.004652 0.000000 0.000000
# 2 -0.006805 0.016994 -0.001441 -0.004652 0.000000 0.000000
# 3 -0.001441 -0.001441 0.005667 0.000000 0.000000 0.000000
# 4 0.004652 -0.004652 0.000000 0.036466 0.000000 0.000000
# 5 0.000000 0.000000 0.000000 0.000000 0.036466 0.009304
# 6 0.000000 0.000000 0.000000 0.000000 0.009304 0.047598
#
#
# Mechanical properties :
#
#
# Convention : Reuss Voigt Hill
#
# Bulk Modulus (GPa) = 49.31142 56.58236 52.94689
# Shear Modulus (GPa) = 26.83583 33.00583 29.92083
#
# Velocity S-wave (km/s) = 3.39262 3.76247 3.58233
# Velocity P-wave (km/s) = 6.04121 6.56834 6.31028
#
# Compressibility (1/GPa) = 0.02027928
#
# Stress axis : x y z
#
# Youngs Moduli (GPa) = 58.84561 58.84561 176.47043
#
# Poissons Ratio (x) = 0.40047 0.25429
# Poissons Ratio (y) = 0.40047 0.25429
# Poissons Ratio (z) = 0.08479 0.08479
#
# Static dielectric constant tensor:
#      x y z
#    x 1.948510 0.000000 0.000000 
#    y 0.000000 1.948510 0.000000 
#    z 0.000000 0.000000 1.976060 
# 
# From -- ./inp_files/6063.got.cif
#   From: 2010.05.17/outbox.cif.g08.bks.cpg/sg167_4_cif.got.tgz:6063.got - 2010.05.20 11:09:15.
