data_PCOD9579793
_publ_section_title
;
Structure prediction by ZEFSAII (Michael W. Deem and Ramdas Pophale) SiO2 
 PCOD9579793
Probable space group: P 61
;
_chemical_formula_sum "Si O2"
_cell_formula_units_Z 36
_cell_length_a 19.243923
_cell_length_b 19.243923
_cell_length_c 7.947091
_cell_angle_alpha 90.000000
_cell_angle_beta 90.000000
_cell_angle_gamma 120.000000
_cell_volume 2548.742957
_symmetry_space_group_name_H-M "P 61"
_symmetry_group_IT_number 169
_symmetry_cell_setting 'hexagonal'
loop_
_space_group_symop_operation_xyz
x,y,z
x-y,x,1/6+z
-y,x-y,1/3+z
-x,-y,1/2+z
-x+y,-x,2/3+z
y,-x+y,5/6+z
loop_
_atom_site_type_symbol
_atom_site_label
_atom_site_fract_x
_atom_site_fract_y
_atom_site_fract_z
Si Si1 0.638058 0.184373 0.742860
Si Si2 0.527998 0.846860 0.410239
Si Si3 0.559088 0.473565 0.151005
Si Si4 0.342549 0.567311 0.413644
Si Si5 0.991665 0.584886 0.591099
Si Si6 0.819744 0.516761 0.440933
O O1 0.554744 0.172818 0.815942
O O2 0.605034 0.114582 0.602493
O O3 0.691782 0.268838 0.645901
O O4 0.681597 0.174868 0.906961
O O5 0.498362 0.815445 0.598885
O O6 0.591111 0.941012 0.382444
O O7 0.553508 0.789019 0.321412
O O8 0.592879 0.554041 0.254083
O O9 0.629239 0.463786 0.071028
O O10 0.500069 0.470136 0.007380
O O11 0.424390 0.646291 0.348860
O O12 0.904987 0.569141 0.534542
#
# Coordination Sequence:
#
# PCOD9579793 Si02
#       6
#     6   6   6   6   6   6
#     4  10  19  29  42  62  85 106 143 180 217 255
#     4  10  21  30  44  60  80 110 141 179 224 255
#     4  10  18  28  42  58  78 112 132 172 218 248
#     4  10  19  29  42  62  85 106 143 180 217 255
#     4  10  18  32  42  58  80 104 142 172 212 268
#     4  10  21  30  44  60  80 110 141 179 224 255
#
# _framework density 14.124609
#
# number of rings (size 3 to 8) (size 9 to 14) (size 15 to 20)
#    0.000    2.000    0.000    8.000    7.000    0.000 
#    0.000    0.000    0.000    0.000    0.000    0.000 
#    0.000    0.000    0.000    0.000    0.000   10.000 
#
# Total GULP energy -200432.782371 kJ/mol
# GULP energy per Si atom -5567.577288 kJ/mol
# Density = 1.409246 g / cm^3
# Si number density = 14.124609 Si / 1000 Ang^3
#
#
#
# Elastic Constant Matrix: (Units=GPa)
#
#
# Indices 1 2 3 4 5 6 
#
# 1 47.9711 22.3057 9.3120 0.0000 0.0000 0.0000
# 2 22.3057 47.9711 9.3120 0.0000 0.0000 0.0000
# 3 9.3120 9.3120 52.5884 0.0000 0.0000 0.0000
# 4 0.0000 0.0000 0.0000 14.7211 0.0000 0.0000
# 5 0.0000 0.0000 0.0000 0.0000 14.7211 0.0000
# 6 0.0000 0.0000 0.0000 0.0000 0.0000 12.8327
#
#
#
# Elastic Compliance Matrix: (Units=1/GPa)
#
#
# Indices 1 2 3 4 5 6 
#
# 1 0.026946 -0.012016 -0.002644 0.000000 0.000000 0.000000
# 2 -0.012016 0.026946 -0.002644 0.000000 0.000000 0.000000
# 3 -0.002644 -0.002644 0.019952 0.000000 0.000000 0.000000
# 4 0.000000 0.000000 0.000000 0.067930 0.000000 0.000000
# 5 0.000000 0.000000 0.000000 0.000000 0.067930 0.000000
# 6 0.000000 0.000000 0.000000 0.000000 0.000000 0.077926
#
#
# Mechanical properties :
#
#
# Convention : Reuss Voigt Hill
#
# Bulk Modulus (GPa) = 25.48607 25.59889 25.54248
# Shear Modulus (GPa) = 14.91129 15.62840 15.26984
#
# Velocity S-wave (km/s) = 3.25267 3.32997 3.29155
# Velocity P-wave (km/s) = 5.67357 5.74002 5.70689
#
# Compressibility (1/GPa) = 0.03923712
#
# Stress axis : x y z
#
# Youngs Moduli (GPa) = 37.11063 37.11063 50.12064
#
# Poissons Ratio (x) = 0.44594 0.13250
# Poissons Ratio (y) = 0.44594 0.13250
# Poissons Ratio (z) = 0.09811 0.09811
#
# Static dielectric constant tensor:
#      x y z
#    x 1.475850 0.000000 0.000000 
#    y 0.000000 1.475850 0.000000 
#    z 0.000000 0.000000 1.548990 
# 
# From -- ./inp_files/660.got.cif
#   From: 2010.05.17/outbox.cif.g08.bks.cpg/sg169_cif.got.tgz:660.got - 2010.05.20 11:12:54.
