data_PCOD9579534
_publ_section_title
;
Structure prediction by ZEFSAII (Michael W. Deem and Ramdas Pophale) SiO2 
 PCOD9579534
Probable space group: R -3 C 
;
_chemical_formula_sum "Si O2"
_cell_formula_units_Z 108
_cell_length_a 16.560155
_cell_length_b 16.560155
_cell_length_c 20.551007
_cell_angle_alpha 90.000000
_cell_angle_beta 90.000000
_cell_angle_gamma 120.000000
_cell_volume 4880.817101
_symmetry_space_group_name_H-M "R -3 C "
_symmetry_group_IT_number 167
_symmetry_cell_setting 'hexagonal'
loop_
_space_group_symop_operation_xyz
x,y,z
-y,x-y,z
-x+y,-x,z
x-y,-y,1/2-z
-x,-x+y,1/2-z
y,x,1/2-z
-x,-y,-z
y,-x+y,-z
x-y,x,-z
-x+y,y,1/2+z
x,x-y,1/2+z
-y,-x,1/2+z
2/3+x,1/3+y,1/3+z
2/3-y,1/3+x-y,1/3+z
2/3-x+y,1/3-x,1/3+z
2/3+x-y,1/3-y,5/6-z
2/3-x,1/3-x+y,5/6-z
2/3+y,1/3+x,5/6-z
2/3-x,1/3-y,1/3-z
2/3+y,1/3-x+y,1/3-z
2/3+x-y,1/3+x,1/3-z
2/3-x+y,1/3+y,5/6+z
2/3+x,1/3+x-y,5/6+z
2/3-y,1/3-x,5/6+z
1/3+x,2/3+y,2/3+z
1/3-y,2/3+x-y,2/3+z
1/3-x+y,2/3-x,2/3+z
1/3+x-y,2/3-y,1/6-z
1/3-x,2/3-x+y,1/6-z
1/3+y,2/3+x,1/6-z
1/3-x,2/3-y,2/3-z
1/3+y,2/3-x+y,2/3-z
1/3+x-y,2/3+x,2/3-z
1/3-x+y,2/3+y,1/6+z
1/3+x,2/3+x-y,1/6+z
1/3-y,2/3-x,1/6+z
loop_
_atom_site_type_symbol
_atom_site_label
_atom_site_fract_x
_atom_site_fract_y
_atom_site_fract_z
Si Si1 0.236964 0.465592 0.773986
Si Si2 0.894393 0.776602 0.897782
Si Si3 0.898858 0.151634 0.749322
O O1 0.171279 0.503261 0.746752
O O2 0.342358 0.510495 0.748990
O O3 0.184654 0.356028 0.761046
O O4 0.239890 0.474506 0.852925
O O5 0.839054 0.666667 0.916667
O O6 0.894235 0.777993 0.819219
O O7 0.000000 0.246292 0.750000
#
# Coordination Sequence:
#
# PCOD9579534 Si02
#       3
#    36  36  36
#     4  10  21  38  60  85 120 157 201 251 305 364
#     4  11  23  38  61  90 122 160 203 252 307 366
#     4   9  20  38  60  85 113 156 206 253 299 353
#
# _framework density 22.127441999999999
#
# number of rings (size 3 to 8) (size 9 to 14) (size 15 to 20)
#    0.000    2.000    0.000    2.667    0.000   10.667 
#    0.000    3.333    0.000    4.000    0.000    0.000 
#    0.000    0.000    0.000    0.000    0.000    0.000 
#
# Total GULP energy -200849.955916 kJ/mol
# GULP energy per Si atom -5579.165442 kJ/mol
# Density = 2.207708 g / cm^3
# Si number density = 22.127442 Si / 1000 Ang^3
#
#
#
# Elastic Constant Matrix: (Units=GPa)
#
#
# Indices 1 2 3 4 5 6 
#
# 1 129.7739 81.9308 11.0036 7.1291 0.0001 0.0000
# 2 81.9308 129.7739 11.0036 -7.1291 -0.0001 0.0000
# 3 11.0036 11.0036 79.5952 0.0000 0.0000 0.0000
# 4 7.1291 -7.1291 0.0000 11.8803 0.0000 -0.0001
# 5 0.0001 -0.0001 0.0000 0.0000 11.8803 7.1291
# 6 0.0000 0.0000 0.0000 -0.0001 7.1291 23.9215
#
#
#
# Elastic Compliance Matrix: (Units=1/GPa)
#
#
# Indices 1 2 3 4 5 6 
#
# 1 0.015123 -0.010331 -0.000663 -0.015274 0.000000 0.000000
# 2 -0.010331 0.015123 -0.000663 0.015274 0.000000 0.000000
# 3 -0.000663 -0.000663 0.012747 0.000000 0.000000 0.000000
# 4 -0.015274 0.015274 0.000000 0.102504 0.000000 0.000001
# 5 0.000000 0.000000 0.000000 0.000000 0.102504 -0.030548
# 6 0.000000 0.000000 0.000000 0.000001 -0.030548 0.050907
#
#
# Mechanical properties :
#
#
# Convention : Reuss Voigt Hill
#
# Bulk Modulus (GPa) = 50.80911 60.77988 55.79449
# Shear Modulus (GPa) = 15.20769 25.21675 20.21222
#
# Velocity S-wave (km/s) = 2.62444 3.37948 3.02561
# Velocity P-wave (km/s) = 5.67411 6.53877 6.12173
#
# Compressibility (1/GPa) = 0.01968151
#
# Stress axis : x y z
#
# Youngs Moduli (GPa) = 66.12414 66.12414 78.45130
#
# Poissons Ratio (x) = 0.68310 0.05198
# Poissons Ratio (y) = 0.68310 0.05198
# Poissons Ratio (z) = 0.04381 0.04381
#
# Static dielectric constant tensor:
#      x y z
#    x 1.805180 0.000000 0.000000 
#    y 0.000000 1.805180 0.000000 
#    z 0.000000 0.000000 1.888450 
# 
# From -- ./inp_files/4073.got.cif
#   From: 2010.05.17/outbox.cif.g08.bks.cpg/sg167_3_cif.got.tgz:4073.got - 2010.05.20 11:09:15.
