data_PCOD9579657
_publ_section_title
;
Structure prediction by ZEFSAII (Michael W. Deem and Ramdas Pophale) SiO2 
 PCOD9579657
Probable space group: R -3 C 
;
_chemical_formula_sum "Si O2"
_cell_formula_units_Z 162
_cell_length_a 19.153235
_cell_length_b 19.153235
_cell_length_c 22.782326
_cell_angle_alpha 90.000000
_cell_angle_beta 90.000000
_cell_angle_gamma 120.000000
_cell_volume 7237.906495
_symmetry_space_group_name_H-M "R -3 C "
_symmetry_group_IT_number 167
_symmetry_cell_setting 'hexagonal'
loop_
_space_group_symop_operation_xyz
x,y,z
-y,x-y,z
-x+y,-x,z
x-y,-y,1/2-z
-x,-x+y,1/2-z
y,x,1/2-z
-x,-y,-z
y,-x+y,-z
x-y,x,-z
-x+y,y,1/2+z
x,x-y,1/2+z
-y,-x,1/2+z
2/3+x,1/3+y,1/3+z
2/3-y,1/3+x-y,1/3+z
2/3-x+y,1/3-x,1/3+z
2/3+x-y,1/3-y,5/6-z
2/3-x,1/3-x+y,5/6-z
2/3+y,1/3+x,5/6-z
2/3-x,1/3-y,1/3-z
2/3+y,1/3-x+y,1/3-z
2/3+x-y,1/3+x,1/3-z
2/3-x+y,1/3+y,5/6+z
2/3+x,1/3+x-y,5/6+z
2/3-y,1/3-x,5/6+z
1/3+x,2/3+y,2/3+z
1/3-y,2/3+x-y,2/3+z
1/3-x+y,2/3-x,2/3+z
1/3+x-y,2/3-y,1/6-z
1/3-x,2/3-x+y,1/6-z
1/3+y,2/3+x,1/6-z
1/3-x,2/3-y,2/3-z
1/3+y,2/3-x+y,2/3-z
1/3+x-y,2/3+x,2/3-z
1/3-x+y,2/3+y,1/6+z
1/3+x,2/3+x-y,1/6+z
1/3-y,2/3-x,1/6+z
loop_
_atom_site_type_symbol
_atom_site_label
_atom_site_fract_x
_atom_site_fract_y
_atom_site_fract_z
Si Si1 0.872634 0.692709 0.836915
Si Si2 0.780362 0.500714 0.413822
Si Si3 0.000000 0.177457 0.250000
Si Si4 0.695796 0.117811 0.303033
Si Si5 0.227704 0.718565 0.295084
O O1 0.878260 0.752517 0.889510
O O2 0.930935 0.744647 0.783596
O O3 0.779207 0.656669 0.819017
O O4 0.900038 0.625782 0.851093
O O5 0.810864 0.515574 0.347180
O O6 0.833735 0.470124 0.446234
O O7 0.688200 0.436230 0.428922
O O8 0.037752 0.151925 0.302753
O O9 0.709511 0.147733 0.235787
#
# Coordination Sequence:
#
# PCOD9579657 Si02
#       5
#    36  36  18  36  36
#     4  11  26  44  73 108 155 190 256 311 378 454
#     4  11  23  44  73 108 141 195 249 321 376 443
#     4  10  28  46  68 108 148 206 248 302 384 470
#     4  12  23  43  74 107 142 201 249 313 377 438
#     4  11  23  44  69 102 144 187 257 304 377 451
#
# _framework density 22.382164
#
# number of rings (size 3 to 8) (size 9 to 14) (size 15 to 20)
#    0.000    0.889    4.444    1.111    6.222    4.444 
#    0.000    6.667    0.000    0.000    0.000    0.000 
#    0.000    0.000    0.000    0.000    0.000    0.000 
#
# Total GULP energy -300852.162366 kJ/mol
# GULP energy per Si atom -5571.336340 kJ/mol
# Density = 2.233122 g / cm^3
# Si number density = 22.382164 Si / 1000 Ang^3
#
#
#
# Elastic Constant Matrix: (Units=GPa)
#
#
# Indices 1 2 3 4 5 6 
#
# 1 101.2235 17.2533 14.9081 -2.4810 0.0000 0.0000
# 2 17.2533 101.2235 14.9081 2.4810 0.0000 0.0000
# 3 14.9081 14.9081 143.3313 0.0000 0.0000 0.0000
# 4 -2.4810 2.4810 0.0000 18.5670 0.0000 0.0000
# 5 0.0000 0.0000 0.0000 0.0000 18.5670 -2.4810
# 6 0.0000 0.0000 0.0000 0.0000 -2.4810 41.9851
#
#
#
# Elastic Compliance Matrix: (Units=1/GPa)
#
#
# Indices 1 2 3 4 5 6 
#
# 1 0.010336 -0.001668 -0.000902 0.001604 0.000000 0.000000
# 2 -0.001668 0.010336 -0.000902 -0.001604 0.000000 0.000000
# 3 -0.000902 -0.000902 0.007164 0.000000 0.000000 0.000000
# 4 0.001604 -0.001604 0.000000 0.054288 0.000000 0.000000
# 5 0.000000 0.000000 0.000000 0.000000 0.054288 0.003208
# 6 0.000000 0.000000 0.000000 0.000000 0.003208 0.024008
#
#
# Mechanical properties :
#
#
# Convention : Reuss Voigt Hill
#
# Bulk Modulus (GPa) = 47.86281 48.87972 48.37127
# Shear Modulus (GPa) = 28.68208 35.73776 32.20992
#
# Velocity S-wave (km/s) = 3.58365 4.00022 3.79765
# Velocity P-wave (km/s) = 6.20920 6.57432 6.39437
#
# Compressibility (1/GPa) = 0.02089305
#
# Stress axis : x y z
#
# Youngs Moduli (GPa) = 96.75342 96.75342 139.57951
#
# Poissons Ratio (x) = 0.16140 0.12583
# Poissons Ratio (y) = 0.16140 0.12583
# Poissons Ratio (z) = 0.08722 0.08722
#
# Static dielectric constant tensor:
#      x y z
#    x 1.929920 0.000000 0.000000 
#    y 0.000000 1.929920 0.000000 
#    z 0.000000 0.000000 1.825060 
# 
# From -- ./inp_files/4415.got.cif
#   From: 2010.05.17/outbox.cif.g08.bks.cpg/sg167_3_cif.got.tgz:4415.got - 2010.05.20 11:09:15.
