data_PCOD9579558
_publ_section_title
;
Structure prediction by ZEFSAII (Michael W. Deem and Ramdas Pophale) SiO2 
 PCOD9579558
Probable space group: R -3 C 
;
_chemical_formula_sum "Si O2"
_cell_formula_units_Z 108
_cell_length_a 16.954790
_cell_length_b 16.954790
_cell_length_c 18.172251
_cell_angle_alpha 90.000000
_cell_angle_beta 90.000000
_cell_angle_gamma 120.000000
_cell_volume 4524.016587
_symmetry_space_group_name_H-M "R -3 C "
_symmetry_group_IT_number 167
_symmetry_cell_setting 'hexagonal'
loop_
_space_group_symop_operation_xyz
x,y,z
-y,x-y,z
-x+y,-x,z
x-y,-y,1/2-z
-x,-x+y,1/2-z
y,x,1/2-z
-x,-y,-z
y,-x+y,-z
x-y,x,-z
-x+y,y,1/2+z
x,x-y,1/2+z
-y,-x,1/2+z
2/3+x,1/3+y,1/3+z
2/3-y,1/3+x-y,1/3+z
2/3-x+y,1/3-x,1/3+z
2/3+x-y,1/3-y,5/6-z
2/3-x,1/3-x+y,5/6-z
2/3+y,1/3+x,5/6-z
2/3-x,1/3-y,1/3-z
2/3+y,1/3-x+y,1/3-z
2/3+x-y,1/3+x,1/3-z
2/3-x+y,1/3+y,5/6+z
2/3+x,1/3+x-y,5/6+z
2/3-y,1/3-x,5/6+z
1/3+x,2/3+y,2/3+z
1/3-y,2/3+x-y,2/3+z
1/3-x+y,2/3-x,2/3+z
1/3+x-y,2/3-y,1/6-z
1/3-x,2/3-x+y,1/6-z
1/3+y,2/3+x,1/6-z
1/3-x,2/3-y,2/3-z
1/3+y,2/3-x+y,2/3-z
1/3+x-y,2/3+x,2/3-z
1/3-x+y,2/3+y,1/6+z
1/3+x,2/3+x-y,1/6+z
1/3-y,2/3-x,1/6+z
loop_
_atom_site_type_symbol
_atom_site_label
_atom_site_fract_x
_atom_site_fract_y
_atom_site_fract_z
Si Si1 0.280890 0.803659 0.135698
Si Si2 0.947705 0.568317 0.430069
Si Si3 0.801289 0.523044 0.152557
O O1 0.366677 0.825639 0.187557
O O2 0.247967 0.862494 0.181480
O O3 0.320955 0.825279 0.055336
O O4 0.874801 0.487202 0.484114
O O5 0.954319 0.666667 0.416667
O O6 0.043474 0.592382 0.465630
O O7 0.792284 0.458951 0.083334
#
# Coordination Sequence:
#
# PCOD9579558 Si02
#       3
#    36  36  36
#     4  10  21  41  61  86 120 167 207 249 315 384
#     4   9  19  38  57  88 123 163 204 257 328 378
#     4   9  19  38  60  88 124 160 213 262 308 387
#
# _framework density 23.872592999999998
#
# number of rings (size 3 to 8) (size 9 to 14) (size 15 to 20)
#    0.000    2.667    0.000    0.333    0.000    5.333 
#   36.000    5.000    0.000    0.000    0.000    0.000 
#    0.000    0.000    0.000    0.000    0.000    0.000 
#
# Total GULP energy -200419.930952 kJ/mol
# GULP energy per Si atom -5567.220304 kJ/mol
# Density = 2.381826 g / cm^3
# Si number density = 23.872593 Si / 1000 Ang^3
#
#
#
# Elastic Constant Matrix: (Units=GPa)
#
#
# Indices 1 2 3 4 5 6 
#
# 1 72.8872 16.4746 54.3116 2.4569 -0.0058 0.0000
# 2 16.4746 72.8872 54.3116 -2.4569 0.0058 0.0000
# 3 54.3116 54.3116 194.7400 0.0000 0.0000 0.0000
# 4 2.4569 -2.4569 0.0000 172.0593 0.0000 0.0058
# 5 -0.0058 0.0058 0.0000 0.0000 172.0593 2.4569
# 6 0.0000 0.0000 0.0000 0.0058 2.4569 28.2063
#
#
#
# Elastic Compliance Matrix: (Units=1/GPa)
#
#
# Indices 1 2 3 4 5 6 
#
# 1 0.017339 -0.000409 -0.004722 -0.000253 0.000001 0.000000
# 2 -0.000409 0.017339 -0.004722 0.000253 -0.000001 0.000000
# 3 -0.004722 -0.004722 0.007769 0.000000 0.000000 0.000000
# 4 -0.000253 0.000253 0.000000 0.005819 0.000000 -0.000001
# 5 0.000001 -0.000001 0.000000 0.000000 0.005819 -0.000507
# 6 0.000000 0.000000 0.000000 -0.000001 -0.000507 0.035497
#
#
# Mechanical properties :
#
#
# Convention : Reuss Voigt Hill
#
# Bulk Modulus (GPa) = 43.97179 65.63446 54.80312
# Shear Modulus (GPa) = 42.78309 88.82606 65.80458
#
# Velocity S-wave (km/s) = 4.23796 6.10649 5.25592
# Velocity P-wave (km/s) = 6.51202 8.79046 7.73559
#
# Compressibility (1/GPa) = 0.02274185
#
# Stress axis : x y z
#
# Youngs Moduli (GPa) = 57.67278 57.67278 128.72182
#
# Poissons Ratio (x) = 0.02361 0.60777
# Poissons Ratio (y) = 0.02361 0.60777
# Poissons Ratio (z) = 0.27231 0.27231
#
# Static dielectric constant tensor:
#      x y z
#    x 1.955100 0.000000 0.000000 
#    y 0.000000 1.955100 0.000000 
#    z 0.000000 0.000000 1.687950 
# 
# From -- ./inp_files/2056.got.cif
#   From: 2010.05.17/outbox.cif.g08.bks.cpg/sg167_2_cif.got.tgz:2056.got - 2010.05.20 11:09:15.
