data_PCOD9579189
_publ_section_title
;
Structure prediction by ZEFSAII (Michael W. Deem and Ramdas Pophale) SiO2 
 PCOD9579189
Probable space group: R -3 M
;
_chemical_formula_sum "Si O2"
_cell_formula_units_Z 252
_cell_length_a 31.510346
_cell_length_b 31.510346
_cell_length_c 17.698887
_cell_angle_alpha 90.000000
_cell_angle_beta 90.000000
_cell_angle_gamma 120.000000
_cell_volume 15218.888392
_symmetry_space_group_name_H-M "R -3 M"
_symmetry_group_IT_number 166
_symmetry_cell_setting 'hexagonal'
loop_
_space_group_symop_operation_xyz
x,y,z
-y,x-y,z
-x+y,-x,z
x-y,-y,-z
-x,-x+y,-z
y,x,-z
-x,-y,-z
y,-x+y,-z
x-y,x,-z
-x+y,y,z
x,x-y,z
-y,-x,z
2/3+x,1/3+y,1/3+z
2/3-y,1/3+x-y,1/3+z
2/3-x+y,1/3-x,1/3+z
2/3+x-y,1/3-y,1/3-z
2/3-x,1/3-x+y,1/3-z
2/3+y,1/3+x,1/3-z
2/3-x,1/3-y,1/3-z
2/3+y,1/3-x+y,1/3-z
2/3+x-y,1/3+x,1/3-z
2/3-x+y,1/3+y,1/3+z
2/3+x,1/3+x-y,1/3+z
2/3-y,1/3-x,1/3+z
1/3+x,2/3+y,2/3+z
1/3-y,2/3+x-y,2/3+z
1/3-x+y,2/3-x,2/3+z
1/3+x-y,2/3-y,2/3-z
1/3-x,2/3-x+y,2/3-z
1/3+y,2/3+x,2/3-z
1/3-x,2/3-y,2/3-z
1/3+y,2/3-x+y,2/3-z
1/3+x-y,2/3+x,2/3-z
1/3-x+y,2/3+y,2/3+z
1/3+x,2/3+x-y,2/3+z
1/3-y,2/3-x,2/3+z
loop_
_atom_site_type_symbol
_atom_site_label
_atom_site_fract_x
_atom_site_fract_y
_atom_site_fract_z
Si Si1 0.000017 0.902196 0.592006
Si Si2 0.638133 0.869183 0.761144
Si Si3 0.121296 0.509624 0.667705
Si Si4 0.471095 0.137194 0.742665
Si Si5 0.135446 0.370681 0.055019
Si Si6 0.754139 0.144597 0.649533
Si Si7 0.809083 0.720395 0.852991
O O1 0.950108 0.900216 0.616660
O O2 0.002062 0.854301 0.615845
O O3 0.000000 0.902562 0.500000
O O4 0.047956 0.952045 0.616600
O O5 0.630849 0.815425 0.777037
O O6 0.666667 0.902366 0.833334
O O7 0.584694 0.856607 0.731130
O O8 0.674045 0.890355 0.689483
O O9 0.131012 0.565506 0.661555
O O10 0.166929 0.500263 0.666667
O O11 0.092578 0.488100 0.746987
O O12 0.470571 0.137237 0.833334
O O13 0.469488 0.087760 0.718099
O O14 0.425277 0.138985 0.708403
O O15 0.190252 0.380503 0.069097
O O16 0.100170 0.333009 0.119051
O O17 0.800434 0.199567 0.654269
O O18 0.775454 0.108787 0.666667
O O19 0.733713 0.134469 0.563804
O O20 0.857741 0.715481 0.847729
#
# Coordination Sequence:
#
# PCOD9579189 Si02
#       7
#    36  36  36  36  36  36  36
#     4   9  17  29  45  65  91 124 161 201 243 284
#     4   8  15  29  49  73  98 123 153 188 231 288
#     4   9  17  30  51  77 103 133 169 210 254 299
#     4  11  21  30  44  70  98 121 155 202 244 286
#     4   9  17  31  50  69  93 124 152 186 237 287
#     4  10  20  34  51  67  88 125 167 202 239 288
#     4   8  16  32  51  69  90 121 162 200 235 284
#
# _framework density 16.55837
#
# number of rings (size 3 to 8) (size 9 to 14) (size 15 to 20)
#    0.000    2.857    0.000    3.571    0.000    4.571 
#    0.000    2.857    0.000    5.286    0.000    0.000 
#    0.000    0.000    0.000    0.000    0.000    0.000 
#
# Total GULP energy -467743.079922 kJ/mol
# GULP energy per Si atom -5568.369999 kJ/mol
# Density = 1.652068 g / cm^3
# Si number density = 16.558370 Si / 1000 Ang^3
#
#
#
# Elastic Constant Matrix: (Units=GPa)
#
#
# Indices 1 2 3 4 5 6 
#
# 1 90.6866 63.7881 20.5318 15.7366 0.0153 0.0000
# 2 63.7881 90.6866 20.5318 -15.7368 -0.0151 0.0000
# 3 20.5318 20.5318 67.1122 -0.0002 0.0006 0.0000
# 4 15.7366 -15.7368 -0.0002 902.0785 -0.0080 -0.0154
# 5 0.0153 -0.0151 0.0006 -0.0080 902.0245 15.7356
# 6 0.0000 0.0000 0.0000 -0.0154 15.7356 13.4492
#
#
#
# Elastic Compliance Matrix: (Units=1/GPa)
#
#
# Indices 1 2 3 4 5 6 
#
# 1 0.022499 -0.015452 -0.002156 -0.000662 -0.000001 0.000000
# 2 -0.015452 0.022499 -0.002156 0.000662 0.000001 0.000000
# 3 -0.002156 -0.002156 0.016219 0.000000 0.000000 0.000000
# 4 -0.000662 0.000662 0.000000 0.001132 0.000000 0.000001
# 5 -0.000001 0.000001 0.000000 0.000000 0.001132 -0.001324
# 6 0.000000 0.000000 0.000000 0.000001 -0.001324 0.075903
#
#
# Mechanical properties :
#
#
# Convention : Reuss Voigt Hill
#
# Bulk Modulus (GPa) = 46.10516 50.90989 48.50753
# Shear Modulus (GPa) = 26.86127 373.08604 199.97365
#
# Velocity S-wave (km/s) = 4.03204 15.02680 11.00141
# Velocity P-wave (km/s) = 7.04138 18.21773 13.81062
#
# Compressibility (1/GPa) = 0.02168954
#
# Stress axis : x y z
#
# Youngs Moduli (GPa) = 44.44636 44.44636 61.65425
#
# Poissons Ratio (x) = 0.68680 0.13291
# Poissons Ratio (y) = 0.68680 0.13291
# Poissons Ratio (z) = 0.09582 0.09582
#
# Static dielectric constant tensor:
#      x y z
#    x 1.549890 0.000000 0.000000 
#    y 0.000000 1.549890 0.000000 
#    z 0.000000 0.000000 1.573730 
# 
# From -- ./inp_files/5871.got.cif
#   From: 2010.05.17/outbox.cif.g08.bks.cpg/sg166_3_cif.got.tgz:5871.got - 2010.05.20 11:04:41.
