data_PCOD9579279
_publ_section_title
;
Structure prediction by ZEFSAII (Michael W. Deem and Ramdas Pophale) SiO2 
 PCOD9579279
Probable space group: R -3 M
;
_chemical_formula_sum "Si O2"
_cell_formula_units_Z 144
_cell_length_a 31.246206
_cell_length_b 31.246206
_cell_length_c 8.159776
_cell_angle_alpha 90.000000
_cell_angle_beta 90.000000
_cell_angle_gamma 120.000000
_cell_volume 6899.274934
_symmetry_space_group_name_H-M "R -3 M"
_symmetry_group_IT_number 166
_symmetry_cell_setting 'hexagonal'
loop_
_space_group_symop_operation_xyz
x,y,z
-y,x-y,z
-x+y,-x,z
x-y,-y,-z
-x,-x+y,-z
y,x,-z
-x,-y,-z
y,-x+y,-z
x-y,x,-z
-x+y,y,z
x,x-y,z
-y,-x,z
2/3+x,1/3+y,1/3+z
2/3-y,1/3+x-y,1/3+z
2/3-x+y,1/3-x,1/3+z
2/3+x-y,1/3-y,1/3-z
2/3-x,1/3-x+y,1/3-z
2/3+y,1/3+x,1/3-z
2/3-x,1/3-y,1/3-z
2/3+y,1/3-x+y,1/3-z
2/3+x-y,1/3+x,1/3-z
2/3-x+y,1/3+y,1/3+z
2/3+x,1/3+x-y,1/3+z
2/3-y,1/3-x,1/3+z
1/3+x,2/3+y,2/3+z
1/3-y,2/3+x-y,2/3+z
1/3-x+y,2/3-x,2/3+z
1/3+x-y,2/3-y,2/3-z
1/3-x,2/3-x+y,2/3-z
1/3+y,2/3+x,2/3-z
1/3-x,2/3-y,2/3-z
1/3+y,2/3-x+y,2/3-z
1/3+x-y,2/3+x,2/3-z
1/3-x+y,2/3+y,2/3+z
1/3+x,2/3+x-y,2/3+z
1/3-y,2/3-x,2/3+z
loop_
_atom_site_type_symbol
_atom_site_label
_atom_site_fract_x
_atom_site_fract_y
_atom_site_fract_z
Si Si1 0.550913 0.642787 0.406311
Si Si2 0.974781 0.849392 0.167894
Si Si3 0.276506 0.086387 0.598446
Si Si4 0.642752 0.642752 0.500000
Si Si5 0.434562 0.767896 0.166667
O O1 0.501566 0.628239 0.502437
O O2 0.575915 0.701633 0.363881
O O3 0.537918 0.605427 0.250491
O O4 0.589739 0.636923 0.513619
O O5 0.925850 0.851699 0.185672
O O6 0.004329 0.872717 0.336133
O O7 0.000000 0.875168 0.000000
O O8 0.264278 0.132139 0.603296
O O9 0.333334 0.111319 0.666667
O O10 0.672451 0.666667 0.666667
O O11 0.381205 0.762410 0.176692
#
# Coordination Sequence:
#
# PCOD9579279 Si02
#       5
#    36  36  36  18  18
#     4  11  22  39  62  89 126 165 206 257 307 365
#     4  11  24  41  62  90 125 165 208 257 316 378
#     4  10  21  38  63  95 128 164 206 253 308 367
#     4  12  24  41  65  92 121 162 209 252 301 357
#     4  10  21  39  64  92 123 162 211 264 317 375
#
# _framework density 20.871759999999998
#
# number of rings (size 3 to 8) (size 9 to 14) (size 15 to 20)
#    0.000    1.250    0.000    7.625    0.000    4.000 
#    0.000    5.000    0.000    4.000    0.000    0.000 
#    0.000    0.000    0.000    0.000    0.000    0.000 
#
# Total GULP energy -267722.695739 kJ/mol
# GULP energy per Si atom -5577.556161 kJ/mol
# Density = 2.082425 g / cm^3
# Si number density = 20.871760 Si / 1000 Ang^3
#
#
#
# Elastic Constant Matrix: (Units=GPa)
#
#
# Indices 1 2 3 4 5 6 
#
# 1 220.4882 -55.6882 33.7421 88.8151 0.9839 1.3397
# 2 -55.6882 220.3835 33.3517 -88.8093 -0.2946 -0.6481
# 3 33.7421 33.3517 92.8749 0.1127 1.6838 1.7383
# 4 88.8151 -88.8093 0.1127 111.0091 0.6690 1.0339
# 5 0.9839 -0.2946 1.6838 0.6690 115.1678 92.9957
# 6 1.3397 -0.6481 1.7383 1.0339 92.9957 142.2987
#
#
#
# Elastic Compliance Matrix: (Units=1/GPa)
#
#
# Indices 1 2 3 4 5 6 
#
# 1 0.007291 -0.000172 -0.002580 -0.005969 0.000011 -0.000002
# 2 -0.000172 0.007288 -0.002562 0.005971 0.000010 0.000016
# 3 -0.002580 -0.002562 0.012628 0.000003 -0.000116 -0.000066
# 4 -0.005969 0.005971 0.000003 0.018561 0.000000 -0.000052
# 5 0.000011 0.000010 -0.000116 0.000000 0.018386 -0.012014
# 6 -0.000002 0.000016 -0.000066 -0.000052 -0.012014 0.014880
#
#
# Mechanical properties :
#
#
# Convention : Reuss Voigt Hill
#
# Bulk Modulus (GPa) = 60.32220 61.83976 61.08098
# Shear Modulus (GPa) = 52.52750 108.51786 80.52268
#
# Velocity S-wave (km/s) = 5.02209 7.21842 6.21800
# Velocity P-wave (km/s) = 7.91155 9.95825 8.99332
#
# Compressibility (1/GPa) = 0.01657765
#
# Stress axis : x y z
#
# Youngs Moduli (GPa) = 137.15948 137.21453 79.19011
#
# Poissons Ratio (x) = 0.02367 0.20429
# Poissons Ratio (y) = 0.02366 0.20290
# Poissons Ratio (z) = 0.35384 0.35157
#
# Static dielectric constant tensor:
#      x y z
#    x 1.731630 0.000000 -0.000190 
#    y 0.000000 1.731630 -0.000040 
#    z -0.000190 -0.000040 1.979840 
# 
# From -- ./inp_files/1867.got.cif
#   From: 2010.05.17/outbox.cif.g08.bks.cpg/sg166_1_cif.got.tgz:1867.got - 2010.05.20 11:04:41.
