data_PCOD9579711
_publ_section_title
;
Structure prediction by ZEFSAII (Michael W. Deem and Ramdas Pophale) SiO2 
 PCOD9579711
Probable space group: R -3 C 
;
_chemical_formula_sum "Si O2"
_cell_formula_units_Z 150
_cell_length_a 17.006219
_cell_length_b 17.006219
_cell_length_c 28.854873
_cell_angle_alpha 90.000000
_cell_angle_beta 90.000000
_cell_angle_gamma 120.000000
_cell_volume 7227.121131
_symmetry_space_group_name_H-M "R -3 C "
_symmetry_group_IT_number 167
_symmetry_cell_setting 'hexagonal'
loop_
_space_group_symop_operation_xyz
x,y,z
-y,x-y,z
-x+y,-x,z
x-y,-y,1/2-z
-x,-x+y,1/2-z
y,x,1/2-z
-x,-y,-z
y,-x+y,-z
x-y,x,-z
-x+y,y,1/2+z
x,x-y,1/2+z
-y,-x,1/2+z
2/3+x,1/3+y,1/3+z
2/3-y,1/3+x-y,1/3+z
2/3-x+y,1/3-x,1/3+z
2/3+x-y,1/3-y,5/6-z
2/3-x,1/3-x+y,5/6-z
2/3+y,1/3+x,5/6-z
2/3-x,1/3-y,1/3-z
2/3+y,1/3-x+y,1/3-z
2/3+x-y,1/3+x,1/3-z
2/3-x+y,1/3+y,5/6+z
2/3+x,1/3+x-y,5/6+z
2/3-y,1/3-x,5/6+z
1/3+x,2/3+y,2/3+z
1/3-y,2/3+x-y,2/3+z
1/3-x+y,2/3-x,2/3+z
1/3+x-y,2/3-y,1/6-z
1/3-x,2/3-x+y,1/6-z
1/3+y,2/3+x,1/6-z
1/3-x,2/3-y,2/3-z
1/3+y,2/3-x+y,2/3-z
1/3+x-y,2/3+x,2/3-z
1/3-x+y,2/3+y,1/6+z
1/3+x,2/3+x-y,1/6+z
1/3-y,2/3-x,1/6+z
loop_
_atom_site_type_symbol
_atom_site_label
_atom_site_fract_x
_atom_site_fract_y
_atom_site_fract_z
Si Si1 0.333334 0.666667 0.359940
Si Si2 0.453242 0.047645 0.854789
Si Si3 0.000000 0.000000 0.554761
Si Si4 0.399624 0.532611 0.318571
Si Si5 0.767720 0.101053 0.416667
Si Si6 0.349615 0.852989 0.100322
O O1 0.333334 0.666668 0.416667
O O2 0.378143 0.607858 0.339540
O O3 0.388985 0.075175 0.881217
O O4 0.552685 0.101946 0.876590
O O5 0.461164 0.081739 0.801515
O O6 0.418692 0.941427 0.857471
O O7 0.902192 0.981130 0.569243
O O8 0.000000 0.000000 0.500000
O O9 0.483989 0.560051 0.282388
O O10 0.316995 0.458182 0.286731
#
# Coordination Sequence:
#
# PCOD9579711 Si02
#       6
#    12  36  12  36  18  36
#     4  12  31  56  73  97 140 208 258 283 350 442
#     4  12  23  40  68 104 143 177 226 296 357 427
#     4  12  19  29  67 102 136 173 211 277 344 433
#     4  12  25  48  72 101 141 184 238 299 352 430
#     4  12  24  42  70 112 140 178 232 292 372 418
#     4  12  20  40  66 106 141 176 225 287 372 418
#
# _framework density 20.755153
#
# number of rings (size 3 to 8) (size 9 to 14) (size 15 to 20)
#    0.000    0.000    7.200    4.320    1.680    0.000 
#    4.320    2.400    0.000    0.000    0.000    0.000 
#    0.000    0.000    0.000    0.000    0.000    0.000 
#
# Total GULP energy -279004.504082 kJ/mol
# GULP energy per Si atom -5580.090082 kJ/mol
# Density = 2.070791 g / cm^3
# Si number density = 20.755153 Si / 1000 Ang^3
#
#
#
# Elastic Constant Matrix: (Units=GPa)
#
#
# Indices 1 2 3 4 5 6 
#
# 1 109.2430 52.0071 41.5166 -3.4260 -0.0001 0.0000
# 2 52.0071 109.2435 41.5170 3.4259 0.0000 0.0000
# 3 41.5166 41.5170 108.3255 0.0000 -0.0001 0.0000
# 4 -3.4260 3.4259 0.0000 26.6612 0.0000 0.0001
# 5 -0.0001 0.0000 -0.0001 0.0000 26.6611 -3.4261
# 6 0.0000 0.0000 0.0000 0.0001 -3.4261 28.6181
#
#
#
# Elastic Compliance Matrix: (Units=1/GPa)
#
#
# Indices 1 2 3 4 5 6 
#
# 1 0.012735 -0.005009 -0.002961 0.002280 0.000000 0.000000
# 2 -0.005009 0.012735 -0.002961 -0.002280 0.000000 0.000000
# 3 -0.002961 -0.002961 0.011501 0.000000 0.000000 0.000000
# 4 0.002280 -0.002280 0.000000 0.038094 0.000000 0.000000
# 5 0.000000 0.000000 0.000000 0.000000 0.038094 0.004560
# 6 0.000000 0.000000 0.000000 0.000000 0.004560 0.035489
#
#
# Mechanical properties :
#
#
# Convention : Reuss Voigt Hill
#
# Bulk Modulus (GPa) = 66.18497 66.32150 66.25323
# Shear Modulus (GPa) = 28.48227 29.17283 28.82755
#
# Velocity S-wave (km/s) = 3.70847 3.75316 3.73088
# Velocity P-wave (km/s) = 7.09188 7.12778 7.10985
#
# Compressibility (1/GPa) = 0.01510917
#
# Stress axis : x y z
#
# Youngs Moduli (GPa) = 78.52120 78.52142 86.94704
#
# Poissons Ratio (x) = 0.39332 0.25747
# Poissons Ratio (y) = 0.39331 0.25747
# Poissons Ratio (z) = 0.23252 0.23252
#
# Static dielectric constant tensor:
#      x y z
#    x 0.535980 0.000010 0.000000 
#    y 0.000010 0.536210 0.000000 
#    z 0.000000 0.000000 1.879260 
# 
# From -- ./inp_files/6967.got.cif
#   From: 2010.05.17/outbox.cif.g08.bks.cpg/sg167_4_cif.got.tgz:6967.got - 2010.05.20 11:09:15.
