data_PCOD9579846
_publ_section_title
;
Structure prediction by ZEFSAII (Michael W. Deem and Ramdas Pophale) SiO2 
 PCOD9579846
Probable space group: P 61
;
_chemical_formula_sum "Si O2"
_cell_formula_units_Z 36
_cell_length_a 12.664582
_cell_length_b 12.664582
_cell_length_c 10.538892
_cell_angle_alpha 90.000000
_cell_angle_beta 90.000000
_cell_angle_gamma 120.000000
_cell_volume 1463.886165
_symmetry_space_group_name_H-M "P 61"
_symmetry_group_IT_number 169
_symmetry_cell_setting 'hexagonal'
loop_
_space_group_symop_operation_xyz
x,y,z
x-y,x,1/6+z
-y,x-y,1/3+z
-x,-y,1/2+z
-x+y,-x,2/3+z
y,-x+y,5/6+z
loop_
_atom_site_type_symbol
_atom_site_label
_atom_site_fract_x
_atom_site_fract_y
_atom_site_fract_z
Si Si1 0.039904 0.659691 0.036030
Si Si2 0.317572 0.710908 0.283048
Si Si3 0.527405 0.659257 0.364886
Si Si4 0.802729 0.005846 0.254907
Si Si5 0.760650 0.130756 0.934365
Si Si6 0.461603 0.304837 0.194888
O O1 0.161985 0.785551 0.025070
O O2 0.962600 0.672438 0.149982
O O3 0.073478 0.555333 0.066455
O O4 0.981782 0.620074 0.896772
O O5 0.441246 0.719223 0.336360
O O6 0.253114 0.758292 0.380112
O O7 0.223040 0.567612 0.259215
O O8 0.331961 0.788839 0.158343
O O9 0.651114 0.725852 0.447799
O O10 0.587051 0.672625 0.223478
O O11 0.819457 0.930600 0.367043
O O12 0.726427 0.895184 0.152062
#
# Coordination Sequence:
#
# PCOD9579846 Si02
#       6
#     6   6   6   6   6   6
#     4  10  23  34  60  90 127 158 214 260 332 384
#     4  10  19  36  60  89 130 151 201 262 335 383
#     4  10  21  38  62  95 123 167 208 270 328 392
#     4  10  23  40  69  93 126 177 231 266 312 389
#     4  10  21  36  61  91 121 162 208 270 316 385
#     4  10  21  36  56  90 123 165 196 266 313 403
#
# _framework density 24.592075999999999
#
# number of rings (size 3 to 8) (size 9 to 14) (size 15 to 20)
#    0.000    2.000    1.667    1.000   18.667    0.000 
#    0.000    0.000    3.667    0.000    0.000    0.000 
#    0.000    0.000    0.000    0.000    0.000    0.000 
#
# Total GULP energy -201122.189505 kJ/mol
# GULP energy per Si atom -5586.727486 kJ/mol
# Density = 2.453610 g / cm^3
# Si number density = 24.592076 Si / 1000 Ang^3
#
#
#
# Elastic Constant Matrix: (Units=GPa)
#
#
# Indices 1 2 3 4 5 6 
#
# 1 104.3971 20.4357 -0.1930 0.0000 0.0000 0.0000
# 2 20.4357 104.3971 -0.1930 0.0000 0.0000 0.0000
# 3 -0.1930 -0.1930 36.5743 0.0000 0.0000 0.0000
# 4 0.0000 0.0000 0.0000 29.1286 0.0000 0.0000
# 5 0.0000 0.0000 0.0000 0.0000 29.1286 0.0000
# 6 0.0000 0.0000 0.0000 0.0000 0.0000 41.9807
#
#
#
# Elastic Compliance Matrix: (Units=1/GPa)
#
#
# Indices 1 2 3 4 5 6 
#
# 1 0.009961 -0.001950 0.000042 0.000000 0.000000 0.000000
# 2 -0.001950 0.009961 0.000042 0.000000 0.000000 0.000000
# 3 0.000042 0.000042 0.027342 0.000000 0.000000 0.000000
# 4 0.000000 0.000000 0.000000 0.034331 0.000000 0.000000
# 5 0.000000 0.000000 0.000000 0.000000 0.034331 0.000000
# 6 0.000000 0.000000 0.000000 0.000000 0.000000 0.023820
#
#
# Mechanical properties :
#
#
# Convention : Reuss Voigt Hill
#
# Bulk Modulus (GPa) = 22.97115 31.71864 27.34490
# Shear Modulus (GPa) = 31.64840 35.06884 33.35862
#
# Velocity S-wave (km/s) = 3.59128 3.78037 3.68704
# Velocity P-wave (km/s) = 5.15340 5.65516 5.41010
#
# Compressibility (1/GPa) = 0.04353287
#
# Stress axis : x y z
#
# Youngs Moduli (GPa) = 100.39621 100.39621 36.57368
#
# Poissons Ratio (x) = 0.19574 -0.00155
# Poissons Ratio (y) = 0.19574 -0.00155
# Poissons Ratio (z) = -0.00424 -0.00424
#
# Static dielectric constant tensor:
#      x y z
#    x 1.950720 0.000000 0.000000 
#    y 0.000000 1.950720 0.000000 
#    z 0.000000 0.000000 2.329350 
# 
# From -- ./inp_files/1167.got.cif
#   From: 2010.05.17/outbox.cif.g08.bks.cpg/sg169_cif.got.tgz:1167.got - 2010.05.20 11:12:54.
