data_PCOD9579851
_publ_section_title
;
Structure prediction by ZEFSAII (Michael W. Deem and Ramdas Pophale) SiO2 
 PCOD9579851
Probable space group: P 61
;
_chemical_formula_sum "Si O2"
_cell_formula_units_Z 36
_cell_length_a 14.421456
_cell_length_b 14.421456
_cell_length_c 8.506595
_cell_angle_alpha 90.000000
_cell_angle_beta 90.000000
_cell_angle_gamma 120.000000
_cell_volume 1532.161717
_symmetry_space_group_name_H-M "P 61"
_symmetry_group_IT_number 169
_symmetry_cell_setting 'hexagonal'
loop_
_space_group_symop_operation_xyz
x,y,z
x-y,x,1/6+z
-y,x-y,1/3+z
-x,-y,1/2+z
-x+y,-x,2/3+z
y,-x+y,5/6+z
loop_
_atom_site_type_symbol
_atom_site_label
_atom_site_fract_x
_atom_site_fract_y
_atom_site_fract_z
Si Si1 0.243711 0.447244 0.378450
Si Si2 0.271380 0.343530 0.846145
Si Si3 0.604673 0.491911 0.579954
Si Si4 0.861512 0.452888 0.702475
Si Si5 0.432035 0.295916 0.704982
Si Si6 0.220198 0.163268 0.115718
O O1 0.318832 0.455937 0.229742
O O2 0.202384 0.528827 0.338837
O O3 0.331267 0.500408 0.512873
O O4 0.140152 0.328644 0.375949
O O5 0.322098 0.459800 0.929496
O O6 0.163864 0.343006 0.806353
O O7 0.252222 0.250746 0.972998
O O8 0.353405 0.345205 0.723571
O O9 0.526355 0.540112 0.568650
O O10 0.530384 0.365565 0.590023
O O11 0.840283 0.505943 0.544012
O O12 0.131107 0.175191 0.212868
#
# Coordination Sequence:
#
# PCOD9579851 Si02
#       6
#     6   6   6   6   6   6
#     4  11  19  38  63  89 121 159 210 249 307 370
#     4  11  17  37  61  86 113 160 200 246 301 362
#     4  10  19  37  56  89 119 153 196 244 307 365
#     4  10  20  36  56  86 120 157 195 248 297 371
#     4  10  20  33  61  86 115 152 203 252 295 364
#     4  12  21  39  67  88 112 159 212 257 301 370
#
# _framework density 23.496216
#
# number of rings (size 3 to 8) (size 9 to 14) (size 15 to 20)
#    0.000    1.333    8.333    0.000    0.000    0.000 
#    6.000    3.333    0.000    0.000    0.000    0.000 
#    0.000    0.000    0.000    0.000    0.000    0.000 
#
# Total GULP energy -200754.650165 kJ/mol
# GULP energy per Si atom -5576.518060 kJ/mol
# Density = 2.344274 g / cm^3
# Si number density = 23.496216 Si / 1000 Ang^3
#
#
#
# Elastic Constant Matrix: (Units=GPa)
#
#
# Indices 1 2 3 4 5 6 
#
# 1 127.3030 -86.9015 1.2205 0.0000 0.0000 0.0000
# 2 -86.9015 127.3030 1.2205 0.0000 0.0000 0.0000
# 3 1.2205 1.2205 18.4715 0.0000 0.0000 0.0000
# 4 0.0000 0.0000 0.0000 11.3938 0.0000 0.0000
# 5 0.0000 0.0000 0.0000 0.0000 11.3938 0.0000
# 6 0.0000 0.0000 0.0000 0.0000 0.0000 107.1022
#
#
#
# Elastic Compliance Matrix: (Units=1/GPa)
#
#
# Indices 1 2 3 4 5 6 
#
# 1 0.014760 0.010091 -0.001642 0.000000 0.000000 0.000000
# 2 0.010091 0.014760 -0.001642 0.000000 0.000000 0.000000
# 3 -0.001642 -0.001642 0.054354 0.000000 0.000000 0.000000
# 4 0.000000 0.000000 0.000000 0.087767 0.000000 0.000000
# 5 0.000000 0.000000 0.000000 0.000000 0.087767 0.000000
# 6 0.000000 0.000000 0.000000 0.000000 0.000000 0.009337
#
#
# Mechanical properties :
#
#
# Convention : Reuss Voigt Hill
#
# Bulk Modulus (GPa) = 10.25770 11.57296 10.91533
# Shear Modulus (GPa) = 17.38364 49.81381 33.59872
#
# Velocity S-wave (km/s) = 2.72297 4.60943 3.78559
# Velocity P-wave (km/s) = 3.77640 5.76760 4.87475
#
# Compressibility (1/GPa) = 0.09748771
#
# Stress axis : x y z
#
# Youngs Moduli (GPa) = 67.75252 67.75252 18.39779
#
# Poissons Ratio (x) = -0.68370 0.03021
# Poissons Ratio (y) = -0.68370 0.03021
# Poissons Ratio (z) = 0.11125 0.11125
#
# Static dielectric constant tensor:
#      x y z
#    x 2.214370 0.000000 0.000000 
#    y 0.000000 2.214370 0.000000 
#    z 0.000000 0.000000 1.982150 
# 
# From -- ./inp_files/903.got.cif
#   From: 2010.05.17/outbox.cif.g08.bks.cpg/sg169_cif.got.tgz:903.got - 2010.05.20 11:12:54.
