data_PCOD9579363
_publ_section_title
;
Structure prediction by ZEFSAII (Michael W. Deem and Ramdas Pophale) SiO2 
 PCOD9579363
Probable space group: R -3 M
;
_chemical_formula_sum "Si O2"
_cell_formula_units_Z 72
_cell_length_a 27.000000
_cell_length_b 27.000000
_cell_length_c 21.000000
_cell_angle_alpha 90.000000
_cell_angle_beta 90.000000
_cell_angle_gamma 120.000000
_cell_volume 13257.982907
_symmetry_space_group_name_H-M "R -3 M"
_symmetry_group_IT_number 166
_symmetry_cell_setting 'hexagonal'
loop_
_space_group_symop_operation_xyz
x,y,z
-y,x-y,z
-x+y,-x,z
x-y,-y,-z
-x,-x+y,-z
y,x,-z
-x,-y,-z
y,-x+y,-z
x-y,x,-z
-x+y,y,z
x,x-y,z
-y,-x,z
2/3+x,1/3+y,1/3+z
2/3-y,1/3+x-y,1/3+z
2/3-x+y,1/3-x,1/3+z
2/3+x-y,1/3-y,1/3-z
2/3-x,1/3-x+y,1/3-z
2/3+y,1/3+x,1/3-z
2/3-x,1/3-y,1/3-z
2/3+y,1/3-x+y,1/3-z
2/3+x-y,1/3+x,1/3-z
2/3-x+y,1/3+y,1/3+z
2/3+x,1/3+x-y,1/3+z
2/3-y,1/3-x,1/3+z
1/3+x,2/3+y,2/3+z
1/3-y,2/3+x-y,2/3+z
1/3-x+y,2/3-x,2/3+z
1/3+x-y,2/3-y,2/3-z
1/3-x,2/3-x+y,2/3-z
1/3+y,2/3+x,2/3-z
1/3-x,2/3-y,2/3-z
1/3+y,2/3-x+y,2/3-z
1/3+x-y,2/3+x,2/3-z
1/3-x+y,2/3+y,2/3+z
1/3+x,2/3+x-y,2/3+z
1/3-y,2/3-x,2/3+z
loop_
_atom_site_type_symbol
_atom_site_label
_atom_site_fract_x
_atom_site_fract_y
_atom_site_fract_z
Si Si1 0.764674 0.641944 0.820133
Si Si2 0.875841 0.604070 0.687390
Si Si3 0.268972 0.426284 0.848688
Si Si4 0.503460 0.607652 0.889950
Si Si5 0.088880 0.351220 0.737272
Si Si6 0.724600 0.046859 0.390457
O O1 0.822317 0.644633 0.841598
O O2 0.739870 0.598967 0.760894
O O3 0.782467 0.705471 0.794776
O O4 0.725318 0.630946 0.879976
O O5 0.887739 0.666667 0.666667
O O6 0.837439 0.560783 0.633450
O O7 0.936175 0.606568 0.686967
O O8 0.221075 0.442150 0.862690
O O9 0.332163 0.477253 0.859338
O O10 0.260584 0.400012 0.778170
O O11 0.259432 0.374723 0.895903
O O12 0.443114 0.556887 0.867786
O O13 0.097330 0.349941 0.661602
O O14 0.035538 0.362565 0.742941
#
# Coordination Sequence:
#
# PCOD9579363 Si02
#       6
#    36  36  36  36  36  36
#     4  10  20  29  44  68  95 128 165 201 234 281
#     4  10  17  29  45  68  91 129 165 197 229 279
#     4  11  21  34  51  71  97 127 169 209 249 301
#     4  10  19  34  50  66  94 126 166 208 247 286
#     4  10  19  31  46  71  97 137 160 191 239 290
#     4  11  18  29  49  66 102 132 166 197 229 292
#
# _framework density 5.4306900000000002
#
# number of rings (size 3 to 8) (size 9 to 14) (size 15 to 20)
#    0.000    1.667    5.000    3.000    2.333    3.333 
#    0.000    0.000    0.000    0.333    0.000    0.000 
#    0.000    0.000    0.000    3.000    0.000    6.167 
#
# Total GULP energy -400975.212625 kJ/mol
# GULP energy per Si atom -5569.100175 kJ/mol
# Density = 0.541833 g / cm^3
# Si number density = 5.430690 Si / 1000 Ang^3
#
#
#
# Elastic Constant Matrix: (Units=GPa)
#
#
# Indices 1 2 3 4 5 6 
#
# 1 39.8140 35.9976 20.1188 1.0260 0.0000 0.0000
# 2 35.9976 39.8140 20.1188 -1.0260 0.0000 0.0000
# 3 20.1188 20.1188 71.4065 0.0000 0.0000 0.0000
# 4 1.0260 -1.0260 0.0000 5.2103 0.0000 0.0000
# 5 0.0000 0.0000 0.0000 0.0000 5.2103 1.0260
# 6 0.0000 0.0000 0.0000 0.0000 1.0260 1.9082
#
#
#
# Elastic Compliance Matrix: (Units=1/GPa)
#
#
# Indices 1 2 3 4 5 6 
#
# 1 0.154281 -0.138771 -0.004370 -0.057706 0.000002 0.000000
# 2 -0.138771 0.154281 -0.004370 0.057706 -0.000002 0.000000
# 3 -0.004370 -0.004370 0.016467 0.000000 0.000000 0.000000
# 4 -0.057706 0.057706 0.000000 0.214655 0.000000 -0.000004
# 5 0.000002 -0.000002 0.000000 0.000000 0.214655 -0.115413
# 6 0.000000 0.000000 0.000000 -0.000004 -0.115413 0.586103
#
#
# Mechanical properties :
#
#
# Convention : Reuss Voigt Hill
#
# Bulk Modulus (GPa) = 33.32558 33.72277 33.52418
# Shear Modulus (GPa) = 3.03866 7.45238 5.24552
#
# Velocity S-wave (km/s) = 1.36717 2.14107 1.79629
# Velocity P-wave (km/s) = 4.79497 5.18228 4.99238
#
# Compressibility (1/GPa) = 0.03000698
#
# Stress axis : x y z
#
# Youngs Moduli (GPa) = 6.48169 6.48169 60.72833
#
# Poissons Ratio (x) = 0.89947 0.26538
# Poissons Ratio (y) = 0.89947 0.26538
# Poissons Ratio (z) = 0.02832 0.02832
#
# Static dielectric constant tensor:
#      x y z
#    x 1.559150 0.000000 0.000000 
#    y 0.000000 1.559150 0.000000 
#    z 0.000000 0.000000 1.616520 
# 
# From -- ./inp_files/7145.got.cif
#   From: 2010.05.17/outbox.ucp.g08.bks.cvg/sg166_4_cif.got.tgz:7145.got - 2010.06.11 15:16:39.
