data_PCOD9579992
_publ_section_title
;
Structure prediction by ZEFSAII (Michael W. Deem and Ramdas Pophale) SiO2 
 PCOD9579992
Probable space group: P 61
;
_chemical_formula_sum "Si O2"
_cell_formula_units_Z 48
_cell_length_a 14.593059
_cell_length_b 14.593059
_cell_length_c 12.635898
_cell_angle_alpha 90.000000
_cell_angle_beta 90.000000
_cell_angle_gamma 120.000000
_cell_volume 2330.394356
_symmetry_space_group_name_H-M "P 61"
_symmetry_group_IT_number 169
_symmetry_cell_setting 'hexagonal'
loop_
_space_group_symop_operation_xyz
x,y,z
x-y,x,1/6+z
-y,x-y,1/3+z
-x,-y,1/2+z
-x+y,-x,2/3+z
y,-x+y,5/6+z
loop_
_atom_site_type_symbol
_atom_site_label
_atom_site_fract_x
_atom_site_fract_y
_atom_site_fract_z
Si Si1 0.084944 0.675796 0.978350
Si Si2 0.419209 0.683688 0.642933
Si Si3 0.474768 0.406125 0.702533
Si Si4 0.021646 0.849495 0.954925
Si Si5 0.926593 0.439152 0.692327
Si Si6 0.155597 0.006764 0.775839
Si Si7 0.742038 0.296071 0.008068
Si Si8 0.027213 0.649772 0.574169
O O1 0.213079 0.748115 0.975257
O O2 0.063084 0.580133 0.898923
O O3 0.022193 0.739065 0.963094
O O4 0.062532 0.620503 0.092271
O O5 0.412574 0.602842 0.553958
O O6 0.329611 0.710846 0.608141
O O7 0.381606 0.627019 0.755005
O O8 0.408898 0.438256 0.626740
O O9 0.501308 0.327126 0.638258
O O10 0.410417 0.356450 0.810435
O O11 0.106016 0.913886 0.862968
O O12 0.916434 0.844261 0.899117
O O13 0.989367 0.564052 0.667299
O O14 0.276131 0.037211 0.766139
O O15 0.096100 0.959129 0.664489
O O16 0.857977 0.326257 0.040507
#
# Coordination Sequence:
#
# PCOD9579992 Si02
#       8
#     6   6   6   6   6   6   6   6
#     4  10  23  38  65  99 128 167 216 255 321 391
#     4  11  21  39  60  92 129 172 203 251 319 380
#     4  10  23  38  58  93 135 170 212 261 317 381
#     4  10  23  44  72  98 124 165 219 283 335 387
#     4  11  22  39  61  95 132 168 213 261 311 380
#     4  10  22  41  70  97 124 163 221 279 330 384
#     4  11  22  39  60  88 132 168 206 256 320 381
#     4  11  22  38  64  94 124 171 220 260 315 390
#
# _framework density 20.597372
#
# number of rings (size 3 to 8) (size 9 to 14) (size 15 to 20)
#    0.000    1.500    2.500    2.250    5.250    0.000 
#    2.250    0.000   30.250    0.000    0.000    0.000 
#    0.000    0.000    0.000    0.000    0.000    0.000 
#
# Total GULP energy -267631.925795 kJ/mol
# GULP energy per Si atom -5575.665121 kJ/mol
# Density = 2.055049 g / cm^3
# Si number density = 20.597372 Si / 1000 Ang^3
#
#
#
# Elastic Constant Matrix: (Units=GPa)
#
#
# Indices 1 2 3 4 5 6 
#
# 1 53.2604 14.6200 10.3970 0.0000 0.0000 0.0000
# 2 14.6200 53.2604 10.3970 0.0000 0.0000 0.0000
# 3 10.3970 10.3970 60.5247 0.0000 0.0000 0.0000
# 4 0.0000 0.0000 0.0000 23.4224 0.0000 0.0000
# 5 0.0000 0.0000 0.0000 0.0000 23.4224 0.0000
# 6 0.0000 0.0000 0.0000 0.0000 0.0000 19.3202
#
#
#
# Elastic Compliance Matrix: (Units=1/GPa)
#
#
# Indices 1 2 3 4 5 6 
#
# 1 0.020715 -0.005165 -0.002671 0.000000 0.000000 0.000000
# 2 -0.005165 0.020715 -0.002671 0.000000 0.000000 0.000000
# 3 -0.002671 -0.002671 0.017440 0.000000 0.000000 0.000000
# 4 0.000000 0.000000 0.000000 0.042694 0.000000 0.000000
# 5 0.000000 0.000000 0.000000 0.000000 0.042694 0.000000
# 6 0.000000 0.000000 0.000000 0.000000 0.000000 0.051759
#
#
# Mechanical properties :
#
#
# Convention : Reuss Voigt Hill
#
# Bulk Modulus (GPa) = 26.41646 26.43041 26.42343
# Shear Modulus (GPa) = 21.77223 22.00841 21.89032
#
# Velocity S-wave (km/s) = 3.25474 3.27235 3.26356
# Velocity P-wave (km/s) = 5.19398 5.20936 5.20168
#
# Compressibility (1/GPa) = 0.03785519
#
# Stress axis : x y z
#
# Youngs Moduli (GPa) = 48.27450 48.27450 57.33976
#
# Poissons Ratio (x) = 0.24933 0.15317
# Poissons Ratio (y) = 0.24933 0.15317
# Poissons Ratio (z) = 0.12895 0.12895
#
# Static dielectric constant tensor:
#      x y z
#    x 1.771330 0.000000 0.000000 
#    y 0.000000 1.771330 0.000000 
#    z 0.000000 0.000000 1.750340 
# 
# From -- ./inp_files/1029.got.cif
#   From: 2010.05.17/outbox.cif.g08.bks.cpg/sg169_cif.got.tgz:1029.got - 2010.05.20 11:12:54.
