data_PCOD9579511
_publ_section_title
;
Structure prediction by ZEFSAII (Michael W. Deem and Ramdas Pophale) SiO2 
 PCOD9579511
Probable space group: R -3 C 
;
_chemical_formula_sum "Si O2"
_cell_formula_units_Z 162
_cell_length_a 22.525379
_cell_length_b 22.525379
_cell_length_c 15.405822
_cell_angle_alpha 90.000000
_cell_angle_beta 90.000000
_cell_angle_gamma 120.000000
_cell_volume 6769.548767
_symmetry_space_group_name_H-M "R -3 C "
_symmetry_group_IT_number 167
_symmetry_cell_setting 'hexagonal'
loop_
_space_group_symop_operation_xyz
x,y,z
-y,x-y,z
-x+y,-x,z
x-y,-y,1/2-z
-x,-x+y,1/2-z
y,x,1/2-z
-x,-y,-z
y,-x+y,-z
x-y,x,-z
-x+y,y,1/2+z
x,x-y,1/2+z
-y,-x,1/2+z
2/3+x,1/3+y,1/3+z
2/3-y,1/3+x-y,1/3+z
2/3-x+y,1/3-x,1/3+z
2/3+x-y,1/3-y,5/6-z
2/3-x,1/3-x+y,5/6-z
2/3+y,1/3+x,5/6-z
2/3-x,1/3-y,1/3-z
2/3+y,1/3-x+y,1/3-z
2/3+x-y,1/3+x,1/3-z
2/3-x+y,1/3+y,5/6+z
2/3+x,1/3+x-y,5/6+z
2/3-y,1/3-x,5/6+z
1/3+x,2/3+y,2/3+z
1/3-y,2/3+x-y,2/3+z
1/3-x+y,2/3-x,2/3+z
1/3+x-y,2/3-y,1/6-z
1/3-x,2/3-x+y,1/6-z
1/3+y,2/3+x,1/6-z
1/3-x,2/3-y,2/3-z
1/3+y,2/3-x+y,2/3-z
1/3+x-y,2/3+x,2/3-z
1/3-x+y,2/3+y,1/6+z
1/3+x,2/3+x-y,1/6+z
1/3-y,2/3-x,1/6+z
loop_
_atom_site_type_symbol
_atom_site_label
_atom_site_fract_x
_atom_site_fract_y
_atom_site_fract_z
Si Si1 0.044415 0.182150 0.174011
Si Si2 0.742562 0.792026 0.455328
Si Si3 0.225331 0.685243 0.126643
Si Si4 0.662810 0.792818 0.976631
Si Si5 0.675992 0.666667 0.916667
O O1 0.071331 0.142670 0.116158
O O2 0.109087 0.252335 0.205617
O O3 0.000000 0.134689 0.250000
O O4 0.995944 0.207952 0.125797
O O5 0.803915 0.821156 0.526129
O O6 0.715973 0.845940 0.449022
O O7 0.680428 0.723415 0.497623
O O8 0.277331 0.727712 0.206418
O O9 0.670034 0.735132 0.923369
O O10 0.666667 0.787106 0.083334
#
# Coordination Sequence:
#
# PCOD9579511 Si02
#       5
#    36  36  36  36  18
#     4  11  23  40  61  94 133 166 214 274 325 385
#     4  11  22  39  66  90 126 170 212 262 323 389
#     4  10  20  39  66  93 121 168 220 267 324 388
#     4  12  21  38  62  94 128 168 211 267 318 383
#     4  12  22  38  66  94 126 168 212 260 324 382
#
# _framework density 23.930693999999999
#
# number of rings (size 3 to 8) (size 9 to 14) (size 15 to 20)
#    0.000    0.889    6.667    1.556    0.000    0.889 
#    0.000    4.444    0.000    0.000    0.000    0.000 
#    0.000    0.000    0.000    0.000    0.000    0.000 
#
# Total GULP energy -301320.489727 kJ/mol
# GULP energy per Si atom -5580.009069 kJ/mol
# Density = 2.387623 g / cm^3
# Si number density = 23.930694 Si / 1000 Ang^3
#
#
#
# Elastic Constant Matrix: (Units=GPa)
#
#
# Indices 1 2 3 4 5 6 
#
# 1 88.8140 5.1107 3.3528 11.9544 0.0003 0.0000
# 2 5.1107 88.8140 3.3528 -11.9544 -0.0003 0.0000
# 3 3.3528 3.3528 45.0412 0.0000 0.0000 0.0000
# 4 11.9544 -11.9544 0.0000 28.0850 0.0000 -0.0003
# 5 0.0003 -0.0003 0.0000 0.0000 28.0850 11.9544
# 6 0.0000 0.0000 0.0000 -0.0003 11.9544 41.8516
#
#
#
# Elastic Compliance Matrix: (Units=1/GPa)
#
#
# Indices 1 2 3 4 5 6 
#
# 1 0.012152 -0.001448 -0.000797 -0.005789 0.000000 0.000000
# 2 -0.001448 0.012152 -0.000797 0.005789 0.000000 0.000000
# 3 -0.000797 -0.000797 0.022320 0.000000 0.000000 0.000000
# 4 -0.005789 0.005789 0.000000 0.040534 0.000000 0.000000
# 5 0.000000 0.000000 0.000000 0.000000 0.040534 -0.011578
# 6 0.000000 0.000000 0.000000 0.000000 -0.011578 0.027201
#
#
# Mechanical properties :
#
#
# Convention : Reuss Voigt Hill
#
# Bulk Modulus (GPa) = 24.66648 27.36687 26.01668
# Shear Modulus (GPa) = 28.65459 33.66120 31.15789
#
# Velocity S-wave (km/s) = 3.46410 3.75455 3.61225
# Velocity P-wave (km/s) = 5.13126 5.50057 5.31912
#
# Compressibility (1/GPa) = 0.04054084
#
# Stress axis : x y z
#
# Youngs Moduli (GPa) = 82.29010 82.29010 44.80187
#
# Poissons Ratio (x) = 0.11919 0.03570
# Poissons Ratio (y) = 0.11919 0.03570
# Poissons Ratio (z) = 0.06557 0.06557
#
# Static dielectric constant tensor:
#      x y z
#    x 1.910390 0.000000 0.000000 
#    y 0.000000 1.910390 0.000000 
#    z 0.000000 0.000000 2.012240 
# 
# From -- ./inp_files/3468.got.cif
#   From: 2010.05.17/outbox.cif.g08.bks.cpg/sg167_2_cif.got.tgz:3468.got - 2010.05.20 11:09:15.
