data_PCOD9579447
_publ_section_title
;
Structure prediction by ZEFSAII (Michael W. Deem and Ramdas Pophale) SiO2 
 PCOD9579447
Probable space group: R -3 C 
;
_chemical_formula_sum "Si O2"
_cell_formula_units_Z 204
_cell_length_a 19.901336
_cell_length_b 19.901336
_cell_length_c 32.285908
_cell_angle_alpha 90.000000
_cell_angle_beta 90.000000
_cell_angle_gamma 120.000000
_cell_volume 11074.091327
_symmetry_space_group_name_H-M "R -3 C "
_symmetry_group_IT_number 167
_symmetry_cell_setting 'hexagonal'
loop_
_space_group_symop_operation_xyz
x,y,z
-y,x-y,z
-x+y,-x,z
x-y,-y,1/2-z
-x,-x+y,1/2-z
y,x,1/2-z
-x,-y,-z
y,-x+y,-z
x-y,x,-z
-x+y,y,1/2+z
x,x-y,1/2+z
-y,-x,1/2+z
2/3+x,1/3+y,1/3+z
2/3-y,1/3+x-y,1/3+z
2/3-x+y,1/3-x,1/3+z
2/3+x-y,1/3-y,5/6-z
2/3-x,1/3-x+y,5/6-z
2/3+y,1/3+x,5/6-z
2/3-x,1/3-y,1/3-z
2/3+y,1/3-x+y,1/3-z
2/3+x-y,1/3+x,1/3-z
2/3-x+y,1/3+y,5/6+z
2/3+x,1/3+x-y,5/6+z
2/3-y,1/3-x,5/6+z
1/3+x,2/3+y,2/3+z
1/3-y,2/3+x-y,2/3+z
1/3-x+y,2/3-x,2/3+z
1/3+x-y,2/3-y,1/6-z
1/3-x,2/3-x+y,1/6-z
1/3+y,2/3+x,1/6-z
1/3-x,2/3-y,2/3-z
1/3+y,2/3-x+y,2/3-z
1/3+x-y,2/3+x,2/3-z
1/3-x+y,2/3+y,1/6+z
1/3+x,2/3+x-y,1/6+z
1/3-y,2/3-x,1/6+z
loop_
_atom_site_type_symbol
_atom_site_label
_atom_site_fract_x
_atom_site_fract_y
_atom_site_fract_z
Si Si1 0.352912 0.529523 0.718458
Si Si2 0.418206 0.028108 0.701958
Si Si3 0.666668 0.333334 0.885173
Si Si4 0.756743 0.033536 0.293584
Si Si5 0.821838 0.923162 0.144942
Si Si6 0.261206 0.136612 0.518585
Si Si7 0.666668 0.333334 0.182050
O O1 0.370710 0.615222 0.706235
O O2 0.378741 0.534493 0.765519
O O3 0.398087 0.506176 0.686106
O O4 0.261802 0.472055 0.713263
O O5 0.496219 0.110224 0.694036
O O6 0.413940 0.000000 0.750000
O O7 0.334081 0.019205 0.693667
O O8 0.431968 0.973006 0.670718
O O9 0.666668 0.333334 0.934669
O O10 0.822879 0.046838 0.326267
O O11 0.770226 0.120368 0.288937
O O12 0.764911 0.000000 0.250000
O O13 0.908991 0.956856 0.162003
#
# Coordination Sequence:
#
# PCOD9579447 Si02
#       7
#    36  36  12  36  36  36  12
#     4  11  20  34  54  87 119 158 196 234 298 361
#     4  10  19  35  58  85 119 158 193 239 297 358
#     4   9  21  28  49  85 127 142 182 238 286 361
#     4  10  23  39  58  86 121 158 204 254 305 346
#     4  10  22  40  64  85 121 158 206 245 301 366
#     4  11  20  33  55  86 120 158 195 237 288 362
#     4   9  21  42  62  86 108 154 203 259 300 344
#
# _framework density 18.421375999999999
#
# number of rings (size 3 to 8) (size 9 to 14) (size 15 to 20)
#    0.000    1.765    3.529    1.059    0.000    4.941 
#    0.000    4.412    0.000    4.235    0.000    0.000 
#    0.000    0.000    0.000    0.000    0.000    0.000 
#
# Total GULP energy -379166.386565 kJ/mol
# GULP energy per Si atom -5575.976273 kJ/mol
# Density = 1.837945 g / cm^3
# Si number density = 18.421376 Si / 1000 Ang^3
#
#
#
# Elastic Constant Matrix: (Units=GPa)
#
#
# Indices 1 2 3 4 5 6 
#
# 1 94.3503 54.5934 25.0128 5.1664 0.0000 0.0000
# 2 54.5934 94.3530 25.0161 -5.1658 0.0000 0.0000
# 3 25.0128 25.0161 45.7760 0.0005 0.0000 0.0000
# 4 5.1664 -5.1658 0.0005 20.4957 0.0000 0.0000
# 5 0.0000 0.0000 0.0000 0.0000 20.4944 5.1675
# 6 0.0000 0.0000 0.0000 0.0000 5.1675 19.8779
#
#
#
# Elastic Compliance Matrix: (Units=1/GPa)
#
#
# Indices 1 2 3 4 5 6 
#
# 1 0.017569 -0.009346 -0.004492 -0.006784 0.000000 0.000000
# 2 -0.009346 0.017569 -0.004495 0.006784 0.000000 0.000000
# 3 -0.004492 -0.004495 0.026757 -0.000001 0.000000 0.000000
# 4 -0.006784 0.006784 -0.000001 0.052211 0.000000 0.000000
# 5 0.000000 0.000000 0.000000 0.000000 0.052216 -0.013574
# 6 0.000000 0.000000 0.000000 0.000000 -0.013574 0.053836
#
#
# Mechanical properties :
#
#
# Convention : Reuss Voigt Hill
#
# Bulk Modulus (GPa) = 39.63753 49.30265 44.47009
# Shear Modulus (GPa) = 18.85129 20.83074 19.84101
#
# Velocity S-wave (km/s) = 3.20244 3.36637 3.28543
# Velocity P-wave (km/s) = 5.93616 6.47548 6.21168
#
# Compressibility (1/GPa) = 0.02522862
#
# Stress axis : x y z
#
# Youngs Moduli (GPa) = 56.91833 56.91766 37.37401
#
# Poissons Ratio (x) = 0.53195 0.16790
# Poissons Ratio (y) = 0.53195 0.16799
# Poissons Ratio (z) = 0.25571 0.25583
#
# Static dielectric constant tensor:
#      x y z
#    x 1.657080 0.000000 0.000000 
#    y 0.000000 1.657080 0.000000 
#    z 0.000000 0.000000 1.606840 
# 
# From -- ./inp_files/7141.got.cif
#   From: 2010.05.17/outbox.cif.g08.bks.cpg/sg167_4_cif.got.tgz:7141.got - 2010.05.20 11:09:15.
