data_PCOD9579725
_publ_section_title
;
Structure prediction by ZEFSAII (Michael W. Deem and Ramdas Pophale) SiO2 
 PCOD9579725
Probable space group: R -3 C 
;
_chemical_formula_sum "Si O2"
_cell_formula_units_Z 90
_cell_length_a 17.706161
_cell_length_b 17.706161
_cell_length_c 13.617466
_cell_angle_alpha 90.000000
_cell_angle_beta 90.000000
_cell_angle_gamma 120.000000
_cell_volume 3697.223877
_symmetry_space_group_name_H-M "R -3 C "
_symmetry_group_IT_number 167
_symmetry_cell_setting 'hexagonal'
loop_
_space_group_symop_operation_xyz
x,y,z
-y,x-y,z
-x+y,-x,z
x-y,-y,1/2-z
-x,-x+y,1/2-z
y,x,1/2-z
-x,-y,-z
y,-x+y,-z
x-y,x,-z
-x+y,y,1/2+z
x,x-y,1/2+z
-y,-x,1/2+z
2/3+x,1/3+y,1/3+z
2/3-y,1/3+x-y,1/3+z
2/3-x+y,1/3-x,1/3+z
2/3+x-y,1/3-y,5/6-z
2/3-x,1/3-x+y,5/6-z
2/3+y,1/3+x,5/6-z
2/3-x,1/3-y,1/3-z
2/3+y,1/3-x+y,1/3-z
2/3+x-y,1/3+x,1/3-z
2/3-x+y,1/3+y,5/6+z
2/3+x,1/3+x-y,5/6+z
2/3-y,1/3-x,5/6+z
1/3+x,2/3+y,2/3+z
1/3-y,2/3+x-y,2/3+z
1/3-x+y,2/3-x,2/3+z
1/3+x-y,2/3-y,1/6-z
1/3-x,2/3-x+y,1/6-z
1/3+y,2/3+x,1/6-z
1/3-x,2/3-y,2/3-z
1/3+y,2/3-x+y,2/3-z
1/3+x-y,2/3+x,2/3-z
1/3-x+y,2/3+y,1/6+z
1/3+x,2/3+x-y,1/6+z
1/3-y,2/3-x,1/6+z
loop_
_atom_site_type_symbol
_atom_site_label
_atom_site_fract_x
_atom_site_fract_y
_atom_site_fract_z
Si Si1 0.462835 0.000000 0.750000
Si Si2 0.768680 0.229137 0.589033
Si Si3 0.710765 0.517400 0.301796
O O1 0.533005 0.052275 0.661899
O O2 0.449962 0.072358 0.803956
O O3 0.830370 0.333334 0.583334
O O4 0.666667 0.201904 0.583334
O O5 0.762705 0.201347 0.702505
O O6 0.768571 0.486859 0.364137
#
# Coordination Sequence:
#
# PCOD9579725 Si02
#       3
#    18  36  36
#     4  12  26  44  68 106 148 188 230 308 366 458
#     4  12  24  48  76 107 144 191 257 309 365 432
#     4  12  24  48  74 105 140 193 254 310 366 432
#
# _framework density 24.342587999999999
#
# number of rings (size 3 to 8) (size 9 to 14) (size 15 to 20)
#    0.000    0.000    8.000    2.000    0.000    0.000 
#    7.200    0.000    0.000    0.000    0.000    0.000 
#    0.000    0.000    0.000    0.000    0.000    0.000 
#
# Total GULP energy -167003.594716 kJ/mol
# GULP energy per Si atom -5566.786491 kJ/mol
# Density = 2.428718 g / cm^3
# Si number density = 24.342588 Si / 1000 Ang^3
#
#
#
# Elastic Constant Matrix: (Units=GPa)
#
#
# Indices 1 2 3 4 5 6 
#
# 1 77.4792 28.3321 38.2955 1.4614 -0.0002 0.0000
# 2 28.3321 77.4792 38.2955 -1.4614 0.0002 0.0000
# 3 38.2955 38.2955 162.9465 0.0000 0.0000 0.0000
# 4 1.4614 -1.4614 0.0000 43.7971 0.0000 0.0002
# 5 -0.0002 0.0002 0.0000 0.0000 43.7971 1.4614
# 6 0.0000 0.0000 0.0000 0.0002 1.4614 24.5735
#
#
#
# Elastic Compliance Matrix: (Units=1/GPa)
#
#
# Indices 1 2 3 4 5 6 
#
# 1 0.015888 -0.004500 -0.002676 -0.000680 0.000000 0.000000
# 2 -0.004500 0.015888 -0.002676 0.000680 0.000000 0.000000
# 3 -0.002676 -0.002676 0.007395 0.000000 0.000000 0.000000
# 4 -0.000680 0.000680 0.000000 0.022878 0.000000 0.000000
# 5 0.000000 0.000000 0.000000 0.000000 0.022878 -0.001361
# 6 0.000000 0.000000 0.000000 0.000000 -0.001361 0.040775
#
#
# Mechanical properties :
#
#
# Convention : Reuss Voigt Hill
#
# Bulk Modulus (GPa) = 51.37288 58.63903 55.00596
# Shear Modulus (GPa) = 32.91739 36.63232 34.77485
#
# Velocity S-wave (km/s) = 3.68129 3.88347 3.78373
# Velocity P-wave (km/s) = 6.26252 6.65205 6.46022
#
# Compressibility (1/GPa) = 0.01946552
#
# Stress axis : x y z
#
# Youngs Moduli (GPa) = 62.94122 62.94122 135.22642
#
# Poissons Ratio (x) = 0.28322 0.36192
# Poissons Ratio (y) = 0.28322 0.36192
# Poissons Ratio (z) = 0.16846 0.16846
#
# Static dielectric constant tensor:
#      x y z
#    x 1.894220 0.000000 0.000000 
#    y 0.000000 1.894220 0.000000 
#    z 0.000000 0.000000 2.220040 
# 
# From -- ./inp_files/2000.got.cif
#   From: 2010.05.17/outbox.cif.g08.bks.cpg/sg167_1_cif.got.tgz:2000.got - 2010.05.20 11:09:15.
