data_PCOD9579528
_publ_section_title
;
Structure prediction by ZEFSAII (Michael W. Deem and Ramdas Pophale) SiO2 
 PCOD9579528
Probable space group: R -3 C 
;
_chemical_formula_sum "Si O2"
_cell_formula_units_Z 72
_cell_length_a 23.026510
_cell_length_b 23.026510
_cell_length_c 8.011468
_cell_angle_alpha 90.000000
_cell_angle_beta 90.000000
_cell_angle_gamma 120.000000
_cell_volume 3678.738968
_symmetry_space_group_name_H-M "R -3 C "
_symmetry_group_IT_number 167
_symmetry_cell_setting 'hexagonal'
loop_
_space_group_symop_operation_xyz
x,y,z
-y,x-y,z
-x+y,-x,z
x-y,-y,1/2-z
-x,-x+y,1/2-z
y,x,1/2-z
-x,-y,-z
y,-x+y,-z
x-y,x,-z
-x+y,y,1/2+z
x,x-y,1/2+z
-y,-x,1/2+z
2/3+x,1/3+y,1/3+z
2/3-y,1/3+x-y,1/3+z
2/3-x+y,1/3-x,1/3+z
2/3+x-y,1/3-y,5/6-z
2/3-x,1/3-x+y,5/6-z
2/3+y,1/3+x,5/6-z
2/3-x,1/3-y,1/3-z
2/3+y,1/3-x+y,1/3-z
2/3+x-y,1/3+x,1/3-z
2/3-x+y,1/3+y,5/6+z
2/3+x,1/3+x-y,5/6+z
2/3-y,1/3-x,5/6+z
1/3+x,2/3+y,2/3+z
1/3-y,2/3+x-y,2/3+z
1/3-x+y,2/3-x,2/3+z
1/3+x-y,2/3-y,1/6-z
1/3-x,2/3-x+y,1/6-z
1/3+y,2/3+x,1/6-z
1/3-x,2/3-y,2/3-z
1/3+y,2/3-x+y,2/3-z
1/3+x-y,2/3+x,2/3-z
1/3-x+y,2/3+y,1/6+z
1/3+x,2/3+x-y,1/6+z
1/3-y,2/3-x,1/6+z
loop_
_atom_site_type_symbol
_atom_site_label
_atom_site_fract_x
_atom_site_fract_y
_atom_site_fract_z
Si Si1 0.212684 0.282731 0.828313
Si Si2 0.574942 0.835963 0.958235
O O1 0.264186 0.264186 0.750000
O O2 0.246156 0.363177 0.834127
O O3 0.142380 0.242898 0.728318
O O4 0.194700 0.261010 0.019947
O O5 0.511510 0.844843 0.916667
#
# Coordination Sequence:
#
# PCOD9579528 Si02
#       2
#    36  36
#     4  10  21  35  55  79 111 144 183 224 272 324
#     4  10  21  35  54  80 109 146 182 224 272 323
#
# _framework density 19.571923999999999
#
# number of rings (size 3 to 8) (size 9 to 14) (size 15 to 20)
#    0.000    2.000    0.000    3.000    7.000    4.000 
#    0.000    0.000    0.000    1.000    0.000    7.000 
#    0.000    0.000    0.000    0.000    0.000    0.000 
#
# Total GULP energy -133950.492617 kJ/mol
# GULP energy per Si atom -5581.270526 kJ/mol
# Density = 1.952738 g / cm^3
# Si number density = 19.571924 Si / 1000 Ang^3
#
#
#
# Elastic Constant Matrix: (Units=GPa)
#
#
# Indices 1 2 3 4 5 6 
#
# 1 47.1241 -4.8478 2.7010 8.5820 -0.0054 0.0016
# 2 -4.8478 47.1284 2.6993 -8.5872 -0.0050 0.0014
# 3 2.7010 2.6993 53.8406 -0.0037 -0.0098 0.0049
# 4 8.5820 -8.5872 -0.0037 25.5723 -0.0042 0.0017
# 5 -0.0054 -0.0050 -0.0098 -0.0042 25.5654 8.5880
# 6 0.0016 0.0014 0.0049 0.0017 8.5880 25.9864
#
#
#
# Elastic Compliance Matrix: (Units=1/GPa)
#
#
# Indices 1 2 3 4 5 6 
#
# 1 0.022723 0.001083 -0.001195 -0.007262 0.000004 -0.000002
# 2 0.001083 0.022722 -0.001193 0.007267 0.000007 -0.000004
# 3 -0.001195 -0.001193 0.018693 0.000003 0.000009 -0.000006
# 4 -0.007262 0.007267 0.000003 0.043982 0.000009 -0.000006
# 5 0.000004 0.000007 0.000009 0.000009 0.044000 -0.014541
# 6 -0.000002 -0.000004 -0.000006 -0.000006 -0.014541 0.043287
#
#
# Mechanical properties :
#
#
# Convention : Reuss Voigt Hill
#
# Bulk Modulus (GPa) = 16.25275 16.57759 16.41517
# Shear Modulus (GPa) = 22.88039 25.26085 24.07062
#
# Velocity S-wave (km/s) = 3.42283 3.59648 3.51073
# Velocity P-wave (km/s) = 4.89318 5.07294 4.98387
#
# Compressibility (1/GPa) = 0.06152804
#
# Stress axis : x y z
#
# Youngs Moduli (GPa) = 44.00825 44.00953 53.49566
#
# Poissons Ratio (x) = -0.04764 0.06391
# Poissons Ratio (y) = -0.04764 0.06382
# Poissons Ratio (z) = 0.05258 0.05250
#
# Static dielectric constant tensor:
#      x y z
#    x 1.705040 0.000000 0.000000 
#    y 0.000000 1.705040 0.000000 
#    z 0.000000 0.000000 1.698900 
# 
# From -- ./inp_files/327.got.cif
#   From: 2010.05.17/outbox.cif.g08.bks.cpg/sg167_1_cif.got.tgz:327.got - 2010.05.20 11:09:15.
