data_PCOD9579343
_publ_section_title
;
Structure prediction by ZEFSAII (Michael W. Deem and Ramdas Pophale) SiO2 
 PCOD9579343
Probable space group: R -3 M
;
_chemical_formula_sum "Si O2"
_cell_formula_units_Z 234
_cell_length_a 25.047671
_cell_length_b 25.047671
_cell_length_c 23.270341
_cell_angle_alpha 90.000000
_cell_angle_beta 90.000000
_cell_angle_gamma 120.000000
_cell_volume 12643.522319
_symmetry_space_group_name_H-M "R -3 M"
_symmetry_group_IT_number 166
_symmetry_cell_setting 'hexagonal'
loop_
_space_group_symop_operation_xyz
x,y,z
-y,x-y,z
-x+y,-x,z
x-y,-y,-z
-x,-x+y,-z
y,x,-z
-x,-y,-z
y,-x+y,-z
x-y,x,-z
-x+y,y,z
x,x-y,z
-y,-x,z
2/3+x,1/3+y,1/3+z
2/3-y,1/3+x-y,1/3+z
2/3-x+y,1/3-x,1/3+z
2/3+x-y,1/3-y,1/3-z
2/3-x,1/3-x+y,1/3-z
2/3+y,1/3+x,1/3-z
2/3-x,1/3-y,1/3-z
2/3+y,1/3-x+y,1/3-z
2/3+x-y,1/3+x,1/3-z
2/3-x+y,1/3+y,1/3+z
2/3+x,1/3+x-y,1/3+z
2/3-y,1/3-x,1/3+z
1/3+x,2/3+y,2/3+z
1/3-y,2/3+x-y,2/3+z
1/3-x+y,2/3-x,2/3+z
1/3+x-y,2/3-y,2/3-z
1/3-x,2/3-x+y,2/3-z
1/3+y,2/3+x,2/3-z
1/3-x,2/3-y,2/3-z
1/3+y,2/3-x+y,2/3-z
1/3+x-y,2/3+x,2/3-z
1/3-x+y,2/3+y,2/3+z
1/3+x,2/3+x-y,2/3+z
1/3-y,2/3-x,2/3+z
loop_
_atom_site_type_symbol
_atom_site_label
_atom_site_fract_x
_atom_site_fract_y
_atom_site_fract_z
Si Si1 0.349092 0.174546 0.308141
Si Si2 0.546203 0.453798 0.474254
Si Si3 0.373175 0.248293 0.576378
Si Si4 0.985373 0.767169 0.567445
Si Si5 0.635615 0.484930 0.008870
Si Si6 0.065418 0.720955 0.625767
Si Si7 0.227489 0.772512 0.943103
Si Si8 0.928721 0.575783 0.482240
O O1 0.371734 0.185867 0.241881
O O2 0.367875 0.238672 0.340046
O O3 0.275476 0.137738 0.310612
O O4 0.548549 0.451452 0.544080
O O5 0.495726 0.382879 0.465638
O O6 0.378525 0.189263 0.557640
O O7 0.301437 0.227805 0.574230
O O8 0.413225 0.272700 0.634656
O O9 0.406406 0.306323 0.534410
O O10 0.975738 0.813957 0.607017
O O11 0.000000 0.782188 0.500000
O O12 0.040552 0.763332 0.599386
O O13 0.585095 0.414905 0.022830
O O14 0.700665 0.507665 0.039920
O O15 0.016191 0.666667 0.666667
O O16 0.070191 0.685017 0.571540
O O17 0.000000 0.596203 0.500000
#
# Coordination Sequence:
#
# PCOD9579343 Si02
#       8
#    18  18  36  36  36  36  18  36
#     4  12  25  38  60  94 129 168 207 246 306 380
#     4  12  25  38  62  92 120 165 203 248 306 361
#     4  11  22  38  62  88 123 159 198 252 303 365
#     4  12  23  39  60  88 125 165 202 249 297 374
#     4  11  25  44  63  88 118 160 207 260 320 364
#     4  12  23  36  58  86 128 169 207 248 296 360
#     4  12  23  42  70  90 122 154 208 267 311 386
#     4  12  22  38  57  87 124 162 206 246 293 359
#
# _framework density 18.507501000000001
#
# number of rings (size 3 to 8) (size 9 to 14) (size 15 to 20)
#    0.000    0.308    7.692    3.231    1.077    1.231 
#    4.615    0.000    0.000    0.000    0.000    0.538 
#    0.000    0.000    0.000    3.692    0.000    0.000 
#
# Total GULP energy -434634.166262 kJ/mol
# GULP energy per Si atom -5572.232901 kJ/mol
# Density = 1.846538 g / cm^3
# Si number density = 18.507501 Si / 1000 Ang^3
#
#
#
# Elastic Constant Matrix: (Units=GPa)
#
#
# Indices 1 2 3 4 5 6 
#
# 1 4.4428 51.8364 31.8112 -1.7031 0.0005 0.0000
# 2 51.8364 4.4428 31.8112 1.7031 -0.0005 0.0000
# 3 31.8112 31.8112 114.2296 0.0000 0.0000 0.0000
# 4 -1.7031 1.7031 0.0000 14.8683 0.0000 -0.0005
# 5 0.0005 -0.0005 0.0000 0.0000 14.8683 -1.7031
# 6 0.0000 0.0000 0.0000 -0.0005 -1.7031 -23.6968
#
#
#
# Elastic Compliance Matrix: (Units=1/GPa)
#
#
# Indices 1 2 3 4 5 6 
#
# 1 0.002503 0.023430 -0.007222 -0.002397 0.000001 0.000000
# 2 0.023430 0.002503 -0.007222 0.002397 -0.000001 0.000000
# 3 -0.007222 -0.007222 0.012777 0.000000 0.000000 0.000000
# 4 -0.002397 0.002397 0.000000 0.066708 0.000000 -0.000001
# 5 0.000001 -0.000001 0.000000 0.000000 0.066708 -0.004794
# 6 0.000000 0.000000 0.000000 -0.000001 -0.004794 -0.041855
#
#
# Mechanical properties :
#
#
# Convention : Reuss Voigt Hill
#
# Bulk Modulus (GPa) = 27.96836 39.33697 33.65267
# Shear Modulus (GPa) = 48.40827 1.71837 25.06332
#
# Velocity S-wave (km/s) = 5.11984 0.96462 3.68397
# Velocity P-wave (km/s) = 7.07779 4.74778 6.02646
#
# Compressibility (1/GPa) = 0.03575469
#
# Stress axis : x y z
#
# Youngs Moduli (GPa) = 399.58398 399.58398 78.26757
#
# Poissons Ratio (x) = -9.36233 0.56524
# Poissons Ratio (y) = -9.36233 0.56524
# Poissons Ratio (z) = 2.88576 2.88576
#
# Static dielectric constant tensor:
#      x y z
#    x 1.658390 0.000000 0.000000 
#    y 0.000000 1.658390 0.000000 
#    z 0.000000 0.000000 1.692670 
# 
# From -- ./inp_files/7272.got.cif
#   From: 2010.05.17/outbox.cif.g08.bks.cpg/sg166_4_cif.got.tgz:7272.got - 2010.05.20 11:04:41.
