data_PCOD9579297
_publ_section_title
;
Structure prediction by ZEFSAII (Michael W. Deem and Ramdas Pophale) SiO2 
 PCOD9579297
Probable space group: R -3 M
;
_chemical_formula_sum "Si O2"
_cell_formula_units_Z 135
_cell_length_a 25.722539
_cell_length_b 25.722539
_cell_length_c 11.866460
_cell_angle_alpha 90.000000
_cell_angle_beta 90.000000
_cell_angle_gamma 120.000000
_cell_volume 6799.539172
_symmetry_space_group_name_H-M "R -3 M"
_symmetry_group_IT_number 166
_symmetry_cell_setting 'hexagonal'
loop_
_space_group_symop_operation_xyz
x,y,z
-y,x-y,z
-x+y,-x,z
x-y,-y,-z
-x,-x+y,-z
y,x,-z
-x,-y,-z
y,-x+y,-z
x-y,x,-z
-x+y,y,z
x,x-y,z
-y,-x,z
2/3+x,1/3+y,1/3+z
2/3-y,1/3+x-y,1/3+z
2/3-x+y,1/3-x,1/3+z
2/3+x-y,1/3-y,1/3-z
2/3-x,1/3-x+y,1/3-z
2/3+y,1/3+x,1/3-z
2/3-x,1/3-y,1/3-z
2/3+y,1/3-x+y,1/3-z
2/3+x-y,1/3+x,1/3-z
2/3-x+y,1/3+y,1/3+z
2/3+x,1/3+x-y,1/3+z
2/3-y,1/3-x,1/3+z
1/3+x,2/3+y,2/3+z
1/3-y,2/3+x-y,2/3+z
1/3-x+y,2/3-x,2/3+z
1/3+x-y,2/3-y,2/3-z
1/3-x,2/3-x+y,2/3-z
1/3+y,2/3+x,2/3-z
1/3-x,2/3-y,2/3-z
1/3+y,2/3-x+y,2/3-z
1/3+x-y,2/3+x,2/3-z
1/3-x+y,2/3+y,2/3+z
1/3+x,2/3+x-y,2/3+z
1/3-y,2/3-x,2/3+z
loop_
_atom_site_type_symbol
_atom_site_label
_atom_site_fract_x
_atom_site_fract_y
_atom_site_fract_z
Si Si1 0.546156 0.574199 0.874652
Si Si2 0.158638 0.727339 0.099712
Si Si3 0.297685 0.857804 0.838718
Si Si4 0.166668 0.833334 0.833334
Si Si5 0.879932 0.000000 0.000000
O O1 0.474662 0.525339 0.872960
O O2 0.577231 0.550072 0.788133
O O3 0.563115 0.641196 0.843943
O O4 0.569097 0.569097 0.000000
O O5 0.223426 0.776575 0.144295
O O6 0.132377 0.666667 0.166667
O O7 0.162265 0.717450 0.968460
O O8 0.236963 0.854712 0.796121
O O9 0.312651 0.814602 0.766617
O O10 0.886933 0.943467 0.033332
#
# Coordination Sequence:
#
# PCOD9579297 Si02
#       5
#    36  36  36   9  18
#     4  10  22  40  67 102 138 179 225 271 343 429
#     4  11  23  42  66  98 135 172 220 278 346 424
#     4  12  26  43  66  99 140 184 228 288 356 424
#     4  12  28  44  60  98 146 184 222 280 348 438
#     4  12  27  50  74 100 132 188 255 316 364 418
#
# _framework density 19.854285999999998
#
# number of rings (size 3 to 8) (size 9 to 14) (size 15 to 20)
#    0.000    0.800    5.333    0.933    5.600    1.067 
#    0.000    0.000    0.000    0.267    0.000    0.000 
#    0.000    0.000    0.000    0.000    0.000    0.000 
#
# Total GULP energy -250785.924917 kJ/mol
# GULP energy per Si atom -5573.020554 kJ/mol
# Density = 1.980910 g / cm^3
# Si number density = 19.854286 Si / 1000 Ang^3
#
#
#
# Elastic Constant Matrix: (Units=GPa)
#
#
# Indices 1 2 3 4 5 6 
#
# 1 181.0060 76.4019 27.4084 21.8952 -0.0042 -0.0006
# 2 76.4019 181.0070 27.4103 -21.8962 0.0049 0.0008
# 3 27.4084 27.4103 76.9181 -0.0020 0.0019 0.0006
# 4 21.8952 -21.8962 -0.0020 47.8657 -0.0027 0.0019
# 5 -0.0042 0.0049 0.0019 -0.0027 47.8640 21.8944
# 6 -0.0006 0.0008 0.0006 0.0019 21.8944 52.3016
#
#
#
# Elastic Compliance Matrix: (Units=1/GPa)
#
#
# Indices 1 2 3 4 5 6 
#
# 1 0.008014 -0.003810 -0.001498 -0.005409 0.000001 0.000000
# 2 -0.003810 0.008014 -0.001498 0.005409 -0.000001 0.000000
# 3 -0.001498 -0.001498 0.014068 0.000001 -0.000001 0.000000
# 4 -0.005409 0.005409 0.000001 0.025840 0.000001 -0.000002
# 5 0.000001 -0.000001 -0.000001 0.000001 0.025841 -0.010817
# 6 0.000000 0.000000 0.000000 -0.000002 -0.010817 0.023648
#
#
# Mechanical properties :
#
#
# Convention : Reuss Voigt Hill
#
# Bulk Modulus (GPa) = 60.66441 77.93028 69.29734
# Shear Modulus (GPa) = 40.15005 50.12029 45.13517
#
# Velocity S-wave (km/s) = 4.50181 5.02980 4.77311
# Velocity P-wave (km/s) = 7.59229 8.54799 8.08427
#
# Compressibility (1/GPa) = 0.01648413
#
# Stress axis : x y z
#
# Youngs Moduli (GPa) = 124.78129 124.78128 71.08086
#
# Poissons Ratio (x) = 0.47543 0.10648
# Poissons Ratio (y) = 0.47543 0.10648
# Poissons Ratio (z) = 0.18693 0.18693
#
# Static dielectric constant tensor:
#      x y z
#    x 1.725510 0.000000 0.000000 
#    y 0.000000 1.725510 0.000000 
#    z 0.000000 0.000000 1.731570 
# 
# From -- ./inp_files/2982.got.cif
#   From: 2010.05.17/outbox.cif.g08.bks.cpg/sg166_2_cif.got.tgz:2982.got - 2010.05.20 11:04:41.
