data_PCOD9579637
_publ_section_title
;
Structure prediction by ZEFSAII (Michael W. Deem and Ramdas Pophale) SiO2 
 PCOD9579637
Probable space group: R -3 C 
;
_chemical_formula_sum "Si O2"
_cell_formula_units_Z 126
_cell_length_a 20.612331
_cell_length_b 20.612331
_cell_length_c 16.652230
_cell_angle_alpha 90.000000
_cell_angle_beta 90.000000
_cell_angle_gamma 120.000000
_cell_volume 6127.132163
_symmetry_space_group_name_H-M "R -3 C "
_symmetry_group_IT_number 167
_symmetry_cell_setting 'hexagonal'
loop_
_space_group_symop_operation_xyz
x,y,z
-y,x-y,z
-x+y,-x,z
x-y,-y,1/2-z
-x,-x+y,1/2-z
y,x,1/2-z
-x,-y,-z
y,-x+y,-z
x-y,x,-z
-x+y,y,1/2+z
x,x-y,1/2+z
-y,-x,1/2+z
2/3+x,1/3+y,1/3+z
2/3-y,1/3+x-y,1/3+z
2/3-x+y,1/3-x,1/3+z
2/3+x-y,1/3-y,5/6-z
2/3-x,1/3-x+y,5/6-z
2/3+y,1/3+x,5/6-z
2/3-x,1/3-y,1/3-z
2/3+y,1/3-x+y,1/3-z
2/3+x-y,1/3+x,1/3-z
2/3-x+y,1/3+y,5/6+z
2/3+x,1/3+x-y,5/6+z
2/3-y,1/3-x,5/6+z
1/3+x,2/3+y,2/3+z
1/3-y,2/3+x-y,2/3+z
1/3-x+y,2/3-x,2/3+z
1/3+x-y,2/3-y,1/6-z
1/3-x,2/3-x+y,1/6-z
1/3+y,2/3+x,1/6-z
1/3-x,2/3-y,2/3-z
1/3+y,2/3-x+y,2/3-z
1/3+x-y,2/3+x,2/3-z
1/3-x+y,2/3+y,1/6+z
1/3+x,2/3+x-y,1/6+z
1/3-y,2/3-x,1/6+z
loop_
_atom_site_type_symbol
_atom_site_label
_atom_site_fract_x
_atom_site_fract_y
_atom_site_fract_z
Si Si1 0.197705 0.696148 0.154592
Si Si2 0.666667 0.561881 0.583334
Si Si3 0.943856 0.247720 0.095338
Si Si4 0.733993 0.859401 0.648430
O O1 0.281370 0.759533 0.178242
O O2 0.140098 0.700344 0.216282
O O3 0.181469 0.720988 0.068810
O O4 0.610743 0.572247 0.524199
O O5 0.607873 0.499028 0.643878
O O6 0.005729 0.333334 0.083334
O O7 0.868074 0.232050 0.052213
O O8 0.666667 0.841673 0.583334
#
# Coordination Sequence:
#
# PCOD9579637 Si02
#       4
#    36  18  36  36
#     4  11  24  47  74  98 141 191 240 287 352 433
#     4  12  22  42  68 104 140 188 232 298 360 416
#     4  11  26  42  72 105 142 180 233 300 360 419
#     4  10  24  43  66 105 142 186 236 291 355 422
#
# _framework density 20.56427
#
# number of rings (size 3 to 8) (size 9 to 14) (size 15 to 20)
#    0.000    1.143    2.857    2.000   10.000    2.286 
#    0.000    0.000    0.000    0.000    0.000    0.000 
#    0.000    0.000    0.000    0.000    0.000    0.000 
#
# Total GULP energy -234457.525255 kJ/mol
# GULP energy per Si atom -5582.322030 kJ/mol
# Density = 2.051746 g / cm^3
# Si number density = 20.564270 Si / 1000 Ang^3
#
#
#
# Elastic Constant Matrix: (Units=GPa)
#
#
# Indices 1 2 3 4 5 6 
#
# 1 111.8530 80.2819 43.4796 -7.7826 0.0007 0.0000
# 2 80.2819 111.8530 43.4796 7.7826 -0.0007 0.0000
# 3 43.4796 43.4796 146.8363 0.0000 0.0000 0.0000
# 4 -7.7826 7.7826 0.0000 37.7679 0.0000 -0.0007
# 5 0.0007 -0.0007 0.0000 0.0000 37.7679 -7.7826
# 6 0.0000 0.0000 0.0000 -0.0007 -7.7826 15.7855
#
#
#
# Elastic Compliance Matrix: (Units=1/GPa)
#
#
# Indices 1 2 3 4 5 6 
#
# 1 0.020633 -0.014623 -0.001780 0.007265 -0.000001 0.000000
# 2 -0.014623 0.020633 -0.001780 -0.007265 0.000001 0.000000
# 3 -0.001780 -0.001780 0.007864 0.000000 0.000000 0.000000
# 4 0.007265 -0.007265 0.000000 0.029472 0.000000 0.000001
# 5 -0.000001 0.000001 0.000000 0.000000 0.029472 0.014530
# 6 0.000000 0.000000 0.000000 0.000001 0.014530 0.070513
#
#
# Mechanical properties :
#
#
# Convention : Reuss Voigt Hill
#
# Bulk Modulus (GPa) = 78.33369 78.33605 78.33487
# Shear Modulus (GPa) = 22.80947 31.81768 27.31357
#
# Velocity S-wave (km/s) = 3.33405 3.93775 3.64841
# Velocity P-wave (km/s) = 7.27983 7.67141 7.47819
#
# Compressibility (1/GPa) = 0.01276590
#
# Stress axis : x y z
#
# Youngs Moduli (GPa) = 48.46540 48.46540 127.15776
#
# Poissons Ratio (x) = 0.70872 0.22630
# Poissons Ratio (y) = 0.70872 0.22630
# Poissons Ratio (z) = 0.08625 0.08625
#
# Static dielectric constant tensor:
#      x y z
#    x 1.761140 0.000000 0.000000 
#    y 0.000000 1.761140 0.000000 
#    z 0.000000 0.000000 1.805620 
# 
# From -- ./inp_files/3061.got.cif
#   From: 2010.05.17/outbox.cif.g08.bks.cpg/sg167_2_cif.got.tgz:3061.got - 2010.05.20 11:09:15.
