data_PCOD9579207
_publ_section_title
;
Structure prediction by ZEFSAII (Michael W. Deem and Ramdas Pophale) SiO2 
 PCOD9579207
Probable space group: R -3 M
;
_chemical_formula_sum "Si O2"
_cell_formula_units_Z 144
_cell_length_a 20.535206
_cell_length_b 20.535206
_cell_length_c 20.531869
_cell_angle_alpha 90.000000
_cell_angle_beta 90.000000
_cell_angle_gamma 120.000000
_cell_volume 7498.203865
_symmetry_space_group_name_H-M "R -3 M"
_symmetry_group_IT_number 166
_symmetry_cell_setting 'hexagonal'
loop_
_space_group_symop_operation_xyz
x,y,z
-y,x-y,z
-x+y,-x,z
x-y,-y,-z
-x,-x+y,-z
y,x,-z
-x,-y,-z
y,-x+y,-z
x-y,x,-z
-x+y,y,z
x,x-y,z
-y,-x,z
2/3+x,1/3+y,1/3+z
2/3-y,1/3+x-y,1/3+z
2/3-x+y,1/3-x,1/3+z
2/3+x-y,1/3-y,1/3-z
2/3-x,1/3-x+y,1/3-z
2/3+y,1/3+x,1/3-z
2/3-x,1/3-y,1/3-z
2/3+y,1/3-x+y,1/3-z
2/3+x-y,1/3+x,1/3-z
2/3-x+y,1/3+y,1/3+z
2/3+x,1/3+x-y,1/3+z
2/3-y,1/3-x,1/3+z
1/3+x,2/3+y,2/3+z
1/3-y,2/3+x-y,2/3+z
1/3-x+y,2/3-x,2/3+z
1/3+x-y,2/3-y,2/3-z
1/3-x,2/3-x+y,2/3-z
1/3+y,2/3+x,2/3-z
1/3-x,2/3-y,2/3-z
1/3+y,2/3-x+y,2/3-z
1/3+x-y,2/3+x,2/3-z
1/3-x+y,2/3+y,2/3+z
1/3+x,2/3+x-y,2/3+z
1/3-y,2/3-x,2/3+z
loop_
_atom_site_type_symbol
_atom_site_label
_atom_site_fract_x
_atom_site_fract_y
_atom_site_fract_z
Si Si1 0.666389 0.183749 0.591105
Si Si2 0.807730 0.474664 0.747334
Si Si3 0.086835 0.314939 0.544219
Si Si4 0.387114 0.021185 0.074260
O O1 0.594473 0.188945 0.567440
O O2 0.746165 0.253836 0.567168
O O3 0.668521 0.190985 0.669335
O O4 0.658477 0.102263 0.581971
O O5 0.751333 0.502666 0.769670
O O6 0.776217 0.388109 0.765016
O O7 0.893426 0.519547 0.770324
O O8 0.172101 0.344202 0.565598
O O9 0.085130 0.326073 0.466837
O O10 0.035957 0.345469 0.577852
O O11 0.396803 0.000000 0.000000
#
# Coordination Sequence:
#
# PCOD9579207 Si02
#       4
#    36  36  36  36
#     4  10  20  35  57  84 115 151 194 244 297 353
#     4   9  17  31  52  79 112 147 183 223 276 344
#     4  10  22  37  53  80 114 148 190 243 293 341
#     4  11  22  37  58  84 111 155 203 240 286 356
#
# _framework density 19.204599000000002
#
# number of rings (size 3 to 8) (size 9 to 14) (size 15 to 20)
#    0.000    2.000    2.500    1.250    0.000    9.000 
#    0.000    2.500    0.000    0.000    0.000   21.000 
#    0.000    0.000    0.000    0.750    0.000   79.500 
#
# Total GULP energy -267250.583896 kJ/mol
# GULP energy per Si atom -5567.720498 kJ/mol
# Density = 1.916089 g / cm^3
# Si number density = 19.204599 Si / 1000 Ang^3
#
#
#
# Elastic Constant Matrix: (Units=GPa)
#
#
# Indices 1 2 3 4 5 6 
#
# 1 96.4895 48.0462 16.4443 8.0750 0.0000 0.0000
# 2 48.0462 96.4895 16.4443 -8.0750 0.0000 0.0000
# 3 16.4443 16.4443 52.8896 0.0000 0.0000 0.0000
# 4 8.0750 -8.0750 0.0000 20.2792 0.0000 0.0000
# 5 0.0000 0.0000 0.0000 0.0000 20.2792 8.0750
# 6 0.0000 0.0000 0.0000 0.0000 8.0750 24.2216
#
#
#
# Elastic Compliance Matrix: (Units=1/GPa)
#
#
# Indices 1 2 3 4 5 6 
#
# 1 0.015624 -0.008179 -0.002315 -0.009478 0.000000 0.000000
# 2 -0.008179 0.015624 -0.002315 0.009478 0.000000 0.000000
# 3 -0.002315 -0.002315 0.020347 0.000000 0.000000 0.000000
# 4 -0.009478 0.009478 0.000000 0.056860 0.000000 0.000000
# 5 0.000000 0.000000 0.000000 0.000000 0.056860 -0.018956
# 6 0.000000 0.000000 0.000000 0.000000 -0.018956 0.047605
#
#
# Mechanical properties :
#
#
# Convention : Reuss Voigt Hill
#
# Bulk Modulus (GPa) = 38.49403 45.30422 41.89912
# Shear Modulus (GPa) = 20.22692 23.95158 22.08925
#
# Velocity S-wave (km/s) = 3.24888 3.53537 3.39515
# Velocity P-wave (km/s) = 5.84476 6.34875 6.10196
#
# Compressibility (1/GPa) = 0.02597806
#
# Stress axis : x y z
#
# Youngs Moduli (GPa) = 64.00423 64.00423 49.14775
#
# Poissons Ratio (x) = 0.52346 0.11377
# Poissons Ratio (y) = 0.52346 0.11377
# Poissons Ratio (z) = 0.14816 0.14816
#
# Static dielectric constant tensor:
#      x y z
#    x 1.740930 0.000000 0.000000 
#    y 0.000000 1.740930 0.000000 
#    z 0.000000 0.000000 1.698070 
# 
# From -- ./inp_files/6585.got.cif
#   From: 2010.05.17/outbox.cif.g08.bks.cpg/sg166_4_cif.got.tgz:6585.got - 2010.05.20 11:04:41.
