data_PCOD9579928
_publ_section_title
;
Structure prediction by ZEFSAII (Michael W. Deem and Ramdas Pophale) SiO2 
 PCOD9579928
Probable space group: P 61
;
_chemical_formula_sum "Si O2"
_cell_formula_units_Z 48
_cell_length_a 18.051649
_cell_length_b 18.051649
_cell_length_c 7.608404
_cell_angle_alpha 90.000000
_cell_angle_beta 90.000000
_cell_angle_gamma 120.000000
_cell_volume 2147.128110
_symmetry_space_group_name_H-M "P 61"
_symmetry_group_IT_number 169
_symmetry_cell_setting 'hexagonal'
loop_
_space_group_symop_operation_xyz
x,y,z
x-y,x,1/6+z
-y,x-y,1/3+z
-x,-y,1/2+z
-x+y,-x,2/3+z
y,-x+y,5/6+z
loop_
_atom_site_type_symbol
_atom_site_label
_atom_site_fract_x
_atom_site_fract_y
_atom_site_fract_z
Si Si1 0.813589 0.196519 0.221090
Si Si2 0.006716 0.659022 0.720179
Si Si3 0.052905 0.626503 0.364906
Si Si4 0.235632 0.800286 0.346506
Si Si5 0.135983 0.167864 0.451087
Si Si6 0.319448 0.194955 0.216036
Si Si7 0.594222 0.070056 0.700587
Si Si8 0.069016 0.181472 0.973365
O O1 0.775874 0.174462 0.415697
O O2 0.852894 0.133811 0.183686
O O3 0.892202 0.291157 0.236824
O O4 0.757694 0.190920 0.055566
O O5 0.968026 0.715894 0.798079
O O6 0.998571 0.648394 0.507917
O O7 0.964308 0.580026 0.854413
O O8 0.146098 0.709642 0.317005
O O9 0.069609 0.561257 0.480826
O O10 0.995866 0.578572 0.193041
O O11 0.216660 0.869239 0.249553
O O12 0.329574 0.835503 0.261453
O O13 0.140349 0.101480 0.324704
O O14 0.168711 0.262203 0.381471
O O15 0.178635 0.160766 0.629368
O O16 0.123569 0.134545 0.933549
#
# Coordination Sequence:
#
# PCOD9579928 Si02
#       8
#     6   6   6   6   6   6   6   6
#     4  11  21  37  58  85 119 161 211 271 324 379
#     4  10  22  38  60  96 120 160 220 268 326 398
#     4  11  22  42  72  99 135 179 221 274 343 416
#     4  10  24  40  66  98 136 162 214 276 330 394
#     4  10  21  37  48  70 110 163 218 266 322 369
#     4  11  21  37  58  85 119 161 211 271 324 379
#     4  11  22  42  72  99 135 179 221 274 343 416
#     4  10  21  37  48  70 110 163 218 266 322 369
#
# _framework density 22.355443999999999
#
# number of rings (size 3 to 8) (size 9 to 14) (size 15 to 20)
#    0.000    1.500    1.250    4.500    0.000    5.000 
#   24.750    0.000    2.750    0.000    0.000    0.000 
#    0.000    0.000    0.000    0.000    0.000    0.000 
#
# Total GULP energy -267438.705736 kJ/mol
# GULP energy per Si atom -5571.639703 kJ/mol
# Density = 2.230456 g / cm^3
# Si number density = 22.355444 Si / 1000 Ang^3
#
#
#
# Elastic Constant Matrix: (Units=GPa)
#
#
# Indices 1 2 3 4 5 6 
#
# 1 77.6929 28.3904 25.2110 0.0000 0.0000 0.0000
# 2 28.3904 77.6929 25.2110 0.0000 0.0000 0.0000
# 3 25.2110 25.2110 105.9942 0.0000 0.0000 0.0000
# 4 0.0000 0.0000 0.0000 37.4093 0.0000 0.0000
# 5 0.0000 0.0000 0.0000 0.0000 37.4093 0.0000
# 6 0.0000 0.0000 0.0000 0.0000 0.0000 24.6512
#
#
#
# Elastic Compliance Matrix: (Units=1/GPa)
#
#
# Indices 1 2 3 4 5 6 
#
# 1 0.015456 -0.004827 -0.002528 0.000000 0.000000 0.000000
# 2 -0.004827 0.015456 -0.002528 0.000000 0.000000 0.000000
# 3 -0.002528 -0.002528 0.010637 0.000000 0.000000 0.000000
# 4 0.000000 0.000000 0.000000 0.026731 0.000000 0.000000
# 5 0.000000 0.000000 0.000000 0.000000 0.026731 0.000000
# 6 0.000000 0.000000 0.000000 0.000000 0.000000 0.040566
#
#
# Mechanical properties :
#
#
# Convention : Reuss Voigt Hill
#
# Bulk Modulus (GPa) = 45.91045 46.55607 46.23326
# Shear Modulus (GPa) = 30.74962 32.06515 31.40739
#
# Velocity S-wave (km/s) = 3.71278 3.79137 3.75228
# Velocity P-wave (km/s) = 6.24186 6.32744 6.28480
#
# Compressibility (1/GPa) = 0.02178153
#
# Stress axis : x y z
#
# Youngs Moduli (GPa) = 64.70179 64.70179 94.01133
#
# Poissons Ratio (x) = 0.31234 0.23765
# Poissons Ratio (y) = 0.31234 0.23765
# Poissons Ratio (z) = 0.16356 0.16356
#
# Static dielectric constant tensor:
#      x y z
#    x 1.873470 0.000000 0.000000 
#    y 0.000000 1.873470 0.000000 
#    z 0.000000 0.000000 1.909100 
# 
# From -- ./inp_files/754.got.cif
#   From: 2010.05.17/outbox.cif.g08.bks.cpg/sg169_cif.got.tgz:754.got - 2010.05.20 11:12:54.
