data_PCOD9579842
_publ_section_title
;
Structure prediction by ZEFSAII (Michael W. Deem and Ramdas Pophale) SiO2 
 PCOD9579842
Probable space group: P 61
;
_chemical_formula_sum "Si O2"
_cell_formula_units_Z 42
_cell_length_a 14.556005
_cell_length_b 14.556005
_cell_length_c 8.561364
_cell_angle_alpha 90.000000
_cell_angle_beta 90.000000
_cell_angle_gamma 120.000000
_cell_volume 1570.934169
_symmetry_space_group_name_H-M "P 61"
_symmetry_group_IT_number 169
_symmetry_cell_setting 'hexagonal'
loop_
_space_group_symop_operation_xyz
x,y,z
x-y,x,1/6+z
-y,x-y,1/3+z
-x,-y,1/2+z
-x+y,-x,2/3+z
y,-x+y,5/6+z
loop_
_atom_site_type_symbol
_atom_site_label
_atom_site_fract_x
_atom_site_fract_y
_atom_site_fract_z
Si Si1 0.873900 0.075560 0.333220
Si Si2 0.679241 0.447220 0.902953
Si Si3 0.097804 0.403884 0.278782
Si Si4 0.368157 0.105242 0.518237
Si Si5 0.496403 0.549191 0.187626
Si Si6 0.971539 0.747500 0.076995
Si Si7 0.747617 0.461371 0.232009
O O1 0.770974 0.087929 0.323313
O O2 0.953169 0.121915 0.191969
O O3 0.948420 0.143540 0.483488
O O4 0.779391 0.508238 0.790830
O O5 0.710630 0.501243 0.076418
O O6 0.578071 0.441822 0.823284
O O7 0.680646 0.338044 0.938442
O O8 0.072078 0.338513 0.439464
O O9 0.023696 0.455279 0.290806
O O10 0.442217 0.195320 0.658289
O O11 0.399724 0.016124 0.575919
O O12 0.324643 0.044484 0.348235
O O13 0.478496 0.615622 0.050959
O O14 0.867316 0.725044 0.175234
#
# Coordination Sequence:
#
# PCOD9579842 Si02
#       7
#     6   6   6   6   6   6   6
#     4  10  19  35  64  95 123 169 229 283 340 418
#     4  12  23  43  65  96 143 190 240 293 373 461
#     4  11  21  38  66 102 131 180 234 306 358 441
#     4  12  21  39  65 104 137 183 239 302 358 442
#     4  12  26  40  69 106 144 185 247 323 372 444
#     4  11  20  37  71 101 137 179 247 293 357 440
#     4  12  24  42  66  98 143 192 242 296 380 460
#
# _framework density 26.735686999999999
#
# number of rings (size 3 to 8) (size 9 to 14) (size 15 to 20)
#    0.000    0.571    8.571    2.571    0.000    0.000 
#    0.000    0.000    3.143    0.000    0.000    0.000 
#    0.000    0.000    0.000    0.000    0.000    0.000 
#
# Total GULP energy -234072.925078 kJ/mol
# GULP energy per Si atom -5573.164883 kJ/mol
# Density = 2.667484 g / cm^3
# Si number density = 26.735687 Si / 1000 Ang^3
#
#
#
# Elastic Constant Matrix: (Units=GPa)
#
#
# Indices 1 2 3 4 5 6 
#
# 1 180.0057 63.0607 35.9507 0.0000 0.0000 0.0000
# 2 63.0607 180.0057 35.9507 0.0000 0.0000 0.0000
# 3 35.9507 35.9507 47.6479 0.0000 0.0000 0.0000
# 4 0.0000 0.0000 0.0000 28.5998 0.0000 0.0000
# 5 0.0000 0.0000 0.0000 0.0000 28.5998 0.0000
# 6 0.0000 0.0000 0.0000 0.0000 0.0000 58.4725
#
#
#
# Elastic Compliance Matrix: (Units=1/GPa)
#
#
# Indices 1 2 3 4 5 6 
#
# 1 0.006924 -0.001627 -0.003996 0.000000 0.000000 0.000000
# 2 -0.001627 0.006924 -0.003996 0.000000 0.000000 0.000000
# 3 -0.003996 -0.003996 0.027017 0.000000 0.000000 0.000000
# 4 0.000000 0.000000 0.000000 0.034965 0.000000 0.000000
# 5 0.000000 0.000000 0.000000 0.000000 0.034965 0.000000
# 6 0.000000 0.000000 0.000000 0.000000 0.000000 0.017102
#
#
# Mechanical properties :
#
#
# Convention : Reuss Voigt Hill
#
# Bulk Modulus (GPa) = 46.24135 75.28703 60.76419
# Shear Modulus (GPa) = 32.39507 41.31424 36.85465
#
# Velocity S-wave (km/s) = 3.48469 3.93528 3.71682
# Velocity P-wave (km/s) = 5.79000 6.99067 6.41847
#
# Compressibility (1/GPa) = 0.02162566
#
# Stress axis : x y z
#
# Youngs Moduli (GPa) = 144.43371 144.43371 37.01329
#
# Poissons Ratio (x) = 0.23506 0.14790
# Poissons Ratio (y) = 0.23506 0.14790
# Poissons Ratio (z) = 0.57716 0.57716
#
# Static dielectric constant tensor:
#      x y z
#    x 2.235480 0.000000 0.000000 
#    y 0.000000 2.235480 0.000000 
#    z 0.000000 0.000000 2.337850 
# 
# From -- ./inp_files/932.got.cif
#   From: 2010.05.17/outbox.cif.g08.bks.cpg/sg169_cif.got.tgz:932.got - 2010.05.20 11:12:54.
