data_PCOD9579572
_publ_section_title
;
Structure prediction by ZEFSAII (Michael W. Deem and Ramdas Pophale) SiO2 
 PCOD9579572
Probable space group: R -3 C 
;
_chemical_formula_sum "Si O2"
_cell_formula_units_Z 270
_cell_length_a 22.468235
_cell_length_b 22.468235
_cell_length_c 32.246237
_cell_angle_alpha 90.000000
_cell_angle_beta 90.000000
_cell_angle_gamma 120.000000
_cell_volume 14097.678056
_symmetry_space_group_name_H-M "R -3 C "
_symmetry_group_IT_number 167
_symmetry_cell_setting 'hexagonal'
loop_
_space_group_symop_operation_xyz
x,y,z
-y,x-y,z
-x+y,-x,z
x-y,-y,1/2-z
-x,-x+y,1/2-z
y,x,1/2-z
-x,-y,-z
y,-x+y,-z
x-y,x,-z
-x+y,y,1/2+z
x,x-y,1/2+z
-y,-x,1/2+z
2/3+x,1/3+y,1/3+z
2/3-y,1/3+x-y,1/3+z
2/3-x+y,1/3-x,1/3+z
2/3+x-y,1/3-y,5/6-z
2/3-x,1/3-x+y,5/6-z
2/3+y,1/3+x,5/6-z
2/3-x,1/3-y,1/3-z
2/3+y,1/3-x+y,1/3-z
2/3+x-y,1/3+x,1/3-z
2/3-x+y,1/3+y,5/6+z
2/3+x,1/3+x-y,5/6+z
2/3-y,1/3-x,5/6+z
1/3+x,2/3+y,2/3+z
1/3-y,2/3+x-y,2/3+z
1/3-x+y,2/3-x,2/3+z
1/3+x-y,2/3-y,1/6-z
1/3-x,2/3-x+y,1/6-z
1/3+y,2/3+x,1/6-z
1/3-x,2/3-y,2/3-z
1/3+y,2/3-x+y,2/3-z
1/3+x-y,2/3+x,2/3-z
1/3-x+y,2/3+y,1/6+z
1/3+x,2/3+x-y,1/6+z
1/3-y,2/3-x,1/6+z
loop_
_atom_site_type_symbol
_atom_site_label
_atom_site_fract_x
_atom_site_fract_y
_atom_site_fract_z
Si Si1 0.153768 0.032036 0.996471
Si Si2 0.821597 0.030455 0.581838
Si Si3 0.222300 0.444552 0.594894
Si Si4 0.824911 0.173478 0.983404
Si Si5 0.035939 0.384163 0.328196
Si Si6 0.618856 0.837126 0.796136
Si Si7 0.007671 0.674338 0.583334
Si Si8 0.697357 0.756675 0.221567
O O1 0.205898 0.051067 0.034573
O O2 0.131302 0.089199 0.996960
O O3 0.185905 0.037799 0.950887
O O4 0.858597 0.093059 0.613580
O O5 0.832153 0.965156 0.587277
O O6 0.738938 0.994282 0.582997
O O7 0.188510 0.396856 0.556149
O O8 0.216462 0.392347 0.632177
O O9 0.892069 0.239602 0.000169
O O10 0.761795 0.138712 0.015275
O O11 0.113246 0.409450 0.312299
O O12 0.031893 0.357775 0.374507
O O13 0.982226 0.321066 0.298312
O O14 0.666667 0.833334 0.833334
O O15 0.658053 0.878597 0.754284
O O16 0.757493 0.757493 0.250000
#
# Coordination Sequence:
#
# PCOD9579572 Si02
#       8
#    36  36  36  36  36  36  18  36
#     4  10  22  39  60  86 117 159 203 249 303 363
#     4  11  22  37  59  84 121 161 202 250 305 378
#     4  10  22  35  57  88 119 156 204 253 314 361
#     4  11  23  38  59  89 125 162 207 257 308 377
#     4  11  24  38  62  89 126 165 208 253 313 377
#     4  11  23  39  60  83 118 166 205 248 309 369
#     4  12  20  36  58  84 120 160 198 246 308 370
#     4  10  23  39  57  86 122 167 204 255 311 369
#
# _framework density 19.152090000000001
#
# number of rings (size 3 to 8) (size 9 to 14) (size 15 to 20)
#    0.000    1.333    1.333    4.933    9.333    2.133 
#    0.000    0.000    0.000    0.000    0.000    0.000 
#    0.000    0.000    2.267    0.000    0.000    0.000 
#
# Total GULP energy -501181.655837 kJ/mol
# GULP energy per Si atom -5568.685065 kJ/mol
# Density = 1.910850 g / cm^3
# Si number density = 19.152090 Si / 1000 Ang^3
#
#
#
# Elastic Constant Matrix: (Units=GPa)
#
#
# Indices 1 2 3 4 5 6 
#
# 1 76.1396 29.8603 19.1854 0.3557 0.0003 0.0000
# 2 29.8603 76.1396 19.1854 -0.3557 -0.0003 0.0000
# 3 19.1854 19.1854 78.1060 0.0000 0.0000 0.0000
# 4 0.3557 -0.3557 0.0000 12.8044 0.0000 -0.0003
# 5 0.0003 -0.0003 0.0000 0.0000 12.8044 0.3557
# 6 0.0000 0.0000 0.0000 -0.0003 0.3557 23.1396
#
#
#
# Elastic Compliance Matrix: (Units=1/GPa)
#
#
# Indices 1 2 3 4 5 6 
#
# 1 0.015986 -0.005631 -0.002543 -0.000601 -0.000001 0.000000
# 2 -0.005631 0.015986 -0.002543 0.000601 0.000001 0.000000
# 3 -0.002543 -0.002543 0.014053 0.000000 0.000000 0.000000
# 4 -0.000601 0.000601 0.000000 0.078131 0.000000 0.000001
# 5 -0.000001 0.000001 0.000000 0.000000 0.078131 -0.001201
# 6 0.000000 0.000000 0.000000 0.000001 -0.001201 0.043234
#
#
# Mechanical properties :
#
#
# Convention : Reuss Voigt Hill
#
# Bulk Modulus (GPa) = 40.66997 40.76084 40.71540
# Shear Modulus (GPa) = 18.17163 20.55996 19.36579
#
# Velocity S-wave (km/s) = 3.08361 3.28000 3.18332
# Velocity P-wave (km/s) = 5.82749 5.97273 5.90055
#
# Compressibility (1/GPa) = 0.02458817
#
# Stress axis : x y z
#
# Youngs Moduli (GPa) = 62.55503 62.55503 71.16104
#
# Poissons Ratio (x) = 0.35226 0.18099
# Poissons Ratio (y) = 0.35226 0.18099
# Poissons Ratio (z) = 0.15911 0.15911
#
# Static dielectric constant tensor:
#      x y z
#    x 1.953900 0.000000 0.000000 
#    y 0.000000 1.953900 0.000000 
#    z 0.000000 0.000000 1.813480 
# 
# From -- ./inp_files/7266.got.cif
#   From: 2010.05.17/outbox.cif.g08.bks.cpg/sg167_4_cif.got.tgz:7266.got - 2010.05.20 11:09:15.
