data_PCOD9579780
_publ_section_title
;
Structure prediction by ZEFSAII (Michael W. Deem and Ramdas Pophale) SiO2 
 PCOD9579780
Probable space group: P 61
;
_chemical_formula_sum "Si O2"
_cell_formula_units_Z 36
_cell_length_a 26.348732
_cell_length_b 26.348732
_cell_length_c 5.525987
_cell_angle_alpha 90.000000
_cell_angle_beta 90.000000
_cell_angle_gamma 120.000000
_cell_volume 3322.461300
_symmetry_space_group_name_H-M "P 61"
_symmetry_group_IT_number 169
_symmetry_cell_setting 'hexagonal'
loop_
_space_group_symop_operation_xyz
x,y,z
x-y,x,1/6+z
-y,x-y,1/3+z
-x,-y,1/2+z
-x+y,-x,2/3+z
y,-x+y,5/6+z
loop_
_atom_site_type_symbol
_atom_site_label
_atom_site_fract_x
_atom_site_fract_y
_atom_site_fract_z
Si Si1 0.467578 0.999214 0.561320
Si Si2 0.813811 0.443559 0.937807
Si Si3 0.390241 0.869006 0.601724
Si Si4 0.127331 0.639214 0.406790
Si Si5 0.656514 0.491905 0.737141
Si Si6 0.309063 0.606593 0.234888
O O1 0.465092 0.058576 0.550220
O O2 0.495367 0.995160 0.304951
O O3 0.409088 0.936859 0.592924
O O4 0.838928 0.479250 0.687279
O O5 0.743944 0.411116 0.922565
O O6 0.837067 0.478438 0.187402
O O7 0.837258 0.397081 0.929291
O O8 0.450918 0.865784 0.594768
O O9 0.151376 0.675526 0.160914
O O10 0.139791 0.670557 0.665180
O O11 0.681167 0.447741 0.701290
O O12 0.368979 0.659870 0.339437
#
# Coordination Sequence:
#
# PCOD9579780 Si02
#       6
#     6   6   6   6   6   6
#     4  12  16  24  44  50  60  76  84 106 166 170
#     4  10  19  28  36  45  66  72  98 119 130 153
#     4  10  17  30  36  52  61  72  89 125 134 176
#     4  10  17  30  36  52  61  72  89 125 134 176
#     4  10  19  28  36  45  66  72  98 119 130 153
#     4  12  22  28  38  46  58  92 106 118 136 156
#
# _framework density 10.835341
#
# number of rings (size 3 to 8) (size 9 to 14) (size 15 to 20)
#    0.000    1.333   10.000    2.000    0.000    0.000 
#    0.000    0.000    0.000    0.000    0.000    0.000 
#    0.000    0.000    0.000    0.000    0.000    0.000 
#
# Total GULP energy -200444.958635 kJ/mol
# GULP energy per Si atom -5567.915518 kJ/mol
# Density = 1.081068 g / cm^3
# Si number density = 10.835341 Si / 1000 Ang^3
#
#
#
# Elastic Constant Matrix: (Units=GPa)
#
#
# Indices 1 2 3 4 5 6 
#
# 1 18.9696 17.4598 7.0585 0.0000 0.0000 0.0000
# 2 17.4598 18.9696 7.0585 0.0000 0.0000 0.0000
# 3 7.0585 7.0585 105.8161 0.0000 0.0000 0.0000
# 4 0.0000 0.0000 0.0000 9.9523 0.0000 0.0000
# 5 0.0000 0.0000 0.0000 0.0000 9.9523 0.0000
# 6 0.0000 0.0000 0.0000 0.0000 0.0000 0.7549
#
#
#
# Elastic Compliance Matrix: (Units=1/GPa)
#
#
# Indices 1 2 3 4 5 6 
#
# 1 0.345250 -0.317071 -0.001880 0.000000 0.000000 0.000000
# 2 -0.317071 0.345250 -0.001880 0.000000 0.000000 0.000000
# 3 -0.001880 -0.001880 0.009701 0.000000 0.000000 0.000000
# 4 0.000000 0.000000 0.000000 0.100479 0.000000 0.000000
# 5 0.000000 0.000000 0.000000 0.000000 0.100479 0.000000
# 6 0.000000 0.000000 0.000000 0.000000 0.000000 1.324641
#
#
# Mechanical properties :
#
#
# Convention : Reuss Voigt Hill
#
# Bulk Modulus (GPa) = 17.08237 22.98988 20.03613
# Shear Modulus (GPa) = 1.73192 11.61048 6.67120
#
# Velocity S-wave (km/s) = 1.26565 3.27699 2.48400
# Velocity P-wave (km/s) = 4.23503 5.96504 5.17287
#
# Compressibility (1/GPa) = 0.05853989
#
# Stress axis : x y z
#
# Youngs Moduli (GPa) = 2.89646 2.89646 103.08080
#
# Poissons Ratio (x) = 0.91838 0.19376
# Poissons Ratio (y) = 0.91838 0.19376
# Poissons Ratio (z) = 0.00544 0.00544
#
# Static dielectric constant tensor:
#      x y z
#    x 1.335910 0.000000 0.000000 
#    y 0.000000 1.335910 0.000000 
#    z 0.000000 0.000000 1.445110 
# 
# From -- ./inp_files/318.got.cif
#   From: 2010.05.17/outbox.cif.g08.bks.cpg/sg169_cif.got.tgz:318.got - 2010.05.20 11:12:54.
