data_PCOD9579567
_publ_section_title
;
Structure prediction by ZEFSAII (Michael W. Deem and Ramdas Pophale) SiO2 
 PCOD9579567
Probable space group: R -3 C 
;
_chemical_formula_sum "Si O2"
_cell_formula_units_Z 162
_cell_length_a 20.635123
_cell_length_b 20.635123
_cell_length_c 20.988775
_cell_angle_alpha 90.000000
_cell_angle_beta 90.000000
_cell_angle_gamma 120.000000
_cell_volume 7739.837586
_symmetry_space_group_name_H-M "R -3 C "
_symmetry_group_IT_number 167
_symmetry_cell_setting 'hexagonal'
loop_
_space_group_symop_operation_xyz
x,y,z
-y,x-y,z
-x+y,-x,z
x-y,-y,1/2-z
-x,-x+y,1/2-z
y,x,1/2-z
-x,-y,-z
y,-x+y,-z
x-y,x,-z
-x+y,y,1/2+z
x,x-y,1/2+z
-y,-x,1/2+z
2/3+x,1/3+y,1/3+z
2/3-y,1/3+x-y,1/3+z
2/3-x+y,1/3-x,1/3+z
2/3+x-y,1/3-y,5/6-z
2/3-x,1/3-x+y,5/6-z
2/3+y,1/3+x,5/6-z
2/3-x,1/3-y,1/3-z
2/3+y,1/3-x+y,1/3-z
2/3+x-y,1/3+x,1/3-z
2/3-x+y,1/3+y,5/6+z
2/3+x,1/3+x-y,5/6+z
2/3-y,1/3-x,5/6+z
1/3+x,2/3+y,2/3+z
1/3-y,2/3+x-y,2/3+z
1/3-x+y,2/3-x,2/3+z
1/3+x-y,2/3-y,1/6-z
1/3-x,2/3-x+y,1/6-z
1/3+y,2/3+x,1/6-z
1/3-x,2/3-y,2/3-z
1/3+y,2/3-x+y,2/3-z
1/3+x-y,2/3+x,2/3-z
1/3-x+y,2/3+y,1/6+z
1/3+x,2/3+x-y,1/6+z
1/3-y,2/3-x,1/6+z
loop_
_atom_site_type_symbol
_atom_site_label
_atom_site_fract_x
_atom_site_fract_y
_atom_site_fract_z
Si Si1 0.411405 0.442091 0.501450
Si Si2 0.843344 0.000000 0.750000
Si Si3 0.458249 0.360293 0.409598
Si Si4 0.897324 0.193682 0.025515
Si Si5 0.137096 0.618686 0.856101
O O1 0.500000 0.500000 0.500000
O O2 0.371992 0.481890 0.467432
O O3 0.404777 0.375642 0.457141
O O4 0.393228 0.431365 0.575811
O O5 0.850047 0.936385 0.712956
O O6 0.513491 0.438183 0.374168
O O7 0.413073 0.292370 0.361467
O O8 0.500958 0.336094 0.460422
O O9 0.839916 0.223550 0.010168
O O10 0.137886 0.666667 0.916667
#
# Coordination Sequence:
#
# PCOD9579567 Si02
#       5
#    36  18  36  36  36
#     4  10  21  45  67  99 139 178 226 291 349 420
#     4  12  24  42  72 102 136 190 234 280 352 428
#     4  11  24  43  69 107 142 188 234 296 367 425
#     4  11  24  45  70 103 142 184 234 301 360 426
#     4  12  24  44  70  98 141 187 239 289 350 436
#
# _framework density 20.930671
#
# number of rings (size 3 to 8) (size 9 to 14) (size 15 to 20)
#    0.000    0.889    6.667    2.000    6.222    0.000 
#    0.667    0.000    0.000    0.444    0.000    0.000 
#    0.000    0.000    0.000    0.000    0.000    0.000 
#
# Total GULP energy -301801.909166 kJ/mol
# GULP energy per Si atom -5588.924244 kJ/mol
# Density = 2.088303 g / cm^3
# Si number density = 20.930671 Si / 1000 Ang^3
#
#
#
# Elastic Constant Matrix: (Units=GPa)
#
#
# Indices 1 2 3 4 5 6 
#
# 1 99.3072 41.0611 38.1170 -5.3141 -0.0001 0.0000
# 2 41.0611 99.3072 38.1170 5.3141 0.0001 0.0000
# 3 38.1170 38.1170 132.2034 0.0000 0.0000 0.0000
# 4 -5.3141 5.3141 0.0000 40.6832 0.0000 0.0001
# 5 -0.0001 0.0001 0.0000 0.0000 40.6832 -5.3141
# 6 0.0000 0.0000 0.0000 0.0001 -5.3141 29.1230
#
#
#
# Elastic Compliance Matrix: (Units=1/GPa)
#
#
# Indices 1 2 3 4 5 6 
#
# 1 0.013017 -0.004570 -0.002435 0.002297 0.000000 0.000000
# 2 -0.004570 0.013017 -0.002435 -0.002297 0.000000 0.000000
# 3 -0.002435 -0.002435 0.008968 0.000000 0.000000 0.000000
# 4 0.002297 -0.002297 0.000000 0.025180 0.000000 0.000000
# 5 0.000000 0.000000 0.000000 0.000000 0.025180 0.004595
# 6 0.000000 0.000000 0.000000 0.000000 0.004595 0.035175
#
#
# Mechanical properties :
#
#
# Convention : Reuss Voigt Hill
#
# Bulk Modulus (GPa) = 62.03294 62.82310 62.42802
# Shear Modulus (GPa) = 34.53159 36.33275 35.43217
#
# Velocity S-wave (km/s) = 4.06619 4.17089 4.11887
# Velocity P-wave (km/s) = 7.19353 7.29898 7.24645
#
# Compressibility (1/GPa) = 0.01612047
#
# Stress axis : x y z
#
# Youngs Moduli (GPa) = 76.82115 76.82115 111.50208
#
# Poissons Ratio (x) = 0.35111 0.27155
# Poissons Ratio (y) = 0.35111 0.27155
# Poissons Ratio (z) = 0.18709 0.18709
#
# Static dielectric constant tensor:
#      x y z
#    x 1.795500 0.000000 0.000000 
#    y 0.000000 1.795500 0.000000 
#    z 0.000000 0.000000 1.788660 
# 
# From -- ./inp_files/4404.got.cif
#   From: 2010.05.17/outbox.cif.g08.bks.cpg/sg167_3_cif.got.tgz:4404.got - 2010.05.20 11:09:15.
