data_PCOD9579311
_publ_section_title
;
Structure prediction by ZEFSAII (Michael W. Deem and Ramdas Pophale) SiO2 
 PCOD9579311
Probable space group: R -3 M
;
_chemical_formula_sum "Si O2"
_cell_formula_units_Z 84
_cell_length_a 13.918406
_cell_length_b 13.918406
_cell_length_c 22.049654
_cell_angle_alpha 90.000000
_cell_angle_beta 90.000000
_cell_angle_gamma 120.000000
_cell_volume 3699.230661
_symmetry_space_group_name_H-M "R -3 M"
_symmetry_group_IT_number 166
_symmetry_cell_setting 'hexagonal'
loop_
_space_group_symop_operation_xyz
x,y,z
-y,x-y,z
-x+y,-x,z
x-y,-y,-z
-x,-x+y,-z
y,x,-z
-x,-y,-z
y,-x+y,-z
x-y,x,-z
-x+y,y,z
x,x-y,z
-y,-x,z
2/3+x,1/3+y,1/3+z
2/3-y,1/3+x-y,1/3+z
2/3-x+y,1/3-x,1/3+z
2/3+x-y,1/3-y,1/3-z
2/3-x,1/3-x+y,1/3-z
2/3+y,1/3+x,1/3-z
2/3-x,1/3-y,1/3-z
2/3+y,1/3-x+y,1/3-z
2/3+x-y,1/3+x,1/3-z
2/3-x+y,1/3+y,1/3+z
2/3+x,1/3+x-y,1/3+z
2/3-y,1/3-x,1/3+z
1/3+x,2/3+y,2/3+z
1/3-y,2/3+x-y,2/3+z
1/3-x+y,2/3-x,2/3+z
1/3+x-y,2/3-y,2/3-z
1/3-x,2/3-x+y,2/3-z
1/3+y,2/3+x,2/3-z
1/3-x,2/3-y,2/3-z
1/3+y,2/3-x+y,2/3-z
1/3+x-y,2/3+x,2/3-z
1/3-x+y,2/3+y,2/3+z
1/3+x,2/3+x-y,2/3+z
1/3-y,2/3-x,2/3+z
loop_
_atom_site_type_symbol
_atom_site_label
_atom_site_fract_x
_atom_site_fract_y
_atom_site_fract_z
Si Si1 0.666667 0.333334 0.201454
Si Si2 0.316779 0.049840 0.432418
Si Si3 0.438962 0.561039 0.025170
Si Si4 0.333334 0.666667 0.389962
Si Si5 0.132460 0.264920 0.897124
O O1 0.732003 0.464006 0.221157
O O2 0.666667 0.333334 0.128382
O O3 0.359215 0.179608 0.436057
O O4 0.416441 0.034489 0.405508
O O5 0.293506 0.000000 0.500000
O O6 0.200111 0.991354 0.398475
O O7 0.394453 0.605548 0.972021
O O8 0.500000 0.500000 0.000000
O O9 0.166667 0.333334 0.833334
#
# Coordination Sequence:
#
# PCOD9579311 Si02
#       5
#     6  36  18   6  18
#     4  12  24  45  66 103 134 166 219 288 336 403
#     4  11  22  42  66  95 128 172 230 274 326 394
#     4  12  28  43  66  96 139 182 216 281 340 401
#     4  12  30  42  61 100 141 172 223 267 351 400
#     4  10  24  38  69  95 128 167 218 285 323 385
#
# _framework density 22.707424
#
# number of rings (size 3 to 8) (size 9 to 14) (size 15 to 20)
#    0.000    0.857    6.429    0.000   12.000    0.000 
#    0.000    2.143    0.000    0.000    0.000    3.000 
#    0.000    0.000    0.000    0.000    0.000    0.000 
#
# Total GULP energy -156518.555555 kJ/mol
# GULP energy per Si atom -5589.948413 kJ/mol
# Density = 2.265574 g / cm^3
# Si number density = 22.707424 Si / 1000 Ang^3
#
#
#
# Elastic Constant Matrix: (Units=GPa)
#
#
# Indices 1 2 3 4 5 6 
#
# 1 124.5774 23.5748 4.2117 -2.1182 0.0000 0.0000
# 2 23.5748 124.5779 4.2118 2.1180 0.0000 0.0000
# 3 4.2117 4.2118 36.6488 0.0000 0.0000 0.0000
# 4 -2.1182 2.1180 0.0000 18.7557 0.0000 0.0000
# 5 0.0000 0.0000 0.0000 0.0000 18.7555 -2.1183
# 6 0.0000 0.0000 0.0000 0.0000 -2.1183 50.5014
#
#
#
# Elastic Compliance Matrix: (Units=1/GPa)
#
#
# Indices 1 2 3 4 5 6 
#
# 1 0.008371 -0.001577 -0.000781 0.001123 0.000000 0.000000
# 2 -0.001577 0.008371 -0.000781 -0.001123 0.000000 0.000000
# 3 -0.000781 -0.000781 0.027465 0.000000 0.000000 0.000000
# 4 0.001123 -0.001123 0.000000 0.053571 0.000000 0.000000
# 5 0.000000 0.000000 0.000000 0.000000 0.053572 0.002247
# 6 0.000000 0.000000 0.000000 0.000000 0.002247 0.019896
#
#
# Mechanical properties :
#
#
# Convention : Reuss Voigt Hill
#
# Bulk Modulus (GPa) = 26.36387 38.86674 32.61530
# Shear Modulus (GPa) = 26.29282 34.52290 30.40786
#
# Velocity S-wave (km/s) = 3.40648 3.90338 3.66336
# Velocity P-wave (km/s) = 5.20649 6.12116 5.68226
#
# Compressibility (1/GPa) = 0.03793070
#
# Stress axis : x y z
#
# Youngs Moduli (GPa) = 119.45960 119.46010 36.40933
#
# Poissons Ratio (x) = 0.18837 0.02843
# Poissons Ratio (y) = 0.18837 0.02843
# Poissons Ratio (z) = 0.09327 0.09328
#
# Static dielectric constant tensor:
#      x y z
#    x 1.990890 0.000000 0.000000 
#    y 0.000000 1.990890 0.000000 
#    z 0.000000 0.000000 1.839660 
# 
# From -- ./inp_files/7606.got.cif
#   From: 2010.05.17/outbox.cif.g08.bks.cpg/sg166_4_cif.got.tgz:7606.got - 2010.05.20 11:04:41.
