data_PCOD9579551
_publ_section_title
;
Structure prediction by ZEFSAII (Michael W. Deem and Ramdas Pophale) SiO2 
 PCOD9579551
Probable space group: R -3 C 
;
_chemical_formula_sum "Si O2"
_cell_formula_units_Z 210
_cell_length_a 28.539164
_cell_length_b 28.539164
_cell_length_c 13.463877
_cell_angle_alpha 90.000000
_cell_angle_beta 90.000000
_cell_angle_gamma 120.000000
_cell_volume 9496.930536
_symmetry_space_group_name_H-M "R -3 C "
_symmetry_group_IT_number 167
_symmetry_cell_setting 'hexagonal'
loop_
_space_group_symop_operation_xyz
x,y,z
-y,x-y,z
-x+y,-x,z
x-y,-y,1/2-z
-x,-x+y,1/2-z
y,x,1/2-z
-x,-y,-z
y,-x+y,-z
x-y,x,-z
-x+y,y,1/2+z
x,x-y,1/2+z
-y,-x,1/2+z
2/3+x,1/3+y,1/3+z
2/3-y,1/3+x-y,1/3+z
2/3-x+y,1/3-x,1/3+z
2/3+x-y,1/3-y,5/6-z
2/3-x,1/3-x+y,5/6-z
2/3+y,1/3+x,5/6-z
2/3-x,1/3-y,1/3-z
2/3+y,1/3-x+y,1/3-z
2/3+x-y,1/3+x,1/3-z
2/3-x+y,1/3+y,5/6+z
2/3+x,1/3+x-y,5/6+z
2/3-y,1/3-x,5/6+z
1/3+x,2/3+y,2/3+z
1/3-y,2/3+x-y,2/3+z
1/3-x+y,2/3-x,2/3+z
1/3+x-y,2/3-y,1/6-z
1/3-x,2/3-x+y,1/6-z
1/3+y,2/3+x,1/6-z
1/3-x,2/3-y,2/3-z
1/3+y,2/3-x+y,2/3-z
1/3+x-y,2/3+x,2/3-z
1/3-x+y,2/3+y,1/6+z
1/3+x,2/3+x-y,1/6+z
1/3-y,2/3-x,1/6+z
loop_
_atom_site_type_symbol
_atom_site_label
_atom_site_fract_x
_atom_site_fract_y
_atom_site_fract_z
Si Si1 0.933401 0.398514 0.983425
Si Si2 0.285653 0.541491 0.347205
Si Si3 0.727132 0.112339 0.117191
Si Si4 0.000000 0.000000 0.882508
Si Si5 0.910716 0.774246 0.546216
Si Si6 0.515402 0.461243 0.684026
Si Si7 0.666667 0.167664 0.583334
O O1 0.946179 0.425753 0.092426
O O2 0.875161 0.345569 0.994613
O O3 0.922107 0.436632 0.912552
O O4 0.988258 0.400979 0.952968
O O5 0.333334 0.546112 0.416667
O O6 0.304006 0.603649 0.318489
O O7 0.274656 0.502399 0.253321
O O8 0.228992 0.512715 0.407229
O O9 0.666667 0.086071 0.083334
O O10 0.733623 0.141808 0.223380
O O11 0.765870 0.157910 0.038078
O O12 0.000000 0.000000 0.000000
O O13 0.906929 0.768022 0.428763
O O14 0.485630 0.485630 0.750000
#
# Coordination Sequence:
#
# PCOD9579551 Si02
#       7
#    36  36  36  12  36  36  18
#     4  10  21  40  65  96 134 178 228 290 348 417
#     4  11  21  43  68  91 136 191 232 293 366 426
#     4  11  22  41  65 101 142 176 230 301 358 422
#     4  12  25  41  61  99 145 176 229 297 367 428
#     4  10  21  40  69  98 126 177 242 286 349 424
#     4  11  19  41  70  93 132 180 230 291 352 417
#     4  10  22  40  66  90 130 184 236 276 350 434
#
# _framework density 22.112407999999999
#
# number of rings (size 3 to 8) (size 9 to 14) (size 15 to 20)
#    0.000    1.371    5.143    1.543    0.000    1.371 
#   13.886    0.857    0.000    0.000    0.000    0.000 
#    0.000    0.000    0.000    0.000    0.000    0.000 
#
# Total GULP energy -390805.942213 kJ/mol
# GULP energy per Si atom -5582.942032 kJ/mol
# Density = 2.206208 g / cm^3
# Si number density = 22.112408 Si / 1000 Ang^3
#
#
#
# Elastic Constant Matrix: (Units=GPa)
#
#
# Indices 1 2 3 4 5 6 
#
# 1 91.8924 55.2641 28.8526 -9.9541 -0.0006 0.0000
# 2 55.2641 91.8924 28.8528 9.9541 0.0006 0.0000
# 3 28.8526 28.8528 120.4284 -0.0002 -0.0004 -0.0001
# 4 -9.9541 9.9541 -0.0002 17.2159 -0.0001 0.0005
# 5 -0.0006 0.0006 -0.0004 -0.0001 17.2157 -9.9541
# 6 0.0000 0.0000 -0.0001 0.0005 -9.9541 18.3141
#
#
#
# Elastic Compliance Matrix: (Units=1/GPa)
#
#
# Indices 1 2 3 4 5 6 
#
# 1 0.023656 -0.016156 -0.001797 0.023019 0.000002 0.000000
# 2 -0.016156 0.023656 -0.001797 -0.023019 -0.000002 0.000000
# 3 -0.001797 -0.001797 0.009165 0.000000 0.000000 0.000000
# 4 0.023019 -0.023019 0.000000 0.084705 0.000001 -0.000002
# 5 0.000002 -0.000002 0.000000 0.000001 0.084706 0.046039
# 6 0.000000 0.000000 0.000000 -0.000002 0.046039 0.079626
#
#
# Mechanical properties :
#
#
# Convention : Reuss Voigt Hill
#
# Bulk Modulus (GPa) = 58.90211 58.90579 58.90395
# Shear Modulus (GPa) = 14.25827 23.29873 18.77850
#
# Velocity S-wave (km/s) = 2.54206 3.24952 2.91732
# Velocity P-wave (km/s) = 5.94235 6.38563 6.16797
#
# Compressibility (1/GPa) = 0.01697732
#
# Stress axis : x y z
#
# Youngs Moduli (GPa) = 42.27186 42.27175 109.11417
#
# Poissons Ratio (x) = 0.68296 0.19606
# Poissons Ratio (y) = 0.68296 0.19608
# Poissons Ratio (z) = 0.07596 0.07596
#
# Static dielectric constant tensor:
#      x y z
#    x 1.859960 0.000000 0.000000 
#    y 0.000000 1.859960 0.000000 
#    z 0.000000 0.000000 1.867540 
# 
# From -- ./inp_files/2476.got.cif
#   From: 2010.05.17/outbox.cif.g08.bks.cpg/sg167_2_cif.got.tgz:2476.got - 2010.05.20 11:09:15.
