data_PCOD9579415
_publ_section_title
;
Structure prediction by ZEFSAII (Michael W. Deem and Ramdas Pophale) SiO2 
 PCOD9579415
Probable space group: R -3 C 
;
_chemical_formula_sum "Si O2"
_cell_formula_units_Z 234
_cell_length_a 25.705774
_cell_length_b 25.705774
_cell_length_c 22.047873
_cell_angle_alpha 90.000000
_cell_angle_beta 90.000000
_cell_angle_gamma 120.000000
_cell_volume 12617.075454
_symmetry_space_group_name_H-M "R -3 C "
_symmetry_group_IT_number 167
_symmetry_cell_setting 'hexagonal'
loop_
_space_group_symop_operation_xyz
x,y,z
-y,x-y,z
-x+y,-x,z
x-y,-y,1/2-z
-x,-x+y,1/2-z
y,x,1/2-z
-x,-y,-z
y,-x+y,-z
x-y,x,-z
-x+y,y,1/2+z
x,x-y,1/2+z
-y,-x,1/2+z
2/3+x,1/3+y,1/3+z
2/3-y,1/3+x-y,1/3+z
2/3-x+y,1/3-x,1/3+z
2/3+x-y,1/3-y,5/6-z
2/3-x,1/3-x+y,5/6-z
2/3+y,1/3+x,5/6-z
2/3-x,1/3-y,1/3-z
2/3+y,1/3-x+y,1/3-z
2/3+x-y,1/3+x,1/3-z
2/3-x+y,1/3+y,5/6+z
2/3+x,1/3+x-y,5/6+z
2/3-y,1/3-x,5/6+z
1/3+x,2/3+y,2/3+z
1/3-y,2/3+x-y,2/3+z
1/3-x+y,2/3-x,2/3+z
1/3+x-y,2/3-y,1/6-z
1/3-x,2/3-x+y,1/6-z
1/3+y,2/3+x,1/6-z
1/3-x,2/3-y,2/3-z
1/3+y,2/3-x+y,2/3-z
1/3+x-y,2/3+x,2/3-z
1/3-x+y,2/3+y,1/6+z
1/3+x,2/3+x-y,1/6+z
1/3-y,2/3-x,1/6+z
loop_
_atom_site_type_symbol
_atom_site_label
_atom_site_fract_x
_atom_site_fract_y
_atom_site_fract_z
Si Si1 0.239289 0.223783 0.982420
Si Si2 0.994236 0.653664 0.486367
Si Si3 0.123199 0.470022 0.544504
Si Si4 0.670808 0.550908 0.688491
Si Si5 0.443893 0.538733 0.839891
Si Si6 0.000000 0.473907 0.750000
Si Si7 0.131907 0.264201 0.810273
O O1 0.194377 0.206614 0.925910
O O2 0.287759 0.205007 0.957664
O O3 0.275914 0.295317 0.991809
O O4 0.213791 0.199013 0.049015
O O5 0.015116 0.666667 0.416667
O O6 0.053222 0.663981 0.521741
O O7 0.934606 0.589472 0.484258
O O8 0.182384 0.471833 0.518319
O O9 0.110776 0.520874 0.520127
O O10 0.609662 0.493491 0.665695
O O11 0.727801 0.569355 0.647223
O O12 0.471778 0.510215 0.794716
O O13 0.443389 0.517698 0.908168
O O14 0.166667 0.333334 0.833334
#
# Coordination Sequence:
#
# PCOD9579415 Si02
#       7
#    36  36  36  36  36  18  36
#     4  10  20  36  56  83 120 153 198 234 290 357
#     4  10  18  33  51  82 116 153 192 237 287 344
#     4  11  25  36  56  87 121 154 195 251 292 351
#     4  11  22  38  62  79 115 161 195 243 298 356
#     4  11  24  40  55  84 120 155 197 242 295 359
#     4  10  20  36  58  80 114 160 194 234 296 352
#     4  12  24  38  60  86 116 152 203 248 300 358
#
# _framework density 18.546295000000001
#
# number of rings (size 3 to 8) (size 9 to 14) (size 15 to 20)
#    0.000    1.231    4.615    2.769    5.385    3.692 
#    0.000    0.000    0.000    0.615    0.000    2.154 
#    0.000    6.154    0.000    0.000    0.000    0.000 
#
# Total GULP energy -435065.091210 kJ/mol
# GULP energy per Si atom -5577.757580 kJ/mol
# Density = 1.850408 g / cm^3
# Si number density = 18.546295 Si / 1000 Ang^3
#
#
#
# Elastic Constant Matrix: (Units=GPa)
#
#
# Indices 1 2 3 4 5 6 
#
# 1 48.5033 12.6384 15.6639 0.0074 0.0001 0.0000
# 2 12.6384 48.5033 15.6639 -0.0074 -0.0001 0.0000
# 3 15.6639 15.6639 127.1066 0.0000 0.0000 0.0000
# 4 0.0074 -0.0074 0.0000 17.8146 0.0000 -0.0001
# 5 0.0001 -0.0001 0.0000 0.0000 17.8146 0.0074
# 6 0.0000 0.0000 0.0000 -0.0001 0.0074 17.9324
#
#
#
# Elastic Compliance Matrix: (Units=1/GPa)
#
#
# Indices 1 2 3 4 5 6 
#
# 1 0.022670 -0.005212 -0.002151 -0.000012 0.000000 0.000000
# 2 -0.005212 0.022670 -0.002151 0.000012 0.000000 0.000000
# 3 -0.002151 -0.002151 0.008398 0.000000 0.000000 0.000000
# 4 -0.000012 0.000012 0.000000 0.056134 0.000000 0.000000
# 5 0.000000 0.000000 0.000000 0.000000 0.056134 -0.000023
# 6 0.000000 0.000000 0.000000 0.000000 -0.000023 0.055765
#
#
# Mechanical properties :
#
#
# Convention : Reuss Voigt Hill
#
# Bulk Modulus (GPa) = 28.81208 34.67172 31.74190
# Shear Modulus (GPa) = 19.81221 22.72214 21.26717
#
# Velocity S-wave (km/s) = 3.27197 3.50402 3.38998
# Velocity P-wave (km/s) = 5.46290 5.92505 5.69866
#
# Compressibility (1/GPa) = 0.03470767
#
# Stress axis : x y z
#
# Youngs Moduli (GPa) = 44.11094 44.11094 119.08079
#
# Poissons Ratio (x) = 0.22992 0.25619
# Poissons Ratio (y) = 0.22992 0.25619
# Poissons Ratio (z) = 0.09490 0.09490
#
# Static dielectric constant tensor:
#      x y z
#    x 1.669730 0.000000 0.000000 
#    y 0.000000 1.669730 0.000000 
#    z 0.000000 0.000000 1.694340 
# 
# From -- ./inp_files/4711.got.cif
#   From: 2010.05.17/outbox.cif.g08.bks.cpg/sg167_3_cif.got.tgz:4711.got - 2010.05.20 11:09:15.
