data_PCOD9579133
_publ_section_title
;
Structure prediction by ZEFSAII (Michael W. Deem and Ramdas Pophale) SiO2 
 PCOD9579133
Probable space group: R -3 M
;
_chemical_formula_sum "Si O2"
_cell_formula_units_Z 252
_cell_length_a 28.613611
_cell_length_b 28.613611
_cell_length_c 19.829988
_cell_angle_alpha 90.000000
_cell_angle_beta 90.000000
_cell_angle_gamma 120.000000
_cell_volume 14060.424101
_symmetry_space_group_name_H-M "R -3 M"
_symmetry_group_IT_number 166
_symmetry_cell_setting 'hexagonal'
loop_
_space_group_symop_operation_xyz
x,y,z
-y,x-y,z
-x+y,-x,z
x-y,-y,-z
-x,-x+y,-z
y,x,-z
-x,-y,-z
y,-x+y,-z
x-y,x,-z
-x+y,y,z
x,x-y,z
-y,-x,z
2/3+x,1/3+y,1/3+z
2/3-y,1/3+x-y,1/3+z
2/3-x+y,1/3-x,1/3+z
2/3+x-y,1/3-y,1/3-z
2/3-x,1/3-x+y,1/3-z
2/3+y,1/3+x,1/3-z
2/3-x,1/3-y,1/3-z
2/3+y,1/3-x+y,1/3-z
2/3+x-y,1/3+x,1/3-z
2/3-x+y,1/3+y,1/3+z
2/3+x,1/3+x-y,1/3+z
2/3-y,1/3-x,1/3+z
1/3+x,2/3+y,2/3+z
1/3-y,2/3+x-y,2/3+z
1/3-x+y,2/3-x,2/3+z
1/3+x-y,2/3-y,2/3-z
1/3-x,2/3-x+y,2/3-z
1/3+y,2/3+x,2/3-z
1/3-x,2/3-y,2/3-z
1/3+y,2/3-x+y,2/3-z
1/3+x-y,2/3+x,2/3-z
1/3-x+y,2/3+y,2/3+z
1/3+x,2/3+x-y,2/3+z
1/3-y,2/3-x,2/3+z
loop_
_atom_site_type_symbol
_atom_site_label
_atom_site_fract_x
_atom_site_fract_y
_atom_site_fract_z
Si Si1 0.297356 0.804731 0.410255
Si Si2 0.996422 0.390438 0.655267
Si Si3 0.906107 0.505847 0.582486
Si Si4 0.429862 0.460382 0.934402
Si Si5 0.759164 0.933207 0.913750
Si Si6 0.565160 0.543925 0.215517
Si Si7 0.516792 0.707501 0.570604
O O1 0.255818 0.744183 0.384089
O O2 0.359865 0.844706 0.393317
O O3 0.269203 0.840469 0.393675
O O4 0.298232 0.799923 0.491344
O O5 0.010196 0.343529 0.666667
O O6 0.047756 0.438388 0.615671
O O7 0.991460 0.411969 0.728059
O O8 0.944766 0.380305 0.613085
O O9 0.923371 0.461686 0.600742
O O10 0.910623 0.511903 0.501094
O O11 0.492387 0.507614 0.929896
O O12 0.417555 0.433816 0.860347
O O13 0.426378 0.426378 0.000000
O O14 0.750191 0.875096 0.933508
O O15 0.819101 0.981040 0.931424
O O16 0.502600 0.497401 0.217161
O O17 0.597791 0.513034 0.235387
O O18 0.502283 0.751142 0.599856
#
# Coordination Sequence:
#
# PCOD9579133 Si02
#       7
#    36  36  36  36  36  36  36
#     4   8  15  29  51  72  93 121 159 201 251 312
#     4  12  22  32  46  70 102 141 180 221 258 307
#     4  10  21  35  52  73 104 139 174 219 271 316
#     4   8  14  26  48  74  95 121 161 211 256 304
#     4  10  19  33  50  70  97 138 183 224 269 322
#     4   9  16  28  45  66  96 129 165 213 264 306
#     4   8  14  27  46  69  91 120 162 214 265 309
#
# _framework density 17.922644999999999
#
# number of rings (size 3 to 8) (size 9 to 14) (size 15 to 20)
#    0.000    2.714    1.429    3.429    0.000    1.714 
#    0.000    0.000    0.000    0.571    0.000    4.000 
#    0.000    0.571    0.000    0.000    0.000    0.000 
#
# Total GULP energy -467954.755269 kJ/mol
# GULP energy per Si atom -5570.889944 kJ/mol
# Density = 1.788185 g / cm^3
# Si number density = 17.922645 Si / 1000 Ang^3
#
#
#
# Elastic Constant Matrix: (Units=GPa)
#
#
# Indices 1 2 3 4 5 6 
#
# 1 67.8792 33.7605 14.9491 -0.4009 -0.0001 0.0000
# 2 33.7605 67.8792 14.9491 0.4009 0.0001 0.0000
# 3 14.9491 14.9491 57.2293 0.0000 0.0000 0.0000
# 4 -0.4009 0.4009 0.0000 13.5180 0.0000 0.0001
# 5 -0.0001 0.0001 0.0000 0.0000 13.5180 -0.4009
# 6 0.0000 0.0000 0.0000 0.0001 -0.4009 17.0593
#
#
#
# Elastic Compliance Matrix: (Units=1/GPa)
#
#
# Indices 1 2 3 4 5 6 
#
# 1 0.019994 -0.009336 -0.002784 0.000870 0.000000 0.000000
# 2 -0.009336 0.019994 -0.002784 -0.000870 0.000000 0.000000
# 3 -0.002784 -0.002784 0.018928 0.000000 0.000000 0.000000
# 4 0.000870 -0.000870 0.000000 0.074027 0.000000 0.000000
# 5 0.000000 0.000000 0.000000 0.000000 0.074027 0.001740
# 6 0.000000 0.000000 0.000000 0.000000 0.001740 0.058660
#
#
# Mechanical properties :
#
#
# Convention : Reuss Voigt Hill
#
# Bulk Modulus (GPa) = 34.35545 35.58948 34.97247
# Shear Modulus (GPa) = 16.38594 17.44100 16.91347
#
# Velocity S-wave (km/s) = 3.02695 3.12288 3.07529
# Velocity P-wave (km/s) = 5.60597 5.73616 5.67144
#
# Compressibility (1/GPa) = 0.02910746
#
# Stress axis : x y z
#
# Youngs Moduli (GPa) = 50.01564 50.01564 52.83190
#
# Poissons Ratio (x) = 0.46695 0.14708
# Poissons Ratio (y) = 0.46695 0.14708
# Poissons Ratio (z) = 0.13924 0.13924
#
# Static dielectric constant tensor:
#      x y z
#    x 1.641770 0.000000 0.000000 
#    y 0.000000 1.641770 0.000000 
#    z 0.000000 0.000000 1.648190 
# 
# From -- ./inp_files/5884.got.cif
#   From: 2010.05.17/outbox.cif.g08.bks.cpg/sg166_3_cif.got.tgz:5884.got - 2010.05.20 11:04:41.
