data_PCOD9579168
_publ_section_title
;
Structure prediction by ZEFSAII (Michael W. Deem and Ramdas Pophale) SiO2 
 PCOD9579168
Probable space group: R -3 M
;
_chemical_formula_sum "Si O2"
_cell_formula_units_Z 108
_cell_length_a 17.479969
_cell_length_b 17.479969
_cell_length_c 21.145988
_cell_angle_alpha 90.000000
_cell_angle_beta 90.000000
_cell_angle_gamma 120.000000
_cell_volume 5595.513261
_symmetry_space_group_name_H-M "R -3 M"
_symmetry_group_IT_number 166
_symmetry_cell_setting 'hexagonal'
loop_
_space_group_symop_operation_xyz
x,y,z
-y,x-y,z
-x+y,-x,z
x-y,-y,-z
-x,-x+y,-z
y,x,-z
-x,-y,-z
y,-x+y,-z
x-y,x,-z
-x+y,y,z
x,x-y,z
-y,-x,z
2/3+x,1/3+y,1/3+z
2/3-y,1/3+x-y,1/3+z
2/3-x+y,1/3-x,1/3+z
2/3+x-y,1/3-y,1/3-z
2/3-x,1/3-x+y,1/3-z
2/3+y,1/3+x,1/3-z
2/3-x,1/3-y,1/3-z
2/3+y,1/3-x+y,1/3-z
2/3+x-y,1/3+x,1/3-z
2/3-x+y,1/3+y,1/3+z
2/3+x,1/3+x-y,1/3+z
2/3-y,1/3-x,1/3+z
1/3+x,2/3+y,2/3+z
1/3-y,2/3+x-y,2/3+z
1/3-x+y,2/3-x,2/3+z
1/3+x-y,2/3-y,2/3-z
1/3-x,2/3-x+y,2/3-z
1/3+y,2/3+x,2/3-z
1/3-x,2/3-y,2/3-z
1/3+y,2/3-x+y,2/3-z
1/3+x-y,2/3+x,2/3-z
1/3-x+y,2/3+y,2/3+z
1/3+x,2/3+x-y,2/3+z
1/3-y,2/3-x,2/3+z
loop_
_atom_site_type_symbol
_atom_site_label
_atom_site_fract_x
_atom_site_fract_y
_atom_site_fract_z
Si Si1 0.181945 0.090973 0.539751
Si Si2 0.723672 0.276329 0.651447
Si Si3 0.035292 0.237739 0.862739
Si Si4 0.803106 0.196894 0.554039
Si Si5 0.848373 0.515040 0.333334
O O1 0.150724 0.150724 0.500000
O O2 0.132190 0.066095 0.607067
O O3 0.286928 0.143464 0.556562
O O4 0.762425 0.381213 0.636202
O O5 0.770550 0.229451 0.615284
O O6 0.096217 0.192434 0.858934
O O7 0.089949 0.333334 0.833334
O O8 0.949592 0.191915 0.821164
O O9 0.014672 0.237706 0.936735
O O10 0.752914 0.505828 0.343538
#
# Coordination Sequence:
#
# PCOD9579168 Si02
#       5
#    18  18  36  18  18
#     4  12  23  46  71  94 136 174 227 274 327 392
#     4  10  22  44  72  98 133 172 215 274 339 393
#     4  10  22  42  61  92 137 174 211 271 332 384
#     4  12  23  41  64 106 125 170 223 272 325 394
#     4  10  19  38  66  93 122 166 216 262 322 395
#
# _framework density 19.301179000000001
#
# number of rings (size 3 to 8) (size 9 to 14) (size 15 to 20)
#    0.333    1.000    3.333    2.833    0.000    0.000 
#   13.000    0.000    0.000    0.000    0.000    0.000 
#    0.000    0.000    0.000    0.000    0.000    0.000 
#
# Total GULP energy -200612.582971 kJ/mol
# GULP energy per Si atom -5572.571749 kJ/mol
# Density = 1.925725 g / cm^3
# Si number density = 19.301179 Si / 1000 Ang^3
#
#
#
# Elastic Constant Matrix: (Units=GPa)
#
#
# Indices 1 2 3 4 5 6 
#
# 1 97.7404 56.7535 52.5509 13.2344 0.0002 0.0000
# 2 56.7535 97.7404 52.5509 -13.2344 -0.0002 0.0000
# 3 52.5509 52.5509 149.8100 0.0000 0.0000 0.0000
# 4 13.2344 -13.2344 0.0000 36.1089 0.0000 -0.0002
# 5 0.0002 -0.0002 0.0000 0.0000 36.1089 13.2344
# 6 0.0000 0.0000 0.0000 -0.0002 13.2344 20.4934
#
#
#
# Elastic Compliance Matrix: (Units=1/GPa)
#
#
# Indices 1 2 3 4 5 6 
#
# 1 0.020233 -0.011731 -0.002982 -0.011715 0.000000 0.000000
# 2 -0.011731 0.020233 -0.002982 0.011715 0.000000 0.000000
# 3 -0.002982 -0.002982 0.008767 0.000000 0.000000 0.000000
# 4 -0.011715 0.011715 0.000000 0.036281 0.000000 0.000000
# 5 0.000000 0.000000 0.000000 0.000000 0.036281 -0.023430
# 6 0.000000 0.000000 0.000000 0.000000 -0.023430 0.063927
#
#
# Mechanical properties :
#
#
# Convention : Reuss Voigt Hill
#
# Bulk Modulus (GPa) = 72.24598 74.33349 73.28974
# Shear Modulus (GPa) = 22.15068 30.77127 26.46098
#
# Velocity S-wave (km/s) = 3.39135 3.99716 3.70665
# Velocity P-wave (km/s) = 7.26960 7.73945 7.50820
#
# Compressibility (1/GPa) = 0.01384160
#
# Stress axis : x y z
#
# Youngs Moduli (GPa) = 49.42541 49.42541 114.05972
#
# Poissons Ratio (x) = 0.57981 0.34015
# Poissons Ratio (y) = 0.57981 0.34015
# Poissons Ratio (z) = 0.14740 0.14740
#
# Static dielectric constant tensor:
#      x y z
#    x 1.645650 0.000000 0.000000 
#    y 0.000000 1.645650 0.000000 
#    z 0.000000 0.000000 1.657960 
# 
# From -- ./inp_files/6376.got.cif
#   From: 2010.05.17/outbox.cif.g08.bks.cpg/sg166_4_cif.got.tgz:6376.got - 2010.05.20 11:04:41.
