data_PCOD9579752
_publ_section_title
;
Structure prediction by ZEFSAII (Michael W. Deem and Ramdas Pophale) SiO2 
 PCOD9579752
Probable space group: P 6
;
_chemical_formula_sum "Si O2"
_cell_formula_units_Z 36
_cell_length_a 10.425018
_cell_length_b 10.425018
_cell_length_c 16.917386
_cell_angle_alpha 90.000000
_cell_angle_beta 90.000000
_cell_angle_gamma 120.000000
_cell_volume 1592.272950
_symmetry_space_group_name_H-M "P 6"
_symmetry_group_IT_number 168
_symmetry_cell_setting 'hexagonal'
loop_
_space_group_symop_operation_xyz
x,y,z
x-y,x,z
-y,x-y,z
-x,-y,z
-x+y,-x,z
y,-x+y,z
loop_
_atom_site_type_symbol
_atom_site_label
_atom_site_fract_x
_atom_site_fract_y
_atom_site_fract_z
Si Si1 0.342128 0.257650 0.686710
Si Si2 0.738029 0.074450 0.194984
Si Si3 0.256265 0.912657 0.855803
Si Si4 0.257650 0.915522 0.024896
Si Si5 0.074450 0.336421 0.516622
Si Si6 0.339538 0.835313 0.355803
O O1 0.202185 0.284260 0.686790
O O2 0.423427 0.316205 0.771157
O O3 0.418189 0.318247 0.601724
O O4 0.681753 0.099942 0.109882
O O5 0.666765 0.096166 0.273180
O O6 0.911472 0.195190 0.197100
O O7 0.080130 0.795589 0.855803
O O8 0.316205 0.892778 0.940448
O O9 0.082075 0.797815 0.024816
O O10 0.195190 0.283718 0.514506
O O11 0.096166 0.429400 0.438426
O O12 0.196588 0.670818 0.355803
#
# Coordination Sequence:
#
# PCOD9579752 Si02
#       6
#     6   6   6   6   6   6
#     4   8  13  20  34  60  93 126 151 175 214 269
#     4  10  19  32  52  77 102 124 151 192 243 290
#     4   8  11  16  28  52  90 128 154 170 199 260
#     4   8  13  20  34  60  93 126 151 175 214 269
#     4  10  19  32  52  77 102 124 151 192 243 290
#     4  10  24  40  50  66  86 124 166 208 234 278
#
# _framework density 22.609186999999999
#
# number of rings (size 3 to 8) (size 9 to 14) (size 15 to 20)
#    0.333    2.667    0.000    1.833    0.000    8.000 
#    0.000    1.667    0.000    0.000    0.000    2.333 
#    0.000   13.333    0.000    0.000    0.000    0.000 
#
# Total GULP energy -200562.258071 kJ/mol
# GULP energy per Si atom -5571.173835 kJ/mol
# Density = 2.255773 g / cm^3
# Si number density = 22.609187 Si / 1000 Ang^3
#
#
#
# Elastic Constant Matrix: (Units=GPa)
#
#
# Indices 1 2 3 4 5 6 
#
# 1 43.1404 -0.9271 48.9231 0.0000 0.0000 0.0000
# 2 -0.9271 43.1404 48.9231 0.0000 0.0000 0.0000
# 3 48.9231 48.9231 311.1942 0.0000 0.0000 0.0000
# 4 0.0000 0.0000 0.0000 -61.6019 0.0000 0.0000
# 5 0.0000 0.0000 0.0000 0.0000 -61.6019 0.0000
# 6 0.0000 0.0000 0.0000 0.0000 0.0000 22.0337
#
#
#
# Elastic Compliance Matrix: (Units=1/GPa)
#
#
# Indices 1 2 3 4 5 6 
#
# 1 0.029981 0.007289 -0.005859 0.000000 0.000000 0.000000
# 2 0.007289 0.029981 -0.005859 0.000000 0.000000 0.000000
# 3 -0.005859 -0.005859 0.005056 0.000000 0.000000 0.000000
# 4 0.000000 0.000000 0.000000 -0.016233 0.000000 0.000000
# 5 0.000000 0.000000 0.000000 0.000000 -0.016233 0.000000
# 6 0.000000 0.000000 0.000000 0.000000 0.000000 0.045385
#
#
# Mechanical properties :
#
#
# Convention : Reuss Voigt Hill
#
# Bulk Modulus (GPa) = 17.80644 65.70147 41.75396
# Shear Modulus (GPa) = 47.38607 -0.19696 23.59456
#
# Velocity S-wave (km/s) = 4.58304 -0.29547 3.23396
# Velocity P-wave (km/s) = 5.99154 5.38575 5.69670
#
# Compressibility (1/GPa) = 0.05615944
#
# Stress axis : x y z
#
# Youngs Moduli (GPa) = 33.35391 33.35391 197.79548
#
# Poissons Ratio (x) = -0.24312 1.15895
# Poissons Ratio (y) = -0.24312 1.15895
# Poissons Ratio (z) = 0.19543 0.19543
#
# Static dielectric constant tensor:
#      x y z
#    x 1.799030 0.000000 0.000000 
#    y 0.000000 1.799030 0.000000 
#    z 0.000000 0.000000 1.941780 
# 
# From -- ./inp_files/445.got.cif
#   From: 2010.05.17/outbox.cif.g08.bks.cpg/sg168_cif.got.tgz:445.got - 2010.05.20 11:12:33.
