data_PCOD9579579
_publ_section_title
;
Structure prediction by ZEFSAII (Michael W. Deem and Ramdas Pophale) SiO2 
 PCOD9579579
Probable space group: R -3 C 
;
_chemical_formula_sum "Si O2"
_cell_formula_units_Z 162
_cell_length_a 21.764455
_cell_length_b 21.764455
_cell_length_c 21.112926
_cell_angle_alpha 90.000000
_cell_angle_beta 90.000000
_cell_angle_gamma 120.000000
_cell_volume 8661.131856
_symmetry_space_group_name_H-M "R -3 C "
_symmetry_group_IT_number 167
_symmetry_cell_setting 'hexagonal'
loop_
_space_group_symop_operation_xyz
x,y,z
-y,x-y,z
-x+y,-x,z
x-y,-y,1/2-z
-x,-x+y,1/2-z
y,x,1/2-z
-x,-y,-z
y,-x+y,-z
x-y,x,-z
-x+y,y,1/2+z
x,x-y,1/2+z
-y,-x,1/2+z
2/3+x,1/3+y,1/3+z
2/3-y,1/3+x-y,1/3+z
2/3-x+y,1/3-x,1/3+z
2/3+x-y,1/3-y,5/6-z
2/3-x,1/3-x+y,5/6-z
2/3+y,1/3+x,5/6-z
2/3-x,1/3-y,1/3-z
2/3+y,1/3-x+y,1/3-z
2/3+x-y,1/3+x,1/3-z
2/3-x+y,1/3+y,5/6+z
2/3+x,1/3+x-y,5/6+z
2/3-y,1/3-x,5/6+z
1/3+x,2/3+y,2/3+z
1/3-y,2/3+x-y,2/3+z
1/3-x+y,2/3-x,2/3+z
1/3+x-y,2/3-y,1/6-z
1/3-x,2/3-x+y,1/6-z
1/3+y,2/3+x,1/6-z
1/3-x,2/3-y,2/3-z
1/3+y,2/3-x+y,2/3-z
1/3+x-y,2/3+x,2/3-z
1/3-x+y,2/3+y,1/6+z
1/3+x,2/3+x-y,1/6+z
1/3-y,2/3-x,1/6+z
loop_
_atom_site_type_symbol
_atom_site_label
_atom_site_fract_x
_atom_site_fract_y
_atom_site_fract_z
Si Si1 0.168710 0.768310 0.799762
Si Si2 0.699018 0.874979 0.685302
Si Si3 0.707810 0.639565 0.984167
Si Si4 0.710850 0.666667 0.416667
Si Si5 0.079752 0.917665 0.769296
O O1 0.166667 0.833334 0.833334
O O2 0.154321 0.780887 0.726967
O O3 0.102180 0.696154 0.825934
O O4 0.235957 0.762699 0.825188
O O5 0.698752 0.810081 0.649884
O O6 0.704864 0.932439 0.634865
O O7 0.767889 0.904715 0.729709
O O8 0.697844 0.666667 0.916667
O O9 0.715579 0.690993 0.041547
O O10 0.000000 0.895721 0.750000
O O11 0.130834 0.000000 0.750000
#
# Coordination Sequence:
#
# PCOD9579579 Si02
#       5
#    36  36  36  18  36
#     4  10  22  39  59  86 122 161 196 250 313 364
#     4  11  24  39  59  90 124 162 201 251 317 371
#     4  12  23  41  61  91 128 158 206 255 307 375
#     4  12  24  36  62  90 122 170 204 246 314 388
#     4  11  23  39  61  86 118 159 209 255 305 357
#
# _framework density 18.704253000000001
#
# number of rings (size 3 to 8) (size 9 to 14) (size 15 to 20)
#    0.000    0.889    5.556    2.889    9.333    0.000 
#    0.000    0.000    0.000    0.000    0.000    0.000 
#    0.000    7.111    0.000    0.000    0.000    0.000 
#
# Total GULP energy -301020.043474 kJ/mol
# GULP energy per Si atom -5574.445250 kJ/mol
# Density = 1.866168 g / cm^3
# Si number density = 18.704253 Si / 1000 Ang^3
#
#
#
# Elastic Constant Matrix: (Units=GPa)
#
#
# Indices 1 2 3 4 5 6 
#
# 1 67.8758 20.6803 14.3220 1.1085 -0.0003 0.0000
# 2 20.6803 67.8758 14.3220 -1.1085 0.0003 0.0000
# 3 14.3220 14.3220 80.4803 0.0000 0.0000 0.0000
# 4 1.1085 -1.1085 0.0000 28.2792 0.0000 0.0003
# 5 -0.0003 0.0003 0.0000 0.0000 28.2792 1.1085
# 6 0.0000 0.0000 0.0000 0.0003 1.1085 23.5977
#
#
#
# Elastic Compliance Matrix: (Units=1/GPa)
#
#
# Indices 1 2 3 4 5 6 
#
# 1 0.016605 -0.004623 -0.002132 -0.000832 0.000000 0.000000
# 2 -0.004623 0.016605 -0.002132 0.000832 0.000000 0.000000
# 3 -0.002132 -0.002132 0.013184 0.000000 0.000000 0.000000
# 4 -0.000832 0.000832 0.000000 0.035427 0.000000 0.000000
# 5 0.000000 0.000000 0.000000 0.000000 0.035427 -0.001664
# 6 0.000000 0.000000 0.000000 0.000000 -0.001664 0.042455
#
#
# Mechanical properties :
#
#
# Convention : Reuss Voigt Hill
#
# Bulk Modulus (GPa) = 34.94161 34.98671 34.96416
# Shear Modulus (GPa) = 26.73551 27.15840 26.94695
#
# Velocity S-wave (km/s) = 3.78482 3.81463 3.79975
# Velocity P-wave (km/s) = 6.14991 6.17638 6.16316
#
# Compressibility (1/GPa) = 0.02861917
#
# Stress axis : x y z
#
# Youngs Moduli (GPa) = 60.22369 60.22369 75.84784
#
# Poissons Ratio (x) = 0.27840 0.16173
# Poissons Ratio (y) = 0.27840 0.16173
# Poissons Ratio (z) = 0.12841 0.12841
#
# Static dielectric constant tensor:
#      x y z
#    x 3.623790 0.000000 0.000000 
#    y 0.000000 3.623790 0.000000 
#    z 0.000000 0.000000 1.707260 
# 
# From -- ./inp_files/4421.got.cif
#   From: 2010.05.17/outbox.cif.g08.bks.cpg/sg167_3_cif.got.tgz:4421.got - 2010.05.20 11:09:15.
