data_PCOD9579635
_publ_section_title
;
Structure prediction by ZEFSAII (Michael W. Deem and Ramdas Pophale) SiO2 
 PCOD9579635
Probable space group: R -3 C 
;
_chemical_formula_sum "Si O2"
_cell_formula_units_Z 162
_cell_length_a 22.006881
_cell_length_b 22.006881
_cell_length_c 18.468918
_cell_angle_alpha 90.000000
_cell_angle_beta 90.000000
_cell_angle_gamma 120.000000
_cell_volume 7746.206581
_symmetry_space_group_name_H-M "R -3 C "
_symmetry_group_IT_number 167
_symmetry_cell_setting 'hexagonal'
loop_
_space_group_symop_operation_xyz
x,y,z
-y,x-y,z
-x+y,-x,z
x-y,-y,1/2-z
-x,-x+y,1/2-z
y,x,1/2-z
-x,-y,-z
y,-x+y,-z
x-y,x,-z
-x+y,y,1/2+z
x,x-y,1/2+z
-y,-x,1/2+z
2/3+x,1/3+y,1/3+z
2/3-y,1/3+x-y,1/3+z
2/3-x+y,1/3-x,1/3+z
2/3+x-y,1/3-y,5/6-z
2/3-x,1/3-x+y,5/6-z
2/3+y,1/3+x,5/6-z
2/3-x,1/3-y,1/3-z
2/3+y,1/3-x+y,1/3-z
2/3+x-y,1/3+x,1/3-z
2/3-x+y,1/3+y,5/6+z
2/3+x,1/3+x-y,5/6+z
2/3-y,1/3-x,5/6+z
1/3+x,2/3+y,2/3+z
1/3-y,2/3+x-y,2/3+z
1/3-x+y,2/3-x,2/3+z
1/3+x-y,2/3-y,1/6-z
1/3-x,2/3-x+y,1/6-z
1/3+y,2/3+x,1/6-z
1/3-x,2/3-y,2/3-z
1/3+y,2/3-x+y,2/3-z
1/3+x-y,2/3+x,2/3-z
1/3-x+y,2/3+y,1/6+z
1/3+x,2/3+x-y,1/6+z
1/3-y,2/3-x,1/6+z
loop_
_atom_site_type_symbol
_atom_site_label
_atom_site_fract_x
_atom_site_fract_y
_atom_site_fract_z
Si Si1 0.540843 0.386475 0.430241
Si Si2 0.922198 0.295117 0.151990
Si Si3 0.333334 0.078191 0.916667
Si Si4 0.121446 0.648312 0.501449
Si Si5 0.566052 0.434715 0.263704
O O1 0.472709 0.389918 0.457751
O O2 0.602449 0.444801 0.478859
O O3 0.555434 0.407278 0.345790
O O4 0.525376 0.306871 0.435308
O O5 0.910579 0.333334 0.083334
O O6 0.991601 0.361288 0.183788
O O7 0.938221 0.232290 0.142194
O O8 0.268092 0.088920 0.929396
O O9 0.125717 0.666667 0.416667
O O10 0.165939 0.718077 0.548618
#
# Coordination Sequence:
#
# PCOD9579635 Si02
#       5
#    36  36  18  36  36
#     4  11  25  48  68 102 138 190 239 298 358 425
#     4  11  25  43  69 105 145 181 234 298 370 425
#     4  10  24  40  68 104 138 178 222 294 360 424
#     4  12  27  43  72 104 139 191 240 295 354 430
#     4  11  25  44  72  98 143 184 241 291 359 425
#
# _framework density 20.913461999999999
#
# number of rings (size 3 to 8) (size 9 to 14) (size 15 to 20)
#    0.000    0.889    3.333    2.000   14.000    0.000 
#    1.333    1.111    0.000    0.000    0.000    0.000 
#    0.000    0.000    0.000    0.000    0.000    0.000 
#
# Total GULP energy -301382.995365 kJ/mol
# GULP energy per Si atom -5581.166581 kJ/mol
# Density = 2.086586 g / cm^3
# Si number density = 20.913462 Si / 1000 Ang^3
#
#
#
# Elastic Constant Matrix: (Units=GPa)
#
#
# Indices 1 2 3 4 5 6 
#
# 1 65.2548 14.5806 7.3977 -17.2036 0.0020 0.0000
# 2 14.5806 65.2548 7.3977 17.2036 -0.0020 0.0000
# 3 7.3977 7.3977 69.5837 0.0000 0.0000 0.0000
# 4 -17.2036 17.2036 0.0000 10.3599 0.0000 -0.0020
# 5 0.0020 -0.0020 0.0000 0.0000 10.3599 -17.2036
# 6 0.0000 0.0000 0.0000 -0.0020 -17.2036 25.3371
#
#
#
# Elastic Compliance Matrix: (Units=1/GPa)
#
#
# Indices 1 2 3 4 5 6 
#
# 1 -0.070984 0.083762 -0.001358 -0.256969 0.000029 0.000000
# 2 0.083762 -0.070984 -0.001358 0.256969 -0.000029 0.000000
# 3 -0.001358 -0.001358 0.014660 0.000000 0.000000 0.000000
# 4 -0.256969 0.256969 0.000000 -0.756917 0.000000 -0.000058
# 5 0.000029 -0.000029 0.000000 0.000000 -0.756918 -0.513939
# 6 0.000000 0.000000 0.000000 -0.000058 -0.513939 -0.309491
#
#
# Mechanical properties :
#
#
# Convention : Reuss Voigt Hill
#
# Bulk Modulus (GPa) = 28.75103 28.76059 28.75581
# Shear Modulus (GPa) = -2.37967 20.59254 9.10644
#
# Velocity S-wave (km/s) = -1.06787 3.14133 2.08897
# Velocity P-wave (km/s) = 3.50100 5.19031 4.42698
#
# Compressibility (1/GPa) = 0.03478136
#
# Stress axis : x y z
#
# Youngs Moduli (GPa) = -14.08767 -14.08767 68.21272
#
# Poissons Ratio (x) = 1.18001 0.09266
# Poissons Ratio (y) = 1.18001 0.09266
# Poissons Ratio (z) = -0.01914 -0.01914
#
# Static dielectric constant tensor:
#      x y z
#    x 1.786220 0.000000 0.000000 
#    y 0.000000 1.786220 0.000000 
#    z 0.000000 0.000000 2.048270 
# 
# From -- ./inp_files/3416.got.cif
#   From: 2010.05.17/outbox.cif.g08.bks.cpg/sg167_2_cif.got.tgz:3416.got - 2010.05.20 11:09:15.
