data_PCOD9579931
_publ_section_title
;
Structure prediction by ZEFSAII (Michael W. Deem and Ramdas Pophale) SiO2 
 PCOD9579931
Probable space group: P 61
;
_chemical_formula_sum "Si O2"
_cell_formula_units_Z 36
_cell_length_a 9.446069
_cell_length_b 9.446069
_cell_length_c 20.501527
_cell_angle_alpha 90.000000
_cell_angle_beta 90.000000
_cell_angle_gamma 120.000000
_cell_volume 1584.233047
_symmetry_space_group_name_H-M "P 61"
_symmetry_group_IT_number 169
_symmetry_cell_setting 'hexagonal'
loop_
_space_group_symop_operation_xyz
x,y,z
x-y,x,1/6+z
-y,x-y,1/3+z
-x,-y,1/2+z
-x+y,-x,2/3+z
y,-x+y,5/6+z
loop_
_atom_site_type_symbol
_atom_site_label
_atom_site_fract_x
_atom_site_fract_y
_atom_site_fract_z
Si Si1 0.665020 0.359931 0.925310
Si Si2 0.119974 0.740268 0.660713
Si Si3 0.020095 0.401216 0.617110
Si Si4 0.983008 0.585491 0.408208
Si Si5 0.536491 0.750336 0.557932
Si Si6 0.403207 0.062612 0.433274
O O1 0.517613 0.235447 0.879414
O O2 0.350808 0.523554 0.752969
O O3 0.699575 0.544466 0.916964
O O4 0.589382 0.316413 0.997407
O O5 0.071750 0.591677 0.609582
O O6 0.241075 0.904654 0.622556
O O7 0.947738 0.699153 0.695616
O O8 0.157590 0.366944 0.592848
O O9 0.015791 0.378448 0.695399
O O10 0.894727 0.386828 0.416423
O O11 0.966451 0.631510 0.333512
O O12 0.461317 0.599719 0.608313
#
# Coordination Sequence:
#
# PCOD9579931 Si02
#       6
#     6   6   6   6   6   6
#     4  10  22  35  66  93 124 171 217 260 332 392
#     4  10  21  37  59  99 125 165 217 265 327 384
#     4  10  21  41  61  93 132 168 217 276 318 394
#     4  12  21  36  68  98 120 175 221 262 329 411
#     4  10  22  40  61  95 135 157 213 285 312 382
#     4  10  21  39  63  90 130 166 217 270 324 385
#
# _framework density 22.723931
#
# number of rings (size 3 to 8) (size 9 to 14) (size 15 to 20)
#    0.000    2.000    3.333    2.000    4.667    0.000 
#    0.000    0.000    3.667    0.000    0.000    0.000 
#    0.000    0.000    0.000    0.000    0.000    0.000 
#
# Total GULP energy -200795.759699 kJ/mol
# GULP energy per Si atom -5577.659992 kJ/mol
# Density = 2.267221 g / cm^3
# Si number density = 22.723931 Si / 1000 Ang^3
#
#
#
# Elastic Constant Matrix: (Units=GPa)
#
#
# Indices 1 2 3 4 5 6 
#
# 1 88.8356 15.3674 15.1326 0.0000 0.0000 0.0000
# 2 15.3674 88.8356 15.1326 0.0000 0.0000 0.0000
# 3 15.1326 15.1326 50.5599 0.0000 0.0000 0.0000
# 4 0.0000 0.0000 0.0000 21.9395 0.0000 0.0000
# 5 0.0000 0.0000 0.0000 0.0000 21.9395 0.0000
# 6 0.0000 0.0000 0.0000 0.0000 0.0000 36.7341
#
#
#
# Elastic Compliance Matrix: (Units=1/GPa)
#
#
# Indices 1 2 3 4 5 6 
#
# 1 0.012061 -0.001551 -0.003146 0.000000 0.000000 0.000000
# 2 -0.001551 0.012061 -0.003146 0.000000 0.000000 0.000000
# 3 -0.003146 -0.003146 0.021662 0.000000 0.000000 0.000000
# 4 0.000000 0.000000 0.000000 0.045580 0.000000 0.000000
# 5 0.000000 0.000000 0.000000 0.000000 0.045580 0.000000
# 6 0.000000 0.000000 0.000000 0.000000 0.000000 0.027223
#
#
# Mechanical properties :
#
#
# Convention : Reuss Voigt Hill
#
# Bulk Modulus (GPa) = 33.22345 35.49959 34.36152
# Shear Modulus (GPa) = 26.33206 28.29587 27.31397
#
# Velocity S-wave (km/s) = 3.40778 3.53257 3.47074
# Velocity P-wave (km/s) = 5.48964 5.68285 5.58708
#
# Compressibility (1/GPa) = 0.03009922
#
# Stress axis : x y z
#
# Youngs Moduli (GPa) = 82.91305 82.91305 46.16470
#
# Poissons Ratio (x) = 0.12856 0.14522
# Poissons Ratio (y) = 0.12856 0.14522
# Poissons Ratio (z) = 0.26082 0.26082
#
# Static dielectric constant tensor:
#      x y z
#    x 1.928210 0.000000 0.000000 
#    y 0.000000 1.928210 0.000000 
#    z 0.000000 0.000000 1.886780 
# 
# From -- ./inp_files/1506.got.cif
#   From: 2010.05.17/outbox.cif.g08.bks.cpg/sg169_cif.got.tgz:1506.got - 2010.05.20 11:12:54.
