data_PCOD9579486
_publ_section_title
;
Structure prediction by ZEFSAII (Michael W. Deem and Ramdas Pophale) SiO2 
 PCOD9579486
Probable space group: R -3 C 
;
_chemical_formula_sum "Si O2"
_cell_formula_units_Z 216
_cell_length_a 23.500608
_cell_length_b 23.500608
_cell_length_c 24.094294
_cell_angle_alpha 90.000000
_cell_angle_beta 90.000000
_cell_angle_gamma 120.000000
_cell_volume 11523.994271
_symmetry_space_group_name_H-M "R -3 C "
_symmetry_group_IT_number 167
_symmetry_cell_setting 'hexagonal'
loop_
_space_group_symop_operation_xyz
x,y,z
-y,x-y,z
-x+y,-x,z
x-y,-y,1/2-z
-x,-x+y,1/2-z
y,x,1/2-z
-x,-y,-z
y,-x+y,-z
x-y,x,-z
-x+y,y,1/2+z
x,x-y,1/2+z
-y,-x,1/2+z
2/3+x,1/3+y,1/3+z
2/3-y,1/3+x-y,1/3+z
2/3-x+y,1/3-x,1/3+z
2/3+x-y,1/3-y,5/6-z
2/3-x,1/3-x+y,5/6-z
2/3+y,1/3+x,5/6-z
2/3-x,1/3-y,1/3-z
2/3+y,1/3-x+y,1/3-z
2/3+x-y,1/3+x,1/3-z
2/3-x+y,1/3+y,5/6+z
2/3+x,1/3+x-y,5/6+z
2/3-y,1/3-x,5/6+z
1/3+x,2/3+y,2/3+z
1/3-y,2/3+x-y,2/3+z
1/3-x+y,2/3-x,2/3+z
1/3+x-y,2/3-y,1/6-z
1/3-x,2/3-x+y,1/6-z
1/3+y,2/3+x,1/6-z
1/3-x,2/3-y,2/3-z
1/3+y,2/3-x+y,2/3-z
1/3+x-y,2/3+x,2/3-z
1/3-x+y,2/3+y,1/6+z
1/3+x,2/3+x-y,1/6+z
1/3-y,2/3-x,1/6+z
loop_
_atom_site_type_symbol
_atom_site_label
_atom_site_fract_x
_atom_site_fract_y
_atom_site_fract_z
Si Si1 0.688975 0.050546 0.023605
Si Si2 0.291068 0.155888 0.859813
Si Si3 0.255924 0.313721 0.212616
Si Si4 0.155163 0.081529 0.815089
Si Si5 0.568864 0.056127 0.975985
Si Si6 0.746474 0.259855 0.145349
O O1 0.666667 0.017264 0.083334
O O2 0.760295 0.113896 0.013543
O O3 0.632639 0.069465 0.011615
O O4 0.679931 0.994195 0.981297
O O5 0.333334 0.180595 0.916667
O O6 0.296064 0.095758 0.832920
O O7 0.211803 0.123238 0.859723
O O8 0.255209 0.255209 0.250000
O O9 0.247865 0.363632 0.252219
O O10 0.181872 0.093618 0.751094
O O11 0.100281 0.102780 0.817294
O O12 0.121437 0.003722 0.821022
O O13 0.566372 0.122260 0.977592
O O14 0.500000 0.000000 0.000000
#
# Coordination Sequence:
#
# PCOD9579486 Si02
#       6
#    36  36  36  36  36  36
#     4  11  22  40  63  89 123 163 209 262 324 382
#     4  12  24  41  62  90 128 166 209 264 327 384
#     4  10  24  40  60  87 122 165 213 263 316 388
#     4  10  21  35  60  90 123 164 201 264 315 377
#     4  11  21  35  57  86 119 162 202 252 312 386
#     4  10  20  36  59  89 125 159 211 254 319 381
#
# _framework density 18.743500999999998
#
# number of rings (size 3 to 8) (size 9 to 14) (size 15 to 20)
#    0.000    1.333    1.667    5.333    7.000    1.333 
#    3.000    0.000    0.000    0.000    0.000    0.000 
#    0.000    2.667    0.000    0.000    0.000    0.000 
#
# Total GULP energy -401577.530554 kJ/mol
# GULP energy per Si atom -5577.465702 kJ/mol
# Density = 1.870084 g / cm^3
# Si number density = 18.743501 Si / 1000 Ang^3
#
#
#
# Elastic Constant Matrix: (Units=GPa)
#
#
# Indices 1 2 3 4 5 6 
#
# 1 108.0153 41.5860 35.7057 4.1612 0.0001 0.0000
# 2 41.5860 108.0153 35.7057 -4.1612 -0.0001 0.0000
# 3 35.7057 35.7057 78.8487 0.0000 0.0000 0.0000
# 4 4.1612 -4.1612 0.0000 30.3621 0.0000 -0.0001
# 5 0.0001 -0.0001 0.0000 0.0000 30.3621 4.1612
# 6 0.0000 0.0000 0.0000 -0.0001 4.1612 33.2146
#
#
#
# Elastic Compliance Matrix: (Units=1/GPa)
#
#
# Indices 1 2 3 4 5 6 
#
# 1 0.011922 -0.003394 -0.003862 -0.002099 0.000000 0.000000
# 2 -0.003394 0.011922 -0.003862 0.002099 0.000000 0.000000
# 3 -0.003862 -0.003862 0.016180 0.000000 0.000000 0.000000
# 4 -0.002099 0.002099 0.000000 0.033511 0.000000 0.000000
# 5 0.000000 0.000000 0.000000 0.000000 0.033511 -0.004198
# 6 0.000000 0.000000 0.000000 0.000000 -0.004198 0.030633
#
#
# Mechanical properties :
#
#
# Convention : Reuss Voigt Hill
#
# Bulk Modulus (GPa) = 56.21536 57.87490 57.04513
# Shear Modulus (GPa) = 30.14861 30.91324 30.53092
#
# Velocity S-wave (km/s) = 4.01494 4.06554 4.04032
# Velocity P-wave (km/s) = 7.17984 7.27890 7.22954
#
# Compressibility (1/GPa) = 0.01778873
#
# Stress axis : x y z
#
# Youngs Moduli (GPa) = 83.87713 83.87713 61.80474
#
# Poissons Ratio (x) = 0.28471 0.23867
# Poissons Ratio (y) = 0.28471 0.23867
# Poissons Ratio (z) = 0.32391 0.32391
#
# Static dielectric constant tensor:
#      x y z
#    x 1.662470 0.000000 0.000000 
#    y 0.000000 1.662470 0.000000 
#    z 0.000000 0.000000 1.720660 
# 
# From -- ./inp_files/5529.got.cif
#   From: 2010.05.17/outbox.cif.g08.bks.cpg/sg167_3_cif.got.tgz:5529.got - 2010.05.20 11:09:15.
