data_PCOD9579417
_publ_section_title
;
Structure prediction by ZEFSAII (Michael W. Deem and Ramdas Pophale) SiO2 
 PCOD9579417
Probable space group: R -3 C 
;
_chemical_formula_sum "Si O2"
_cell_formula_units_Z 252
_cell_length_a 31.406405
_cell_length_b 31.406405
_cell_length_c 16.787273
_cell_angle_alpha 90.000000
_cell_angle_beta 90.000000
_cell_angle_gamma 120.000000
_cell_volume 14339.936838
_symmetry_space_group_name_H-M "R -3 C "
_symmetry_group_IT_number 167
_symmetry_cell_setting 'hexagonal'
loop_
_space_group_symop_operation_xyz
x,y,z
-y,x-y,z
-x+y,-x,z
x-y,-y,1/2-z
-x,-x+y,1/2-z
y,x,1/2-z
-x,-y,-z
y,-x+y,-z
x-y,x,-z
-x+y,y,1/2+z
x,x-y,1/2+z
-y,-x,1/2+z
2/3+x,1/3+y,1/3+z
2/3-y,1/3+x-y,1/3+z
2/3-x+y,1/3-x,1/3+z
2/3+x-y,1/3-y,5/6-z
2/3-x,1/3-x+y,5/6-z
2/3+y,1/3+x,5/6-z
2/3-x,1/3-y,1/3-z
2/3+y,1/3-x+y,1/3-z
2/3+x-y,1/3+x,1/3-z
2/3-x+y,1/3+y,5/6+z
2/3+x,1/3+x-y,5/6+z
2/3-y,1/3-x,5/6+z
1/3+x,2/3+y,2/3+z
1/3-y,2/3+x-y,2/3+z
1/3-x+y,2/3-x,2/3+z
1/3+x-y,2/3-y,1/6-z
1/3-x,2/3-x+y,1/6-z
1/3+y,2/3+x,1/6-z
1/3-x,2/3-y,2/3-z
1/3+y,2/3-x+y,2/3-z
1/3+x-y,2/3+x,2/3-z
1/3-x+y,2/3+y,1/6+z
1/3+x,2/3+x-y,1/6+z
1/3-y,2/3-x,1/6+z
loop_
_atom_site_type_symbol
_atom_site_label
_atom_site_fract_x
_atom_site_fract_y
_atom_site_fract_z
Si Si1 0.728533 0.162010 0.713849
Si Si2 0.172038 0.419872 0.711627
Si Si3 0.455238 0.905910 0.802607
Si Si4 0.123714 0.314415 0.767465
Si Si5 0.160354 0.694406 0.620339
Si Si6 0.986869 0.085598 0.515683
Si Si7 0.314130 0.522694 0.995172
O O1 0.779118 0.212440 0.736406
O O2 0.742578 0.132535 0.651192
O O3 0.708552 0.139931 0.801341
O O4 0.686883 0.171304 0.677179
O O5 0.186465 0.422219 0.618017
O O6 0.130109 0.364521 0.731933
O O7 0.153837 0.457995 0.730302
O O8 0.487009 0.950824 0.861961
O O9 0.400811 0.895493 0.781480
O O10 0.451184 0.857523 0.842783
O O11 0.166667 0.333334 0.833334
O O12 0.212692 0.699036 0.646194
O O13 0.031008 0.087256 0.465451
O O14 0.015124 0.112076 0.595986
O O15 0.333334 0.554861 0.916667
#
# Coordination Sequence:
#
# PCOD9579417 Si02
#       7
#    36  36  36  36  36  36  36
#     4   9  18  32  53  80 111 140 182 232 275 331
#     4  10  19  34  56  86 110 142 184 237 280 344
#     4  11  19  33  57  87 110 145 192 238 278 347
#     4  10  21  35  52  83 112 141 184 232 291 337
#     4  10  18  34  57  86 112 143 194 236 283 341
#     4  11  20  35  55  81 119 162 204 240 285 336
#     4  11  19  32  56  83 113 147 194 239 284 327
#
# _framework density 17.573298999999999
#
# number of rings (size 3 to 8) (size 9 to 14) (size 15 to 20)
#    0.000    1.714    5.714    2.286    0.000    0.000 
#    0.000    3.571    0.000    0.000   33.429    0.000 
#    0.000    0.000    0.000    0.000    0.000    0.000 
#
# Total GULP energy -467918.574596 kJ/mol
# GULP energy per Si atom -5570.459221 kJ/mol
# Density = 1.753330 g / cm^3
# Si number density = 17.573299 Si / 1000 Ang^3
#
#
#
# Elastic Constant Matrix: (Units=GPa)
#
#
# Indices 1 2 3 4 5 6 
#
# 1 61.6163 19.5640 15.7283 -0.8973 0.0001 0.0000
# 2 19.5640 61.6163 15.7283 0.8973 -0.0001 0.0000
# 3 15.7283 15.7283 51.2436 0.0000 0.0000 0.0000
# 4 -0.8973 0.8973 0.0000 21.2588 0.0000 -0.0001
# 5 0.0001 -0.0001 0.0000 0.0000 21.2588 -0.8973
# 6 0.0000 0.0000 0.0000 -0.0001 -0.8973 21.0262
#
#
#
# Elastic Compliance Matrix: (Units=1/GPa)
#
#
# Indices 1 2 3 4 5 6 
#
# 1 0.018902 -0.004921 -0.004291 0.001006 0.000000 0.000000
# 2 -0.004921 0.018902 -0.004291 -0.001006 0.000000 0.000000
# 3 -0.004291 -0.004291 0.022149 0.000000 0.000000 0.000000
# 4 0.001006 -0.001006 0.000000 0.047124 0.000000 0.000000
# 5 0.000000 0.000000 0.000000 0.000000 0.047124 0.002011
# 6 0.000000 0.000000 0.000000 0.000000 0.002011 0.047646
#
#
# Mechanical properties :
#
#
# Convention : Reuss Voigt Hill
#
# Bulk Modulus (GPa) = 30.35261 30.72413 30.53837
# Shear Modulus (GPa) = 20.84763 20.93914 20.89339
#
# Velocity S-wave (km/s) = 3.44804 3.45560 3.45182
# Velocity P-wave (km/s) = 5.75860 5.78299 5.77081
#
# Compressibility (1/GPa) = 0.03294609
#
# Stress axis : x y z
#
# Youngs Moduli (GPa) = 52.90462 52.90462 45.14905
#
# Poissons Ratio (x) = 0.26034 0.19374
# Poissons Ratio (y) = 0.26034 0.19374
# Poissons Ratio (z) = 0.22703 0.22703
#
# Static dielectric constant tensor:
#      x y z
#    x 1.605050 0.000000 0.000000 
#    y 0.000000 1.605050 0.000000 
#    z 0.000000 0.000000 1.654810 
# 
# From -- ./inp_files/3699.got.cif
#   From: 2010.05.17/outbox.cif.g08.bks.cpg/sg167_2_cif.got.tgz:3699.got - 2010.05.20 11:09:15.
