data_PCOD9579080
_publ_section_title
;
Structure prediction by ZEFSAII (Michael W. Deem and Ramdas Pophale) SiO2 
 PCOD9579080
Probable space group: R -3 M
;
_chemical_formula_sum "Si O2"
_cell_formula_units_Z 216
_cell_length_a 23.416139
_cell_length_b 23.416139
_cell_length_c 25.675184
_cell_angle_alpha 90.000000
_cell_angle_beta 90.000000
_cell_angle_gamma 120.000000
_cell_volume 12191.994868
_symmetry_space_group_name_H-M "R -3 M"
_symmetry_group_IT_number 166
_symmetry_cell_setting 'hexagonal'
loop_
_space_group_symop_operation_xyz
x,y,z
-y,x-y,z
-x+y,-x,z
x-y,-y,-z
-x,-x+y,-z
y,x,-z
-x,-y,-z
y,-x+y,-z
x-y,x,-z
-x+y,y,z
x,x-y,z
-y,-x,z
2/3+x,1/3+y,1/3+z
2/3-y,1/3+x-y,1/3+z
2/3-x+y,1/3-x,1/3+z
2/3+x-y,1/3-y,1/3-z
2/3-x,1/3-x+y,1/3-z
2/3+y,1/3+x,1/3-z
2/3-x,1/3-y,1/3-z
2/3+y,1/3-x+y,1/3-z
2/3+x-y,1/3+x,1/3-z
2/3-x+y,1/3+y,1/3+z
2/3+x,1/3+x-y,1/3+z
2/3-y,1/3-x,1/3+z
1/3+x,2/3+y,2/3+z
1/3-y,2/3+x-y,2/3+z
1/3-x+y,2/3-x,2/3+z
1/3+x-y,2/3-y,2/3-z
1/3-x,2/3-x+y,2/3-z
1/3+y,2/3+x,2/3-z
1/3-x,2/3-y,2/3-z
1/3+y,2/3-x+y,2/3-z
1/3+x-y,2/3+x,2/3-z
1/3-x+y,2/3+y,2/3+z
1/3+x,2/3+x-y,2/3+z
1/3-y,2/3-x,2/3+z
loop_
_atom_site_type_symbol
_atom_site_label
_atom_site_fract_x
_atom_site_fract_y
_atom_site_fract_z
Si Si1 0.646699 0.986533 0.605292
Si Si2 0.666667 0.197850 0.833334
Si Si3 0.175717 0.223895 0.898596
Si Si4 0.798392 0.333334 0.333334
Si Si5 0.847852 0.282592 0.045125
Si Si6 0.610741 0.521535 0.743127
Si Si7 0.537554 0.332576 0.133810
O O1 0.633041 0.966375 0.666667
O O2 0.584656 0.942840 0.569353
O O3 0.704249 0.971430 0.587587
O O4 0.647862 0.056340 0.605902
O O5 0.602361 0.204721 0.843987
O O6 0.647790 0.147714 0.784603
O O7 0.126633 0.253265 0.899375
O O8 0.159663 0.181126 0.846960
O O9 0.158548 0.178637 0.949992
O O10 0.790573 0.395287 0.318901
O O11 0.796603 0.203398 0.054819
O O12 0.818680 0.318582 0.079423
O O13 0.844740 0.291360 0.983376
O O14 0.531275 0.468726 0.750719
O O15 0.566271 0.283136 0.137697
O O16 0.593370 0.406631 0.139532
#
# Coordination Sequence:
#
# PCOD9579080 Si02
#       7
#    36  18  36  18  36  36  36
#     4  10  19  35  56  78 107 149 182 221 273 320
#     4  10  21  40  64  90 115 140 172 216 272 336
#     4  10  20  32  49  75 102 137 185 229 264 313
#     4  10  19  30  44  66  98 134 175 222 270 314
#     4   9  19  36  56  79 108 144 187 229 268 315
#     4   9  20  36  56  83 114 143 175 219 271 326
#     4  10  21  36  53  74 103 138 178 226 276 325
#
# _framework density 17.716543000000001
#
# number of rings (size 3 to 8) (size 9 to 14) (size 15 to 20)
#    0.000    2.333    0.833    1.333    0.000    4.667 
#    0.000    6.667    0.000    5.000    0.000    0.000 
#    0.000    0.000    0.000    0.000    0.000    0.000 
#
# Total GULP energy -400894.088817 kJ/mol
# GULP energy per Si atom -5567.973456 kJ/mol
# Density = 1.767622 g / cm^3
# Si number density = 17.716543 Si / 1000 Ang^3
#
#
#
# Elastic Constant Matrix: (Units=GPa)
#
#
# Indices 1 2 3 4 5 6 
#
# 1 64.8427 28.7793 24.1874 2.2219 0.0001 0.0000
# 2 28.7793 64.8427 24.1874 -2.2219 -0.0001 0.0000
# 3 24.1874 24.1874 39.6225 0.0000 0.0000 0.0000
# 4 2.2219 -2.2219 0.0000 19.9187 0.0000 -0.0001
# 5 0.0001 -0.0001 0.0000 0.0000 19.9187 2.2219
# 6 0.0000 0.0000 0.0000 -0.0001 2.2219 18.0317
#
#
#
# Elastic Compliance Matrix: (Units=1/GPa)
#
#
# Indices 1 2 3 4 5 6 
#
# 1 0.021859 -0.006256 -0.009525 -0.003136 0.000000 0.000000
# 2 -0.006256 0.021859 -0.009525 0.003136 0.000000 0.000000
# 3 -0.009525 -0.009525 0.036867 0.000000 0.000000 0.000000
# 4 -0.003136 0.003136 0.000000 0.050904 0.000000 0.000000
# 5 0.000000 0.000000 0.000000 0.000000 0.050904 -0.006272
# 6 0.000000 0.000000 0.000000 0.000000 -0.006272 0.056231
#
#
# Mechanical properties :
#
#
# Convention : Reuss Voigt Hill
#
# Bulk Modulus (GPa) = 33.36265 35.95737 34.66001
# Shear Modulus (GPa) = 16.70982 17.71742 17.21362
#
# Velocity S-wave (km/s) = 3.07445 3.16579 3.12045
# Velocity P-wave (km/s) = 5.61028 5.80542 5.70868
#
# Compressibility (1/GPa) = 0.02997364
#
# Stress axis : x y z
#
# Youngs Moduli (GPa) = 45.74770 45.74770 27.12474
#
# Poissons Ratio (x) = 0.28622 0.25835
# Poissons Ratio (y) = 0.28622 0.25835
# Poissons Ratio (z) = 0.43573 0.43573
#
# Static dielectric constant tensor:
#      x y z
#    x 1.604000 0.000000 0.000000 
#    y 0.000000 1.604000 0.000000 
#    z 0.000000 0.000000 1.578750 
# 
# From -- ./inp_files/8503.got.cif
#   From: 2010.05.17/outbox.cif.g08.bks.cpg/sg166_5_cif.got.tgz:8503.got - 2010.05.20 11:04:41.
