data_PCOD9579569
_publ_section_title
;
Structure prediction by ZEFSAII (Michael W. Deem and Ramdas Pophale) SiO2 
 PCOD9579569
Probable space group: R -3 C 
;
_chemical_formula_sum "Si O2"
_cell_formula_units_Z 108
_cell_length_a 18.230405
_cell_length_b 18.230405
_cell_length_c 14.218276
_cell_angle_alpha 90.000000
_cell_angle_beta 90.000000
_cell_angle_gamma 120.000000
_cell_volume 4092.325839
_symmetry_space_group_name_H-M "R -3 C "
_symmetry_group_IT_number 167
_symmetry_cell_setting 'hexagonal'
loop_
_space_group_symop_operation_xyz
x,y,z
-y,x-y,z
-x+y,-x,z
x-y,-y,1/2-z
-x,-x+y,1/2-z
y,x,1/2-z
-x,-y,-z
y,-x+y,-z
x-y,x,-z
-x+y,y,1/2+z
x,x-y,1/2+z
-y,-x,1/2+z
2/3+x,1/3+y,1/3+z
2/3-y,1/3+x-y,1/3+z
2/3-x+y,1/3-x,1/3+z
2/3+x-y,1/3-y,5/6-z
2/3-x,1/3-x+y,5/6-z
2/3+y,1/3+x,5/6-z
2/3-x,1/3-y,1/3-z
2/3+y,1/3-x+y,1/3-z
2/3+x-y,1/3+x,1/3-z
2/3-x+y,1/3+y,5/6+z
2/3+x,1/3+x-y,5/6+z
2/3-y,1/3-x,5/6+z
1/3+x,2/3+y,2/3+z
1/3-y,2/3+x-y,2/3+z
1/3-x+y,2/3-x,2/3+z
1/3+x-y,2/3-y,1/6-z
1/3-x,2/3-x+y,1/6-z
1/3+y,2/3+x,1/6-z
1/3-x,2/3-y,2/3-z
1/3+y,2/3-x+y,2/3-z
1/3+x-y,2/3+x,2/3-z
1/3-x+y,2/3+y,1/6+z
1/3+x,2/3+x-y,1/6+z
1/3-y,2/3-x,1/6+z
loop_
_atom_site_type_symbol
_atom_site_label
_atom_site_fract_x
_atom_site_fract_y
_atom_site_fract_z
Si Si1 0.207462 0.116021 0.747671
Si Si2 0.739296 0.217488 0.868542
Si Si3 0.909079 0.280391 0.223876
O O1 0.119620 0.119620 0.750000
O O2 0.213379 0.107222 0.859370
O O3 0.276820 0.205712 0.700141
O O4 0.231277 0.057169 0.684767
O O5 0.639382 0.184101 0.854309
O O6 0.749402 0.145277 0.818101
O O7 0.000000 0.361426 0.250000
#
# Coordination Sequence:
#
# PCOD9579569 Si02
#       3
#    36  36  36
#     4  10  21  47  74 107 156 206 269 347 439 517
#     4  12  26  47  72 108 158 219 282 349 427 528
#     4  10  23  45  78 114 154 207 275 355 435 520
#
# _framework density 26.390861000000001
#
# number of rings (size 3 to 8) (size 9 to 14) (size 15 to 20)
#    0.000    1.333    3.333    1.333    0.000    4.000 
#   12.000    0.000    0.000    0.000    0.000    0.000 
#    0.000    0.000    0.000    0.000    0.000    0.000 
#
# Total GULP energy -200638.826944 kJ/mol
# GULP energy per Si atom -5573.300748 kJ/mol
# Density = 2.633079 g / cm^3
# Si number density = 26.390861 Si / 1000 Ang^3
#
#
#
# Elastic Constant Matrix: (Units=GPa)
#
#
# Indices 1 2 3 4 5 6 
#
# 1 141.8231 51.1945 67.1790 18.8414 0.0000 0.0000
# 2 51.1945 141.8231 67.1790 -18.8414 0.0000 0.0000
# 3 67.1790 67.1790 228.7884 0.0000 0.0000 0.0000
# 4 18.8414 -18.8414 0.0000 28.6555 0.0000 0.0000
# 5 0.0000 0.0000 0.0000 0.0000 28.6555 18.8414
# 6 0.0000 0.0000 0.0000 0.0000 18.8414 45.3143
#
#
#
# Elastic Compliance Matrix: (Units=1/GPa)
#
#
# Indices 1 2 3 4 5 6 
#
# 1 0.010849 -0.004337 -0.001912 -0.009985 0.000000 0.000000
# 2 -0.004337 0.010849 -0.001912 0.009985 0.000000 0.000000
# 3 -0.001912 -0.001912 0.005494 0.000000 0.000000 0.000000
# 4 -0.009985 0.009985 0.000000 0.048028 0.000000 0.000000
# 5 0.000000 0.000000 0.000000 0.000000 0.048028 -0.019970
# 6 0.000000 0.000000 0.000000 0.000000 -0.019970 0.030371
#
#
# Mechanical properties :
#
#
# Convention : Reuss Voigt Hill
#
# Bulk Modulus (GPa) = 92.00351 98.17107 95.08729
# Shear Modulus (GPa) = 28.80804 42.31722 35.56263
#
# Velocity S-wave (km/s) = 3.30751 4.00869 3.67486
# Velocity P-wave (km/s) = 7.03731 7.66197 7.35627
#
# Compressibility (1/GPa) = 0.01086915
#
# Stress axis : x y z
#
# Youngs Moduli (GPa) = 92.17661 92.17661 182.02569
#
# Poissons Ratio (x) = 0.39976 0.34805
# Poissons Ratio (y) = 0.39976 0.34805
# Poissons Ratio (z) = 0.17625 0.17625
#
# Static dielectric constant tensor:
#      x y z
#    x 2.148640 0.000000 0.000000 
#    y 0.000000 2.148640 0.000000 
#    z 0.000000 0.000000 2.158370 
# 
# From -- ./inp_files/2060.got.cif
#   From: 2010.05.17/outbox.cif.g08.bks.cpg/sg167_2_cif.got.tgz:2060.got - 2010.05.20 11:09:15.
