data_PCOD9579589
_publ_section_title
;
Structure prediction by ZEFSAII (Michael W. Deem and Ramdas Pophale) SiO2 
 PCOD9579589
Probable space group: R -3 C 
;
_chemical_formula_sum "Si O2"
_cell_formula_units_Z 168
_cell_length_a 17.473860
_cell_length_b 17.473860
_cell_length_c 32.534591
_cell_angle_alpha 90.000000
_cell_angle_beta 90.000000
_cell_angle_gamma 120.000000
_cell_volume 8603.074561
_symmetry_space_group_name_H-M "R -3 C "
_symmetry_group_IT_number 167
_symmetry_cell_setting 'hexagonal'
loop_
_space_group_symop_operation_xyz
x,y,z
-y,x-y,z
-x+y,-x,z
x-y,-y,1/2-z
-x,-x+y,1/2-z
y,x,1/2-z
-x,-y,-z
y,-x+y,-z
x-y,x,-z
-x+y,y,1/2+z
x,x-y,1/2+z
-y,-x,1/2+z
2/3+x,1/3+y,1/3+z
2/3-y,1/3+x-y,1/3+z
2/3-x+y,1/3-x,1/3+z
2/3+x-y,1/3-y,5/6-z
2/3-x,1/3-x+y,5/6-z
2/3+y,1/3+x,5/6-z
2/3-x,1/3-y,1/3-z
2/3+y,1/3-x+y,1/3-z
2/3+x-y,1/3+x,1/3-z
2/3-x+y,1/3+y,5/6+z
2/3+x,1/3+x-y,5/6+z
2/3-y,1/3-x,5/6+z
1/3+x,2/3+y,2/3+z
1/3-y,2/3+x-y,2/3+z
1/3-x+y,2/3-x,2/3+z
1/3+x-y,2/3-y,1/6-z
1/3-x,2/3-x+y,1/6-z
1/3+y,2/3+x,1/6-z
1/3-x,2/3-y,2/3-z
1/3+y,2/3-x+y,2/3-z
1/3+x-y,2/3+x,2/3-z
1/3-x+y,2/3+y,1/6+z
1/3+x,2/3+x-y,1/6+z
1/3-y,2/3-x,1/6+z
loop_
_atom_site_type_symbol
_atom_site_label
_atom_site_fract_x
_atom_site_fract_y
_atom_site_fract_z
Si Si1 0.666668 0.333334 0.881678
Si Si2 0.666667 0.909328 0.583334
Si Si3 0.333334 0.666667 0.369059
Si Si4 0.539622 0.391606 0.497496
Si Si5 0.074853 0.365687 0.822825
Si Si6 0.322860 0.000000 0.250000
Si Si7 0.290668 0.810985 0.583575
O O1 0.666668 0.333335 0.833334
O O2 0.575437 0.248626 0.896560
O O3 0.651196 0.949297 0.541699
O O4 0.581825 0.813099 0.590111
O O5 0.333334 0.666668 0.416667
O O6 0.434208 0.710791 0.355004
O O7 0.456021 0.389424 0.519064
O O8 0.590337 0.489925 0.478558
O O9 0.499563 0.314317 0.464160
O O10 0.062449 0.373507 0.872556
O O11 0.418564 0.084684 0.261195
#
# Coordination Sequence:
#
# PCOD9579589 Si02
#       7
#    12  18  12  36  36  18  36
#     4  12  25  35  61  90 124 164 205 246 304 374
#     4  11  22  38  70  91 118 166 206 255 306 368
#     4  12  25  35  61  90 124 161 208 252 304 374
#     4  10  22  44  60  88 125 165 201 256 314 361
#     4  10  22  40  68  91 122 164 207 256 311 368
#     4   9  22  42  64  89 128 156 210 259 308 368
#     4  10  22  43  59  88 125 164 201 256 311 360
#
# _framework density 19.527902000000001
#
# number of rings (size 3 to 8) (size 9 to 14) (size 15 to 20)
#    0.000    1.714    0.000    3.857    6.000    0.000 
#    0.000    8.571    0.000    0.000    0.000    0.000 
#    0.000    0.000    0.000    0.000    0.000    0.000 
#
# Total GULP energy -312203.243712 kJ/mol
# GULP energy per Si atom -5575.057923 kJ/mol
# Density = 1.948346 g / cm^3
# Si number density = 19.527902 Si / 1000 Ang^3
#
#
#
# Elastic Constant Matrix: (Units=GPa)
#
#
# Indices 1 2 3 4 5 6 
#
# 1 83.0556 22.9493 22.4730 -4.9469 -0.0014 0.0000
# 2 22.9493 83.0525 22.4722 4.9477 0.0014 0.0002
# 3 22.4730 22.4722 44.2236 0.0003 0.0000 0.0000
# 4 -4.9469 4.9477 0.0003 26.2453 -0.0001 0.0013
# 5 -0.0014 0.0014 0.0000 -0.0001 26.2458 -4.9467
# 6 0.0000 0.0002 0.0000 0.0013 -4.9467 30.0526
#
#
#
# Elastic Compliance Matrix: (Units=1/GPa)
#
#
# Indices 1 2 3 4 5 6 
#
# 1 0.014597 -0.002573 -0.006110 0.003236 0.000001 0.000000
# 2 -0.002573 0.014598 -0.006110 -0.003237 -0.000001 0.000000
# 3 -0.006110 -0.006110 0.028822 0.000000 0.000000 0.000000
# 4 0.003236 -0.003237 0.000000 0.039322 0.000000 -0.000002
# 5 0.000001 -0.000001 0.000000 0.000000 0.039321 0.006472
# 6 0.000000 0.000000 0.000000 -0.000002 0.006472 0.034340
#
#
# Mechanical properties :
#
#
# Convention : Reuss Voigt Hill
#
# Bulk Modulus (GPa) = 35.17415 38.45786 36.81601
# Shear Modulus (GPa) = 23.80214 26.00455 24.90334
#
# Velocity S-wave (km/s) = 3.49503 3.65315 3.57497
# Velocity P-wave (km/s) = 5.85989 6.12622 5.99454
#
# Compressibility (1/GPa) = 0.02842997
#
# Stress axis : x y z
#
# Youngs Moduli (GPa) = 68.50640 68.50393 34.69522
#
# Poissons Ratio (x) = 0.17626 0.21200
# Poissons Ratio (y) = 0.17627 0.21200
# Poissons Ratio (z) = 0.41860 0.41858
#
# Static dielectric constant tensor:
#      x y z
#    x 1.281660 0.000000 0.000000 
#    y 0.000000 1.281290 -0.000020 
#    z 0.000000 -0.000020 1.688160 
# 
# From -- ./inp_files/7010.got.cif
#   From: 2010.05.17/outbox.cif.g08.bks.cpg/sg167_4_cif.got.tgz:7010.got - 2010.05.20 11:09:15.
