data_PCOD9579174
_publ_section_title
;
Structure prediction by ZEFSAII (Michael W. Deem and Ramdas Pophale) SiO2 
 PCOD9579174
Probable space group: R -3 M
;
_chemical_formula_sum "Si O2"
_cell_formula_units_Z 234
_cell_length_a 25.868527
_cell_length_b 25.868527
_cell_length_c 23.179138
_cell_angle_alpha 90.000000
_cell_angle_beta 90.000000
_cell_angle_gamma 120.000000
_cell_volume 13432.947353
_symmetry_space_group_name_H-M "R -3 M"
_symmetry_group_IT_number 166
_symmetry_cell_setting 'hexagonal'
loop_
_space_group_symop_operation_xyz
x,y,z
-y,x-y,z
-x+y,-x,z
x-y,-y,-z
-x,-x+y,-z
y,x,-z
-x,-y,-z
y,-x+y,-z
x-y,x,-z
-x+y,y,z
x,x-y,z
-y,-x,z
2/3+x,1/3+y,1/3+z
2/3-y,1/3+x-y,1/3+z
2/3-x+y,1/3-x,1/3+z
2/3+x-y,1/3-y,1/3-z
2/3-x,1/3-x+y,1/3-z
2/3+y,1/3+x,1/3-z
2/3-x,1/3-y,1/3-z
2/3+y,1/3-x+y,1/3-z
2/3+x-y,1/3+x,1/3-z
2/3-x+y,1/3+y,1/3+z
2/3+x,1/3+x-y,1/3+z
2/3-y,1/3-x,1/3+z
1/3+x,2/3+y,2/3+z
1/3-y,2/3+x-y,2/3+z
1/3-x+y,2/3-x,2/3+z
1/3+x-y,2/3-y,2/3-z
1/3-x,2/3-x+y,2/3-z
1/3+y,2/3+x,2/3-z
1/3-x,2/3-y,2/3-z
1/3+y,2/3-x+y,2/3-z
1/3+x-y,2/3+x,2/3-z
1/3-x+y,2/3+y,2/3+z
1/3+x,2/3+x-y,2/3+z
1/3-y,2/3-x,2/3+z
loop_
_atom_site_type_symbol
_atom_site_label
_atom_site_fract_x
_atom_site_fract_y
_atom_site_fract_z
Si Si1 0.493484 0.184586 0.072133
Si Si2 0.791407 0.458074 0.833334
Si Si3 0.704893 0.170125 0.947439
Si Si4 0.662058 0.935359 0.015216
Si Si5 0.756772 0.118958 0.107133
Si Si6 0.882813 0.379792 0.281938
Si Si7 0.001864 0.883314 0.144987
O O1 0.489433 0.244717 0.069645
O O2 0.429764 0.133921 0.096654
O O3 0.541151 0.197560 0.121064
O O4 0.500726 0.172108 0.005912
O O5 0.726099 0.452198 0.829066
O O6 0.823556 0.497873 0.889947
O O7 0.771871 0.228130 0.948066
O O8 0.711295 0.111637 0.955920
O O9 0.717658 0.944060 0.053359
O O10 0.669480 0.911082 0.952893
O O11 0.670763 0.000000 0.000000
O O12 0.818233 0.181768 0.111201
O O13 0.751651 0.084984 0.166667
O O14 0.886236 0.443118 0.291954
O O15 0.849066 0.333334 0.333334
O O16 0.843290 0.350874 0.225322
O O17 0.049183 0.950818 0.127734
O O18 0.934695 0.869390 0.135744
#
# Coordination Sequence:
#
# PCOD9579174 Si02
#       7
#    36  18  36  36  36  36  36
#     4   8  16  30  49  69  94 128 167 209 260 324
#     4  10  21  38  66  96 118 140 175 220 268 328
#     4   9  18  37  57  78 112 147 172 211 279 341
#     4  10  20  33  50  77 108 142 182 228 265 318
#     4   9  17  29  49  72  96 128 168 223 285 326
#     4  10  20  31  46  68  98 137 185 237 279 315
#     4  10  20  33  48  70 101 142 185 227 278 332
#
# _framework density 17.419855999999999
#
# number of rings (size 3 to 8) (size 9 to 14) (size 15 to 20)
#    0.000    2.615    0.000    3.000    4.308    0.615 
#    1.385    0.000    0.000    4.769    0.000    0.000 
#    0.000    0.000    0.000    0.000    0.000    0.000 
#
# Total GULP energy -434295.938494 kJ/mol
# GULP energy per Si atom -5567.896647 kJ/mol
# Density = 1.738021 g / cm^3
# Si number density = 17.419856 Si / 1000 Ang^3
#
#
#
# Elastic Constant Matrix: (Units=GPa)
#
#
# Indices 1 2 3 4 5 6 
#
# 1 66.7355 32.9266 45.6471 2.7161 -0.0002 0.0000
# 2 32.9266 66.7355 45.6471 -2.7161 0.0002 0.0000
# 3 45.6471 45.6471 128.0219 0.0000 0.0000 0.0000
# 4 2.7161 -2.7161 0.0000 21.0013 0.0000 0.0002
# 5 -0.0002 0.0002 0.0000 0.0000 21.0013 2.7161
# 6 0.0000 0.0000 0.0000 0.0002 2.7161 16.9045
#
#
#
# Elastic Compliance Matrix: (Units=1/GPa)
#
#
# Indices 1 2 3 4 5 6 
#
# 1 0.022553 -0.007652 -0.005313 -0.003907 0.000000 0.000000
# 2 -0.007652 0.022553 -0.005313 0.003907 0.000000 0.000000
# 3 -0.005313 -0.005313 0.011600 0.000000 0.000000 0.000000
# 4 -0.003907 0.003907 0.000000 0.048626 0.000000 0.000000
# 5 0.000000 0.000000 0.000000 0.000000 0.048626 -0.007813
# 6 0.000000 0.000000 0.000000 0.000000 -0.007813 0.060411
#
#
# Mechanical properties :
#
#
# Convention : Reuss Voigt Hill
#
# Bulk Modulus (GPa) = 49.62880 56.65939 53.14410
# Shear Modulus (GPa) = 19.40663 20.93291 20.16977
#
# Velocity S-wave (km/s) = 3.34136 3.47027 3.40643
# Velocity P-wave (km/s) = 6.59074 6.97520 6.78570
#
# Compressibility (1/GPa) = 0.02014959
#
# Stress axis : x y z
#
# Youngs Moduli (GPa) = 44.33955 44.33955 86.20738
#
# Poissons Ratio (x) = 0.33930 0.45802
# Poissons Ratio (y) = 0.33930 0.45802
# Poissons Ratio (z) = 0.23558 0.23558
#
# Static dielectric constant tensor:
#      x y z
#    x 1.600600 0.000000 0.000000 
#    y 0.000000 1.600600 0.000000 
#    z 0.000000 0.000000 1.611090 
# 
# From -- ./inp_files/7224.got.cif
#   From: 2010.05.17/outbox.cif.g08.bks.cpg/sg166_4_cif.got.tgz:7224.got - 2010.05.20 11:04:41.
