data_PCOD9579045
_publ_section_title
;
Structure prediction by ZEFSAII (Michael W. Deem and Ramdas Pophale) SiO2 
 PCOD9579045
Probable space group: R -3 M
;
_chemical_formula_sum "Si O2"
_cell_formula_units_Z 216
_cell_length_a 23.479698
_cell_length_b 23.479698
_cell_length_c 24.886179
_cell_angle_alpha 90.000000
_cell_angle_beta 90.000000
_cell_angle_gamma 120.000000
_cell_volume 11881.570945
_symmetry_space_group_name_H-M "R -3 M"
_symmetry_group_IT_number 166
_symmetry_cell_setting 'hexagonal'
loop_
_space_group_symop_operation_xyz
x,y,z
-y,x-y,z
-x+y,-x,z
x-y,-y,-z
-x,-x+y,-z
y,x,-z
-x,-y,-z
y,-x+y,-z
x-y,x,-z
-x+y,y,z
x,x-y,z
-y,-x,z
2/3+x,1/3+y,1/3+z
2/3-y,1/3+x-y,1/3+z
2/3-x+y,1/3-x,1/3+z
2/3+x-y,1/3-y,1/3-z
2/3-x,1/3-x+y,1/3-z
2/3+y,1/3+x,1/3-z
2/3-x,1/3-y,1/3-z
2/3+y,1/3-x+y,1/3-z
2/3+x-y,1/3+x,1/3-z
2/3-x+y,1/3+y,1/3+z
2/3+x,1/3+x-y,1/3+z
2/3-y,1/3-x,1/3+z
1/3+x,2/3+y,2/3+z
1/3-y,2/3+x-y,2/3+z
1/3-x+y,2/3-x,2/3+z
1/3+x-y,2/3-y,2/3-z
1/3-x,2/3-x+y,2/3-z
1/3+y,2/3+x,2/3-z
1/3-x,2/3-y,2/3-z
1/3+y,2/3-x+y,2/3-z
1/3+x-y,2/3+x,2/3-z
1/3-x+y,2/3+y,2/3+z
1/3+x,2/3+x-y,2/3+z
1/3-y,2/3-x,2/3+z
loop_
_atom_site_type_symbol
_atom_site_label
_atom_site_fract_x
_atom_site_fract_y
_atom_site_fract_z
Si Si1 0.457013 0.666636 0.463996
Si Si2 0.461151 0.402738 0.691773
Si Si3 0.202350 0.534999 0.334759
Si Si4 0.094593 0.767775 0.916429
Si Si5 0.087047 0.426620 0.834748
Si Si6 0.072339 0.791479 0.516429
O O1 0.427830 0.713915 0.474637
O O2 0.407066 0.592935 0.481828
O O3 0.465268 0.666207 0.399681
O O4 0.526528 0.695122 0.491893
O O5 0.532232 0.467769 0.682919
O O6 0.475907 0.343308 0.684213
O O7 0.418499 0.408385 0.644105
O O8 0.443502 0.404187 0.753194
O O9 0.264787 0.529574 0.317106
O O10 0.210058 0.605029 0.317558
O O11 0.159346 0.840655 0.912701
O O12 0.105210 0.716826 0.879775
O O13 0.031113 0.763517 0.888353
O O14 0.013975 0.413982 0.843548
O O15 0.135439 0.864562 0.506650
O O16 0.000000 0.778469 0.500000
#
# Coordination Sequence:
#
# PCOD9579045 Si02
#       6
#    36  36  36  36  36  36
#     4  10  18  29  48  78 116 150 180 216 264 322
#     4   9  19  35  54  76 106 141 180 227 275 326
#     4   9  16  27  46  74 105 137 173 217 270 326
#     4  10  18  32  56  83 109 141 183 225 271 323
#     4  11  19  33  53  82 109 145 183 227 271 323
#     4  11  24  42  59  79 110 148 187 231 285 334
#
# _framework density 18.179414000000001
#
# number of rings (size 3 to 8) (size 9 to 14) (size 15 to 20)
#    0.000    2.000    3.333    2.833    0.000    2.667 
#    0.000    0.000    0.000    1.167    0.000    0.000 
#    0.000    0.000    0.000   12.667    0.000    0.000 
#
# Total GULP energy -401104.845622 kJ/mol
# GULP energy per Si atom -5570.900634 kJ/mol
# Density = 1.813804 g / cm^3
# Si number density = 18.179414 Si / 1000 Ang^3
#
#
#
# Elastic Constant Matrix: (Units=GPa)
#
#
# Indices 1 2 3 4 5 6 
#
# 1 71.1192 24.7719 -0.0608 1.9498 0.0000 0.0000
# 2 24.7719 71.1192 -0.0608 -1.9498 0.0000 0.0000
# 3 -0.0608 -0.0608 29.0521 0.0000 0.0000 0.0000
# 4 1.9498 -1.9498 0.0000 18.8550 0.0000 0.0000
# 5 0.0000 0.0000 0.0000 0.0000 18.8550 1.9498
# 6 0.0000 0.0000 0.0000 0.0000 1.9498 23.1736
#
#
#
# Elastic Compliance Matrix: (Units=1/GPa)
#
#
# Indices 1 2 3 4 5 6 
#
# 1 0.016097 -0.005669 0.000022 -0.002251 0.000000 0.000000
# 2 -0.005669 0.016097 0.000022 0.002251 0.000000 0.000000
# 3 0.000022 0.000022 0.034421 0.000000 0.000000 0.000000
# 4 -0.002251 0.002251 0.000000 0.053502 0.000000 0.000000
# 5 0.000000 0.000000 0.000000 0.000000 0.053502 -0.004502
# 6 0.000000 0.000000 0.000000 0.000000 -0.004502 0.043531
#
#
# Mechanical properties :
#
#
# Convention : Reuss Voigt Hill
#
# Bulk Modulus (GPa) = 18.06184 24.51014 21.28599
# Shear Modulus (GPa) = 20.25479 21.95272 21.10376
#
# Velocity S-wave (km/s) = 3.34153 3.47877 3.41084
# Velocity P-wave (km/s) = 4.98444 5.44494 5.21977
#
# Compressibility (1/GPa) = 0.05536533
#
# Stress axis : x y z
#
# Youngs Moduli (GPa) = 62.12311 62.12311 29.05203
#
# Poissons Ratio (x) = 0.35215 -0.00063
# Poissons Ratio (y) = 0.35215 -0.00063
# Poissons Ratio (z) = -0.00136 -0.00136
#
# Static dielectric constant tensor:
#      x y z
#    x 1.645330 0.000000 0.000000 
#    y 0.000000 1.645330 0.000000 
#    z 0.000000 0.000000 1.629880 
# 
# From -- ./inp_files/9687.got.cif
#   From: 2010.05.17/outbox.cif.g08.bks.cpg/sg166_5_cif.got.tgz:9687.got - 2010.05.20 11:04:41.
