data_PCOD9579496
_publ_section_title
;
Structure prediction by ZEFSAII (Michael W. Deem and Ramdas Pophale) SiO2 
 PCOD9579496
Probable space group: R -3 C 
;
_chemical_formula_sum "Si O2"
_cell_formula_units_Z 192
_cell_length_a 23.746551
_cell_length_b 23.746551
_cell_length_c 23.531788
_cell_angle_alpha 90.000000
_cell_angle_beta 90.000000
_cell_angle_gamma 120.000000
_cell_volume 11491.762456
_symmetry_space_group_name_H-M "R -3 C "
_symmetry_group_IT_number 167
_symmetry_cell_setting 'hexagonal'
loop_
_space_group_symop_operation_xyz
x,y,z
-y,x-y,z
-x+y,-x,z
x-y,-y,1/2-z
-x,-x+y,1/2-z
y,x,1/2-z
-x,-y,-z
y,-x+y,-z
x-y,x,-z
-x+y,y,1/2+z
x,x-y,1/2+z
-y,-x,1/2+z
2/3+x,1/3+y,1/3+z
2/3-y,1/3+x-y,1/3+z
2/3-x+y,1/3-x,1/3+z
2/3+x-y,1/3-y,5/6-z
2/3-x,1/3-x+y,5/6-z
2/3+y,1/3+x,5/6-z
2/3-x,1/3-y,1/3-z
2/3+y,1/3-x+y,1/3-z
2/3+x-y,1/3+x,1/3-z
2/3-x+y,1/3+y,5/6+z
2/3+x,1/3+x-y,5/6+z
2/3-y,1/3-x,5/6+z
1/3+x,2/3+y,2/3+z
1/3-y,2/3+x-y,2/3+z
1/3-x+y,2/3-x,2/3+z
1/3+x-y,2/3-y,1/6-z
1/3-x,2/3-x+y,1/6-z
1/3+y,2/3+x,1/6-z
1/3-x,2/3-y,2/3-z
1/3+y,2/3-x+y,2/3-z
1/3+x-y,2/3+x,2/3-z
1/3-x+y,2/3+y,1/6+z
1/3+x,2/3+x-y,1/6+z
1/3-y,2/3-x,1/6+z
loop_
_atom_site_type_symbol
_atom_site_label
_atom_site_fract_x
_atom_site_fract_y
_atom_site_fract_z
Si Si1 0.333334 0.666667 0.484269
Si Si2 0.085497 0.196107 0.065161
Si Si3 0.001130 0.608255 0.376803
Si Si4 0.426205 0.000000 0.750000
Si Si5 0.231089 0.528191 0.809995
Si Si6 0.805834 0.000000 0.750000
Si Si7 0.844991 0.805709 0.561358
O O1 0.333334 0.666668 0.416667
O O2 0.370733 0.739615 0.506682
O O3 0.099785 0.268945 0.079359
O O4 0.146836 0.184870 0.070434
O O5 0.026966 0.146909 0.105369
O O6 0.059460 0.180963 0.000521
O O7 0.001151 0.611545 0.307960
O O8 0.935765 0.544383 0.394068
O O9 0.006957 0.666667 0.416667
O O10 0.069154 0.611880 0.392420
O O11 0.190952 0.495203 0.866688
O O12 0.252545 0.484846 0.774564
#
# Coordination Sequence:
#
# PCOD9579496 Si02
#       7
#    12  36  36  18  36  18  36
#     4  12  24  36  58  83 118 156 201 226 287 373
#     4  11  21  37  57  89 117 155 193 247 297 351
#     4   9  21  41  60  87 117 155 200 251 296 350
#     4  10  20  37  66  82 111 162 204 236 300 360
#     4  12  22  38  60  87 120 159 193 243 304 358
#     4  10  22  41  62  80 127 156 198 246 300 354
#     4  11  23  35  61  90 121 152 199 246 302 353
#
# _framework density 16.707619999999999
#
# number of rings (size 3 to 8) (size 9 to 14) (size 15 to 20)
#    0.562    0.750    6.562    0.000    1.312    0.750 
#    0.000    1.875    6.188    0.000    0.000    0.000 
#    0.000    0.000    0.000    0.000    0.000    0.000 
#
# Total GULP energy -356621.249823 kJ/mol
# GULP energy per Si atom -5572.207028 kJ/mol
# Density = 1.666959 g / cm^3
# Si number density = 16.707620 Si / 1000 Ang^3
#
#
#
# Elastic Constant Matrix: (Units=GPa)
#
#
# Indices 1 2 3 4 5 6 
#
# 1 78.3502 33.6500 55.5513 0.8966 0.0012 -0.0001
# 2 33.6500 78.3493 55.5510 -0.8986 -0.0011 -0.0002
# 3 55.5513 55.5510 147.0002 -0.0003 0.0002 -0.0001
# 4 0.8966 -0.8986 -0.0003 20.7546 -0.0003 -0.0013
# 5 0.0012 -0.0011 0.0002 -0.0003 20.7516 0.8984
# 6 -0.0001 -0.0002 -0.0001 -0.0013 0.8984 22.3497
#
#
#
# Elastic Compliance Matrix: (Units=1/GPa)
#
#
# Indices 1 2 3 4 5 6 
#
# 1 0.018346 -0.004064 -0.005397 -0.000969 -0.000001 0.000000
# 2 -0.004064 0.018347 -0.005397 0.000970 0.000001 0.000000
# 3 -0.005397 -0.005397 0.010882 0.000000 0.000000 0.000000
# 4 -0.000969 0.000970 0.000000 0.048266 0.000001 0.000003
# 5 -0.000001 0.000001 0.000000 0.000001 0.048273 -0.001940
# 6 0.000000 0.000000 0.000000 0.000003 -0.001940 0.044821
#
#
# Mechanical properties :
#
#
# Convention : Reuss Voigt Hill
#
# Bulk Modulus (GPa) = 55.99770 65.91159 60.95464
# Shear Modulus (GPa) = 22.26124 23.36767 22.81445
#
# Velocity S-wave (km/s) = 3.65417 3.74387 3.69929
# Velocity P-wave (km/s) = 7.16889 7.63050 7.40329
#
# Compressibility (1/GPa) = 0.01785788
#
# Stress axis : x y z
#
# Youngs Moduli (GPa) = 54.50640 54.50564 91.89417
#
# Poissons Ratio (x) = 0.22150 0.49599
# Poissons Ratio (y) = 0.22150 0.49599
# Poissons Ratio (z) = 0.29419 0.29419
#
# Static dielectric constant tensor:
#      x y z
#    x 1.541200 0.000000 0.000000 
#    y 0.000000 1.541200 0.000000 
#    z 0.000000 0.000000 1.595170 
# 
# From -- ./inp_files/5477.got.cif
#   From: 2010.05.17/outbox.cif.g08.bks.cpg/sg167_3_cif.got.tgz:5477.got - 2010.05.20 11:09:15.
