data_PCOD9579740
_publ_section_title
;
Structure prediction by ZEFSAII (Michael W. Deem and Ramdas Pophale) SiO2 
 PCOD9579740
Probable space group: R -3 C 
;
_chemical_formula_sum "Si O2"
_cell_formula_units_Z 72
_cell_length_a 21.952514
_cell_length_b 21.952514
_cell_length_c 9.268436
_cell_angle_alpha 90.000000
_cell_angle_beta 90.000000
_cell_angle_gamma 120.000000
_cell_volume 3868.170537
_symmetry_space_group_name_H-M "R -3 C "
_symmetry_group_IT_number 167
_symmetry_cell_setting 'hexagonal'
loop_
_space_group_symop_operation_xyz
x,y,z
-y,x-y,z
-x+y,-x,z
x-y,-y,1/2-z
-x,-x+y,1/2-z
y,x,1/2-z
-x,-y,-z
y,-x+y,-z
x-y,x,-z
-x+y,y,1/2+z
x,x-y,1/2+z
-y,-x,1/2+z
2/3+x,1/3+y,1/3+z
2/3-y,1/3+x-y,1/3+z
2/3-x+y,1/3-x,1/3+z
2/3+x-y,1/3-y,5/6-z
2/3-x,1/3-x+y,5/6-z
2/3+y,1/3+x,5/6-z
2/3-x,1/3-y,1/3-z
2/3+y,1/3-x+y,1/3-z
2/3+x-y,1/3+x,1/3-z
2/3-x+y,1/3+y,5/6+z
2/3+x,1/3+x-y,5/6+z
2/3-y,1/3-x,5/6+z
1/3+x,2/3+y,2/3+z
1/3-y,2/3+x-y,2/3+z
1/3-x+y,2/3-x,2/3+z
1/3+x-y,2/3-y,1/6-z
1/3-x,2/3-x+y,1/6-z
1/3+y,2/3+x,1/6-z
1/3-x,2/3-y,2/3-z
1/3+y,2/3-x+y,2/3-z
1/3+x-y,2/3+x,2/3-z
1/3-x+y,2/3+y,1/6+z
1/3+x,2/3+x-y,1/6+z
1/3-y,2/3-x,1/6+z
loop_
_atom_site_type_symbol
_atom_site_label
_atom_site_fract_x
_atom_site_fract_y
_atom_site_fract_z
Si Si1 0.077849 0.281793 0.942686
Si Si2 0.948733 0.752507 0.617914
O O1 0.122629 0.244642 0.903136
O O2 0.085307 0.337307 0.822645
O O3 0.113144 0.333334 0.083334
O O4 0.999005 0.225071 0.981261
O O5 0.000000 0.797680 0.750000
#
# Coordination Sequence:
#
# PCOD9579740 Si02
#       2
#    36  36
#     4   9  18  32  51  73 101 133 170 209 251 297
#     4   9  18  32  48  73 103 133 167 206 251 300
#
# _framework density 18.61345
#
# number of rings (size 3 to 8) (size 9 to 14) (size 15 to 20)
#    0.000    3.000    0.000    0.000    0.000   10.000 
#    0.000   20.000    0.000    1.000    0.000    0.000 
#    0.000    0.000    0.000    0.000    0.000    0.000 
#
# Total GULP energy -133852.448748 kJ/mol
# GULP energy per Si atom -5577.185364 kJ/mol
# Density = 1.857108 g / cm^3
# Si number density = 18.613450 Si / 1000 Ang^3
#
#
#
# Elastic Constant Matrix: (Units=GPa)
#
#
# Indices 1 2 3 4 5 6 
#
# 1 92.6971 76.2018 31.6039 -3.9751 0.0002 -0.0003
# 2 76.2018 92.6970 31.6017 3.9754 0.0001 0.0003
# 3 31.6039 31.6017 23.6092 0.0014 0.0017 -0.0005
# 4 -3.9751 3.9754 0.0014 30.6607 0.0005 0.0000
# 5 0.0002 0.0001 0.0017 0.0005 30.6610 -3.9757
# 6 -0.0003 0.0003 -0.0005 0.0000 -3.9757 8.2473
#
#
#
# Elastic Compliance Matrix: (Units=1/GPa)
#
#
# Indices 1 2 3 4 5 6 
#
# 1 0.038267 -0.026401 -0.015887 0.008385 0.000001 0.000002
# 2 -0.026401 0.038261 -0.015873 -0.008383 0.000001 -0.000003
# 3 -0.015887 -0.015873 0.084870 -0.000006 -0.000004 0.000003
# 4 0.008385 -0.008383 -0.000006 0.034789 -0.000001 0.000000
# 5 0.000001 0.000001 -0.000004 -0.000001 0.034789 0.016770
# 6 0.000002 -0.000003 0.000003 0.000000 0.016770 0.129337
#
#
# Mechanical properties :
#
#
# Convention : Reuss Voigt Hill
#
# Bulk Modulus (GPa) = 22.18466 54.20202 38.19334
# Shear Modulus (GPa) = 10.16965 18.55351 14.36158
#
# Velocity S-wave (km/s) = 2.33997 3.16061 2.78073
# Velocity P-wave (km/s) = 4.38692 6.51938 5.55641
#
# Compressibility (1/GPa) = 0.04507619
#
# Stress axis : x y z
#
# Youngs Moduli (GPa) = 26.13246 26.13607 11.78279
#
# Poissons Ratio (x) = 0.69001 0.18719
# Poissons Ratio (y) = 0.68991 0.18703
# Poissons Ratio (z) = 0.41517 0.41486
#
# Static dielectric constant tensor:
#      x y z
#    x 1.620500 0.000000 0.000000 
#    y 0.000000 1.620510 0.000000 
#    z 0.000000 0.000000 1.777750 
# 
# From -- ./inp_files/336.got.cif
#   From: 2010.05.17/outbox.cif.g08.bks.cpg/sg167_1_cif.got.tgz:336.got - 2010.05.20 11:09:15.
