data_PCOD9579479
_publ_section_title
;
Structure prediction by ZEFSAII (Michael W. Deem and Ramdas Pophale) SiO2 
 PCOD9579479
Probable space group: R -3 C 
;
_chemical_formula_sum "Si O2"
_cell_formula_units_Z 120
_cell_length_a 20.786666
_cell_length_b 20.786666
_cell_length_c 14.207778
_cell_angle_alpha 90.000000
_cell_angle_beta 90.000000
_cell_angle_gamma 120.000000
_cell_volume 5316.507979
_symmetry_space_group_name_H-M "R -3 C "
_symmetry_group_IT_number 167
_symmetry_cell_setting 'hexagonal'
loop_
_space_group_symop_operation_xyz
x,y,z
-y,x-y,z
-x+y,-x,z
x-y,-y,1/2-z
-x,-x+y,1/2-z
y,x,1/2-z
-x,-y,-z
y,-x+y,-z
x-y,x,-z
-x+y,y,1/2+z
x,x-y,1/2+z
-y,-x,1/2+z
2/3+x,1/3+y,1/3+z
2/3-y,1/3+x-y,1/3+z
2/3-x+y,1/3-x,1/3+z
2/3+x-y,1/3-y,5/6-z
2/3-x,1/3-x+y,5/6-z
2/3+y,1/3+x,5/6-z
2/3-x,1/3-y,1/3-z
2/3+y,1/3-x+y,1/3-z
2/3+x-y,1/3+x,1/3-z
2/3-x+y,1/3+y,5/6+z
2/3+x,1/3+x-y,5/6+z
2/3-y,1/3-x,5/6+z
1/3+x,2/3+y,2/3+z
1/3-y,2/3+x-y,2/3+z
1/3-x+y,2/3-x,2/3+z
1/3+x-y,2/3-y,1/6-z
1/3-x,2/3-x+y,1/6-z
1/3+y,2/3+x,1/6-z
1/3-x,2/3-y,2/3-z
1/3+y,2/3-x+y,2/3-z
1/3+x-y,2/3+x,2/3-z
1/3-x+y,2/3+y,1/6+z
1/3+x,2/3+x-y,1/6+z
1/3-y,2/3-x,1/6+z
loop_
_atom_site_type_symbol
_atom_site_label
_atom_site_fract_x
_atom_site_fract_y
_atom_site_fract_z
Si Si1 0.294938 0.362698 0.188218
Si Si2 0.536001 0.185203 0.194652
Si Si3 0.666667 0.333334 0.195323
Si Si4 0.436417 0.911254 0.666267
O O1 0.303552 0.303552 0.250000
O O2 0.288028 0.333334 0.083334
O O3 0.372799 0.441968 0.195507
O O4 0.222820 0.370648 0.210949
O O5 0.618710 0.249078 0.221983
O O6 0.537368 0.115439 0.240817
O O7 0.482705 0.205881 0.253004
O O8 0.520837 0.187504 0.083334
O O9 0.666668 0.333334 0.083334
#
# Coordination Sequence:
#
# PCOD9579479 Si02
#       4
#    36  36  12  36
#     4  11  25  43  67  96 131 177 224 280 339 398
#     4  10  20  35  62  93 131 177 214 276 343 391
#     4   9  15  25  47  85 118 152 205 250 320 394
#     4  10  23  42  63  94 131 169 230 279 325 411
#
# _framework density 22.571207000000001
#
# number of rings (size 3 to 8) (size 9 to 14) (size 15 to 20)
#    0.000    1.800    0.000    4.500    0.000    9.600 
#    0.000    0.000    0.000    0.000    0.000    0.000 
#    0.000    0.000    0.000    0.900    0.000    0.000 
#
# Total GULP energy -222751.004279 kJ/mol
# GULP energy per Si atom -5568.775107 kJ/mol
# Density = 2.251983 g / cm^3
# Si number density = 22.571207 Si / 1000 Ang^3
#
#
#
# Elastic Constant Matrix: (Units=GPa)
#
#
# Indices 1 2 3 4 5 6 
#
# 1 48.0971 59.9810 18.8745 -34.9106 0.0014 0.0005
# 2 59.9810 48.0960 18.8738 34.9102 -0.0017 -0.0006
# 3 18.8745 18.8738 129.7934 0.0000 -0.0005 0.0001
# 4 -34.9106 34.9102 0.0000 2.4809 0.0006 -0.0025
# 5 0.0014 -0.0017 -0.0005 0.0006 2.4813 -34.9105
# 6 0.0005 -0.0006 0.0001 -0.0025 -34.9105 -5.9443
#
#
#
# Elastic Compliance Matrix: (Units=1/GPa)
#
#
# Indices 1 2 3 4 5 6 
#
# 1 0.004371 0.005377 -0.001417 -0.014151 0.000001 0.000000
# 2 0.005377 0.004371 -0.001417 0.014151 -0.000001 0.000000
# 3 -0.001417 -0.001417 0.008117 0.000000 0.000000 0.000000
# 4 -0.014151 0.014151 0.000000 0.004817 -0.000001 -0.000001
# 5 0.000001 -0.000001 0.000000 -0.000001 0.004819 -0.028302
# 6 0.000000 0.000000 0.000000 -0.000001 -0.028302 -0.002012
#
#
# Mechanical properties :
#
#
# Convention : Reuss Voigt Hill
#
# Bulk Modulus (GPa) = 45.57410 46.82722 46.20066
# Shear Modulus (GPa) = 187.16431 8.35405 97.75918
#
# Velocity S-wave (km/s) = 9.11601 1.92594 6.58828
# Velocity P-wave (km/s) = 11.44716 5.07318 8.85366
#
# Compressibility (1/GPa) = 0.02194229
#
# Stress axis : x y z
#
# Youngs Moduli (GPa) = 228.78173 228.77640 123.20119
#
# Poissons Ratio (x) = -1.23006 0.17463
# Poissons Ratio (y) = -1.23009 0.17464
# Poissons Ratio (z) = 0.32429 0.32429
#
# Static dielectric constant tensor:
#      x y z
#    x 1.913610 0.000000 0.000010 
#    y 0.000000 1.913610 0.000000 
#    z 0.000010 0.000000 1.456240 
# 
# From -- ./inp_files/2283.got.cif
#   From: 2010.05.17/outbox.cif.g08.bks.cpg/sg167_2_cif.got.tgz:2283.got - 2010.05.20 11:09:15.
