data_PCOD9579042
_publ_section_title
;
Structure prediction by ZEFSAII (Michael W. Deem and Ramdas Pophale) SiO2 
 PCOD9579042
Probable space group: R -3 M
;
_chemical_formula_sum "Si O2"
_cell_formula_units_Z 216
_cell_length_a 24.478376
_cell_length_b 24.478376
_cell_length_c 26.220679
_cell_angle_alpha 90.000000
_cell_angle_beta 90.000000
_cell_angle_gamma 120.000000
_cell_volume 13606.291420
_symmetry_space_group_name_H-M "R -3 M"
_symmetry_group_IT_number 166
_symmetry_cell_setting 'hexagonal'
loop_
_space_group_symop_operation_xyz
x,y,z
-y,x-y,z
-x+y,-x,z
x-y,-y,-z
-x,-x+y,-z
y,x,-z
-x,-y,-z
y,-x+y,-z
x-y,x,-z
-x+y,y,z
x,x-y,z
-y,-x,z
2/3+x,1/3+y,1/3+z
2/3-y,1/3+x-y,1/3+z
2/3-x+y,1/3-x,1/3+z
2/3+x-y,1/3-y,1/3-z
2/3-x,1/3-x+y,1/3-z
2/3+y,1/3+x,1/3-z
2/3-x,1/3-y,1/3-z
2/3+y,1/3-x+y,1/3-z
2/3+x-y,1/3+x,1/3-z
2/3-x+y,1/3+y,1/3+z
2/3+x,1/3+x-y,1/3+z
2/3-y,1/3-x,1/3+z
1/3+x,2/3+y,2/3+z
1/3-y,2/3+x-y,2/3+z
1/3-x+y,2/3-x,2/3+z
1/3+x-y,2/3-y,2/3-z
1/3-x,2/3-x+y,2/3-z
1/3+y,2/3+x,2/3-z
1/3-x,2/3-y,2/3-z
1/3+y,2/3-x+y,2/3-z
1/3+x-y,2/3+x,2/3-z
1/3-x+y,2/3+y,2/3+z
1/3+x,2/3+x-y,2/3+z
1/3-y,2/3-x,2/3+z
loop_
_atom_site_type_symbol
_atom_site_label
_atom_site_fract_x
_atom_site_fract_y
_atom_site_fract_z
Si Si1 0.259523 0.866656 0.567954
Si Si2 0.722532 0.628620 0.090982
Si Si3 0.951085 0.692157 0.611220
Si Si4 0.582572 0.538822 0.689761
Si Si5 0.800210 0.074606 0.506391
Si Si6 0.571179 0.848103 0.805948
O O1 0.202927 0.797074 0.559496
O O2 0.250128 0.888685 0.623781
O O3 0.245001 0.909977 0.529140
O O4 0.324072 0.868570 0.556851
O O5 0.661441 0.634873 0.077044
O O6 0.708497 0.577412 0.134722
O O7 0.778043 0.692624 0.114719
O O8 0.744928 0.616559 0.037297
O O9 0.919339 0.666667 0.666667
O O10 0.915314 0.702561 0.564976
O O11 0.013830 0.759250 0.621576
O O12 0.531188 0.468813 0.707937
O O13 0.872633 0.127368 0.494179
O O14 0.776674 0.000000 0.500000
O O15 0.549817 0.774909 0.801765
#
# Coordination Sequence:
#
# PCOD9579042 Si02
#       6
#    36  36  36  36  36  36
#     4  10  20  32  48  67  94 126 161 197 234 284
#     4  10  18  30  42  69  97 122 156 190 236 279
#     4  10  19  30  48  67  98 130 153 196 235 282
#     4  10  18  29  45  65  92 127 161 190 226 275
#     4  11  20  34  52  72  97 127 162 198 239 294
#     4  11  19  29  46  66  93 124 156 194 241 285
#
# _framework density 15.875007999999999
#
# number of rings (size 3 to 8) (size 9 to 14) (size 15 to 20)
#    0.000    1.667    5.000    2.000    0.000    0.333 
#    0.000    0.000    0.000    0.500    0.000    0.000 
#    0.000    0.000    0.000   10.333    0.000    0.000 
#
# Total GULP energy -400873.829518 kJ/mol
# GULP energy per Si atom -5567.692077 kJ/mol
# Density = 1.583888 g / cm^3
# Si number density = 15.875008 Si / 1000 Ang^3
#
#
#
# Elastic Constant Matrix: (Units=GPa)
#
#
# Indices 1 2 3 4 5 6 
#
# 1 37.6340 10.9324 -18.0350 -4.1685 0.0000 0.0000
# 2 10.9324 37.6340 -18.0350 4.1685 0.0000 0.0000
# 3 -18.0350 -18.0350 41.1689 0.0000 0.0000 0.0000
# 4 -4.1685 4.1685 0.0000 12.7095 0.0000 0.0000
# 5 0.0000 0.0000 0.0000 0.0000 12.7095 -4.1685
# 6 0.0000 0.0000 0.0000 0.0000 -4.1685 13.3508
#
#
#
# Elastic Compliance Matrix: (Units=1/GPa)
#
#
# Indices 1 2 3 4 5 6 
#
# 1 0.036122 -0.005602 0.013370 0.013685 0.000000 0.000000
# 2 -0.005602 0.036122 0.013370 -0.013685 0.000000 0.000000
# 3 0.013370 0.013370 0.036004 0.000000 0.000000 0.000000
# 4 0.013685 -0.013685 0.000000 0.087658 0.000000 0.000000
# 5 0.000000 0.000000 0.000000 0.000000 0.087658 0.027369
# 6 0.000000 0.000000 0.000000 0.000000 0.027369 0.083448
#
#
# Mechanical properties :
#
#
# Convention : Reuss Voigt Hill
#
# Bulk Modulus (GPa) = 6.64337 7.35128 6.99733
# Shear Modulus (GPa) = 13.33654 17.19227 15.26441
#
# Velocity S-wave (km/s) = 2.90159 3.29443 3.10423
# Velocity P-wave (km/s) = 3.92677 4.37171 4.15520
#
# Compressibility (1/GPa) = 0.15052595
#
# Stress axis : x y z
#
# Youngs Moduli (GPa) = 27.68391 27.68391 27.77433
#
# Poissons Ratio (x) = 0.15508 -0.37135
# Poissons Ratio (y) = 0.15508 -0.37135
# Poissons Ratio (z) = -0.37014 -0.37014
#
# Static dielectric constant tensor:
#      x y z
#    x 1.535420 0.000000 0.000000 
#    y 0.000000 1.535420 0.000000 
#    z 0.000000 0.000000 1.584690 
# 
# From -- ./inp_files/9737.got.cif
#   From: 2010.05.17/outbox.cif.g08.bks.cpg/sg166_5_cif.got.tgz:9737.got - 2010.05.20 11:04:41.
