data_PCOD9579598
_publ_section_title
;
Structure prediction by ZEFSAII (Michael W. Deem and Ramdas Pophale) SiO2 
 PCOD9579598
Probable space group: R -3 C 
;
_chemical_formula_sum "Si O2"
_cell_formula_units_Z 144
_cell_length_a 19.609708
_cell_length_b 19.609708
_cell_length_c 23.135597
_cell_angle_alpha 90.000000
_cell_angle_beta 90.000000
_cell_angle_gamma 120.000000
_cell_volume 7704.662086
_symmetry_space_group_name_H-M "R -3 C "
_symmetry_group_IT_number 167
_symmetry_cell_setting 'hexagonal'
loop_
_space_group_symop_operation_xyz
x,y,z
-y,x-y,z
-x+y,-x,z
x-y,-y,1/2-z
-x,-x+y,1/2-z
y,x,1/2-z
-x,-y,-z
y,-x+y,-z
x-y,x,-z
-x+y,y,1/2+z
x,x-y,1/2+z
-y,-x,1/2+z
2/3+x,1/3+y,1/3+z
2/3-y,1/3+x-y,1/3+z
2/3-x+y,1/3-x,1/3+z
2/3+x-y,1/3-y,5/6-z
2/3-x,1/3-x+y,5/6-z
2/3+y,1/3+x,5/6-z
2/3-x,1/3-y,1/3-z
2/3+y,1/3-x+y,1/3-z
2/3+x-y,1/3+x,1/3-z
2/3-x+y,1/3+y,5/6+z
2/3+x,1/3+x-y,5/6+z
2/3-y,1/3-x,5/6+z
1/3+x,2/3+y,2/3+z
1/3-y,2/3+x-y,2/3+z
1/3-x+y,2/3-x,2/3+z
1/3+x-y,2/3-y,1/6-z
1/3-x,2/3-x+y,1/6-z
1/3+y,2/3+x,1/6-z
1/3-x,2/3-y,2/3-z
1/3+y,2/3-x+y,2/3-z
1/3+x-y,2/3+x,2/3-z
1/3-x+y,2/3+y,1/6+z
1/3+x,2/3+x-y,1/6+z
1/3-y,2/3-x,1/6+z
loop_
_atom_site_type_symbol
_atom_site_label
_atom_site_fract_x
_atom_site_fract_y
_atom_site_fract_z
Si Si1 0.000000 0.359551 0.250000
Si Si2 0.392772 0.870256 0.309871
Si Si3 0.908946 0.000000 0.250000
Si Si4 0.262014 0.502960 0.641086
Si Si5 0.095523 0.334472 0.016965
O O1 0.067209 0.437560 0.282700
O O2 0.040895 0.336746 0.199460
O O3 0.343420 0.812598 0.361697
O O4 0.389362 0.818509 0.255436
O O5 0.484977 0.924276 0.325746
O O6 0.926754 0.926754 0.250000
O O7 0.219008 0.530984 0.685172
O O8 0.232432 0.411558 0.651430
O O9 0.067287 0.333334 0.083334
#
# Coordination Sequence:
#
# PCOD9579598 Si02
#       5
#    18  36  18  36  36
#     4  12  22  41  69  94 126 168 210 268 324 376
#     4  11  23  44  62  93 133 162 216 265 317 384
#     4  10  28  45  63  88 134 180 212 264 326 394
#     4  11  21  37  65  95 123 164 215 265 316 369
#     4  10  22  42  65  94 129 163 211 266 318 384
#
# _framework density 18.689982000000001
#
# number of rings (size 3 to 8) (size 9 to 14) (size 15 to 20)
#    0.250    1.000    6.250    0.250    7.000    0.000 
#    0.000    1.250    0.000    0.000    0.000    0.000 
#    0.000    0.000    0.000    0.000    0.000    0.000 
#
# Total GULP energy -267670.909961 kJ/mol
# GULP energy per Si atom -5576.477291 kJ/mol
# Density = 1.864744 g / cm^3
# Si number density = 18.689982 Si / 1000 Ang^3
#
#
#
# Elastic Constant Matrix: (Units=GPa)
#
#
# Indices 1 2 3 4 5 6 
#
# 1 68.6724 34.4056 66.0271 7.8347 -0.0007 0.0000
# 2 34.4056 68.6724 66.0271 -7.8347 0.0007 0.0000
# 3 66.0271 66.0271 144.0318 0.0000 0.0000 0.0000
# 4 7.8347 -7.8347 0.0000 28.7617 0.0000 0.0007
# 5 -0.0007 0.0007 0.0000 0.0000 28.7617 7.8347
# 6 0.0000 0.0000 0.0000 0.0007 7.8347 17.1334
#
#
#
# Elastic Compliance Matrix: (Units=1/GPa)
#
#
# Indices 1 2 3 4 5 6 
#
# 1 0.028421 -0.004914 -0.010776 -0.009081 0.000001 0.000000
# 2 -0.004914 0.028421 -0.010776 0.009081 -0.000001 0.000000
# 3 -0.010776 -0.010776 0.016823 0.000000 0.000000 0.000000
# 4 -0.009081 0.009081 0.000000 0.039716 0.000000 -0.000002
# 5 0.000001 -0.000001 0.000000 0.000000 0.039716 -0.018161
# 6 0.000000 0.000000 0.000000 -0.000002 -0.018161 0.066670
#
#
# Mechanical properties :
#
#
# Convention : Reuss Voigt Hill
#
# Bulk Modulus (GPa) = 48.23424 68.25510 58.24467
# Shear Modulus (GPa) = 17.88219 22.59249 20.23734
#
# Velocity S-wave (km/s) = 3.09654 3.48056 3.29415
# Velocity P-wave (km/s) = 6.21678 7.26301 6.76016
#
# Compressibility (1/GPa) = 0.02073216
#
# Stress axis : x y z
#
# Youngs Moduli (GPa) = 35.18558 35.18558 59.44393
#
# Poissons Ratio (x) = 0.17292 0.64055
# Poissons Ratio (y) = 0.17292 0.64055
# Poissons Ratio (z) = 0.37915 0.37915
#
# Static dielectric constant tensor:
#      x y z
#    x 1.665540 0.000000 0.000000 
#    y 0.000000 1.665540 0.000000 
#    z 0.000000 0.000000 1.652270 
# 
# From -- ./inp_files/4342.got.cif
#   From: 2010.05.17/outbox.cif.g08.bks.cpg/sg167_3_cif.got.tgz:4342.got - 2010.05.20 11:09:15.
