data_PCOD9579962
_publ_section_title
;
Structure prediction by ZEFSAII (Michael W. Deem and Ramdas Pophale) SiO2 
 PCOD9579962
Probable space group: P 61
;
_chemical_formula_sum "Si O2"
_cell_formula_units_Z 42
_cell_length_a 14.500726
_cell_length_b 14.500726
_cell_length_c 10.296948
_cell_angle_alpha 90.000000
_cell_angle_beta 90.000000
_cell_angle_gamma 120.000000
_cell_volume 1875.075002
_symmetry_space_group_name_H-M "P 61"
_symmetry_group_IT_number 169
_symmetry_cell_setting 'hexagonal'
loop_
_space_group_symop_operation_xyz
x,y,z
x-y,x,1/6+z
-y,x-y,1/3+z
-x,-y,1/2+z
-x+y,-x,2/3+z
y,-x+y,5/6+z
loop_
_atom_site_type_symbol
_atom_site_label
_atom_site_fract_x
_atom_site_fract_y
_atom_site_fract_z
Si Si1 0.364335 0.179558 0.987350
Si Si2 0.346392 0.291169 0.236268
Si Si3 0.510258 0.977021 0.019519
Si Si4 0.208524 0.089801 0.400348
Si Si5 0.324261 0.251217 0.724727
Si Si6 0.168957 0.622789 0.683393
Si Si7 0.483686 0.211826 0.570315
O O1 0.306681 0.185404 0.856232
O O2 0.480847 0.205830 0.941706
O O3 0.368932 0.258796 0.096076
O O4 0.309416 0.062633 0.049918
O O5 0.450970 0.404781 0.266469
O O6 0.309607 0.191698 0.333178
O O7 0.512489 0.872133 0.972583
O O8 0.626100 0.039511 0.088941
O O9 0.515419 0.052585 0.902352
O O10 0.140097 0.137702 0.463629
O O11 0.238748 0.022606 0.500475
O O12 0.379791 0.217768 0.612634
O O13 0.242357 0.571308 0.698369
O O14 0.175268 0.663372 0.538790
#
# Coordination Sequence:
#
# PCOD9579962 Si02
#       7
#     6   6   6   6   6   6   6
#     4  10  23  44  71  96 135 181 227 282 347 415
#     4  11  24  45  68  99 142 179 225 285 352 416
#     4  10  23  40  67  99 129 178 214 278 342 395
#     4  12  27  47  68 103 141 183 237 290 344 412
#     4  10  24  45  72 100 134 180 239 285 342 412
#     4   9  22  41  61  99 132 171 230 270 336 413
#     4  10  21  42  65  98 139 172 228 284 333 411
#
# _framework density 22.399104000000001
#
# number of rings (size 3 to 8) (size 9 to 14) (size 15 to 20)
#    0.000    1.714    1.429    0.857   10.000    4.571 
#    0.000    0.000    0.000    0.000    0.000    0.000 
#    0.000    0.000    0.000    0.000    0.000    0.000 
#
# Total GULP energy -234623.262263 kJ/mol
# GULP energy per Si atom -5586.268149 kJ/mol
# Density = 2.234812 g / cm^3
# Si number density = 22.399104 Si / 1000 Ang^3
#
#
#
# Elastic Constant Matrix: (Units=GPa)
#
#
# Indices 1 2 3 4 5 6 
#
# 1 127.6469 49.7123 17.1363 0.0000 0.0000 0.0000
# 2 49.7123 127.6469 17.1363 0.0000 0.0000 0.0000
# 3 17.1363 17.1363 35.9077 0.0000 0.0000 0.0000
# 4 0.0000 0.0000 0.0000 33.8408 0.0000 0.0000
# 5 0.0000 0.0000 0.0000 0.0000 33.8408 0.0000
# 6 0.0000 0.0000 0.0000 0.0000 0.0000 38.9673
#
#
#
# Elastic Compliance Matrix: (Units=1/GPa)
#
#
# Indices 1 2 3 4 5 6 
#
# 1 0.009521 -0.003310 -0.002964 0.000000 0.000000 0.000000
# 2 -0.003310 0.009521 -0.002964 0.000000 0.000000 0.000000
# 3 -0.002964 -0.002964 0.030678 0.000000 0.000000 0.000000
# 4 0.000000 0.000000 0.000000 0.029550 0.000000 0.000000
# 5 0.000000 0.000000 0.000000 0.000000 0.029550 0.000000
# 6 0.000000 0.000000 0.000000 0.000000 0.000000 0.025663
#
#
# Mechanical properties :
#
#
# Convention : Reuss Voigt Hill
#
# Bulk Modulus (GPa) = 32.00619 51.01906 41.51263
# Shear Modulus (GPa) = 30.60447 35.14420 32.87433
#
# Velocity S-wave (km/s) = 3.70039 3.96536 3.83517
# Velocity P-wave (km/s) = 5.70765 6.61756 6.17938
#
# Compressibility (1/GPa) = 0.03124396
#
# Stress axis : x y z
#
# Youngs Moduli (GPa) = 105.02918 105.02918 32.59631
#
# Poissons Ratio (x) = 0.34766 0.09662
# Poissons Ratio (y) = 0.34766 0.09662
# Poissons Ratio (z) = 0.31132 0.31132
#
# Static dielectric constant tensor:
#      x y z
#    x 1.857130 0.000000 0.000000 
#    y 0.000000 1.857130 0.000000 
#    z 0.000000 0.000000 1.828910 
# 
# From -- ./inp_files/953.got.cif
#   From: 2010.05.17/outbox.cif.g08.bks.cpg/sg169_cif.got.tgz:953.got - 2010.05.20 11:12:54.
