data_PCOD9579057
_publ_section_title
;
Structure prediction by ZEFSAII (Michael W. Deem and Ramdas Pophale) SiO2 
 PCOD9579057
Probable space group: R -3 M
;
_chemical_formula_sum "Si O2"
_cell_formula_units_Z 252
_cell_length_a 31.066646
_cell_length_b 31.066646
_cell_length_c 17.703859
_cell_angle_alpha 90.000000
_cell_angle_beta 90.000000
_cell_angle_gamma 120.000000
_cell_volume 14797.464652
_symmetry_space_group_name_H-M "R -3 M"
_symmetry_group_IT_number 166
_symmetry_cell_setting 'hexagonal'
loop_
_space_group_symop_operation_xyz
x,y,z
-y,x-y,z
-x+y,-x,z
x-y,-y,-z
-x,-x+y,-z
y,x,-z
-x,-y,-z
y,-x+y,-z
x-y,x,-z
-x+y,y,z
x,x-y,z
-y,-x,z
2/3+x,1/3+y,1/3+z
2/3-y,1/3+x-y,1/3+z
2/3-x+y,1/3-x,1/3+z
2/3+x-y,1/3-y,1/3-z
2/3-x,1/3-x+y,1/3-z
2/3+y,1/3+x,1/3-z
2/3-x,1/3-y,1/3-z
2/3+y,1/3-x+y,1/3-z
2/3+x-y,1/3+x,1/3-z
2/3-x+y,1/3+y,1/3+z
2/3+x,1/3+x-y,1/3+z
2/3-y,1/3-x,1/3+z
1/3+x,2/3+y,2/3+z
1/3-y,2/3+x-y,2/3+z
1/3-x+y,2/3-x,2/3+z
1/3+x-y,2/3-y,2/3-z
1/3-x,2/3-x+y,2/3-z
1/3+y,2/3+x,2/3-z
1/3-x,2/3-y,2/3-z
1/3+y,2/3-x+y,2/3-z
1/3+x-y,2/3+x,2/3-z
1/3-x+y,2/3+y,2/3+z
1/3+x,2/3+x-y,2/3+z
1/3-y,2/3-x,2/3+z
loop_
_atom_site_type_symbol
_atom_site_label
_atom_site_fract_x
_atom_site_fract_y
_atom_site_fract_z
Si Si1 0.381314 0.521837 0.929533
Si Si2 0.473912 0.051164 0.959635
Si Si3 0.513712 0.924333 0.615219
Si Si4 0.748170 0.153262 0.450662
Si Si5 0.533467 0.570110 0.347906
Si Si6 0.946782 0.154351 0.202648
Si Si7 0.361844 0.083625 0.858096
O O1 0.420943 0.579058 0.946894
O O2 0.397784 0.508016 0.851148
O O3 0.325109 0.505163 0.911412
O O4 0.387777 0.487758 0.991959
O O5 0.524089 0.048178 0.957450
O O6 0.456639 0.052887 0.875763
O O7 0.432934 0.000000 0.000000
O O8 0.462689 0.925378 0.603759
O O9 0.512556 0.906853 0.701068
O O10 0.513852 0.891030 0.546424
O O11 0.555733 0.982506 0.618501
O O12 0.808323 0.191678 0.445844
O O13 0.735431 0.097966 0.471736
O O14 0.482151 0.517850 0.330311
O O15 0.518738 0.597017 0.410584
O O16 0.557270 0.603942 0.273542
O O17 0.900859 0.099142 0.195631
O O18 0.374479 0.041146 0.833334
#
# Coordination Sequence:
#
# PCOD9579057 Si02
#       7
#    36  36  36  36  36  36  36
#     4  10  20  33  51  71  93 122 162 203 238 279
#     4  10  18  31  52  70  89 126 170 205 234 274
#     4   8  15  28  49  71  92 121 157 191 229 283
#     4   9  17  32  50  67  89 123 165 199 230 279
#     4   9  17  30  48  69  95 127 162 197 236 284
#     4  10  19  32  50  73  97 122 155 199 247 292
#     4  11  19  28  45  69 100 129 159 199 242 281
#
# _framework density 17.029944
#
# number of rings (size 3 to 8) (size 9 to 14) (size 15 to 20)
#    0.000    2.429    1.429    3.429    0.000    2.286 
#    0.000    1.429    3.143    0.286    0.000    0.000 
#    0.000    0.000    0.000    7.143    0.000   29.714 
#
# Total GULP energy -467805.171811 kJ/mol
# GULP energy per Si atom -5569.109188 kJ/mol
# Density = 1.699118 g / cm^3
# Si number density = 17.029944 Si / 1000 Ang^3
#
#
#
# Elastic Constant Matrix: (Units=GPa)
#
#
# Indices 1 2 3 4 5 6 
#
# 1 43.7406 20.1944 20.6047 6.4504 0.0000 0.0000
# 2 20.1944 43.7406 20.6047 -6.4504 0.0000 0.0000
# 3 20.6047 20.6047 74.3834 0.0000 0.0000 0.0000
# 4 6.4504 -6.4504 0.0000 21.2304 0.0000 0.0000
# 5 0.0000 0.0000 0.0000 0.0000 21.2304 6.4504
# 6 0.0000 0.0000 0.0000 0.0000 6.4504 11.7731
#
#
#
# Elastic Compliance Matrix: (Units=1/GPa)
#
#
# Indices 1 2 3 4 5 6 
#
# 1 0.034996 -0.015955 -0.005274 -0.015480 0.000000 0.000000
# 2 -0.015955 0.034996 -0.005274 0.015480 0.000000 0.000000
# 3 -0.005274 -0.005274 0.016366 0.000000 0.000000 0.000000
# 4 -0.015480 0.015480 0.000000 0.056509 0.000000 0.000000
# 5 0.000000 0.000000 0.000000 0.000000 0.056509 -0.030961
# 6 0.000000 0.000000 0.000000 0.000000 -0.030961 0.101902
#
#
# Mechanical properties :
#
#
# Convention : Reuss Voigt Hill
#
# Bulk Modulus (GPa) = 29.98546 31.63024 30.80785
# Shear Modulus (GPa) = 13.68354 17.54417 15.61386
#
# Velocity S-wave (km/s) = 2.83768 3.21315 3.03123
# Velocity P-wave (km/s) = 5.32750 5.69029 5.51188
#
# Compressibility (1/GPa) = 0.03334950
#
# Stress axis : x y z
#
# Youngs Moduli (GPa) = 28.57483 28.57483 61.10270
#
# Poissons Ratio (x) = 0.45592 0.32228
# Poissons Ratio (y) = 0.45592 0.32228
# Poissons Ratio (z) = 0.15071 0.15071
#
# Static dielectric constant tensor:
#      x y z
#    x 1.606650 0.000000 0.000000 
#    y 0.000000 1.606650 0.000000 
#    z 0.000000 0.000000 1.592130 
# 
# From -- ./inp_files/5837.got.cif
#   From: 2010.05.17/outbox.cif.g08.bks.cpg/sg166_3_cif.got.tgz:5837.got - 2010.05.20 11:04:41.
