data_PCOD9579666
_publ_section_title
;
Structure prediction by ZEFSAII (Michael W. Deem and Ramdas Pophale) SiO2 
 PCOD9579666
Probable space group: R -3 C 
;
_chemical_formula_sum "Si O2"
_cell_formula_units_Z 144
_cell_length_a 20.633986
_cell_length_b 20.633986
_cell_length_c 19.421021
_cell_angle_alpha 90.000000
_cell_angle_beta 90.000000
_cell_angle_gamma 120.000000
_cell_volume 7160.922155
_symmetry_space_group_name_H-M "R -3 C "
_symmetry_group_IT_number 167
_symmetry_cell_setting 'hexagonal'
loop_
_space_group_symop_operation_xyz
x,y,z
-y,x-y,z
-x+y,-x,z
x-y,-y,1/2-z
-x,-x+y,1/2-z
y,x,1/2-z
-x,-y,-z
y,-x+y,-z
x-y,x,-z
-x+y,y,1/2+z
x,x-y,1/2+z
-y,-x,1/2+z
2/3+x,1/3+y,1/3+z
2/3-y,1/3+x-y,1/3+z
2/3-x+y,1/3-x,1/3+z
2/3+x-y,1/3-y,5/6-z
2/3-x,1/3-x+y,5/6-z
2/3+y,1/3+x,5/6-z
2/3-x,1/3-y,1/3-z
2/3+y,1/3-x+y,1/3-z
2/3+x-y,1/3+x,1/3-z
2/3-x+y,1/3+y,5/6+z
2/3+x,1/3+x-y,5/6+z
2/3-y,1/3-x,5/6+z
1/3+x,2/3+y,2/3+z
1/3-y,2/3+x-y,2/3+z
1/3-x+y,2/3-x,2/3+z
1/3+x-y,2/3-y,1/6-z
1/3-x,2/3-x+y,1/6-z
1/3+y,2/3+x,1/6-z
1/3-x,2/3-y,2/3-z
1/3+y,2/3-x+y,2/3-z
1/3+x-y,2/3+x,2/3-z
1/3-x+y,2/3+y,1/6+z
1/3+x,2/3+x-y,1/6+z
1/3-y,2/3-x,1/6+z
loop_
_atom_site_type_symbol
_atom_site_label
_atom_site_fract_x
_atom_site_fract_y
_atom_site_fract_z
Si Si1 0.643168 0.643168 0.750000
Si Si2 0.286512 0.066392 0.658749
Si Si3 0.421290 0.582210 0.414228
Si Si4 0.753950 0.666667 0.916667
Si Si5 0.186633 0.863567 0.185130
O O1 0.724109 0.661797 0.719961
O O2 0.588223 0.596647 0.687175
O O3 0.220225 0.075196 0.690910
O O4 0.324598 0.125375 0.597881
O O5 0.259086 0.987422 0.620310
O O6 0.436565 0.666667 0.416667
O O7 0.333334 0.525717 0.416667
O O8 0.446464 0.544685 0.353457
O O9 0.787045 0.635896 0.857736
#
# Coordination Sequence:
#
# PCOD9579666 Si02
#       5
#    18  36  36  18  36
#     4  11  20  38  72 106 141 174 236 302 383 436
#     4  12  22  44  70 101 151 180 234 312 374 435
#     4  12  25  43  65  99 141 195 240 285 352 449
#     4  11  22  42  66 104 139 184 234 298 367 436
#     4  11  24  40  70 107 143 183 236 304 385 435
#
# _framework density 20.109143
#
# number of rings (size 3 to 8) (size 9 to 14) (size 15 to 20)
#    0.000    0.500    6.250    2.500    0.000    2.000 
#    0.000    0.000    0.000    0.000    0.000    1.750 
#    0.000    0.000    0.000    0.000    0.000    0.000 
#
# Total GULP energy -267205.207983 kJ/mol
# GULP energy per Si atom -5566.775166 kJ/mol
# Density = 2.006337 g / cm^3
# Si number density = 20.109143 Si / 1000 Ang^3
#
#
#
# Elastic Constant Matrix: (Units=GPa)
#
#
# Indices 1 2 3 4 5 6 
#
# 1 116.1300 40.4546 33.0553 -2.8133 0.0000 0.0000
# 2 40.4546 116.1300 33.0553 2.8133 0.0000 0.0000
# 3 33.0553 33.0553 108.8107 0.0000 0.0000 0.0000
# 4 -2.8133 2.8133 0.0000 35.8289 0.0000 0.0000
# 5 0.0000 0.0000 0.0000 0.0000 35.8289 -2.8133
# 6 0.0000 0.0000 0.0000 0.0000 -2.8133 37.8377
#
#
#
# Elastic Compliance Matrix: (Units=1/GPa)
#
#
# Indices 1 2 3 4 5 6 
#
# 1 0.010309 -0.002983 -0.002226 0.001044 0.000000 0.000000
# 2 -0.002983 0.010309 -0.002226 -0.001044 0.000000 0.000000
# 3 -0.002226 -0.002226 0.010542 0.000000 0.000000 0.000000
# 4 0.001044 -0.001044 0.000000 0.028074 0.000000 0.000000
# 5 0.000000 0.000000 0.000000 0.000000 0.028074 0.002087
# 6 0.000000 0.000000 0.000000 0.000000 0.002087 0.026584
#
#
# Mechanical properties :
#
#
# Convention : Reuss Voigt Hill
#
# Bulk Modulus (GPa) = 61.37898 61.57792 61.47845
# Shear Modulus (GPa) = 37.26013 37.53280 37.39646
#
# Velocity S-wave (km/s) = 4.30920 4.32494 4.31707
# Velocity P-wave (km/s) = 7.43963 7.45845 7.44904
#
# Compressibility (1/GPa) = 0.01629222
#
# Stress axis : x y z
#
# Youngs Moduli (GPa) = 97.00321 97.00321 94.85461
#
# Poissons Ratio (x) = 0.28936 0.21110
# Poissons Ratio (y) = 0.28936 0.21110
# Poissons Ratio (z) = 0.21588 0.21588
#
# Static dielectric constant tensor:
#      x y z
#    x 1.796070 0.000000 0.000000 
#    y 0.000000 1.796070 0.000000 
#    z 0.000000 0.000000 1.801780 
# 
# From -- ./inp_files/4337.got.cif
#   From: 2010.05.17/outbox.cif.g08.bks.cpg/sg167_3_cif.got.tgz:4337.got - 2010.05.20 11:09:15.
