data_PCOD9579673
_publ_section_title
;
Structure prediction by ZEFSAII (Michael W. Deem and Ramdas Pophale) SiO2 
 PCOD9579673
Probable space group: R -3 C 
;
_chemical_formula_sum "Si O2"
_cell_formula_units_Z 162
_cell_length_a 20.702172
_cell_length_b 20.702172
_cell_length_c 22.265309
_cell_angle_alpha 90.000000
_cell_angle_beta 90.000000
_cell_angle_gamma 120.000000
_cell_volume 8264.016648
_symmetry_space_group_name_H-M "R -3 C "
_symmetry_group_IT_number 167
_symmetry_cell_setting 'hexagonal'
loop_
_space_group_symop_operation_xyz
x,y,z
-y,x-y,z
-x+y,-x,z
x-y,-y,1/2-z
-x,-x+y,1/2-z
y,x,1/2-z
-x,-y,-z
y,-x+y,-z
x-y,x,-z
-x+y,y,1/2+z
x,x-y,1/2+z
-y,-x,1/2+z
2/3+x,1/3+y,1/3+z
2/3-y,1/3+x-y,1/3+z
2/3-x+y,1/3-x,1/3+z
2/3+x-y,1/3-y,5/6-z
2/3-x,1/3-x+y,5/6-z
2/3+y,1/3+x,5/6-z
2/3-x,1/3-y,1/3-z
2/3+y,1/3-x+y,1/3-z
2/3+x-y,1/3+x,1/3-z
2/3-x+y,1/3+y,5/6+z
2/3+x,1/3+x-y,5/6+z
2/3-y,1/3-x,5/6+z
1/3+x,2/3+y,2/3+z
1/3-y,2/3+x-y,2/3+z
1/3-x+y,2/3-x,2/3+z
1/3+x-y,2/3-y,1/6-z
1/3-x,2/3-x+y,1/6-z
1/3+y,2/3+x,1/6-z
1/3-x,2/3-y,2/3-z
1/3+y,2/3-x+y,2/3-z
1/3+x-y,2/3+x,2/3-z
1/3-x+y,2/3+y,1/6+z
1/3+x,2/3+x-y,1/6+z
1/3-y,2/3-x,1/6+z
loop_
_atom_site_type_symbol
_atom_site_label
_atom_site_fract_x
_atom_site_fract_y
_atom_site_fract_z
Si Si1 0.564177 0.666667 0.916667
Si Si2 0.960199 0.564904 0.814544
Si Si3 0.729217 0.729217 0.750000
Si Si4 0.052103 0.573894 0.117036
Si Si5 0.083434 0.000000 0.750000
Si Si6 0.457778 0.574733 0.487090
O O1 0.574080 0.599991 0.889268
O O2 0.498233 0.617646 0.964804
O O3 0.956571 0.491132 0.839913
O O4 0.879666 0.557031 0.807887
O O5 0.000000 0.585502 0.750000
O O6 0.007067 0.631839 0.861346
O O7 0.737100 0.806347 0.775135
O O8 0.082165 0.565581 0.052213
O O9 0.135273 0.017866 0.691737
O O10 0.068526 0.068526 0.750000
#
# Coordination Sequence:
#
# PCOD9579673 Si02
#       6
#    18  36  18  36  18  36
#     4  12  21  40  70 102 133 186 236 274 356 416
#     4  12  27  47  70 103 142 187 236 292 361 426
#     4  11  22  44  72  98 142 183 232 302 336 425
#     4  12  27  44  67 104 146 180 231 293 361 423
#     4   9  19  40  64 100 125 177 246 288 322 399
#     4  11  22  41  67 100 138 177 234 295 343 413
#
# _framework density 19.603058999999998
#
# number of rings (size 3 to 8) (size 9 to 14) (size 15 to 20)
#    0.222    0.444    6.667    0.667    4.667    0.000 
#    4.000    0.000    0.000    0.444    0.000    0.000 
#    0.000    0.000    0.000    0.000    0.000    0.000 
#
# Total GULP energy -300995.439950 kJ/mol
# GULP energy per Si atom -5573.989629 kJ/mol
# Density = 1.955844 g / cm^3
# Si number density = 19.603059 Si / 1000 Ang^3
#
#
#
# Elastic Constant Matrix: (Units=GPa)
#
#
# Indices 1 2 3 4 5 6 
#
# 1 118.3696 58.5888 64.2720 -3.9721 -0.0002 0.0000
# 2 58.5888 118.3696 64.2720 3.9721 0.0002 0.0000
# 3 64.2720 64.2720 144.8328 0.0000 0.0000 0.0000
# 4 -3.9721 3.9721 0.0000 36.4906 0.0000 0.0002
# 5 -0.0002 0.0002 0.0000 0.0000 36.4906 -3.9721
# 6 0.0000 0.0000 0.0000 0.0002 -3.9721 29.8904
#
#
#
# Elastic Compliance Matrix: (Units=1/GPa)
#
#
# Indices 1 2 3 4 5 6 
#
# 1 0.012656 -0.004317 -0.003701 0.001848 0.000000 0.000000
# 2 -0.004317 0.012656 -0.003701 -0.001848 0.000000 0.000000
# 3 -0.003701 -0.003701 0.010189 0.000000 0.000000 0.000000
# 4 0.001848 -0.001848 0.000000 0.027807 0.000000 0.000000
# 5 0.000000 0.000000 0.000000 0.000000 0.027807 0.003695
# 6 0.000000 0.000000 0.000000 0.000000 0.003695 0.033947
#
#
# Mechanical properties :
#
#
# Convention : Reuss Voigt Hill
#
# Bulk Modulus (GPa) = 82.88601 83.98197 83.43399
# Shear Modulus (GPa) = 32.78269 33.53695 33.15982
#
# Velocity S-wave (km/s) = 4.09384 4.14067 4.11732
# Velocity P-wave (km/s) = 8.04488 8.11138 8.07820
#
# Compressibility (1/GPa) = 0.01206476
#
# Stress axis : x y z
#
# Youngs Moduli (GPa) = 79.01223 79.01223 98.14504
#
# Poissons Ratio (x) = 0.34110 0.36320
# Poissons Ratio (y) = 0.34110 0.36320
# Poissons Ratio (z) = 0.29240 0.29240
#
# Static dielectric constant tensor:
#      x y z
#    x 1.743890 0.000000 0.000000 
#    y 0.000000 1.743890 0.000000 
#    z 0.000000 0.000000 1.664780 
# 
# From -- ./inp_files/4486.got.cif
#   From: 2010.05.17/outbox.cif.g08.bks.cpg/sg167_3_cif.got.tgz:4486.got - 2010.05.20 11:09:15.
