data_PCOD9579801
_publ_section_title
;
Structure prediction by ZEFSAII (Michael W. Deem and Ramdas Pophale) SiO2 
 PCOD9579801
Probable space group: P 61
;
_chemical_formula_sum "Si O2"
_cell_formula_units_Z 48
_cell_length_a 14.493668
_cell_length_b 14.493668
_cell_length_c 12.633687
_cell_angle_alpha 90.000000
_cell_angle_beta 90.000000
_cell_angle_gamma 120.000000
_cell_volume 2298.356337
_symmetry_space_group_name_H-M "P 61"
_symmetry_group_IT_number 169
_symmetry_cell_setting 'hexagonal'
loop_
_space_group_symop_operation_xyz
x,y,z
x-y,x,1/6+z
-y,x-y,1/3+z
-x,-y,1/2+z
-x+y,-x,2/3+z
y,-x+y,5/6+z
loop_
_atom_site_type_symbol
_atom_site_label
_atom_site_fract_x
_atom_site_fract_y
_atom_site_fract_z
Si Si1 0.593745 0.174983 0.222010
Si Si2 0.504212 0.561090 0.597956
Si Si3 0.172151 0.798046 0.522896
Si Si4 0.939981 0.107300 0.147591
Si Si5 0.984200 0.613480 0.407539
Si Si6 0.216925 0.410041 0.270162
Si Si7 0.820144 0.926534 0.656096
Si Si8 0.686874 0.508537 0.551273
O O1 0.548887 0.122177 0.334974
O O2 0.509121 0.186138 0.151275
O O3 0.701441 0.288845 0.238348
O O4 0.625981 0.093390 0.165283
O O5 0.437659 0.488754 0.695071
O O6 0.570035 0.687694 0.620692
O O7 0.580672 0.513994 0.567527
O O8 0.138369 0.852505 0.615057
O O9 0.072815 0.731213 0.446155
O O10 0.183670 0.712707 0.593294
O O11 0.285118 0.898429 0.490302
O O12 0.026806 0.182938 0.233162
O O13 0.888041 0.996195 0.206164
O O14 0.198284 0.301798 0.324468
O O15 0.236871 0.410716 0.144152
O O16 0.858701 0.898312 0.765300
#
# Coordination Sequence:
#
# PCOD9579801 Si02
#       8
#     6   6   6   6   6   6   6   6
#     4  10  23  39  63  97 128 168 218 267 329 393
#     4  11  22  41  63  92 132 168 215 268 325 388
#     4  11  20  36  61  94 121 163 214 262 324 381
#     4  10  18  32  59  91 116 152 205 266 313 374
#     4  11  23  38  63  94 131 170 215 269 329 392
#     4  11  21  39  66  94 126 169 219 269 324 394
#     4  10  21  35  65  97 124 164 215 268 324 380
#     4  10  20  36  62  93 122 160 215 277 314 380
#
# _framework density 20.884491000000001
#
# number of rings (size 3 to 8) (size 9 to 14) (size 15 to 20)
#    0.000    1.500    3.750    3.000    1.750    1.000 
#    2.250    1.250   13.750    0.000    0.000    0.000 
#    0.000    0.000    0.000    0.000    0.000    0.000 
#
# Total GULP energy -267282.046273 kJ/mol
# GULP energy per Si atom -5568.375964 kJ/mol
# Density = 2.083696 g / cm^3
# Si number density = 20.884491 Si / 1000 Ang^3
#
#
#
# Elastic Constant Matrix: (Units=GPa)
#
#
# Indices 1 2 3 4 5 6 
#
# 1 70.5608 30.1359 23.8192 0.0000 0.0000 0.0000
# 2 30.1359 70.5608 23.8192 0.0000 0.0000 0.0000
# 3 23.8192 23.8192 47.0629 0.0000 0.0000 0.0000
# 4 0.0000 0.0000 0.0000 26.1367 0.0000 0.0000
# 5 0.0000 0.0000 0.0000 0.0000 26.1367 0.0000
# 6 0.0000 0.0000 0.0000 0.0000 0.0000 20.2125
#
#
#
# Elastic Compliance Matrix: (Units=1/GPa)
#
#
# Indices 1 2 3 4 5 6 
#
# 1 0.018897 -0.005840 -0.006608 0.000000 0.000000 0.000000
# 2 -0.005840 0.018897 -0.006608 0.000000 0.000000 0.000000
# 3 -0.006608 -0.006608 0.027937 0.000000 0.000000 0.000000
# 4 0.000000 0.000000 0.000000 0.038260 0.000000 0.000000
# 5 0.000000 0.000000 0.000000 0.000000 0.038260 0.000000
# 6 0.000000 0.000000 0.000000 0.000000 0.000000 0.049474
#
#
# Mechanical properties :
#
#
# Convention : Reuss Voigt Hill
#
# Bulk Modulus (GPa) = 36.20818 38.19257 37.20038
# Shear Modulus (GPa) = 20.91641 21.85785 21.38713
#
# Velocity S-wave (km/s) = 3.16813 3.23864 3.20358
# Velocity P-wave (km/s) = 5.54596 5.68439 5.61560
#
# Compressibility (1/GPa) = 0.02761807
#
# Stress axis : x y z
#
# Youngs Moduli (GPa) = 52.91792 52.91792 35.79430
#
# Poissons Ratio (x) = 0.30904 0.23654
# Poissons Ratio (y) = 0.30904 0.23654
# Poissons Ratio (z) = 0.34970 0.34970
#
# Static dielectric constant tensor:
#      x y z
#    x 1.807520 0.000000 0.000000 
#    y 0.000000 1.807520 0.000000 
#    z 0.000000 0.000000 1.770830 
# 
# From -- ./inp_files/1020.got.cif
#   From: 2010.05.17/outbox.cif.g08.bks.cpg/sg169_cif.got.tgz:1020.got - 2010.05.20 11:12:54.
