data_PCOD9579152
_publ_section_title
;
Structure prediction by ZEFSAII (Michael W. Deem and Ramdas Pophale) SiO2 
 PCOD9579152
Probable space group: R -3 M
;
_chemical_formula_sum "Si O2"
_cell_formula_units_Z 126
_cell_length_a 20.011691
_cell_length_b 20.011691
_cell_length_c 18.181822
_cell_angle_alpha 90.000000
_cell_angle_beta 90.000000
_cell_angle_gamma 120.000000
_cell_volume 6305.733470
_symmetry_space_group_name_H-M "R -3 M"
_symmetry_group_IT_number 166
_symmetry_cell_setting 'hexagonal'
loop_
_space_group_symop_operation_xyz
x,y,z
-y,x-y,z
-x+y,-x,z
x-y,-y,-z
-x,-x+y,-z
y,x,-z
-x,-y,-z
y,-x+y,-z
x-y,x,-z
-x+y,y,z
x,x-y,z
-y,-x,z
2/3+x,1/3+y,1/3+z
2/3-y,1/3+x-y,1/3+z
2/3-x+y,1/3-x,1/3+z
2/3+x-y,1/3-y,1/3-z
2/3-x,1/3-x+y,1/3-z
2/3+y,1/3+x,1/3-z
2/3-x,1/3-y,1/3-z
2/3+y,1/3-x+y,1/3-z
2/3+x-y,1/3+x,1/3-z
2/3-x+y,1/3+y,1/3+z
2/3+x,1/3+x-y,1/3+z
2/3-y,1/3-x,1/3+z
1/3+x,2/3+y,2/3+z
1/3-y,2/3+x-y,2/3+z
1/3-x+y,2/3-x,2/3+z
1/3+x-y,2/3-y,2/3-z
1/3-x,2/3-x+y,2/3-z
1/3+y,2/3+x,2/3-z
1/3-x,2/3-y,2/3-z
1/3+y,2/3-x+y,2/3-z
1/3+x-y,2/3+x,2/3-z
1/3-x+y,2/3+y,2/3+z
1/3+x,2/3+x-y,2/3+z
1/3-y,2/3-x,2/3+z
loop_
_atom_site_type_symbol
_atom_site_label
_atom_site_fract_x
_atom_site_fract_y
_atom_site_fract_z
Si Si1 0.565604 0.861924 0.591400
Si Si2 0.513553 0.333334 0.833334
Si Si3 0.121500 0.399569 0.029670
Si Si4 0.172057 0.665723 0.436993
O O1 0.571897 0.785949 0.580589
O O2 0.520270 0.853603 0.666667
O O3 0.651818 0.931764 0.607073
O O4 0.524773 0.865895 0.517249
O O5 0.523158 0.261579 0.812094
O O6 0.457499 0.310107 0.902349
O O7 0.192077 0.384154 0.011426
O O8 0.117671 0.445077 0.958463
O O9 0.185946 0.592973 0.426575
O O10 0.253657 0.746343 0.431716
#
# Coordination Sequence:
#
# PCOD9579152 Si02
#       4
#    36  18  36  36
#     4  10  21  37  56  80 111 148 190 235 285 342
#     4  10  19  34  56  82 113 148 190 240 294 348
#     4   9  20  35  51  77 111 145 182 224 275 339
#     4  10  20  36  59  86 114 145 187 241 297 347
#
# _framework density 19.981815999999998
#
# number of rings (size 3 to 8) (size 9 to 14) (size 15 to 20)
#    0.000    2.286    0.000    2.143    0.000    3.429 
#    0.000    7.143    0.000   13.143    0.000    0.000 
#    0.000    0.000    0.000    0.000    0.000    0.000 
#
# Total GULP energy -234106.840751 kJ/mol
# GULP energy per Si atom -5573.972399 kJ/mol
# Density = 1.993634 g / cm^3
# Si number density = 19.981816 Si / 1000 Ang^3
#
#
#
# Elastic Constant Matrix: (Units=GPa)
#
#
# Indices 1 2 3 4 5 6 
#
# 1 17.2747 46.1510 -0.2040 7.2672 0.0004 0.0000
# 2 46.1510 17.2747 -0.2040 -7.2672 -0.0004 0.0000
# 3 -0.2040 -0.2040 56.8813 0.0000 0.0000 0.0000
# 4 7.2672 -7.2672 0.0000 5.9630 0.0000 -0.0004
# 5 0.0004 -0.0004 0.0000 0.0000 5.9630 7.2672
# 6 0.0000 0.0000 0.0000 -0.0004 7.2672 -14.4382
#
#
#
# Elastic Compliance Matrix: (Units=1/GPa)
#
#
# Indices 1 2 3 4 5 6 
#
# 1 -0.002849 0.018615 0.000057 0.026159 0.000001 0.000000
# 2 0.018615 -0.002849 0.000057 -0.026159 -0.000001 0.000000
# 3 0.000057 0.000057 0.017581 0.000000 0.000000 0.000000
# 4 0.026159 -0.026159 0.000000 0.103941 0.000000 -0.000003
# 5 0.000001 -0.000001 0.000000 0.000000 0.103941 0.052317
# 6 0.000000 0.000000 0.000000 -0.000003 0.052317 -0.042928
#
#
# Mechanical properties :
#
#
# Convention : Reuss Voigt Hill
#
# Bulk Modulus (GPa) = 20.26720 20.32405 20.29563
# Shear Modulus (GPa) = 32.08667 2.54342 17.31505
#
# Velocity S-wave (km/s) = 4.01158 1.12944 2.94690
# Velocity P-wave (km/s) = 5.62334 3.44880 4.66455
#
# Compressibility (1/GPa) = 0.04934081
#
# Stress axis : x y z
#
# Youngs Moduli (GPa) = -351.05371 -351.05371 56.88002
#
# Poissons Ratio (x) = 6.53502 -0.00322
# Poissons Ratio (y) = 6.53502 -0.00322
# Poissons Ratio (z) = 0.01985 0.01985
#
# Static dielectric constant tensor:
#      x y z
#    x 1.715470 0.000000 0.000000 
#    y 0.000000 1.715470 0.000000 
#    z 0.000000 0.000000 1.643820 
# 
# From -- ./inp_files/4900.got.cif
#   From: 2010.05.17/outbox.cif.g08.bks.cpg/sg166_3_cif.got.tgz:4900.got - 2010.05.20 11:04:41.
