data_PCOD9579906
_publ_section_title
;
Structure prediction by ZEFSAII (Michael W. Deem and Ramdas Pophale) SiO2 
 PCOD9579906
Probable space group: P 61
;
_chemical_formula_sum "Si O2"
_cell_formula_units_Z 36
_cell_length_a 11.798225
_cell_length_b 11.798225
_cell_length_c 15.047374
_cell_angle_alpha 90.000000
_cell_angle_beta 90.000000
_cell_angle_gamma 120.000000
_cell_volume 1813.947425
_symmetry_space_group_name_H-M "P 61"
_symmetry_group_IT_number 169
_symmetry_cell_setting 'hexagonal'
loop_
_space_group_symop_operation_xyz
x,y,z
x-y,x,1/6+z
-y,x-y,1/3+z
-x,-y,1/2+z
-x+y,-x,2/3+z
y,-x+y,5/6+z
loop_
_atom_site_type_symbol
_atom_site_label
_atom_site_fract_x
_atom_site_fract_y
_atom_site_fract_z
Si Si1 0.027911 0.162293 0.724240
Si Si2 0.448750 0.221429 0.573199
Si Si3 0.964272 0.508770 0.962057
Si Si4 0.232909 0.425272 0.533782
Si Si5 0.633960 0.130358 0.282732
Si Si6 0.915897 0.387221 0.270021
O O1 0.067331 0.106585 0.640341
O O2 0.153556 0.294434 0.758863
O O3 0.932179 0.214129 0.689777
O O4 0.520497 0.158066 0.624126
O O5 0.462892 0.200617 0.469657
O O6 0.511115 0.374468 0.589309
O O7 0.012593 0.571925 0.865390
O O8 0.905772 0.587474 0.011926
O O9 0.071250 0.495212 0.019340
O O10 0.353477 0.538220 0.480292
O O11 0.785306 0.244083 0.276040
O O12 0.606218 0.016542 0.355707
#
# Coordination Sequence:
#
# PCOD9579906 Si02
#       6
#     6   6   6   6   6   6
#     4  10  20  40  66  94 130 176 230 272 330 410
#     4  11  21  43  70  98 132 171 236 286 343 407
#     4  12  26  40  74 100 138 182 222 300 358 402
#     4  11  21  43  70  98 132 171 236 286 343 407
#     4  12  26  44  68 107 143 179 229 291 354 418
#     4  12  26  44  68 107 143 179 229 291 354 418
#
# _framework density 19.846219999999999
#
# number of rings (size 3 to 8) (size 9 to 14) (size 15 to 20)
#    0.000    0.667    6.667    2.000    7.000    0.000 
#    0.000    1.667    0.000    0.000    0.000    0.000 
#    0.000    0.000    0.000    0.000    0.000    0.000 
#
# Total GULP energy -201063.023911 kJ/mol
# GULP energy per Si atom -5585.083998 kJ/mol
# Density = 1.980105 g / cm^3
# Si number density = 19.846220 Si / 1000 Ang^3
#
#
#
# Elastic Constant Matrix: (Units=GPa)
#
#
# Indices 1 2 3 4 5 6 
#
# 1 76.1995 23.6049 28.6547 0.0000 0.0000 0.0000
# 2 23.6049 76.1995 28.6547 0.0000 0.0000 0.0000
# 3 28.6547 28.6547 64.1557 0.0000 0.0000 0.0000
# 4 0.0000 0.0000 0.0000 31.8019 0.0000 0.0000
# 5 0.0000 0.0000 0.0000 0.0000 31.8019 0.0000
# 6 0.0000 0.0000 0.0000 0.0000 0.0000 26.2973
#
#
#
# Elastic Compliance Matrix: (Units=1/GPa)
#
#
# Indices 1 2 3 4 5 6 
#
# 1 0.016245 -0.002769 -0.006019 0.000000 0.000000 0.000000
# 2 -0.002769 0.016245 -0.006019 0.000000 0.000000 0.000000
# 3 -0.006019 -0.006019 0.020964 0.000000 0.000000 0.000000
# 4 0.000000 0.000000 0.000000 0.031445 0.000000 0.000000
# 5 0.000000 0.000000 0.000000 0.000000 0.031445 0.000000
# 6 0.000000 0.000000 0.000000 0.000000 0.000000 0.038027
#
#
# Mechanical properties :
#
#
# Convention : Reuss Voigt Hill
#
# Bulk Modulus (GPa) = 41.94685 42.04262 41.99473
# Shear Modulus (GPa) = 26.05139 27.02291 26.53715
#
# Velocity S-wave (km/s) = 3.62700 3.69401 3.66066
# Velocity P-wave (km/s) = 6.22270 6.27889 6.25086
#
# Compressibility (1/GPa) = 0.02383969
#
# Stress axis : x y z
#
# Youngs Moduli (GPa) = 61.55914 61.55914 47.70165
#
# Poissons Ratio (x) = 0.17045 0.28711
# Poissons Ratio (y) = 0.17045 0.28711
# Poissons Ratio (z) = 0.37051 0.37051
#
# Static dielectric constant tensor:
#      x y z
#    x 1.717360 0.000000 0.000000 
#    y 0.000000 1.717360 0.000000 
#    z 0.000000 0.000000 1.697270 
# 
# From -- ./inp_files/1154.got.cif
#   From: 2010.05.17/outbox.cif.g08.bks.cpg/sg169_cif.got.tgz:1154.got - 2010.05.20 11:12:54.
