data_PCOD9579661
_publ_section_title
;
Structure prediction by ZEFSAII (Michael W. Deem and Ramdas Pophale) SiO2 
 PCOD9579661
Probable space group: R -3 C 
;
_chemical_formula_sum "Si O2"
_cell_formula_units_Z 144
_cell_length_a 22.594897
_cell_length_b 22.594897
_cell_length_c 16.066979
_cell_angle_alpha 90.000000
_cell_angle_beta 90.000000
_cell_angle_gamma 120.000000
_cell_volume 7103.715986
_symmetry_space_group_name_H-M "R -3 C "
_symmetry_group_IT_number 167
_symmetry_cell_setting 'hexagonal'
loop_
_space_group_symop_operation_xyz
x,y,z
-y,x-y,z
-x+y,-x,z
x-y,-y,1/2-z
-x,-x+y,1/2-z
y,x,1/2-z
-x,-y,-z
y,-x+y,-z
x-y,x,-z
-x+y,y,1/2+z
x,x-y,1/2+z
-y,-x,1/2+z
2/3+x,1/3+y,1/3+z
2/3-y,1/3+x-y,1/3+z
2/3-x+y,1/3-x,1/3+z
2/3+x-y,1/3-y,5/6-z
2/3-x,1/3-x+y,5/6-z
2/3+y,1/3+x,5/6-z
2/3-x,1/3-y,1/3-z
2/3+y,1/3-x+y,1/3-z
2/3+x-y,1/3+x,1/3-z
2/3-x+y,1/3+y,5/6+z
2/3+x,1/3+x-y,5/6+z
2/3-y,1/3-x,5/6+z
1/3+x,2/3+y,2/3+z
1/3-y,2/3+x-y,2/3+z
1/3-x+y,2/3-x,2/3+z
1/3+x-y,2/3-y,1/6-z
1/3-x,2/3-x+y,1/6-z
1/3+y,2/3+x,1/6-z
1/3-x,2/3-y,2/3-z
1/3+y,2/3-x+y,2/3-z
1/3+x-y,2/3+x,2/3-z
1/3-x+y,2/3+y,1/6+z
1/3+x,2/3+x-y,1/6+z
1/3-y,2/3-x,1/6+z
loop_
_atom_site_type_symbol
_atom_site_label
_atom_site_fract_x
_atom_site_fract_y
_atom_site_fract_z
Si Si1 0.385285 0.468494 0.342895
Si Si2 0.070954 0.590744 0.900088
Si Si3 0.522009 0.589715 0.593212
Si Si4 0.797235 0.050027 0.520531
O O1 0.333334 0.456056 0.416667
O O2 0.450502 0.543796 0.350614
O O3 0.421443 0.423634 0.362286
O O4 0.339170 0.446760 0.261055
O O5 0.129666 0.666667 0.916667
O O6 0.001853 0.582760 0.859404
O O7 0.052532 0.568413 0.997002
O O8 0.447834 0.539632 0.633106
O O9 0.550650 0.669939 0.607050
#
# Coordination Sequence:
#
# PCOD9579661 Si02
#       4
#    36  36  36  36
#     4  11  19  39  61  82 121 161 189 242 309 363
#     4  11  23  37  60  90 122 158 201 248 304 374
#     4  11  23  38  59  91 120 159 201 248 307 361
#     4  11  23  39  60  89 124 159 200 250 306 366
#
# _framework density 20.271080999999999
#
# number of rings (size 3 to 8) (size 9 to 14) (size 15 to 20)
#    0.000    1.000    5.000    3.750    3.500    0.000 
#    0.000    0.000    0.000    1.000    6.500    0.000 
#    0.000    0.000    0.000    0.000    0.000    0.000 
#
# Total GULP energy -268106.435469 kJ/mol
# GULP energy per Si atom -5585.550739 kJ/mol
# Density = 2.022494 g / cm^3
# Si number density = 20.271081 Si / 1000 Ang^3
#
#
#
# Elastic Constant Matrix: (Units=GPa)
#
#
# Indices 1 2 3 4 5 6 
#
# 1 81.9362 49.2566 -3.7017 5.5089 -0.0044 0.0000
# 2 49.2566 81.9362 -3.7017 -5.5089 0.0044 0.0000
# 3 -3.7017 -3.7017 43.3871 0.0000 0.0000 0.0000
# 4 5.5089 -5.5089 0.0000 43.8592 0.0000 0.0044
# 5 -0.0044 0.0044 0.0000 0.0000 43.8592 5.5089
# 6 0.0000 0.0000 0.0000 0.0044 5.5089 16.3398
#
#
#
# Elastic Compliance Matrix: (Units=1/GPa)
#
#
# Indices 1 2 3 4 5 6 
#
# 1 0.019806 -0.012147 0.000653 -0.004014 0.000003 0.000000
# 2 -0.012147 0.019806 0.000653 0.004014 -0.000003 0.000000
# 3 0.000653 0.000653 0.023160 0.000000 0.000000 0.000000
# 4 -0.004014 0.004014 0.000000 0.023808 0.000000 -0.000006
# 5 0.000003 -0.000003 0.000000 0.000000 0.023808 -0.008027
# 6 0.000000 0.000000 0.000000 -0.000006 -0.008027 0.063907
#
#
# Mechanical properties :
#
#
# Convention : Reuss Voigt Hill
#
# Bulk Modulus (GPa) = 24.33555 32.32957 28.33256
# Shear Modulus (GPa) = 23.84658 31.83870 27.84264
#
# Velocity S-wave (km/s) = 3.43357 3.96744 3.71012
# Velocity P-wave (km/s) = 5.26785 6.08035 5.68863
#
# Compressibility (1/GPa) = 0.04109215
#
# Stress axis : x y z
#
# Youngs Moduli (GPa) = 50.48900 50.48900 43.17825
#
# Poissons Ratio (x) = 0.61329 -0.02822
# Poissons Ratio (y) = 0.61329 -0.02822
# Poissons Ratio (z) = -0.03299 -0.03299
#
# Static dielectric constant tensor:
#      x y z
#    x 1.714010 0.000000 0.000000 
#    y 0.000000 1.714010 0.000000 
#    z 0.000000 0.000000 1.882760 
# 
# From -- ./inp_files/3318.got.cif
#   From: 2010.05.17/outbox.cif.g08.bks.cpg/sg167_2_cif.got.tgz:3318.got - 2010.05.20 11:09:15.
