data_PCOD9579652
_publ_section_title
;
Structure prediction by ZEFSAII (Michael W. Deem and Ramdas Pophale) SiO2 
 PCOD9579652
Probable space group: R -3 C 
;
_chemical_formula_sum "Si O2"
_cell_formula_units_Z 162
_cell_length_a 23.764140
_cell_length_b 23.764140
_cell_length_c 14.283201
_cell_angle_alpha 90.000000
_cell_angle_beta 90.000000
_cell_angle_gamma 120.000000
_cell_volume 6985.546437
_symmetry_space_group_name_H-M "R -3 C "
_symmetry_group_IT_number 167
_symmetry_cell_setting 'hexagonal'
loop_
_space_group_symop_operation_xyz
x,y,z
-y,x-y,z
-x+y,-x,z
x-y,-y,1/2-z
-x,-x+y,1/2-z
y,x,1/2-z
-x,-y,-z
y,-x+y,-z
x-y,x,-z
-x+y,y,1/2+z
x,x-y,1/2+z
-y,-x,1/2+z
2/3+x,1/3+y,1/3+z
2/3-y,1/3+x-y,1/3+z
2/3-x+y,1/3-x,1/3+z
2/3+x-y,1/3-y,5/6-z
2/3-x,1/3-x+y,5/6-z
2/3+y,1/3+x,5/6-z
2/3-x,1/3-y,1/3-z
2/3+y,1/3-x+y,1/3-z
2/3+x-y,1/3+x,1/3-z
2/3-x+y,1/3+y,5/6+z
2/3+x,1/3+x-y,5/6+z
2/3-y,1/3-x,5/6+z
1/3+x,2/3+y,2/3+z
1/3-y,2/3+x-y,2/3+z
1/3-x+y,2/3-x,2/3+z
1/3+x-y,2/3-y,1/6-z
1/3-x,2/3-x+y,1/6-z
1/3+y,2/3+x,1/6-z
1/3-x,2/3-y,2/3-z
1/3+y,2/3-x+y,2/3-z
1/3+x-y,2/3+x,2/3-z
1/3-x+y,2/3+y,1/6+z
1/3+x,2/3+x-y,1/6+z
1/3-y,2/3-x,1/6+z
loop_
_atom_site_type_symbol
_atom_site_label
_atom_site_fract_x
_atom_site_fract_y
_atom_site_fract_z
Si Si1 0.018485 0.407332 0.355799
Si Si2 0.977068 0.114963 0.962543
Si Si3 0.471227 0.666667 0.916667
Si Si4 0.770938 0.785472 0.080987
Si Si5 0.840672 0.174006 0.416667
Si Si6 0.785942 0.333334 0.083334
O O1 0.958292 0.361164 0.424024
O O2 0.022278 0.475890 0.332816
O O3 0.000000 0.375253 0.250000
O O4 0.077952 0.411285 0.416667
O O5 0.977870 0.127743 0.852567
O O6 0.044825 0.123869 0.003208
O O7 0.971817 0.173405 0.007042
O O8 0.504539 0.647734 0.835264
O O9 0.400273 0.611250 0.947681
O O10 0.722699 0.811002 0.050413
#
# Coordination Sequence:
#
# PCOD9579652 Si02
#       6
#    36  36  18  36  18  18
#     4  10  25  49  76 103 147 192 240 310 371 427
#     4  12  23  41  68 102 148 195 237 308 366 444
#     4  12  27  41  76 102 151 194 244 299 362 456
#     4  12  24  49  70 109 142 192 246 308 363 435
#     4  10  26  47  78 107 144 184 256 300 366 444
#     4  12  23  42  64 105 141 198 240 289 378 440
#
# _framework density 23.190740000000002
#
# number of rings (size 3 to 8) (size 9 to 14) (size 15 to 20)
#    0.667    0.000    5.556    1.778    1.556    0.000 
#    8.000    2.222    0.000    0.000    0.000    0.000 
#    0.000    0.000    0.000    0.000    0.000    0.000 
#
# Total GULP energy -300961.369898 kJ/mol
# GULP energy per Si atom -5573.358702 kJ/mol
# Density = 2.313796 g / cm^3
# Si number density = 23.190740 Si / 1000 Ang^3
#
#
#
# Elastic Constant Matrix: (Units=GPa)
#
#
# Indices 1 2 3 4 5 6 
#
# 1 70.4932 8.8782 -1.9039 -3.5819 -0.0005 0.0000
# 2 8.8782 70.4932 -1.9039 3.5819 0.0005 0.0000
# 3 -1.9039 -1.9039 87.0745 0.0000 0.0000 0.0000
# 4 -3.5819 3.5819 0.0000 31.7683 0.0000 0.0005
# 5 -0.0005 0.0005 0.0000 0.0000 31.7683 -3.5819
# 6 0.0000 0.0000 0.0000 0.0005 -3.5819 30.8075
#
#
#
# Elastic Compliance Matrix: (Units=1/GPa)
#
#
# Indices 1 2 3 4 5 6 
#
# 1 0.014529 -0.001917 0.000276 0.001854 0.000000 0.000000
# 2 -0.001917 0.014529 0.000276 -0.001854 0.000000 0.000000
# 3 0.000276 0.000276 0.011496 0.000000 0.000000 0.000000
# 4 0.001854 -0.001854 0.000000 0.031896 0.000000 -0.000001
# 5 0.000000 0.000000 0.000000 0.000000 0.031896 0.003709
# 6 0.000000 0.000000 0.000000 -0.000001 0.003709 0.032891
#
#
# Mechanical properties :
#
#
# Convention : Reuss Voigt Hill
#
# Bulk Modulus (GPa) = 26.43825 26.46687 26.45256
# Shear Modulus (GPa) = 32.77075 33.73487 33.25281
#
# Velocity S-wave (km/s) = 3.76320 3.81815 3.79077
# Velocity P-wave (km/s) = 5.50521 5.55654 5.53093
#
# Compressibility (1/GPa) = 0.03782398
#
# Stress axis : x y z
#
# Youngs Moduli (GPa) = 68.82876 68.82876 86.98314
#
# Poissons Ratio (x) = 0.13192 -0.02399
# Poissons Ratio (y) = 0.13192 -0.02399
# Poissons Ratio (z) = -0.01898 -0.01898
#
# Static dielectric constant tensor:
#      x y z
#    x 1.880260 0.000000 0.000000 
#    y 0.000000 1.880260 0.000000 
#    z 0.000000 0.000000 1.975410 
# 
# From -- ./inp_files/3494.got.cif
#   From: 2010.05.17/outbox.cif.g08.bks.cpg/sg167_2_cif.got.tgz:3494.got - 2010.05.20 11:09:15.
