data_PCOD9579052
_publ_section_title
;
Structure prediction by ZEFSAII (Michael W. Deem and Ramdas Pophale) SiO2 
 PCOD9579052
Probable space group: R -3 M
;
_chemical_formula_sum "Si O2"
_cell_formula_units_Z 216
_cell_length_a 24.225197
_cell_length_b 24.225197
_cell_length_c 25.899273
_cell_angle_alpha 90.000000
_cell_angle_beta 90.000000
_cell_angle_gamma 120.000000
_cell_volume 13162.938132
_symmetry_space_group_name_H-M "R -3 M"
_symmetry_group_IT_number 166
_symmetry_cell_setting 'hexagonal'
loop_
_space_group_symop_operation_xyz
x,y,z
-y,x-y,z
-x+y,-x,z
x-y,-y,-z
-x,-x+y,-z
y,x,-z
-x,-y,-z
y,-x+y,-z
x-y,x,-z
-x+y,y,z
x,x-y,z
-y,-x,z
2/3+x,1/3+y,1/3+z
2/3-y,1/3+x-y,1/3+z
2/3-x+y,1/3-x,1/3+z
2/3+x-y,1/3-y,1/3-z
2/3-x,1/3-x+y,1/3-z
2/3+y,1/3+x,1/3-z
2/3-x,1/3-y,1/3-z
2/3+y,1/3-x+y,1/3-z
2/3+x-y,1/3+x,1/3-z
2/3-x+y,1/3+y,1/3+z
2/3+x,1/3+x-y,1/3+z
2/3-y,1/3-x,1/3+z
1/3+x,2/3+y,2/3+z
1/3-y,2/3+x-y,2/3+z
1/3-x+y,2/3-x,2/3+z
1/3+x-y,2/3-y,2/3-z
1/3-x,2/3-x+y,2/3-z
1/3+y,2/3+x,2/3-z
1/3-x,2/3-y,2/3-z
1/3+y,2/3-x+y,2/3-z
1/3+x-y,2/3+x,2/3-z
1/3-x+y,2/3+y,2/3+z
1/3+x,2/3+x-y,2/3+z
1/3-y,2/3-x,2/3+z
loop_
_atom_site_type_symbol
_atom_site_label
_atom_site_fract_x
_atom_site_fract_y
_atom_site_fract_z
Si Si1 0.482432 0.640302 0.821905
Si Si2 0.550692 0.101384 0.469337
Si Si3 0.035302 0.517651 0.417167
Si Si4 0.772367 0.672955 0.839672
Si Si5 0.039128 0.654956 0.082548
Si Si6 0.124589 0.125725 0.270085
Si Si7 0.080959 0.431174 0.361406
O O1 0.417373 0.582628 0.797933
O O2 0.523462 0.706988 0.792839
O O3 0.526964 0.609780 0.834530
O O4 0.462502 0.659996 0.875101
O O5 0.538731 0.077462 0.529719
O O6 0.518712 0.037424 0.435923
O O7 0.051270 0.472821 0.382732
O O8 0.829441 0.658882 0.851926
O O9 0.719039 0.654507 0.883757
O O10 0.733222 0.634846 0.788799
O O11 0.968374 0.624375 0.058770
O O12 0.083752 0.673674 0.032593
O O13 0.054796 0.109592 0.286944
O O14 0.178097 0.193351 0.291607
O O15 0.137687 0.068844 0.283768
#
# Coordination Sequence:
#
# PCOD9579052 Si02
#       7
#    36  18  18  36  36  36  36
#     4  10  18  30  48  71 101 134 171 212 259 315
#     4  11  18  32  50  76 104 141 177 218 265 337
#     4  11  20  30  54  74 106 139 175 218 278 328
#     4  10  20  36  53  73 103 143 180 219 267 329
#     4  10  22  34  53  78 104 137 179 226 274 320
#     4  11  20  33  50  75 108 142 173 211 264 326
#     4  11  20  35  52  79 108 135 177 225 276 326
#
# _framework density 16.40971
#
# number of rings (size 3 to 8) (size 9 to 14) (size 15 to 20)
#    0.000    1.500    5.000    1.167    1.167    3.333 
#    0.500    1.667    0.000    0.000    0.000    0.000 
#    0.000    0.000    0.000   12.833    0.000    0.000 
#
# Total GULP energy -401127.483071 kJ/mol
# GULP energy per Si atom -5571.215043 kJ/mol
# Density = 1.637236 g / cm^3
# Si number density = 16.409710 Si / 1000 Ang^3
#
#
#
# Elastic Constant Matrix: (Units=GPa)
#
#
# Indices 1 2 3 4 5 6 
#
# 1 84.5489 34.0227 18.5311 -3.2656 0.0000 0.0000
# 2 34.0227 84.5489 18.5311 3.2656 0.0000 0.0000
# 3 18.5311 18.5311 53.5433 0.0000 0.0000 0.0000
# 4 -3.2656 3.2656 0.0000 12.7612 0.0000 0.0000
# 5 0.0000 0.0000 0.0000 0.0000 12.7612 -3.2656
# 6 0.0000 0.0000 0.0000 0.0000 -3.2656 25.2631
#
#
#
# Elastic Compliance Matrix: (Units=1/GPa)
#
#
# Indices 1 2 3 4 5 6 
#
# 1 0.014963 -0.005506 -0.003273 0.005238 0.000000 0.000000
# 2 -0.005506 0.014963 -0.003273 -0.005238 0.000000 0.000000
# 3 -0.003273 -0.003273 0.020942 0.000000 0.000000 0.000000
# 4 0.005238 -0.005238 0.000000 0.081043 0.000000 0.000000
# 5 0.000000 0.000000 0.000000 0.000000 0.081043 0.010476
# 6 0.000000 0.000000 0.000000 0.000000 0.010476 0.040938
#
#
# Mechanical properties :
#
#
# Convention : Reuss Voigt Hill
#
# Bulk Modulus (GPa) = 37.36403 40.53455 38.94929
# Shear Modulus (GPa) = 17.42668 20.26088 18.84378
#
# Velocity S-wave (km/s) = 3.26233 3.51763 3.39238
# Velocity P-wave (km/s) = 6.08353 6.42288 6.25551
#
# Compressibility (1/GPa) = 0.02676371
#
# Stress axis : x y z
#
# Youngs Moduli (GPa) = 66.83256 66.83256 47.75103
#
# Poissons Ratio (x) = 0.36798 0.15629
# Poissons Ratio (y) = 0.36798 0.15629
# Poissons Ratio (z) = 0.21874 0.21874
#
# Static dielectric constant tensor:
#      x y z
#    x 1.561160 0.000000 0.000000 
#    y 0.000000 1.561160 0.000000 
#    z 0.000000 0.000000 1.540800 
# 
# From -- ./inp_files/9758.got.cif
#   From: 2010.05.17/outbox.cif.g08.bks.cpg/sg166_5_cif.got.tgz:9758.got - 2010.05.20 11:04:41.
