data_PCOD9579349
_publ_section_title
;
Structure prediction by ZEFSAII (Michael W. Deem and Ramdas Pophale) SiO2 
 PCOD9579349
Probable space group: R -3 M
;
_chemical_formula_sum "Si O2"
_cell_formula_units_Z 135
_cell_length_a 27.601188
_cell_length_b 27.601188
_cell_length_c 10.258149
_cell_angle_alpha 90.000000
_cell_angle_beta 90.000000
_cell_angle_gamma 120.000000
_cell_volume 6767.919510
_symmetry_space_group_name_H-M "R -3 M"
_symmetry_group_IT_number 166
_symmetry_cell_setting 'hexagonal'
loop_
_space_group_symop_operation_xyz
x,y,z
-y,x-y,z
-x+y,-x,z
x-y,-y,-z
-x,-x+y,-z
y,x,-z
-x,-y,-z
y,-x+y,-z
x-y,x,-z
-x+y,y,z
x,x-y,z
-y,-x,z
2/3+x,1/3+y,1/3+z
2/3-y,1/3+x-y,1/3+z
2/3-x+y,1/3-x,1/3+z
2/3+x-y,1/3-y,1/3-z
2/3-x,1/3-x+y,1/3-z
2/3+y,1/3+x,1/3-z
2/3-x,1/3-y,1/3-z
2/3+y,1/3-x+y,1/3-z
2/3+x-y,1/3+x,1/3-z
2/3-x+y,1/3+y,1/3+z
2/3+x,1/3+x-y,1/3+z
2/3-y,1/3-x,1/3+z
1/3+x,2/3+y,2/3+z
1/3-y,2/3+x-y,2/3+z
1/3-x+y,2/3-x,2/3+z
1/3+x-y,2/3-y,2/3-z
1/3-x,2/3-x+y,2/3-z
1/3+y,2/3+x,2/3-z
1/3-x,2/3-y,2/3-z
1/3+y,2/3-x+y,2/3-z
1/3+x-y,2/3+x,2/3-z
1/3-x+y,2/3+y,2/3+z
1/3+x,2/3+x-y,2/3+z
1/3-y,2/3-x,2/3+z
loop_
_atom_site_type_symbol
_atom_site_label
_atom_site_fract_x
_atom_site_fract_y
_atom_site_fract_z
Si Si1 0.939502 0.333334 0.833334
Si Si2 0.937791 0.228292 0.961095
Si Si3 0.235320 0.172047 0.698162
Si Si4 0.166667 0.333334 0.833334
Si Si5 0.333815 0.777640 0.323559
O O1 0.946310 0.288607 0.918860
O O2 0.888521 0.297094 0.736788
O O3 0.922174 0.192081 0.829836
O O4 0.889282 0.197603 0.068034
O O5 0.000000 0.241753 0.000000
O O6 0.237323 0.118662 0.642415
O O7 0.169903 0.150680 0.721679
O O8 0.394531 0.789061 0.361607
O O9 0.286424 0.713577 0.349439
O O10 0.333334 0.785452 0.166667
#
# Coordination Sequence:
#
# PCOD9579349 Si02
#       5
#    18  36  36   9  36
#     4  12  25  42  74  99 135 184 234 315 384 450
#     4  12  26  49  69 102 140 191 254 310 381 469
#     4  11  23  41  65 100 142 174 230 300 368 447
#     4  12  26  48  78 104 144 208 256 318 410 466
#     4   9  17  33  57  93 134 180 225 279 350 425
#
# _framework density 19.947046
#
# number of rings (size 3 to 8) (size 9 to 14) (size 15 to 20)
#    0.000    1.067    2.667    5.067    1.867    2.133 
#    7.200    0.000    0.000    0.000    0.000    0.000 
#    0.000    5.333    0.000    0.000    0.000    0.000 
#
# Total GULP energy -250620.217459 kJ/mol
# GULP energy per Si atom -5569.338166 kJ/mol
# Density = 1.990165 g / cm^3
# Si number density = 19.947046 Si / 1000 Ang^3
#
#
#
# Elastic Constant Matrix: (Units=GPa)
#
#
# Indices 1 2 3 4 5 6 
#
# 1 92.7801 65.2020 43.0081 0.9202 0.0153 -0.0068
# 2 65.2020 92.7651 42.9857 -0.9101 -0.0013 -0.0015
# 3 43.0081 42.9857 95.6173 0.0122 0.0161 -0.0099
# 4 0.9202 -0.9101 0.0122 25.2855 0.0077 -0.0047
# 5 0.0153 -0.0013 0.0161 0.0077 25.2932 0.9127
# 6 -0.0068 -0.0015 -0.0099 -0.0047 0.9127 13.7853
#
#
#
# Elastic Compliance Matrix: (Units=1/GPa)
#
#
# Indices 1 2 3 4 5 6 
#
# 1 0.022371 -0.013988 -0.003774 -0.001316 -0.000012 0.000007
# 2 -0.013988 0.022369 -0.003765 0.001316 0.000012 -0.000008
# 3 -0.003774 -0.003765 0.013848 -0.000005 -0.000007 0.000008
# 4 -0.001316 0.001316 -0.000005 0.039644 -0.000012 0.000014
# 5 -0.000012 0.000012 -0.000007 -0.000012 0.039631 -0.002624
# 6 0.000007 -0.000008 0.000008 0.000014 -0.002624 0.072715
#
#
# Mechanical properties :
#
#
# Convention : Reuss Voigt Hill
#
# Bulk Modulus (GPa) = 64.36932 64.83934 64.60433
# Shear Modulus (GPa) = 19.31933 21.53726 20.42829
#
# Velocity S-wave (km/s) = 3.11550 3.28948 3.20367
# Velocity P-wave (km/s) = 6.72919 6.85593 6.79286
#
# Compressibility (1/GPa) = 0.01553535
#
# Stress axis : x y z
#
# Youngs Moduli (GPa) = 44.70133 44.70446 72.21182
#
# Poissons Ratio (x) = 0.62533 0.27250
# Poissons Ratio (y) = 0.62528 0.27185
# Poissons Ratio (z) = 0.16868 0.16830
#
# Static dielectric constant tensor:
#      x y z
#    x 1.514340 -0.000670 -0.000620 
#    y -0.000670 1.513760 -0.000460 
#    z -0.000620 -0.000460 1.581320 
# 
# From -- ./inp_files/2979.got.cif
#   From: 2010.05.17/outbox.cif.g08.bks.cpg/sg166_2_cif.got.tgz:2979.got - 2010.05.20 11:04:41.
