data_PCOD9579166
_publ_section_title
;
Structure prediction by ZEFSAII (Michael W. Deem and Ramdas Pophale) SiO2 
 PCOD9579166
Probable space group: R -3 M
;
_chemical_formula_sum "Si O2"
_cell_formula_units_Z 126
_cell_length_a 28.546405
_cell_length_b 28.546405
_cell_length_c 9.795012
_cell_angle_alpha 90.000000
_cell_angle_beta 90.000000
_cell_angle_gamma 120.000000
_cell_volume 6912.552618
_symmetry_space_group_name_H-M "R -3 M"
_symmetry_group_IT_number 166
_symmetry_cell_setting 'hexagonal'
loop_
_space_group_symop_operation_xyz
x,y,z
-y,x-y,z
-x+y,-x,z
x-y,-y,-z
-x,-x+y,-z
y,x,-z
-x,-y,-z
y,-x+y,-z
x-y,x,-z
-x+y,y,z
x,x-y,z
-y,-x,z
2/3+x,1/3+y,1/3+z
2/3-y,1/3+x-y,1/3+z
2/3-x+y,1/3-x,1/3+z
2/3+x-y,1/3-y,1/3-z
2/3-x,1/3-x+y,1/3-z
2/3+y,1/3+x,1/3-z
2/3-x,1/3-y,1/3-z
2/3+y,1/3-x+y,1/3-z
2/3+x-y,1/3+x,1/3-z
2/3-x+y,1/3+y,1/3+z
2/3+x,1/3+x-y,1/3+z
2/3-y,1/3-x,1/3+z
1/3+x,2/3+y,2/3+z
1/3-y,2/3+x-y,2/3+z
1/3-x+y,2/3-x,2/3+z
1/3+x-y,2/3-y,2/3-z
1/3-x,2/3-x+y,2/3-z
1/3+y,2/3+x,2/3-z
1/3-x,2/3-y,2/3-z
1/3+y,2/3-x+y,2/3-z
1/3+x-y,2/3+x,2/3-z
1/3-x+y,2/3+y,2/3+z
1/3+x,2/3+x-y,2/3+z
1/3-y,2/3-x,2/3+z
loop_
_atom_site_type_symbol
_atom_site_label
_atom_site_fract_x
_atom_site_fract_y
_atom_site_fract_z
Si Si1 0.887790 0.112211 0.725027
Si Si2 0.298345 0.406899 0.543203
Si Si3 0.424712 0.050371 0.705584
Si Si4 0.730201 0.269800 0.807820
Si Si5 0.786857 0.573714 0.915559
O O1 0.833317 0.073928 0.808068
O O2 0.918981 0.081020 0.667956
O O3 0.871941 0.128060 0.579573
O O4 0.333334 0.445442 0.666667
O O5 0.337063 0.405209 0.426671
O O6 0.267783 0.346421 0.602963
O O7 0.411291 0.077958 0.833334
O O8 0.488255 0.072721 0.690330
O O9 0.758742 0.333334 0.833334
O O10 0.754534 0.245467 0.916483
#
# Coordination Sequence:
#
# PCOD9579166 Si02
#       5
#    18  36  36  18  18
#     4  10  23  42  62  90 127 166 209 251 315 378
#     4  12  25  40  60  91 128 167 211 260 316 372
#     4  12  22  38  62  89 122 164 211 264 308 362
#     4  10  19  36  63  99 124 147 199 266 316 364
#     4  10  21  38  62  89 120 160 211 253 309 374
#
# _framework density 18.227709999999998
#
# number of rings (size 3 to 8) (size 9 to 14) (size 15 to 20)
#    0.857    0.000    2.857    7.000    0.000    2.286 
#    0.000    4.286    0.000    0.000    0.000    1.000 
#    0.000    0.000    0.000    0.000    0.000    0.000 
#
# Total GULP energy -234432.062716 kJ/mol
# GULP energy per Si atom -5581.715779 kJ/mol
# Density = 1.818622 g / cm^3
# Si number density = 18.227710 Si / 1000 Ang^3
#
#
#
# Elastic Constant Matrix: (Units=GPa)
#
#
# Indices 1 2 3 4 5 6 
#
# 1 144.4598 78.9054 34.6665 -29.4339 -0.0258 -0.0034
# 2 78.9054 144.4592 34.6723 29.4484 -0.0052 0.0057
# 3 34.6665 34.6723 62.1263 0.0252 -0.0392 0.0023
# 4 -29.4339 29.4484 0.0252 28.0264 0.0220 -0.0165
# 5 -0.0258 -0.0052 -0.0392 0.0220 27.9873 -29.4552
# 6 -0.0034 0.0057 0.0023 -0.0165 -29.4552 32.7740
#
#
#
# Elastic Compliance Matrix: (Units=1/GPa)
#
#
# Indices 1 2 3 4 5 6 
#
# 1 0.137883 -0.132452 -0.003133 0.283984 0.001184 0.001244
# 2 -0.132452 0.137852 -0.002911 -0.283948 -0.001229 -0.001285
# 3 -0.003133 -0.002911 0.019469 -0.000250 0.000419 0.000376
# 4 0.283984 -0.283948 -0.000250 0.632281 0.002363 0.002521
# 5 0.001184 -0.001229 0.000419 0.002363 0.660135 0.593289
# 6 0.001244 -0.001285 0.000376 0.002521 0.593289 0.563724
#
#
# Mechanical properties :
#
#
# Convention : Reuss Voigt Hill
#
# Bulk Modulus (GPa) = 54.90917 71.94818 63.42868
# Shear Modulus (GPa) = 2.05389 31.27761 16.66575
#
# Velocity S-wave (km/s) = 1.06266 4.14688 3.02703
# Velocity P-wave (km/s) = 5.62984 7.90483 6.86227
#
# Compressibility (1/GPa) = 0.01821189
#
# Stress axis : x y z
#
# Youngs Moduli (GPa) = 7.25250 7.25418 51.36294
#
# Poissons Ratio (x) = 0.96083 0.16092
# Poissons Ratio (y) = 0.96061 0.14950
# Poissons Ratio (z) = 0.02272 0.02111
#
# Static dielectric constant tensor:
#      x y z
#    x 1.641600 0.000000 -0.000010 
#    y 0.000000 1.641600 0.000000 
#    z -0.000010 0.000000 1.627680 
# 
# From -- ./inp_files/1681.got.cif
#   From: 2010.05.17/outbox.cif.g08.bks.cpg/sg166_1_cif.got.tgz:1681.got - 2010.05.20 11:04:41.
