data_PCOD9579338
_publ_section_title
;
Structure prediction by ZEFSAII (Michael W. Deem and Ramdas Pophale) SiO2 
 PCOD9579338
Probable space group: R -3 M
;
_chemical_formula_sum "Si O2"
_cell_formula_units_Z 162
_cell_length_a 21.123566
_cell_length_b 21.123566
_cell_length_c 23.476401
_cell_angle_alpha 90.000000
_cell_angle_beta 90.000000
_cell_angle_gamma 120.000000
_cell_volume 9071.865919
_symmetry_space_group_name_H-M "R -3 M"
_symmetry_group_IT_number 166
_symmetry_cell_setting 'hexagonal'
loop_
_space_group_symop_operation_xyz
x,y,z
-y,x-y,z
-x+y,-x,z
x-y,-y,-z
-x,-x+y,-z
y,x,-z
-x,-y,-z
y,-x+y,-z
x-y,x,-z
-x+y,y,z
x,x-y,z
-y,-x,z
2/3+x,1/3+y,1/3+z
2/3-y,1/3+x-y,1/3+z
2/3-x+y,1/3-x,1/3+z
2/3+x-y,1/3-y,1/3-z
2/3-x,1/3-x+y,1/3-z
2/3+y,1/3+x,1/3-z
2/3-x,1/3-y,1/3-z
2/3+y,1/3-x+y,1/3-z
2/3+x-y,1/3+x,1/3-z
2/3-x+y,1/3+y,1/3+z
2/3+x,1/3+x-y,1/3+z
2/3-y,1/3-x,1/3+z
1/3+x,2/3+y,2/3+z
1/3-y,2/3+x-y,2/3+z
1/3-x+y,2/3-x,2/3+z
1/3+x-y,2/3-y,2/3-z
1/3-x,2/3-x+y,2/3-z
1/3+y,2/3+x,2/3-z
1/3-x,2/3-y,2/3-z
1/3+y,2/3-x+y,2/3-z
1/3+x-y,2/3+x,2/3-z
1/3-x+y,2/3+y,2/3+z
1/3+x,2/3+x-y,2/3+z
1/3-y,2/3-x,2/3+z
loop_
_atom_site_type_symbol
_atom_site_label
_atom_site_fract_x
_atom_site_fract_y
_atom_site_fract_z
Si Si1 0.997440 0.751316 0.605296
Si Si2 0.945860 0.203429 0.946177
Si Si3 0.584274 0.716940 0.397561
Si Si4 0.333334 0.515392 0.166667
Si Si5 0.951294 0.754086 0.162482
O O1 0.932514 0.668131 0.594570
O O2 0.980766 0.771991 0.667248
O O3 0.998956 0.803111 0.555424
O O4 0.072657 0.750068 0.608672
O O5 0.877653 0.122348 0.951865
O O6 0.992073 0.213786 0.889236
O O7 0.000000 0.226530 0.000000
O O8 0.582159 0.791080 0.403625
O O9 0.536878 0.658898 0.445334
O O10 0.260806 0.521611 0.166092
O O11 0.883039 0.766078 0.153047
O O12 0.918359 0.666667 0.166667
#
# Coordination Sequence:
#
# PCOD9579338 Si02
#       5
#    36  36  36  18  36
#     4  11  21  40  60  92 121 155 200 253 310 353
#     4  12  23  40  64  93 126 156 199 252 307 364
#     4  11  21  38  62  90 125 156 195 252 306 361
#     4  12  25  40  58  84 121 166 206 242 294 364
#     4  11  22  39  61  88 123 159 204 254 299 353
#
# _framework density 17.857406000000001
#
# number of rings (size 3 to 8) (size 9 to 14) (size 15 to 20)
#    0.000    0.667    4.444    6.111    0.000    3.556 
#    0.000    0.000    0.000    8.444    0.000    0.000 
#    0.000    0.000    0.000    0.000    0.000    0.000 
#
# Total GULP energy -302060.268809 kJ/mol
# GULP energy per Si atom -5593.708682 kJ/mol
# Density = 1.781676 g / cm^3
# Si number density = 17.857406 Si / 1000 Ang^3
#
#
#
# Elastic Constant Matrix: (Units=GPa)
#
#
# Indices 1 2 3 4 5 6 
#
# 1 115.5657 70.0999 70.1366 -4.9657 0.0002 0.0000
# 2 70.0999 115.5657 70.1366 4.9657 -0.0002 0.0000
# 3 70.1366 70.1366 115.9965 0.0000 0.0000 0.0000
# 4 -4.9657 4.9657 0.0000 -7.5534 0.0000 -0.0002
# 5 0.0002 -0.0002 0.0000 0.0000 -7.5534 -4.9657
# 6 0.0000 0.0000 0.0000 -0.0002 -4.9657 22.7329
#
#
#
# Elastic Compliance Matrix: (Units=1/GPa)
#
#
# Indices 1 2 3 4 5 6 
#
# 1 0.014574 -0.004658 -0.005995 -0.012644 0.000000 0.000000
# 2 -0.004658 0.014574 -0.005995 0.012644 0.000000 0.000000
# 3 -0.005995 -0.005995 0.015871 0.000000 0.000000 0.000000
# 4 -0.012644 0.012644 0.000000 -0.115766 0.000000 -0.000001
# 5 0.000000 0.000000 0.000000 0.000000 -0.115766 -0.025288
# 6 0.000000 0.000000 0.000000 -0.000001 -0.025288 0.038465
#
#
# Mechanical properties :
#
#
# Convention : Reuss Voigt Hill
#
# Bulk Modulus (GPa) = 85.31902 85.31937 85.31920
# Shear Modulus (GPa) = -45.10954 10.64220 -17.23367
#
# Velocity S-wave (km/s) = -5.03148 2.44387 -3.10993
# Velocity P-wave (km/s) = 3.75862 7.47296 5.91491
#
# Compressibility (1/GPa) = 0.01172072
#
# Stress axis : x y z
#
# Youngs Moduli (GPa) = 68.61453 68.61453 63.00717
#
# Poissons Ratio (x) = 0.31964 0.37776
# Poissons Ratio (y) = 0.31964 0.37776
# Poissons Ratio (z) = 0.41138 0.41138
#
# Static dielectric constant tensor:
#      x y z
#    x 1.590690 0.000000 0.000000 
#    y 0.000000 1.590690 0.000000 
#    z 0.000000 0.000000 1.600400 
# 
# From -- ./inp_files/6750.got.cif
#   From: 2010.05.17/outbox.cif.g08.bks.cpg/sg166_4_cif.got.tgz:6750.got - 2010.05.20 11:04:41.
