data_PCOD9579259
_publ_section_title
;
Structure prediction by ZEFSAII (Michael W. Deem and Ramdas Pophale) SiO2 
 PCOD9579259
Probable space group: R -3 M
;
_chemical_formula_sum "Si O2"
_cell_formula_units_Z 162
_cell_length_a 20.405997
_cell_length_b 20.405997
_cell_length_c 22.723210
_cell_angle_alpha 90.000000
_cell_angle_beta 90.000000
_cell_angle_gamma 120.000000
_cell_volume 8194.377189
_symmetry_space_group_name_H-M "R -3 M"
_symmetry_group_IT_number 166
_symmetry_cell_setting 'hexagonal'
loop_
_space_group_symop_operation_xyz
x,y,z
-y,x-y,z
-x+y,-x,z
x-y,-y,-z
-x,-x+y,-z
y,x,-z
-x,-y,-z
y,-x+y,-z
x-y,x,-z
-x+y,y,z
x,x-y,z
-y,-x,z
2/3+x,1/3+y,1/3+z
2/3-y,1/3+x-y,1/3+z
2/3-x+y,1/3-x,1/3+z
2/3+x-y,1/3-y,1/3-z
2/3-x,1/3-x+y,1/3-z
2/3+y,1/3+x,1/3-z
2/3-x,1/3-y,1/3-z
2/3+y,1/3-x+y,1/3-z
2/3+x-y,1/3+x,1/3-z
2/3-x+y,1/3+y,1/3+z
2/3+x,1/3+x-y,1/3+z
2/3-y,1/3-x,1/3+z
1/3+x,2/3+y,2/3+z
1/3-y,2/3+x-y,2/3+z
1/3-x+y,2/3-x,2/3+z
1/3+x-y,2/3-y,2/3-z
1/3-x,2/3-x+y,2/3-z
1/3+y,2/3+x,2/3-z
1/3-x,2/3-y,2/3-z
1/3+y,2/3-x+y,2/3-z
1/3+x-y,2/3+x,2/3-z
1/3-x+y,2/3+y,2/3+z
1/3+x,2/3+x-y,2/3+z
1/3-y,2/3-x,2/3+z
loop_
_atom_site_type_symbol
_atom_site_label
_atom_site_fract_x
_atom_site_fract_y
_atom_site_fract_z
Si Si1 0.803043 0.047568 0.181336
Si Si2 0.739116 0.946522 0.603478
Si Si3 0.462473 0.078446 0.038217
Si Si4 0.000000 0.843570 0.500000
Si Si5 0.138757 0.434151 0.603518
O O1 0.886694 0.113306 0.201498
O O2 0.756722 0.090056 0.166667
O O3 0.755470 0.981999 0.229194
O O4 0.809252 0.012079 0.119717
O O5 0.733908 0.866954 0.591448
O O6 0.653491 0.928829 0.600132
O O7 0.775881 0.977461 0.666333
O O8 0.796833 0.003385 0.555647
O O9 0.548936 0.097872 0.038305
O O10 0.417962 0.000000 0.000000
O O11 0.925892 0.851784 0.497835
O O12 0.217693 0.435385 0.601130
O O13 0.131586 0.464919 0.666667
#
# Coordination Sequence:
#
# PCOD9579259 Si02
#       5
#    36  36  36  18  36
#     4  11  23  40  64  91 122 160 203 253 315 378
#     4  10  21  36  57  84 116 153 199 246 298 358
#     4  11  23  37  58  87 121 157 197 246 303 366
#     4  10  21  36  56  82 117 160 204 248 298 362
#     4  11  23  40  64  92 123 160 204 260 319 377
#
# _framework density 19.769653999999999
#
# number of rings (size 3 to 8) (size 9 to 14) (size 15 to 20)
#    0.000    1.333    0.000    6.111    4.667    3.556 
#    0.000    0.000    0.000   14.222    0.000    0.000 
#    0.000    0.000    0.000    0.000    0.000    0.000 
#
# Total GULP energy -301321.714495 kJ/mol
# GULP energy per Si atom -5580.031750 kJ/mol
# Density = 1.972466 g / cm^3
# Si number density = 19.769654 Si / 1000 Ang^3
#
#
#
# Elastic Constant Matrix: (Units=GPa)
#
#
# Indices 1 2 3 4 5 6 
#
# 1 65.0471 28.3265 18.2799 1.0564 -0.0002 0.0000
# 2 28.3265 65.0471 18.2799 -1.0564 0.0002 0.0000
# 3 18.2799 18.2799 117.8142 0.0000 0.0000 0.0000
# 4 1.0564 -1.0564 0.0000 33.8572 0.0000 0.0002
# 5 -0.0002 0.0002 0.0000 0.0000 33.8572 1.0564
# 6 0.0000 0.0000 0.0000 0.0002 1.0564 18.3603
#
#
#
# Elastic Compliance Matrix: (Units=1/GPa)
#
#
# Indices 1 2 3 4 5 6 
#
# 1 0.019342 -0.007940 -0.001769 -0.000851 0.000000 0.000000
# 2 -0.007940 0.019342 -0.001769 0.000851 0.000000 0.000000
# 3 -0.001769 -0.001769 0.009037 0.000000 0.000000 0.000000
# 4 -0.000851 0.000851 0.000000 0.029589 0.000000 0.000000
# 5 0.000000 0.000000 0.000000 0.000000 0.029589 -0.001703
# 6 0.000000 0.000000 0.000000 0.000000 -0.001703 0.054563
#
#
# Mechanical properties :
#
#
# Convention : Reuss Voigt Hill
#
# Bulk Modulus (GPa) = 40.37958 41.96455 41.17207
# Shear Modulus (GPa) = 25.95068 29.41640 27.68354
#
# Velocity S-wave (km/s) = 3.62698 3.86159 3.74612
# Velocity P-wave (km/s) = 6.16518 6.41524 6.29145
#
# Compressibility (1/GPa) = 0.02476499
#
# Stress axis : x y z
#
# Youngs Moduli (GPa) = 51.70092 51.70092 110.65679
#
# Poissons Ratio (x) = 0.41049 0.19577
# Poissons Ratio (y) = 0.41049 0.19577
# Poissons Ratio (z) = 0.09147 0.09147
#
# Static dielectric constant tensor:
#      x y z
#    x 1.711100 0.000000 0.000000 
#    y 0.000000 1.711100 0.000000 
#    z 0.000000 0.000000 1.715690 
# 
# From -- ./inp_files/6773.got.cif
#   From: 2010.05.17/outbox.cif.g08.bks.cpg/sg166_4_cif.got.tgz:6773.got - 2010.05.20 11:04:41.
