data_PCOD9579215
_publ_section_title
;
Structure prediction by ZEFSAII (Michael W. Deem and Ramdas Pophale) SiO2 
 PCOD9579215
Probable space group: R -3 M
;
_chemical_formula_sum "Si O2"
_cell_formula_units_Z 252
_cell_length_a 28.894280
_cell_length_b 28.894280
_cell_length_c 19.262086
_cell_angle_alpha 90.000000
_cell_angle_beta 90.000000
_cell_angle_gamma 120.000000
_cell_volume 13927.004093
_symmetry_space_group_name_H-M "R -3 M"
_symmetry_group_IT_number 166
_symmetry_cell_setting 'hexagonal'
loop_
_space_group_symop_operation_xyz
x,y,z
-y,x-y,z
-x+y,-x,z
x-y,-y,-z
-x,-x+y,-z
y,x,-z
-x,-y,-z
y,-x+y,-z
x-y,x,-z
-x+y,y,z
x,x-y,z
-y,-x,z
2/3+x,1/3+y,1/3+z
2/3-y,1/3+x-y,1/3+z
2/3-x+y,1/3-x,1/3+z
2/3+x-y,1/3-y,1/3-z
2/3-x,1/3-x+y,1/3-z
2/3+y,1/3+x,1/3-z
2/3-x,1/3-y,1/3-z
2/3+y,1/3-x+y,1/3-z
2/3+x-y,1/3+x,1/3-z
2/3-x+y,1/3+y,1/3+z
2/3+x,1/3+x-y,1/3+z
2/3-y,1/3-x,1/3+z
1/3+x,2/3+y,2/3+z
1/3-y,2/3+x-y,2/3+z
1/3-x+y,2/3-x,2/3+z
1/3+x-y,2/3-y,2/3-z
1/3-x,2/3-x+y,2/3-z
1/3+y,2/3+x,2/3-z
1/3-x,2/3-y,2/3-z
1/3+y,2/3-x+y,2/3-z
1/3+x-y,2/3+x,2/3-z
1/3-x+y,2/3+y,2/3+z
1/3+x,2/3+x-y,2/3+z
1/3-y,2/3-x,2/3+z
loop_
_atom_site_type_symbol
_atom_site_label
_atom_site_fract_x
_atom_site_fract_y
_atom_site_fract_z
Si Si1 0.544219 0.565915 0.072421
Si Si2 0.427883 0.461808 0.338266
Si Si3 0.092986 0.713379 0.774666
Si Si4 0.673750 0.943863 0.537466
Si Si5 0.172367 0.716696 0.881357
Si Si6 0.185197 0.705532 0.232029
Si Si7 0.222458 0.556294 0.968425
O O1 0.492878 0.507123 0.071455
O O2 0.578928 0.570366 0.139540
O O3 0.521217 0.606248 0.079750
O O4 0.575032 0.575032 0.000000
O O5 0.482241 0.517760 0.330767
O O6 0.440213 0.419135 0.376212
O O7 0.402595 0.439574 0.263649
O O8 0.389302 0.471634 0.389085
O O9 0.074277 0.740944 0.833334
O O10 0.042878 0.655005 0.762644
O O11 0.139629 0.707156 0.810716
O O12 0.709610 0.000000 0.500000
O O13 0.225686 0.774315 0.875725
O O14 0.190884 0.675459 0.905666
O O15 0.241456 0.758545 0.213818
O O16 0.162819 0.666667 0.166667
O O17 0.197501 0.677315 0.295863
O O18 0.279743 0.559485 0.975494
O O19 0.228787 0.614394 0.958507
#
# Coordination Sequence:
#
# PCOD9579215 Si02
#       7
#    36  36  36  36  36  36  36
#     4  10  23  38  51  71 104 145 186 227 276 333
#     4  10  20  36  57  80 108 140 184 235 283 332
#     4   9  19  35  55  79 108 140 180 229 281 334
#     4  11  23  34  52  78 107 144 179 223 276 335
#     4   9  19  34  57  82 105 140 185 232 283 338
#     4  10  21  36  55  78 105 143 190 238 286 333
#     4  10  21  36  56  82 113 149 190 240 293 347
#
# _framework density 18.094344
#
# number of rings (size 3 to 8) (size 9 to 14) (size 15 to 20)
#    0.000    2.143    0.000    2.286    6.000    4.000 
#    0.000    0.714    0.000    2.286    0.000    0.000 
#    0.000    0.000    0.000    0.000    0.000   39.714 
#
# Total GULP energy -468923.560020 kJ/mol
# GULP energy per Si atom -5582.423334 kJ/mol
# Density = 1.805316 g / cm^3
# Si number density = 18.094344 Si / 1000 Ang^3
#
#
#
# Elastic Constant Matrix: (Units=GPa)
#
#
# Indices 1 2 3 4 5 6 
#
# 1 57.6131 32.4723 20.5858 -3.2777 0.0000 0.0000
# 2 32.4723 57.6131 20.5858 3.2777 0.0000 0.0000
# 3 20.5858 20.5858 56.6238 0.0000 0.0000 0.0000
# 4 -3.2777 3.2777 0.0000 27.1879 0.0000 0.0000
# 5 0.0000 0.0000 0.0000 0.0000 27.1879 -3.2777
# 6 0.0000 0.0000 0.0000 0.0000 -3.2777 12.5704
#
#
#
# Elastic Compliance Matrix: (Units=1/GPa)
#
#
# Indices 1 2 3 4 5 6 
#
# 1 0.027190 -0.013877 -0.004840 0.004951 0.000000 0.000000
# 2 -0.013877 0.027190 -0.004840 -0.004951 0.000000 0.000000
# 3 -0.004840 -0.004840 0.021179 0.000000 0.000000 0.000000
# 4 0.004951 -0.004951 0.000000 0.037975 0.000000 0.000000
# 5 0.000000 0.000000 0.000000 0.000000 0.037975 0.009902
# 6 0.000000 0.000000 0.000000 0.000000 0.009902 0.082134
#
#
# Mechanical properties :
#
#
# Convention : Reuss Voigt Hill
#
# Bulk Modulus (GPa) = 35.15525 35.45974 35.30750
# Shear Modulus (GPa) = 17.22727 19.93632 18.58179
#
# Velocity S-wave (km/s) = 3.08893 3.32294 3.20807
# Velocity P-wave (km/s) = 5.67389 5.86193 5.76868
#
# Compressibility (1/GPa) = 0.02844526
#
# Stress axis : x y z
#
# Youngs Moduli (GPa) = 36.77864 36.77864 47.21554
#
# Poissons Ratio (x) = 0.51038 0.22851
# Poissons Ratio (y) = 0.51038 0.22851
# Poissons Ratio (z) = 0.17800 0.17800
#
# Static dielectric constant tensor:
#      x y z
#    x 1.635570 0.000000 0.000000 
#    y 0.000000 1.635570 0.000000 
#    z 0.000000 0.000000 1.626700 
# 
# From -- ./inp_files/5885.got.cif
#   From: 2010.05.17/outbox.cif.g08.bks.cpg/sg166_3_cif.got.tgz:5885.got - 2010.05.20 11:04:41.
