data_PCOD9579887
_publ_section_title
;
Structure prediction by ZEFSAII (Michael W. Deem and Ramdas Pophale) SiO2 
 PCOD9579887
Probable space group: P 61
;
_chemical_formula_sum "Si O2"
_cell_formula_units_Z 48
_cell_length_a 16.535489
_cell_length_b 16.535489
_cell_length_c 9.308356
_cell_angle_alpha 90.000000
_cell_angle_beta 90.000000
_cell_angle_gamma 120.000000
_cell_volume 2204.132518
_symmetry_space_group_name_H-M "P 61"
_symmetry_group_IT_number 169
_symmetry_cell_setting 'hexagonal'
loop_
_space_group_symop_operation_xyz
x,y,z
x-y,x,1/6+z
-y,x-y,1/3+z
-x,-y,1/2+z
-x+y,-x,2/3+z
y,-x+y,5/6+z
loop_
_atom_site_type_symbol
_atom_site_label
_atom_site_fract_x
_atom_site_fract_y
_atom_site_fract_z
Si Si1 0.132947 0.962220 0.994980
Si Si2 0.001769 0.153593 0.762680
Si Si3 0.620468 0.757888 0.719179
Si Si4 0.711794 0.644866 0.060065
Si Si5 0.848298 0.344603 0.951180
Si Si6 0.782064 0.429191 0.385075
Si Si7 0.441989 0.650146 0.534764
Si Si8 0.403943 0.924282 0.289736
O O1 0.068518 0.909567 0.857399
O O2 0.066863 0.906386 0.131236
O O3 0.219576 0.943775 0.009581
O O4 0.007203 0.252758 0.745424
O O5 0.097613 0.154588 0.735210
O O6 0.632080 0.854725 0.779333
O O7 0.546979 0.714484 0.590777
O O8 0.571891 0.683139 0.846819
O O9 0.717173 0.603572 0.212906
O O10 0.604798 0.585406 0.014107
O O11 0.812432 0.383573 0.819734
O O12 0.759163 0.281469 0.048523
O O13 0.922702 0.435311 0.037924
O O14 0.826130 0.439878 0.541752
O O15 0.713403 0.319903 0.358783
O O16 0.855361 0.474952 0.257200
#
# Coordination Sequence:
#
# PCOD9579887 Si02
#       8
#     6   6   6   6   6   6   6   6
#     4   9  17  33  62  93 120 156 208 263 326 405
#     4   9  18  34  61  96 121 158 208 264 325 400
#     4  10  20  37  61  89 123 170 212 266 332 405
#     4  11  21  36  62  91 130 162 214 275 334 390
#     4  11  22  38  58  92 125 168 226 268 320 398
#     4  12  21  38  60  88 123 166 223 273 317 382
#     4  11  22  36  63  87 123 170 221 271 318 386
#     4  11  23  38  61  88 125 176 222 272 328 400
#
# _framework density 21.777274999999999
#
# number of rings (size 3 to 8) (size 9 to 14) (size 15 to 20)
#    0.000    1.500    3.750    3.750    0.000    2.000 
#    0.000    0.000    2.750   13.500    0.000    0.000 
#    0.000    0.000    0.000    0.000    0.000    0.000 
#
# Total GULP energy -268186.945536 kJ/mol
# GULP energy per Si atom -5587.228032 kJ/mol
# Density = 2.172771 g / cm^3
# Si number density = 21.777275 Si / 1000 Ang^3
#
#
#
# Elastic Constant Matrix: (Units=GPa)
#
#
# Indices 1 2 3 4 5 6 
#
# 1 42.6534 -4.9683 4.4215 0.0000 0.0000 0.0000
# 2 -4.9683 42.6534 4.4215 0.0000 0.0000 0.0000
# 3 4.4215 4.4215 23.7688 0.0000 0.0000 0.0000
# 4 0.0000 0.0000 0.0000 24.0227 0.0000 0.0000
# 5 0.0000 0.0000 0.0000 0.0000 24.0227 0.0000
# 6 0.0000 0.0000 0.0000 0.0000 0.0000 23.8108
#
#
#
# Elastic Compliance Matrix: (Units=1/GPa)
#
#
# Indices 1 2 3 4 5 6 
#
# 1 0.024373 0.003374 -0.005162 0.000000 0.000000 0.000000
# 2 0.003374 0.024373 -0.005162 0.000000 0.000000 0.000000
# 3 -0.005162 -0.005162 0.043992 0.000000 0.000000 0.000000
# 4 0.000000 0.000000 0.000000 0.041627 0.000000 0.000000
# 5 0.000000 0.000000 0.000000 0.000000 0.041627 0.000000
# 6 0.000000 0.000000 0.000000 0.000000 0.000000 0.041998
#
#
# Mechanical properties :
#
#
# Convention : Reuss Voigt Hill
#
# Bulk Modulus (GPa) = 12.68391 12.98055 12.83223
# Shear Modulus (GPa) = 19.36721 21.38464 20.37593
#
# Velocity S-wave (km/s) = 2.98540 3.13704 3.06216
# Velocity P-wave (km/s) = 4.20957 4.36977 4.29042
#
# Compressibility (1/GPa) = 0.07884002
#
# Stress axis : x y z
#
# Youngs Moduli (GPa) = 41.02926 41.02926 22.73124
#
# Poissons Ratio (x) = -0.13843 0.11733
# Poissons Ratio (y) = -0.13843 0.11733
# Poissons Ratio (z) = 0.21177 0.21177
#
# Static dielectric constant tensor:
#      x y z
#    x 1.804100 0.000000 0.000000 
#    y 0.000000 1.804100 0.000000 
#    z 0.000000 0.000000 1.806440 
# 
# From -- ./inp_files/744.got.cif
#   From: 2010.05.17/outbox.cif.g08.bks.cpg/sg169_cif.got.tgz:744.got - 2010.05.20 11:12:54.
