data_PCOD9579342
_publ_section_title
;
Structure prediction by ZEFSAII (Michael W. Deem and Ramdas Pophale) SiO2 
 PCOD9579342
Probable space group: R -3 M
;
_chemical_formula_sum "Si O2"
_cell_formula_units_Z 135
_cell_length_a 26.158609
_cell_length_b 26.158609
_cell_length_c 11.641325
_cell_angle_alpha 90.000000
_cell_angle_beta 90.000000
_cell_angle_gamma 120.000000
_cell_volume 6898.621831
_symmetry_space_group_name_H-M "R -3 M"
_symmetry_group_IT_number 166
_symmetry_cell_setting 'hexagonal'
loop_
_space_group_symop_operation_xyz
x,y,z
-y,x-y,z
-x+y,-x,z
x-y,-y,-z
-x,-x+y,-z
y,x,-z
-x,-y,-z
y,-x+y,-z
x-y,x,-z
-x+y,y,z
x,x-y,z
-y,-x,z
2/3+x,1/3+y,1/3+z
2/3-y,1/3+x-y,1/3+z
2/3-x+y,1/3-x,1/3+z
2/3+x-y,1/3-y,1/3-z
2/3-x,1/3-x+y,1/3-z
2/3+y,1/3+x,1/3-z
2/3-x,1/3-y,1/3-z
2/3+y,1/3-x+y,1/3-z
2/3+x-y,1/3+x,1/3-z
2/3-x+y,1/3+y,1/3+z
2/3+x,1/3+x-y,1/3+z
2/3-y,1/3-x,1/3+z
1/3+x,2/3+y,2/3+z
1/3-y,2/3+x-y,2/3+z
1/3-x+y,2/3-x,2/3+z
1/3+x-y,2/3-y,2/3-z
1/3-x,2/3-x+y,2/3-z
1/3+y,2/3+x,2/3-z
1/3-x,2/3-y,2/3-z
1/3+y,2/3-x+y,2/3-z
1/3+x-y,2/3+x,2/3-z
1/3-x+y,2/3+y,2/3+z
1/3+x,2/3+x-y,2/3+z
1/3-y,2/3-x,2/3+z
loop_
_atom_site_type_symbol
_atom_site_label
_atom_site_fract_x
_atom_site_fract_y
_atom_site_fract_z
Si Si1 0.451503 0.666667 0.666667
Si Si2 0.628756 0.521502 0.502158
Si Si3 0.333334 0.166667 0.166667
Si Si4 0.938086 0.764721 0.436796
Si Si5 0.735184 0.678655 0.802379
O O1 0.444245 0.722123 0.630614
O O2 0.478098 0.643660 0.567292
O O3 0.569234 0.520431 0.462638
O O4 0.614834 0.504287 0.635816
O O5 0.686618 0.586341 0.500158
O O6 0.890619 0.781237 0.480645
O O7 0.912668 0.695211 0.459870
O O8 0.000000 0.798722 0.500000
O O9 0.738215 0.666667 0.666667
O O10 0.666667 0.652540 0.833334
#
# Coordination Sequence:
#
# PCOD9579342 Si02
#       5
#    18  36   9  36  36
#     4  12  29  50  72 100 136 192 259 314 360 414
#     4  12  25  41  67 102 137 183 231 284 356 426
#     4  12  24  40  64  98 142 180 218 284 344 434
#     4  11  24  43  64  95 137 173 218 280 342 420
#     4  11  22  38  61  97 141 181 213 266 338 421
#
# _framework density 19.569126000000001
#
# number of rings (size 3 to 8) (size 9 to 14) (size 15 to 20)
#    0.000    0.533    9.333    0.133    5.600    2.667 
#    0.000    0.000    0.000    0.267    0.000    0.000 
#    0.000    0.000    0.000    0.000    0.000    0.000 
#
# Total GULP energy -250642.916754 kJ/mol
# GULP energy per Si atom -5569.842595 kJ/mol
# Density = 1.952459 g / cm^3
# Si number density = 19.569126 Si / 1000 Ang^3
#
#
#
# Elastic Constant Matrix: (Units=GPa)
#
#
# Indices 1 2 3 4 5 6 
#
# 1 100.9093 102.4815 28.6193 -19.0105 -0.0023 -0.0010
# 2 102.4815 100.9087 28.6184 19.0105 0.0027 0.0010
# 3 28.6193 28.6184 85.4002 -0.0009 0.0009 0.0004
# 4 -19.0105 19.0105 -0.0009 -8.0229 -0.0013 0.0005
# 5 -0.0023 0.0027 0.0009 -0.0013 -8.0244 -19.0135
# 6 -0.0010 0.0010 0.0004 0.0005 -19.0135 -0.7903
#
#
#
# Elastic Compliance Matrix: (Units=1/GPa)
#
#
# Indices 1 2 3 4 5 6 
#
# 1 0.008363 -0.002934 -0.001820 -0.026769 -0.000001 0.000001
# 2 -0.002934 0.008363 -0.001819 0.026769 0.000001 -0.000001
# 3 -0.001820 -0.001819 0.012929 0.000000 0.000000 0.000001
# 4 -0.026769 0.026769 0.000000 0.002214 0.000003 0.000006
# 5 -0.000001 0.000001 0.000000 0.000003 0.002225 -0.053533
# 6 0.000001 -0.000001 0.000001 0.000006 -0.053533 0.022593
#
#
# Mechanical properties :
#
#
# Convention : Reuss Voigt Hill
#
# Bulk Modulus (GPa) = 60.57208 67.40628 63.98918
# Shear Modulus (GPa) = 66.37026 5.13242 35.75134
#
# Velocity S-wave (km/s) = 5.83005 1.62124 4.27889
# Velocity P-wave (km/s) = 8.73724 6.16640 7.56187
#
# Compressibility (1/GPa) = 0.01650926
#
# Stress axis : x y z
#
# Youngs Moduli (GPa) = 119.57582 119.57844 77.34634
#
# Poissons Ratio (x) = 0.35087 0.14074
# Poissons Ratio (y) = 0.35086 0.14068
# Poissons Ratio (z) = 0.21758 0.21749
#
# Static dielectric constant tensor:
#      x y z
#    x 1.699440 0.000000 0.000000 
#    y 0.000000 1.699440 0.000000 
#    z 0.000000 0.000000 1.709230 
# 
# From -- ./inp_files/2968.got.cif
#   From: 2010.05.17/outbox.cif.g08.bks.cpg/sg166_2_cif.got.tgz:2968.got - 2010.05.20 11:04:41.
