data_PCOD9579592
_publ_section_title
;
Structure prediction by ZEFSAII (Michael W. Deem and Ramdas Pophale) SiO2 
 PCOD9579592
Probable space group: R -3 C 
;
_chemical_formula_sum "Si O2"
_cell_formula_units_Z 234
_cell_length_a 25.813209
_cell_length_b 25.813209
_cell_length_c 20.994638
_cell_angle_alpha 90.000000
_cell_angle_beta 90.000000
_cell_angle_gamma 120.000000
_cell_volume 12114.988825
_symmetry_space_group_name_H-M "R -3 C "
_symmetry_group_IT_number 167
_symmetry_cell_setting 'hexagonal'
loop_
_space_group_symop_operation_xyz
x,y,z
-y,x-y,z
-x+y,-x,z
x-y,-y,1/2-z
-x,-x+y,1/2-z
y,x,1/2-z
-x,-y,-z
y,-x+y,-z
x-y,x,-z
-x+y,y,1/2+z
x,x-y,1/2+z
-y,-x,1/2+z
2/3+x,1/3+y,1/3+z
2/3-y,1/3+x-y,1/3+z
2/3-x+y,1/3-x,1/3+z
2/3+x-y,1/3-y,5/6-z
2/3-x,1/3-x+y,5/6-z
2/3+y,1/3+x,5/6-z
2/3-x,1/3-y,1/3-z
2/3+y,1/3-x+y,1/3-z
2/3+x-y,1/3+x,1/3-z
2/3-x+y,1/3+y,5/6+z
2/3+x,1/3+x-y,5/6+z
2/3-y,1/3-x,5/6+z
1/3+x,2/3+y,2/3+z
1/3-y,2/3+x-y,2/3+z
1/3-x+y,2/3-x,2/3+z
1/3+x-y,2/3-y,1/6-z
1/3-x,2/3-x+y,1/6-z
1/3+y,2/3+x,1/6-z
1/3-x,2/3-y,2/3-z
1/3+y,2/3-x+y,2/3-z
1/3+x-y,2/3+x,2/3-z
1/3-x+y,2/3+y,1/6+z
1/3+x,2/3+x-y,1/6+z
1/3-y,2/3-x,1/6+z
loop_
_atom_site_type_symbol
_atom_site_label
_atom_site_fract_x
_atom_site_fract_y
_atom_site_fract_z
Si Si1 0.912558 0.552846 0.844179
Si Si2 0.333334 0.010648 0.916667
Si Si3 0.105841 0.247688 0.825311
Si Si4 0.923003 0.959504 0.431353
Si Si5 0.116698 0.060909 0.713185
Si Si6 0.086389 0.874757 0.470880
Si Si7 0.757662 0.689428 0.144664
O O1 0.847789 0.549054 0.842519
O O2 0.905363 0.486908 0.835461
O O3 0.944013 0.576011 0.913205
O O4 0.952059 0.596941 0.787786
O O5 0.303482 0.959944 0.862205
O O6 0.073008 0.183332 0.793506
O O7 0.091274 0.240660 0.901030
O O8 0.176926 0.272940 0.822912
O O9 0.088050 0.293431 0.795350
O O10 0.910356 0.947185 0.356599
O O11 0.857443 0.934544 0.458275
O O12 0.969376 0.935532 0.444409
O O13 0.113313 0.113313 0.750000
O O14 0.076340 0.000000 0.750000
#
# Coordination Sequence:
#
# PCOD9579592 Si02
#       7
#    36  18  36  36  36  36  36
#     4  11  25  45  69 100 132 173 221 272 334 397
#     4  12  24  46  74  98 126 172 222 280 336 390
#     4   9  21  41  63  90 128 172 218 274 326 393
#     4   9  18  33  55  88 131 183 208 246 320 396
#     4  11  18  31  54  92 134 169 220 268 315 383
#     4  10  22  41  63  97 139 168 217 273 323 398
#     4  10  22  46  70  92 126 167 220 275 335 386
#
# _framework density 19.314917999999999
#
# number of rings (size 3 to 8) (size 9 to 14) (size 15 to 20)
#    0.308    1.538    3.077    0.615    3.231    1.231 
#    2.769    0.769    0.000    0.000    0.000    0.000 
#    0.000    0.000    0.000    0.000    0.000    0.000 
#
# Total GULP energy -435189.116229 kJ/mol
# GULP energy per Si atom -5579.347644 kJ/mol
# Density = 1.927096 g / cm^3
# Si number density = 19.314918 Si / 1000 Ang^3
#
#
#
# Elastic Constant Matrix: (Units=GPa)
#
#
# Indices 1 2 3 4 5 6 
#
# 1 120.5944 38.1983 58.1328 28.4111 0.0001 0.0000
# 2 38.1983 120.5944 58.1328 -28.4111 -0.0001 0.0000
# 3 58.1328 58.1328 94.8251 0.0000 0.0000 0.0000
# 4 28.4111 -28.4111 0.0000 138.2842 0.0000 -0.0001
# 5 0.0001 -0.0001 0.0000 0.0000 138.2842 28.4111
# 6 0.0000 0.0000 0.0000 -0.0001 28.4111 41.1981
#
#
#
# Elastic Compliance Matrix: (Units=1/GPa)
#
#
# Indices 1 2 3 4 5 6 
#
# 1 0.012783 -0.001357 -0.007005 -0.002905 0.000000 0.000000
# 2 -0.001357 0.012783 -0.007005 0.002905 0.000000 0.000000
# 3 -0.007005 -0.007005 0.019135 0.000000 0.000000 0.000000
# 4 -0.002905 0.002905 0.000000 0.008425 0.000000 0.000000
# 5 0.000000 0.000000 0.000000 0.000000 0.008425 -0.005810
# 6 0.000000 0.000000 0.000000 0.000000 -0.005810 0.028280
#
#
# Mechanical properties :
#
#
# Convention : Reuss Voigt Hill
#
# Bulk Modulus (GPa) = 71.59493 71.66020 71.62757
# Shear Modulus (GPa) = 39.92946 75.65664 57.79305
#
# Velocity S-wave (km/s) = 4.55167 6.26539 5.47599
# Velocity P-wave (km/s) = 8.04806 9.46159 8.78331
#
# Compressibility (1/GPa) = 0.01396747
#
# Stress axis : x y z
#
# Youngs Moduli (GPa) = 78.22757 78.22757 52.26118
#
# Poissons Ratio (x) = 0.10613 0.36609
# Poissons Ratio (y) = 0.10613 0.36609
# Poissons Ratio (z) = 0.54799 0.54799
#
# Static dielectric constant tensor:
#      x y z
#    x 1.674060 0.000000 0.000000 
#    y 0.000000 1.674060 0.000000 
#    z 0.000000 0.000000 1.703990 
# 
# From -- ./inp_files/4712.got.cif
#   From: 2010.05.17/outbox.cif.g08.bks.cpg/sg167_3_cif.got.tgz:4712.got - 2010.05.20 11:09:15.
