data_PCOD9579115
_publ_section_title
;
Structure prediction by ZEFSAII (Michael W. Deem and Ramdas Pophale) SiO2 
 PCOD9579115
Probable space group: R -3 M
;
_chemical_formula_sum "Si O2"
_cell_formula_units_Z 252
_cell_length_a 30.187226
_cell_length_b 30.187226
_cell_length_c 17.307013
_cell_angle_alpha 90.000000
_cell_angle_beta 90.000000
_cell_angle_gamma 120.000000
_cell_volume 13658.379136
_symmetry_space_group_name_H-M "R -3 M"
_symmetry_group_IT_number 166
_symmetry_cell_setting 'hexagonal'
loop_
_space_group_symop_operation_xyz
x,y,z
-y,x-y,z
-x+y,-x,z
x-y,-y,-z
-x,-x+y,-z
y,x,-z
-x,-y,-z
y,-x+y,-z
x-y,x,-z
-x+y,y,z
x,x-y,z
-y,-x,z
2/3+x,1/3+y,1/3+z
2/3-y,1/3+x-y,1/3+z
2/3-x+y,1/3-x,1/3+z
2/3+x-y,1/3-y,1/3-z
2/3-x,1/3-x+y,1/3-z
2/3+y,1/3+x,1/3-z
2/3-x,1/3-y,1/3-z
2/3+y,1/3-x+y,1/3-z
2/3+x-y,1/3+x,1/3-z
2/3-x+y,1/3+y,1/3+z
2/3+x,1/3+x-y,1/3+z
2/3-y,1/3-x,1/3+z
1/3+x,2/3+y,2/3+z
1/3-y,2/3+x-y,2/3+z
1/3-x+y,2/3-x,2/3+z
1/3+x-y,2/3-y,2/3-z
1/3-x,2/3-x+y,2/3-z
1/3+y,2/3+x,2/3-z
1/3-x,2/3-y,2/3-z
1/3+y,2/3-x+y,2/3-z
1/3+x-y,2/3+x,2/3-z
1/3-x+y,2/3+y,2/3+z
1/3+x,2/3+x-y,2/3+z
1/3-y,2/3-x,2/3+z
loop_
_atom_site_type_symbol
_atom_site_label
_atom_site_fract_x
_atom_site_fract_y
_atom_site_fract_z
Si Si1 0.278497 0.211122 0.132304
Si Si2 0.156527 0.212882 0.728217
Si Si3 0.196667 0.903314 0.596636
Si Si4 0.389037 0.105241 0.483566
Si Si5 0.611823 0.126406 0.866317
Si Si6 0.158884 0.217456 0.015203
Si Si7 0.442118 0.168319 0.625444
O O1 0.333334 0.225742 0.166667
O O2 0.235284 0.167717 0.185861
O O3 0.269260 0.259076 0.142410
O O4 0.264422 0.191488 0.044812
O O5 0.098522 0.197043 0.705815
O O6 0.193496 0.261364 0.673043
O O7 0.175025 0.171497 0.724134
O O8 0.157266 0.842735 0.608927
O O9 0.249422 0.913317 0.560365
O O10 0.172782 0.921752 0.530205
O O11 0.428768 0.154664 0.434057
O O12 0.396994 0.126305 0.571034
O O13 0.575020 0.150039 0.874005
O O14 0.666667 0.165990 0.833334
O O15 0.610305 0.101845 0.949387
O O16 0.100155 0.200309 0.005874
O O17 0.175144 0.175144 0.000000
O O18 0.447937 0.223968 0.611381
#
# Coordination Sequence:
#
# PCOD9579115 Si02
#       7
#    36  36  36  36  36  36  36
#     4  10  21  35  51  78 108 140 181 223 266 307
#     4  10  20  34  54  79 105 136 179 224 266 316
#     4  10  19  32  52  74 100 135 175 216 258 308
#     4  10  21  35  52  75 106 142 176 212 261 313
#     4  10  20  34  53  76 102 132 171 217 263 315
#     4  10  20  35  55  77 105 139 176 217 262 313
#     4  10  20  35  54  77 105 136 172 214 263 317
#
# _framework density 18.450212000000001
#
# number of rings (size 3 to 8) (size 9 to 14) (size 15 to 20)
#    0.000    2.000    1.429    2.571    0.000    3.429 
#    0.000    2.143    0.000    0.571    0.000    0.000 
#    0.000    6.857    0.000    0.000    0.000    0.571 
#
# Total GULP energy -468226.049868 kJ/mol
# GULP energy per Si atom -5574.119641 kJ/mol
# Density = 1.840822 g / cm^3
# Si number density = 18.450212 Si / 1000 Ang^3
#
#
#
# Elastic Constant Matrix: (Units=GPa)
#
#
# Indices 1 2 3 4 5 6 
#
# 1 44.4900 21.1437 -1.5955 -1.3337 -0.0001 0.0000
# 2 21.1437 44.4900 -1.5955 1.3337 0.0001 0.0000
# 3 -1.5955 -1.5955 98.3069 0.0000 0.0000 0.0000
# 4 -1.3337 1.3337 0.0000 15.5690 0.0000 0.0001
# 5 -0.0001 0.0001 0.0000 0.0000 15.5690 -1.3337
# 6 0.0000 0.0000 0.0000 0.0001 -1.3337 11.6731
#
#
#
# Elastic Compliance Matrix: (Units=1/GPa)
#
#
# Indices 1 2 3 4 5 6 
#
# 1 0.029252 -0.014004 0.000247 0.003705 0.000000 0.000000
# 2 -0.014004 0.029252 0.000247 -0.003705 0.000000 0.000000
# 3 0.000247 0.000247 0.010180 0.000000 0.000000 0.000000
# 4 0.003705 -0.003705 0.000000 0.064865 0.000000 -0.000001
# 5 0.000000 0.000000 0.000000 0.000000 0.064865 0.007411
# 6 0.000000 0.000000 0.000000 -0.000001 0.007411 0.086513
#
#
# Mechanical properties :
#
#
# Convention : Reuss Voigt Hill
#
# Bulk Modulus (GPa) = 24.00018 24.79916 24.39967
# Shear Modulus (GPa) = 15.34512 19.85115 17.59814
#
# Velocity S-wave (km/s) = 2.88706 3.28370 3.09174
# Velocity P-wave (km/s) = 4.91424 5.27704 5.09887
#
# Compressibility (1/GPa) = 0.04166635
#
# Stress axis : x y z
#
# Youngs Moduli (GPa) = 34.18522 34.18522 98.22936
#
# Poissons Ratio (x) = 0.47874 -0.02431
# Poissons Ratio (y) = 0.47874 -0.02431
# Poissons Ratio (z) = -0.00846 -0.00846
#
# Static dielectric constant tensor:
#      x y z
#    x 1.655150 0.000000 0.000000 
#    y 0.000000 1.655150 0.000000 
#    z 0.000000 0.000000 1.670350 
# 
# From -- ./inp_files/5832.got.cif
#   From: 2010.05.17/outbox.cif.g08.bks.cpg/sg166_3_cif.got.tgz:5832.got - 2010.05.20 11:04:41.
