data_PCOD9579139
_publ_section_title
;
Structure prediction by ZEFSAII (Michael W. Deem and Ramdas Pophale) SiO2 
 PCOD9579139
Probable space group: R -3 M
;
_chemical_formula_sum "Si O2"
_cell_formula_units_Z 252
_cell_length_a 29.520597
_cell_length_b 29.520597
_cell_length_c 19.281682
_cell_angle_alpha 90.000000
_cell_angle_beta 90.000000
_cell_angle_gamma 120.000000
_cell_volume 14552.105005
_symmetry_space_group_name_H-M "R -3 M"
_symmetry_group_IT_number 166
_symmetry_cell_setting 'hexagonal'
loop_
_space_group_symop_operation_xyz
x,y,z
-y,x-y,z
-x+y,-x,z
x-y,-y,-z
-x,-x+y,-z
y,x,-z
-x,-y,-z
y,-x+y,-z
x-y,x,-z
-x+y,y,z
x,x-y,z
-y,-x,z
2/3+x,1/3+y,1/3+z
2/3-y,1/3+x-y,1/3+z
2/3-x+y,1/3-x,1/3+z
2/3+x-y,1/3-y,1/3-z
2/3-x,1/3-x+y,1/3-z
2/3+y,1/3+x,1/3-z
2/3-x,1/3-y,1/3-z
2/3+y,1/3-x+y,1/3-z
2/3+x-y,1/3+x,1/3-z
2/3-x+y,1/3+y,1/3+z
2/3+x,1/3+x-y,1/3+z
2/3-y,1/3-x,1/3+z
1/3+x,2/3+y,2/3+z
1/3-y,2/3+x-y,2/3+z
1/3-x+y,2/3-x,2/3+z
1/3+x-y,2/3-y,2/3-z
1/3-x,2/3-x+y,2/3-z
1/3+y,2/3+x,2/3-z
1/3-x,2/3-y,2/3-z
1/3+y,2/3-x+y,2/3-z
1/3+x-y,2/3+x,2/3-z
1/3-x+y,2/3+y,2/3+z
1/3+x,2/3+x-y,2/3+z
1/3-y,2/3-x,2/3+z
loop_
_atom_site_type_symbol
_atom_site_label
_atom_site_fract_x
_atom_site_fract_y
_atom_site_fract_z
Si Si1 0.606300 0.607150 0.693310
Si Si2 0.333544 0.770121 0.590953
Si Si3 0.100040 0.384976 0.285129
Si Si4 0.650756 0.772140 0.501270
Si Si5 0.864984 0.628983 0.232265
Si Si6 0.150868 0.954486 0.816247
Si Si7 0.389621 0.882894 0.932891
O O1 0.632918 0.666667 0.666667
O O2 0.653806 0.596977 0.711721
O O3 0.570615 0.592455 0.761552
O O4 0.570589 0.577405 0.627521
O O5 0.374883 0.749766 0.598101
O O6 0.276566 0.723435 0.574620
O O7 0.333334 0.793038 0.666667
O O8 0.354549 0.813062 0.532503
O O9 0.076233 0.333334 0.333334
O O10 0.107544 0.364477 0.211297
O O11 0.152155 0.427086 0.324221
O O12 0.660831 0.830416 0.515084
O O13 0.598143 0.743581 0.454684
O O14 0.806988 0.613975 0.256008
O O15 0.881395 0.666667 0.166667
O O16 0.859457 0.576634 0.198362
O O17 0.104312 0.895689 0.796035
O O18 0.177245 0.996248 0.754920
O O19 0.431315 0.862629 0.928031
#
# Coordination Sequence:
#
# PCOD9579139 Si02
#       7
#    36  36  36  36  36  36  36
#     4  11  21  32  51  74 100 132 166 203 245 296
#     4   9  17  29  45  65  92 128 168 210 256 305
#     4   9  19  34  52  74  99 130 167 210 258 306
#     4  10  20  34  52  76 104 131 167 214 260 304
#     4  10  21  36  50  65  92 130 167 199 235 287
#     4  10  20  32  47  70 100 131 168 214 259 307
#     4  10  19  33  54  75  98 131 170 212 260 312
#
# _framework density 17.317081999999999
#
# number of rings (size 3 to 8) (size 9 to 14) (size 15 to 20)
#    0.000    2.143    0.000    3.571    0.000    6.286 
#    0.000    3.571    0.000    0.286    0.000    0.000 
#    0.000    0.000    0.000    0.000    0.000    6.000 
#
# Total GULP energy -468078.428355 kJ/mol
# GULP energy per Si atom -5572.362242 kJ/mol
# Density = 1.727767 g / cm^3
# Si number density = 17.317082 Si / 1000 Ang^3
#
#
#
# Elastic Constant Matrix: (Units=GPa)
#
#
# Indices 1 2 3 4 5 6 
#
# 1 58.5042 28.5656 24.8533 3.3453 0.0001 0.0000
# 2 28.5656 58.5042 24.8533 -3.3453 -0.0001 0.0000
# 3 24.8533 24.8533 85.1997 0.0000 0.0000 0.0000
# 4 3.3453 -3.3453 0.0000 20.9746 0.0000 -0.0001
# 5 0.0001 -0.0001 0.0000 0.0000 20.9746 3.3453
# 6 0.0000 0.0000 0.0000 -0.0001 3.3453 14.9693
#
#
#
# Elastic Compliance Matrix: (Units=1/GPa)
#
#
# Indices 1 2 3 4 5 6 
#
# 1 0.024208 -0.010428 -0.004020 -0.005524 0.000000 0.000000
# 2 -0.010428 0.024208 -0.004020 0.005524 0.000000 0.000000
# 3 -0.004020 -0.004020 0.014082 0.000000 0.000000 0.000000
# 4 -0.005524 0.005524 0.000000 0.049439 0.000000 0.000000
# 5 0.000000 0.000000 0.000000 0.000000 0.049439 -0.011049
# 6 0.000000 0.000000 0.000000 0.000000 -0.011049 0.069272
#
#
# Mechanical properties :
#
#
# Convention : Reuss Voigt Hill
#
# Bulk Modulus (GPa) = 39.11873 39.86141 39.49007
# Shear Modulus (GPa) = 18.10910 19.64612 18.87761
#
# Velocity S-wave (km/s) = 3.23729 3.37188 3.30527
# Velocity P-wave (km/s) = 6.05080 6.18287 6.11719
#
# Compressibility (1/GPa) = 0.02556320
#
# Stress axis : x y z
#
# Youngs Moduli (GPa) = 41.30870 41.30870 71.01136
#
# Poissons Ratio (x) = 0.43077 0.28544
# Poissons Ratio (y) = 0.43077 0.28544
# Poissons Ratio (z) = 0.16605 0.16605
#
# Static dielectric constant tensor:
#      x y z
#    x 1.629470 0.000000 0.000000 
#    y 0.000000 1.629470 0.000000 
#    z 0.000000 0.000000 1.580360 
# 
# From -- ./inp_files/5856.got.cif
#   From: 2010.05.17/outbox.cif.g08.bks.cpg/sg166_3_cif.got.tgz:5856.got - 2010.05.20 11:04:41.
