data_PCOD9579685
_publ_section_title
;
Structure prediction by ZEFSAII (Michael W. Deem and Ramdas Pophale) SiO2 
 PCOD9579685
Probable space group: R -3 C 
;
_chemical_formula_sum "Si O2"
_cell_formula_units_Z 72
_cell_length_a 9.325580
_cell_length_b 9.325580
_cell_length_c 38.627698
_cell_angle_alpha 90.000000
_cell_angle_beta 90.000000
_cell_angle_gamma 120.000000
_cell_volume 2909.250805
_symmetry_space_group_name_H-M "R -3 C "
_symmetry_group_IT_number 167
_symmetry_cell_setting 'hexagonal'
loop_
_space_group_symop_operation_xyz
x,y,z
-y,x-y,z
-x+y,-x,z
x-y,-y,1/2-z
-x,-x+y,1/2-z
y,x,1/2-z
-x,-y,-z
y,-x+y,-z
x-y,x,-z
-x+y,y,1/2+z
x,x-y,1/2+z
-y,-x,1/2+z
2/3+x,1/3+y,1/3+z
2/3-y,1/3+x-y,1/3+z
2/3-x+y,1/3-x,1/3+z
2/3+x-y,1/3-y,5/6-z
2/3-x,1/3-x+y,5/6-z
2/3+y,1/3+x,5/6-z
2/3-x,1/3-y,1/3-z
2/3+y,1/3-x+y,1/3-z
2/3+x-y,1/3+x,1/3-z
2/3-x+y,1/3+y,5/6+z
2/3+x,1/3+x-y,5/6+z
2/3-y,1/3-x,5/6+z
1/3+x,2/3+y,2/3+z
1/3-y,2/3+x-y,2/3+z
1/3-x+y,2/3-x,2/3+z
1/3+x-y,2/3-y,1/6-z
1/3-x,2/3-x+y,1/6-z
1/3+y,2/3+x,1/6-z
1/3-x,2/3-y,2/3-z
1/3+y,2/3-x+y,2/3-z
1/3+x-y,2/3+x,2/3-z
1/3-x+y,2/3+y,1/6+z
1/3+x,2/3+x-y,1/6+z
1/3-y,2/3-x,1/6+z
loop_
_atom_site_type_symbol
_atom_site_label
_atom_site_fract_x
_atom_site_fract_y
_atom_site_fract_z
Si Si1 0.861228 0.160496 0.226327
Si Si2 0.107568 0.380040 0.005685
O O1 0.692651 0.136776 0.208473
O O2 0.000000 0.310649 0.250000
O O3 0.961527 0.165566 0.192274
O O4 0.799986 0.000000 0.250000
O O5 0.230215 0.309533 0.001082
#
# Coordination Sequence:
#
# PCOD9579685 Si02
#       2
#    36  36
#     4  11  23  44  70  91 125 177 221 260 309 385
#     4  11  25  42  66  98 131 167 214 268 322 381
#
# _framework density 24.748636999999999
#
# number of rings (size 3 to 8) (size 9 to 14) (size 15 to 20)
#    0.000    1.000    5.000    1.000    0.000    2.000 
#    3.000    0.000    0.000    0.000    0.000    0.000 
#    0.000    0.000    0.000    0.000    0.000    0.000 
#
# Total GULP energy -133851.482873 kJ/mol
# GULP energy per Si atom -5577.145120 kJ/mol
# Density = 2.469231 g / cm^3
# Si number density = 24.748637 Si / 1000 Ang^3
#
#
#
# Elastic Constant Matrix: (Units=GPa)
#
#
# Indices 1 2 3 4 5 6 
#
# 1 128.4413 46.6836 41.2664 5.5834 0.0000 0.0000
# 2 46.6836 128.4413 41.2664 -5.5834 0.0000 0.0000
# 3 41.2664 41.2664 159.1347 0.0000 0.0000 0.0000
# 4 5.5834 -5.5834 0.0000 42.7135 0.0000 0.0000
# 5 0.0000 0.0000 0.0000 0.0000 42.7135 5.5834
# 6 0.0000 0.0000 0.0000 0.0000 5.5834 40.8788
#
#
#
# Elastic Compliance Matrix: (Units=1/GPa)
#
#
# Indices 1 2 3 4 5 6 
#
# 1 0.009479 -0.002974 -0.001687 -0.001628 0.000000 0.000000
# 2 -0.002974 0.009479 -0.001687 0.001628 0.000000 0.000000
# 3 -0.001687 -0.001687 0.007159 0.000000 0.000000 0.000000
# 4 -0.001628 0.001628 0.000000 0.023837 0.000000 0.000000
# 5 0.000000 0.000000 0.000000 0.000000 0.023837 -0.003256
# 6 0.000000 0.000000 0.000000 0.000000 -0.003256 0.024907
#
#
# Mechanical properties :
#
#
# Convention : Reuss Voigt Hill
#
# Bulk Modulus (GPa) = 74.50647 74.93889 74.72268
# Shear Modulus (GPa) = 43.15191 44.38121 43.76656
#
# Velocity S-wave (km/s) = 4.18018 4.23931 4.20985
# Velocity P-wave (km/s) = 7.31226 7.36940 7.34089
#
# Compressibility (1/GPa) = 0.01342165
#
# Stress axis : x y z
#
# Youngs Moduli (GPa) = 105.49168 105.49168 139.68662
#
# Poissons Ratio (x) = 0.31375 0.23564
# Poissons Ratio (y) = 0.31375 0.23564
# Poissons Ratio (z) = 0.17796 0.17796
#
# Static dielectric constant tensor:
#      x y z
#    x 2.053210 0.000000 0.000000 
#    y 0.000000 2.053210 0.000000 
#    z 0.000000 0.000000 1.996630 
# 
# From -- ./inp_files/6649.got.cif
#   From: 2010.05.17/outbox.cif.g08.bks.cpg/sg167_4_cif.got.tgz:6649.got - 2010.05.20 11:09:15.
