data_PCOD9579919
_publ_section_title
;
Structure prediction by ZEFSAII (Michael W. Deem and Ramdas Pophale) SiO2 
 PCOD9579919
Probable space group: P 61
;
_chemical_formula_sum "Si O2"
_cell_formula_units_Z 48
_cell_length_a 11.150110
_cell_length_b 11.150110
_cell_length_c 18.199603
_cell_angle_alpha 90.000000
_cell_angle_beta 90.000000
_cell_angle_gamma 120.000000
_cell_volume 1959.525186
_symmetry_space_group_name_H-M "P 61"
_symmetry_group_IT_number 169
_symmetry_cell_setting 'hexagonal'
loop_
_space_group_symop_operation_xyz
x,y,z
x-y,x,1/6+z
-y,x-y,1/3+z
-x,-y,1/2+z
-x+y,-x,2/3+z
y,-x+y,5/6+z
loop_
_atom_site_type_symbol
_atom_site_label
_atom_site_fract_x
_atom_site_fract_y
_atom_site_fract_z
Si Si1 0.809773 0.760298 0.198920
Si Si2 0.756119 0.618996 0.439712
Si Si3 0.981603 0.410618 0.754342
Si Si4 0.417445 0.279211 0.031594
Si Si5 0.639856 0.233461 0.220646
Si Si6 0.505754 0.229021 0.626434
Si Si7 0.944551 0.287641 0.487189
Si Si8 0.920426 0.198642 0.640610
O O1 0.736195 0.840478 0.232613
O O2 0.733835 0.660394 0.129529
O O3 0.772509 0.643978 0.259371
O O4 0.971226 0.841432 0.177335
O O5 0.692225 0.697147 0.485062
O O6 0.768074 0.520246 0.499797
O O7 0.674123 0.508368 0.373780
O O8 0.907314 0.499950 0.754154
O O9 0.129590 0.502125 0.792772
O O10 0.981114 0.356241 0.671115
O O11 0.531107 0.315425 0.968686
O O12 0.357985 0.138664 0.078570
O O13 0.636267 0.375475 0.233946
O O14 0.496004 0.117965 0.186417
O O15 0.918713 0.180845 0.553137
O O16 0.109782 0.354242 0.486715
#
# Coordination Sequence:
#
# PCOD9579919 Si02
#       8
#     6   6   6   6   6   6   6   6
#     4  10  22  45  78 109 145 206 259 319 384 477
#     4  11  25  46  74 113 153 200 266 325 393 482
#     4  10  20  45  76 100 146 195 259 308 387 474
#     4  12  26  45  75 111 156 201 253 336 404 469
#     4  12  25  46  71 112 158 200 253 331 408 477
#     4  10  22  42  74 105 143 200 254 314 378 476
#     4  12  28  46  74 111 152 204 256 331 409 475
#     4  11  24  49  72 109 149 202 266 318 385 492
#
# _framework density 24.495729999999998
#
# number of rings (size 3 to 8) (size 9 to 14) (size 15 to 20)
#    0.000    1.000    3.750    2.250    1.750    4.000 
#    4.500    0.000    0.000    0.000    0.000    0.000 
#    0.000    0.000    0.000    0.000    0.000    0.000 
#
# Total GULP energy -267385.497301 kJ/mol
# GULP energy per Si atom -5570.531194 kJ/mol
# Density = 2.443998 g / cm^3
# Si number density = 24.495730 Si / 1000 Ang^3
#
#
#
# Elastic Constant Matrix: (Units=GPa)
#
#
# Indices 1 2 3 4 5 6 
#
# 1 83.4814 43.9684 24.2529 0.0000 0.0000 0.0000
# 2 43.9684 83.4814 24.2529 0.0000 0.0000 0.0000
# 3 24.2529 24.2529 111.4067 0.0000 0.0000 0.0000
# 4 0.0000 0.0000 0.0000 37.0321 0.0000 0.0000
# 5 0.0000 0.0000 0.0000 0.0000 37.0321 0.0000
# 6 0.0000 0.0000 0.0000 0.0000 0.0000 19.7565
#
#
#
# Elastic Compliance Matrix: (Units=1/GPa)
#
#
# Indices 1 2 3 4 5 6 
#
# 1 0.016932 -0.008377 -0.001862 0.000000 0.000000 0.000000
# 2 -0.008377 0.016932 -0.001862 0.000000 0.000000 0.000000
# 3 -0.001862 -0.001862 0.009787 0.000000 0.000000 0.000000
# 4 0.000000 0.000000 0.000000 0.027004 0.000000 0.000000
# 5 0.000000 0.000000 0.000000 0.000000 0.027004 0.000000
# 6 0.000000 0.000000 0.000000 0.000000 0.000000 0.050616
#
#
# Mechanical properties :
#
#
# Convention : Reuss Voigt Hill
#
# Bulk Modulus (GPa) = 51.42061 51.47975 51.45018
# Shear Modulus (GPa) = 27.93942 31.15718 29.54830
#
# Velocity S-wave (km/s) = 3.38092 3.57030 3.47690
# Velocity P-wave (km/s) = 6.02312 6.16908 6.09654
#
# Compressibility (1/GPa) = 0.01944745
#
# Stress axis : x y z
#
# Youngs Moduli (GPa) = 59.06129 59.06129 102.17636
#
# Poissons Ratio (x) = 0.49473 0.19029
# Poissons Ratio (y) = 0.49473 0.19029
# Poissons Ratio (z) = 0.11000 0.11000
#
# Static dielectric constant tensor:
#      x y z
#    x 2.056040 0.000000 0.000000 
#    y 0.000000 2.056040 0.000000 
#    z 0.000000 0.000000 2.097830 
# 
# From -- ./inp_files/1424.got.cif
#   From: 2010.05.17/outbox.cif.g08.bks.cpg/sg169_cif.got.tgz:1424.got - 2010.05.20 11:12:54.
