data_PCOD9579839
_publ_section_title
;
Structure prediction by ZEFSAII (Michael W. Deem and Ramdas Pophale) SiO2 
 PCOD9579839
Probable space group: P 61
;
_chemical_formula_sum "Si O2"
_cell_formula_units_Z 42
_cell_length_a 16.531192
_cell_length_b 16.531192
_cell_length_c 8.794986
_cell_angle_alpha 90.000000
_cell_angle_beta 90.000000
_cell_angle_gamma 120.000000
_cell_volume 2081.489019
_symmetry_space_group_name_H-M "P 61"
_symmetry_group_IT_number 169
_symmetry_cell_setting 'hexagonal'
loop_
_space_group_symop_operation_xyz
x,y,z
x-y,x,1/6+z
-y,x-y,1/3+z
-x,-y,1/2+z
-x+y,-x,2/3+z
y,-x+y,5/6+z
loop_
_atom_site_type_symbol
_atom_site_label
_atom_site_fract_x
_atom_site_fract_y
_atom_site_fract_z
Si Si1 0.439495 0.020291 0.634020
Si Si2 0.477331 0.636214 0.141420
Si Si3 0.734841 0.096031 0.726765
Si Si4 0.332235 0.332425 0.077682
Si Si5 0.702351 0.938882 0.946178
Si Si6 0.995075 0.165915 0.071346
Si Si7 0.690721 0.501392 0.489603
O O1 0.445821 0.939556 0.544903
O O2 0.384117 0.969432 0.788463
O O3 0.373697 0.042596 0.528467
O O4 0.511297 0.123677 0.695108
O O5 0.504500 0.724135 0.250743
O O6 0.548548 0.679458 0.000230
O O7 0.368969 0.586007 0.097944
O O8 0.681608 0.046799 0.573092
O O9 0.838201 0.182159 0.702942
O O10 0.747582 0.019250 0.821356
O O11 0.258248 0.233490 0.004506
O O12 0.287001 0.400588 0.068297
O O13 0.769355 0.946702 0.085198
O O14 0.923938 0.080499 0.175079
#
# Coordination Sequence:
#
# PCOD9579839 Si02
#       7
#     6   6   6   6   6   6   6
#     4   8  20  39  64  89 126 171 215 260 315 403
#     4  11  22  43  70  91 138 169 214 272 341 397
#     4  11  21  37  63  98 126 165 215 273 317 402
#     4   9  23  36  64  93 124 162 226 261 322 388
#     4  10  19  35  62  89 119 170 213 261 323 382
#     4  11  22  41  59  82 130 180 211 267 333 383
#     4  10  23  41  68  96 129 175 214 268 341 393
#
# _framework density 20.177862000000001
#
# number of rings (size 3 to 8) (size 9 to 14) (size 15 to 20)
#    0.857    1.143    2.857    0.000    8.000    0.000 
#    2.571    4.286    0.000    0.000    0.000    0.000 
#    0.000    0.000    0.000    0.000    0.000    0.000 
#
# Total GULP energy -233849.843790 kJ/mol
# GULP energy per Si atom -5567.853424 kJ/mol
# Density = 2.013194 g / cm^3
# Si number density = 20.177862 Si / 1000 Ang^3
#
#
#
# Elastic Constant Matrix: (Units=GPa)
#
#
# Indices 1 2 3 4 5 6 
#
# 1 48.7593 14.6512 26.8288 0.0000 0.0000 0.0000
# 2 14.6512 48.7593 26.8288 0.0000 0.0000 0.0000
# 3 26.8288 26.8288 65.2787 0.0000 0.0000 0.0000
# 4 0.0000 0.0000 0.0000 26.4580 0.0000 0.0000
# 5 0.0000 0.0000 0.0000 0.0000 26.4580 0.0000
# 6 0.0000 0.0000 0.0000 0.0000 0.0000 17.0541
#
#
#
# Elastic Compliance Matrix: (Units=1/GPa)
#
#
# Indices 1 2 3 4 5 6 
#
# 1 0.026749 -0.002570 -0.009937 0.000000 0.000000 0.000000
# 2 -0.002570 0.026749 -0.009937 0.000000 0.000000 0.000000
# 3 -0.009937 -0.009937 0.023487 0.000000 0.000000 0.000000
# 4 0.000000 0.000000 0.000000 0.037796 0.000000 0.000000
# 5 0.000000 0.000000 0.000000 0.000000 0.037796 0.000000
# 6 0.000000 0.000000 0.000000 0.000000 0.000000 0.058637
#
#
# Mechanical properties :
#
#
# Convention : Reuss Voigt Hill
#
# Bulk Modulus (GPa) = 31.15640 33.26832 32.21236
# Shear Modulus (GPa) = 18.74058 20.29328 19.51693
#
# Velocity S-wave (km/s) = 3.05088 3.17475 3.11343
# Velocity P-wave (km/s) = 5.28061 5.47376 5.37805
#
# Compressibility (1/GPa) = 0.03209613
#
# Stress axis : x y z
#
# Youngs Moduli (GPa) = 37.38481 37.38481 42.57642
#
# Poissons Ratio (x) = 0.09607 0.42310
# Poissons Ratio (y) = 0.09607 0.42310
# Poissons Ratio (z) = 0.37151 0.37151
#
# Static dielectric constant tensor:
#      x y z
#    x 1.729820 0.000000 0.000000 
#    y 0.000000 1.729820 0.000000 
#    z 0.000000 0.000000 1.747710 
# 
# From -- ./inp_files/698.got.cif
#   From: 2010.05.17/outbox.cif.g08.bks.cpg/sg169_cif.got.tgz:698.got - 2010.05.20 11:12:54.
