data_PCOD9579945
_publ_section_title
;
Structure prediction by ZEFSAII (Michael W. Deem and Ramdas Pophale) SiO2 
 PCOD9579945
Probable space group: P 61
;
_chemical_formula_sum "Si O2"
_cell_formula_units_Z 48
_cell_length_a 19.212939
_cell_length_b 19.212939
_cell_length_c 8.161558
_cell_angle_alpha 90.000000
_cell_angle_beta 90.000000
_cell_angle_gamma 120.000000
_cell_volume 2609.103520
_symmetry_space_group_name_H-M "P 61"
_symmetry_group_IT_number 169
_symmetry_cell_setting 'hexagonal'
loop_
_space_group_symop_operation_xyz
x,y,z
x-y,x,1/6+z
-y,x-y,1/3+z
-x,-y,1/2+z
-x+y,-x,2/3+z
y,-x+y,5/6+z
loop_
_atom_site_type_symbol
_atom_site_label
_atom_site_fract_x
_atom_site_fract_y
_atom_site_fract_z
Si Si1 0.294332 0.031283 0.437980
Si Si2 0.405366 0.110843 0.147019
Si Si3 0.433291 0.036593 0.626429
Si Si4 0.276167 0.639172 0.628457
Si Si5 0.190551 0.466144 0.482252
Si Si6 0.187998 0.737483 0.641333
Si Si7 0.333672 0.193523 0.582338
Si Si8 0.035470 0.449809 0.319738
O O1 0.326807 0.069834 0.260311
O O2 0.358212 0.006672 0.506331
O O3 0.298480 0.099407 0.554899
O O4 0.212211 0.949316 0.437900
O O5 0.465436 0.195772 0.241782
O O6 0.422289 0.038212 0.101081
O O7 0.401366 0.142322 0.968302
O O8 0.452733 0.125346 0.679229
O O9 0.507648 0.041122 0.531672
O O10 0.416067 0.988642 0.796871
O O11 0.331196 0.646027 0.782162
O O12 0.215386 0.544441 0.595028
O O13 0.242134 0.697819 0.679288
O O14 0.146896 0.385712 0.589901
O O15 0.122003 0.458162 0.356913
O O16 0.224076 0.823345 0.557545
#
# Coordination Sequence:
#
# PCOD9579945 Si02
#       8
#     6   6   6   6   6   6   6   6
#     4  10  21  40  60  92 115 155 190 252 303 369
#     4  10  22  36  58  84 111 148 203 245 314 371
#     4  10  22  35  58  82 112 151 206 245 297 356
#     4  12  24  39  56  81 120 168 217 262 318 361
#     4  11  22  38  56  80 116 153 195 264 303 366
#     4  10  21  40  55  84 118 155 203 257 297 370
#     4  10  21  39  63  83 125 150 195 248 309 366
#     4  11  21  37  58  82 111 158 201 255 311 361
#
# _framework density 18.397123000000001
#
# number of rings (size 3 to 8) (size 9 to 14) (size 15 to 20)
#    0.000    1.500    3.750    1.500    1.750    1.000 
#    2.250    0.000    0.000    0.000    0.000    1.750 
#    0.000    0.000    0.000    0.000    0.000    0.000 
#
# Total GULP energy -267443.344132 kJ/mol
# GULP energy per Si atom -5571.736336 kJ/mol
# Density = 1.835525 g / cm^3
# Si number density = 18.397123 Si / 1000 Ang^3
#
#
#
# Elastic Constant Matrix: (Units=GPa)
#
#
# Indices 1 2 3 4 5 6 
#
# 1 72.3971 35.9662 9.5807 0.0000 0.0000 0.0000
# 2 35.9662 72.3971 9.5807 0.0000 0.0000 0.0000
# 3 9.5807 9.5807 41.2900 0.0000 0.0000 0.0000
# 4 0.0000 0.0000 0.0000 16.9226 0.0000 0.0000
# 5 0.0000 0.0000 0.0000 0.0000 16.9226 0.0000
# 6 0.0000 0.0000 0.0000 0.0000 0.0000 18.2154
#
#
#
# Elastic Compliance Matrix: (Units=1/GPa)
#
#
# Indices 1 2 3 4 5 6 
#
# 1 0.018536 -0.008913 -0.002233 0.000000 0.000000 0.000000
# 2 -0.008913 0.018536 -0.002233 0.000000 0.000000 0.000000
# 3 -0.002233 -0.002233 0.025255 0.000000 0.000000 0.000000
# 4 0.000000 0.000000 0.000000 0.059093 0.000000 0.000000
# 5 0.000000 0.000000 0.000000 0.000000 0.059093 0.000000
# 6 0.000000 0.000000 0.000000 0.000000 0.000000 0.054898
#
#
# Mechanical properties :
#
#
# Convention : Reuss Voigt Hill
#
# Bulk Modulus (GPa) = 28.11381 32.92662 30.52021
# Shear Modulus (GPa) = 18.24648 19.14256 18.69452
#
# Velocity S-wave (km/s) = 3.15272 3.22921 3.19119
# Velocity P-wave (km/s) = 5.34487 5.64272 5.49581
#
# Compressibility (1/GPa) = 0.03556971
#
# Stress axis : x y z
#
# Youngs Moduli (GPa) = 53.94864 53.94864 39.59585
#
# Poissons Ratio (x) = 0.48085 0.08841
# Poissons Ratio (y) = 0.48085 0.08841
# Poissons Ratio (z) = 0.12046 0.12046
#
# Static dielectric constant tensor:
#      x y z
#    x 1.664030 0.000000 0.000000 
#    y 0.000000 1.664030 0.000000 
#    z 0.000000 0.000000 1.650710 
# 
# From -- ./inp_files/759.got.cif
#   From: 2010.05.17/outbox.cif.g08.bks.cpg/sg169_cif.got.tgz:759.got - 2010.05.20 11:12:54.
