data_PCOD9579170
_publ_section_title
;
Structure prediction by ZEFSAII (Michael W. Deem and Ramdas Pophale) SiO2 
 PCOD9579170
Probable space group: R -3 M
;
_chemical_formula_sum "Si O2"
_cell_formula_units_Z 78
_cell_length_a 14.901465
_cell_length_b 14.901465
_cell_length_c 22.324969
_cell_angle_alpha 90.000000
_cell_angle_beta 90.000000
_cell_angle_gamma 120.000000
_cell_volume 4293.183290
_symmetry_space_group_name_H-M "R -3 M"
_symmetry_group_IT_number 166
_symmetry_cell_setting 'hexagonal'
loop_
_space_group_symop_operation_xyz
x,y,z
-y,x-y,z
-x+y,-x,z
x-y,-y,-z
-x,-x+y,-z
y,x,-z
-x,-y,-z
y,-x+y,-z
x-y,x,-z
-x+y,y,z
x,x-y,z
-y,-x,z
2/3+x,1/3+y,1/3+z
2/3-y,1/3+x-y,1/3+z
2/3-x+y,1/3-x,1/3+z
2/3+x-y,1/3-y,1/3-z
2/3-x,1/3-x+y,1/3-z
2/3+y,1/3+x,1/3-z
2/3-x,1/3-y,1/3-z
2/3+y,1/3-x+y,1/3-z
2/3+x-y,1/3+x,1/3-z
2/3-x+y,1/3+y,1/3+z
2/3+x,1/3+x-y,1/3+z
2/3-y,1/3-x,1/3+z
1/3+x,2/3+y,2/3+z
1/3-y,2/3+x-y,2/3+z
1/3-x+y,2/3-x,2/3+z
1/3+x-y,2/3-y,2/3-z
1/3-x,2/3-x+y,2/3-z
1/3+y,2/3+x,2/3-z
1/3-x,2/3-y,2/3-z
1/3+y,2/3-x+y,2/3-z
1/3+x-y,2/3+x,2/3-z
1/3-x+y,2/3+y,2/3+z
1/3+x,2/3+x-y,2/3+z
1/3-y,2/3-x,2/3+z
loop_
_atom_site_type_symbol
_atom_site_label
_atom_site_fract_x
_atom_site_fract_y
_atom_site_fract_z
Si Si1 0.333334 0.666667 0.737185
Si Si2 0.216418 0.783583 0.875667
Si Si3 0.068101 0.136202 0.669453
Si Si4 0.463708 0.231854 0.482583
Si Si5 0.776378 0.223623 0.867659
O O1 0.333335 0.666668 0.666667
O O2 0.215992 0.607996 0.762867
O O3 0.166667 0.833334 0.833334
O O4 0.158333 0.664911 0.855375
O O5 0.219827 0.780174 0.947850
O O6 0.088649 0.177297 0.602120
O O7 0.111355 0.055678 0.677753
O O8 0.344034 0.172017 0.464715
O O9 0.841518 0.333334 0.833334
#
# Coordination Sequence:
#
# PCOD9579170 Si02
#       5
#     6  18  18  18  18
#     4   9  21  42  66  84 117 165 220 275 325 363
#     4  11  21  41  64  90 122 168 219 266 319 380
#     4  10  19  40  68  90 122 172 224 259 322 382
#     4  10  22  39  61  87 123 167 212 262 322 378
#     4  12  22  39  62 100 137 175 211 269 329 390
#
# _framework density 18.168336
#
# number of rings (size 3 to 8) (size 9 to 14) (size 15 to 20)
#    0.462    0.923    4.615    2.077    0.000    3.692 
#    0.000    9.231    0.000    0.000    0.000    0.000 
#    0.000    0.000    0.000    0.000    0.000    0.000 
#
# Total GULP energy -144887.394618 kJ/mol
# GULP energy per Si atom -5572.592101 kJ/mol
# Density = 1.812698 g / cm^3
# Si number density = 18.168336 Si / 1000 Ang^3
#
#
#
# Elastic Constant Matrix: (Units=GPa)
#
#
# Indices 1 2 3 4 5 6 
#
# 1 115.2771 56.9153 56.5712 6.1723 0.0000 0.0000
# 2 56.9153 115.2773 56.5715 -6.1723 0.0000 0.0000
# 3 56.5712 56.5715 193.6738 0.0002 0.0000 0.0000
# 4 6.1723 -6.1723 0.0002 11.7551 0.0000 0.0000
# 5 0.0000 0.0000 0.0000 0.0000 11.7551 6.1722
# 6 0.0000 0.0000 0.0000 0.0000 6.1722 29.1810
#
#
#
# Elastic Compliance Matrix: (Units=1/GPa)
#
#
# Indices 1 2 3 4 5 6 
#
# 1 0.013231 -0.006044 -0.002099 -0.010121 0.000000 0.000000
# 2 -0.006044 0.013231 -0.002099 0.010121 0.000000 0.000000
# 3 -0.002099 -0.002099 0.006390 0.000000 0.000000 0.000000
# 4 -0.010121 0.010121 0.000000 0.095698 0.000000 0.000000
# 5 0.000000 0.000000 0.000000 0.000000 0.095697 -0.020241
# 6 0.000000 0.000000 0.000000 0.000000 -0.020241 0.038550
#
#
# Mechanical properties :
#
#
# Convention : Reuss Voigt Hill
#
# Bulk Modulus (GPa) = 80.86471 84.92714 82.89593
# Shear Modulus (GPa) = 17.39708 27.48292 22.44000
#
# Velocity S-wave (km/s) = 3.09779 3.89354 3.51823
# Velocity P-wave (km/s) = 7.57630 8.18895 7.88857
#
# Compressibility (1/GPa) = 0.01236633
#
# Stress axis : x y z
#
# Youngs Moduli (GPa) = 75.58008 75.57991 156.50237
#
# Poissons Ratio (x) = 0.45682 0.32853
# Poissons Ratio (y) = 0.45682 0.32854
# Poissons Ratio (z) = 0.15866 0.15866
#
# Static dielectric constant tensor:
#      x y z
#    x 1.630770 0.000000 0.000000 
#    y 0.000000 1.630770 0.000000 
#    z 0.000000 0.000000 1.608600 
# 
# From -- ./inp_files/7608.got.cif
#   From: 2010.05.17/outbox.cif.g08.bks.cpg/sg166_4_cif.got.tgz:7608.got - 2010.05.20 11:04:41.
