data_PCOD9579123
_publ_section_title
;
Structure prediction by ZEFSAII (Michael W. Deem and Ramdas Pophale) SiO2 
 PCOD9579123
Probable space group: R -3 M
;
_chemical_formula_sum "Si O2"
_cell_formula_units_Z 216
_cell_length_a 24.203255
_cell_length_b 24.203255
_cell_length_c 27.938716
_cell_angle_alpha 90.000000
_cell_angle_beta 90.000000
_cell_angle_gamma 120.000000
_cell_volume 14173.745410
_symmetry_space_group_name_H-M "R -3 M"
_symmetry_group_IT_number 166
_symmetry_cell_setting 'hexagonal'
loop_
_space_group_symop_operation_xyz
x,y,z
-y,x-y,z
-x+y,-x,z
x-y,-y,-z
-x,-x+y,-z
y,x,-z
-x,-y,-z
y,-x+y,-z
x-y,x,-z
-x+y,y,z
x,x-y,z
-y,-x,z
2/3+x,1/3+y,1/3+z
2/3-y,1/3+x-y,1/3+z
2/3-x+y,1/3-x,1/3+z
2/3+x-y,1/3-y,1/3-z
2/3-x,1/3-x+y,1/3-z
2/3+y,1/3+x,1/3-z
2/3-x,1/3-y,1/3-z
2/3+y,1/3-x+y,1/3-z
2/3+x-y,1/3+x,1/3-z
2/3-x+y,1/3+y,1/3+z
2/3+x,1/3+x-y,1/3+z
2/3-y,1/3-x,1/3+z
1/3+x,2/3+y,2/3+z
1/3-y,2/3+x-y,2/3+z
1/3-x+y,2/3-x,2/3+z
1/3+x-y,2/3-y,2/3-z
1/3-x,2/3-x+y,2/3-z
1/3+y,2/3+x,2/3-z
1/3-x,2/3-y,2/3-z
1/3+y,2/3-x+y,2/3-z
1/3+x-y,2/3+x,2/3-z
1/3-x+y,2/3+y,2/3+z
1/3+x,2/3+x-y,2/3+z
1/3-y,2/3-x,2/3+z
loop_
_atom_site_type_symbol
_atom_site_label
_atom_site_fract_x
_atom_site_fract_y
_atom_site_fract_z
Si Si1 0.508247 0.368885 0.613865
Si Si2 0.520642 0.479359 0.930906
Si Si3 0.886104 0.113897 0.700215
Si Si4 0.080980 0.799056 0.627216
Si Si5 0.691434 0.071750 0.781320
Si Si6 0.934195 0.740940 0.025612
Si Si7 0.586157 0.603314 0.445690
O O1 0.584365 0.415636 0.607545
O O2 0.477569 0.292678 0.614973
O O3 0.490067 0.384597 0.665705
O O4 0.473299 0.392700 0.576383
O O5 0.483602 0.516399 0.947489
O O6 0.469434 0.420351 0.900340
O O7 0.545244 0.454757 0.976103
O O8 0.139664 0.860337 0.603302
O O9 0.109438 0.761457 0.655764
O O10 0.028734 0.753825 0.590667
O O11 0.666667 0.074992 0.833334
O O12 0.700080 0.009954 0.780053
O O13 0.881104 0.762209 0.030985
O O14 0.938114 0.708815 0.075864
O O15 0.000000 0.791657 0.000000
O O16 0.577531 0.577531 0.500000
#
# Coordination Sequence:
#
# PCOD9579123 Si02
#       7
#    36  18  18  36  36  36  36
#     4  10  20  34  53  74 102 135 176 220 260 311
#     4  11  22  34  54  78 105 151 179 217 273 316
#     4  11  20  34  56  76 105 137 187 221 265 324
#     4   9  18  32  49  71  99 136 170 210 257 303
#     4  11  21  32  50  77 111 140 177 217 259 317
#     4  10  19  32  53  74 101 133 169 208 256 313
#     4  10  20  34  53  81 105 135 168 212 263 322
#
# _framework density 15.239444000000001
#
# number of rings (size 3 to 8) (size 9 to 14) (size 15 to 20)
#    0.000    1.833    5.000    1.500    1.167    1.333 
#    0.500    0.000    1.833    0.167    0.000    0.000 
#    0.000    1.333    0.000    0.000    0.000    0.000 
#
# Total GULP energy -401063.927185 kJ/mol
# GULP energy per Si atom -5570.332322 kJ/mol
# Density = 1.520476 g / cm^3
# Si number density = 15.239444 Si / 1000 Ang^3
#
#
#
# Elastic Constant Matrix: (Units=GPa)
#
#
# Indices 1 2 3 4 5 6 
#
# 1 77.0387 32.6752 37.1739 -0.4088 -0.0001 0.0000
# 2 32.6752 77.0387 37.1739 0.4088 0.0001 0.0000
# 3 37.1739 37.1739 93.8842 0.0000 0.0000 0.0000
# 4 -0.4088 0.4088 0.0000 12.9761 0.0000 0.0001
# 5 -0.0001 0.0001 0.0000 0.0000 12.9761 -0.4088
# 6 0.0000 0.0000 0.0000 0.0001 -0.4088 22.1818
#
#
#
# Elastic Compliance Matrix: (Units=1/GPa)
#
#
# Indices 1 2 3 4 5 6 
#
# 1 0.017506 -0.005049 -0.004932 0.000711 0.000000 0.000000
# 2 -0.005049 0.017506 -0.004932 -0.000711 0.000000 0.000000
# 3 -0.004932 -0.004932 0.014557 0.000000 0.000000 0.000000
# 4 0.000711 -0.000711 0.000000 0.077110 0.000000 0.000000
# 5 0.000000 0.000000 0.000000 0.000000 0.077110 0.001421
# 6 0.000000 0.000000 0.000000 0.000000 0.001421 0.045108
#
#
# Mechanical properties :
#
#
# Convention : Reuss Voigt Hill
#
# Bulk Modulus (GPa) = 50.65377 51.33420 50.99398
# Shear Modulus (GPa) = 17.52517 19.02269 18.27393
#
# Velocity S-wave (km/s) = 3.39483 3.53690 3.46659
# Velocity P-wave (km/s) = 6.97691 7.10195 7.03971
#
# Compressibility (1/GPa) = 0.01974187
#
# Stress axis : x y z
#
# Youngs Moduli (GPa) = 57.12452 57.12452 68.69324
#
# Poissons Ratio (x) = 0.28839 0.33883
# Poissons Ratio (y) = 0.28839 0.33883
# Poissons Ratio (z) = 0.28176 0.28176
#
# Static dielectric constant tensor:
#      x y z
#    x 1.510300 0.000000 0.000000 
#    y 0.000000 1.510300 0.000000 
#    z 0.000000 0.000000 1.502220 
# 
# From -- ./inp_files/8537.got.cif
#   From: 2010.05.17/outbox.cif.g08.bks.cpg/sg166_5_cif.got.tgz:8537.got - 2010.05.20 11:04:41.
