data_PCOD9579639
_publ_section_title
;
Structure prediction by ZEFSAII (Michael W. Deem and Ramdas Pophale) SiO2 
 PCOD9579639
Probable space group: R -3 C 
;
_chemical_formula_sum "Si O2"
_cell_formula_units_Z 108
_cell_length_a 13.780792
_cell_length_b 13.780792
_cell_length_c 28.865198
_cell_angle_alpha 90.000000
_cell_angle_beta 90.000000
_cell_angle_gamma 120.000000
_cell_volume 4747.374887
_symmetry_space_group_name_H-M "R -3 C "
_symmetry_group_IT_number 167
_symmetry_cell_setting 'hexagonal'
loop_
_space_group_symop_operation_xyz
x,y,z
-y,x-y,z
-x+y,-x,z
x-y,-y,1/2-z
-x,-x+y,1/2-z
y,x,1/2-z
-x,-y,-z
y,-x+y,-z
x-y,x,-z
-x+y,y,1/2+z
x,x-y,1/2+z
-y,-x,1/2+z
2/3+x,1/3+y,1/3+z
2/3-y,1/3+x-y,1/3+z
2/3-x+y,1/3-x,1/3+z
2/3+x-y,1/3-y,5/6-z
2/3-x,1/3-x+y,5/6-z
2/3+y,1/3+x,5/6-z
2/3-x,1/3-y,1/3-z
2/3+y,1/3-x+y,1/3-z
2/3+x-y,1/3+x,1/3-z
2/3-x+y,1/3+y,5/6+z
2/3+x,1/3+x-y,5/6+z
2/3-y,1/3-x,5/6+z
1/3+x,2/3+y,2/3+z
1/3-y,2/3+x-y,2/3+z
1/3-x+y,2/3-x,2/3+z
1/3+x-y,2/3-y,1/6-z
1/3-x,2/3-x+y,1/6-z
1/3+y,2/3+x,1/6-z
1/3-x,2/3-y,2/3-z
1/3+y,2/3-x+y,2/3-z
1/3+x-y,2/3+x,2/3-z
1/3-x+y,2/3+y,1/6+z
1/3+x,2/3+x-y,1/6+z
1/3-y,2/3-x,1/6+z
loop_
_atom_site_type_symbol
_atom_site_label
_atom_site_fract_x
_atom_site_fract_y
_atom_site_fract_z
Si Si1 0.177729 0.445826 0.140274
Si Si2 0.788796 0.900324 0.778728
Si Si3 0.788788 0.982231 0.875231
O O1 0.132512 0.503952 0.175322
O O2 0.188302 0.501260 0.089888
O O3 0.086566 0.314747 0.137943
O O4 0.866575 0.866575 0.750000
O O5 0.830349 0.944147 0.830607
O O6 0.666685 0.791222 0.780933
O O7 0.788573 0.000000 0.750000
#
# Coordination Sequence:
#
# PCOD9579639 Si02
#       3
#    36  36  36
#     4  11  23  45  69  99 136 179 230 279 340 411
#     4  11  22  42  65  95 136 174 225 277 333 409
#     4  10  24  44  65 100 139 176 223 277 352 405
#
# _framework density 22.749416
#
# number of rings (size 3 to 8) (size 9 to 14) (size 15 to 20)
#    0.000    1.333    3.333    2.667    0.000    2.667 
#   24.000    0.000    0.000    0.000    0.000    0.000 
#    0.000    0.000    0.000    0.000    0.000    0.000 
#
# Total GULP energy -201487.558147 kJ/mol
# GULP energy per Si atom -5596.876615 kJ/mol
# Density = 2.269764 g / cm^3
# Si number density = 22.749416 Si / 1000 Ang^3
#
#
#
# Elastic Constant Matrix: (Units=GPa)
#
#
# Indices 1 2 3 4 5 6 
#
# 1 40.0545 35.3646 31.5521 19.4962 0.0000 0.0000
# 2 35.3646 40.0545 31.5521 -19.4962 0.0000 0.0000
# 3 31.5521 31.5521 202.8508 0.0000 0.0000 0.0000
# 4 19.4962 -19.4962 0.0000 17.5382 0.0000 0.0000
# 5 0.0000 0.0000 0.0000 0.0000 17.5382 19.4962
# 6 0.0000 0.0000 0.0000 0.0000 19.4962 2.3450
#
#
#
# Elastic Compliance Matrix: (Units=1/GPa)
#
#
# Indices 1 2 3 4 5 6 
#
# 1 -0.005313 0.020556 -0.002371 0.028758 0.000000 0.000000
# 2 0.020556 -0.005313 -0.002371 -0.028758 0.000000 0.000000
# 3 -0.002371 -0.002371 0.005667 0.000000 0.000000 0.000000
# 4 0.028758 -0.028758 0.000000 -0.006918 0.000000 0.000000
# 5 0.000000 0.000000 0.000000 0.000000 -0.006918 0.057515
# 6 0.000000 0.000000 0.000000 0.000000 0.057515 -0.051739
#
#
# Mechanical properties :
#
#
# Convention : Reuss Voigt Hill
#
# Bulk Modulus (GPa) = 37.49588 53.32193 45.40891
# Shear Modulus (GPa) = -53.60599 19.78368 -16.91115
#
# Velocity S-wave (km/s) = -4.85951 2.95216 -2.72943
# Velocity P-wave (km/s) = 3.86892 5.92537 3.17344
#
# Compressibility (1/GPa) = 0.02666960
#
# Stress axis : x y z
#
# Youngs Moduli (GPa) = -188.20787 -188.20787 176.45075
#
# Poissons Ratio (x) = 3.86886 0.41836
# Poissons Ratio (y) = 3.86886 0.41836
# Poissons Ratio (z) = -0.44623 -0.44623
#
# Static dielectric constant tensor:
#      x y z
#    x 1.826450 0.000000 0.000000 
#    y 0.000000 1.826450 0.000000 
#    z 0.000000 0.000000 1.882390 
# 
# From -- ./inp_files/6804.got.cif
#   From: 2010.05.17/outbox.cif.g08.bks.cpg/sg167_4_cif.got.tgz:6804.got - 2010.05.20 11:09:15.
