data_PCOD9579659
_publ_section_title
;
Structure prediction by ZEFSAII (Michael W. Deem and Ramdas Pophale) SiO2 
 PCOD9579659
Probable space group: R -3 C 
;
_chemical_formula_sum "Si O2"
_cell_formula_units_Z 192
_cell_length_a 24.172142
_cell_length_b 24.172142
_cell_length_c 19.673595
_cell_angle_alpha 90.000000
_cell_angle_beta 90.000000
_cell_angle_gamma 120.000000
_cell_volume 9955.077198
_symmetry_space_group_name_H-M "R -3 C "
_symmetry_group_IT_number 167
_symmetry_cell_setting 'hexagonal'
loop_
_space_group_symop_operation_xyz
x,y,z
-y,x-y,z
-x+y,-x,z
x-y,-y,1/2-z
-x,-x+y,1/2-z
y,x,1/2-z
-x,-y,-z
y,-x+y,-z
x-y,x,-z
-x+y,y,1/2+z
x,x-y,1/2+z
-y,-x,1/2+z
2/3+x,1/3+y,1/3+z
2/3-y,1/3+x-y,1/3+z
2/3-x+y,1/3-x,1/3+z
2/3+x-y,1/3-y,5/6-z
2/3-x,1/3-x+y,5/6-z
2/3+y,1/3+x,5/6-z
2/3-x,1/3-y,1/3-z
2/3+y,1/3-x+y,1/3-z
2/3+x-y,1/3+x,1/3-z
2/3-x+y,1/3+y,5/6+z
2/3+x,1/3+x-y,5/6+z
2/3-y,1/3-x,5/6+z
1/3+x,2/3+y,2/3+z
1/3-y,2/3+x-y,2/3+z
1/3-x+y,2/3-x,2/3+z
1/3+x-y,2/3-y,1/6-z
1/3-x,2/3-x+y,1/6-z
1/3+y,2/3+x,1/6-z
1/3-x,2/3-y,2/3-z
1/3+y,2/3-x+y,2/3-z
1/3+x-y,2/3+x,2/3-z
1/3-x+y,2/3+y,1/6+z
1/3+x,2/3+x-y,1/6+z
1/3-y,2/3-x,1/6+z
loop_
_atom_site_type_symbol
_atom_site_label
_atom_site_fract_x
_atom_site_fract_y
_atom_site_fract_z
Si Si1 0.343605 0.159438 0.087453
Si Si2 0.321792 0.270177 0.809262
Si Si3 0.459446 0.663312 0.026145
Si Si4 0.666668 0.333334 0.498292
Si Si5 0.650845 0.558173 0.397876
Si Si6 0.258390 0.774643 0.419624
O O1 0.333334 0.166667 0.166667
O O2 0.347749 0.220170 0.049545
O O3 0.288524 0.091352 0.062403
O O4 0.412842 0.166425 0.078117
O O5 0.302997 0.302997 0.750000
O O6 0.393472 0.315267 0.836296
O O7 0.270244 0.255105 0.869067
O O8 0.499000 0.663104 0.091071
O O9 0.390987 0.658427 0.029712
O O10 0.501059 0.728021 0.983423
O O11 0.445288 0.602885 0.978519
O O12 0.666668 0.333334 0.583334
O O13 0.333334 0.798676 0.416667
#
# Coordination Sequence:
#
# PCOD9579659 Si02
#       6
#    36  36  36  12  36  36
#     4  12  23  39  67  95 128 176 220 268 339 397
#     4  11  23  45  66  95 132 171 226 275 326 407
#     4  11  18  36  56  94 135 170 212 271 332 378
#     4  12  18  30  60 102 136 173 226 277 323 382
#     4  11  25  42  66  95 135 178 214 276 342 385
#     4  11  20  31  58  97 137 164 217 278 319 383
#
# _framework density 19.286640999999999
#
# number of rings (size 3 to 8) (size 9 to 14) (size 15 to 20)
#    0.000    0.750    9.375    0.000    2.625    0.000 
#    3.375    3.750    0.000    0.000    0.000    1.312 
#    0.000    0.000    0.000    0.000    0.000    0.000 
#
# Total GULP energy -357413.907236 kJ/mol
# GULP energy per Si atom -5584.592301 kJ/mol
# Density = 1.924274 g / cm^3
# Si number density = 19.286641 Si / 1000 Ang^3
#
#
#
# Elastic Constant Matrix: (Units=GPa)
#
#
# Indices 1 2 3 4 5 6 
#
# 1 122.3821 36.7878 19.3486 -2.0491 0.0000 0.0001
# 2 36.7878 122.3811 19.3486 2.0489 0.0000 0.0001
# 3 19.3486 19.3486 30.5192 -0.0001 0.0000 0.0001
# 4 -2.0491 2.0489 -0.0001 22.3385 0.0000 0.0000
# 5 0.0000 0.0000 0.0000 0.0000 22.3386 -2.0490
# 6 0.0001 0.0001 0.0001 0.0000 -2.0490 42.7967
#
#
#
# Elastic Compliance Matrix: (Units=1/GPa)
#
#
# Indices 1 2 3 4 5 6 
#
# 1 0.009581 -0.002154 -0.004709 0.001076 0.000000 0.000000
# 2 -0.002154 0.009581 -0.004709 -0.001076 0.000000 0.000000
# 3 -0.004709 -0.004709 0.038737 0.000000 0.000000 0.000000
# 4 0.001076 -0.001076 0.000000 0.044963 0.000000 0.000000
# 5 0.000000 0.000000 0.000000 0.000000 0.044963 0.002153
# 6 0.000000 0.000000 0.000000 0.000000 0.002153 0.023469
#
#
# Mechanical properties :
#
#
# Convention : Reuss Voigt Hill
#
# Bulk Modulus (GPa) = 28.77170 47.36136 38.06653
# Shear Modulus (GPa) = 24.26918 30.81459 27.54189
#
# Velocity S-wave (km/s) = 3.55116 4.00148 3.78303
# Velocity P-wave (km/s) = 5.63601 6.77931 6.23393
#
# Compressibility (1/GPa) = 0.03475637
#
# Stress axis : x y z
#
# Youngs Moduli (GPa) = 104.37348 104.37250 25.81518
#
# Poissons Ratio (x) = 0.22478 0.12156
# Poissons Ratio (y) = 0.22478 0.12156
# Poissons Ratio (z) = 0.49147 0.49148
#
# Static dielectric constant tensor:
#      x y z
#    x 1.680970 0.000000 0.000000 
#    y 0.000000 1.680980 0.000000 
#    z 0.000000 0.000000 1.709450 
# 
# From -- ./inp_files/5450.got.cif
#   From: 2010.05.17/outbox.cif.g08.bks.cpg/sg167_3_cif.got.tgz:5450.got - 2010.05.20 11:09:15.
