data_PCOD9579104
_publ_section_title
;
Structure prediction by ZEFSAII (Michael W. Deem and Ramdas Pophale) SiO2 
 PCOD9579104
Probable space group: R -3 M
;
_chemical_formula_sum "Si O2"
_cell_formula_units_Z 216
_cell_length_a 28.607448
_cell_length_b 28.607448
_cell_length_c 19.834605
_cell_angle_alpha 90.000000
_cell_angle_beta 90.000000
_cell_angle_gamma 120.000000
_cell_volume 14057.640155
_symmetry_space_group_name_H-M "R -3 M"
_symmetry_group_IT_number 166
_symmetry_cell_setting 'hexagonal'
loop_
_space_group_symop_operation_xyz
x,y,z
-y,x-y,z
-x+y,-x,z
x-y,-y,-z
-x,-x+y,-z
y,x,-z
-x,-y,-z
y,-x+y,-z
x-y,x,-z
-x+y,y,z
x,x-y,z
-y,-x,z
2/3+x,1/3+y,1/3+z
2/3-y,1/3+x-y,1/3+z
2/3-x+y,1/3-x,1/3+z
2/3+x-y,1/3-y,1/3-z
2/3-x,1/3-x+y,1/3-z
2/3+y,1/3+x,1/3-z
2/3-x,1/3-y,1/3-z
2/3+y,1/3-x+y,1/3-z
2/3+x-y,1/3+x,1/3-z
2/3-x+y,1/3+y,1/3+z
2/3+x,1/3+x-y,1/3+z
2/3-y,1/3-x,1/3+z
1/3+x,2/3+y,2/3+z
1/3-y,2/3+x-y,2/3+z
1/3-x+y,2/3-x,2/3+z
1/3+x-y,2/3-y,2/3-z
1/3-x,2/3-x+y,2/3-z
1/3+y,2/3+x,2/3-z
1/3-x,2/3-y,2/3-z
1/3+y,2/3-x+y,2/3-z
1/3+x-y,2/3+x,2/3-z
1/3-x+y,2/3+y,2/3+z
1/3+x,2/3+x-y,2/3+z
1/3-y,2/3-x,2/3+z
loop_
_atom_site_type_symbol
_atom_site_label
_atom_site_fract_x
_atom_site_fract_y
_atom_site_fract_z
Si Si1 0.357178 0.269992 0.343173
Si Si2 0.125322 0.250643 0.779443
Si Si3 0.899525 0.366029 0.649858
Si Si4 0.495460 0.883450 0.196407
Si Si5 0.144540 0.289080 0.928582
Si Si6 0.914589 0.718914 0.715071
Si Si7 0.005491 0.401676 0.170835
O O1 0.392015 0.333334 0.333334
O O2 0.296259 0.246285 0.315146
O O3 0.383018 0.238116 0.306746
O O4 0.349480 0.261116 0.423012
O O5 0.066992 0.225753 0.743189
O O6 0.126426 0.252851 0.860818
O O7 0.157106 0.314212 0.759243
O O8 0.889921 0.384237 0.723139
O O9 0.864363 0.301569 0.645947
O O10 0.439050 0.878100 0.180568
O O11 0.502180 0.835513 0.166667
O O12 0.543002 0.937751 0.162238
O O13 0.864247 0.728495 0.726164
O O14 0.892732 0.666667 0.666667
O O15 0.934164 0.702037 0.781916
O O16 0.020945 0.354278 0.166667
#
# Coordination Sequence:
#
# PCOD9579104 Si02
#       7
#    36  18  36  36  18  36  36
#     4  10  20  32  49  71  98 128 171 207 248 301
#     4   9  18  34  50  68  96 124 172 214 247 300
#     4  10  19  33  51  68  97 132 171 208 249 298
#     4  10  19  32  50  72  95 128 165 207 253 302
#     4   9  20  32  48  72  93 128 164 213 255 289
#     4  11  22  33  47  72 104 134 168 210 256 305
#     4  10  20  31  50  70  99 137 168 202 245 303
#
# _framework density 15.365309999999999
#
# number of rings (size 3 to 8) (size 9 to 14) (size 15 to 20)
#    0.000    2.000    0.833    5.000    7.000    2.000 
#    0.000    0.000    0.000    0.167    0.000    0.000 
#    0.833    0.000    0.000    0.250    0.000    0.000 
#
# Total GULP energy -401535.296463 kJ/mol
# GULP energy per Si atom -5576.879118 kJ/mol
# Density = 1.533034 g / cm^3
# Si number density = 15.365310 Si / 1000 Ang^3
#
#
#
# Elastic Constant Matrix: (Units=GPa)
#
#
# Indices 1 2 3 4 5 6 
#
# 1 57.6144 21.8282 7.2325 0.1214 -0.0006 0.0000
# 2 21.8282 57.6144 7.2325 -0.1214 0.0006 0.0000
# 3 7.2325 7.2325 51.2577 0.0000 0.0000 0.0000
# 4 0.1214 -0.1214 0.0000 13.2365 0.0000 0.0006
# 5 -0.0006 0.0006 0.0000 0.0000 13.2365 0.1214
# 6 0.0000 0.0000 0.0000 0.0006 0.1214 17.8931
#
#
#
# Elastic Compliance Matrix: (Units=1/GPa)
#
#
# Indices 1 2 3 4 5 6 
#
# 1 0.020433 -0.007513 -0.001823 -0.000256 0.000001 0.000000
# 2 -0.007513 0.020433 -0.001823 0.000256 -0.000001 0.000000
# 3 -0.001823 -0.001823 0.020024 0.000000 0.000000 0.000000
# 4 -0.000256 0.000256 0.000000 0.075554 0.000000 -0.000003
# 5 0.000001 -0.000001 0.000000 0.000000 0.075554 -0.000513
# 6 0.000000 0.000000 0.000000 -0.000003 -0.000513 0.055891
#
#
# Mechanical properties :
#
#
# Convention : Reuss Voigt Hill
#
# Bulk Modulus (GPa) = 25.92615 26.56366 26.24491
# Shear Modulus (GPa) = 16.49830 17.55276 17.02553
#
# Velocity S-wave (km/s) = 3.28035 3.38355 3.33235
# Velocity P-wave (km/s) = 5.59083 5.70878 5.65011
#
# Compressibility (1/GPa) = 0.03857109
#
# Stress axis : x y z
#
# Youngs Moduli (GPa) = 48.94148 48.94148 49.94084
#
# Poissons Ratio (x) = 0.36769 0.09104
# Poissons Ratio (y) = 0.36769 0.09104
# Poissons Ratio (z) = 0.08922 0.08922
#
# Static dielectric constant tensor:
#      x y z
#    x 1.504950 0.000000 0.000000 
#    y 0.000000 1.504950 0.000000 
#    z 0.000000 0.000000 1.514340 
# 
# From -- ./inp_files/7189.got.cif
#   From: 2010.05.17/outbox.cif.g08.bks.cpg/sg166_4_cif.got.tgz:7189.got - 2010.05.20 11:04:41.
