data_PCOD9579845
_publ_section_title
;
Structure prediction by ZEFSAII (Michael W. Deem and Ramdas Pophale) SiO2 
 PCOD9579845
Probable space group: P 61
;
_chemical_formula_sum "Si O2"
_cell_formula_units_Z 42
_cell_length_a 11.026807
_cell_length_b 11.026807
_cell_length_c 21.558133
_cell_angle_alpha 90.000000
_cell_angle_beta 90.000000
_cell_angle_gamma 120.000000
_cell_volume 2270.080850
_symmetry_space_group_name_H-M "P 61"
_symmetry_group_IT_number 169
_symmetry_cell_setting 'hexagonal'
loop_
_space_group_symop_operation_xyz
x,y,z
x-y,x,1/6+z
-y,x-y,1/3+z
-x,-y,1/2+z
-x+y,-x,2/3+z
y,-x+y,5/6+z
loop_
_atom_site_type_symbol
_atom_site_label
_atom_site_fract_x
_atom_site_fract_y
_atom_site_fract_z
Si Si1 0.738760 0.431212 0.123000
Si Si2 0.981492 0.707315 0.698509
Si Si3 0.038758 0.520781 0.100870
Si Si4 0.617279 0.934159 0.497978
Si Si5 0.351292 0.682411 0.816474
Si Si6 0.487126 0.086792 0.565687
Si Si7 0.868173 0.582471 0.486222
O O1 0.676430 0.497127 0.171081
O O2 0.721663 0.282501 0.146277
O O3 0.903636 0.534092 0.110924
O O4 0.674526 0.394028 0.054459
O O5 0.979670 0.664678 0.769373
O O6 0.134669 0.834782 0.679260
O O7 0.966689 0.583185 0.654528
O O8 0.842565 0.715205 0.686545
O O9 0.188860 0.655765 0.109474
O O10 0.045501 0.450567 0.036997
O O11 0.468315 0.801200 0.476633
O O12 0.580655 0.015558 0.549205
O O13 0.349990 0.548397 0.788185
O O14 0.338492 0.958076 0.589490
#
# Coordination Sequence:
#
# PCOD9579845 Si02
#       7
#     6   6   6   6   6   6   6
#     4  11  22  37  57  89 124 159 202 262 314 358
#     4  10  20  38  59  85 117 155 197 247 298 364
#     4  10  19  36  58  83 118 153 192 249 317 349
#     4  11  22  38  61  90 121 158 202 261 307 369
#     4  11  20  37  59  89 123 158 200 261 317 357
#     4  12  23  34  61  98 122 159 219 259 308 392
#     4  11  20  36  59  90 119 158 198 253 313 375
#
# _framework density 18.501545
#
# number of rings (size 3 to 8) (size 9 to 14) (size 15 to 20)
#    0.000    1.143    7.143    2.571    0.000    0.000 
#    0.000    0.000    0.000    1.714    0.000    0.000 
#    0.000    0.000    0.000    0.000    0.000    0.000 
#
# Total GULP energy -233994.041454 kJ/mol
# GULP energy per Si atom -5571.286701 kJ/mol
# Density = 1.845943 g / cm^3
# Si number density = 18.501545 Si / 1000 Ang^3
#
#
#
# Elastic Constant Matrix: (Units=GPa)
#
#
# Indices 1 2 3 4 5 6 
#
# 1 46.7078 8.8744 5.5499 0.0000 0.0000 0.0000
# 2 8.8744 46.7078 5.5499 0.0000 0.0000 0.0000
# 3 5.5499 5.5499 67.5729 0.0000 0.0000 0.0000
# 4 0.0000 0.0000 0.0000 30.7976 0.0000 0.0000
# 5 0.0000 0.0000 0.0000 0.0000 30.7976 0.0000
# 6 0.0000 0.0000 0.0000 0.0000 0.0000 18.9167
#
#
#
# Elastic Compliance Matrix: (Units=1/GPa)
#
#
# Indices 1 2 3 4 5 6 
#
# 1 0.022362 -0.004070 -0.001502 0.000000 0.000000 0.000000
# 2 -0.004070 0.022362 -0.001502 0.000000 0.000000 0.000000
# 3 -0.001502 -0.001502 0.015046 0.000000 0.000000 0.000000
# 4 0.000000 0.000000 0.000000 0.032470 0.000000 0.000000
# 5 0.000000 0.000000 0.000000 0.000000 0.032470 0.000000
# 6 0.000000 0.000000 0.000000 0.000000 0.000000 0.052863
#
#
# Mechanical properties :
#
#
# Convention : Reuss Voigt Hill
#
# Bulk Modulus (GPa) = 21.92063 22.32632 22.12348
# Shear Modulus (GPa) = 24.16297 25.50332 24.83314
#
# Velocity S-wave (km/s) = 3.61778 3.71677 3.66761
# Velocity P-wave (km/s) = 5.41524 5.52382 5.46980
#
# Compressibility (1/GPa) = 0.04561913
#
# Stress axis : x y z
#
# Youngs Moduli (GPa) = 44.71961 44.71961 66.46454
#
# Poissons Ratio (x) = 0.18202 0.09985
# Poissons Ratio (y) = 0.18202 0.09985
# Poissons Ratio (z) = 0.06718 0.06718
#
# Static dielectric constant tensor:
#      x y z
#    x 1.672770 0.000000 0.000000 
#    y 0.000000 1.672770 0.000000 
#    z 0.000000 0.000000 1.670190 
# 
# From -- ./inp_files/1528.got.cif
#   From: 2010.05.17/outbox.cif.g08.bks.cpg/sg169_cif.got.tgz:1528.got - 2010.05.20 11:12:54.
