data_PCOD9579500
_publ_section_title
;
Structure prediction by ZEFSAII (Michael W. Deem and Ramdas Pophale) SiO2 
 PCOD9579500
Probable space group: R -3 C 
;
_chemical_formula_sum "Si O2"
_cell_formula_units_Z 216
_cell_length_a 23.821490
_cell_length_b 23.821490
_cell_length_c 20.367876
_cell_angle_alpha 90.000000
_cell_angle_beta 90.000000
_cell_angle_gamma 120.000000
_cell_volume 10009.542295
_symmetry_space_group_name_H-M "R -3 C "
_symmetry_group_IT_number 167
_symmetry_cell_setting 'hexagonal'
loop_
_space_group_symop_operation_xyz
x,y,z
-y,x-y,z
-x+y,-x,z
x-y,-y,1/2-z
-x,-x+y,1/2-z
y,x,1/2-z
-x,-y,-z
y,-x+y,-z
x-y,x,-z
-x+y,y,1/2+z
x,x-y,1/2+z
-y,-x,1/2+z
2/3+x,1/3+y,1/3+z
2/3-y,1/3+x-y,1/3+z
2/3-x+y,1/3-x,1/3+z
2/3+x-y,1/3-y,5/6-z
2/3-x,1/3-x+y,5/6-z
2/3+y,1/3+x,5/6-z
2/3-x,1/3-y,1/3-z
2/3+y,1/3-x+y,1/3-z
2/3+x-y,1/3+x,1/3-z
2/3-x+y,1/3+y,5/6+z
2/3+x,1/3+x-y,5/6+z
2/3-y,1/3-x,5/6+z
1/3+x,2/3+y,2/3+z
1/3-y,2/3+x-y,2/3+z
1/3-x+y,2/3-x,2/3+z
1/3+x-y,2/3-y,1/6-z
1/3-x,2/3-x+y,1/6-z
1/3+y,2/3+x,1/6-z
1/3-x,2/3-y,2/3-z
1/3+y,2/3-x+y,2/3-z
1/3+x-y,2/3+x,2/3-z
1/3-x+y,2/3+y,1/6+z
1/3+x,2/3+x-y,1/6+z
1/3-y,2/3-x,1/6+z
loop_
_atom_site_type_symbol
_atom_site_label
_atom_site_fract_x
_atom_site_fract_y
_atom_site_fract_z
Si Si1 0.333334 0.388458 0.416667
Si Si2 0.667622 0.161859 0.179000
Si Si3 0.903217 0.419071 0.359164
Si Si4 0.774053 0.029629 0.026714
Si Si5 0.005688 0.672355 0.583334
Si Si6 0.569593 0.163071 0.093065
Si Si7 0.107609 0.796393 0.280576
O O1 0.335426 0.434133 0.355573
O O2 0.269081 0.317186 0.425887
O O3 0.702578 0.178155 0.249665
O O4 0.599143 0.157619 0.163019
O O5 0.714652 0.219746 0.131416
O O6 0.897518 0.483131 0.353649
O O7 0.897393 0.373539 0.298019
O O8 0.976053 0.450474 0.385569
O O9 0.734895 0.022632 0.959675
O O10 0.941095 0.653032 0.625181
O O11 0.551392 0.218058 0.083334
O O12 0.508758 0.094723 0.074452
O O13 0.166667 0.833334 0.333334
#
# Coordination Sequence:
#
# PCOD9579500 Si02
#       7
#    18  36  36  36  18  36  36
#     4  10  20  39  68 102 123 170 204 268 338 400
#     4  10  22  39  67  88 132 164 205 269 335 376
#     4  11  24  44  59  91 130 181 211 266 318 389
#     4  11  25  39  66  90 134 170 225 263 322 392
#     4  10  24  39  60 102 131 168 214 264 314 410
#     4  10  20  38  62 101 119 156 207 267 324 389
#     4  11  20  35  65  90 131 165 200 254 328 390
#
# _framework density 21.579408999999998
#
# number of rings (size 3 to 8) (size 9 to 14) (size 15 to 20)
#    0.000    1.667    2.500    4.000    4.667    0.667 
#    7.000    0.000    0.000    0.333    0.000    0.000 
#    0.000    0.000    0.000    0.000    0.000    0.000 
#
# Total GULP energy -400961.321722 kJ/mol
# GULP energy per Si atom -5568.907246 kJ/mol
# Density = 2.153029 g / cm^3
# Si number density = 21.579409 Si / 1000 Ang^3
#
#
#
# Elastic Constant Matrix: (Units=GPa)
#
#
# Indices 1 2 3 4 5 6 
#
# 1 120.4459 81.4736 36.4525 0.9318 -0.0001 0.0000
# 2 81.4736 120.4459 36.4525 -0.9318 0.0001 0.0000
# 3 36.4525 36.4525 60.3845 0.0000 0.0000 0.0000
# 4 0.9318 -0.9318 0.0000 23.2616 0.0000 0.0001
# 5 -0.0001 0.0001 0.0000 0.0000 23.2616 0.9318
# 6 0.0000 0.0000 0.0000 0.0001 0.9318 19.4861
#
#
#
# Elastic Compliance Matrix: (Units=1/GPa)
#
#
# Indices 1 2 3 4 5 6 
#
# 1 0.016021 -0.009688 -0.003823 -0.001030 0.000000 0.000000
# 2 -0.009688 0.016021 -0.003823 0.001030 0.000000 0.000000
# 3 -0.003823 -0.003823 0.021176 0.000000 0.000000 0.000000
# 4 -0.001030 0.001030 0.000000 0.043072 0.000000 0.000000
# 5 0.000000 0.000000 0.000000 0.000000 0.043072 -0.002060
# 6 0.000000 0.000000 0.000000 0.000000 -0.002060 0.051417
#
#
# Mechanical properties :
#
#
# Convention : Reuss Voigt Hill
#
# Bulk Modulus (GPa) = 53.90843 67.78152 60.84498
# Shear Modulus (GPa) = 21.58627 22.99505 22.29066
#
# Velocity S-wave (km/s) = 3.16621 3.26790 3.21746
# Velocity P-wave (km/s) = 6.19695 6.76146 6.48535
#
# Compressibility (1/GPa) = 0.01854997
#
# Stress axis : x y z
#
# Youngs Moduli (GPa) = 62.41945 62.41945 47.22297
#
# Poissons Ratio (x) = 0.60471 0.18053
# Poissons Ratio (y) = 0.60471 0.18053
# Poissons Ratio (z) = 0.23863 0.23863
#
# Static dielectric constant tensor:
#      x y z
#    x 1.988880 0.000000 0.000000 
#    y 0.000000 1.988880 0.000000 
#    z 0.000000 0.000000 1.934080 
# 
# From -- ./inp_files/5571.got.cif
#   From: 2010.05.17/outbox.cif.g08.bks.cpg/sg167_3_cif.got.tgz:5571.got - 2010.05.20 11:09:15.
