data_PCOD9579849
_publ_section_title
;
Structure prediction by ZEFSAII (Michael W. Deem and Ramdas Pophale) SiO2 
 PCOD9579849
Probable space group: P 61
;
_chemical_formula_sum "Si O2"
_cell_formula_units_Z 48
_cell_length_a 15.866646
_cell_length_b 15.866646
_cell_length_c 12.131049
_cell_angle_alpha 90.000000
_cell_angle_beta 90.000000
_cell_angle_gamma 120.000000
_cell_volume 2644.839079
_symmetry_space_group_name_H-M "P 61"
_symmetry_group_IT_number 169
_symmetry_cell_setting 'hexagonal'
loop_
_space_group_symop_operation_xyz
x,y,z
x-y,x,1/6+z
-y,x-y,1/3+z
-x,-y,1/2+z
-x+y,-x,2/3+z
y,-x+y,5/6+z
loop_
_atom_site_type_symbol
_atom_site_label
_atom_site_fract_x
_atom_site_fract_y
_atom_site_fract_z
Si Si1 0.244410 0.543151 0.619100
Si Si2 0.079031 0.584676 0.564261
Si Si3 0.755710 0.624626 0.236004
Si Si4 0.331241 0.372730 0.113028
Si Si5 0.099268 0.546640 0.936688
Si Si6 0.388493 0.655556 0.426425
Si Si7 0.381045 0.233532 0.978254
Si Si8 0.082173 0.347669 0.894679
O O1 0.148792 0.541483 0.576640
O O2 0.221009 0.436382 0.650526
O O3 0.326131 0.587011 0.525309
O O4 0.281464 0.621211 0.719919
O O5 0.110684 0.655297 0.459839
O O6 0.085150 0.649145 0.668248
O O7 0.969279 0.501398 0.543285
O O8 0.730857 0.704488 0.193263
O O9 0.837803 0.663984 0.329231
O O10 0.403574 0.454243 0.199718
O O11 0.222503 0.340299 0.154877
O O12 0.354628 0.288516 0.073562
O O13 0.099511 0.456679 0.873923
O O14 0.206284 0.613363 0.986109
O O15 0.501765 0.718377 0.462119
O O16 0.343252 0.249957 0.860075
#
# Coordination Sequence:
#
# PCOD9579849 Si02
#       8
#     6   6   6   6   6   6   6   6
#     4  12  23  33  54  79 119 157 206 238 286 340
#     4  11  20  37  51  78 114 153 193 236 283 346
#     4  11  21  35  58  80 116 155 194 251 290 356
#     4  12  21  38  59  81 119 154 197 252 306 355
#     4  10  23  34  55  79 115 157 199 235 288 355
#     4  11  22  34  51  81 111 162 206 244 283 346
#     4  11  21  34  58  80 116 154 194 253 302 356
#     4  10  19  37  52  82 114 152 197 243 300 346
#
# _framework density 18.148551999999999
#
# number of rings (size 3 to 8) (size 9 to 14) (size 15 to 20)
#    0.000    1.000    7.500    2.250    3.500    2.000 
#    0.000    0.000    0.000    0.000    0.000    0.000 
#   18.750    0.000    0.000    0.000    0.000    0.000 
#
# Total GULP energy -267887.405035 kJ/mol
# GULP energy per Si atom -5580.987605 kJ/mol
# Density = 1.810725 g / cm^3
# Si number density = 18.148552 Si / 1000 Ang^3
#
#
#
# Elastic Constant Matrix: (Units=GPa)
#
#
# Indices 1 2 3 4 5 6 
#
# 1 72.6190 29.7557 10.3425 0.0000 0.0000 0.0000
# 2 29.7557 72.6190 10.3425 0.0000 0.0000 0.0000
# 3 10.3425 10.3425 26.8922 0.0000 0.0000 0.0000
# 4 0.0000 0.0000 0.0000 25.8179 0.0000 0.0000
# 5 0.0000 0.0000 0.0000 0.0000 25.8179 0.0000
# 6 0.0000 0.0000 0.0000 0.0000 0.0000 21.4316
#
#
#
# Elastic Compliance Matrix: (Units=1/GPa)
#
#
# Indices 1 2 3 4 5 6 
#
# 1 0.016961 -0.006369 -0.004073 0.000000 0.000000 0.000000
# 2 -0.006369 0.016961 -0.004073 0.000000 0.000000 0.000000
# 3 -0.004073 -0.004073 0.040319 0.000000 0.000000 0.000000
# 4 0.000000 0.000000 0.000000 0.038733 0.000000 0.000000
# 5 0.000000 0.000000 0.000000 0.000000 0.038733 0.000000
# 6 0.000000 0.000000 0.000000 0.000000 0.000000 0.046660
#
#
# Mechanical properties :
#
#
# Convention : Reuss Voigt Hill
#
# Bulk Modulus (GPa) = 22.12008 30.33462 26.22735
# Shear Modulus (GPa) = 20.62140 22.72610 21.67375
#
# Velocity S-wave (km/s) = 3.37450 3.54252 3.45953
# Velocity P-wave (km/s) = 5.23429 5.78649 5.51730
#
# Compressibility (1/GPa) = 0.04520779
#
# Stress axis : x y z
#
# Youngs Moduli (GPa) = 58.96043 58.96043 24.80244
#
# Poissons Ratio (x) = 0.37555 0.10103
# Poissons Ratio (y) = 0.37555 0.10103
# Poissons Ratio (z) = 0.24016 0.24016
#
# Static dielectric constant tensor:
#      x y z
#    x 1.650180 0.000000 0.000000 
#    y 0.000000 1.650180 0.000000 
#    z 0.000000 0.000000 1.655960 
# 
# From -- ./inp_files/1063.got.cif
#   From: 2010.05.17/outbox.cif.g08.bks.cpg/sg169_cif.got.tgz:1063.got - 2010.05.20 11:12:54.
