data_PCOD9579812
_publ_section_title
;
Structure prediction by ZEFSAII (Michael W. Deem and Ramdas Pophale) SiO2 
 PCOD9579812
Probable space group: P 61
;
_chemical_formula_sum "Si O2"
_cell_formula_units_Z 36
_cell_length_a 8.929752
_cell_length_b 8.929752
_cell_length_c 23.767295
_cell_angle_alpha 90.000000
_cell_angle_beta 90.000000
_cell_angle_gamma 120.000000
_cell_volume 1641.304589
_symmetry_space_group_name_H-M "P 61"
_symmetry_group_IT_number 169
_symmetry_cell_setting 'hexagonal'
loop_
_space_group_symop_operation_xyz
x,y,z
x-y,x,1/6+z
-y,x-y,1/3+z
-x,-y,1/2+z
-x+y,-x,2/3+z
y,-x+y,5/6+z
loop_
_atom_site_type_symbol
_atom_site_label
_atom_site_fract_x
_atom_site_fract_y
_atom_site_fract_z
Si Si1 0.206164 0.603126 0.508610
Si Si2 0.730324 0.820660 0.773904
Si Si3 0.269574 0.090357 0.743304
Si Si4 0.400697 0.200205 0.575285
Si Si5 0.923974 0.076114 0.341937
Si Si6 0.599294 0.799385 0.941943
O O1 0.102392 0.422047 0.477222
O O2 0.285192 0.727895 0.453870
O O3 0.285090 0.557314 0.563361
O O4 0.102401 0.680471 0.539981
O O5 0.761314 0.747732 0.715912
O O6 0.906472 0.883430 0.807518
O O7 0.713082 0.991858 0.766250
O O8 0.238602 0.986416 0.801292
O O9 0.093412 0.977002 0.709695
O O10 0.286837 0.278800 0.750965
O O11 0.446859 0.223507 0.508614
O O12 0.280436 0.280490 0.591952
#
# Coordination Sequence:
#
# PCOD9579812 Si02
#       6
#     6   6   6   6   6   6
#     4  12  24  36  67 107 142 180 236 318 350 413
#     4  11  18  37  66 105 130 181 243 290 343 422
#     4  11  18  37  66 105 130 181 243 290 343 422
#     4  12  21  43  72 103 139 191 248 293 362 447
#     4  10  18  36  73  99 128 180 244 284 336 451
#     4  12  21  43  72 103 139 191 248 293 362 447
#
# _framework density 21.933772999999999
#
# number of rings (size 3 to 8) (size 9 to 14) (size 15 to 20)
#    0.000    0.667   11.667    0.000    0.000    0.000 
#    3.000    1.667    7.333    0.000    0.000    0.000 
#    0.000    0.000    0.000    0.000    0.000    0.000 
#
# Total GULP energy -200571.392588 kJ/mol
# GULP energy per Si atom -5571.427572 kJ/mol
# Density = 2.188385 g / cm^3
# Si number density = 21.933773 Si / 1000 Ang^3
#
#
#
# Elastic Constant Matrix: (Units=GPa)
#
#
# Indices 1 2 3 4 5 6 
#
# 1 52.0567 19.7673 29.9262 0.0000 0.0000 0.0000
# 2 19.7673 52.0567 29.9262 0.0000 0.0000 0.0000
# 3 29.9262 29.9262 169.5662 0.0000 0.0000 0.0000
# 4 0.0000 0.0000 0.0000 25.5399 0.0000 0.0000
# 5 0.0000 0.0000 0.0000 0.0000 25.5399 0.0000
# 6 0.0000 0.0000 0.0000 0.0000 0.0000 16.1447
#
#
#
# Elastic Compliance Matrix: (Units=1/GPa)
#
#
# Indices 1 2 3 4 5 6 
#
# 1 0.023647 -0.007323 -0.002881 0.000000 0.000000 0.000000
# 2 -0.007323 0.023647 -0.002881 0.000000 0.000000 0.000000
# 3 -0.002881 -0.002881 0.006914 0.000000 0.000000 0.000000
# 4 0.000000 0.000000 0.000000 0.039154 0.000000 0.000000
# 5 0.000000 0.000000 0.000000 0.000000 0.039154 0.000000
# 6 0.000000 0.000000 0.000000 0.000000 0.000000 0.061940
#
#
# Mechanical properties :
#
#
# Convention : Reuss Voigt Hill
#
# Bulk Modulus (GPa) = 35.66597 48.10212 41.88405
# Shear Modulus (GPa) = 21.74173 26.38221 24.06197
#
# Velocity S-wave (km/s) = 3.15182 3.47192 3.31573
# Velocity P-wave (km/s) = 5.43519 6.16851 5.81343
#
# Compressibility (1/GPa) = 0.02803793
#
# Stress axis : x y z
#
# Youngs Moduli (GPa) = 42.28903 42.28903 144.62803
#
# Poissons Ratio (x) = 0.30969 0.41666
# Poissons Ratio (y) = 0.30969 0.41666
# Poissons Ratio (z) = 0.12183 0.12183
#
# Static dielectric constant tensor:
#      x y z
#    x 1.789100 0.000000 0.000000 
#    y 0.000000 1.789100 0.000000 
#    z 0.000000 0.000000 1.982230 
# 
# From -- ./inp_files/1735.got.cif
#   From: 2010.05.17/outbox.cif.g08.bks.cpg/sg169_cif.got.tgz:1735.got - 2010.05.20 11:12:54.
