data_PCOD9579220
_publ_section_title
;
Structure prediction by ZEFSAII (Michael W. Deem and Ramdas Pophale) SiO2 
 PCOD9579220
Probable space group: R -3 M
;
_chemical_formula_sum "Si O2"
_cell_formula_units_Z 216
_cell_length_a 22.907670
_cell_length_b 22.907670
_cell_length_c 24.485937
_cell_angle_alpha 90.000000
_cell_angle_beta 90.000000
_cell_angle_gamma 120.000000
_cell_volume 11127.797037
_symmetry_space_group_name_H-M "R -3 M"
_symmetry_group_IT_number 166
_symmetry_cell_setting 'hexagonal'
loop_
_space_group_symop_operation_xyz
x,y,z
-y,x-y,z
-x+y,-x,z
x-y,-y,-z
-x,-x+y,-z
y,x,-z
-x,-y,-z
y,-x+y,-z
x-y,x,-z
-x+y,y,z
x,x-y,z
-y,-x,z
2/3+x,1/3+y,1/3+z
2/3-y,1/3+x-y,1/3+z
2/3-x+y,1/3-x,1/3+z
2/3+x-y,1/3-y,1/3-z
2/3-x,1/3-x+y,1/3-z
2/3+y,1/3+x,1/3-z
2/3-x,1/3-y,1/3-z
2/3+y,1/3-x+y,1/3-z
2/3+x-y,1/3+x,1/3-z
2/3-x+y,1/3+y,1/3+z
2/3+x,1/3+x-y,1/3+z
2/3-y,1/3-x,1/3+z
1/3+x,2/3+y,2/3+z
1/3-y,2/3+x-y,2/3+z
1/3-x+y,2/3-x,2/3+z
1/3+x-y,2/3-y,2/3-z
1/3-x,2/3-x+y,2/3-z
1/3+y,2/3+x,2/3-z
1/3-x,2/3-y,2/3-z
1/3+y,2/3-x+y,2/3-z
1/3+x-y,2/3+x,2/3-z
1/3-x+y,2/3+y,2/3+z
1/3+x,2/3+x-y,2/3+z
1/3-y,2/3-x,2/3+z
loop_
_atom_site_type_symbol
_atom_site_label
_atom_site_fract_x
_atom_site_fract_y
_atom_site_fract_z
Si Si1 0.486137 0.842720 0.925788
Si Si2 0.537348 0.332957 0.196693
Si Si3 0.191990 0.244720 0.950386
Si Si4 0.961719 0.325525 0.606445
Si Si5 0.389158 0.917928 0.119818
Si Si6 0.126388 0.998800 0.622181
O O1 0.437557 0.875114 0.925798
O O2 0.475020 0.806890 0.867900
O O3 0.562453 0.898102 0.933236
O O4 0.464802 0.796504 0.979120
O O5 0.565285 0.282643 0.208515
O O6 0.591556 0.408445 0.212567
O O7 0.469984 0.305817 0.231133
O O8 0.129605 0.259209 0.962308
O O9 0.265077 0.308672 0.936564
O O10 0.205952 0.205952 0.000000
O O11 0.966286 0.299619 0.666667
O O12 0.952507 0.267449 0.563717
O O13 0.465952 0.931903 0.131826
O O14 0.333334 0.877838 0.166667
O O15 0.363403 0.867433 0.068255
O O16 0.101715 0.050858 0.605889
O O17 0.075322 0.924679 0.601334
#
# Coordination Sequence:
#
# PCOD9579220 Si02
#       6
#    36  36  36  36  36  36
#     4  10  21  36  57  86 120 159 203 252 306 365
#     4  10  21  38  61  89 120 155 198 249 307 371
#     4  10  23  42  63  90 124 161 204 254 312 377
#     4  11  23  42  62  90 120 161 207 252 310 361
#     4  11  24  41  63  92 127 165 212 259 307 370
#     4  10  20  36  58  86 121 161 206 255 308 364
#
# _framework density 19.410848999999999
#
# number of rings (size 3 to 8) (size 9 to 14) (size 15 to 20)
#    0.000    1.667    1.667    2.333    2.333    2.000 
#    0.000    5.000    0.000    5.333    0.000    0.000 
#    0.000    0.000    0.000    0.000    0.000    0.000 
#
# Total GULP energy -401254.101385 kJ/mol
# GULP energy per Si atom -5572.973630 kJ/mol
# Density = 1.936667 g / cm^3
# Si number density = 19.410849 Si / 1000 Ang^3
#
#
#
# Elastic Constant Matrix: (Units=GPa)
#
#
# Indices 1 2 3 4 5 6 
#
# 1 97.9814 56.8522 18.9704 -2.1950 -0.0001 0.0000
# 2 56.8522 97.9814 18.9704 2.1950 0.0001 0.0000
# 3 18.9704 18.9704 55.2764 0.0000 0.0000 0.0000
# 4 -2.1950 2.1950 0.0000 23.8999 0.0000 0.0001
# 5 -0.0001 0.0001 0.0000 0.0000 23.8999 -2.1950
# 6 0.0000 0.0000 0.0000 0.0001 -2.1950 20.5646
#
#
#
# Elastic Compliance Matrix: (Units=1/GPa)
#
#
# Indices 1 2 3 4 5 6 
#
# 1 0.015803 -0.008751 -0.002420 0.002255 0.000000 0.000000
# 2 -0.008751 0.015803 -0.002420 -0.002255 0.000000 0.000000
# 3 -0.002420 -0.002420 0.019752 0.000000 0.000000 0.000000
# 4 0.002255 -0.002255 0.000000 0.042255 0.000000 0.000000
# 5 0.000000 0.000000 0.000000 0.000000 0.042255 0.004510
# 6 0.000000 0.000000 0.000000 0.000000 0.004510 0.049109
#
#
# Mechanical properties :
#
#
# Convention : Reuss Voigt Hill
#
# Bulk Modulus (GPa) = 41.36514 48.98060 45.17287
# Shear Modulus (GPa) = 22.70469 24.10260 23.40364
#
# Velocity S-wave (km/s) = 3.42378 3.52761 3.47608
# Velocity P-wave (km/s) = 6.08164 6.47151 6.27960
#
# Compressibility (1/GPa) = 0.02417494
#
# Stress axis : x y z
#
# Youngs Moduli (GPa) = 63.27929 63.27929 50.62779
#
# Poissons Ratio (x) = 0.55378 0.12252
# Poissons Ratio (y) = 0.55378 0.12252
# Poissons Ratio (z) = 0.15314 0.15314
#
# Static dielectric constant tensor:
#      x y z
#    x 1.686510 0.000000 0.000000 
#    y 0.000000 1.686510 0.000000 
#    z 0.000000 0.000000 1.677340 
# 
# From -- ./inp_files/8420.got.cif
#   From: 2010.05.17/outbox.cif.g08.bks.cpg/sg166_5_cif.got.tgz:8420.got - 2010.05.20 11:04:41.
