data_PCOD9579013
_publ_section_title
;
Structure prediction by ZEFSAII (Michael W. Deem and Ramdas Pophale) SiO2 
 PCOD9579013
Probable space group: P -3 C 1
;
_chemical_formula_sum "Si O2"
_cell_formula_units_Z 66
_cell_length_a 21.000000
_cell_length_b 21.000000
_cell_length_c 9.000000
_cell_angle_alpha 90.000000
_cell_angle_beta 90.000000
_cell_angle_gamma 120.000000
_cell_volume 3437.254828
_symmetry_space_group_name_H-M "P -3 C 1"
_symmetry_group_IT_number 165
_symmetry_cell_setting 'hexagonal'
loop_
_space_group_symop_operation_xyz
x,y,z
-y,x-y,z
-x+y,-x,z
x-y,-y,1/2-z
-x,-x+y,1/2-z
y,x,1/2-z
-x,-y,-z
y,-x+y,-z
x-y,x,-z
-x+y,y,1/2+z
x,x-y,1/2+z
-y,-x,1/2+z
loop_
_atom_site_type_symbol
_atom_site_label
_atom_site_fract_x
_atom_site_fract_y
_atom_site_fract_z
Si Si1 0.121989 0.476864 0.353321
Si Si2 0.689252 0.806550 0.049745
Si Si3 0.407437 0.912503 0.694142
Si Si4 0.681894 0.681894 0.250000
Si Si5 0.419420 0.235986 0.215181
Si Si6 0.146523 0.042113 0.582376
O O1 0.103215 0.495451 0.517270
O O2 0.113360 0.534821 0.247758
O O3 0.058056 0.393369 0.327437
O O4 0.194812 0.467880 0.318604
O O5 0.702270 0.748133 0.138579
O O6 0.646504 0.833403 0.164787
O O7 0.625791 0.768460 0.929822
O O8 0.766446 0.856320 0.962049
O O9 0.323360 0.857619 0.750868
O O10 0.443447 0.000000 0.750000
O O11 0.121340 0.102000 0.546091
O O12 0.127494 0.000000 0.750000
#
# Coordination Sequence:
#
# PCOD9579013 Si02
#       6
#    12  12  12   6  12  12
#     4  11  25  43  69 105 143 188 230 292 351 424
#     4  11  25  44  72 100 143 188 238 302 362 436
#     4  12  25  43  75 108 143 190 239 293 356 426
#     4  10  24  42  70 100 142 178 236 296 350 426
#     4  11  25  46  70 105 149 187 243 298 364 425
#     4  12  28  46  71 101 140 190 244 305 370 442
#
# _framework density 19.201370000000001
#
# number of rings (size 3 to 8) (size 9 to 14) (size 15 to 20)
#    0.000    0.727    2.727    3.455   12.727    3.636 
#    1.091    0.000    0.000    0.000    0.000    0.000 
#    0.000    0.000    0.000    0.000    0.000    0.000 
#
# Total GULP energy -367432.982307 kJ/mol
# GULP energy per Si atom -5567.166399 kJ/mol
# Density = 1.915767 g / cm^3
# Si number density = 19.201370 Si / 1000 Ang^3
#
#
#
# Elastic Constant Matrix: (Units=GPa)
#
#
# Indices 1 2 3 4 5 6 
#
# 1 97.7632 30.6873 -7.5994 -11.3695 0.0000 0.0000
# 2 30.6873 97.7632 -7.5994 11.3695 0.0000 0.0000
# 3 -7.5994 -7.5994 72.6402 0.0000 0.0000 0.0000
# 4 -11.3695 11.3695 0.0000 30.1421 0.0000 0.0000
# 5 0.0000 0.0000 0.0000 0.0000 30.1421 -11.3695
# 6 0.0000 0.0000 0.0000 0.0000 -11.3695 33.5379
#
#
#
# Elastic Compliance Matrix: (Units=1/GPa)
#
#
# Indices 1 2 3 4 5 6 
#
# 1 0.012489 -0.004606 0.000825 0.006448 0.000000 0.000000
# 2 -0.004606 0.012489 0.000825 -0.006448 0.000000 0.000000
# 3 0.000825 0.000825 0.013939 0.000000 0.000000 0.000000
# 4 0.006448 -0.006448 0.000000 0.038040 0.000000 0.000000
# 5 0.000000 0.000000 0.000000 0.000000 0.038040 0.012896
# 6 0.000000 0.000000 0.000000 0.000000 0.012896 0.034189
#
#
# Mechanical properties :
#
#
# Convention : Reuss Voigt Hill
#
# Bulk Modulus (GPa) = 30.30026 33.23819 31.76922
# Shear Modulus (GPa) = 30.10239 35.60962 32.85601
#
# Velocity S-wave (km/s) = 3.96374 4.31110 4.14107
# Velocity P-wave (km/s) = 6.06324 6.49066 6.28059
#
# Compressibility (1/GPa) = 0.03300301
#
# Stress axis : x y z
#
# Youngs Moduli (GPa) = 80.07355 80.07355 71.74102
#
# Poissons Ratio (x) = 0.36881 -0.05916
# Poissons Ratio (y) = 0.36881 -0.05916
# Poissons Ratio (z) = -0.06603 -0.06603
#
# Static dielectric constant tensor:
#      x y z
#    x 1.700120 0.000000 0.000000 
#    y 0.000000 1.700120 0.000000 
#    z 0.000000 0.000000 1.782000 
# 
# From -- ./inp_files/693.got.cif
#   From: 2010.05.17/outbox.ucp.g08.bks.cvg/sg165_1_cif.got.tgz:693.got - 2010.06.11 15:16:31.
