data_PCOD9579452
_publ_section_title
;
Structure prediction by ZEFSAII (Michael W. Deem and Ramdas Pophale) SiO2 
 PCOD9579452
Probable space group: R -3 C 
;
_chemical_formula_sum "Si O2"
_cell_formula_units_Z 252
_cell_length_a 27.421696
_cell_length_b 27.421696
_cell_length_c 18.644944
_cell_angle_alpha 90.000000
_cell_angle_beta 90.000000
_cell_angle_gamma 120.000000
_cell_volume 12141.723505
_symmetry_space_group_name_H-M "R -3 C "
_symmetry_group_IT_number 167
_symmetry_cell_setting 'hexagonal'
loop_
_space_group_symop_operation_xyz
x,y,z
-y,x-y,z
-x+y,-x,z
x-y,-y,1/2-z
-x,-x+y,1/2-z
y,x,1/2-z
-x,-y,-z
y,-x+y,-z
x-y,x,-z
-x+y,y,1/2+z
x,x-y,1/2+z
-y,-x,1/2+z
2/3+x,1/3+y,1/3+z
2/3-y,1/3+x-y,1/3+z
2/3-x+y,1/3-x,1/3+z
2/3+x-y,1/3-y,5/6-z
2/3-x,1/3-x+y,5/6-z
2/3+y,1/3+x,5/6-z
2/3-x,1/3-y,1/3-z
2/3+y,1/3-x+y,1/3-z
2/3+x-y,1/3+x,1/3-z
2/3-x+y,1/3+y,5/6+z
2/3+x,1/3+x-y,5/6+z
2/3-y,1/3-x,5/6+z
1/3+x,2/3+y,2/3+z
1/3-y,2/3+x-y,2/3+z
1/3-x+y,2/3-x,2/3+z
1/3+x-y,2/3-y,1/6-z
1/3-x,2/3-x+y,1/6-z
1/3+y,2/3+x,1/6-z
1/3-x,2/3-y,2/3-z
1/3+y,2/3-x+y,2/3-z
1/3+x-y,2/3+x,2/3-z
1/3-x+y,2/3+y,1/6+z
1/3+x,2/3+x-y,1/6+z
1/3-y,2/3-x,1/6+z
loop_
_atom_site_type_symbol
_atom_site_label
_atom_site_fract_x
_atom_site_fract_y
_atom_site_fract_z
Si Si1 0.632910 0.719096 0.730939
Si Si2 0.545850 0.781663 0.248032
Si Si3 0.891538 0.666667 0.416667
Si Si4 0.516598 0.068884 0.669746
Si Si5 0.666667 0.923835 0.583334
Si Si6 0.618647 0.847240 0.856789
Si Si7 0.942367 0.876283 0.969243
Si Si8 0.679473 0.472859 0.501054
O O1 0.591891 0.744948 0.738840
O O2 0.656852 0.737170 0.651832
O O3 0.600365 0.652563 0.738077
O O4 0.683308 0.753832 0.788128
O O5 0.572734 0.750941 0.293771
O O6 0.518869 0.754377 0.171917
O O7 0.498286 0.784624 0.295825
O O8 0.882396 0.719319 0.396300
O O9 0.452734 0.017585 0.682943
O O10 0.547931 0.070657 0.596123
O O11 0.513938 0.126133 0.670554
O O12 0.666667 0.833334 0.833334
O O13 0.953638 0.880264 0.884545
O O14 0.907448 0.905641 0.990860
O O15 0.666667 0.453947 0.583334
#
# Coordination Sequence:
#
# PCOD9579452 Si02
#       8
#    36  36  18  36  18  36  36  36
#     4  10  20  38  53  85 128 159 215 256 316 371
#     4  10  19  38  62  87 121 163 212 252 312 393
#     4   9  20  36  54  76 120 174 200 256 315 374
#     4  10  19  36  61  84 120 160 213 260 312 366
#     4  11  22  36  58  96 122 166 212 268 313 366
#     4   9  19  36  58  81 115 167 203 261 314 365
#     4  10  23  42  67  97 128 162 202 264 331 390
#     4  11  20  36  65  95 119 158 213 267 306 376
#
# _framework density 20.754878000000001
#
# number of rings (size 3 to 8) (size 9 to 14) (size 15 to 20)
#    0.000    2.000    2.857    1.000    0.000    1.143 
#    6.429    5.714    0.000    0.000    0.000    0.000 
#    0.000    0.000    0.000    0.000    0.000    0.000 
#
# Total GULP energy -468119.335579 kJ/mol
# GULP energy per Si atom -5572.849233 kJ/mol
# Density = 2.070764 g / cm^3
# Si number density = 20.754878 Si / 1000 Ang^3
#
#
#
# Elastic Constant Matrix: (Units=GPa)
#
#
# Indices 1 2 3 4 5 6 
#
# 1 22.7295 22.2721 13.3158 -2.9967 -0.0001 0.0000
# 2 22.2721 22.7295 13.3158 2.9967 0.0001 0.0000
# 3 13.3158 13.3158 87.9951 0.0000 0.0000 0.0000
# 4 -2.9967 2.9967 0.0000 14.8045 0.0000 0.0001
# 5 -0.0001 0.0001 0.0000 0.0000 14.8045 -2.9967
# 6 0.0000 0.0000 0.0000 0.0001 -2.9967 0.2287
#
#
#
# Elastic Compliance Matrix: (Units=1/GPa)
#
#
# Indices 1 2 3 4 5 6 
#
# 1 -0.649351 0.673758 -0.003693 -0.267822 -0.000009 0.000000
# 2 0.673758 -0.649351 -0.003693 0.267822 0.000009 0.000000
# 3 -0.003693 -0.003693 0.012482 0.000000 0.000000 0.000000
# 4 -0.267822 0.267822 0.000000 -0.040877 0.000000 0.000018
# 5 -0.000009 0.000009 0.000000 0.000000 -0.040877 -0.535643
# 6 0.000000 0.000000 0.000000 0.000018 -0.535643 -2.646217
#
#
# Mechanical properties :
#
#
# Convention : Reuss Voigt Hill
#
# Bulk Modulus (GPa) = 21.49484 25.69572 23.59528
# Shear Modulus (GPa) = -0.93784 11.60424 5.33320
#
# Velocity S-wave (km/s) = -0.67294 2.36711 1.60474
# Velocity P-wave (km/s) = 3.12653 4.45852 3.85056
#
# Compressibility (1/GPa) = 0.04652280
#
# Stress axis : x y z
#
# Youngs Moduli (GPa) = -1.54000 -1.54000 80.11496
#
# Poissons Ratio (x) = 1.03759 0.29590
# Poissons Ratio (y) = 1.03759 0.29590
# Poissons Ratio (z) = -0.00569 -0.00569
#
# Static dielectric constant tensor:
#      x y z
#    x 1.763550 0.000000 0.000000 
#    y 0.000000 1.763550 0.000000 
#    z 0.000000 0.000000 1.758180 
# 
# From -- ./inp_files/3740.got.cif
#   From: 2010.05.17/outbox.cif.g08.bks.cpg/sg167_2_cif.got.tgz:3740.got - 2010.05.20 11:09:15.
