data_PCOD9579959
_publ_section_title
;
Structure prediction by ZEFSAII (Michael W. Deem and Ramdas Pophale) SiO2 
 PCOD9579959
Probable space group: P 61
;
_chemical_formula_sum "Si O2"
_cell_formula_units_Z 48
_cell_length_a 17.397021
_cell_length_b 17.397021
_cell_length_c 9.406445
_cell_angle_alpha 90.000000
_cell_angle_beta 90.000000
_cell_angle_gamma 120.000000
_cell_volume 2465.505227
_symmetry_space_group_name_H-M "P 61"
_symmetry_group_IT_number 169
_symmetry_cell_setting 'hexagonal'
loop_
_space_group_symop_operation_xyz
x,y,z
x-y,x,1/6+z
-y,x-y,1/3+z
-x,-y,1/2+z
-x+y,-x,2/3+z
y,-x+y,5/6+z
loop_
_atom_site_type_symbol
_atom_site_label
_atom_site_fract_x
_atom_site_fract_y
_atom_site_fract_z
Si Si1 0.339674 0.046916 0.465900
Si Si2 0.212655 0.431945 0.063633
Si Si3 0.732421 0.022475 0.527233
Si Si4 0.785206 0.641240 0.867029
Si Si5 0.852813 0.997492 0.328659
Si Si6 0.127367 0.283603 0.827195
Si Si7 0.472095 0.411714 0.813561
Si Si8 0.063275 0.599192 0.741252
O O1 0.388467 0.098992 0.321675
O O2 0.330466 0.120096 0.556148
O O3 0.240413 0.963012 0.440983
O O4 0.383653 0.001991 0.558581
O O5 0.219682 0.418809 0.232755
O O6 0.316227 0.471988 0.019088
O O7 0.159251 0.340092 0.974620
O O8 0.151741 0.475888 0.031242
O O9 0.720954 0.943115 0.626836
O O10 0.782805 0.025021 0.382642
O O11 0.633427 0.994128 0.479231
O O12 0.790178 0.118172 0.596901
O O13 0.864667 0.943997 0.453544
O O14 0.810170 0.928526 0.199593
O O15 0.549003 0.467030 0.700505
O O16 0.464122 0.465308 0.948135
#
# Coordination Sequence:
#
# PCOD9579959 Si02
#       8
#     6   6   6   6   6   6   6   6
#     4  11  23  37  59  94 129 166 214 275 326 380
#     4  10  21  41  68  89 127 174 209 262 342 402
#     4  11  20  37  62  89 120 167 219 262 314 384
#     4  11  21  35  60  91 126 164 218 265 319 383
#     4  12  21  37  57  80 122 175 220 258 307 370
#     4  11  19  37  60  84 122 170 216 260 315 378
#     4  11  24  43  68 101 133 166 223 282 335 408
#     4  11  23  41  70  98 127 168 225 274 336 399
#
# _framework density 19.468627000000001
#
# number of rings (size 3 to 8) (size 9 to 14) (size 15 to 20)
#    0.000    1.000    7.500    0.750    3.500    0.000 
#    2.250    0.000    2.750    0.000    0.000    0.000 
#    0.000    0.000    0.000    0.000    0.000    0.000 
#
# Total GULP energy -267501.797093 kJ/mol
# GULP energy per Si atom -5572.954106 kJ/mol
# Density = 1.942432 g / cm^3
# Si number density = 19.468627 Si / 1000 Ang^3
#
#
#
# Elastic Constant Matrix: (Units=GPa)
#
#
# Indices 1 2 3 4 5 6 
#
# 1 68.8004 25.7040 35.0037 0.0000 0.0000 0.0000
# 2 25.7040 68.8004 35.0037 0.0000 0.0000 0.0000
# 3 35.0037 35.0037 95.1074 0.0000 0.0000 0.0000
# 4 0.0000 0.0000 0.0000 30.5412 0.0000 0.0000
# 5 0.0000 0.0000 0.0000 0.0000 30.5412 0.0000
# 6 0.0000 0.0000 0.0000 0.0000 0.0000 21.5482
#
#
#
# Elastic Compliance Matrix: (Units=1/GPa)
#
#
# Indices 1 2 3 4 5 6 
#
# 1 0.018876 -0.004328 -0.005354 0.000000 0.000000 0.000000
# 2 -0.004328 0.018876 -0.005354 0.000000 0.000000 0.000000
# 3 -0.005354 -0.005354 0.014456 0.000000 0.000000 0.000000
# 4 0.000000 0.000000 0.000000 0.032743 0.000000 0.000000
# 5 0.000000 0.000000 0.000000 0.000000 0.032743 0.000000
# 6 0.000000 0.000000 0.000000 0.000000 0.000000 0.046408
#
#
# Mechanical properties :
#
#
# Convention : Reuss Voigt Hill
#
# Bulk Modulus (GPa) = 45.17863 47.12564 46.15213
# Shear Modulus (GPa) = 24.80762 25.65928 25.23345
#
# Velocity S-wave (km/s) = 3.57352 3.63434 3.60406
# Velocity P-wave (km/s) = 6.34688 6.47068 6.40908
#
# Compressibility (1/GPa) = 0.02213436
#
# Stress axis : x y z
#
# Youngs Moduli (GPa) = 52.97786 52.97786 69.17729
#
# Poissons Ratio (x) = 0.22929 0.37039
# Poissons Ratio (y) = 0.22929 0.37039
# Poissons Ratio (z) = 0.28366 0.28366
#
# Static dielectric constant tensor:
#      x y z
#    x 1.693220 0.000000 0.000000 
#    y 0.000000 1.693220 0.000000 
#    z 0.000000 0.000000 1.756850 
# 
# From -- ./inp_files/764.got.cif
#   From: 2010.05.17/outbox.cif.g08.bks.cpg/sg169_cif.got.tgz:764.got - 2010.05.20 11:12:54.
