data_PCOD9579027
_publ_section_title
;
Structure prediction by ZEFSAII (Michael W. Deem and Ramdas Pophale) SiO2 
 PCOD9579027
Probable space group: R -3 M
;
_chemical_formula_sum "Si O2"
_cell_formula_units_Z 180
_cell_length_a 27.448017
_cell_length_b 27.448017
_cell_length_c 18.415313
_cell_angle_alpha 90.000000
_cell_angle_beta 90.000000
_cell_angle_gamma 120.000000
_cell_volume 12015.218821
_symmetry_space_group_name_H-M "R -3 M"
_symmetry_group_IT_number 166
_symmetry_cell_setting 'hexagonal'
loop_
_space_group_symop_operation_xyz
x,y,z
-y,x-y,z
-x+y,-x,z
x-y,-y,-z
-x,-x+y,-z
y,x,-z
-x,-y,-z
y,-x+y,-z
x-y,x,-z
-x+y,y,z
x,x-y,z
-y,-x,z
2/3+x,1/3+y,1/3+z
2/3-y,1/3+x-y,1/3+z
2/3-x+y,1/3-x,1/3+z
2/3+x-y,1/3-y,1/3-z
2/3-x,1/3-x+y,1/3-z
2/3+y,1/3+x,1/3-z
2/3-x,1/3-y,1/3-z
2/3+y,1/3-x+y,1/3-z
2/3+x-y,1/3+x,1/3-z
2/3-x+y,1/3+y,1/3+z
2/3+x,1/3+x-y,1/3+z
2/3-y,1/3-x,1/3+z
1/3+x,2/3+y,2/3+z
1/3-y,2/3+x-y,2/3+z
1/3-x+y,2/3-x,2/3+z
1/3+x-y,2/3-y,2/3-z
1/3-x,2/3-x+y,2/3-z
1/3+y,2/3+x,2/3-z
1/3-x,2/3-y,2/3-z
1/3+y,2/3-x+y,2/3-z
1/3+x-y,2/3+x,2/3-z
1/3-x+y,2/3+y,2/3+z
1/3+x,2/3+x-y,2/3+z
1/3-y,2/3-x,2/3+z
loop_
_atom_site_type_symbol
_atom_site_label
_atom_site_fract_x
_atom_site_fract_y
_atom_site_fract_z
Si Si1 0.927272 0.258530 0.064204
Si Si2 0.091550 0.490680 0.500068
Si Si3 0.553002 0.333334 0.333334
Si Si4 0.774005 0.662748 0.433025
Si Si5 0.848248 0.802683 0.863599
Si Si6 0.648276 0.666667 0.166667
O O1 0.872086 0.248654 0.107053
O O2 0.941172 0.211303 0.093236
O O3 0.977585 0.316975 0.097845
O O4 0.911567 0.248918 0.980495
O O5 0.108169 0.554085 0.511580
O O6 0.143297 0.482916 0.479178
O O7 0.559612 0.279806 0.313064
O O8 0.509404 0.313518 0.399826
O O9 0.840836 0.681672 0.437440
O O10 0.741824 0.595826 0.447638
O O11 0.744469 0.687617 0.486488
O O12 0.906592 0.813183 0.831428
#
# Coordination Sequence:
#
# PCOD9579027 Si02
#       6
#    36  36  18  36  36  18
#     4  10  18  30  45  71  92 121 152 196 235 281
#     4  10  17  28  43  65  91 115 151 200 238 271
#     4  10  19  28  38  54  80 118 159 198 234 278
#     4  11  20  33  50  68  94 128 161 194 238 292
#     4  10  19  28  40  59  84 117 152 189 235 282
#     4  10  20  32  49  72 104 126 159 200 244 278
#
# _framework density 14.981000999999999
#
# number of rings (size 3 to 8) (size 9 to 14) (size 15 to 20)
#    0.000    2.000    4.000    4.900    0.000    1.600 
#    0.000    0.000    0.000    4.000    0.000    0.000 
#    0.000    0.000    0.000    0.300    0.000    0.000 
#
# Total GULP energy -334064.748960 kJ/mol
# GULP energy per Si atom -5567.745816 kJ/mol
# Density = 1.494690 g / cm^3
# Si number density = 14.981001 Si / 1000 Ang^3
#
#
#
# Elastic Constant Matrix: (Units=GPa)
#
#
# Indices 1 2 3 4 5 6 
#
# 1 75.8103 54.0439 23.0018 -2.3958 -0.0002 0.0000
# 2 54.0439 75.8103 23.0018 2.3958 0.0002 0.0000
# 3 23.0018 23.0018 29.2843 0.0000 0.0000 0.0000
# 4 -2.3958 2.3958 0.0000 9.9241 0.0000 0.0002
# 5 -0.0002 0.0002 0.0000 0.0000 9.9241 -2.3958
# 6 0.0000 0.0000 0.0000 0.0002 -2.3958 10.8832
#
#
#
# Elastic Compliance Matrix: (Units=1/GPa)
#
#
# Indices 1 2 3 4 5 6 
#
# 1 0.029596 -0.018925 -0.008381 0.011714 0.000001 0.000000
# 2 -0.018925 0.029596 -0.008381 -0.011714 -0.000001 0.000000
# 3 -0.008381 -0.008381 0.047314 0.000000 0.000000 0.000000
# 4 0.011714 -0.011714 0.000000 0.106421 0.000000 -0.000002
# 5 0.000001 -0.000001 0.000000 0.000000 0.106421 0.023427
# 6 0.000000 0.000000 0.000000 -0.000002 0.023427 0.097042
#
#
# Mechanical properties :
#
#
# Convention : Reuss Voigt Hill
#
# Bulk Modulus (GPa) = 28.46556 42.33333 35.39945
# Shear Modulus (GPa) = 10.01054 11.53676 10.77365
#
# Velocity S-wave (km/s) = 2.58779 2.77806 2.68461
# Velocity P-wave (km/s) = 5.28878 6.21366 5.76978
#
# Compressibility (1/GPa) = 0.03513017
#
# Stress axis : x y z
#
# Youngs Moduli (GPa) = 33.78881 33.78881 21.13539
#
# Poissons Ratio (x) = 0.63947 0.17714
# Poissons Ratio (y) = 0.63947 0.17714
# Poissons Ratio (z) = 0.28318 0.28318
#
# Static dielectric constant tensor:
#      x y z
#    x 1.530740 0.000000 0.000000 
#    y 0.000000 1.530740 0.000000 
#    z 0.000000 0.000000 1.501390 
# 
# From -- ./inp_files/5677.got.cif
#   From: 2010.05.17/outbox.cif.g08.bks.cpg/sg166_3_cif.got.tgz:5677.got - 2010.05.20 11:04:41.
