data_PCOD9579085
_publ_section_title
;
Structure prediction by ZEFSAII (Michael W. Deem and Ramdas Pophale) SiO2 
 PCOD9579085
Probable space group: R -3 M
;
_chemical_formula_sum "Si O2"
_cell_formula_units_Z 234
_cell_length_a 27.056164
_cell_length_b 27.056164
_cell_length_c 23.999320
_cell_angle_alpha 90.000000
_cell_angle_beta 90.000000
_cell_angle_gamma 120.000000
_cell_volume 15214.651662
_symmetry_space_group_name_H-M "R -3 M"
_symmetry_group_IT_number 166
_symmetry_cell_setting 'hexagonal'
loop_
_space_group_symop_operation_xyz
x,y,z
-y,x-y,z
-x+y,-x,z
x-y,-y,-z
-x,-x+y,-z
y,x,-z
-x,-y,-z
y,-x+y,-z
x-y,x,-z
-x+y,y,z
x,x-y,z
-y,-x,z
2/3+x,1/3+y,1/3+z
2/3-y,1/3+x-y,1/3+z
2/3-x+y,1/3-x,1/3+z
2/3+x-y,1/3-y,1/3-z
2/3-x,1/3-x+y,1/3-z
2/3+y,1/3+x,1/3-z
2/3-x,1/3-y,1/3-z
2/3+y,1/3-x+y,1/3-z
2/3+x-y,1/3+x,1/3-z
2/3-x+y,1/3+y,1/3+z
2/3+x,1/3+x-y,1/3+z
2/3-y,1/3-x,1/3+z
1/3+x,2/3+y,2/3+z
1/3-y,2/3+x-y,2/3+z
1/3-x+y,2/3-x,2/3+z
1/3+x-y,2/3-y,2/3-z
1/3-x,2/3-x+y,2/3-z
1/3+y,2/3+x,2/3-z
1/3-x,2/3-y,2/3-z
1/3+y,2/3-x+y,2/3-z
1/3+x-y,2/3+x,2/3-z
1/3-x+y,2/3+y,2/3+z
1/3+x,2/3+x-y,2/3+z
1/3-y,2/3-x,2/3+z
loop_
_atom_site_type_symbol
_atom_site_label
_atom_site_fract_x
_atom_site_fract_y
_atom_site_fract_z
Si Si1 0.870030 0.377903 0.434473
Si Si2 0.000000 0.884852 0.000000
Si Si3 0.314752 0.923213 0.255615
Si Si4 0.559110 0.558041 0.435326
Si Si5 0.030026 0.457739 0.182692
Si Si6 0.564318 0.725067 0.484055
Si Si7 0.250876 0.258706 0.284084
O O1 0.870508 0.435254 0.454471
O O2 0.825337 0.351329 0.384566
O O3 0.853070 0.331039 0.481916
O O4 0.934577 0.399163 0.414682
O O5 0.945716 0.891431 0.985408
O O6 0.376988 0.949491 0.227582
O O7 0.269762 0.880172 0.210121
O O8 0.293661 0.968838 0.266579
O O9 0.315361 0.901790 0.317743
O O10 0.575984 0.575984 0.500000
O O11 0.495599 0.504402 0.435509
O O12 0.561800 0.608492 0.399349
O O13 0.044431 0.522216 0.194771
O O14 0.961401 0.419976 0.176631
O O15 0.546814 0.773407 0.485997
O O16 0.569886 0.707212 0.421696
#
# Coordination Sequence:
#
# PCOD9579085 Si02
#       7
#    36  18  36  36  36  36  36
#     4  10  20  33  49  69  94 123 159 200 241 283
#     4  10  21  36  52  70  94 126 163 204 244 282
#     4   9  19  31  46  69  93 124 156 187 229 275
#     4  10  19  30  46  68  95 127 157 191 237 284
#     4   9  18  32  49  67  93 125 156 191 228 273
#     4  10  19  31  49  69  91 121 157 196 234 277
#     4  10  19  31  47  68  96 124 156 192 232 283
#
# _framework density 15.379911999999999
#
# number of rings (size 3 to 8) (size 9 to 14) (size 15 to 20)
#    0.000    2.308    1.538    1.462    2.154    3.692 
#    0.000    6.154    0.000    0.308    0.000    0.000 
#    0.000    0.000    0.000   14.769    0.000    0.000 
#
# Total GULP energy -434731.994408 kJ/mol
# GULP energy per Si atom -5573.487108 kJ/mol
# Density = 1.534491 g / cm^3
# Si number density = 15.379912 Si / 1000 Ang^3
#
#
#
# Elastic Constant Matrix: (Units=GPa)
#
#
# Indices 1 2 3 4 5 6 
#
# 1 53.8512 13.1843 10.2340 0.9167 0.0000 0.0000
# 2 13.1843 53.8512 10.2340 -0.9167 0.0000 0.0000
# 3 10.2340 10.2340 49.4822 0.0000 0.0000 0.0000
# 4 0.9167 -0.9167 0.0000 16.3719 0.0000 0.0000
# 5 0.0000 0.0000 0.0000 0.0000 16.3719 0.9167
# 6 0.0000 0.0000 0.0000 0.0000 0.9167 20.3334
#
#
#
# Elastic Compliance Matrix: (Units=1/GPa)
#
#
# Indices 1 2 3 4 5 6 
#
# 1 0.020288 -0.004365 -0.003293 -0.001380 0.000000 0.000000
# 2 -0.004365 0.020288 -0.003293 0.001380 0.000000 0.000000
# 3 -0.003293 -0.003293 0.021572 0.000000 0.000000 0.000000
# 4 -0.001380 0.001380 0.000000 0.061235 0.000000 0.000000
# 5 0.000000 0.000000 0.000000 0.000000 0.061235 -0.002761
# 6 0.000000 0.000000 0.000000 0.000000 -0.002761 0.049305
#
#
# Mechanical properties :
#
#
# Convention : Reuss Voigt Hill
#
# Bulk Modulus (GPa) = 24.84806 24.94325 24.89566
# Shear Modulus (GPa) = 18.57093 18.85093 18.71093
#
# Velocity S-wave (km/s) = 3.47865 3.50478 3.49174
# Velocity P-wave (km/s) = 5.68559 5.71238 5.69900
#
# Compressibility (1/GPa) = 0.04024459
#
# Stress axis : x y z
#
# Youngs Moduli (GPa) = 49.29112 49.29112 46.35739
#
# Poissons Ratio (x) = 0.21514 0.15267
# Poissons Ratio (y) = 0.21514 0.15267
# Poissons Ratio (z) = 0.16233 0.16233
#
# Static dielectric constant tensor:
#      x y z
#    x 1.505560 0.000000 0.000000 
#    y 0.000000 1.505560 0.000000 
#    z 0.000000 0.000000 1.513060 
# 
# From -- ./inp_files/7246.got.cif
#   From: 2010.05.17/outbox.cif.g08.bks.cpg/sg166_4_cif.got.tgz:7246.got - 2010.05.20 11:04:41.
