data_PCOD9579875
_publ_section_title
;
Structure prediction by ZEFSAII (Michael W. Deem and Ramdas Pophale) SiO2 
 PCOD9579875
Probable space group: P 61
;
_chemical_formula_sum "Si O2"
_cell_formula_units_Z 42
_cell_length_a 7.568319
_cell_length_b 7.568319
_cell_length_c 37.589023
_cell_angle_alpha 90.000000
_cell_angle_beta 90.000000
_cell_angle_gamma 120.000000
_cell_volume 1864.620813
_symmetry_space_group_name_H-M "P 61"
_symmetry_group_IT_number 169
_symmetry_cell_setting 'hexagonal'
loop_
_space_group_symop_operation_xyz
x,y,z
x-y,x,1/6+z
-y,x-y,1/3+z
-x,-y,1/2+z
-x+y,-x,2/3+z
y,-x+y,5/6+z
loop_
_atom_site_type_symbol
_atom_site_label
_atom_site_fract_x
_atom_site_fract_y
_atom_site_fract_z
Si Si1 0.823387 0.118642 0.761430
Si Si2 0.437880 0.094023 0.045347
Si Si3 0.272061 0.000000 0.188277
Si Si4 0.094023 0.437879 0.664541
Si Si5 0.243323 0.753049 0.804038
Si Si6 0.756677 0.509726 0.239183
Si Si7 0.823387 0.704745 0.781791
O O1 0.050812 0.276739 0.749558
O O2 0.679663 0.070358 0.726264
O O3 0.791623 0.216120 0.797415
O O4 0.803497 0.901749 0.771611
O O5 0.203582 0.938226 0.032865
O O6 0.527063 0.966004 0.063709
O O7 0.424497 0.216119 0.079140
O O8 0.555921 0.200316 0.009452
O O9 0.390694 0.070357 0.150291
O O10 0.061774 0.796419 0.177023
O O11 0.966004 0.527063 0.646179
O O12 0.200316 0.555921 0.700435
O O13 0.284817 0.642409 0.771611
O O14 0.050812 0.774074 0.793663
#
# Coordination Sequence:
#
# PCOD9579875 Si02
#       7
#     6   6   6   6   6   6   6
#     4   9  18  35  55  77 107 145 185 228 286 350
#     4  10  20  36  56  82 112 150 192 235 293 350
#     4   8  16  32  56  74 102 144 178 222 280 344
#     4  10  20  36  56  82 112 150 192 235 293 350
#     4  11  21  35  56  81 112 147 188 241 288 340
#     4  11  21  35  56  81 112 147 188 241 288 340
#     4   9  18  35  55  77 107 145 185 228 286 350
#
# _framework density 22.524688999999999
#
# number of rings (size 3 to 8) (size 9 to 14) (size 15 to 20)
#    0.000    2.286    0.000    4.286    0.000    0.000 
#    0.000   10.000    0.000    6.857    0.000    0.000 
#    0.000    0.000    0.000    0.000    0.000    0.000 
#
# Total GULP energy -233853.519725 kJ/mol
# GULP energy per Si atom -5567.940946 kJ/mol
# Density = 2.247342 g / cm^3
# Si number density = 22.524689 Si / 1000 Ang^3
#
#
#
# Elastic Constant Matrix: (Units=GPa)
#
#
# Indices 1 2 3 4 5 6 
#
# 1 18.3624 27.0403 33.1514 0.0000 0.0000 0.0000
# 2 27.0403 18.3624 33.1514 0.0000 0.0000 0.0000
# 3 33.1514 33.1514 216.0216 0.0000 0.0000 0.0000
# 4 0.0000 0.0000 0.0000 35.7344 0.0000 0.0000
# 5 0.0000 0.0000 0.0000 0.0000 35.7344 0.0000
# 6 0.0000 0.0000 0.0000 0.0000 0.0000 -4.3389
#
#
#
# Elastic Compliance Matrix: (Units=1/GPa)
#
#
# Indices 1 2 3 4 5 6 
#
# 1 -0.043424 0.071811 -0.004356 0.000000 0.000000 0.000000
# 2 0.071811 -0.043424 -0.004356 0.000000 0.000000 0.000000
# 3 -0.004356 -0.004356 0.005966 0.000000 0.000000 0.000000
# 4 0.000000 0.000000 0.000000 0.027984 0.000000 0.000000
# 5 0.000000 0.000000 0.000000 0.000000 0.027984 0.000000
# 6 0.000000 0.000000 0.000000 0.000000 0.000000 -0.230471
#
#
# Mechanical properties :
#
#
# Convention : Reuss Voigt Hill
#
# Bulk Modulus (GPa) = 22.06795 48.82583 35.44689
# Shear Modulus (GPa) = -13.64342 24.05284 5.20471
#
# Velocity S-wave (km/s) = -2.46379 3.27133 1.52174
# Velocity P-wave (km/s) = 1.31333 5.99937 4.34265
#
# Compressibility (1/GPa) = 0.04531458
#
# Stress axis : x y z
#
# Youngs Moduli (GPa) = -23.02856 -23.02856 167.60964
#
# Poissons Ratio (x) = 1.65371 0.73016
# Poissons Ratio (y) = 1.65371 0.73016
# Poissons Ratio (z) = -0.10032 -0.10032
#
# Static dielectric constant tensor:
#      x y z
#    x 1.882970 0.000000 0.000000 
#    y 0.000000 1.882970 0.000000 
#    z 0.000000 0.000000 2.107710 
# 
# From -- ./inp_files/1879.got.cif
#   From: 2010.05.17/outbox.cif.g08.bks.cpg/sg169_cif.got.tgz:1879.got - 2010.05.20 11:12:54.
