data_PCOD9579472
_publ_section_title
;
Structure prediction by ZEFSAII (Michael W. Deem and Ramdas Pophale) SiO2 
 PCOD9579472
Probable space group: R -3 C 
;
_chemical_formula_sum "Si O2"
_cell_formula_units_Z 126
_cell_length_a 30.361105
_cell_length_b 30.361105
_cell_length_c 9.971726
_cell_angle_alpha 90.000000
_cell_angle_beta 90.000000
_cell_angle_gamma 120.000000
_cell_volume 7960.422450
_symmetry_space_group_name_H-M "R -3 C "
_symmetry_group_IT_number 167
_symmetry_cell_setting 'hexagonal'
loop_
_space_group_symop_operation_xyz
x,y,z
-y,x-y,z
-x+y,-x,z
x-y,-y,1/2-z
-x,-x+y,1/2-z
y,x,1/2-z
-x,-y,-z
y,-x+y,-z
x-y,x,-z
-x+y,y,1/2+z
x,x-y,1/2+z
-y,-x,1/2+z
2/3+x,1/3+y,1/3+z
2/3-y,1/3+x-y,1/3+z
2/3-x+y,1/3-x,1/3+z
2/3+x-y,1/3-y,5/6-z
2/3-x,1/3-x+y,5/6-z
2/3+y,1/3+x,5/6-z
2/3-x,1/3-y,1/3-z
2/3+y,1/3-x+y,1/3-z
2/3+x-y,1/3+x,1/3-z
2/3-x+y,1/3+y,5/6+z
2/3+x,1/3+x-y,5/6+z
2/3-y,1/3-x,5/6+z
1/3+x,2/3+y,2/3+z
1/3-y,2/3+x-y,2/3+z
1/3-x+y,2/3-x,2/3+z
1/3+x-y,2/3-y,1/6-z
1/3-x,2/3-x+y,1/6-z
1/3+y,2/3+x,1/6-z
1/3-x,2/3-y,2/3-z
1/3+y,2/3-x+y,2/3-z
1/3+x-y,2/3+x,2/3-z
1/3-x+y,2/3+y,1/6+z
1/3+x,2/3+x-y,1/6+z
1/3-y,2/3-x,1/6+z
loop_
_atom_site_type_symbol
_atom_site_label
_atom_site_fract_x
_atom_site_fract_y
_atom_site_fract_z
Si Si1 0.726364 0.873235 0.851176
Si Si2 0.602127 0.908396 0.208444
Si Si3 0.084029 0.812941 0.580751
Si Si4 0.289276 0.289276 0.250000
O O1 0.666667 0.833334 0.833334
O O2 0.745104 0.892049 0.701617
O O3 0.733829 0.922434 0.932270
O O4 0.745586 0.842524 0.940148
O O5 0.556546 0.914348 0.267244
O O6 0.655073 0.951430 0.273701
O O7 0.603838 0.922377 0.050747
O O8 0.111249 0.777916 0.583334
#
# Coordination Sequence:
#
# PCOD9579472 Si02
#       4
#    36  36  36  18
#     4  10  22  32  50  67  95 126 162 210 262 301
#     4  11  21  34  50  68 100 128 173 217 261 304
#     4  10  20  34  47  68  94 124 164 208 255 300
#     4  10  22  28  48  72  90 124 176 214 262 292
#
# _framework density 15.828306
#
# number of rings (size 3 to 8) (size 9 to 14) (size 15 to 20)
#    0.000    1.714    1.429    4.286   20.000    0.000 
#    0.000    0.000    0.000    0.000    0.000    0.000 
#    0.000    0.000    0.000    0.857    0.000    4.857 
#
# Total GULP energy -234351.018065 kJ/mol
# GULP energy per Si atom -5579.786144 kJ/mol
# Density = 1.579228 g / cm^3
# Si number density = 15.828306 Si / 1000 Ang^3
#
#
#
# Elastic Constant Matrix: (Units=GPa)
#
#
# Indices 1 2 3 4 5 6 
#
# 1 50.9160 17.0311 10.9461 -2.5625 0.0075 0.0008
# 2 17.0311 50.8947 10.9236 2.5584 -0.0018 -0.0050
# 3 10.9461 10.9236 84.4344 -0.0017 0.0002 0.0036
# 4 -2.5625 2.5584 -0.0017 22.5638 0.0036 0.0085
# 5 0.0075 -0.0018 0.0002 0.0036 22.5493 -2.5653
# 6 0.0008 -0.0050 0.0036 0.0085 -2.5653 16.9396
#
#
#
# Elastic Compliance Matrix: (Units=1/GPa)
#
#
# Indices 1 2 3 4 5 6 
#
# 1 0.022695 -0.007338 -0.001993 0.003409 -0.000009 -0.000006
# 2 -0.007338 0.022701 -0.001986 -0.003408 0.000006 0.000010
# 3 -0.001993 -0.001986 0.012359 0.000000 0.000000 -0.000003
# 4 0.003409 -0.003408 0.000000 0.045092 -0.000011 -0.000026
# 5 -0.000009 0.000006 0.000000 -0.000011 0.045125 0.006834
# 6 -0.000006 0.000010 -0.000003 -0.000026 0.006834 0.060068
#
#
# Mechanical properties :
#
#
# Convention : Reuss Voigt Hill
#
# Bulk Modulus (GPa) = 28.47228 29.33849 28.90539
# Shear Modulus (GPa) = 20.62871 22.23349 21.43110
#
# Velocity S-wave (km/s) = 3.61401 3.75195 3.68363
# Velocity P-wave (km/s) = 5.95332 6.11108 6.03271
#
# Compressibility (1/GPa) = 0.03512188
#
# Stress axis : x y z
#
# Youngs Moduli (GPa) = 44.06308 44.04999 80.91432
#
# Poissons Ratio (x) = 0.32324 0.16124
# Poissons Ratio (y) = 0.32334 0.16067
# Poissons Ratio (z) = 0.08781 0.08747
#
# Static dielectric constant tensor:
#      x y z
#    x 1.528250 0.000000 0.000010 
#    y 0.000000 1.528250 0.000010 
#    z 0.000010 0.000010 1.610470 
# 
# From -- ./inp_files/1509.got.cif
#   From: 2010.05.17/outbox.cif.g08.bks.cpg/sg167_1_cif.got.tgz:1509.got - 2010.05.20 11:09:15.
