data_PCOD9579975
_publ_section_title
;
Structure prediction by ZEFSAII (Michael W. Deem and Ramdas Pophale) SiO2 
 PCOD9579975
Probable space group: P 61
;
_chemical_formula_sum "Si O2"
_cell_formula_units_Z 36
_cell_length_a 15.049749
_cell_length_b 15.049749
_cell_length_c 9.196314
_cell_angle_alpha 90.000000
_cell_angle_beta 90.000000
_cell_angle_gamma 120.000000
_cell_volume 1803.860450
_symmetry_space_group_name_H-M "P 61"
_symmetry_group_IT_number 169
_symmetry_cell_setting 'hexagonal'
loop_
_space_group_symop_operation_xyz
x,y,z
x-y,x,1/6+z
-y,x-y,1/3+z
-x,-y,1/2+z
-x+y,-x,2/3+z
y,-x+y,5/6+z
loop_
_atom_site_type_symbol
_atom_site_label
_atom_site_fract_x
_atom_site_fract_y
_atom_site_fract_z
Si Si1 0.553841 0.059391 0.945770
Si Si2 0.663846 0.006731 0.729303
Si Si3 0.442057 0.212337 0.379614
Si Si4 0.436899 0.609128 0.644862
Si Si5 0.117726 0.418476 0.045904
Si Si6 0.079944 0.705342 0.743638
O O1 0.580356 0.036556 0.786784
O O2 0.496388 0.123337 0.931519
O O3 0.468760 0.948217 0.002685
O O4 0.647822 0.103948 0.055844
O O5 0.761255 0.117026 0.766075
O O6 0.624528 0.902623 0.819053
O O7 0.672183 0.976473 0.564309
O O8 0.506726 0.294413 0.252134
O O9 0.533307 0.219345 0.481394
O O10 0.481307 0.653465 0.484251
O O11 0.185622 0.363409 0.045113
O O12 0.007319 0.342231 0.119974
#
# Coordination Sequence:
#
# PCOD9579975 Si02
#       6
#     6   6   6   6   6   6
#     4  10  22  38  59  84 127 159 204 260 310 375
#     4  11  21  41  60  86 124 168 204 256 311 386
#     4  11  22  40  61  91 124 167 211 256 305 379
#     4  10  22  37  58  85 125 158 209 248 312 373
#     4  11  23  37  61  88 121 162 209 260 309 378
#     4  11  20  39  61  86 121 162 205 258 313 377
#
# _framework density 19.957198000000002
#
# number of rings (size 3 to 8) (size 9 to 14) (size 15 to 20)
#    0.000    1.333    5.000    3.000    0.000    4.000 
#    0.000    0.000    0.000    0.000    0.000   25.667 
#    0.000    0.000    0.000    0.000    0.000    0.000 
#
# Total GULP energy -200493.134295 kJ/mol
# GULP energy per Si atom -5569.253730 kJ/mol
# Density = 1.991177 g / cm^3
# Si number density = 19.957198 Si / 1000 Ang^3
#
#
#
# Elastic Constant Matrix: (Units=GPa)
#
#
# Indices 1 2 3 4 5 6 
#
# 1 94.9066 36.7595 26.1651 0.0000 0.0000 0.0000
# 2 36.7595 94.9066 26.1651 0.0000 0.0000 0.0000
# 3 26.1651 26.1651 67.5020 0.0000 0.0000 0.0000
# 4 0.0000 0.0000 0.0000 19.1970 0.0000 0.0000
# 5 0.0000 0.0000 0.0000 0.0000 19.1970 0.0000
# 6 0.0000 0.0000 0.0000 0.0000 0.0000 29.0736
#
#
#
# Elastic Compliance Matrix: (Units=1/GPa)
#
#
# Indices 1 2 3 4 5 6 
#
# 1 0.013088 -0.004110 -0.003480 0.000000 0.000000 0.000000
# 2 -0.004110 0.013088 -0.003480 0.000000 0.000000 0.000000
# 3 -0.003480 -0.003480 0.017512 0.000000 0.000000 0.000000
# 4 0.000000 0.000000 0.000000 0.052092 0.000000 0.000000
# 5 0.000000 0.000000 0.000000 0.000000 0.052092 0.000000
# 6 0.000000 0.000000 0.000000 0.000000 0.000000 0.034395
#
#
# Mechanical properties :
#
#
# Convention : Reuss Voigt Hill
#
# Bulk Modulus (GPa) = 46.40770 48.38827 47.39799
# Shear Modulus (GPa) = 23.63068 24.70855 24.16961
#
# Velocity S-wave (km/s) = 3.44476 3.52245 3.48382
# Velocity P-wave (km/s) = 6.25507 6.39079 6.32330
#
# Compressibility (1/GPa) = 0.02154815
#
# Stress axis : x y z
#
# Youngs Moduli (GPa) = 76.40625 76.40625 57.10275
#
# Poissons Ratio (x) = 0.31402 0.19872
# Poissons Ratio (y) = 0.31402 0.19872
# Poissons Ratio (z) = 0.26590 0.26590
#
# Static dielectric constant tensor:
#      x y z
#    x 1.764250 0.000000 0.000000 
#    y 0.000000 1.764250 0.000000 
#    z 0.000000 0.000000 1.782130 
# 
# From -- ./inp_files/616.got.cif
#   From: 2010.05.17/outbox.cif.g08.bks.cpg/sg169_cif.got.tgz:616.got - 2010.05.20 11:12:54.
