data_PCOD9579049
_publ_section_title
;
Structure prediction by ZEFSAII (Michael W. Deem and Ramdas Pophale) SiO2 
 PCOD9579049
Probable space group: R -3 M
;
_chemical_formula_sum "Si O2"
_cell_formula_units_Z 162
_cell_length_a 21.767788
_cell_length_b 21.767788
_cell_length_c 18.787255
_cell_angle_alpha 90.000000
_cell_angle_beta 90.000000
_cell_angle_gamma 120.000000
_cell_volume 7709.435158
_symmetry_space_group_name_H-M "R -3 M"
_symmetry_group_IT_number 166
_symmetry_cell_setting 'hexagonal'
loop_
_space_group_symop_operation_xyz
x,y,z
-y,x-y,z
-x+y,-x,z
x-y,-y,-z
-x,-x+y,-z
y,x,-z
-x,-y,-z
y,-x+y,-z
x-y,x,-z
-x+y,y,z
x,x-y,z
-y,-x,z
2/3+x,1/3+y,1/3+z
2/3-y,1/3+x-y,1/3+z
2/3-x+y,1/3-x,1/3+z
2/3+x-y,1/3-y,1/3-z
2/3-x,1/3-x+y,1/3-z
2/3+y,1/3+x,1/3-z
2/3-x,1/3-y,1/3-z
2/3+y,1/3-x+y,1/3-z
2/3+x-y,1/3+x,1/3-z
2/3-x+y,1/3+y,1/3+z
2/3+x,1/3+x-y,1/3+z
2/3-y,1/3-x,1/3+z
1/3+x,2/3+y,2/3+z
1/3-y,2/3+x-y,2/3+z
1/3-x+y,2/3-x,2/3+z
1/3+x-y,2/3-y,2/3-z
1/3-x,2/3-x+y,2/3-z
1/3+y,2/3+x,2/3-z
1/3-x,2/3-y,2/3-z
1/3+y,2/3-x+y,2/3-z
1/3+x-y,2/3+x,2/3-z
1/3-x+y,2/3+y,2/3+z
1/3+x,2/3+x-y,2/3+z
1/3-y,2/3-x,2/3+z
loop_
_atom_site_type_symbol
_atom_site_label
_atom_site_fract_x
_atom_site_fract_y
_atom_site_fract_z
Si Si1 0.044372 0.748703 0.173952
Si Si2 0.433839 0.146443 0.759134
Si Si3 0.334496 0.810733 0.813663
Si Si4 0.452965 0.119632 0.333334
Si Si5 0.417323 0.971571 0.311251
O O1 0.101186 0.752009 0.229547
O O2 0.014625 0.800572 0.189212
O O3 0.087791 0.765149 0.099545
O O4 0.984115 0.666667 0.166667
O O5 0.456623 0.228312 0.748775
O O6 0.467914 0.134580 0.833334
O O7 0.444181 0.100611 0.698071
O O8 0.397054 0.794108 0.829334
O O9 0.257840 0.742161 0.822579
O O10 0.344296 0.840549 0.732767
O O11 0.373726 0.101151 0.309163
O O12 0.475456 0.950911 0.327840
#
# Coordination Sequence:
#
# PCOD9579049 Si02
#       5
#    36  36  36  18  36
#     4   8  15  27  43  61  80 106 139 175 211 243
#     4   9  15  26  45  66  88 112 138 169 208 252
#     4  11  20  29  41  59  86 114 140 169 206 254
#     4  10  18  30  44  58  78 110 146 180 210 240
#     4   9  16  27  43  63  86 110 138 173 212 246
#
# _framework density 21.013213
#
# number of rings (size 3 to 8) (size 9 to 14) (size 15 to 20)
#    0.000    3.111    0.000    7.556    0.000    0.444 
#    0.000    1.667    0.000    4.000    0.000    0.000 
#    0.000    0.000    0.000    0.000    0.000    0.000 
#
# Total GULP energy -300690.349169 kJ/mol
# GULP energy per Si atom -5568.339799 kJ/mol
# Density = 2.096539 g / cm^3
# Si number density = 21.013213 Si / 1000 Ang^3
#
#
#
# Elastic Constant Matrix: (Units=GPa)
#
#
# Indices 1 2 3 4 5 6 
#
# 1 117.9258 91.2725 -3.0788 1.5183 -0.0006 0.0000
# 2 91.2725 117.9258 -3.0788 -1.5183 0.0006 0.0000
# 3 -3.0788 -3.0788 15.5336 0.0000 0.0000 0.0000
# 4 1.5183 -1.5183 0.0000 7.0977 0.0000 0.0006
# 5 -0.0006 0.0006 0.0000 0.0000 7.0977 1.5183
# 6 0.0000 0.0000 0.0000 0.0006 1.5183 13.3266
#
#
#
# Elastic Compliance Matrix: (Units=1/GPa)
#
#
# Indices 1 2 3 4 5 6 
#
# 1 0.021632 -0.016824 0.000953 -0.008226 0.000004 0.000000
# 2 -0.016824 0.021632 0.000953 0.008226 -0.000004 0.000000
# 3 0.000953 0.000953 0.064754 0.000000 0.000000 0.000000
# 4 -0.008226 0.008226 0.000000 0.144411 0.000000 -0.000007
# 5 0.000004 -0.000004 0.000000 0.000000 0.144411 -0.016452
# 6 0.000000 0.000000 0.000000 -0.000007 -0.016452 0.076912
#
#
# Mechanical properties :
#
#
# Convention : Reuss Voigt Hill
#
# Bulk Modulus (GPa) = 12.79056 46.84612 29.81834
# Shear Modulus (GPa) = 9.44022 16.58907 13.01465
#
# Velocity S-wave (km/s) = 2.12186 2.81278 2.49139
# Velocity P-wave (km/s) = 3.47896 5.73507 4.74311
#
# Compressibility (1/GPa) = 0.07818266
#
# Stress axis : x y z
#
# Youngs Moduli (GPa) = 46.22760 46.22760 15.44299
#
# Poissons Ratio (x) = 0.77773 -0.01472
# Poissons Ratio (y) = 0.77773 -0.01472
# Poissons Ratio (z) = -0.04405 -0.04405
#
# Static dielectric constant tensor:
#      x y z
#    x 1.779510 0.000000 0.000000 
#    y 0.000000 1.779510 0.000000 
#    z 0.000000 0.000000 1.875730 
# 
# From -- ./inp_files/9500.got.cif
#   From: 2010.05.17/outbox.cif.g08.bks.cpg/sg166_5_cif.got.tgz:9500.got - 2010.05.20 11:04:41.
