data_PCOD9579407
_publ_section_title
;
Structure prediction by ZEFSAII (Michael W. Deem and Ramdas Pophale) SiO2 
 PCOD9579407
Probable space group: R -3 C 
;
_chemical_formula_sum "Si O2"
_cell_formula_units_Z 216
_cell_length_a 25.804414
_cell_length_b 25.804414
_cell_length_c 24.592549
_cell_angle_alpha 90.000000
_cell_angle_beta 90.000000
_cell_angle_gamma 120.000000
_cell_volume 14181.500319
_symmetry_space_group_name_H-M "R -3 C "
_symmetry_group_IT_number 167
_symmetry_cell_setting 'hexagonal'
loop_
_space_group_symop_operation_xyz
x,y,z
-y,x-y,z
-x+y,-x,z
x-y,-y,1/2-z
-x,-x+y,1/2-z
y,x,1/2-z
-x,-y,-z
y,-x+y,-z
x-y,x,-z
-x+y,y,1/2+z
x,x-y,1/2+z
-y,-x,1/2+z
2/3+x,1/3+y,1/3+z
2/3-y,1/3+x-y,1/3+z
2/3-x+y,1/3-x,1/3+z
2/3+x-y,1/3-y,5/6-z
2/3-x,1/3-x+y,5/6-z
2/3+y,1/3+x,5/6-z
2/3-x,1/3-y,1/3-z
2/3+y,1/3-x+y,1/3-z
2/3+x-y,1/3+x,1/3-z
2/3-x+y,1/3+y,5/6+z
2/3+x,1/3+x-y,5/6+z
2/3-y,1/3-x,5/6+z
1/3+x,2/3+y,2/3+z
1/3-y,2/3+x-y,2/3+z
1/3-x+y,2/3-x,2/3+z
1/3+x-y,2/3-y,1/6-z
1/3-x,2/3-x+y,1/6-z
1/3+y,2/3+x,1/6-z
1/3-x,2/3-y,2/3-z
1/3+y,2/3-x+y,2/3-z
1/3+x-y,2/3+x,2/3-z
1/3-x+y,2/3+y,1/6+z
1/3+x,2/3+x-y,1/6+z
1/3-y,2/3-x,1/6+z
loop_
_atom_site_type_symbol
_atom_site_label
_atom_site_fract_x
_atom_site_fract_y
_atom_site_fract_z
Si Si1 0.961672 0.707221 0.366156
Si Si2 0.517056 0.920250 0.904311
Si Si3 0.600823 0.648836 0.703723
Si Si4 0.908798 0.509672 0.063142
Si Si5 0.611835 0.754348 0.772033
Si Si6 0.712402 0.791767 0.930580
O O1 0.923189 0.666667 0.416667
O O2 0.927003 0.727739 0.325444
O O3 0.976100 0.663325 0.329811
O O4 0.021665 0.761797 0.391131
O O5 0.546871 0.880205 0.916667
O O6 0.447982 0.891110 0.918610
O O7 0.549697 0.982390 0.938431
O O8 0.611518 0.611518 0.750000
O O9 0.588826 0.697745 0.732533
O O10 0.551838 0.610023 0.659054
O O11 0.863588 0.530255 0.083334
O O12 0.974073 0.553403 0.089031
O O13 0.919057 0.516768 0.998608
O O14 0.600953 0.807029 0.750721
#
# Coordination Sequence:
#
# PCOD9579407 Si02
#       6
#    36  36  36  36  36  36
#     4   9  16  27  44  65  90 121 154 185 223 271
#     4  10  18  30  47  66  89 121 155 187 223 270
#     4  10  18  29  44  63  92 122 153 188 223 262
#     4  11  20  31  47  69  92 119 153 189 227 269
#     4  10  19  31  46  67  93 123 154 183 221 270
#     4  10  18  30  47  66  92 126 153 184 224 268
#
# _framework density 15.231111
#
# number of rings (size 3 to 8) (size 9 to 14) (size 15 to 20)
#    0.000    2.000    0.000    9.500    0.000    0.000 
#    0.000   19.167    0.000    0.333    0.000    0.000 
#    0.000    0.000    0.000    4.167    0.000    0.000 
#
# Total GULP energy -401770.222818 kJ/mol
# GULP energy per Si atom -5580.141984 kJ/mol
# Density = 1.519644 g / cm^3
# Si number density = 15.231111 Si / 1000 Ang^3
#
#
#
# Elastic Constant Matrix: (Units=GPa)
#
#
# Indices 1 2 3 4 5 6 
#
# 1 76.0385 44.3404 63.2718 -0.5407 0.0001 0.0000
# 2 44.3404 76.0385 63.2718 0.5407 -0.0001 0.0000
# 3 63.2718 63.2718 130.7807 0.0000 0.0000 0.0000
# 4 -0.5407 0.5407 0.0000 21.2107 0.0000 -0.0001
# 5 0.0001 -0.0001 0.0000 0.0000 21.2107 -0.5407
# 6 0.0000 0.0000 0.0000 -0.0001 -0.5407 15.8490
#
#
#
# Elastic Compliance Matrix: (Units=1/GPa)
#
#
# Indices 1 2 3 4 5 6 
#
# 1 0.024240 -0.007335 -0.008178 0.000805 0.000000 0.000000
# 2 -0.007335 0.024240 -0.008178 -0.000805 0.000000 0.000000
# 3 -0.008178 -0.008178 0.015560 0.000000 0.000000 0.000000
# 4 0.000805 -0.000805 0.000000 0.047187 0.000000 0.000000
# 5 0.000000 0.000000 0.000000 0.000000 0.047187 0.001610
# 6 0.000000 0.000000 0.000000 0.000000 0.001610 0.063150
#
#
# Mechanical properties :
#
#
# Convention : Reuss Voigt Hill
#
# Bulk Modulus (GPa) = 60.04200 69.40285 64.72243
# Shear Modulus (GPa) = 18.21503 19.11902 18.66703
#
# Velocity S-wave (km/s) = 3.46194 3.54681 3.50463
# Velocity P-wave (km/s) = 7.44891 7.90181 7.67870
#
# Compressibility (1/GPa) = 0.01665501
#
# Stress axis : x y z
#
# Youngs Moduli (GPa) = 41.25477 41.25477 64.26884
#
# Poissons Ratio (x) = 0.30262 0.52560
# Poissons Ratio (y) = 0.30262 0.52560
# Poissons Ratio (z) = 0.33739 0.33739
#
# Static dielectric constant tensor:
#      x y z
#    x 1.502460 0.000000 0.000000 
#    y 0.000000 1.502460 0.000000 
#    z 0.000000 0.000000 1.533380 
# 
# From -- ./inp_files/5549.got.cif
#   From: 2010.05.17/outbox.cif.g08.bks.cpg/sg167_3_cif.got.tgz:5549.got - 2010.05.20 11:09:15.
