data_PCOD9579716
_publ_section_title
;
Structure prediction by ZEFSAII (Michael W. Deem and Ramdas Pophale) SiO2 
 PCOD9579716
Probable space group: R -3 C 
;
_chemical_formula_sum "Si O2"
_cell_formula_units_Z 210
_cell_length_a 15.842385
_cell_length_b 15.842385
_cell_length_c 37.704172
_cell_angle_alpha 90.000000
_cell_angle_beta 90.000000
_cell_angle_gamma 120.000000
_cell_volume 8195.230369
_symmetry_space_group_name_H-M "R -3 C "
_symmetry_group_IT_number 167
_symmetry_cell_setting 'hexagonal'
loop_
_space_group_symop_operation_xyz
x,y,z
-y,x-y,z
-x+y,-x,z
x-y,-y,1/2-z
-x,-x+y,1/2-z
y,x,1/2-z
-x,-y,-z
y,-x+y,-z
x-y,x,-z
-x+y,y,1/2+z
x,x-y,1/2+z
-y,-x,1/2+z
2/3+x,1/3+y,1/3+z
2/3-y,1/3+x-y,1/3+z
2/3-x+y,1/3-x,1/3+z
2/3+x-y,1/3-y,5/6-z
2/3-x,1/3-x+y,5/6-z
2/3+y,1/3+x,5/6-z
2/3-x,1/3-y,1/3-z
2/3+y,1/3-x+y,1/3-z
2/3+x-y,1/3+x,1/3-z
2/3-x+y,1/3+y,5/6+z
2/3+x,1/3+x-y,5/6+z
2/3-y,1/3-x,5/6+z
1/3+x,2/3+y,2/3+z
1/3-y,2/3+x-y,2/3+z
1/3-x+y,2/3-x,2/3+z
1/3+x-y,2/3-y,1/6-z
1/3-x,2/3-x+y,1/6-z
1/3+y,2/3+x,1/6-z
1/3-x,2/3-y,2/3-z
1/3+y,2/3-x+y,2/3-z
1/3+x-y,2/3+x,2/3-z
1/3-x+y,2/3+y,1/6+z
1/3+x,2/3+x-y,1/6+z
1/3-y,2/3-x,1/6+z
loop_
_atom_site_type_symbol
_atom_site_label
_atom_site_fract_x
_atom_site_fract_y
_atom_site_fract_z
Si Si1 0.206714 0.138677 0.547055
Si Si2 0.992095 0.732425 0.480089
Si Si3 0.666667 0.333334 0.791305
Si Si4 0.502208 0.147960 0.643700
Si Si5 0.126784 0.635915 0.955369
Si Si6 0.832551 0.666667 0.416667
Si Si7 0.712933 0.577559 0.713807
O O1 0.268945 0.231034 0.521584
O O2 0.203537 0.051502 0.525324
O O3 0.093265 0.100656 0.554191
O O4 0.251675 0.141861 0.585409
O O5 0.074919 0.702300 0.474197
O O6 0.223912 0.728617 0.382151
O O7 0.666668 0.333335 0.833334
O O8 0.601099 0.144891 0.640636
O O9 0.548726 0.975288 0.716327
O O10 0.495198 0.190080 0.682017
O O11 0.112472 0.666667 0.916667
O O12 0.017954 0.582752 0.970505
O O13 0.799854 0.739678 0.398837
#
# Coordination Sequence:
#
# PCOD9579716 Si02
#       7
#    36  36  12  36  36  18  36
#     4  12  24  46  75 113 159 207 252 318 400 487
#     4  12  27  46  79 115 159 202 262 314 399 482
#     4  12  21  42  72 114 156 207 259 317 400 498
#     4  12  30  51  82 115 157 212 276 339 398 482
#     4  12  28  54  83 114 159 215 276 334 408 474
#     4  12  28  44  76 118 156 206 262 320 394 476
#     4  12  27  49  77 117 160 204 262 332 405 473
#
# _framework density 25.624662000000001
#
# number of rings (size 3 to 8) (size 9 to 14) (size 15 to 20)
#    0.000    0.000    2.571    6.514    9.600    2.743 
#    0.000    0.000    0.000    0.000    0.000    0.000 
#    0.000    0.000    0.000    0.000    0.000    0.000 
#
# Total GULP energy -391153.885041 kJ/mol
# GULP energy per Si atom -5587.912643 kJ/mol
# Density = 2.556634 g / cm^3
# Si number density = 25.624662 Si / 1000 Ang^3
#
#
#
# Elastic Constant Matrix: (Units=GPa)
#
#
# Indices 1 2 3 4 5 6 
#
# 1 113.5830 40.8895 19.0894 0.9809 0.0002 0.0000
# 2 40.8895 113.5827 19.0895 -0.9811 -0.0002 0.0000
# 3 19.0894 19.0895 77.0382 0.0000 0.0000 0.0000
# 4 0.9809 -0.9811 0.0000 39.1623 0.0000 -0.0002
# 5 0.0002 -0.0002 0.0000 0.0000 39.1622 0.9810
# 6 0.0000 0.0000 0.0000 -0.0002 0.9810 36.3466
#
#
#
# Elastic Compliance Matrix: (Units=1/GPa)
#
#
# Indices 1 2 3 4 5 6 
#
# 1 0.010331 -0.003435 -0.001709 -0.000345 0.000000 0.000000
# 2 -0.003435 0.010331 -0.001709 0.000345 0.000000 0.000000
# 3 -0.001709 -0.001709 0.013827 0.000000 0.000000 0.000000
# 4 -0.000345 0.000345 0.000000 0.025552 0.000000 0.000000
# 5 0.000000 0.000000 0.000000 0.000000 0.025552 -0.000690
# 6 0.000000 0.000000 0.000000 0.000000 -0.000690 0.027532
#
#
# Mechanical properties :
#
#
# Convention : Reuss Voigt Hill
#
# Bulk Modulus (GPa) = 48.11322 51.37118 49.74220
# Shear Modulus (GPa) = 37.38103 37.94325 37.66214
#
# Velocity S-wave (km/s) = 3.82356 3.85220 3.83791
# Velocity P-wave (km/s) = 6.18948 6.31483 6.25247
#
# Compressibility (1/GPa) = 0.02078431
#
# Stress axis : x y z
#
# Youngs Moduli (GPa) = 96.79756 96.79728 72.32009
#
# Poissons Ratio (x) = 0.33249 0.12358
# Poissons Ratio (y) = 0.33249 0.12358
# Poissons Ratio (z) = 0.16540 0.16541
#
# Static dielectric constant tensor:
#      x y z
#    x 2.033880 0.000000 0.000000 
#    y 0.000000 2.033880 0.000000 
#    z 0.000000 0.000000 2.123420 
# 
# From -- ./inp_files/7239.got.cif
#   From: 2010.05.17/outbox.cif.g08.bks.cpg/sg167_4_cif.got.tgz:7239.got - 2010.05.20 11:09:15.
