data_PCOD9579392
_publ_section_title
;
Structure prediction by ZEFSAII (Michael W. Deem and Ramdas Pophale) SiO2 
 PCOD9579392
Probable space group: R -3 C 
;
_chemical_formula_sum "Si O2"
_cell_formula_units_Z 126
_cell_length_a 19.821345
_cell_length_b 19.821345
_cell_length_c 19.573401
_cell_angle_alpha 90.000000
_cell_angle_beta 90.000000
_cell_angle_gamma 120.000000
_cell_volume 6659.830356
_symmetry_space_group_name_H-M "R -3 C "
_symmetry_group_IT_number 167
_symmetry_cell_setting 'hexagonal'
loop_
_space_group_symop_operation_xyz
x,y,z
-y,x-y,z
-x+y,-x,z
x-y,-y,1/2-z
-x,-x+y,1/2-z
y,x,1/2-z
-x,-y,-z
y,-x+y,-z
x-y,x,-z
-x+y,y,1/2+z
x,x-y,1/2+z
-y,-x,1/2+z
2/3+x,1/3+y,1/3+z
2/3-y,1/3+x-y,1/3+z
2/3-x+y,1/3-x,1/3+z
2/3+x-y,1/3-y,5/6-z
2/3-x,1/3-x+y,5/6-z
2/3+y,1/3+x,5/6-z
2/3-x,1/3-y,1/3-z
2/3+y,1/3-x+y,1/3-z
2/3+x-y,1/3+x,1/3-z
2/3-x+y,1/3+y,5/6+z
2/3+x,1/3+x-y,5/6+z
2/3-y,1/3-x,5/6+z
1/3+x,2/3+y,2/3+z
1/3-y,2/3+x-y,2/3+z
1/3-x+y,2/3-x,2/3+z
1/3+x-y,2/3-y,1/6-z
1/3-x,2/3-x+y,1/6-z
1/3+y,2/3+x,1/6-z
1/3-x,2/3-y,2/3-z
1/3+y,2/3-x+y,2/3-z
1/3+x-y,2/3+x,2/3-z
1/3-x+y,2/3+y,1/6+z
1/3+x,2/3+x-y,1/6+z
1/3-y,2/3-x,1/6+z
loop_
_atom_site_type_symbol
_atom_site_label
_atom_site_fract_x
_atom_site_fract_y
_atom_site_fract_z
Si Si1 0.424412 0.134962 0.148820
Si Si2 0.385989 0.130090 0.356503
Si Si3 0.686423 0.666667 0.916667
Si Si4 0.414795 0.917783 0.074720
O O1 0.474416 0.141083 0.083334
O O2 0.335962 0.101277 0.120233
O O3 0.448418 0.216903 0.184529
O O4 0.418893 0.070007 0.203175
O O5 0.333334 0.130773 0.416667
O O6 0.455077 0.127154 0.396874
O O7 0.407612 0.200710 0.307154
O O8 0.342581 0.053159 0.307618
#
# Coordination Sequence:
#
# PCOD9579392 Si02
#       4
#    36  36  18  36
#     4  10  18  33  52  78 115 145 173 213 280 327
#     4  11  21  34  53  79 116 139 184 216 273 327
#     4  10  16  30  52  70 116 136 162 216 258 338
#     4  10  21  32  53  79 109 148 175 224 271 324
#
# _framework density 18.9194
#
# number of rings (size 3 to 8) (size 9 to 14) (size 15 to 20)
#    0.000    1.714    5.714    0.000    2.000    0.000 
#    0.000    0.000    0.000    0.571    0.000    0.000 
#    4.286    0.000    0.000    0.000    0.000    0.000 
#
# Total GULP energy -233808.720796 kJ/mol
# GULP energy per Si atom -5566.874305 kJ/mol
# Density = 1.887634 g / cm^3
# Si number density = 18.919400 Si / 1000 Ang^3
#
#
#
# Elastic Constant Matrix: (Units=GPa)
#
#
# Indices 1 2 3 4 5 6 
#
# 1 57.0497 35.8618 35.8556 -9.8227 -0.0002 0.0000
# 2 35.8618 57.0497 35.8556 9.8227 0.0002 0.0000
# 3 35.8556 35.8556 139.0096 0.0000 0.0000 0.0000
# 4 -9.8227 9.8227 0.0000 11.7214 0.0000 0.0002
# 5 -0.0002 0.0002 0.0000 0.0000 11.7214 -9.8227
# 6 0.0000 0.0000 0.0000 0.0002 -9.8227 10.5939
#
#
#
# Elastic Compliance Matrix: (Units=1/GPa)
#
#
# Indices 1 2 3 4 5 6 
#
# 1 0.112547 -0.099109 -0.003466 0.177371 0.000003 0.000000
# 2 -0.099109 0.112547 -0.003466 -0.177371 -0.000003 0.000000
# 3 -0.003466 -0.003466 0.008982 0.000000 0.000000 0.000000
# 4 0.177371 -0.177371 0.000000 0.382593 0.000000 -0.000007
# 5 0.000003 -0.000003 0.000000 0.000000 0.382593 0.354742
# 6 0.000000 0.000000 0.000000 -0.000007 0.354742 0.423312
#
#
# Mechanical properties :
#
#
# Convention : Reuss Voigt Hill
#
# Bulk Modulus (GPa) = 45.46797 52.02832 48.74814
# Shear Modulus (GPa) = 3.04509 16.50975 9.77742
#
# Velocity S-wave (km/s) = 1.27004 2.95725 2.27577
# Velocity P-wave (km/s) = 5.12204 6.26259 5.72081
#
# Compressibility (1/GPa) = 0.02199351
#
# Stress axis : x y z
#
# Youngs Moduli (GPa) = 8.88516 8.88516 111.33542
#
# Poissons Ratio (x) = 0.88060 0.38591
# Poissons Ratio (y) = 0.88060 0.38591
# Poissons Ratio (z) = 0.03080 0.03080
#
# Static dielectric constant tensor:
#      x y z
#    x 1.691680 0.000000 0.000000 
#    y 0.000000 1.691680 0.000000 
#    z 0.000000 0.000000 1.688840 
# 
# From -- ./inp_files/3042.got.cif
#   From: 2010.05.17/outbox.cif.g08.bks.cpg/sg167_2_cif.got.tgz:3042.got - 2010.05.20 11:09:15.
