data_PCOD9579723
_publ_section_title
;
Structure prediction by ZEFSAII (Michael W. Deem and Ramdas Pophale) SiO2 
 PCOD9579723
Probable space group: R -3 C 
;
_chemical_formula_sum "Si O2"
_cell_formula_units_Z 54
_cell_length_a 19.526367
_cell_length_b 19.526367
_cell_length_c 6.696744
_cell_angle_alpha 90.000000
_cell_angle_beta 90.000000
_cell_angle_gamma 120.000000
_cell_volume 2211.246835
_symmetry_space_group_name_H-M "R -3 C "
_symmetry_group_IT_number 167
_symmetry_cell_setting 'hexagonal'
loop_
_space_group_symop_operation_xyz
x,y,z
-y,x-y,z
-x+y,-x,z
x-y,-y,1/2-z
-x,-x+y,1/2-z
y,x,1/2-z
-x,-y,-z
y,-x+y,-z
x-y,x,-z
-x+y,y,1/2+z
x,x-y,1/2+z
-y,-x,1/2+z
2/3+x,1/3+y,1/3+z
2/3-y,1/3+x-y,1/3+z
2/3-x+y,1/3-x,1/3+z
2/3+x-y,1/3-y,5/6-z
2/3-x,1/3-x+y,5/6-z
2/3+y,1/3+x,5/6-z
2/3-x,1/3-y,1/3-z
2/3+y,1/3-x+y,1/3-z
2/3+x-y,1/3+x,1/3-z
2/3-x+y,1/3+y,5/6+z
2/3+x,1/3+x-y,5/6+z
2/3-y,1/3-x,5/6+z
1/3+x,2/3+y,2/3+z
1/3-y,2/3+x-y,2/3+z
1/3-x+y,2/3-x,2/3+z
1/3+x-y,2/3-y,1/6-z
1/3-x,2/3-x+y,1/6-z
1/3+y,2/3+x,1/6-z
1/3-x,2/3-y,2/3-z
1/3+y,2/3-x+y,2/3-z
1/3+x-y,2/3+x,2/3-z
1/3-x+y,2/3+y,1/6+z
1/3+x,2/3+x-y,1/6+z
1/3-y,2/3-x,1/6+z
loop_
_atom_site_type_symbol
_atom_site_label
_atom_site_fract_x
_atom_site_fract_y
_atom_site_fract_z
Si Si1 0.163413 0.639030 0.200735
Si Si2 0.399633 0.333334 0.583334
O O1 0.150573 0.666667 0.416667
O O2 0.238246 0.718499 0.114602
O O3 0.089726 0.613609 0.054562
O O4 0.378813 0.378813 0.750000
#
# Coordination Sequence:
#
# PCOD9579723 Si02
#       2
#    36  18
#     4  12  24  47  78 114 144 182 235 306 376 430
#     4  12  28  50  70 104 150 196 250 292 348 428
#
# _framework density 24.420611000000001
#
# number of rings (size 3 to 8) (size 9 to 14) (size 15 to 20)
#    0.000    0.000    6.667    2.667    0.000    2.667 
#    6.000    0.000    0.000    0.000    0.000    0.000 
#    0.000    0.000    0.000    0.000    0.000    0.000 
#
# Total GULP energy -100698.111497 kJ/mol
# GULP energy per Si atom -5594.339528 kJ/mol
# Density = 2.436503 g / cm^3
# Si number density = 24.420611 Si / 1000 Ang^3
#
#
#
# Elastic Constant Matrix: (Units=GPa)
#
#
# Indices 1 2 3 4 5 6 
#
# 1 81.3997 57.8815 58.1850 10.0535 0.0301 0.0094
# 2 57.8815 81.3749 58.1110 -10.0442 -0.0009 0.0009
# 3 58.1850 58.1110 205.1307 0.0164 0.0475 0.0314
# 4 10.0535 -10.0442 0.0164 44.1236 0.0125 0.0044
# 5 0.0301 -0.0009 0.0475 0.0125 44.1478 10.0509
# 6 0.0094 0.0009 0.0314 0.0044 10.0509 11.7578
#
#
#
# Elastic Compliance Matrix: (Units=1/GPa)
#
#
# Indices 1 2 3 4 5 6 
#
# 1 0.031123 -0.021711 -0.002676 -0.012033 -0.000016 0.000002
# 2 -0.021711 0.031114 -0.002657 0.012031 0.000014 0.000006
# 3 -0.002676 -0.002657 0.006387 0.000003 -0.000002 -0.000013
# 4 -0.012033 0.012031 0.000003 0.028144 0.000001 -0.000003
# 5 -0.000016 0.000014 -0.000002 0.000001 0.028125 -0.024042
# 6 0.000002 0.000006 -0.000013 -0.000003 -0.024042 0.105602
#
#
# Mechanical properties :
#
#
# Convention : Reuss Voigt Hill
#
# Bulk Modulus (GPa) = 68.80180 79.58447 74.19313
# Shear Modulus (GPa) = 17.27541 32.92101 25.09821
#
# Velocity S-wave (km/s) = 2.66261 3.67561 3.20933
# Velocity P-wave (km/s) = 6.13901 7.11852 6.64683
#
# Compressibility (1/GPa) = 0.01453450
#
# Stress axis : x y z
#
# Youngs Moduli (GPa) = 32.13082 32.13958 156.57419
#
# Poissons Ratio (x) = 0.69780 0.41905
# Poissons Ratio (y) = 0.69761 0.41600
# Poissons Ratio (z) = 0.08599 0.08539
#
# Static dielectric constant tensor:
#      x y z
#    x 1.917870 0.000000 -0.000010 
#    y 0.000000 1.917870 0.000000 
#    z -0.000010 0.000000 2.040740 
# 
# From -- ./inp_files/222.got.cif
#   From: 2010.05.17/outbox.cif.g08.bks.cpg/sg167_1_cif.got.tgz:222.got - 2010.05.20 11:09:15.
