data_PCOD9579818
_publ_section_title
;
Structure prediction by ZEFSAII (Michael W. Deem and Ramdas Pophale) SiO2 
 PCOD9579818
Probable space group: P 61
;
_chemical_formula_sum "Si O2"
_cell_formula_units_Z 42
_cell_length_a 18.801173
_cell_length_b 18.801173
_cell_length_c 9.793999
_cell_angle_alpha 90.000000
_cell_angle_beta 90.000000
_cell_angle_gamma 120.000000
_cell_volume 2998.199851
_symmetry_space_group_name_H-M "P 61"
_symmetry_group_IT_number 169
_symmetry_cell_setting 'hexagonal'
loop_
_space_group_symop_operation_xyz
x,y,z
x-y,x,1/6+z
-y,x-y,1/3+z
-x,-y,1/2+z
-x+y,-x,2/3+z
y,-x+y,5/6+z
loop_
_atom_site_type_symbol
_atom_site_label
_atom_site_fract_x
_atom_site_fract_y
_atom_site_fract_z
Si Si1 0.571211 0.980054 0.089440
Si Si2 0.515326 0.157069 0.056878
Si Si3 0.770418 0.426578 0.771151
Si Si4 0.521112 0.073620 0.301030
Si Si5 0.317446 0.849384 0.510319
Si Si6 0.835202 0.310254 0.110521
Si Si7 0.439869 0.668461 0.915131
O O1 0.566569 0.899994 0.155113
O O2 0.528834 0.007175 0.208419
O O3 0.523538 0.959602 0.945222
O O4 0.658603 0.059083 0.053123
O O5 0.547237 0.253402 0.055769
O O6 0.480388 0.112371 0.201113
O O7 0.597807 0.150964 0.042121
O O8 0.456074 0.122617 0.926433
O O9 0.849860 0.459117 0.677258
O O10 0.725399 0.326735 0.772831
O O11 0.791949 0.460912 0.923976
O O12 0.239731 0.781050 0.591422
O O13 0.306116 0.821084 0.351973
O O14 0.795727 0.369611 0.103209
#
# Coordination Sequence:
#
# PCOD9579818 Si02
#       7
#     6   6   6   6   6   6   6
#     4  11  22  33  43  60  85 114 145 178 231 276
#     4  10  19  29  46  67  85 109 151 187 223 259
#     4  12  18  28  47  68  86 115 156 194 224 261
#     4  11  21  31  42  61  89 115 143 184 229 262
#     4  10  20  31  46  62  83 112 145 186 226 271
#     4  11  19  34  47  60  86 111 143 190 229 267
#     4  11  17  28  45  66  84 110 149 191 226 250
#
# _framework density 14.008405
#
# number of rings (size 3 to 8) (size 9 to 14) (size 15 to 20)
#    0.000    1.143    5.714    5.143    0.000    0.000 
#    0.000    0.000    0.000    0.000    0.000    0.000 
#    0.000    0.000    0.000    0.000    0.000    5.714 
#
# Total GULP energy -233994.352342 kJ/mol
# GULP energy per Si atom -5571.294103 kJ/mol
# Density = 1.397652 g / cm^3
# Si number density = 14.008405 Si / 1000 Ang^3
#
#
#
# Elastic Constant Matrix: (Units=GPa)
#
#
# Indices 1 2 3 4 5 6 
#
# 1 38.8803 15.1146 14.2247 0.0000 0.0000 0.0000
# 2 15.1146 38.8803 14.2247 0.0000 0.0000 0.0000
# 3 14.2247 14.2247 112.9459 0.0000 0.0000 0.0000
# 4 0.0000 0.0000 0.0000 18.5952 0.0000 0.0000
# 5 0.0000 0.0000 0.0000 0.0000 18.5952 0.0000
# 6 0.0000 0.0000 0.0000 0.0000 0.0000 11.8828
#
#
#
# Elastic Compliance Matrix: (Units=1/GPa)
#
#
# Indices 1 2 3 4 5 6 
#
# 1 0.030957 -0.011120 -0.002498 0.000000 0.000000 0.000000
# 2 -0.011120 0.030957 -0.002498 0.000000 0.000000 0.000000
# 3 -0.002498 -0.002498 0.009483 0.000000 0.000000 0.000000
# 4 0.000000 0.000000 0.000000 0.053777 0.000000 0.000000
# 5 0.000000 0.000000 0.000000 0.000000 0.053777 0.000000
# 6 0.000000 0.000000 0.000000 0.000000 0.000000 0.084155
#
#
# Mechanical properties :
#
#
# Convention : Reuss Voigt Hill
#
# Bulk Modulus (GPa) = 25.53419 30.87049 28.20234
# Shear Modulus (GPa) = 16.21296 19.62414 17.91855
#
# Velocity S-wave (km/s) = 3.40571 3.74690 3.58037
# Velocity P-wave (km/s) = 5.80797 6.38780 6.10477
#
# Compressibility (1/GPa) = 0.03916317
#
# Stress axis : x y z
#
# Youngs Moduli (GPa) = 32.30283 32.30283 105.45108
#
# Poissons Ratio (x) = 0.35922 0.26344
# Poissons Ratio (y) = 0.35922 0.26344
# Poissons Ratio (z) = 0.08070 0.08070
#
# Static dielectric constant tensor:
#      x y z
#    x 1.470930 0.000000 0.000000 
#    y 0.000000 1.470930 0.000000 
#    z 0.000000 0.000000 1.585210 
# 
# From -- ./inp_files/706.got.cif
#   From: 2010.05.17/outbox.cif.g08.bks.cpg/sg169_cif.got.tgz:706.got - 2010.05.20 11:12:54.
