data_PCOD9579151
_publ_section_title
;
Structure prediction by ZEFSAII (Michael W. Deem and Ramdas Pophale) SiO2 
 PCOD9579151
Probable space group: R -3 M
;
_chemical_formula_sum "Si O2"
_cell_formula_units_Z 252
_cell_length_a 29.859497
_cell_length_b 29.859497
_cell_length_c 18.719072
_cell_angle_alpha 90.000000
_cell_angle_beta 90.000000
_cell_angle_gamma 120.000000
_cell_volume 14453.729460
_symmetry_space_group_name_H-M "R -3 M"
_symmetry_group_IT_number 166
_symmetry_cell_setting 'hexagonal'
loop_
_space_group_symop_operation_xyz
x,y,z
-y,x-y,z
-x+y,-x,z
x-y,-y,-z
-x,-x+y,-z
y,x,-z
-x,-y,-z
y,-x+y,-z
x-y,x,-z
-x+y,y,z
x,x-y,z
-y,-x,z
2/3+x,1/3+y,1/3+z
2/3-y,1/3+x-y,1/3+z
2/3-x+y,1/3-x,1/3+z
2/3+x-y,1/3-y,1/3-z
2/3-x,1/3-x+y,1/3-z
2/3+y,1/3+x,1/3-z
2/3-x,1/3-y,1/3-z
2/3+y,1/3-x+y,1/3-z
2/3+x-y,1/3+x,1/3-z
2/3-x+y,1/3+y,1/3+z
2/3+x,1/3+x-y,1/3+z
2/3-y,1/3-x,1/3+z
1/3+x,2/3+y,2/3+z
1/3-y,2/3+x-y,2/3+z
1/3-x+y,2/3-x,2/3+z
1/3+x-y,2/3-y,2/3-z
1/3-x,2/3-x+y,2/3-z
1/3+y,2/3+x,2/3-z
1/3-x,2/3-y,2/3-z
1/3+y,2/3-x+y,2/3-z
1/3+x-y,2/3+x,2/3-z
1/3-x+y,2/3+y,2/3+z
1/3+x,2/3+x-y,2/3+z
1/3-y,2/3-x,2/3+z
loop_
_atom_site_type_symbol
_atom_site_label
_atom_site_fract_x
_atom_site_fract_y
_atom_site_fract_z
Si Si1 0.656472 0.721435 0.630324
Si Si2 0.333265 0.772454 0.584611
Si Si3 0.085130 0.376342 0.270940
Si Si4 0.634174 0.764104 0.495842
Si Si5 0.869873 0.632718 0.098819
Si Si6 0.141453 0.963631 0.785191
Si Si7 0.388879 0.882981 0.962523
O O1 0.619037 0.666667 0.666667
O O2 0.703143 0.717536 0.592141
O O3 0.627790 0.737124 0.571818
O O4 0.682383 0.762952 0.694017
O O5 0.379285 0.758569 0.580023
O O6 0.278073 0.721928 0.569158
O O7 0.333334 0.788676 0.666667
O O8 0.347216 0.817772 0.528124
O O9 0.065896 0.333334 0.333334
O O10 0.100894 0.351361 0.207472
O O11 0.133371 0.426429 0.304940
O O12 0.640788 0.820394 0.504709
O O13 0.587083 0.733640 0.440115
O O14 0.819906 0.639811 0.090286
O O15 0.901853 0.666667 0.166667
O O16 0.848075 0.572517 0.115787
O O17 0.085320 0.914681 0.769834
O O18 0.161246 0.009009 0.727551
O O19 0.441531 0.883062 0.977631
#
# Coordination Sequence:
#
# PCOD9579151 Si02
#       7
#    36  36  36  36  36  36  36
#     4  11  22  34  56  79 106 139 177 221 259 313
#     4   9  17  31  52  78 107 138 173 215 263 312
#     4   9  18  33  54  79 105 138 172 213 264 313
#     4  10  21  36  54  79 108 137 175 221 270 317
#     4  10  22  39  55  71 100 142 181 215 259 313
#     4  10  20  35  53  73 102 139 177 216 260 315
#     4  10  19  34  55  79 107 137 174 219 269 319
#
# _framework density 17.434946
#
# number of rings (size 3 to 8) (size 9 to 14) (size 15 to 20)
#    0.000    2.143    1.429    1.857    2.000    2.286 
#    2.571    0.000    0.000    0.286    0.000    0.000 
#    0.000    0.000    0.000    0.000    0.000    5.286 
#
# Total GULP energy -468718.641717 kJ/mol
# GULP energy per Si atom -5579.983830 kJ/mol
# Density = 1.739526 g / cm^3
# Si number density = 17.434946 Si / 1000 Ang^3
#
#
#
# Elastic Constant Matrix: (Units=GPa)
#
#
# Indices 1 2 3 4 5 6 
#
# 1 44.3749 15.8110 25.4760 -4.0364 -0.0002 0.0000
# 2 15.8110 44.3749 25.4760 4.0364 0.0002 0.0000
# 3 25.4760 25.4760 53.8876 0.0000 0.0000 0.0000
# 4 -4.0364 4.0364 0.0000 25.5913 0.0000 0.0002
# 5 -0.0002 0.0002 0.0000 0.0000 25.5913 -4.0364
# 6 0.0000 0.0000 0.0000 0.0002 -4.0364 14.2820
#
#
#
# Elastic Compliance Matrix: (Units=1/GPa)
#
#
# Indices 1 2 3 4 5 6 
#
# 1 0.032173 -0.004470 -0.013097 0.005779 0.000000 0.000000
# 2 -0.004470 0.032173 -0.013097 -0.005779 0.000000 0.000000
# 3 -0.013097 -0.013097 0.030940 0.000000 0.000000 0.000000
# 4 0.005779 -0.005779 0.000000 0.040899 0.000000 0.000000
# 5 0.000000 0.000000 0.000000 0.000000 0.040899 0.011559
# 6 0.000000 0.000000 0.000000 0.000000 0.011559 0.073285
#
#
# Mechanical properties :
#
#
# Convention : Reuss Voigt Hill
#
# Bulk Modulus (GPa) = 29.44760 30.68486 30.06623
# Shear Modulus (GPa) = 15.47916 18.15122 16.81519
#
# Velocity S-wave (km/s) = 2.98287 3.23008 3.10893
# Velocity P-wave (km/s) = 5.36563 5.61686 5.49268
#
# Compressibility (1/GPa) = 0.03395863
#
# Stress axis : x y z
#
# Youngs Moduli (GPa) = 31.08238 31.08238 32.32020
#
# Poissons Ratio (x) = 0.13894 0.42329
# Poissons Ratio (y) = 0.13894 0.42329
# Poissons Ratio (z) = 0.40708 0.40708
#
# Static dielectric constant tensor:
#      x y z
#    x 1.594800 0.000000 0.000000 
#    y 0.000000 1.594800 0.000000 
#    z 0.000000 0.000000 1.581580 
# 
# From -- ./inp_files/5857.got.cif
#   From: 2010.05.17/outbox.cif.g08.bks.cpg/sg166_3_cif.got.tgz:5857.got - 2010.05.20 11:04:41.
