data_PCOD9579094
_publ_section_title
;
Structure prediction by ZEFSAII (Michael W. Deem and Ramdas Pophale) SiO2 
 PCOD9579094
Probable space group: R -3 M
;
_chemical_formula_sum "Si O2"
_cell_formula_units_Z 216
_cell_length_a 25.929238
_cell_length_b 25.929238
_cell_length_c 21.665808
_cell_angle_alpha 90.000000
_cell_angle_beta 90.000000
_cell_angle_gamma 120.000000
_cell_volume 12614.935373
_symmetry_space_group_name_H-M "R -3 M"
_symmetry_group_IT_number 166
_symmetry_cell_setting 'hexagonal'
loop_
_space_group_symop_operation_xyz
x,y,z
-y,x-y,z
-x+y,-x,z
x-y,-y,-z
-x,-x+y,-z
y,x,-z
-x,-y,-z
y,-x+y,-z
x-y,x,-z
-x+y,y,z
x,x-y,z
-y,-x,z
2/3+x,1/3+y,1/3+z
2/3-y,1/3+x-y,1/3+z
2/3-x+y,1/3-x,1/3+z
2/3+x-y,1/3-y,1/3-z
2/3-x,1/3-x+y,1/3-z
2/3+y,1/3+x,1/3-z
2/3-x,1/3-y,1/3-z
2/3+y,1/3-x+y,1/3-z
2/3+x-y,1/3+x,1/3-z
2/3-x+y,1/3+y,1/3+z
2/3+x,1/3+x-y,1/3+z
2/3-y,1/3-x,1/3+z
1/3+x,2/3+y,2/3+z
1/3-y,2/3+x-y,2/3+z
1/3-x+y,2/3-x,2/3+z
1/3+x-y,2/3-y,2/3-z
1/3-x,2/3-x+y,2/3-z
1/3+y,2/3+x,2/3-z
1/3-x,2/3-y,2/3-z
1/3+y,2/3-x+y,2/3-z
1/3+x-y,2/3+x,2/3-z
1/3-x+y,2/3+y,2/3+z
1/3+x,2/3+x-y,2/3+z
1/3-y,2/3-x,2/3+z
loop_
_atom_site_type_symbol
_atom_site_label
_atom_site_fract_x
_atom_site_fract_y
_atom_site_fract_z
Si Si1 0.785088 0.953383 0.444572
Si Si2 0.040513 0.766964 0.910510
Si Si3 0.585716 0.695276 0.889140
Si Si4 0.765838 0.112845 0.596191
Si Si5 0.773767 0.944620 0.648621
Si Si6 0.300158 0.207942 0.958135
O O1 0.798277 0.899139 0.447508
O O2 0.713578 0.923557 0.442634
O O3 0.813604 0.000000 0.500000
O O4 0.808664 0.992449 0.382510
O O5 0.066230 0.722492 0.900507
O O6 0.048338 0.800932 0.846340
O O7 0.969997 0.730072 0.922890
O O8 0.074575 0.801118 0.972269
O O9 0.557872 0.625001 0.898773
O O10 0.561077 0.717568 0.944324
O O11 0.819584 0.180417 0.600773
O O12 0.754053 0.087386 0.666667
O O13 0.790548 0.895274 0.629604
O O14 0.704914 0.918654 0.627797
O O15 0.289775 0.144888 0.933867
#
# Coordination Sequence:
#
# PCOD9579094 Si02
#       6
#    36  36  36  36  36  36
#     4  11  23  37  53  74 102 134 170 213 258 304
#     4   9  19  30  46  71  95 135 165 190 239 289
#     4  10  19  31  48  69 101 130 163 203 244 295
#     4  10  20  32  48  72 100 128 159 201 252 300
#     4  10  20  34  52  72  94 127 170 212 251 294
#     4   9  18  32  48  69 100 130 164 200 233 289
#
# _framework density 17.122561000000001
#
# number of rings (size 3 to 8) (size 9 to 14) (size 15 to 20)
#    0.000    2.167    1.667    1.500    7.000    1.333 
#    0.000    3.333    0.000    3.000    0.000    0.000 
#    0.000    0.000    0.000   16.000    0.000    0.000 
#
# Total GULP energy -401547.475758 kJ/mol
# GULP energy per Si atom -5577.048274 kJ/mol
# Density = 1.708359 g / cm^3
# Si number density = 17.122561 Si / 1000 Ang^3
#
#
#
# Elastic Constant Matrix: (Units=GPa)
#
#
# Indices 1 2 3 4 5 6 
#
# 1 46.4858 13.1617 1.1193 -1.7041 0.0000 0.0000
# 2 13.1617 46.4858 1.1193 1.7041 0.0000 0.0000
# 3 1.1193 1.1193 60.1905 0.0000 0.0000 0.0000
# 4 -1.7041 1.7041 0.0000 15.5767 0.0000 0.0000
# 5 0.0000 0.0000 0.0000 0.0000 15.5767 -1.7041
# 6 0.0000 0.0000 0.0000 0.0000 -1.7041 16.6621
#
#
#
# Elastic Compliance Matrix: (Units=1/GPa)
#
#
# Indices 1 2 3 4 5 6 
#
# 1 0.023562 -0.006785 -0.000312 0.003320 0.000000 0.000000
# 2 -0.006785 0.023562 -0.000312 -0.003320 0.000000 0.000000
# 3 -0.000312 -0.000312 0.016626 0.000000 0.000000 0.000000
# 4 0.003320 -0.003320 0.000000 0.064925 0.000000 0.000000
# 5 0.000000 0.000000 0.000000 0.000000 0.064925 0.006640
# 6 0.000000 0.000000 0.000000 0.000000 0.006640 0.060696
#
#
# Mechanical properties :
#
#
# Convention : Reuss Voigt Hill
#
# Bulk Modulus (GPa) = 20.43679 20.44028 20.43854
# Shear Modulus (GPa) = 17.51775 18.74723 18.13249
#
# Velocity S-wave (km/s) = 3.20203 3.31249 3.25773
# Velocity P-wave (km/s) = 5.06282 5.15691 5.11008
#
# Compressibility (1/GPa) = 0.04893137
#
# Stress axis : x y z
#
# Youngs Moduli (GPa) = 42.44058 42.44058 60.14846
#
# Poissons Ratio (x) = 0.28798 0.01876
# Poissons Ratio (y) = 0.28798 0.01876
# Poissons Ratio (z) = 0.01324 0.01324
#
# Static dielectric constant tensor:
#      x y z
#    x 1.551330 0.000000 0.000000 
#    y 0.000000 1.551330 0.000000 
#    z 0.000000 0.000000 1.660880 
# 
# From -- ./inp_files/7151.got.cif
#   From: 2010.05.17/outbox.cif.g08.bks.cpg/sg166_4_cif.got.tgz:7151.got - 2010.05.20 11:04:41.
