data_PCOD9579118
_publ_section_title
;
Structure prediction by ZEFSAII (Michael W. Deem and Ramdas Pophale) SiO2 
 PCOD9579118
Probable space group: R -3 M
;
_chemical_formula_sum "Si O2"
_cell_formula_units_Z 216
_cell_length_a 24.183012
_cell_length_b 24.183012
_cell_length_c 21.935944
_cell_angle_alpha 90.000000
_cell_angle_beta 90.000000
_cell_angle_gamma 120.000000
_cell_volume 11109.838433
_symmetry_space_group_name_H-M "R -3 M"
_symmetry_group_IT_number 166
_symmetry_cell_setting 'hexagonal'
loop_
_space_group_symop_operation_xyz
x,y,z
-y,x-y,z
-x+y,-x,z
x-y,-y,-z
-x,-x+y,-z
y,x,-z
-x,-y,-z
y,-x+y,-z
x-y,x,-z
-x+y,y,z
x,x-y,z
-y,-x,z
2/3+x,1/3+y,1/3+z
2/3-y,1/3+x-y,1/3+z
2/3-x+y,1/3-x,1/3+z
2/3+x-y,1/3-y,1/3-z
2/3-x,1/3-x+y,1/3-z
2/3+y,1/3+x,1/3-z
2/3-x,1/3-y,1/3-z
2/3+y,1/3-x+y,1/3-z
2/3+x-y,1/3+x,1/3-z
2/3-x+y,1/3+y,1/3+z
2/3+x,1/3+x-y,1/3+z
2/3-y,1/3-x,1/3+z
1/3+x,2/3+y,2/3+z
1/3-y,2/3+x-y,2/3+z
1/3-x+y,2/3-x,2/3+z
1/3+x-y,2/3-y,2/3-z
1/3-x,2/3-x+y,2/3-z
1/3+y,2/3+x,2/3-z
1/3-x,2/3-y,2/3-z
1/3+y,2/3-x+y,2/3-z
1/3+x-y,2/3+x,2/3-z
1/3-x+y,2/3+y,2/3+z
1/3+x,2/3+x-y,2/3+z
1/3-y,2/3-x,2/3+z
loop_
_atom_site_type_symbol
_atom_site_label
_atom_site_fract_x
_atom_site_fract_y
_atom_site_fract_z
Si Si1 0.340697 0.234509 0.531796
Si Si2 0.303189 0.210473 0.056487
Si Si3 0.130098 0.685995 0.922677
Si Si4 0.452895 0.072762 0.252018
Si Si5 0.600151 0.070799 0.969827
Si Si6 0.666054 0.205150 0.482684
O O1 0.353562 0.176781 0.550298
O O2 0.397999 0.300687 0.556378
O O3 0.349918 0.240997 0.459953
O O4 0.275972 0.218292 0.566266
O O5 0.277820 0.138910 0.080546
O O6 0.378220 0.249382 0.068528
O O7 0.275049 0.251621 0.085208
O O8 0.280225 0.204632 0.986140
O O9 0.182757 0.685868 0.878476
O O10 0.122673 0.657655 0.990552
O O11 0.507228 0.143265 0.228832
O O12 0.542568 0.085136 0.973970
O O13 0.573911 0.000000 0.000000
O O14 0.602182 0.204364 0.459665
O O15 0.722912 0.277089 0.494153
#
# Coordination Sequence:
#
# PCOD9579118 Si02
#       6
#    36  36  36  36  36  36
#     4   9  17  31  52  75 101 133 176 221 263 315
#     4  11  23  37  51  74 107 149 188 225 275 337
#     4  10  19  32  52  77 112 137 173 214 280 332
#     4  10  22  37  56  74 106 148 190 232 274 327
#     4   8  14  26  48  74 102 132 170 211 259 321
#     4  11  22  39  61  84 108 141 188 243 291 329
#
# _framework density 19.442226999999999
#
# number of rings (size 3 to 8) (size 9 to 14) (size 15 to 20)
#    0.000    2.167    0.000    6.167    7.000    2.667 
#    0.000    4.167    0.000    0.000    0.000    5.833 
#    0.000    0.000    0.000    1.000    0.000   23.167 
#
# Total GULP energy -401079.408250 kJ/mol
# GULP energy per Si atom -5570.547337 kJ/mol
# Density = 1.939798 g / cm^3
# Si number density = 19.442227 Si / 1000 Ang^3
#
#
#
# Elastic Constant Matrix: (Units=GPa)
#
#
# Indices 1 2 3 4 5 6 
#
# 1 65.5794 27.0596 16.0518 6.0665 0.0000 0.0000
# 2 27.0596 65.5794 16.0518 -6.0665 0.0000 0.0000
# 3 16.0518 16.0518 63.5802 0.0000 0.0000 0.0000
# 4 6.0665 -6.0665 0.0000 14.5636 0.0000 0.0000
# 5 0.0000 0.0000 0.0000 0.0000 14.5636 6.0665
# 6 0.0000 0.0000 0.0000 0.0000 6.0665 19.2599
#
#
#
# Elastic Compliance Matrix: (Units=1/GPa)
#
#
# Indices 1 2 3 4 5 6 
#
# 1 0.020855 -0.009026 -0.002987 -0.012447 0.000000 0.000000
# 2 -0.009026 0.020855 -0.002987 0.012447 0.000000 0.000000
# 3 -0.002987 -0.002987 0.017236 0.000000 0.000000 0.000000
# 4 -0.012447 0.012447 0.000000 0.079034 0.000000 0.000000
# 5 0.000000 0.000000 0.000000 0.000000 0.079034 -0.024894
# 6 0.000000 0.000000 0.000000 0.000000 -0.024894 0.059762
#
#
# Mechanical properties :
#
#
# Convention : Reuss Voigt Hill
#
# Bulk Modulus (GPa) = 34.54344 34.78507 34.66425
# Shear Modulus (GPa) = 15.80152 18.71579 17.25865
#
# Velocity S-wave (km/s) = 2.85396 3.10600 2.98264
# Velocity P-wave (km/s) = 5.35405 5.54918 5.45249
#
# Compressibility (1/GPa) = 0.02894906
#
# Stress axis : x y z
#
# Youngs Moduli (GPa) = 47.94924 47.94924 58.01754
#
# Poissons Ratio (x) = 0.43278 0.17327
# Poissons Ratio (y) = 0.43278 0.17327
# Poissons Ratio (z) = 0.14320 0.14320
#
# Static dielectric constant tensor:
#      x y z
#    x 1.695210 0.000000 0.000000 
#    y 0.000000 1.695210 0.000000 
#    z 0.000000 0.000000 1.780990 
# 
# From -- ./inp_files/8635.got.cif
#   From: 2010.05.17/outbox.cif.g08.bks.cpg/sg166_5_cif.got.tgz:8635.got - 2010.05.20 11:04:41.
