data_PCOD9579421
_publ_section_title
;
Structure prediction by ZEFSAII (Michael W. Deem and Ramdas Pophale) SiO2 
 PCOD9579421
Probable space group: R -3 C 
;
_chemical_formula_sum "Si O2"
_cell_formula_units_Z 210
_cell_length_a 29.328846
_cell_length_b 29.328846
_cell_length_c 16.255159
_cell_angle_alpha 90.000000
_cell_angle_beta 90.000000
_cell_angle_gamma 120.000000
_cell_volume 12109.098277
_symmetry_space_group_name_H-M "R -3 C "
_symmetry_group_IT_number 167
_symmetry_cell_setting 'hexagonal'
loop_
_space_group_symop_operation_xyz
x,y,z
-y,x-y,z
-x+y,-x,z
x-y,-y,1/2-z
-x,-x+y,1/2-z
y,x,1/2-z
-x,-y,-z
y,-x+y,-z
x-y,x,-z
-x+y,y,1/2+z
x,x-y,1/2+z
-y,-x,1/2+z
2/3+x,1/3+y,1/3+z
2/3-y,1/3+x-y,1/3+z
2/3-x+y,1/3-x,1/3+z
2/3+x-y,1/3-y,5/6-z
2/3-x,1/3-x+y,5/6-z
2/3+y,1/3+x,5/6-z
2/3-x,1/3-y,1/3-z
2/3+y,1/3-x+y,1/3-z
2/3+x-y,1/3+x,1/3-z
2/3-x+y,1/3+y,5/6+z
2/3+x,1/3+x-y,5/6+z
2/3-y,1/3-x,5/6+z
1/3+x,2/3+y,2/3+z
1/3-y,2/3+x-y,2/3+z
1/3-x+y,2/3-x,2/3+z
1/3+x-y,2/3-y,1/6-z
1/3-x,2/3-x+y,1/6-z
1/3+y,2/3+x,1/6-z
1/3-x,2/3-y,2/3-z
1/3+y,2/3-x+y,2/3-z
1/3+x-y,2/3+x,2/3-z
1/3-x+y,2/3+y,1/6+z
1/3+x,2/3+x-y,1/6+z
1/3-y,2/3-x,1/6+z
loop_
_atom_site_type_symbol
_atom_site_label
_atom_site_fract_x
_atom_site_fract_y
_atom_site_fract_z
Si Si1 0.270808 0.458246 0.035647
Si Si2 0.793740 0.696623 0.761988
Si Si3 0.197517 0.818743 0.153666
Si Si4 0.000000 0.000000 0.595071
Si Si5 0.563884 0.279518 0.529580
Si Si6 0.591658 0.704329 0.260707
Si Si7 0.714438 0.047771 0.416667
O O1 0.234458 0.424782 0.112478
O O2 0.328887 0.464999 0.049391
O O3 0.244495 0.419121 0.958545
O O4 0.268957 0.510419 0.013481
O O5 0.807674 0.650642 0.771195
O O6 0.777569 0.708939 0.675097
O O7 0.751344 0.681451 0.836042
O O8 0.181409 0.848076 0.083334
O O9 0.255173 0.852000 0.190966
O O10 0.038481 0.057798 0.628957
O O11 0.000000 0.000000 0.500000
O O12 0.585312 0.333334 0.583334
O O13 0.568054 0.234721 0.583334
O O14 0.618934 0.671747 0.229829
#
# Coordination Sequence:
#
# PCOD9579421 Si02
#       7
#    36  36  36  12  36  36  18
#     4  10  19  37  57  81 110 149 189 236 287 343
#     4  10  18  37  59  78 111 147 189 233 278 345
#     4  10  21  38  55  79 123 150 180 242 301 332
#     4   9  19  32  49  78 112 146 184 243 301 326
#     4   9  18  34  56  79 109 150 197 238 282 347
#     4  11  21  33  61  86 103 153 193 230 284 349
#     4  10  18  36  58  86 108 140 198 236 274 340
#
# _framework density 17.342331999999999
#
# number of rings (size 3 to 8) (size 9 to 14) (size 15 to 20)
#    0.000    2.057    4.286    4.286    0.000    2.743 
#    0.000    3.429   11.314    0.000    0.000    0.000 
#    0.000    0.000    0.000    0.000    0.000    0.000 
#
# Total GULP energy -389726.367944 kJ/mol
# GULP energy per Si atom -5567.519542 kJ/mol
# Density = 1.730286 g / cm^3
# Si number density = 17.342332 Si / 1000 Ang^3
#
#
#
# Elastic Constant Matrix: (Units=GPa)
#
#
# Indices 1 2 3 4 5 6 
#
# 1 101.8923 59.3728 33.7550 3.9085 0.0000 0.0000
# 2 59.3728 101.8923 33.7550 -3.9085 0.0000 0.0000
# 3 33.7550 33.7550 73.9379 0.0000 0.0000 0.0000
# 4 3.9085 -3.9085 0.0000 12.8574 0.0000 0.0000
# 5 0.0000 0.0000 0.0000 0.0000 12.8574 3.9085
# 6 0.0000 0.0000 0.0000 0.0000 3.9085 21.2597
#
#
#
# Elastic Compliance Matrix: (Units=1/GPa)
#
#
# Indices 1 2 3 4 5 6 
#
# 1 0.016288 -0.008622 -0.003500 -0.007573 0.000000 0.000000
# 2 -0.008622 0.016288 -0.003500 0.007573 0.000000 0.000000
# 3 -0.003500 -0.003500 0.016720 0.000000 0.000000 0.000000
# 4 -0.007573 0.007573 0.000000 0.082381 0.000000 0.000000
# 5 0.000000 0.000000 0.000000 0.000000 0.082380 -0.015145
# 6 0.000000 0.000000 0.000000 0.000000 -0.015145 0.049822
#
#
# Mechanical properties :
#
#
# Convention : Reuss Voigt Hill
#
# Bulk Modulus (GPa) = 55.39144 59.05425 57.22285
# Shear Modulus (GPa) = 16.60347 19.45087 18.02717
#
# Velocity S-wave (km/s) = 3.09754 3.35264 3.22761
# Velocity P-wave (km/s) = 6.69346 7.00806 6.85256
#
# Compressibility (1/GPa) = 0.01805333
#
# Stress axis : x y z
#
# Youngs Moduli (GPa) = 61.39310 61.39310 59.80713
#
# Poissons Ratio (x) = 0.52935 0.20931
# Poissons Ratio (y) = 0.52935 0.20931
# Poissons Ratio (z) = 0.21486 0.21486
#
# Static dielectric constant tensor:
#      x y z
#    x 1.618140 0.000000 0.000000 
#    y 0.000000 1.618140 0.000000 
#    z 0.000000 0.000000 1.593870 
# 
# From -- ./inp_files/2490.got.cif
#   From: 2010.05.17/outbox.cif.g08.bks.cpg/sg167_2_cif.got.tgz:2490.got - 2010.05.20 11:09:15.
