data_PCOD9579619
_publ_section_title
;
Structure prediction by ZEFSAII (Michael W. Deem and Ramdas Pophale) SiO2 
 PCOD9579619
Probable space group: R -3 C 
;
_chemical_formula_sum "Si O2"
_cell_formula_units_Z 144
_cell_length_a 19.397937
_cell_length_b 19.397937
_cell_length_c 22.961804
_cell_angle_alpha 90.000000
_cell_angle_beta 90.000000
_cell_angle_gamma 120.000000
_cell_volume 7482.517242
_symmetry_space_group_name_H-M "R -3 C "
_symmetry_group_IT_number 167
_symmetry_cell_setting 'hexagonal'
loop_
_space_group_symop_operation_xyz
x,y,z
-y,x-y,z
-x+y,-x,z
x-y,-y,1/2-z
-x,-x+y,1/2-z
y,x,1/2-z
-x,-y,-z
y,-x+y,-z
x-y,x,-z
-x+y,y,1/2+z
x,x-y,1/2+z
-y,-x,1/2+z
2/3+x,1/3+y,1/3+z
2/3-y,1/3+x-y,1/3+z
2/3-x+y,1/3-x,1/3+z
2/3+x-y,1/3-y,5/6-z
2/3-x,1/3-x+y,5/6-z
2/3+y,1/3+x,5/6-z
2/3-x,1/3-y,1/3-z
2/3+y,1/3-x+y,1/3-z
2/3+x-y,1/3+x,1/3-z
2/3-x+y,1/3+y,5/6+z
2/3+x,1/3+x-y,5/6+z
2/3-y,1/3-x,5/6+z
1/3+x,2/3+y,2/3+z
1/3-y,2/3+x-y,2/3+z
1/3-x+y,2/3-x,2/3+z
1/3+x-y,2/3-y,1/6-z
1/3-x,2/3-x+y,1/6-z
1/3+y,2/3+x,1/6-z
1/3-x,2/3-y,2/3-z
1/3+y,2/3-x+y,2/3-z
1/3+x-y,2/3+x,2/3-z
1/3-x+y,2/3+y,1/6+z
1/3+x,2/3+x-y,1/6+z
1/3-y,2/3-x,1/6+z
loop_
_atom_site_type_symbol
_atom_site_label
_atom_site_fract_x
_atom_site_fract_y
_atom_site_fract_z
Si Si1 0.079681 0.761401 0.410842
Si Si2 0.484415 0.791640 0.701443
Si Si3 0.259830 0.178277 0.218515
Si Si4 0.767290 0.378832 0.995908
O O1 0.039328 0.666667 0.416667
O O2 0.036558 0.800020 0.447834
O O3 0.080503 0.779283 0.341896
O O4 0.173784 0.814731 0.424430
O O5 0.485417 0.728976 0.655320
O O6 0.453456 0.740983 0.761268
O O7 0.235810 0.235810 0.250000
O O8 0.179756 0.099664 0.198552
O O9 0.714245 0.419302 0.008681
#
# Coordination Sequence:
#
# PCOD9579619 Si02
#       4
#    36  36  36  36
#     4  10  25  42  60  91 130 162 206 253 313 375
#     4  11  19  37  67  94 123 158 199 266 317 362
#     4  10  23  41  61  83 125 166 205 251 302 367
#     4   9  18  32  57  95 116 146 207 255 308 355
#
# _framework density 19.244859999999999
#
# number of rings (size 3 to 8) (size 9 to 14) (size 15 to 20)
#    0.500    1.500    2.500    0.250    7.000    0.000 
#    0.000    0.000    0.000    0.000    0.000    0.000 
#    0.000    0.000    0.000    0.000    0.000    0.000 
#
# Total GULP energy -267544.567894 kJ/mol
# GULP energy per Si atom -5573.845164 kJ/mol
# Density = 1.920106 g / cm^3
# Si number density = 19.244860 Si / 1000 Ang^3
#
#
#
# Elastic Constant Matrix: (Units=GPa)
#
#
# Indices 1 2 3 4 5 6 
#
# 1 83.9093 27.9440 6.9940 6.5860 -0.0002 0.0000
# 2 27.9440 83.9093 6.9940 -6.5860 0.0002 0.0000
# 3 6.9940 6.9940 38.3114 0.0000 0.0000 0.0000
# 4 6.5860 -6.5860 0.0000 19.5180 0.0000 0.0002
# 5 -0.0002 0.0002 0.0000 0.0000 19.5180 6.5860
# 6 0.0000 0.0000 0.0000 0.0002 6.5860 27.9827
#
#
#
# Elastic Compliance Matrix: (Units=1/GPa)
#
#
# Indices 1 2 3 4 5 6 
#
# 1 0.014279 -0.005130 -0.001670 -0.006549 0.000000 0.000000
# 2 -0.005130 0.014279 -0.001670 0.006549 0.000000 0.000000
# 3 -0.001670 -0.001670 0.026712 0.000000 0.000000 0.000000
# 4 -0.006549 0.006549 0.000000 0.055655 0.000000 0.000000
# 5 0.000000 0.000000 0.000000 0.000000 0.055655 -0.013099
# 6 0.000000 0.000000 0.000000 0.000000 -0.013099 0.038819
#
#
# Mechanical properties :
#
#
# Convention : Reuss Voigt Hill
#
# Bulk Modulus (GPa) = 26.08983 32.22154 29.15569
# Shear Modulus (GPa) = 21.26600 24.35029 22.80814
#
# Velocity S-wave (km/s) = 3.32779 3.56095 3.44634
# Velocity P-wave (km/s) = 5.32464 5.80400 5.56948
#
# Compressibility (1/GPa) = 0.03832911
#
# Stress axis : x y z
#
# Youngs Moduli (GPa) = 70.03091 70.03091 37.43675
#
# Poissons Ratio (x) = 0.35928 0.06253
# Poissons Ratio (y) = 0.35928 0.06253
# Poissons Ratio (z) = 0.11697 0.11697
#
# Static dielectric constant tensor:
#      x y z
#    x 1.691890 0.000000 0.000000 
#    y 0.000000 1.691890 0.000000 
#    z 0.000000 0.000000 1.677090 
# 
# From -- ./inp_files/4298.got.cif
#   From: 2010.05.17/outbox.cif.g08.bks.cpg/sg167_3_cif.got.tgz:4298.got - 2010.05.20 11:09:15.
