data_PCOD9579423
_publ_section_title
;
Structure prediction by ZEFSAII (Michael W. Deem and Ramdas Pophale) SiO2 
 PCOD9579423
Probable space group: R -3 C 
;
_chemical_formula_sum "Si O2"
_cell_formula_units_Z 180
_cell_length_a 19.395109
_cell_length_b 19.395109
_cell_length_c 26.869118
_cell_angle_alpha 90.000000
_cell_angle_beta 90.000000
_cell_angle_gamma 120.000000
_cell_volume 8753.233053
_symmetry_space_group_name_H-M "R -3 C "
_symmetry_group_IT_number 167
_symmetry_cell_setting 'hexagonal'
loop_
_space_group_symop_operation_xyz
x,y,z
-y,x-y,z
-x+y,-x,z
x-y,-y,1/2-z
-x,-x+y,1/2-z
y,x,1/2-z
-x,-y,-z
y,-x+y,-z
x-y,x,-z
-x+y,y,1/2+z
x,x-y,1/2+z
-y,-x,1/2+z
2/3+x,1/3+y,1/3+z
2/3-y,1/3+x-y,1/3+z
2/3-x+y,1/3-x,1/3+z
2/3+x-y,1/3-y,5/6-z
2/3-x,1/3-x+y,5/6-z
2/3+y,1/3+x,5/6-z
2/3-x,1/3-y,1/3-z
2/3+y,1/3-x+y,1/3-z
2/3+x-y,1/3+x,1/3-z
2/3-x+y,1/3+y,5/6+z
2/3+x,1/3+x-y,5/6+z
2/3-y,1/3-x,5/6+z
1/3+x,2/3+y,2/3+z
1/3-y,2/3+x-y,2/3+z
1/3-x+y,2/3-x,2/3+z
1/3+x-y,2/3-y,1/6-z
1/3-x,2/3-x+y,1/6-z
1/3+y,2/3+x,1/6-z
1/3-x,2/3-y,2/3-z
1/3+y,2/3-x+y,2/3-z
1/3+x-y,2/3+x,2/3-z
1/3-x+y,2/3+y,1/6+z
1/3+x,2/3+x-y,1/6+z
1/3-y,2/3-x,1/6+z
loop_
_atom_site_type_symbol
_atom_site_label
_atom_site_fract_x
_atom_site_fract_y
_atom_site_fract_z
Si Si1 0.917969 0.666667 0.916667
Si Si2 0.081687 0.180709 0.941221
Si Si3 0.621765 0.949076 0.846673
Si Si4 0.570320 0.155735 0.771930
Si Si5 0.029410 0.533043 0.908485
Si Si6 0.333334 0.389998 0.416667
O O1 0.973809 0.670606 0.961868
O O2 0.832317 0.590065 0.918348
O O3 0.108803 0.117328 0.927489
O O4 0.143376 0.267490 0.921863
O O5 0.991848 0.146992 0.924061
O O6 0.084547 0.187203 0.001350
O O7 0.615809 0.873157 0.876376
O O8 0.653969 0.960975 0.791352
O O9 0.542400 0.950948 0.861109
O O10 0.066421 0.475711 0.902890
#
# Coordination Sequence:
#
# PCOD9579423 Si02
#       6
#    18  36  36  36  36  18
#     4  10  18  39  60  84 125 166 210 272 316 385
#     4  10  19  34  52  88 126 163 212 259 332 398
#     4  10  22  44  68  91 136 174 219 280 329 388
#     4  10  19  31  56  81 125 167 202 266 330 391
#     4  10  22  42  64  97 134 174 223 278 328 393
#     4  12  24  41  72 102 127 178 226 272 340 399
#
# _framework density 20.563828999999998
#
# number of rings (size 3 to 8) (size 9 to 14) (size 15 to 20)
#    0.000    2.000    4.000    2.200    2.800    2.400 
#    3.600    2.000    0.000    3.200    0.000    0.000 
#    0.000    0.000    0.000    0.000    0.000    0.000 
#
# Total GULP energy -335025.240010 kJ/mol
# GULP energy per Si atom -5583.754000 kJ/mol
# Density = 2.051703 g / cm^3
# Si number density = 20.563829 Si / 1000 Ang^3
#
#
#
# Elastic Constant Matrix: (Units=GPa)
#
#
# Indices 1 2 3 4 5 6 
#
# 1 123.1618 64.3314 24.1635 12.1411 -0.0014 0.0000
# 2 64.3314 123.1618 24.1635 -12.1411 0.0014 0.0000
# 3 24.1635 24.1635 40.3313 0.0000 0.0000 0.0000
# 4 12.1411 -12.1411 0.0000 -10.3186 0.0000 0.0014
# 5 -0.0014 0.0014 0.0000 0.0000 -10.3186 12.1411
# 6 0.0000 0.0000 0.0000 0.0014 12.1411 29.4152
#
#
#
# Elastic Compliance Matrix: (Units=1/GPa)
#
#
# Indices 1 2 3 4 5 6 
#
# 1 0.008875 -0.002567 -0.003779 0.013462 -0.000002 0.000000
# 2 -0.002567 0.008875 -0.003779 -0.013462 0.000002 0.000000
# 3 -0.003779 -0.003779 0.029323 0.000000 0.000000 0.000000
# 4 0.013462 -0.013462 0.000000 -0.065232 0.000000 0.000003
# 5 -0.000002 0.000002 0.000000 0.000000 -0.065232 0.026925
# 6 0.000000 0.000000 0.000000 0.000003 0.026925 0.022883
#
#
# Mechanical properties :
#
#
# Convention : Reuss Voigt Hill
#
# Bulk Modulus (GPa) = 37.28297 56.88576 47.08437
# Shear Modulus (GPa) = -159.64934 13.35536 -73.14699
#
# Velocity S-wave (km/s) = -8.82069 2.55121 -5.97059
# Velocity P-wave (km/s) = 9.25039 6.03335 4.95824
#
# Compressibility (1/GPa) = 0.02682190
#
# Stress axis : x y z
#
# Youngs Moduli (GPa) = 112.68222 112.68222 34.10306
#
# Poissons Ratio (x) = 0.28925 0.12888
# Poissons Ratio (y) = 0.28925 0.12888
# Poissons Ratio (z) = 0.42583 0.42583
#
# Static dielectric constant tensor:
#      x y z
#    x 1.730360 0.000000 0.000000 
#    y 0.000000 1.730360 0.000000 
#    z 0.000000 0.000000 1.827440 
# 
# From -- ./inp_files/7109.got.cif
#   From: 2010.05.17/outbox.cif.g08.bks.cpg/sg167_4_cif.got.tgz:7109.got - 2010.05.20 11:09:15.
