data_PCOD9579021
_publ_section_title
;
Structure prediction by ZEFSAII (Michael W. Deem and Ramdas Pophale) SiO2 
 PCOD9579021
Probable space group: R -3 M
;
_chemical_formula_sum "Si O2"
_cell_formula_units_Z 144
_cell_length_a 23.806161
_cell_length_b 23.806161
_cell_length_c 18.832248
_cell_angle_alpha 90.000000
_cell_angle_beta 90.000000
_cell_angle_gamma 120.000000
_cell_volume 9242.969697
_symmetry_space_group_name_H-M "R -3 M"
_symmetry_group_IT_number 166
_symmetry_cell_setting 'hexagonal'
loop_
_space_group_symop_operation_xyz
x,y,z
-y,x-y,z
-x+y,-x,z
x-y,-y,-z
-x,-x+y,-z
y,x,-z
-x,-y,-z
y,-x+y,-z
x-y,x,-z
-x+y,y,z
x,x-y,z
-y,-x,z
2/3+x,1/3+y,1/3+z
2/3-y,1/3+x-y,1/3+z
2/3-x+y,1/3-x,1/3+z
2/3+x-y,1/3-y,1/3-z
2/3-x,1/3-x+y,1/3-z
2/3+y,1/3+x,1/3-z
2/3-x,1/3-y,1/3-z
2/3+y,1/3-x+y,1/3-z
2/3+x-y,1/3+x,1/3-z
2/3-x+y,1/3+y,1/3+z
2/3+x,1/3+x-y,1/3+z
2/3-y,1/3-x,1/3+z
1/3+x,2/3+y,2/3+z
1/3-y,2/3+x-y,2/3+z
1/3-x+y,2/3-x,2/3+z
1/3+x-y,2/3-y,2/3-z
1/3-x,2/3-x+y,2/3-z
1/3+y,2/3+x,2/3-z
1/3-x,2/3-y,2/3-z
1/3+y,2/3-x+y,2/3-z
1/3+x-y,2/3+x,2/3-z
1/3-x+y,2/3+y,2/3+z
1/3+x,2/3+x-y,2/3+z
1/3-y,2/3-x,2/3+z
loop_
_atom_site_type_symbol
_atom_site_label
_atom_site_fract_x
_atom_site_fract_y
_atom_site_fract_z
Si Si1 0.726183 0.799103 0.018213
Si Si2 0.084960 0.297688 0.185703
Si Si3 0.955962 0.174266 0.564832
Si Si4 0.257981 0.268284 0.691870
O O1 0.745291 0.872646 0.004686
O O2 0.659673 0.750456 0.977098
O O3 0.779739 0.779739 0.000000
O O4 0.710852 0.784709 0.101950
O O5 0.139355 0.278710 0.205939
O O6 0.117789 0.373989 0.203305
O O7 0.020555 0.258557 0.232321
O O8 0.897142 0.102859 0.581836
O O9 0.996323 0.212866 0.634156
O O10 0.000000 0.175111 0.500000
O O11 0.333334 0.302534 0.666667
#
# Coordination Sequence:
#
# PCOD9579021 Si02
#       4
#    36  36  36  36
#     4  10  20  33  50  70  98 128 158 198 248 298
#     4   9  17  30  45  64  93 129 161 195 240 290
#     4  10  17  26  42  65  91 123 162 202 239 284
#     4   9  17  27  45  66  91 120 160 199 241 286
#
# _framework density 15.579408000000001
#
# number of rings (size 3 to 8) (size 9 to 14) (size 15 to 20)
#    0.000    2.500    2.500    0.750    0.000    3.000 
#    0.000    2.500    0.000    0.500    0.000    0.000 
#    0.000    0.000    0.000    0.000    0.000    0.000 
#
# Total GULP energy -267473.423284 kJ/mol
# GULP energy per Si atom -5572.362985 kJ/mol
# Density = 1.554395 g / cm^3
# Si number density = 15.579408 Si / 1000 Ang^3
#
#
#
# Elastic Constant Matrix: (Units=GPa)
#
#
# Indices 1 2 3 4 5 6 
#
# 1 72.3722 36.4612 22.8647 -4.0790 0.0001 0.0000
# 2 36.4612 72.3722 22.8647 4.0790 -0.0001 0.0000
# 3 22.8647 22.8647 31.8390 0.0000 0.0000 0.0000
# 4 -4.0790 4.0790 0.0000 18.5691 0.0000 -0.0001
# 5 0.0001 -0.0001 0.0000 0.0000 18.5691 -4.0790
# 6 0.0000 0.0000 0.0000 -0.0001 -4.0790 17.9555
#
#
#
# Elastic Compliance Matrix: (Units=1/GPa)
#
#
# Indices 1 2 3 4 5 6 
#
# 1 0.021234 -0.008075 -0.009450 0.006438 0.000000 0.000000
# 2 -0.008075 0.021234 -0.009450 -0.006438 0.000000 0.000000
# 3 -0.009450 -0.009450 0.044981 0.000000 0.000000 0.000000
# 4 0.006438 -0.006438 0.000000 0.056681 0.000000 0.000000
# 5 0.000000 0.000000 0.000000 0.000000 0.056681 0.012876
# 6 0.000000 0.000000 0.000000 0.000000 0.012876 0.058618
#
#
# Mechanical properties :
#
#
# Convention : Reuss Voigt Hill
#
# Bulk Modulus (GPa) = 29.85167 37.88494 33.86830
# Shear Modulus (GPa) = 15.40613 17.31162 16.35888
#
# Velocity S-wave (km/s) = 3.14805 3.33706 3.24394
# Velocity P-wave (km/s) = 5.69353 6.26243 5.98474
#
# Compressibility (1/GPa) = 0.03349896
#
# Stress axis : x y z
#
# Youngs Moduli (GPa) = 47.09409 47.09409 22.23177
#
# Poissons Ratio (x) = 0.38029 0.21009
# Poissons Ratio (y) = 0.38029 0.21009
# Poissons Ratio (z) = 0.44504 0.44504
#
# Static dielectric constant tensor:
#      x y z
#    x 1.519440 0.000000 0.000000 
#    y 0.000000 1.519440 0.000000 
#    z 0.000000 0.000000 1.536200 
# 
# From -- ./inp_files/5220.got.cif
#   From: 2010.05.17/outbox.cif.g08.bks.cpg/sg166_3_cif.got.tgz:5220.got - 2010.05.20 11:04:41.
