data_PCOD9579252
_publ_section_title
;
Structure prediction by ZEFSAII (Michael W. Deem and Ramdas Pophale) SiO2 
 PCOD9579252
Probable space group: R -3 M
;
_chemical_formula_sum "Si O2"
_cell_formula_units_Z 162
_cell_length_a 20.281517
_cell_length_b 20.281517
_cell_length_c 21.775933
_cell_angle_alpha 90.000000
_cell_angle_beta 90.000000
_cell_angle_gamma 120.000000
_cell_volume 7757.258699
_symmetry_space_group_name_H-M "R -3 M"
_symmetry_group_IT_number 166
_symmetry_cell_setting 'hexagonal'
loop_
_space_group_symop_operation_xyz
x,y,z
-y,x-y,z
-x+y,-x,z
x-y,-y,-z
-x,-x+y,-z
y,x,-z
-x,-y,-z
y,-x+y,-z
x-y,x,-z
-x+y,y,z
x,x-y,z
-y,-x,z
2/3+x,1/3+y,1/3+z
2/3-y,1/3+x-y,1/3+z
2/3-x+y,1/3-x,1/3+z
2/3+x-y,1/3-y,1/3-z
2/3-x,1/3-x+y,1/3-z
2/3+y,1/3+x,1/3-z
2/3-x,1/3-y,1/3-z
2/3+y,1/3-x+y,1/3-z
2/3+x-y,1/3+x,1/3-z
2/3-x+y,1/3+y,1/3+z
2/3+x,1/3+x-y,1/3+z
2/3-y,1/3-x,1/3+z
1/3+x,2/3+y,2/3+z
1/3-y,2/3+x-y,2/3+z
1/3-x+y,2/3-x,2/3+z
1/3+x-y,2/3-y,2/3-z
1/3-x,2/3-x+y,2/3-z
1/3+y,2/3+x,2/3-z
1/3-x,2/3-y,2/3-z
1/3+y,2/3-x+y,2/3-z
1/3+x-y,2/3+x,2/3-z
1/3-x+y,2/3+y,2/3+z
1/3+x,2/3+x-y,2/3+z
1/3-y,2/3-x,2/3+z
loop_
_atom_site_type_symbol
_atom_site_label
_atom_site_fract_x
_atom_site_fract_y
_atom_site_fract_z
Si Si1 0.926489 0.390977 0.446996
Si Si2 0.001628 0.844364 0.625808
Si Si3 0.693515 0.534645 0.566157
Si Si4 0.519930 0.333334 0.333334
Si Si5 0.040876 0.350655 0.261624
O O1 0.965956 0.482978 0.441889
O O2 0.880633 0.364570 0.510709
O O3 0.870554 0.361002 0.389540
O O4 0.974714 0.348226 0.438590
O O5 0.922188 0.844375 0.616097
O O6 0.005766 0.831135 0.699481
O O7 0.999483 0.772125 0.591641
O O8 0.075588 0.924413 0.608865
O O9 0.754997 0.509993 0.550512
O O10 0.735805 0.626301 0.574111
O O11 0.530447 0.265224 0.356354
O O12 0.020439 0.333334 0.333334
#
# Coordination Sequence:
#
# PCOD9579252 Si02
#       5
#    36  36  36  18  36
#     4  11  22  37  58  87 121 157 199 247 299 356
#     4  10  21  38  62  90 121 159 206 260 318 376
#     4  10  21  37  57  84 118 157 199 246 303 365
#     4  10  21  36  54  78 113 158 202 242 288 348
#     4  10  21  37  56  83 118 160 199 252 306 364
#
# _framework density 20.883666999999999
#
# number of rings (size 3 to 8) (size 9 to 14) (size 15 to 20)
#    0.000    1.778    1.111    3.000    0.000    9.778 
#    0.000    0.000    0.000    7.111    0.000    0.000 
#    0.000    8.889    0.000    0.000    0.000    0.000 
#
# Total GULP energy -301170.610712 kJ/mol
# GULP energy per Si atom -5577.233532 kJ/mol
# Density = 2.083613 g / cm^3
# Si number density = 20.883667 Si / 1000 Ang^3
#
#
#
# Elastic Constant Matrix: (Units=GPa)
#
#
# Indices 1 2 3 4 5 6 
#
# 1 150.7631 62.2788 25.7513 2.6800 0.0007 0.0000
# 2 62.2788 150.7631 25.7513 -2.6800 -0.0007 0.0000
# 3 25.7513 25.7513 62.4688 0.0000 0.0000 0.0000
# 4 2.6800 -2.6800 0.0000 16.3421 0.0000 -0.0007
# 5 0.0007 -0.0007 0.0000 0.0000 16.3421 2.6800
# 6 0.0000 0.0000 0.0000 -0.0007 2.6800 44.2421
#
#
#
# Elastic Compliance Matrix: (Units=1/GPa)
#
#
# Indices 1 2 3 4 5 6 
#
# 1 0.008314 -0.003101 -0.002149 -0.001872 0.000000 0.000000
# 2 -0.003101 0.008314 -0.002149 0.001872 0.000000 0.000000
# 3 -0.002149 -0.002149 0.017780 0.000000 0.000000 0.000000
# 4 -0.001872 0.001872 0.000000 0.061806 0.000000 0.000001
# 5 0.000000 0.000000 0.000000 0.000000 0.061806 -0.003744
# 6 0.000000 0.000000 0.000000 0.000001 -0.003744 0.022830
#
#
# Mechanical properties :
#
#
# Convention : Reuss Voigt Hill
#
# Bulk Modulus (GPa) = 50.99370 65.72865 58.36117
# Shear Modulus (GPa) = 24.72997 32.06616 28.39807
#
# Velocity S-wave (km/s) = 3.44492 3.92275 3.69158
# Velocity P-wave (km/s) = 6.34778 7.21522 6.79535
#
# Compressibility (1/GPa) = 0.01961026
#
# Stress axis : x y z
#
# Youngs Moduli (GPa) = 120.27688 120.27688 56.24342
#
# Poissons Ratio (x) = 0.37294 0.12087
# Poissons Ratio (y) = 0.37294 0.12087
# Poissons Ratio (z) = 0.25849 0.25849
#
# Static dielectric constant tensor:
#      x y z
#    x 1.758630 0.000000 0.000000 
#    y 0.000000 1.758630 0.000000 
#    z 0.000000 0.000000 1.717740 
# 
# From -- ./inp_files/8194.got.cif
#   From: 2010.05.17/outbox.cif.g08.bks.cpg/sg166_5_cif.got.tgz:8194.got - 2010.05.20 11:04:41.
