data_PCOD9579112
_publ_section_title
;
Structure prediction by ZEFSAII (Michael W. Deem and Ramdas Pophale) SiO2 
 PCOD9579112
Probable space group: R -3 M
;
_chemical_formula_sum "Si O2"
_cell_formula_units_Z 216
_cell_length_a 25.272138
_cell_length_b 25.272138
_cell_length_c 24.577651
_cell_angle_alpha 90.000000
_cell_angle_beta 90.000000
_cell_angle_gamma 120.000000
_cell_volume 13594.241270
_symmetry_space_group_name_H-M "R -3 M"
_symmetry_group_IT_number 166
_symmetry_cell_setting 'hexagonal'
loop_
_space_group_symop_operation_xyz
x,y,z
-y,x-y,z
-x+y,-x,z
x-y,-y,-z
-x,-x+y,-z
y,x,-z
-x,-y,-z
y,-x+y,-z
x-y,x,-z
-x+y,y,z
x,x-y,z
-y,-x,z
2/3+x,1/3+y,1/3+z
2/3-y,1/3+x-y,1/3+z
2/3-x+y,1/3-x,1/3+z
2/3+x-y,1/3-y,1/3-z
2/3-x,1/3-x+y,1/3-z
2/3+y,1/3+x,1/3-z
2/3-x,1/3-y,1/3-z
2/3+y,1/3-x+y,1/3-z
2/3+x-y,1/3+x,1/3-z
2/3-x+y,1/3+y,1/3+z
2/3+x,1/3+x-y,1/3+z
2/3-y,1/3-x,1/3+z
1/3+x,2/3+y,2/3+z
1/3-y,2/3+x-y,2/3+z
1/3-x+y,2/3-x,2/3+z
1/3+x-y,2/3-y,2/3-z
1/3-x,2/3-x+y,2/3-z
1/3+y,2/3+x,2/3-z
1/3-x,2/3-y,2/3-z
1/3+y,2/3-x+y,2/3-z
1/3+x-y,2/3+x,2/3-z
1/3-x+y,2/3+y,2/3+z
1/3+x,2/3+x-y,2/3+z
1/3-y,2/3-x,2/3+z
loop_
_atom_site_type_symbol
_atom_site_label
_atom_site_fract_x
_atom_site_fract_y
_atom_site_fract_z
Si Si1 0.540533 0.956130 0.810693
Si Si2 0.807671 0.192330 0.247990
Si Si3 0.736683 0.595741 0.683202
Si Si4 0.422209 0.149168 0.807224
Si Si5 0.211005 0.422010 0.872193
Si Si6 0.308032 0.377841 0.726744
Si Si7 0.235670 0.003948 0.245081
O O1 0.472822 0.945644 0.797805
O O2 0.573559 0.936324 0.765294
O O3 0.540428 0.923767 0.867508
O O4 0.583745 0.027898 0.823749
O O5 0.788150 0.211851 0.192841
O O6 0.842586 0.157415 0.226543
O O7 0.746933 0.140486 0.277357
O O8 0.787927 0.575853 0.679729
O O9 0.770616 0.666667 0.666667
O O10 0.715345 0.589577 0.745168
O O11 0.685083 0.562778 0.638622
O O12 0.434974 0.217487 0.806052
O O13 0.475330 0.141997 0.833334
O O14 0.168855 0.447355 0.893858
O O15 0.333334 0.378230 0.666667
O O16 0.276727 0.309630 0.752930
#
# Coordination Sequence:
#
# PCOD9579112 Si02
#       7
#    36  18  36  36  18  36  36
#     4  11  22  34  52  76 105 135 173 213 250 308
#     4   9  18  36  50  68 102 140 171 206 254 294
#     4  10  19  32  51  75 102 134 171 207 247 303
#     4  10  21  36  52  72 104 137 169 213 256 301
#     4   9  18  32  52  72 100 135 169 206 242 315
#     4  11  23  33  52  75 106 142 174 212 250 307
#     4  11  19  34  52  76 102 137 172 204 259 303
#
# _framework density 15.889080999999999
#
# number of rings (size 3 to 8) (size 9 to 14) (size 15 to 20)
#    0.000    1.667    3.333    2.500    3.500    0.000 
#    1.500    0.000    0.000    0.167    0.000    0.000 
#   15.000    0.667    0.000    0.000    0.000    0.000 
#
# Total GULP energy -401509.670063 kJ/mol
# GULP energy per Si atom -5576.523195 kJ/mol
# Density = 1.585292 g / cm^3
# Si number density = 15.889081 Si / 1000 Ang^3
#
#
#
# Elastic Constant Matrix: (Units=GPa)
#
#
# Indices 1 2 3 4 5 6 
#
# 1 45.2888 9.2601 10.4021 -0.1059 -0.0002 0.0000
# 2 9.2601 45.2888 10.4021 0.1059 0.0002 0.0000
# 3 10.4021 10.4021 51.5555 0.0000 0.0000 0.0000
# 4 -0.1059 0.1059 0.0000 25.1870 0.0000 0.0002
# 5 -0.0002 0.0002 0.0000 0.0000 25.1870 -0.1059
# 6 0.0000 0.0000 0.0000 0.0002 -0.1059 18.0144
#
#
#
# Elastic Compliance Matrix: (Units=1/GPa)
#
#
# Indices 1 2 3 4 5 6 
#
# 1 0.023808 -0.003948 -0.004007 0.000117 0.000000 0.000000
# 2 -0.003948 0.023808 -0.004007 -0.000117 0.000000 0.000000
# 3 -0.004007 -0.004007 0.021014 0.000000 0.000000 0.000000
# 4 0.000117 -0.000117 0.000000 0.039704 0.000000 0.000000
# 5 0.000000 0.000000 0.000000 0.000000 0.039704 0.000233
# 6 0.000000 0.000000 0.000000 0.000000 0.000233 0.055513
#
#
# Mechanical properties :
#
#
# Convention : Reuss Voigt Hill
#
# Bulk Modulus (GPa) = 22.36840 22.47351 22.42096
# Shear Modulus (GPa) = 20.62899 21.14892 20.88896
#
# Velocity S-wave (km/s) = 3.60712 3.65229 3.62978
# Velocity P-wave (km/s) = 5.60864 5.65335 5.63104
#
# Compressibility (1/GPa) = 0.04470592
#
# Stress axis : x y z
#
# Youngs Moduli (GPa) = 42.00202 42.00202 47.58829
#
# Poissons Ratio (x) = 0.16582 0.19069
# Poissons Ratio (y) = 0.16582 0.19069
# Poissons Ratio (z) = 0.16831 0.16831
#
# Static dielectric constant tensor:
#      x y z
#    x 1.532170 0.000000 0.000000 
#    y 0.000000 1.532170 0.000000 
#    z 0.000000 0.000000 1.548170 
# 
# From -- ./inp_files/8519.got.cif
#   From: 2010.05.17/outbox.cif.g08.bks.cpg/sg166_5_cif.got.tgz:8519.got - 2010.05.20 11:04:41.
