data_PCOD9579361
_publ_section_title
;
Structure prediction by ZEFSAII (Michael W. Deem and Ramdas Pophale) SiO2 
 PCOD9579361
Probable space group: R -3 M
;
_chemical_formula_sum "Si O2"
_cell_formula_units_Z 36
_cell_length_a 24.000000
_cell_length_b 24.000000
_cell_length_c 12.000000
_cell_angle_alpha 90.000000
_cell_angle_beta 90.000000
_cell_angle_gamma 120.000000
_cell_volume 5985.967591
_symmetry_space_group_name_H-M "R -3 M"
_symmetry_group_IT_number 166
_symmetry_cell_setting 'hexagonal'
loop_
_space_group_symop_operation_xyz
x,y,z
-y,x-y,z
-x+y,-x,z
x-y,-y,-z
-x,-x+y,-z
y,x,-z
-x,-y,-z
y,-x+y,-z
x-y,x,-z
-x+y,y,z
x,x-y,z
-y,-x,z
2/3+x,1/3+y,1/3+z
2/3-y,1/3+x-y,1/3+z
2/3-x+y,1/3-x,1/3+z
2/3+x-y,1/3-y,1/3-z
2/3-x,1/3-x+y,1/3-z
2/3+y,1/3+x,1/3-z
2/3-x,1/3-y,1/3-z
2/3+y,1/3-x+y,1/3-z
2/3+x-y,1/3+x,1/3-z
2/3-x+y,1/3+y,1/3+z
2/3+x,1/3+x-y,1/3+z
2/3-y,1/3-x,1/3+z
1/3+x,2/3+y,2/3+z
1/3-y,2/3+x-y,2/3+z
1/3-x+y,2/3-x,2/3+z
1/3+x-y,2/3-y,2/3-z
1/3-x,2/3-x+y,2/3-z
1/3+y,2/3+x,2/3-z
1/3-x,2/3-y,2/3-z
1/3+y,2/3-x+y,2/3-z
1/3+x-y,2/3+x,2/3-z
1/3-x+y,2/3+y,2/3+z
1/3+x,2/3+x-y,2/3+z
1/3-y,2/3-x,2/3+z
loop_
_atom_site_type_symbol
_atom_site_label
_atom_site_fract_x
_atom_site_fract_y
_atom_site_fract_z
Si Si1 0.333572 0.788743 0.532298
Si Si2 0.769010 0.671228 0.989339
Si Si3 0.240793 0.997898 0.823068
O O1 0.404861 0.809721 0.495283
O O2 0.284652 0.715349 0.504711
O O3 0.333334 0.793765 0.666667
O O4 0.310933 0.834841 0.481173
O O5 0.830217 0.660433 0.979984
O O6 0.751329 0.694924 0.875849
O O7 0.785947 0.727868 0.080936
O O8 0.705180 0.613529 0.045641
#
# Coordination Sequence:
#
# PCOD9579361 Si02
#       3
#    36  36  36
#     4  10  17  25  37  59  87 117 146 182 233 294
#     4  10  18  29  44  67  91 121 164 208 248 298
#     4  10  18  27  44  64  92 121 157 202 239 290
#
# _framework density 6.0140650000000004
#
# number of rings (size 3 to 8) (size 9 to 14) (size 15 to 20)
#    0.000    2.000    3.333    5.333    0.000    1.333 
#    0.000    0.000    0.000    0.000    0.000  128.333 
#    0.000    0.000    0.000    0.000    0.000    0.000 
#
# Total GULP energy -200419.947260 kJ/mol
# GULP energy per Si atom -5567.220757 kJ/mol
# Density = 0.600038 g / cm^3
# Si number density = 6.014065 Si / 1000 Ang^3
#
#
#
# Elastic Constant Matrix: (Units=GPa)
#
#
# Indices 1 2 3 4 5 6 
#
# 1 72.4515 40.1650 37.0663 -2.6031 0.0000 0.0000
# 2 40.1650 72.4515 37.0662 2.6032 0.0000 0.0000
# 3 37.0663 37.0662 37.5162 0.0000 0.0003 0.0000
# 4 -2.6031 2.6032 0.0000 12.5758 0.0000 0.0001
# 5 0.0000 0.0000 0.0003 0.0000 12.5759 -2.6031
# 6 0.0000 0.0000 0.0000 0.0001 -2.6031 16.1432
#
#
#
# Elastic Compliance Matrix: (Units=1/GPa)
#
#
# Indices 1 2 3 4 5 6 
#
# 1 0.028720 -0.003322 -0.025093 0.006633 0.000000 0.000000
# 2 -0.003322 0.028720 -0.025093 -0.006633 0.000001 0.000000
# 3 -0.025093 -0.025093 0.076240 0.000000 -0.000002 0.000000
# 4 0.006633 -0.006633 0.000000 0.082264 0.000000 0.000000
# 5 0.000000 0.000001 -0.000002 0.000000 0.082263 0.013265
# 6 0.000000 0.000000 0.000000 0.000000 0.013265 0.064084
#
#
# Mechanical properties :
#
#
# Convention : Reuss Voigt Hill
#
# Bulk Modulus (GPa) = 37.50593 45.66824 41.58709
# Shear Modulus (GPa) = 10.45596 12.80043 11.62819
#
# Velocity S-wave (km/s) = 2.40995 2.66648 2.54145
# Velocity P-wave (km/s) = 5.34573 5.90314 5.63133
#
# Compressibility (1/GPa) = 0.02666245
#
# Stress axis : x y z
#
# Youngs Moduli (GPa) = 34.81873 34.81893 13.11651
#
# Poissons Ratio (x) = 0.11567 0.32914
# Poissons Ratio (y) = 0.11567 0.32913
# Poissons Ratio (z) = 0.87372 0.87372
#
# Static dielectric constant tensor:
#      x y z
#    x 1.647870 0.000000 0.000000 
#    y 0.000000 1.647870 0.000000 
#    z 0.000000 0.000000 1.601890 
# 
# From -- ./inp_files/2556.got.cif
#   From: 2010.05.17/outbox.ucp.g08.bks.cvg/sg166_2_cif.got.tgz:2556.got - 2010.06.11 15:16:39.
