data_PCOD9579148
_publ_section_title
;
Structure prediction by ZEFSAII (Michael W. Deem and Ramdas Pophale) SiO2 
 PCOD9579148
Probable space group: R -3 M
;
_chemical_formula_sum "Si O2"
_cell_formula_units_Z 216
_cell_length_a 27.664403
_cell_length_b 27.664403
_cell_length_c 20.188037
_cell_angle_alpha 90.000000
_cell_angle_beta 90.000000
_cell_angle_gamma 120.000000
_cell_volume 13380.345534
_symmetry_space_group_name_H-M "R -3 M"
_symmetry_group_IT_number 166
_symmetry_cell_setting 'hexagonal'
loop_
_space_group_symop_operation_xyz
x,y,z
-y,x-y,z
-x+y,-x,z
x-y,-y,-z
-x,-x+y,-z
y,x,-z
-x,-y,-z
y,-x+y,-z
x-y,x,-z
-x+y,y,z
x,x-y,z
-y,-x,z
2/3+x,1/3+y,1/3+z
2/3-y,1/3+x-y,1/3+z
2/3-x+y,1/3-x,1/3+z
2/3+x-y,1/3-y,1/3-z
2/3-x,1/3-x+y,1/3-z
2/3+y,1/3+x,1/3-z
2/3-x,1/3-y,1/3-z
2/3+y,1/3-x+y,1/3-z
2/3+x-y,1/3+x,1/3-z
2/3-x+y,1/3+y,1/3+z
2/3+x,1/3+x-y,1/3+z
2/3-y,1/3-x,1/3+z
1/3+x,2/3+y,2/3+z
1/3-y,2/3+x-y,2/3+z
1/3-x+y,2/3-x,2/3+z
1/3+x-y,2/3-y,2/3-z
1/3-x,2/3-x+y,2/3-z
1/3+y,2/3+x,2/3-z
1/3-x,2/3-y,2/3-z
1/3+y,2/3-x+y,2/3-z
1/3+x-y,2/3+x,2/3-z
1/3-x+y,2/3+y,2/3+z
1/3+x,2/3+x-y,2/3+z
1/3-y,2/3-x,2/3+z
loop_
_atom_site_type_symbol
_atom_site_label
_atom_site_fract_x
_atom_site_fract_y
_atom_site_fract_z
Si Si1 0.858696 0.608612 0.817192
Si Si2 0.026799 0.729939 0.230247
Si Si3 0.343896 0.940425 0.571014
Si Si4 0.570216 0.026989 0.323170
Si Si5 0.273252 0.838515 0.333534
Si Si6 0.940963 0.171359 0.374693
O O1 0.815337 0.630673 0.831196
O O2 0.921943 0.656574 0.812172
O O3 0.845842 0.584895 0.742925
O O4 0.849124 0.568225 0.879088
O O5 0.052702 0.777270 0.286369
O O6 0.990423 0.737885 0.173513
O O7 0.987090 0.666288 0.252105
O O8 0.399181 0.949518 0.607070
O O9 0.287008 0.893945 0.604625
O O10 0.517345 0.034690 0.312496
O O11 0.546897 0.960189 0.317389
O O12 0.221467 0.778534 0.355279
O O13 0.336544 0.851262 0.327624
O O14 0.890442 0.109559 0.364410
#
# Coordination Sequence:
#
# PCOD9579148 Si02
#       6
#    36  36  36  36  36  36
#     4  10  20  31  47  71  99 132 169 210 252 305
#     4  11  20  31  47  71 103 135 168 207 251 311
#     4  10  21  32  49  73  96 136 170 205 254 295
#     4  10  19  34  52  71  96 129 176 213 242 298
#     4  11  22  33  48  74 104 129 165 218 266 302
#     4  10  19  34  52  70  97 136 175 209 253 309
#
# _framework density 16.143080999999999
#
# number of rings (size 3 to 8) (size 9 to 14) (size 15 to 20)
#    0.000    1.667    3.333    2.500    4.667    2.000 
#    0.000    2.500    0.000    0.333    0.000    0.000 
#    0.000    4.000    0.000   16.000    0.000    0.000 
#
# Total GULP energy -401098.874569 kJ/mol
# GULP energy per Si atom -5570.817702 kJ/mol
# Density = 1.610634 g / cm^3
# Si number density = 16.143081 Si / 1000 Ang^3
#
#
#
# Elastic Constant Matrix: (Units=GPa)
#
#
# Indices 1 2 3 4 5 6 
#
# 1 75.8817 34.9919 26.9913 -1.4348 0.0000 0.0000
# 2 34.9919 75.8817 26.9913 1.4348 0.0000 0.0000
# 3 26.9913 26.9913 55.5827 0.0000 0.0000 0.0000
# 4 -1.4348 1.4348 0.0000 19.4176 0.0000 0.0000
# 5 0.0000 0.0000 0.0000 0.0000 19.4176 -1.4348
# 6 0.0000 0.0000 0.0000 0.0000 -1.4348 20.4449
#
#
#
# Elastic Compliance Matrix: (Units=1/GPa)
#
#
# Indices 1 2 3 4 5 6 
#
# 1 0.018198 -0.006386 -0.005736 0.001817 0.000000 0.000000
# 2 -0.006386 0.018198 -0.005736 -0.001817 0.000000 0.000000
# 3 -0.005736 -0.005736 0.023562 0.000000 0.000000 0.000000
# 4 0.001817 -0.001817 0.000000 0.051768 0.000000 0.000000
# 5 0.000000 0.000000 0.000000 0.000000 0.051768 0.003633
# 6 0.000000 0.000000 0.000000 0.000000 0.003633 0.049167
#
#
# Mechanical properties :
#
#
# Convention : Reuss Voigt Hill
#
# Bulk Modulus (GPa) = 41.25042 42.81056 42.03049
# Shear Modulus (GPa) = 19.49644 19.74745 19.62194
#
# Velocity S-wave (km/s) = 3.47901 3.50133 3.49019
# Velocity P-wave (km/s) = 6.46115 6.55155 6.50651
#
# Compressibility (1/GPa) = 0.02424218
#
# Stress axis : x y z
#
# Youngs Moduli (GPa) = 54.95179 54.95179 42.44105
#
# Poissons Ratio (x) = 0.35091 0.24344
# Poissons Ratio (y) = 0.35091 0.24344
# Poissons Ratio (z) = 0.31520 0.31520
#
# Static dielectric constant tensor:
#      x y z
#    x 1.552750 0.000000 0.000000 
#    y 0.000000 1.552750 0.000000 
#    z 0.000000 0.000000 1.626370 
# 
# From -- ./inp_files/7134.got.cif
#   From: 2010.05.17/outbox.cif.g08.bks.cpg/sg166_4_cif.got.tgz:7134.got - 2010.05.20 11:04:41.
