data_PCOD9579991
_publ_section_title
;
Structure prediction by ZEFSAII (Michael W. Deem and Ramdas Pophale) SiO2 
 PCOD9579991
Probable space group: P 61
;
_chemical_formula_sum "Si O2"
_cell_formula_units_Z 30
_cell_length_a 7.487488
_cell_length_b 7.487488
_cell_length_c 26.780990
_cell_angle_alpha 90.000000
_cell_angle_beta 90.000000
_cell_angle_gamma 120.000000
_cell_volume 1300.258010
_symmetry_space_group_name_H-M "P 61"
_symmetry_group_IT_number 169
_symmetry_cell_setting 'hexagonal'
loop_
_space_group_symop_operation_xyz
x,y,z
x-y,x,1/6+z
-y,x-y,1/3+z
-x,-y,1/2+z
-x+y,-x,2/3+z
y,-x+y,5/6+z
loop_
_atom_site_type_symbol
_atom_site_label
_atom_site_fract_x
_atom_site_fract_y
_atom_site_fract_z
Si Si1 0.235366 0.512970 0.168070
Si Si2 0.285930 0.881737 0.575278
Si Si3 0.869913 0.134592 0.481972
Si Si4 0.520334 0.714949 0.745948
Si Si5 0.103105 0.237589 0.012851
O O1 0.388786 0.654334 0.211103
O O2 0.322092 0.369230 0.144671
O O3 0.215368 0.639901 0.122890
O O4 0.388029 0.136304 0.198623
O O5 0.273716 0.891757 0.634877
O O6 0.054364 0.802762 0.556717
O O7 0.477343 0.110820 0.562968
O O8 0.991108 0.287036 0.437474
O O9 0.675926 0.018432 0.358041
O O10 0.973608 0.993847 0.492207
#
# Coordination Sequence:
#
# PCOD9579991 Si02
#       5
#     6   6   6   6   6
#     4   9  23  39  67 100 137 185 238 292 358 437
#     4  11  21  41  70  98 139 192 230 294 374 421
#     4   9  23  41  67 103 145 178 244 304 349 445
#     4  11  21  44  72 105 144 188 250 296 370 438
#     4  10  22  41  68  94 145 179 228 300 355 419
#
# _framework density 23.072341000000002
#
# number of rings (size 3 to 8) (size 9 to 14) (size 15 to 20)
#    1.200    0.800    2.000    1.200    2.800    0.000 
#    0.000   10.000    0.000    0.000    0.000    0.000 
#    0.000    0.000    0.000    0.000    0.000    0.000 
#
# Total GULP energy -167164.487228 kJ/mol
# GULP energy per Si atom -5572.149574 kJ/mol
# Density = 2.301983 g / cm^3
# Si number density = 23.072341 Si / 1000 Ang^3
#
#
#
# Elastic Constant Matrix: (Units=GPa)
#
#
# Indices 1 2 3 4 5 6 
#
# 1 67.8045 18.7819 26.2323 0.0000 0.0000 0.0000
# 2 18.7819 67.8045 26.2323 0.0000 0.0000 0.0000
# 3 26.2323 26.2323 107.2100 0.0000 0.0000 0.0000
# 4 0.0000 0.0000 0.0000 46.0425 0.0000 0.0000
# 5 0.0000 0.0000 0.0000 0.0000 46.0425 0.0000
# 6 0.0000 0.0000 0.0000 0.0000 0.0000 24.5113
#
#
#
# Elastic Compliance Matrix: (Units=1/GPa)
#
#
# Indices 1 2 3 4 5 6 
#
# 1 0.016979 -0.003420 -0.003318 0.000000 0.000000 0.000000
# 2 -0.003420 0.016979 -0.003318 0.000000 0.000000 0.000000
# 3 -0.003318 -0.003318 0.010951 0.000000 0.000000 0.000000
# 4 0.000000 0.000000 0.000000 0.021719 0.000000 0.000000
# 5 0.000000 0.000000 0.000000 0.000000 0.021719 0.000000
# 6 0.000000 0.000000 0.000000 0.000000 0.000000 0.040798
#
#
# Mechanical properties :
#
#
# Convention : Reuss Voigt Hill
#
# Bulk Modulus (GPa) = 40.32422 42.81244 41.56833
# Shear Modulus (GPa) = 31.74168 34.75742 33.24955
#
# Velocity S-wave (km/s) = 3.71313 3.88552 3.80030
# Velocity P-wave (km/s) = 5.99152 6.22300 6.10836
#
# Compressibility (1/GPa) = 0.02479899
#
# Stress axis : x y z
#
# Youngs Moduli (GPa) = 58.89588 58.89588 91.31531
#
# Poissons Ratio (x) = 0.20140 0.30296
# Poissons Ratio (y) = 0.20140 0.30296
# Poissons Ratio (z) = 0.19540 0.19540
#
# Static dielectric constant tensor:
#      x y z
#    x 1.910380 0.000000 0.000000 
#    y 0.000000 1.910380 0.000000 
#    z 0.000000 0.000000 1.888160 
# 
# From -- ./inp_files/1718.got.cif
#   From: 2010.05.17/outbox.cif.g08.bks.cpg/sg169_cif.got.tgz:1718.got - 2010.05.20 11:12:54.
