data_PCOD9579847
_publ_section_title
;
Structure prediction by ZEFSAII (Michael W. Deem and Ramdas Pophale) SiO2 
 PCOD9579847
Probable space group: P 61
;
_chemical_formula_sum "Si O2"
_cell_formula_units_Z 36
_cell_length_a 9.612577
_cell_length_b 9.612577
_cell_length_c 16.945744
_cell_angle_alpha 90.000000
_cell_angle_beta 90.000000
_cell_angle_gamma 120.000000
_cell_volume 1356.035116
_symmetry_space_group_name_H-M "P 61"
_symmetry_group_IT_number 169
_symmetry_cell_setting 'hexagonal'
loop_
_space_group_symop_operation_xyz
x,y,z
x-y,x,1/6+z
-y,x-y,1/3+z
-x,-y,1/2+z
-x+y,-x,2/3+z
y,-x+y,5/6+z
loop_
_atom_site_type_symbol
_atom_site_label
_atom_site_fract_x
_atom_site_fract_y
_atom_site_fract_z
Si Si1 0.648237 0.053488 0.269090
Si Si2 0.859357 0.961734 0.182868
Si Si3 0.429781 0.355485 0.109832
Si Si4 0.165328 0.449545 0.771280
Si Si5 0.211707 0.480981 0.431930
Si Si6 0.189754 0.492706 0.599963
O O1 0.718252 0.082465 0.357810
O O2 0.559537 0.156305 0.254964
O O3 0.775974 0.067853 0.205779
O O4 0.492516 0.875865 0.268486
O O5 0.934272 0.951311 0.266207
O O6 0.701460 0.790654 0.161723
O O7 0.436081 0.525869 0.119659
O O8 0.375664 0.258187 0.190505
O O9 0.618483 0.409098 0.103595
O O10 0.358154 0.554131 0.771482
O O11 0.121986 0.393906 0.680106
O O12 0.150983 0.401308 0.517118
#
# Coordination Sequence:
#
# PCOD9579847 Si02
#       6
#     6   6   6   6   6   6
#     4  10  22  37  64  92 134 165 213 277 322 391
#     4  12  27  45  73  97 124 177 231 275 330 402
#     4   9  20  36  61  94 132 167 215 271 323 375
#     4  10  20  38  66  95 129 173 224 263 319 392
#     4  10  19  36  60  96 137 175 213 268 330 387
#     4   9  18  36  54  94 130 165 214 266 316 383
#
# _framework density 26.547986999999999
#
# number of rings (size 3 to 8) (size 9 to 14) (size 15 to 20)
#    0.000    2.000    1.667    2.000    7.000    0.000 
#    0.000    0.000   18.333    0.000    0.000    0.000 
#    0.000    0.000    0.000    0.000    0.000    0.000 
#
# Total GULP energy -201253.731005 kJ/mol
# GULP energy per Si atom -5590.381417 kJ/mol
# Density = 2.648756 g / cm^3
# Si number density = 26.547987 Si / 1000 Ang^3
#
#
#
# Elastic Constant Matrix: (Units=GPa)
#
#
# Indices 1 2 3 4 5 6 
#
# 1 71.1583 2.0680 21.8390 0.0000 0.0000 0.0000
# 2 2.0680 71.1583 21.8390 0.0000 0.0000 0.0000
# 3 21.8390 21.8390 222.6497 0.0000 0.0000 0.0000
# 4 0.0000 0.0000 0.0000 37.2518 0.0000 0.0000
# 5 0.0000 0.0000 0.0000 0.0000 37.2518 0.0000
# 6 0.0000 0.0000 0.0000 0.0000 0.0000 34.5452
#
#
#
# Elastic Compliance Matrix: (Units=1/GPa)
#
#
# Indices 1 2 3 4 5 6 
#
# 1 0.014489 0.000016 -0.001423 0.000000 0.000000 0.000000
# 2 0.000016 0.014489 -0.001423 0.000000 0.000000 0.000000
# 3 -0.001423 -0.001423 0.004770 0.000000 0.000000 0.000000
# 4 0.000000 0.000000 0.000000 0.026844 0.000000 0.000000
# 5 0.000000 0.000000 0.000000 0.000000 0.026844 0.000000
# 6 0.000000 0.000000 0.000000 0.000000 0.000000 0.028948
#
#
# Mechanical properties :
#
#
# Convention : Reuss Voigt Hill
#
# Bulk Modulus (GPa) = 35.60067 50.71759 43.15913
# Shear Modulus (GPa) = 38.04931 43.09112 40.57022
#
# Velocity S-wave (km/s) = 3.78991 4.03319 3.91344
# Velocity P-wave (km/s) = 5.70879 6.39018 6.05907
#
# Compressibility (1/GPa) = 0.02808936
#
# Stress axis : x y z
#
# Youngs Moduli (GPa) = 69.01611 69.01611 209.62320
#
# Poissons Ratio (x) = -0.00107 0.29824
# Poissons Ratio (y) = -0.00107 0.29824
# Poissons Ratio (z) = 0.09819 0.09819
#
# Static dielectric constant tensor:
#      x y z
#    x 2.124770 0.000000 0.000000 
#    y 0.000000 2.124770 0.000000 
#    z 0.000000 0.000000 2.159400 
# 
# From -- ./inp_files/1325.got.cif
#   From: 2010.05.17/outbox.cif.g08.bks.cpg/sg169_cif.got.tgz:1325.got - 2010.05.20 11:12:54.
