data_PCOD9579394
_publ_section_title
;
Structure prediction by ZEFSAII (Michael W. Deem and Ramdas Pophale) SiO2 
 PCOD9579394
Probable space group: R -3 C 
;
_chemical_formula_sum "Si O2"
_cell_formula_units_Z 162
_cell_length_a 18.922470
_cell_length_b 18.922470
_cell_length_c 24.544347
_cell_angle_alpha 90.000000
_cell_angle_beta 90.000000
_cell_angle_gamma 120.000000
_cell_volume 7610.930649
_symmetry_space_group_name_H-M "R -3 C "
_symmetry_group_IT_number 167
_symmetry_cell_setting 'hexagonal'
loop_
_space_group_symop_operation_xyz
x,y,z
-y,x-y,z
-x+y,-x,z
x-y,-y,1/2-z
-x,-x+y,1/2-z
y,x,1/2-z
-x,-y,-z
y,-x+y,-z
x-y,x,-z
-x+y,y,1/2+z
x,x-y,1/2+z
-y,-x,1/2+z
2/3+x,1/3+y,1/3+z
2/3-y,1/3+x-y,1/3+z
2/3-x+y,1/3-x,1/3+z
2/3+x-y,1/3-y,5/6-z
2/3-x,1/3-x+y,5/6-z
2/3+y,1/3+x,5/6-z
2/3-x,1/3-y,1/3-z
2/3+y,1/3-x+y,1/3-z
2/3+x-y,1/3+x,1/3-z
2/3-x+y,1/3+y,5/6+z
2/3+x,1/3+x-y,5/6+z
2/3-y,1/3-x,5/6+z
1/3+x,2/3+y,2/3+z
1/3-y,2/3+x-y,2/3+z
1/3-x+y,2/3-x,2/3+z
1/3+x-y,2/3-y,1/6-z
1/3-x,2/3-x+y,1/6-z
1/3+y,2/3+x,1/6-z
1/3-x,2/3-y,2/3-z
1/3+y,2/3-x+y,2/3-z
1/3+x-y,2/3+x,2/3-z
1/3-x+y,2/3+y,1/6+z
1/3+x,2/3+x-y,1/6+z
1/3-y,2/3-x,1/6+z
loop_
_atom_site_type_symbol
_atom_site_label
_atom_site_fract_x
_atom_site_fract_y
_atom_site_fract_z
Si Si1 0.734076 0.000000 0.250000
Si Si2 0.924195 0.683618 0.782053
Si Si3 0.448560 0.112529 0.442855
Si Si4 0.189446 0.130385 0.995157
Si Si5 0.539617 0.091645 0.021868
O O1 0.642437 0.923072 0.245643
O O2 0.773911 0.975126 0.299242
O O3 0.957998 0.721498 0.840739
O O4 0.848034 0.594957 0.794594
O O5 0.906840 0.746024 0.746507
O O6 0.000000 0.685594 0.750000
O O7 0.447459 0.174001 0.399725
O O8 0.533321 0.139987 0.475533
O O9 0.119866 0.154772 0.000805
O O10 0.500000 0.000000 0.000000
#
# Coordination Sequence:
#
# PCOD9579394 Si02
#       5
#    18  36  36  36  36
#     4  10  16  34  58  84 122 150 188 242 310 366
#     4  10  21  38  64  94 122 153 202 258 315 368
#     4  10  20  39  58  89 126 153 202 260 298 362
#     4  12  25  43  60  84 124 169 211 250 301 370
#     4   9  19  34  58  90 126 154 193 244 314 371
#
# _framework density 21.285176
#
# number of rings (size 3 to 8) (size 9 to 14) (size 15 to 20)
#    0.000    1.778    2.222    2.889    0.000    1.778 
#   12.000    0.000    0.000    0.000    0.000    0.000 
#    0.000    0.000    0.000    0.000    0.000    0.000 
#
# Total GULP energy -300766.247682 kJ/mol
# GULP energy per Si atom -5569.745327 kJ/mol
# Density = 2.123673 g / cm^3
# Si number density = 21.285176 Si / 1000 Ang^3
#
#
#
# Elastic Constant Matrix: (Units=GPa)
#
#
# Indices 1 2 3 4 5 6 
#
# 1 63.0560 28.8199 34.7464 4.9822 0.0000 0.0000
# 2 28.8199 63.0560 34.7464 -4.9822 0.0000 0.0000
# 3 34.7464 34.7464 110.6818 0.0000 0.0000 0.0000
# 4 4.9822 -4.9822 0.0000 25.4251 0.0000 0.0000
# 5 0.0000 0.0000 0.0000 0.0000 25.4251 4.9822
# 6 0.0000 0.0000 0.0000 0.0000 4.9822 17.1180
#
#
#
# Elastic Compliance Matrix: (Units=1/GPa)
#
#
# Indices 1 2 3 4 5 6 
#
# 1 0.022625 -0.008351 -0.004481 -0.006070 0.000000 0.000000
# 2 -0.008351 0.022625 -0.004481 0.006070 0.000000 0.000000
# 3 -0.004481 -0.004481 0.011848 0.000000 0.000000 0.000000
# 4 -0.006070 0.006070 0.000000 0.041710 0.000000 0.000000
# 5 0.000000 0.000000 0.000000 0.000000 0.041710 -0.012140
# 6 0.000000 0.000000 0.000000 0.000000 -0.012140 0.061951
#
#
# Mechanical properties :
#
#
# Convention : Reuss Voigt Hill
#
# Bulk Modulus (GPa) = 44.50037 48.15770 46.32903
# Shear Modulus (GPa) = 20.44278 22.82570 21.63424
#
# Velocity S-wave (km/s) = 3.10243 3.27827 3.19156
# Velocity P-wave (km/s) = 5.81254 6.08305 5.94933
#
# Compressibility (1/GPa) = 0.02247172
#
# Stress axis : x y z
#
# Youngs Moduli (GPa) = 44.19979 44.19979 84.40035
#
# Poissons Ratio (x) = 0.36911 0.37819
# Poissons Ratio (y) = 0.36911 0.37819
# Poissons Ratio (z) = 0.19805 0.19805
#
# Static dielectric constant tensor:
#      x y z
#    x 1.879480 0.000000 0.000000 
#    y 0.000000 1.879480 0.000000 
#    z 0.000000 0.000000 1.849510 
# 
# From -- ./inp_files/5309.got.cif
#   From: 2010.05.17/outbox.cif.g08.bks.cpg/sg167_3_cif.got.tgz:5309.got - 2010.05.20 11:09:15.
