data_PCOD9579001
_publ_section_title
;
Structure prediction by ZEFSAII (Michael W. Deem and Ramdas Pophale) SiO2 
 PCOD9579001
Probable space group: P -3 C 1
;
_chemical_formula_sum "Si O2"
_cell_formula_units_Z 44
_cell_length_a 9.380519
_cell_length_b 9.380519
_cell_length_c 23.648926
_cell_angle_alpha 90.000000
_cell_angle_beta 90.000000
_cell_angle_gamma 120.000000
_cell_volume 1802.170137
_symmetry_space_group_name_H-M "P -3 C 1"
_symmetry_group_IT_number 165
_symmetry_cell_setting 'hexagonal'
loop_
_space_group_symop_operation_xyz
x,y,z
-y,x-y,z
-x+y,-x,z
x-y,-y,1/2-z
-x,-x+y,1/2-z
y,x,1/2-z
-x,-y,-z
y,-x+y,-z
x-y,x,-z
-x+y,y,1/2+z
x,x-y,1/2+z
-y,-x,1/2+z
loop_
_atom_site_type_symbol
_atom_site_label
_atom_site_fract_x
_atom_site_fract_y
_atom_site_fract_z
Si Si1 0.666668 0.333334 0.332572
Si Si2 0.333334 0.666668 0.302673
Si Si3 0.663835 0.726124 0.849440
Si Si4 0.659908 0.934295 0.686734
Si Si5 0.998384 0.332528 0.980553
O O1 0.666668 0.333334 0.264254
O O2 0.513347 0.157343 0.346367
O O3 0.163149 0.642757 0.325675
O O4 0.785910 0.698839 0.809714
O O5 0.670899 0.674302 0.912722
O O6 0.722179 0.919361 0.847886
O O7 0.660988 0.000000 0.750000
O O8 0.166272 0.334745 0.000327
O O9 0.000000 0.500000 0.000000
#
# Coordination Sequence:
#
# PCOD9579001 Si02
#       5
#     4   4  12  12  12
#     4  12  27  45  72 103 158 196 252 303 369 463
#     4  12  24  45  72 106 152 199 252 303 387 451
#     4  12  26  46  75 107 147 198 254 315 392 475
#     4  12  26  45  70 107 149 202 248 311 377 471
#     4  12  27  52  83 116 158 207 274 352 420 491
#
# _framework density 24.415009000000001
#
# number of rings (size 3 to 8) (size 9 to 14) (size 15 to 20)
#    0.000    0.000    2.727    7.091    0.000    2.182 
#    0.000    0.000    0.000    0.000    0.000    0.000 
#    0.000    0.000    0.000    0.000    0.000    0.000 
#
# Total GULP energy -246642.446674 kJ/mol
# GULP energy per Si atom -5605.510152 kJ/mol
# Density = 2.435944 g / cm^3
# Si number density = 24.415009 Si / 1000 Ang^3
#
#
#
# Elastic Constant Matrix: (Units=GPa)
#
#
# Indices 1 2 3 4 5 6 
#
# 1 192.1851 73.5079 36.0873 5.2465 0.0000 0.0000
# 2 73.5079 192.1846 36.0873 -5.2457 0.0000 0.0000
# 3 36.0873 36.0873 114.9665 0.0000 0.0000 0.0000
# 4 5.2465 -5.2457 0.0000 42.3502 0.0000 0.0000
# 5 0.0000 0.0000 0.0000 0.0000 42.3505 5.2465
# 6 0.0000 0.0000 0.0000 0.0000 5.2465 59.3383
#
#
#
# Elastic Compliance Matrix: (Units=1/GPa)
#
#
# Indices 1 2 3 4 5 6 
#
# 1 0.006317 -0.002202 -0.001292 -0.001055 0.000000 0.000000
# 2 -0.002202 0.006317 -0.001292 0.001055 0.000000 0.000000
# 3 -0.001292 -0.001292 0.009509 0.000000 0.000000 0.000000
# 4 -0.001055 0.001055 0.000000 0.023874 0.000000 0.000000
# 5 0.000000 0.000000 0.000000 0.000000 0.023874 -0.002111
# 6 0.000000 0.000000 0.000000 0.000000 -0.002111 0.017039
#
#
# Mechanical properties :
#
#
# Convention : Reuss Voigt Hill
#
# Bulk Modulus (GPa) = 79.54180 87.85567 83.69874
# Shear Modulus (GPa) = 49.65630 52.38472 51.02051
#
# Velocity S-wave (km/s) = 4.51471 4.63708 4.57630
# Velocity P-wave (km/s) = 7.73476 8.04565 7.89174
#
# Compressibility (1/GPa) = 0.01257201
#
# Stress axis : x y z
#
# Youngs Moduli (GPa) = 158.30158 158.30125 105.16350
#
# Poissons Ratio (x) = 0.34865 0.13582
# Poissons Ratio (y) = 0.34865 0.13582
# Poissons Ratio (z) = 0.20445 0.20445
#
# Static dielectric constant tensor:
#      x y z
#    x 2.023570 0.000000 0.000000 
#    y 0.000000 2.023570 0.000000 
#    z 0.000000 0.000000 1.850380 
# 
# From -- ./inp_files/3263.got.cif
#   From: 2010.05.17/outbox.cif.g08.bks.cpg/sg165_2_cif.got.tgz:3263.got - 2010.05.20 11:02:39.
