data_PCOD9579429
_publ_section_title
;
Structure prediction by ZEFSAII (Michael W. Deem and Ramdas Pophale) SiO2 
 PCOD9579429
Probable space group: R -3 C 
;
_chemical_formula_sum "Si O2"
_cell_formula_units_Z 210
_cell_length_a 26.458802
_cell_length_b 26.458802
_cell_length_c 13.320920
_cell_angle_alpha 90.000000
_cell_angle_beta 90.000000
_cell_angle_gamma 120.000000
_cell_volume 8076.165396
_symmetry_space_group_name_H-M "R -3 C "
_symmetry_group_IT_number 167
_symmetry_cell_setting 'hexagonal'
loop_
_space_group_symop_operation_xyz
x,y,z
-y,x-y,z
-x+y,-x,z
x-y,-y,1/2-z
-x,-x+y,1/2-z
y,x,1/2-z
-x,-y,-z
y,-x+y,-z
x-y,x,-z
-x+y,y,1/2+z
x,x-y,1/2+z
-y,-x,1/2+z
2/3+x,1/3+y,1/3+z
2/3-y,1/3+x-y,1/3+z
2/3-x+y,1/3-x,1/3+z
2/3+x-y,1/3-y,5/6-z
2/3-x,1/3-x+y,5/6-z
2/3+y,1/3+x,5/6-z
2/3-x,1/3-y,1/3-z
2/3+y,1/3-x+y,1/3-z
2/3+x-y,1/3+x,1/3-z
2/3-x+y,1/3+y,5/6+z
2/3+x,1/3+x-y,5/6+z
2/3-y,1/3-x,5/6+z
1/3+x,2/3+y,2/3+z
1/3-y,2/3+x-y,2/3+z
1/3-x+y,2/3-x,2/3+z
1/3+x-y,2/3-y,1/6-z
1/3-x,2/3-x+y,1/6-z
1/3+y,2/3+x,1/6-z
1/3-x,2/3-y,2/3-z
1/3+y,2/3-x+y,2/3-z
1/3+x-y,2/3+x,2/3-z
1/3-x+y,2/3+y,1/6+z
1/3+x,2/3+x-y,1/6+z
1/3-y,2/3-x,1/6+z
loop_
_atom_site_type_symbol
_atom_site_label
_atom_site_fract_x
_atom_site_fract_y
_atom_site_fract_z
Si Si1 0.000000 0.000000 0.630413
Si Si2 0.747043 0.548727 0.936548
Si Si3 0.104042 0.867392 0.886560
Si Si4 0.236378 0.683468 0.798390
Si Si5 0.027223 0.360557 0.916667
Si Si6 0.102269 0.463823 0.785430
Si Si7 0.699041 0.114635 0.710312
O O1 0.967057 0.033090 0.600134
O O2 0.000000 0.000000 0.750000
O O3 0.769151 0.587284 0.835985
O O4 0.805688 0.554243 0.983625
O O5 0.695925 0.555680 0.990766
O O6 0.706634 0.480115 0.910153
O O7 0.103805 0.928064 0.882528
O O8 0.171308 0.899622 0.845139
O O9 0.038503 0.818907 0.852614
O O10 0.228469 0.666667 0.916667
O O11 0.046014 0.413250 0.838840
O O12 0.020534 0.303972 0.863108
O O13 0.094996 0.459186 0.664699
#
# Coordination Sequence:
#
# PCOD9579429 Si02
#       7
#    12  36  36  36  18  36  36
#     4   9  18  27  37  74 115 156 172 236 301 351
#     4   9  19  39  60  83 116 164 200 240 309 368
#     4   9  19  38  61  83 119 159 201 246 300 368
#     4  10  19  30  52  81 123 149 200 251 303 354
#     4  12  24  38  62  92 124 154 212 252 306 350
#     4  10  21  38  65  91 119 158 206 252 297 371
#     4   9  21  43  59  87 124 164 198 252 302 363
#
# _framework density 26.002438999999999
#
# number of rings (size 3 to 8) (size 9 to 14) (size 15 to 20)
#    0.000    2.400    0.000    2.571    2.400    0.686 
#    9.257    7.714    0.000    0.000    0.000    0.000 
#    0.000    0.000    0.000    0.000    0.000    0.000 
#
# Total GULP energy -390067.941342 kJ/mol
# GULP energy per Si atom -5572.399162 kJ/mol
# Density = 2.594326 g / cm^3
# Si number density = 26.002439 Si / 1000 Ang^3
#
#
#
# Elastic Constant Matrix: (Units=GPa)
#
#
# Indices 1 2 3 4 5 6 
#
# 1 116.4842 41.1484 3.7781 2.4400 0.0000 0.0000
# 2 41.1484 116.4841 3.7780 -2.4400 0.0001 0.0000
# 3 3.7781 3.7780 80.1913 0.0000 0.0002 0.0000
# 4 2.4400 -2.4400 0.0000 22.6038 0.0000 0.0001
# 5 0.0000 0.0001 0.0002 0.0000 22.6039 2.4400
# 6 0.0000 0.0000 0.0000 0.0001 2.4400 37.6678
#
#
#
# Elastic Compliance Matrix: (Units=1/GPa)
#
#
# Indices 1 2 3 4 5 6 
#
# 1 0.009863 -0.003505 -0.000300 -0.001443 0.000000 0.000000
# 2 -0.003505 0.009863 -0.000300 0.001443 0.000000 0.000000
# 3 -0.000300 -0.000300 0.012498 0.000000 0.000000 0.000000
# 4 -0.001443 0.001443 0.000000 0.044552 0.000000 0.000000
# 5 0.000000 0.000000 0.000000 0.000000 0.044552 -0.002886
# 6 0.000000 0.000000 0.000000 0.000000 -0.002886 0.026735
#
#
# Mechanical properties :
#
#
# Convention : Reuss Voigt Hill
#
# Bulk Modulus (GPa) = 41.63782 45.61875 43.62828
# Shear Modulus (GPa) = 30.43671 34.20544 32.32107
#
# Velocity S-wave (km/s) = 3.42502 3.63088 3.52945
# Velocity P-wave (km/s) = 5.62928 5.92957 5.78137
#
# Compressibility (1/GPa) = 0.02401663
#
# Stress axis : x y z
#
# Youngs Moduli (GPa) = 101.39102 101.39101 80.01023
#
# Poissons Ratio (x) = 0.35533 0.02397
# Poissons Ratio (y) = 0.35533 0.02397
# Poissons Ratio (z) = 0.03037 0.03037
#
# Static dielectric constant tensor:
#      x y z
#    x 2.117000 0.000000 0.000000 
#    y 0.000000 2.117000 0.000000 
#    z 0.000000 0.000000 2.182830 
# 
# From -- ./inp_files/4684.got.cif
#   From: 2010.05.17/outbox.cif.g08.bks.cpg/sg167_3_cif.got.tgz:4684.got - 2010.05.20 11:09:15.
