data_PCOD9579757
_publ_section_title
;
Structure prediction by ZEFSAII (Michael W. Deem and Ramdas Pophale) SiO2 
 PCOD9579757
Probable space group: P 6
;
_chemical_formula_sum "Si O2"
_cell_formula_units_Z 36
_cell_length_a 10.857481
_cell_length_b 10.857481
_cell_length_c 16.236487
_cell_angle_alpha 90.000000
_cell_angle_beta 90.000000
_cell_angle_gamma 120.000000
_cell_volume 1657.604270
_symmetry_space_group_name_H-M "P 6"
_symmetry_group_IT_number 168
_symmetry_cell_setting 'hexagonal'
loop_
_space_group_symop_operation_xyz
x,y,z
x-y,x,z
-y,x-y,z
-x,-y,z
-x+y,-x,z
y,-x+y,z
loop_
_atom_site_type_symbol
_atom_site_label
_atom_site_fract_x
_atom_site_fract_y
_atom_site_fract_z
Si Si1 0.927709 0.674610 0.259570
Si Si2 0.324095 0.251337 0.080336
Si Si3 0.325390 0.253100 0.901103
Si Si4 0.321119 0.255994 0.580336
Si Si5 0.493664 0.665246 0.419989
Si Si6 0.828418 0.493665 0.740683
O O1 0.810638 0.725158 0.264972
O O2 0.910793 0.603699 0.169089
O O3 0.897654 0.569815 0.335030
O O4 0.187629 0.271997 0.080336
O O5 0.396301 0.307094 0.991584
O O6 0.189362 0.274843 0.895700
O O7 0.430185 0.327840 0.825643
O O8 0.184416 0.274447 0.580336
O O9 0.416274 0.323933 0.499472
O O10 0.416273 0.323932 0.661201
O O11 0.465632 0.798929 0.422648
O O12 0.666704 0.465632 0.738024
#
# Coordination Sequence:
#
# PCOD9579757 Si02
#       6
#     6   6   6   6   6   6
#     4  10  19  34  58  86 117 148 188 242 294 342
#     4   8  15  28  50  82 114 148 185 230 292 346
#     4  10  19  34  58  86 117 148 188 242 294 342
#     4  12  25  42  66  92 117 140 176 234 292 342
#     4  10  24  42  57  85 111 159 197 226 266 326
#     4  10  24  42  57  85 111 159 197 226 266 326
#
# _framework density 21.718091999999999
#
# number of rings (size 3 to 8) (size 9 to 14) (size 15 to 20)
#    0.667    1.333    0.000    3.667    0.000    9.333 
#    0.000    5.000    0.000    6.000    0.000    0.000 
#    0.000    0.000    0.000    0.000    0.000    0.000 
#
# Total GULP energy -201137.992497 kJ/mol
# GULP energy per Si atom -5587.166458 kJ/mol
# Density = 2.166866 g / cm^3
# Si number density = 21.718092 Si / 1000 Ang^3
#
#
#
# Elastic Constant Matrix: (Units=GPa)
#
#
# Indices 1 2 3 4 5 6 
#
# 1 90.5085 16.7353 51.2164 0.0000 0.0000 0.0000
# 2 16.7353 90.5085 51.2164 0.0000 0.0000 0.0000
# 3 51.2164 51.2164 217.9666 0.0000 0.0000 0.0000
# 4 0.0000 0.0000 0.0000 -21.1301 0.0000 0.0000
# 5 0.0000 0.0000 0.0000 0.0000 -21.1301 0.0000
# 6 0.0000 0.0000 0.0000 0.0000 0.0000 36.8866
#
#
#
# Elastic Compliance Matrix: (Units=1/GPa)
#
#
# Indices 1 2 3 4 5 6 
#
# 1 0.012789 -0.000766 -0.002825 0.000000 0.000000 0.000000
# 2 -0.000766 0.012789 -0.002825 0.000000 0.000000 0.000000
# 3 -0.002825 -0.002825 0.005915 0.000000 0.000000 0.000000
# 4 0.000000 0.000000 0.000000 -0.047326 0.000000 0.000000
# 5 0.000000 0.000000 0.000000 0.000000 -0.047326 0.000000
# 6 0.000000 0.000000 0.000000 0.000000 0.000000 0.027110
#
#
# Mechanical properties :
#
#
# Convention : Reuss Voigt Hill
#
# Bulk Modulus (GPa) = 53.58770 70.81333 62.20052
# Shear Modulus (GPa) = -294.19381 17.57966 -138.30707
#
# Velocity S-wave (km/s) = -11.65137 2.84817 -7.98881
# Velocity P-wave (km/s) = 12.50112 6.59489 7.50951
#
# Compressibility (1/GPa) = 0.01866100
#
# Stress axis : x y z
#
# Youngs Moduli (GPa) = 78.19242 78.19242 169.04772
#
# Poissons Ratio (x) = 0.05990 0.47757
# Poissons Ratio (y) = 0.05990 0.47757
# Poissons Ratio (z) = 0.22090 0.22090
#
# Static dielectric constant tensor:
#      x y z
#    x 1.774630 0.000000 0.000000 
#    y 0.000000 1.774630 0.000000 
#    z 0.000000 0.000000 1.788440 
# 
# From -- ./inp_files/443.got.cif
#   From: 2010.05.17/outbox.cif.g08.bks.cpg/sg168_cif.got.tgz:443.got - 2010.05.20 11:12:33.
