data_PCOD9579464
_publ_section_title
;
Structure prediction by ZEFSAII (Michael W. Deem and Ramdas Pophale) SiO2 
 PCOD9579464
Probable space group: R -3 C 
;
_chemical_formula_sum "Si O2"
_cell_formula_units_Z 126
_cell_length_a 13.238943
_cell_length_b 13.238943
_cell_length_c 31.882088
_cell_angle_alpha 90.000000
_cell_angle_beta 90.000000
_cell_angle_gamma 120.000000
_cell_volume 4839.316342
_symmetry_space_group_name_H-M "R -3 C "
_symmetry_group_IT_number 167
_symmetry_cell_setting 'hexagonal'
loop_
_space_group_symop_operation_xyz
x,y,z
-y,x-y,z
-x+y,-x,z
x-y,-y,1/2-z
-x,-x+y,1/2-z
y,x,1/2-z
-x,-y,-z
y,-x+y,-z
x-y,x,-z
-x+y,y,1/2+z
x,x-y,1/2+z
-y,-x,1/2+z
2/3+x,1/3+y,1/3+z
2/3-y,1/3+x-y,1/3+z
2/3-x+y,1/3-x,1/3+z
2/3+x-y,1/3-y,5/6-z
2/3-x,1/3-x+y,5/6-z
2/3+y,1/3+x,5/6-z
2/3-x,1/3-y,1/3-z
2/3+y,1/3-x+y,1/3-z
2/3+x-y,1/3+x,1/3-z
2/3-x+y,1/3+y,5/6+z
2/3+x,1/3+x-y,5/6+z
2/3-y,1/3-x,5/6+z
1/3+x,2/3+y,2/3+z
1/3-y,2/3+x-y,2/3+z
1/3-x+y,2/3-x,2/3+z
1/3+x-y,2/3-y,1/6-z
1/3-x,2/3-x+y,1/6-z
1/3+y,2/3+x,1/6-z
1/3-x,2/3-y,2/3-z
1/3+y,2/3-x+y,2/3-z
1/3+x-y,2/3+x,2/3-z
1/3-x+y,2/3+y,1/6+z
1/3+x,2/3+x-y,1/6+z
1/3-y,2/3-x,1/6+z
loop_
_atom_site_type_symbol
_atom_site_label
_atom_site_fract_x
_atom_site_fract_y
_atom_site_fract_z
Si Si1 0.458576 0.161335 0.406362
Si Si2 0.887946 0.516224 0.996205
Si Si3 0.275903 0.411633 0.707473
Si Si4 0.150724 0.666667 0.416667
O O1 0.333334 0.050682 0.416667
O O2 0.519154 0.179555 0.452207
O O3 0.321085 0.054738 0.328012
O O4 0.438929 0.265481 0.390970
O O5 0.811497 0.457913 0.038217
O O6 0.856558 0.464596 0.871474
O O7 0.000000 0.500000 0.000000
O O8 0.206253 0.314066 0.743544
#
# Coordination Sequence:
#
# PCOD9579464 Si02
#       4
#    36  36  36  18
#     4  12  23  40  71  99 148 189 235 308 376 429
#     4  10  19  42  69  94 137 188 240 297 346 440
#     4  10  22  40  63 109 136 187 250 288 378 440
#     4   8  18  40  60  98 134 172 254 280 346 440
#
# _framework density 26.036736000000001
#
# number of rings (size 3 to 8) (size 9 to 14) (size 15 to 20)
#    1.714    0.000    4.286    0.571    0.000    4.571 
#    0.000    0.000    0.000    3.429    0.000    0.000 
#    1.429    0.000    0.000    0.000    0.000    0.000 
#
# Total GULP energy -234119.406841 kJ/mol
# GULP energy per Si atom -5574.271591 kJ/mol
# Density = 2.597748 g / cm^3
# Si number density = 26.036736 Si / 1000 Ang^3
#
#
#
# Elastic Constant Matrix: (Units=GPa)
#
#
# Indices 1 2 3 4 5 6 
#
# 1 126.4316 51.9525 19.6094 -0.3037 -0.0001 0.0000
# 2 51.9525 126.4316 19.6094 0.3037 0.0001 0.0000
# 3 19.6094 19.6094 190.6036 0.0000 0.0000 0.0000
# 4 -0.3037 0.3037 0.0000 22.1537 0.0000 0.0001
# 5 -0.0001 0.0001 0.0000 0.0000 22.1537 -0.3037
# 6 0.0000 0.0000 0.0000 0.0001 -0.3037 37.2395
#
#
#
# Elastic Compliance Matrix: (Units=1/GPa)
#
#
# Indices 1 2 3 4 5 6 
#
# 1 0.009582 -0.003846 -0.000590 0.000184 0.000000 0.000000
# 2 -0.003846 0.009582 -0.000590 -0.000184 0.000000 0.000000
# 3 -0.000590 -0.000590 0.005368 0.000000 0.000000 0.000000
# 4 0.000184 -0.000184 0.000000 0.045144 0.000000 0.000000
# 5 0.000000 0.000000 0.000000 0.000000 0.045144 0.000368
# 6 0.000000 0.000000 0.000000 0.000000 0.000368 0.026856
#
#
# Mechanical properties :
#
#
# Convention : Reuss Voigt Hill
#
# Bulk Modulus (GPa) = 69.06647 69.53436 69.30042
# Shear Modulus (GPa) = 31.93757 39.79574 35.86666
#
# Velocity S-wave (km/s) = 3.50613 3.91378 3.71555
# Velocity P-wave (km/s) = 6.55551 6.86933 6.71426
#
# Compressibility (1/GPa) = 0.01447880
#
# Stress axis : x y z
#
# Youngs Moduli (GPa) = 104.36393 104.36393 186.29234
#
# Poissons Ratio (x) = 0.40141 0.10993
# Poissons Ratio (y) = 0.40141 0.10993
# Poissons Ratio (z) = 0.06158 0.06158
#
# Static dielectric constant tensor:
#      x y z
#    x 2.209760 0.000000 0.000000 
#    y 0.000000 2.209760 0.000000 
#    z 0.000000 0.000000 2.267280 
# 
# From -- ./inp_files/5087.got.cif
#   From: 2010.05.17/outbox.cif.g08.bks.cpg/sg167_3_cif.got.tgz:5087.got - 2010.05.20 11:09:15.
