data_PCOD9579434
_publ_section_title
;
Structure prediction by ZEFSAII (Michael W. Deem and Ramdas Pophale) SiO2 
 PCOD9579434
Probable space group: R -3 C 
;
_chemical_formula_sum "Si O2"
_cell_formula_units_Z 252
_cell_length_a 31.114414
_cell_length_b 31.114414
_cell_length_c 15.847446
_cell_angle_alpha 90.000000
_cell_angle_beta 90.000000
_cell_angle_gamma 120.000000
_cell_volume 13286.578700
_symmetry_space_group_name_H-M "R -3 C "
_symmetry_group_IT_number 167
_symmetry_cell_setting 'hexagonal'
loop_
_space_group_symop_operation_xyz
x,y,z
-y,x-y,z
-x+y,-x,z
x-y,-y,1/2-z
-x,-x+y,1/2-z
y,x,1/2-z
-x,-y,-z
y,-x+y,-z
x-y,x,-z
-x+y,y,1/2+z
x,x-y,1/2+z
-y,-x,1/2+z
2/3+x,1/3+y,1/3+z
2/3-y,1/3+x-y,1/3+z
2/3-x+y,1/3-x,1/3+z
2/3+x-y,1/3-y,5/6-z
2/3-x,1/3-x+y,5/6-z
2/3+y,1/3+x,5/6-z
2/3-x,1/3-y,1/3-z
2/3+y,1/3-x+y,1/3-z
2/3+x-y,1/3+x,1/3-z
2/3-x+y,1/3+y,5/6+z
2/3+x,1/3+x-y,5/6+z
2/3-y,1/3-x,5/6+z
1/3+x,2/3+y,2/3+z
1/3-y,2/3+x-y,2/3+z
1/3-x+y,2/3-x,2/3+z
1/3+x-y,2/3-y,1/6-z
1/3-x,2/3-x+y,1/6-z
1/3+y,2/3+x,1/6-z
1/3-x,2/3-y,2/3-z
1/3+y,2/3-x+y,2/3-z
1/3+x-y,2/3+x,2/3-z
1/3-x+y,2/3+y,1/6+z
1/3+x,2/3+x-y,1/6+z
1/3-y,2/3-x,1/6+z
loop_
_atom_site_type_symbol
_atom_site_label
_atom_site_fract_x
_atom_site_fract_y
_atom_site_fract_z
Si Si1 0.373472 0.458959 0.493698
Si Si2 0.651010 0.701114 0.303484
Si Si3 0.445377 0.395420 0.696139
Si Si4 0.174585 0.979124 0.500832
Si Si5 0.121498 0.207789 0.538857
Si Si6 0.921160 0.466773 0.117945
Si Si7 0.455550 0.434048 0.334447
O O1 0.333334 0.439658 0.416667
O O2 0.388033 0.416668 0.514558
O O3 0.351245 0.466320 0.578458
O O4 0.420202 0.512069 0.465029
O O5 0.681117 0.681117 0.250000
O O6 0.605556 0.650167 0.337717
O O7 0.630364 0.725636 0.237129
O O8 0.431888 0.431888 0.750000
O O9 0.466353 0.370669 0.761542
O O10 0.488469 0.422827 0.625838
O O11 0.119037 0.933611 0.504934
O O12 0.179871 0.032683 0.504004
O O13 0.122837 0.214066 0.641369
O O14 0.157020 0.265763 0.514570
O O15 0.973831 0.515198 0.138888
O O16 0.421967 0.421967 0.250000
#
# Coordination Sequence:
#
# PCOD9579434 Si02
#       7
#    36  36  36  36  36  36  36
#     4  10  19  34  54  85 107 141 191 244 270 325
#     4   9  18  27  46  73 108 138 183 225 266 308
#     4  10  19  34  51  75 110 153 183 225 280 334
#     4  11  21  35  60  80 108 140 193 227 281 337
#     4  10  19  33  54  82 103 144 176 233 273 337
#     4   9  17  31  53  75 107 140 182 226 284 318
#     4   9  16  29  48  69  98 136 183 221 265 311
#
# _framework density 18.966508000000001
#
# number of rings (size 3 to 8) (size 9 to 14) (size 15 to 20)
#    0.000    2.286    2.857    2.143    2.000    0.000 
#    0.000   10.000    3.143    2.857    0.000    0.000 
#    0.000    0.000    0.000    0.000    0.000    0.000 
#
# Total GULP energy -467932.264581 kJ/mol
# GULP energy per Si atom -5570.622197 kJ/mol
# Density = 1.892334 g / cm^3
# Si number density = 18.966508 Si / 1000 Ang^3
#
#
#
# Elastic Constant Matrix: (Units=GPa)
#
#
# Indices 1 2 3 4 5 6 
#
# 1 78.8695 28.5493 3.9574 0.8315 0.0001 0.0000
# 2 28.5493 78.8695 3.9576 -0.8315 -0.0001 0.0000
# 3 3.9574 3.9576 15.8622 0.0000 -0.0001 0.0000
# 4 0.8315 -0.8315 0.0000 11.3449 0.0000 -0.0002
# 5 0.0001 -0.0001 -0.0001 0.0000 11.3448 0.8315
# 6 0.0000 0.0000 0.0000 -0.0002 0.8315 25.1601
#
#
#
# Elastic Compliance Matrix: (Units=1/GPa)
#
#
# Indices 1 2 3 4 5 6 
#
# 1 0.014702 -0.005219 -0.002366 -0.001460 0.000000 0.000000
# 2 -0.005219 0.014702 -0.002366 0.001460 0.000000 0.000000
# 3 -0.002366 -0.002366 0.064223 0.000000 0.000001 0.000000
# 4 -0.001460 0.001460 0.000000 0.088360 0.000000 0.000001
# 5 0.000000 0.000000 0.000001 0.000000 0.088360 -0.002920
# 6 0.000000 0.000000 0.000000 0.000001 -0.002920 0.039842
#
#
# Mechanical properties :
#
#
# Convention : Reuss Voigt Hill
#
# Bulk Modulus (GPa) = 13.56365 27.39221 20.47793
# Shear Modulus (GPa) = 14.09774 18.71243 16.40508
#
# Velocity S-wave (km/s) = 2.72930 3.14443 2.94419
# Velocity P-wave (km/s) = 4.13510 5.25900 4.73054
#
# Compressibility (1/GPa) = 0.07372646
#
# Stress axis : x y z
#
# Youngs Moduli (GPa) = 68.01636 68.01632 15.57063
#
# Poissons Ratio (x) = 0.35495 0.03684
# Poissons Ratio (y) = 0.35495 0.03684
# Poissons Ratio (z) = 0.16093 0.16094
#
# Static dielectric constant tensor:
#      x y z
#    x 1.677630 0.000000 0.000000 
#    y 0.000000 1.677630 0.000000 
#    z 0.000000 0.000000 1.728650 
# 
# From -- ./inp_files/3686.got.cif
#   From: 2010.05.17/outbox.cif.g08.bks.cpg/sg167_2_cif.got.tgz:3686.got - 2010.05.20 11:09:15.
