data_PCOD9579705
_publ_section_title
;
Structure prediction by ZEFSAII (Michael W. Deem and Ramdas Pophale) SiO2 
 PCOD9579705
Probable space group: R -3 C 
;
_chemical_formula_sum "Si O2"
_cell_formula_units_Z 84
_cell_length_a 14.716505
_cell_length_b 14.716505
_cell_length_c 17.987481
_cell_angle_alpha 90.000000
_cell_angle_beta 90.000000
_cell_angle_gamma 120.000000
_cell_volume 3373.730167
_symmetry_space_group_name_H-M "R -3 C "
_symmetry_group_IT_number 167
_symmetry_cell_setting 'hexagonal'
loop_
_space_group_symop_operation_xyz
x,y,z
-y,x-y,z
-x+y,-x,z
x-y,-y,1/2-z
-x,-x+y,1/2-z
y,x,1/2-z
-x,-y,-z
y,-x+y,-z
x-y,x,-z
-x+y,y,1/2+z
x,x-y,1/2+z
-y,-x,1/2+z
2/3+x,1/3+y,1/3+z
2/3-y,1/3+x-y,1/3+z
2/3-x+y,1/3-x,1/3+z
2/3+x-y,1/3-y,5/6-z
2/3-x,1/3-x+y,5/6-z
2/3+y,1/3+x,5/6-z
2/3-x,1/3-y,1/3-z
2/3+y,1/3-x+y,1/3-z
2/3+x-y,1/3+x,1/3-z
2/3-x+y,1/3+y,5/6+z
2/3+x,1/3+x-y,5/6+z
2/3-y,1/3-x,5/6+z
1/3+x,2/3+y,2/3+z
1/3-y,2/3+x-y,2/3+z
1/3-x+y,2/3-x,2/3+z
1/3+x-y,2/3-y,1/6-z
1/3-x,2/3-x+y,1/6-z
1/3+y,2/3+x,1/6-z
1/3-x,2/3-y,2/3-z
1/3+y,2/3-x+y,2/3-z
1/3+x-y,2/3+x,2/3-z
1/3-x+y,2/3+y,1/6+z
1/3+x,2/3+x-y,1/6+z
1/3-y,2/3-x,1/6+z
loop_
_atom_site_type_symbol
_atom_site_label
_atom_site_fract_x
_atom_site_fract_y
_atom_site_fract_z
Si Si1 0.852937 0.554942 0.497474
Si Si2 0.333334 0.666667 0.328955
Si Si3 0.426704 0.902525 0.642436
O O1 0.884183 0.550850 0.583334
O O2 0.746379 0.450785 0.475844
O O3 0.924934 0.540127 0.435990
O O4 0.832305 0.651509 0.493497
O O5 0.333334 0.666668 0.416667
O O6 0.496772 0.845063 0.646037
#
# Coordination Sequence:
#
# PCOD9579705 Si02
#       3
#    36  12  36
#     4  11  25  46  76 112 159 217 277 338 406 487
#     4   9  21  42  67 101 145 195 256 326 397 471
#     4  12  27  48  75 113 159 210 268 338 412 490
#
# _framework density 24.898256
#
# number of rings (size 3 to 8) (size 9 to 14) (size 15 to 20)
#    0.000    0.857    0.000    5.571    0.000   17.143 
#    0.000    0.000    0.000    0.000    0.000    0.000 
#    0.000    0.000    0.000    0.000    0.000    0.000 
#
# Total GULP energy -156149.972937 kJ/mol
# GULP energy per Si atom -5576.784748 kJ/mol
# Density = 2.484159 g / cm^3
# Si number density = 24.898256 Si / 1000 Ang^3
#
#
#
# Elastic Constant Matrix: (Units=GPa)
#
#
# Indices 1 2 3 4 5 6 
#
# 1 181.4620 64.9231 9.5451 -5.2652 -0.0008 0.0005
# 2 64.9231 181.4494 9.5405 5.2656 0.0005 -0.0008
# 3 9.5451 9.5405 172.2255 0.0002 0.0000 0.0000
# 4 -5.2652 5.2656 0.0002 25.3176 0.0000 0.0008
# 5 -0.0008 0.0005 0.0000 0.0000 25.3188 -5.2653
# 6 0.0005 -0.0008 0.0000 0.0008 -5.2653 58.2635
#
#
#
# Elastic Compliance Matrix: (Units=1/GPa)
#
#
# Indices 1 2 3 4 5 6 
#
# 1 0.006411 -0.002335 -0.000226 0.001819 0.000000 0.000000
# 2 -0.002335 0.006411 -0.000226 -0.001819 0.000000 0.000000
# 3 -0.000226 -0.000226 0.005831 0.000000 0.000000 0.000000
# 4 0.001819 -0.001819 0.000000 0.040255 0.000000 -0.000001
# 5 0.000000 0.000000 0.000000 0.000000 0.040253 0.003638
# 6 0.000000 0.000000 0.000000 -0.000001 0.003638 0.017492
#
#
# Mechanical properties :
#
#
# Convention : Reuss Voigt Hill
#
# Bulk Modulus (GPa) = 76.44970 78.12826 77.28898
# Shear Modulus (GPa) = 39.49887 51.85521 45.67704
#
# Velocity S-wave (km/s) = 3.98730 4.56859 4.28781
# Velocity P-wave (km/s) = 7.20899 7.69913 7.45809
#
# Compressibility (1/GPa) = 0.01308050
#
# Stress axis : x y z
#
# Youngs Moduli (GPa) = 155.98791 155.97732 171.48627
#
# Poissons Ratio (x) = 0.36416 0.03875
# Poissons Ratio (y) = 0.36418 0.03871
# Poissons Ratio (z) = 0.03525 0.03521
#
# Static dielectric constant tensor:
#      x y z
#    x 1.815170 0.000010 -0.000010 
#    y 0.000010 1.815180 0.000040 
#    z -0.000010 0.000040 1.985340 
# 
# From -- ./inp_files/4910.got.cif
#   From: 2010.05.17/outbox.cif.g08.bks.cpg/sg167_3_cif.got.tgz:4910.got - 2010.05.20 11:09:15.
