data_PCOD9579989
_publ_section_title
;
Structure prediction by ZEFSAII (Michael W. Deem and Ramdas Pophale) SiO2 
 PCOD9579989
Probable space group: P 61
;
_chemical_formula_sum "Si O2"
_cell_formula_units_Z 30
_cell_length_a 11.967052
_cell_length_b 11.967052
_cell_length_c 11.280607
_cell_angle_alpha 90.000000
_cell_angle_beta 90.000000
_cell_angle_gamma 120.000000
_cell_volume 1399.063599
_symmetry_space_group_name_H-M "P 61"
_symmetry_group_IT_number 169
_symmetry_cell_setting 'hexagonal'
loop_
_space_group_symop_operation_xyz
x,y,z
x-y,x,1/6+z
-y,x-y,1/3+z
-x,-y,1/2+z
-x+y,-x,2/3+z
y,-x+y,5/6+z
loop_
_atom_site_type_symbol
_atom_site_label
_atom_site_fract_x
_atom_site_fract_y
_atom_site_fract_z
Si Si1 0.144224 0.696631 0.488050
Si Si2 0.514114 0.286683 0.202975
Si Si3 0.888466 0.108893 0.596578
Si Si4 0.694095 0.025227 0.938065
Si Si5 0.437059 0.922748 0.800784
O O1 0.208496 0.609723 0.457696
O O2 0.242859 0.844704 0.514650
O O3 0.090655 0.711131 0.362099
O O4 0.024411 0.621003 0.576142
O O5 0.369280 0.220858 0.253671
O O6 0.511669 0.346396 0.075198
O O7 0.552179 0.174846 0.207804
O O8 0.964553 0.136440 0.474611
O O9 0.993611 0.208392 0.690762
O O10 0.580832 0.013665 0.853407
#
# Coordination Sequence:
#
# PCOD9579989 Si02
#       5
#     6   6   6   6   6
#     4  11  23  41  68  98 130 172 222 274 336 402
#     4  10  23  43  68  97 132 176 217 280 336 398
#     4  11  22  46  67  89 129 181 225 263 333 403
#     4  10  22  41  67  92 128 175 218 265 332 404
#     4  10  24  41  66 100 133 170 222 278 339 395
#
# _framework density 21.442912
#
# number of rings (size 3 to 8) (size 9 to 14) (size 15 to 20)
#    0.000    1.600    2.000    2.400    8.400    0.000 
#   10.800    0.000    0.000    0.000    0.000    0.000 
#    0.000    0.000    0.000    0.000    0.000    0.000 
#
# Total GULP energy -167512.402466 kJ/mol
# GULP energy per Si atom -5583.746749 kJ/mol
# Density = 2.139411 g / cm^3
# Si number density = 21.442912 Si / 1000 Ang^3
#
#
#
# Elastic Constant Matrix: (Units=GPa)
#
#
# Indices 1 2 3 4 5 6 
#
# 1 77.1976 35.1158 4.3246 0.0000 0.0000 0.0000
# 2 35.1158 77.1976 4.3246 0.0000 0.0000 0.0000
# 3 4.3246 4.3246 33.0965 0.0000 0.0000 0.0000
# 4 0.0000 0.0000 0.0000 31.5563 0.0000 0.0000
# 5 0.0000 0.0000 0.0000 0.0000 31.5563 0.0000
# 6 0.0000 0.0000 0.0000 0.0000 0.0000 21.0409
#
#
#
# Elastic Compliance Matrix: (Units=1/GPa)
#
#
# Indices 1 2 3 4 5 6 
#
# 1 0.016379 -0.007385 -0.001175 0.000000 0.000000 0.000000
# 2 -0.007385 0.016379 -0.001175 0.000000 0.000000 0.000000
# 3 -0.001175 -0.001175 0.030522 0.000000 0.000000 0.000000
# 4 0.000000 0.000000 0.000000 0.031689 0.000000 0.000000
# 5 0.000000 0.000000 0.000000 0.000000 0.031689 0.000000
# 6 0.000000 0.000000 0.000000 0.000000 0.000000 0.047527
#
#
# Mechanical properties :
#
#
# Convention : Reuss Voigt Hill
#
# Bulk Modulus (GPa) = 22.82625 30.55796 26.69211
# Shear Modulus (GPa) = 24.00873 26.41248 25.21061
#
# Velocity S-wave (km/s) = 3.34976 3.51345 3.43258
# Velocity P-wave (km/s) = 5.06255 5.54445 5.30897
#
# Compressibility (1/GPa) = 0.04380920
#
# Stress axis : x y z
#
# Youngs Moduli (GPa) = 61.05488 61.05488 32.76349
#
# Poissons Ratio (x) = 0.45086 0.03850
# Poissons Ratio (y) = 0.45086 0.03850
# Poissons Ratio (z) = 0.07175 0.07175
#
# Static dielectric constant tensor:
#      x y z
#    x 1.798960 0.000000 0.000000 
#    y 0.000000 1.798960 0.000000 
#    z 0.000000 0.000000 1.778230 
# 
# From -- ./inp_files/876.got.cif
#   From: 2010.05.17/outbox.cif.g08.bks.cpg/sg169_cif.got.tgz:876.got - 2010.05.20 11:12:54.
