data_PCOD9579162
_publ_section_title
;
Structure prediction by ZEFSAII (Michael W. Deem and Ramdas Pophale) SiO2 
 PCOD9579162
Probable space group: R -3 M
;
_chemical_formula_sum "Si O2"
_cell_formula_units_Z 126
_cell_length_a 31.007445
_cell_length_b 31.007445
_cell_length_c 8.271352
_cell_angle_alpha 90.000000
_cell_angle_beta 90.000000
_cell_angle_gamma 120.000000
_cell_volume 6887.142977
_symmetry_space_group_name_H-M "R -3 M"
_symmetry_group_IT_number 166
_symmetry_cell_setting 'hexagonal'
loop_
_space_group_symop_operation_xyz
x,y,z
-y,x-y,z
-x+y,-x,z
x-y,-y,-z
-x,-x+y,-z
y,x,-z
-x,-y,-z
y,-x+y,-z
x-y,x,-z
-x+y,y,z
x,x-y,z
-y,-x,z
2/3+x,1/3+y,1/3+z
2/3-y,1/3+x-y,1/3+z
2/3-x+y,1/3-x,1/3+z
2/3+x-y,1/3-y,1/3-z
2/3-x,1/3-x+y,1/3-z
2/3+y,1/3+x,1/3-z
2/3-x,1/3-y,1/3-z
2/3+y,1/3-x+y,1/3-z
2/3+x-y,1/3+x,1/3-z
2/3-x+y,1/3+y,1/3+z
2/3+x,1/3+x-y,1/3+z
2/3-y,1/3-x,1/3+z
1/3+x,2/3+y,2/3+z
1/3-y,2/3+x-y,2/3+z
1/3-x+y,2/3-x,2/3+z
1/3+x-y,2/3-y,2/3-z
1/3-x,2/3-x+y,2/3-z
1/3+y,2/3+x,2/3-z
1/3-x,2/3-y,2/3-z
1/3+y,2/3-x+y,2/3-z
1/3+x-y,2/3+x,2/3-z
1/3-x+y,2/3+y,2/3+z
1/3+x,2/3+x-y,2/3+z
1/3-y,2/3-x,2/3+z
loop_
_atom_site_type_symbol
_atom_site_label
_atom_site_fract_x
_atom_site_fract_y
_atom_site_fract_z
Si Si1 0.061888 0.728554 0.833334
Si Si2 0.766136 0.009723 0.686423
Si Si3 0.806940 0.709675 0.896678
Si Si4 0.144150 0.621853 0.554622
O O1 0.061255 0.677808 0.868561
O O2 0.094483 0.754759 0.674859
O O3 0.795026 0.067772 0.729638
O O4 0.754000 0.000000 0.500000
O O5 0.795819 0.981623 0.746524
O O6 0.845266 0.690532 0.878189
O O7 0.832637 0.760788 0.002839
O O8 0.156133 0.578067 0.509356
O O9 0.185005 0.666667 0.666667
#
# Coordination Sequence:
#
# PCOD9579162 Si02
#       4
#    18  36  36  36
#     4  10  19  36  52  70  98 130 168 210 258 294
#     4  10  21  35  49  75 101 129 167 207 252 301
#     4   9  18  35  54  73  96 129 168 208 250 298
#     4   8  15  30  53  75 100 130 164 202 242 291
#
# _framework density 18.29496
#
# number of rings (size 3 to 8) (size 9 to 14) (size 15 to 20)
#    0.000    2.857    0.000    3.000    0.000    3.429 
#   10.286    1.429    0.000    0.286    0.000    0.000 
#    0.000    1.143    0.000    0.000    0.000    0.000 
#
# Total GULP energy -234138.146563 kJ/mol
# GULP energy per Si atom -5574.717775 kJ/mol
# Density = 1.825332 g / cm^3
# Si number density = 18.294960 Si / 1000 Ang^3
#
#
#
# Elastic Constant Matrix: (Units=GPa)
#
#
# Indices 1 2 3 4 5 6 
#
# 1 48.3989 22.6868 6.4634 -0.3852 0.0298 0.0046
# 2 22.6868 48.3852 6.3895 0.3855 -0.0134 -0.0015
# 3 6.4634 6.3895 88.7748 -0.0231 -0.0065 -0.0113
# 4 -0.3852 0.3855 -0.0231 16.2230 -0.0092 0.0133
# 5 0.0298 -0.0134 -0.0065 -0.0092 16.1997 -0.4061
# 6 0.0046 -0.0015 -0.0113 0.0133 -0.4061 12.8574
#
#
#
# Elastic Compliance Matrix: (Units=1/GPa)
#
#
# Indices 1 2 3 4 5 6 
#
# 1 0.026592 -0.012337 -0.001048 0.000923 -0.000059 -0.000015
# 2 -0.012337 0.026594 -0.001016 -0.000926 0.000044 0.000009
# 3 -0.001048 -0.001016 0.011414 0.000015 0.000006 0.000010
# 4 0.000923 -0.000926 0.000015 0.061685 0.000031 -0.000063
# 5 -0.000059 0.000044 0.000006 0.000031 0.061779 0.001951
# 6 -0.000015 0.000009 0.000010 -0.000063 0.001951 0.077838
#
#
# Mechanical properties :
#
#
# Convention : Reuss Voigt Hill
#
# Bulk Modulus (GPa) = 27.93531 28.51539 28.22535
# Shear Modulus (GPa) = 16.30595 19.05729 17.68162
#
# Velocity S-wave (km/s) = 2.98867 3.23099 3.11219
# Velocity P-wave (km/s) = 5.21652 5.43501 5.32689
#
# Compressibility (1/GPa) = 0.03579699
#
# Stress axis : x y z
#
# Youngs Moduli (GPa) = 37.60522 37.60273 87.61262
#
# Poissons Ratio (x) = 0.46392 0.09181
# Poissons Ratio (y) = 0.46395 0.08902
# Poissons Ratio (z) = 0.03940 0.03821
#
# Static dielectric constant tensor:
#      x y z
#    x 1.647480 0.000010 -0.000060 
#    y 0.000010 1.647510 0.000020 
#    z -0.000060 0.000020 1.641830 
# 
# From -- ./inp_files/1601.got.cif
#   From: 2010.05.17/outbox.cif.g08.bks.cpg/sg166_1_cif.got.tgz:1601.got - 2010.05.20 11:04:41.
