data_PCOD9579736
_publ_section_title
;
Structure prediction by ZEFSAII (Michael W. Deem and Ramdas Pophale) SiO2 
 PCOD9579736
Probable space group: R -3 C 
;
_chemical_formula_sum "Si O2"
_cell_formula_units_Z 54
_cell_length_a 17.888101
_cell_length_b 17.888101
_cell_length_c 7.470073
_cell_angle_alpha 90.000000
_cell_angle_beta 90.000000
_cell_angle_gamma 120.000000
_cell_volume 2070.064865
_symmetry_space_group_name_H-M "R -3 C "
_symmetry_group_IT_number 167
_symmetry_cell_setting 'hexagonal'
loop_
_space_group_symop_operation_xyz
x,y,z
-y,x-y,z
-x+y,-x,z
x-y,-y,1/2-z
-x,-x+y,1/2-z
y,x,1/2-z
-x,-y,-z
y,-x+y,-z
x-y,x,-z
-x+y,y,1/2+z
x,x-y,1/2+z
-y,-x,1/2+z
2/3+x,1/3+y,1/3+z
2/3-y,1/3+x-y,1/3+z
2/3-x+y,1/3-x,1/3+z
2/3+x-y,1/3-y,5/6-z
2/3-x,1/3-x+y,5/6-z
2/3+y,1/3+x,5/6-z
2/3-x,1/3-y,1/3-z
2/3+y,1/3-x+y,1/3-z
2/3+x-y,1/3+x,1/3-z
2/3-x+y,1/3+y,5/6+z
2/3+x,1/3+x-y,5/6+z
2/3-y,1/3-x,5/6+z
1/3+x,2/3+y,2/3+z
1/3-y,2/3+x-y,2/3+z
1/3-x+y,2/3-x,2/3+z
1/3+x-y,2/3-y,1/6-z
1/3-x,2/3-x+y,1/6-z
1/3+y,2/3+x,1/6-z
1/3-x,2/3-y,2/3-z
1/3+y,2/3-x+y,2/3-z
1/3+x-y,2/3+x,2/3-z
1/3-x+y,2/3+y,1/6+z
1/3+x,2/3+x-y,1/6+z
1/3-y,2/3-x,1/6+z
loop_
_atom_site_type_symbol
_atom_site_label
_atom_site_fract_x
_atom_site_fract_y
_atom_site_fract_z
Si Si1 0.505707 0.666667 0.916667
Si Si2 0.155132 0.740159 0.786073
O O1 0.505680 0.748923 0.832325
O O2 0.531971 0.627786 0.748508
O O3 0.166667 0.833334 0.833334
O O4 0.088194 0.666667 0.916667
#
# Coordination Sequence:
#
# PCOD9579736 Si02
#       2
#    18  36
#     4  12  26  50  78 122 174 230 308 382 486 572
#     4  12  28  50  84 128 176 242 314 395 494 584
#
# _framework density 26.086138999999999
#
# number of rings (size 3 to 8) (size 9 to 14) (size 15 to 20)
#    0.000    0.000    6.667    2.000    0.000    5.333 
#    2.000    3.333    0.000    0.000    0.000    0.000 
#    0.000    0.000    0.000    0.000    0.000    0.000 
#
# Total GULP energy -100674.791207 kJ/mol
# GULP energy per Si atom -5593.043956 kJ/mol
# Density = 2.602677 g / cm^3
# Si number density = 26.086139 Si / 1000 Ang^3
#
#
#
# Elastic Constant Matrix: (Units=GPa)
#
#
# Indices 1 2 3 4 5 6 
#
# 1 169.0688 40.7693 76.1487 14.3880 -0.0005 0.0001
# 2 40.7693 169.0689 76.1490 -14.3871 0.0002 0.0001
# 3 76.1487 76.1490 307.8925 0.0020 0.0002 0.0002
# 4 14.3880 -14.3871 0.0020 46.0272 0.0012 0.0005
# 5 -0.0005 0.0002 0.0002 0.0012 46.0263 14.3874
# 6 0.0001 0.0001 0.0002 0.0005 14.3874 64.1498
#
#
#
# Elastic Compliance Matrix: (Units=1/GPa)
#
#
# Indices 1 2 3 4 5 6 
#
# 1 0.007095 -0.001287 -0.001436 -0.002620 0.000000 0.000000
# 2 -0.001287 0.007095 -0.001437 0.002620 0.000000 0.000000
# 3 -0.001436 -0.001437 0.003958 0.000000 0.000000 0.000000
# 4 -0.002620 0.002620 0.000000 0.023364 -0.000001 0.000000
# 5 0.000000 0.000000 0.000000 -0.000001 0.023365 -0.005240
# 6 0.000000 0.000000 0.000000 0.000000 -0.005240 0.016764
#
#
# Mechanical properties :
#
#
# Convention : Reuss Voigt Hill
#
# Bulk Modulus (GPa) = 101.74180 114.68492 108.21336
# Shear Modulus (GPa) = 53.62661 61.43821 57.53241
#
# Velocity S-wave (km/s) = 4.53896 4.85831 4.70135
# Velocity P-wave (km/s) = 8.15821 8.69082 8.42872
#
# Compressibility (1/GPa) = 0.00982880
#
# Stress axis : x y z
#
# Youngs Moduli (GPa) = 140.94378 140.94372 252.62468
#
# Poissons Ratio (x) = 0.18138 0.36289
# Poissons Ratio (y) = 0.18138 0.36290
# Poissons Ratio (z) = 0.20246 0.20247
#
# Static dielectric constant tensor:
#      x y z
#    x 2.130420 0.000000 0.000000 
#    y 0.000000 2.130420 0.000000 
#    z 0.000000 0.000000 2.429810 
# 
# From -- ./inp_files/272.got.cif
#   From: 2010.05.17/outbox.cif.g08.bks.cpg/sg167_1_cif.got.tgz:272.got - 2010.05.20 11:09:15.
