data_PCOD9579225
_publ_section_title
;
Structure prediction by ZEFSAII (Michael W. Deem and Ramdas Pophale) SiO2 
 PCOD9579225
Probable space group: R -3 M
;
_chemical_formula_sum "Si O2"
_cell_formula_units_Z 162
_cell_length_a 25.186998
_cell_length_b 25.186998
_cell_length_c 18.532180
_cell_angle_alpha 90.000000
_cell_angle_beta 90.000000
_cell_angle_gamma 120.000000
_cell_volume 10181.457596
_symmetry_space_group_name_H-M "R -3 M"
_symmetry_group_IT_number 166
_symmetry_cell_setting 'hexagonal'
loop_
_space_group_symop_operation_xyz
x,y,z
-y,x-y,z
-x+y,-x,z
x-y,-y,-z
-x,-x+y,-z
y,x,-z
-x,-y,-z
y,-x+y,-z
x-y,x,-z
-x+y,y,z
x,x-y,z
-y,-x,z
2/3+x,1/3+y,1/3+z
2/3-y,1/3+x-y,1/3+z
2/3-x+y,1/3-x,1/3+z
2/3+x-y,1/3-y,1/3-z
2/3-x,1/3-x+y,1/3-z
2/3+y,1/3+x,1/3-z
2/3-x,1/3-y,1/3-z
2/3+y,1/3-x+y,1/3-z
2/3+x-y,1/3+x,1/3-z
2/3-x+y,1/3+y,1/3+z
2/3+x,1/3+x-y,1/3+z
2/3-y,1/3-x,1/3+z
1/3+x,2/3+y,2/3+z
1/3-y,2/3+x-y,2/3+z
1/3-x+y,2/3-x,2/3+z
1/3+x-y,2/3-y,2/3-z
1/3-x,2/3-x+y,2/3-z
1/3+y,2/3+x,2/3-z
1/3-x,2/3-y,2/3-z
1/3+y,2/3-x+y,2/3-z
1/3+x-y,2/3+x,2/3-z
1/3-x+y,2/3+y,2/3+z
1/3+x,2/3+x-y,2/3+z
1/3-y,2/3-x,2/3+z
loop_
_atom_site_type_symbol
_atom_site_label
_atom_site_fract_x
_atom_site_fract_y
_atom_site_fract_z
Si Si1 0.404327 0.595674 0.656454
Si Si2 0.879852 0.120149 0.128210
Si Si3 0.437028 0.105187 0.531039
Si Si4 0.045059 0.403952 0.318831
Si Si5 0.553142 0.106284 0.204131
Si Si6 0.503193 0.006386 0.319068
Si Si7 0.303098 0.000000 0.500000
O O1 0.435590 0.666667 0.666667
O O2 0.421129 0.578872 0.579976
O O3 0.427825 0.572176 0.722230
O O4 0.933125 0.177070 0.173055
O O5 0.856188 0.143813 0.060808
O O6 0.422455 0.092918 0.615910
O O7 0.452382 0.172403 0.506226
O O8 0.371921 0.057774 0.494508
O O9 0.065608 0.397387 0.239007
O O10 0.989770 0.333334 0.333334
O O11 0.026317 0.456080 0.320622
O O12 0.519646 0.039292 0.240522
#
# Coordination Sequence:
#
# PCOD9579225 Si02
#       7
#    18  18  36  36  18  18  18
#     4  11  21  35  53  76 108 144 175 207 256 301
#     4  11  21  31  55  77 104 141 177 215 256 304
#     4  11  21  36  53  76 108 137 177 217 261 308
#     4  10  21  35  55  76 105 138 175 220 263 310
#     4  11  22  34  52  77 108 139 171 219 257 308
#     4  11  21  32  55  77 102 141 175 219 265 297
#     4  10  20  37  52  76 106 138 170 229 260 312
#
# _framework density 15.911277999999999
#
# number of rings (size 3 to 8) (size 9 to 14) (size 15 to 20)
#    0.000    1.333    4.444    3.444    0.000    1.333 
#    0.000    6.111    0.000    0.000    0.000    0.000 
#    0.000    0.000    0.000    0.000    0.000   10.889 
#
# Total GULP energy -300761.194914 kJ/mol
# GULP energy per Si atom -5569.651758 kJ/mol
# Density = 1.587506 g / cm^3
# Si number density = 15.911278 Si / 1000 Ang^3
#
#
#
# Elastic Constant Matrix: (Units=GPa)
#
#
# Indices 1 2 3 4 5 6 
#
# 1 54.5027 21.4538 28.3263 -0.8339 -0.0013 0.0000
# 2 21.4538 54.5027 28.3263 0.8339 0.0013 0.0000
# 3 28.3263 28.3263 129.9122 0.0000 0.0000 0.0000
# 4 -0.8339 0.8339 0.0000 20.9079 0.0000 0.0013
# 5 -0.0013 0.0013 0.0000 0.0000 20.9079 -0.8339
# 6 0.0000 0.0000 0.0000 0.0013 -0.8339 16.5244
#
#
#
# Elastic Compliance Matrix: (Units=1/GPa)
#
#
# Indices 1 2 3 4 5 6 
#
# 1 0.023021 -0.007298 -0.003428 0.001209 0.000002 0.000000
# 2 -0.007298 0.023021 -0.003428 -0.001209 -0.000002 0.000000
# 3 -0.003428 -0.003428 0.009192 0.000000 0.000000 0.000000
# 4 0.001209 -0.001209 0.000000 0.047925 0.000000 -0.000004
# 5 0.000002 -0.000002 0.000000 0.000000 0.047925 0.002419
# 6 0.000000 0.000000 0.000000 -0.000004 0.002419 0.060639
#
#
# Mechanical properties :
#
#
# Convention : Reuss Voigt Hill
#
# Bulk Modulus (GPa) = 37.14078 43.90340 40.52209
# Shear Modulus (GPa) = 20.07972 22.38878 21.23425
#
# Velocity S-wave (km/s) = 3.55629 3.75520 3.65710
# Velocity P-wave (km/s) = 6.34476 6.81576 6.58448
#
# Compressibility (1/GPa) = 0.02692459
#
# Stress axis : x y z
#
# Youngs Moduli (GPa) = 43.43899 43.43899 108.78475
#
# Poissons Ratio (x) = 0.31704 0.37293
# Poissons Ratio (y) = 0.31704 0.37293
# Poissons Ratio (z) = 0.14891 0.14891
#
# Static dielectric constant tensor:
#      x y z
#    x 1.539310 0.000000 0.000000 
#    y 0.000000 1.539310 0.000000 
#    z 0.000000 0.000000 1.553600 
# 
# From -- ./inp_files/5501.got.cif
#   From: 2010.05.17/outbox.cif.g08.bks.cpg/sg166_3_cif.got.tgz:5501.got - 2010.05.20 11:04:41.
