data_PCOD9579060
_publ_section_title
;
Structure prediction by ZEFSAII (Michael W. Deem and Ramdas Pophale) SiO2 
 PCOD9579060
Probable space group: R -3 M
;
_chemical_formula_sum "Si O2"
_cell_formula_units_Z 252
_cell_length_a 31.285817
_cell_length_b 31.285817
_cell_length_c 17.802681
_cell_angle_alpha 90.000000
_cell_angle_beta 90.000000
_cell_angle_gamma 120.000000
_cell_volume 15090.757592
_symmetry_space_group_name_H-M "R -3 M"
_symmetry_group_IT_number 166
_symmetry_cell_setting 'hexagonal'
loop_
_space_group_symop_operation_xyz
x,y,z
-y,x-y,z
-x+y,-x,z
x-y,-y,-z
-x,-x+y,-z
y,x,-z
-x,-y,-z
y,-x+y,-z
x-y,x,-z
-x+y,y,z
x,x-y,z
-y,-x,z
2/3+x,1/3+y,1/3+z
2/3-y,1/3+x-y,1/3+z
2/3-x+y,1/3-x,1/3+z
2/3+x-y,1/3-y,1/3-z
2/3-x,1/3-x+y,1/3-z
2/3+y,1/3+x,1/3-z
2/3-x,1/3-y,1/3-z
2/3+y,1/3-x+y,1/3-z
2/3+x-y,1/3+x,1/3-z
2/3-x+y,1/3+y,1/3+z
2/3+x,1/3+x-y,1/3+z
2/3-y,1/3-x,1/3+z
1/3+x,2/3+y,2/3+z
1/3-y,2/3+x-y,2/3+z
1/3-x+y,2/3-x,2/3+z
1/3+x-y,2/3-y,2/3-z
1/3-x,2/3-x+y,2/3-z
1/3+y,2/3+x,2/3-z
1/3-x,2/3-y,2/3-z
1/3+y,2/3-x+y,2/3-z
1/3+x-y,2/3+x,2/3-z
1/3-x+y,2/3+y,2/3+z
1/3+x,2/3+x-y,2/3+z
1/3-y,2/3-x,2/3+z
loop_
_atom_site_type_symbol
_atom_site_label
_atom_site_fract_x
_atom_site_fract_y
_atom_site_fract_z
Si Si1 0.881743 0.392238 0.755723
Si Si2 0.633042 0.924251 0.029499
Si Si3 0.074442 0.297704 0.895695
Si Si4 0.189282 0.716959 0.262296
Si Si5 0.115430 0.731178 0.358995
Si Si6 0.490993 0.608347 0.678459
Si Si7 0.943936 0.371217 0.196157
O O1 0.877439 0.438720 0.733180
O O2 0.928818 0.394161 0.718164
O O3 0.833334 0.341350 0.733351
O O4 0.885973 0.392065 0.846376
O O5 0.670906 0.948537 0.098261
O O6 0.666804 0.928290 0.959096
O O7 0.597750 0.946268 0.010255
O O8 0.113379 0.333334 0.833334
O O9 0.021165 0.268336 0.856199
O O10 0.077140 0.254707 0.941644
O O11 0.247739 0.752262 0.266113
O O12 0.163073 0.732058 0.325405
O O13 0.110393 0.777060 0.333334
O O14 0.111468 0.727122 0.448106
O O15 0.433440 0.566561 0.689758
O O16 0.507186 0.666667 0.666667
O O17 0.526011 0.611295 0.748046
#
# Coordination Sequence:
#
# PCOD9579060 Si02
#       7
#    36  36  36  36  36  36  36
#     4   9  18  34  52  70  95 126 161 201 254 307
#     4  10  19  29  47  71  99 136 173 207 240 281
#     4  10  18  32  50  73 102 136 176 212 245 285
#     4   9  19  34  50  70  94 123 161 204 248 298
#     4  11  20  29  46  71 100 137 177 209 236 279
#     4   9  20  37  56  75 100 133 170 212 267 323
#     4  10  20  32  48  72 103 142 174 208 254 293
#
# _framework density 16.698962999999999
#
# number of rings (size 3 to 8) (size 9 to 14) (size 15 to 20)
#    0.000    2.286    1.429    3.000    0.000    4.571 
#    0.000    0.000    0.000    0.429    0.000    2.000 
#    0.000    0.000    0.000    0.857    0.000    1.000 
#
# Total GULP energy -468174.788066 kJ/mol
# GULP energy per Si atom -5573.509382 kJ/mol
# Density = 1.666096 g / cm^3
# Si number density = 16.698963 Si / 1000 Ang^3
#
#
#
# Elastic Constant Matrix: (Units=GPa)
#
#
# Indices 1 2 3 4 5 6 
#
# 1 50.6375 39.9228 20.3803 3.1260 0.0000 0.0000
# 2 39.9228 50.6375 20.3803 -3.1260 0.0000 0.0000
# 3 20.3803 20.3803 80.9312 0.0000 0.0000 0.0000
# 4 3.1260 -3.1260 0.0000 9.2787 0.0000 0.0000
# 5 0.0000 0.0000 0.0000 0.0000 9.2787 3.1260
# 6 0.0000 0.0000 0.0000 0.0000 3.1260 5.3573
#
#
#
# Elastic Compliance Matrix: (Units=1/GPa)
#
#
# Indices 1 2 3 4 5 6 
#
# 1 0.064310 -0.051856 -0.003136 -0.039137 0.000000 0.000000
# 2 -0.051856 0.064310 -0.003136 0.039137 0.000000 0.000000
# 3 -0.003136 -0.003136 0.013936 0.000000 0.000000 0.000000
# 4 -0.039137 0.039137 0.000000 0.134144 0.000000 -0.000001
# 5 0.000000 0.000000 0.000000 0.000000 0.134144 -0.078273
# 6 0.000000 0.000000 0.000000 -0.000001 -0.078273 0.232332
#
#
# Mechanical properties :
#
#
# Convention : Reuss Voigt Hill
#
# Bulk Modulus (GPa) = 38.02447 38.17477 38.09962
# Shear Modulus (GPa) = 6.50874 11.55115 9.02995
#
# Velocity S-wave (km/s) = 1.97640 2.63293 2.32792
# Velocity P-wave (km/s) = 5.29417 5.67038 5.48550
#
# Compressibility (1/GPa) = 0.02629885
#
# Stress axis : x y z
#
# Youngs Moduli (GPa) = 15.54969 15.54969 71.75815
#
# Poissons Ratio (x) = 0.80635 0.22505
# Poissons Ratio (y) = 0.80635 0.22505
# Poissons Ratio (z) = 0.04877 0.04877
#
# Static dielectric constant tensor:
#      x y z
#    x 1.558670 0.000000 0.000000 
#    y 0.000000 1.558670 0.000000 
#    z 0.000000 0.000000 1.572420 
# 
# From -- ./inp_files/5875.got.cif
#   From: 2010.05.17/outbox.cif.g08.bks.cpg/sg166_3_cif.got.tgz:5875.got - 2010.05.20 11:04:41.
