data_PCOD9579440
_publ_section_title
;
Structure prediction by ZEFSAII (Michael W. Deem and Ramdas Pophale) SiO2 
 PCOD9579440
Probable space group: R -3 C 
;
_chemical_formula_sum "Si O2"
_cell_formula_units_Z 84
_cell_length_a 17.081623
_cell_length_b 17.081623
_cell_length_c 13.173603
_cell_angle_alpha 90.000000
_cell_angle_beta 90.000000
_cell_angle_gamma 120.000000
_cell_volume 3328.844191
_symmetry_space_group_name_H-M "R -3 C "
_symmetry_group_IT_number 167
_symmetry_cell_setting 'hexagonal'
loop_
_space_group_symop_operation_xyz
x,y,z
-y,x-y,z
-x+y,-x,z
x-y,-y,1/2-z
-x,-x+y,1/2-z
y,x,1/2-z
-x,-y,-z
y,-x+y,-z
x-y,x,-z
-x+y,y,1/2+z
x,x-y,1/2+z
-y,-x,1/2+z
2/3+x,1/3+y,1/3+z
2/3-y,1/3+x-y,1/3+z
2/3-x+y,1/3-x,1/3+z
2/3+x-y,1/3-y,5/6-z
2/3-x,1/3-x+y,5/6-z
2/3+y,1/3+x,5/6-z
2/3-x,1/3-y,1/3-z
2/3+y,1/3-x+y,1/3-z
2/3+x-y,1/3+x,1/3-z
2/3-x+y,1/3+y,5/6+z
2/3+x,1/3+x-y,5/6+z
2/3-y,1/3-x,5/6+z
1/3+x,2/3+y,2/3+z
1/3-y,2/3+x-y,2/3+z
1/3-x+y,2/3-x,2/3+z
1/3+x-y,2/3-y,1/6-z
1/3-x,2/3-x+y,1/6-z
1/3+y,2/3+x,1/6-z
1/3-x,2/3-y,2/3-z
1/3+y,2/3-x+y,2/3-z
1/3+x-y,2/3+x,2/3-z
1/3-x+y,2/3+y,1/6+z
1/3+x,2/3+x-y,1/6+z
1/3-y,2/3-x,1/6+z
loop_
_atom_site_type_symbol
_atom_site_label
_atom_site_fract_x
_atom_site_fract_y
_atom_site_fract_z
Si Si1 0.448819 0.009214 0.598574
Si Si2 0.666667 0.333334 0.705285
Si Si3 0.194936 0.157825 0.366126
O O1 0.359609 0.909296 0.605109
O O2 0.500000 0.000000 0.500000
O O3 0.408805 0.075472 0.583334
O O4 0.527198 0.060865 0.681127
O O5 0.666668 0.333334 0.583334
O O6 0.768612 0.405295 0.733943
O O7 0.180381 0.180381 0.250000
#
# Coordination Sequence:
#
# PCOD9579440 Si02
#       3
#    36  12  36
#     4  10  19  34  55  83 115 152 197 244 296 360
#     4   9  15  30  54  75 103 152 199 225 276 366
#     4   9  17  30  52  80 108 146 195 243 283 344
#
# _framework density 25.233982999999998
#
# number of rings (size 3 to 8) (size 9 to 14) (size 15 to 20)
#    0.000    2.571    0.000    6.429    0.000    0.000 
#    0.000   10.714    0.000    0.000    0.000   12.000 
#    0.000    0.000    0.000    0.000    0.000    0.000 
#
# Total GULP energy -156468.047709 kJ/mol
# GULP energy per Si atom -5588.144561 kJ/mol
# Density = 2.517655 g / cm^3
# Si number density = 25.233983 Si / 1000 Ang^3
#
#
#
# Elastic Constant Matrix: (Units=GPa)
#
#
# Indices 1 2 3 4 5 6 
#
# 1 251.0447 153.6237 71.8845 11.4190 0.0002 -0.0002
# 2 153.6237 251.0422 71.8860 -11.4188 -0.0002 0.0003
# 3 71.8845 71.8860 70.9096 0.0000 0.0000 0.0001
# 4 11.4190 -11.4188 0.0000 14.3831 0.0000 0.0000
# 5 0.0002 -0.0002 0.0000 0.0000 14.3833 11.4188
# 6 -0.0002 0.0003 0.0001 0.0000 11.4188 48.7105
#
#
#
# Elastic Compliance Matrix: (Units=1/GPa)
#
#
# Indices 1 2 3 4 5 6 
#
# 1 0.008237 -0.004375 -0.003915 -0.010013 0.000000 0.000000
# 2 -0.004375 0.008237 -0.003916 0.010013 0.000000 0.000000
# 3 -0.003915 -0.003916 0.022041 0.000000 0.000000 0.000000
# 4 -0.010013 0.010013 0.000000 0.085425 0.000001 0.000000
# 5 0.000000 0.000000 0.000000 0.000001 0.085422 -0.020025
# 6 0.000000 0.000000 0.000000 0.000000 -0.020025 0.025224
#
#
# Mechanical properties :
#
#
# Convention : Reuss Voigt Hill
#
# Bulk Modulus (GPa) = 70.90221 129.75388 100.32804
# Shear Modulus (GPa) = 18.96104 33.86888 26.41496
#
# Velocity S-wave (km/s) = 2.74416 3.66757 3.23894
# Velocity P-wave (km/s) = 6.18057 8.33467 7.33710
#
# Compressibility (1/GPa) = 0.01410393
#
# Stress axis : x y z
#
# Youngs Moduli (GPa) = 121.40262 121.39867 45.37011
#
# Poissons Ratio (x) = 0.53112 0.17763
# Poissons Ratio (y) = 0.53113 0.17765
# Poissons Ratio (z) = 0.47530 0.47535
#
# Static dielectric constant tensor:
#      x y z
#    x 1.949570 0.000000 0.000000 
#    y 0.000000 1.949570 0.000000 
#    z 0.000000 0.000000 1.987850 
# 
# From -- ./inp_files/1851.got.cif
#   From: 2010.05.17/outbox.cif.g08.bks.cpg/sg167_1_cif.got.tgz:1851.got - 2010.05.20 11:09:15.
