data_PCOD9579241
_publ_section_title
;
Structure prediction by ZEFSAII (Michael W. Deem and Ramdas Pophale) SiO2 
 PCOD9579241
Probable space group: R -3 M
;
_chemical_formula_sum "Si O2"
_cell_formula_units_Z 126
_cell_length_a 30.793525
_cell_length_b 30.793525
_cell_length_c 7.920795
_cell_angle_alpha 90.000000
_cell_angle_beta 90.000000
_cell_angle_gamma 120.000000
_cell_volume 6504.564398
_symmetry_space_group_name_H-M "R -3 M"
_symmetry_group_IT_number 166
_symmetry_cell_setting 'hexagonal'
loop_
_space_group_symop_operation_xyz
x,y,z
-y,x-y,z
-x+y,-x,z
x-y,-y,-z
-x,-x+y,-z
y,x,-z
-x,-y,-z
y,-x+y,-z
x-y,x,-z
-x+y,y,z
x,x-y,z
-y,-x,z
2/3+x,1/3+y,1/3+z
2/3-y,1/3+x-y,1/3+z
2/3-x+y,1/3-x,1/3+z
2/3+x-y,1/3-y,1/3-z
2/3-x,1/3-x+y,1/3-z
2/3+y,1/3+x,1/3-z
2/3-x,1/3-y,1/3-z
2/3+y,1/3-x+y,1/3-z
2/3+x-y,1/3+x,1/3-z
2/3-x+y,1/3+y,1/3+z
2/3+x,1/3+x-y,1/3+z
2/3-y,1/3-x,1/3+z
1/3+x,2/3+y,2/3+z
1/3-y,2/3+x-y,2/3+z
1/3-x+y,2/3-x,2/3+z
1/3+x-y,2/3-y,2/3-z
1/3-x,2/3-x+y,2/3-z
1/3+y,2/3+x,2/3-z
1/3-x,2/3-y,2/3-z
1/3+y,2/3-x+y,2/3-z
1/3+x-y,2/3+x,2/3-z
1/3-x+y,2/3+y,2/3+z
1/3+x,2/3+x-y,2/3+z
1/3-y,2/3-x,2/3+z
loop_
_atom_site_type_symbol
_atom_site_label
_atom_site_fract_x
_atom_site_fract_y
_atom_site_fract_z
Si Si1 0.866637 0.381579 0.548888
Si Si2 0.133487 0.763481 0.689225
Si Si3 0.918469 0.251803 0.666667
Si Si4 0.000000 0.104300 0.000000
Si Si5 0.432254 0.333334 0.833334
O O1 0.870696 0.435348 0.578970
O O2 0.906278 0.389462 0.400390
O O3 0.809745 0.344784 0.488273
O O4 0.885258 0.364982 0.711996
O O5 0.184353 0.815648 0.707279
O O6 0.113932 0.764295 0.503982
O O7 0.095851 0.762518 0.833334
O O8 0.917568 0.301411 0.718202
O O9 0.049978 0.099956 0.024135
#
# Coordination Sequence:
#
# PCOD9579241 Si02
#       5
#    36  36  18  18  18
#     4  10  22  41  64  92 128 168 221 280 327 394
#     4  10  20  39  64  89 118 155 208 269 331 396
#     4  12  25  38  59  88 124 170 208 262 333 402
#     4  10  21  40  67  98 134 178 224 280 342 406
#     4  12  26  40  60  92 126 174 220 270 338 408
#
# _framework density 19.371013000000001
#
# number of rings (size 3 to 8) (size 9 to 14) (size 15 to 20)
#    0.000    1.429    2.857    2.286    0.000    4.571 
#    0.000    0.000    0.000    0.000    0.000    5.000 
#    0.000    0.000    0.000    0.000    0.000    0.000 
#
# Total GULP energy -234151.859383 kJ/mol
# GULP energy per Si atom -5575.044271 kJ/mol
# Density = 1.932692 g / cm^3
# Si number density = 19.371013 Si / 1000 Ang^3
#
#
#
# Elastic Constant Matrix: (Units=GPa)
#
#
# Indices 1 2 3 4 5 6 
#
# 1 106.4604 60.9282 43.3934 -3.4378 0.1922 -0.0338
# 2 60.9282 106.3890 43.1695 3.9416 -0.0571 0.0484
# 3 43.3934 43.1695 110.6599 0.6963 -0.3515 0.0762
# 4 -3.4378 3.9416 0.6963 168.2826 -3.0326 -0.0757
# 5 0.1922 -0.0571 -0.3515 -3.0326 174.9435 -3.4231
# 6 -0.0338 0.0484 0.0762 -0.0757 -3.4231 22.7386
#
#
#
# Elastic Compliance Matrix: (Units=1/GPa)
#
#
# Indices 1 2 3 4 5 6 
#
# 1 0.014783 -0.007284 -0.002959 0.000485 -0.000015 0.000047
# 2 -0.007284 0.014766 -0.002901 -0.000483 -0.000002 -0.000034
# 3 -0.002959 -0.002901 0.011329 -0.000039 0.000024 -0.000033
# 4 0.000485 -0.000483 -0.000039 0.005966 0.000103 0.000037
# 5 -0.000015 -0.000002 0.000024 0.000103 0.005735 0.000864
# 6 0.000047 -0.000034 -0.000033 0.000037 0.000864 0.044109
#
#
# Mechanical properties :
#
#
# Convention : Reuss Voigt Hill
#
# Bulk Modulus (GPa) = 68.53454 68.72128 68.62791
# Shear Modulus (GPa) = 39.11196 84.92747 62.01971
#
# Velocity S-wave (km/s) = 4.49831 6.62855 5.66447
# Velocity P-wave (km/s) = 7.90168 9.70242 8.84798
#
# Compressibility (1/GPa) = 0.01459118
#
# Stress axis : x y z
#
# Youngs Moduli (GPa) = 67.64345 67.72363 88.26925
#
# Poissons Ratio (x) = 0.49328 0.26116
# Poissons Ratio (y) = 0.49270 0.25607
# Poissons Ratio (z) = 0.20014 0.19647
#
# Static dielectric constant tensor:
#      x y z
#    x 1.704050 0.000000 0.000260 
#    y 0.000000 1.704190 -0.000150 
#    z 0.000260 -0.000150 1.659630 
# 
# From -- ./inp_files/1685.got.cif
#   From: 2010.05.17/outbox.cif.g08.bks.cpg/sg166_1_cif.got.tgz:1685.got - 2010.05.20 11:04:41.
