data_PCOD9579624
_publ_section_title
;
Structure prediction by ZEFSAII (Michael W. Deem and Ramdas Pophale) SiO2 
 PCOD9579624
Probable space group: R -3 C 
;
_chemical_formula_sum "Si O2"
_cell_formula_units_Z 126
_cell_length_a 26.217596
_cell_length_b 26.217596
_cell_length_c 9.723350
_cell_angle_alpha 90.000000
_cell_angle_beta 90.000000
_cell_angle_gamma 120.000000
_cell_volume 5788.050137
_symmetry_space_group_name_H-M "R -3 C "
_symmetry_group_IT_number 167
_symmetry_cell_setting 'hexagonal'
loop_
_space_group_symop_operation_xyz
x,y,z
-y,x-y,z
-x+y,-x,z
x-y,-y,1/2-z
-x,-x+y,1/2-z
y,x,1/2-z
-x,-y,-z
y,-x+y,-z
x-y,x,-z
-x+y,y,1/2+z
x,x-y,1/2+z
-y,-x,1/2+z
2/3+x,1/3+y,1/3+z
2/3-y,1/3+x-y,1/3+z
2/3-x+y,1/3-x,1/3+z
2/3+x-y,1/3-y,5/6-z
2/3-x,1/3-x+y,5/6-z
2/3+y,1/3+x,5/6-z
2/3-x,1/3-y,1/3-z
2/3+y,1/3-x+y,1/3-z
2/3+x-y,1/3+x,1/3-z
2/3-x+y,1/3+y,5/6+z
2/3+x,1/3+x-y,5/6+z
2/3-y,1/3-x,5/6+z
1/3+x,2/3+y,2/3+z
1/3-y,2/3+x-y,2/3+z
1/3-x+y,2/3-x,2/3+z
1/3+x-y,2/3-y,1/6-z
1/3-x,2/3-x+y,1/6-z
1/3+y,2/3+x,1/6-z
1/3-x,2/3-y,2/3-z
1/3+y,2/3-x+y,2/3-z
1/3+x-y,2/3+x,2/3-z
1/3-x+y,2/3+y,1/6+z
1/3+x,2/3+x-y,1/6+z
1/3-y,2/3-x,1/6+z
loop_
_atom_site_type_symbol
_atom_site_label
_atom_site_fract_x
_atom_site_fract_y
_atom_site_fract_z
Si Si1 0.000000 0.107423 0.750000
Si Si2 0.069076 0.402409 0.416667
Si Si3 0.457428 0.666667 0.916667
Si Si4 0.554095 0.532559 0.398748
Si Si5 0.475727 0.156823 0.841090
O O1 0.059484 0.109646 0.798023
O O2 0.021002 0.150424 0.619697
O O3 0.071794 0.342238 0.416077
O O4 0.101114 0.438991 0.556241
O O5 0.483706 0.646992 0.789292
O O6 0.526291 0.526291 0.250000
O O7 0.500000 0.500000 0.500000
O O8 0.593238 0.501717 0.395875
#
# Coordination Sequence:
#
# PCOD9579624 Si02
#       5
#    18  18  18  36  36
#     4  11  25  44  68  94 148 174 241 286 349 406
#     4   9  22  46  65  98 146 174 229 290 349 418
#     4  12  25  42  69 102 132 190 236 286 350 410
#     4  10  23  42  72 100 140 179 231 285 352 417
#     4  10  24  41  67  98 134 182 226 287 347 408
#
# _framework density 21.768989999999999
#
# number of rings (size 3 to 8) (size 9 to 14) (size 15 to 20)
#    0.000    1.714    0.000    2.000   16.000    0.000 
#    7.714    2.857    6.286    0.000    0.000    0.000 
#    0.000    0.000    0.000    0.000    0.000    0.000 
#
# Total GULP energy -233980.366608 kJ/mol
# GULP energy per Si atom -5570.961110 kJ/mol
# Density = 2.171944 g / cm^3
# Si number density = 21.768990 Si / 1000 Ang^3
#
#
#
# Elastic Constant Matrix: (Units=GPa)
#
#
# Indices 1 2 3 4 5 6 
#
# 1 87.8433 52.7705 33.1930 -13.4255 0.0191 0.0071
# 2 52.7705 87.8307 33.1749 13.4257 0.0015 0.0007
# 3 33.1930 33.1749 116.6292 -0.0088 0.0234 0.0128
# 4 -13.4255 13.4257 -0.0088 21.2995 -0.0035 -0.0032
# 5 0.0191 0.0015 0.0234 -0.0035 21.3198 -13.4181
# 6 0.0071 0.0007 0.0128 -0.0032 -13.4181 17.5303
#
#
#
# Elastic Compliance Matrix: (Units=1/GPa)
#
#
# Indices 1 2 3 4 5 6 
#
# 1 0.031667 -0.023454 -0.002339 0.034743 -0.000041 -0.000035
# 2 -0.023454 0.031671 -0.002336 -0.034747 0.000035 0.000030
# 3 -0.002339 -0.002336 0.009904 0.000003 -0.000024 -0.000025
# 4 0.034743 -0.034747 0.000003 0.090751 -0.000022 -0.000014
# 5 -0.000041 0.000035 -0.000024 -0.000022 0.090504 0.069274
# 6 -0.000035 0.000030 -0.000025 -0.000014 0.069274 0.110068
#
#
# Mechanical properties :
#
#
# Convention : Reuss Voigt Hill
#
# Bulk Modulus (GPa) = 58.87523 58.95337 58.91430
# Shear Modulus (GPa) = 11.72377 23.57424 17.64901
#
# Velocity S-wave (km/s) = 2.32319 3.29436 2.85044
# Velocity P-wave (km/s) = 5.85666 6.45062 6.16080
#
# Compressibility (1/GPa) = 0.01698507
#
# Stress axis : x y z
#
# Youngs Moduli (GPa) = 31.57873 31.57474 100.96604
#
# Poissons Ratio (x) = 0.74054 0.23611
# Poissons Ratio (y) = 0.74063 0.23589
# Poissons Ratio (z) = 0.07385 0.07377
#
# Static dielectric constant tensor:
#      x y z
#    x 1.823720 0.000020 -0.000020 
#    y 0.000020 1.823730 0.000000 
#    z -0.000020 0.000000 1.785820 
# 
# From -- ./inp_files/749.got.cif
#   From: 2010.05.17/outbox.cif.g08.bks.cpg/sg167_1_cif.got.tgz:749.got - 2010.05.20 11:09:15.
