data_PCOD9579491
_publ_section_title
;
Structure prediction by ZEFSAII (Michael W. Deem and Ramdas Pophale) SiO2 
 PCOD9579491
Probable space group: R -3 C 
;
_chemical_formula_sum "Si O2"
_cell_formula_units_Z 108
_cell_length_a 22.425547
_cell_length_b 22.425547
_cell_length_c 14.289571
_cell_angle_alpha 90.000000
_cell_angle_beta 90.000000
_cell_angle_gamma 120.000000
_cell_volume 6223.517463
_symmetry_space_group_name_H-M "R -3 C "
_symmetry_group_IT_number 167
_symmetry_cell_setting 'hexagonal'
loop_
_space_group_symop_operation_xyz
x,y,z
-y,x-y,z
-x+y,-x,z
x-y,-y,1/2-z
-x,-x+y,1/2-z
y,x,1/2-z
-x,-y,-z
y,-x+y,-z
x-y,x,-z
-x+y,y,1/2+z
x,x-y,1/2+z
-y,-x,1/2+z
2/3+x,1/3+y,1/3+z
2/3-y,1/3+x-y,1/3+z
2/3-x+y,1/3-x,1/3+z
2/3+x-y,1/3-y,5/6-z
2/3-x,1/3-x+y,5/6-z
2/3+y,1/3+x,5/6-z
2/3-x,1/3-y,1/3-z
2/3+y,1/3-x+y,1/3-z
2/3+x-y,1/3+x,1/3-z
2/3-x+y,1/3+y,5/6+z
2/3+x,1/3+x-y,5/6+z
2/3-y,1/3-x,5/6+z
1/3+x,2/3+y,2/3+z
1/3-y,2/3+x-y,2/3+z
1/3-x+y,2/3-x,2/3+z
1/3+x-y,2/3-y,1/6-z
1/3-x,2/3-x+y,1/6-z
1/3+y,2/3+x,1/6-z
1/3-x,2/3-y,2/3-z
1/3+y,2/3-x+y,2/3-z
1/3+x-y,2/3+x,2/3-z
1/3-x+y,2/3+y,1/6+z
1/3+x,2/3+x-y,1/6+z
1/3-y,2/3-x,1/6+z
loop_
_atom_site_type_symbol
_atom_site_label
_atom_site_fract_x
_atom_site_fract_y
_atom_site_fract_z
Si Si1 0.157710 0.096802 0.026925
Si Si2 0.566880 0.491214 0.509429
Si Si3 0.256096 0.049953 0.384315
O O1 0.194086 0.104207 0.128058
O O2 0.103236 0.122976 0.014492
O O3 0.218203 0.250862 0.876042
O O4 0.500000 0.500000 0.500000
O O5 0.587305 0.502500 0.618322
O O6 0.519457 0.406195 0.294127
O O7 0.333334 0.079392 0.416667
#
# Coordination Sequence:
#
# PCOD9579491 Si02
#       3
#    36  36  36
#     4  10  21  38  59  84 115 153 192 238 290 349
#     4  10  20  37  57  82 117 149 189 237 290 345
#     4  10  20  37  57  85 117 147 192 243 287 345
#
# _framework density 17.353529999999999
#
# number of rings (size 3 to 8) (size 9 to 14) (size 15 to 20)
#    0.000    2.000    3.333    0.333    0.000    1.333 
#    6.000    0.000    0.000    4.000    0.000    0.000 
#    0.000    0.000    0.000    0.000    0.000    0.000 
#
# Total GULP energy -200475.721205 kJ/mol
# GULP energy per Si atom -5568.770033 kJ/mol
# Density = 1.731403 g / cm^3
# Si number density = 17.353530 Si / 1000 Ang^3
#
#
#
# Elastic Constant Matrix: (Units=GPa)
#
#
# Indices 1 2 3 4 5 6 
#
# 1 92.0620 46.7818 20.0372 -0.1257 -0.0001 0.0000
# 2 46.7818 92.0620 20.0372 0.1257 0.0001 0.0000
# 3 20.0372 20.0372 65.7224 0.0000 0.0000 0.0000
# 4 -0.1257 0.1257 0.0000 21.3437 0.0000 0.0001
# 5 -0.0001 0.0001 0.0000 0.0000 21.3437 -0.1257
# 6 0.0000 0.0000 0.0000 0.0001 -0.1257 22.6401
#
#
#
# Elastic Compliance Matrix: (Units=1/GPa)
#
#
# Indices 1 2 3 4 5 6 
#
# 1 0.014991 -0.007094 -0.002408 0.000130 0.000000 0.000000
# 2 -0.007094 0.014991 -0.002408 -0.000130 0.000000 0.000000
# 3 -0.002408 -0.002408 0.016684 0.000000 0.000000 0.000000
# 4 0.000130 -0.000130 0.000000 0.046854 0.000000 0.000000
# 5 0.000000 0.000000 0.000000 0.000000 0.046854 0.000260
# 6 0.000000 0.000000 0.000000 0.000000 0.000260 0.044171
#
#
# Mechanical properties :
#
#
# Convention : Reuss Voigt Hill
#
# Bulk Modulus (GPa) = 43.76865 47.06207 45.41536
# Shear Modulus (GPa) = 23.15037 23.93153 23.54095
#
# Velocity S-wave (km/s) = 3.65642 3.71760 3.68713
# Velocity P-wave (km/s) = 6.56524 6.75321 6.65989
#
# Compressibility (1/GPa) = 0.02284740
#
# Stress axis : x y z
#
# Youngs Moduli (GPa) = 66.70520 66.70520 59.93905
#
# Poissons Ratio (x) = 0.47321 0.14431
# Poissons Ratio (y) = 0.47321 0.14431
# Poissons Ratio (z) = 0.16061 0.16061
#
# Static dielectric constant tensor:
#      x y z
#    x 1.585540 0.000000 0.000000 
#    y 0.000000 1.585540 0.000000 
#    z 0.000000 0.000000 1.564930 
# 
# From -- ./inp_files/1208.got.cif
#   From: 2010.05.17/outbox.cif.g08.bks.cpg/sg167_1_cif.got.tgz:1208.got - 2010.05.20 11:09:15.
