data_PCOD9579376
_publ_section_title
;
Structure prediction by ZEFSAII (Michael W. Deem and Ramdas Pophale) SiO2 
 PCOD9579376
Probable space group: R -3 M
;
_chemical_formula_sum "Si O2"
_cell_formula_units_Z 48
_cell_length_a 30.000000
_cell_length_b 30.000000
_cell_length_c 9.000000
_cell_angle_alpha 90.000000
_cell_angle_beta 90.000000
_cell_angle_gamma 120.000000
_cell_volume 7014.805771
_symmetry_space_group_name_H-M "R -3 M"
_symmetry_group_IT_number 166
_symmetry_cell_setting 'hexagonal'
loop_
_space_group_symop_operation_xyz
x,y,z
-y,x-y,z
-x+y,-x,z
x-y,-y,-z
-x,-x+y,-z
y,x,-z
-x,-y,-z
y,-x+y,-z
x-y,x,-z
-x+y,y,z
x,x-y,z
-y,-x,z
2/3+x,1/3+y,1/3+z
2/3-y,1/3+x-y,1/3+z
2/3-x+y,1/3-x,1/3+z
2/3+x-y,1/3-y,1/3-z
2/3-x,1/3-x+y,1/3-z
2/3+y,1/3+x,1/3-z
2/3-x,1/3-y,1/3-z
2/3+y,1/3-x+y,1/3-z
2/3+x-y,1/3+x,1/3-z
2/3-x+y,1/3+y,1/3+z
2/3+x,1/3+x-y,1/3+z
2/3-y,1/3-x,1/3+z
1/3+x,2/3+y,2/3+z
1/3-y,2/3+x-y,2/3+z
1/3-x+y,2/3-x,2/3+z
1/3+x-y,2/3-y,2/3-z
1/3-x,2/3-x+y,2/3-z
1/3+y,2/3+x,2/3-z
1/3-x,2/3-y,2/3-z
1/3+y,2/3-x+y,2/3-z
1/3+x-y,2/3+x,2/3-z
1/3-x+y,2/3+y,2/3+z
1/3+x,2/3+x-y,2/3+z
1/3-y,2/3-x,2/3+z
loop_
_atom_site_type_symbol
_atom_site_label
_atom_site_fract_x
_atom_site_fract_y
_atom_site_fract_z
Si Si1 0.896877 0.690908 0.806656
Si Si2 0.381607 0.242023 0.079028
Si Si3 0.766567 0.432874 0.011969
Si Si4 0.804010 0.988853 0.164921
O O1 0.852261 0.704521 0.771545
O O2 0.909177 0.666667 0.666667
O O3 0.944720 0.744782 0.852802
O O4 0.871246 0.643032 0.917729
O O5 0.389704 0.194852 0.132674
O O6 0.333334 0.238160 0.166667
O O7 0.432903 0.294728 0.099898
O O8 0.724049 0.448098 0.061134
O O9 0.749333 0.374667 0.056510
O O10 0.823969 0.469954 0.070371
O O11 0.768221 0.434888 0.833334
O O12 0.826406 0.000000 0.000000
#
# Coordination Sequence:
#
# PCOD9579376 Si02
#       4
#    36  36  36  36
#     4  10  23  42  62  87 122 162 202 251 308 366
#     4  10  21  40  61  85 123 167 199 240 310 373
#     4  10  23  42  66  95 129 166 207 259 319 384
#     4  12  24  40  63  96 125 164 210 263 307 373
#
# _framework density 6.84267
#
# number of rings (size 3 to 8) (size 9 to 14) (size 15 to 20)
#    0.000    1.500    2.500    1.750    3.500    4.000 
#    4.500    0.000    0.000    1.500    0.000    0.000 
#    0.000    0.000    0.000    0.000    0.000    0.000 
#
# Total GULP energy -267399.689893 kJ/mol
# GULP energy per Si atom -5570.826873 kJ/mol
# Density = 0.682710 g / cm^3
# Si number density = 6.842670 Si / 1000 Ang^3
#
#
#
# Elastic Constant Matrix: (Units=GPa)
#
#
# Indices 1 2 3 4 5 6 
#
# 1 -2040.0113 2135.4752 5.6038 617.3360 -23.7418 79.7007
# 2 2135.4752-2038.7666 11.6118 -617.1538 23.5040 -78.9843
# 3 5.6038 11.6118 38.2260 0.8704 -0.1615 0.7247
# 4 617.3360 -617.1538 0.8704 -161.1417 7.0260 -23.6377
# 5 -23.7418 23.5040 -0.1615 7.0260 -159.8597 613.6195
# 6 79.7007 -78.9843 0.7247 -23.6377 613.6195-2077.5297
#
#
#
# Elastic Compliance Matrix: (Units=1/GPa)
#
#
# Indices 1 2 3 4 5 6 
#
# 1 0.006327 0.004520 -0.002458 0.006915 0.000014 -0.000004
# 2 0.004520 0.006324 -0.002426 -0.006918 0.000011 0.000014
# 3 -0.002458 -0.002426 0.027257 0.000023 -0.000070 -0.000014
# 4 0.006915 -0.006918 0.000023 0.046783 0.000025 0.000003
# 5 0.000014 0.000011 -0.000070 0.000025 0.046775 0.013815
# 6 -0.000004 0.000014 -0.000014 0.000003 0.013815 0.003598
#
#
# Mechanical properties :
#
#
# Convention : Reuss Voigt Hill
#
# Bulk Modulus (GPa) = 25.52401 29.42554 27.47477
# Shear Modulus (GPa) = 33.14508 -892.58906 -429.72199
#
# Velocity S-wave (km/s) = 4.02260 -20.87484 -14.48409
# Velocity P-wave (km/s) = 5.83402 23.80434 16.31887
#
# Compressibility (1/GPa) = 0.03917880
#
# Stress axis : x y z
#
# Youngs Moduli (GPa) = 158.06313 158.13681 36.68790
#
# Poissons Ratio (x) = -0.71474 0.09017
# Poissons Ratio (y) = -0.71440 0.08901
# Poissons Ratio (z) = 0.38848 0.38367
#
# Static dielectric constant tensor:
#      x y z
#    x 1.660060 0.000250 0.000390 
#    y 0.000250 1.659990 0.000080 
#    z 0.000390 0.000080 0.810640 
# 
# From -- ./inp_files/1768.got.cif
#   From: 2010.05.17/outbox.ucp.g08.bks.cvg/sg166_1_cif.got.tgz:1768.got - 2010.06.11 15:16:39.
