data_PCOD9579083
_publ_section_title
;
Structure prediction by ZEFSAII (Michael W. Deem and Ramdas Pophale) SiO2 
 PCOD9579083
Probable space group: R -3 M
;
_chemical_formula_sum "Si O2"
_cell_formula_units_Z 252
_cell_length_a 31.336971
_cell_length_b 31.336971
_cell_length_c 14.548356
_cell_angle_alpha 90.000000
_cell_angle_beta 90.000000
_cell_angle_gamma 120.000000
_cell_volume 12372.531917
_symmetry_space_group_name_H-M "R -3 M"
_symmetry_group_IT_number 166
_symmetry_cell_setting 'hexagonal'
loop_
_space_group_symop_operation_xyz
x,y,z
-y,x-y,z
-x+y,-x,z
x-y,-y,-z
-x,-x+y,-z
y,x,-z
-x,-y,-z
y,-x+y,-z
x-y,x,-z
-x+y,y,z
x,x-y,z
-y,-x,z
2/3+x,1/3+y,1/3+z
2/3-y,1/3+x-y,1/3+z
2/3-x+y,1/3-x,1/3+z
2/3+x-y,1/3-y,1/3-z
2/3-x,1/3-x+y,1/3-z
2/3+y,1/3+x,1/3-z
2/3-x,1/3-y,1/3-z
2/3+y,1/3-x+y,1/3-z
2/3+x-y,1/3+x,1/3-z
2/3-x+y,1/3+y,1/3+z
2/3+x,1/3+x-y,1/3+z
2/3-y,1/3-x,1/3+z
1/3+x,2/3+y,2/3+z
1/3-y,2/3+x-y,2/3+z
1/3-x+y,2/3-x,2/3+z
1/3+x-y,2/3-y,2/3-z
1/3-x,2/3-x+y,2/3-z
1/3+y,2/3+x,2/3-z
1/3-x,2/3-y,2/3-z
1/3+y,2/3-x+y,2/3-z
1/3+x-y,2/3+x,2/3-z
1/3-x+y,2/3+y,2/3+z
1/3+x,2/3+x-y,2/3+z
1/3-y,2/3-x,2/3+z
loop_
_atom_site_type_symbol
_atom_site_label
_atom_site_fract_x
_atom_site_fract_y
_atom_site_fract_z
Si Si1 0.504986 0.643357 0.882255
Si Si2 0.817910 0.540748 0.348586
Si Si3 0.665517 0.429496 0.648802
Si Si4 0.195069 0.712791 0.118125
Si Si5 0.508717 0.589038 0.395843
Si Si6 0.543257 0.560275 0.704311
Si Si7 0.632284 0.867733 0.417274
O O1 0.485268 0.610272 0.792237
O O2 0.461058 0.649657 0.921386
O O3 0.523252 0.612394 0.940672
O O4 0.552214 0.698255 0.872115
O O5 0.765170 0.530340 0.313128
O O6 0.833305 0.499972 0.333334
O O7 0.859708 0.596544 0.326299
O O8 0.709490 0.418980 0.664863
O O9 0.618024 0.381977 0.607592
O O10 0.646936 0.443491 0.740413
O O11 0.237120 0.762881 0.167666
O O12 0.149549 0.666667 0.166667
O O13 0.175995 0.730729 0.032261
O O14 0.462196 0.537805 0.430785
O O15 0.552214 0.579786 0.361567
O O16 0.493515 0.506486 0.707282
O O17 0.557060 0.574415 0.812390
O O18 0.631864 0.815932 0.419400
O O19 0.666667 0.898618 0.333334
#
# Coordination Sequence:
#
# PCOD9579083 Si02
#       7
#    36  36  36  36  36  36  36
#     4  10  19  34  53  77 107 136 173 221 274 330
#     4  10  21  38  61  85 109 141 180 223 274 330
#     4  10  19  30  45  66  97 138 181 226 273 320
#     4   9  17  27  40  62  92 130 178 226 271 319
#     4   9  18  32  51  74 102 137 175 219 270 323
#     4   8  16  33  53  74 103 136 172 216 262 310
#     4   9  17  30  50  74  99 134 179 220 264 322
#
# _framework density 20.367699000000002
#
# number of rings (size 3 to 8) (size 9 to 14) (size 15 to 20)
#    0.000    2.714    0.000    4.000    0.000    3.429 
#    0.000    5.714    0.000    8.429    0.000    0.000 
#    0.000    0.000    0.000    0.000    0.000    0.000 
#
# Total GULP energy -467697.384958 kJ/mol
# GULP energy per Si atom -5567.826011 kJ/mol
# Density = 2.032134 g / cm^3
# Si number density = 20.367699 Si / 1000 Ang^3
#
#
#
# Elastic Constant Matrix: (Units=GPa)
#
#
# Indices 1 2 3 4 5 6 
#
# 1 88.8130 28.6972 4.7168 5.9681 0.0009 0.0001
# 2 28.6972 88.8124 4.7158 -5.9678 0.0003 0.0000
# 3 4.7168 4.7158 15.1905 0.0004 0.0019 0.0004
# 4 5.9681 -5.9678 0.0004 21.8789 0.0002 -0.0001
# 5 0.0009 0.0003 0.0019 0.0002 21.8796 5.9680
# 6 0.0001 0.0000 0.0004 -0.0001 5.9680 30.0576
#
#
#
# Elastic Compliance Matrix: (Units=1/GPa)
#
#
# Indices 1 2 3 4 5 6 
#
# 1 0.013157 -0.004430 -0.002710 -0.004797 0.000000 0.000000
# 2 -0.004430 0.013157 -0.002709 0.004797 0.000000 0.000000
# 3 -0.002710 -0.002709 0.067513 -0.000001 -0.000006 0.000000
# 4 -0.004797 0.004797 -0.000001 0.048323 0.000000 0.000000
# 5 0.000000 0.000000 -0.000006 0.000000 0.048322 -0.009594
# 6 0.000000 0.000000 0.000000 0.000000 -0.009594 0.035174
#
#
# Mechanical properties :
#
#
# Convention : Reuss Voigt Hill
#
# Bulk Modulus (GPa) = 13.48993 29.89725 21.69359
# Shear Modulus (GPa) = 18.51474 25.07564 21.79519
#
# Velocity S-wave (km/s) = 3.01827 3.51258 3.27477
# Velocity P-wave (km/s) = 4.33408 5.58225 4.99729
#
# Compressibility (1/GPa) = 0.07412937
#
# Stress axis : x y z
#
# Youngs Moduli (GPa) = 76.00353 76.00353 14.81195
#
# Poissons Ratio (x) = 0.33668 0.04014
# Poissons Ratio (y) = 0.33668 0.04013
# Poissons Ratio (z) = 0.20598 0.20591
#
# Static dielectric constant tensor:
#      x y z
#    x 1.788210 0.000000 0.000000 
#    y 0.000000 1.788210 0.000000 
#    z 0.000000 0.000000 1.810150 
# 
# From -- ./inp_files/5835.got.cif
#   From: 2010.05.17/outbox.cif.g08.bks.cpg/sg166_3_cif.got.tgz:5835.got - 2010.05.20 11:04:41.
