data_PCOD9579019
_publ_section_title
;
Structure prediction by ZEFSAII (Michael W. Deem and Ramdas Pophale) SiO2 
 PCOD9579019
Probable space group: R -3 M
;
_chemical_formula_sum "Si O2"
_cell_formula_units_Z 216
_cell_length_a 25.115717
_cell_length_b 25.115717
_cell_length_c 24.769352
_cell_angle_alpha 90.000000
_cell_angle_beta 90.000000
_cell_angle_gamma 120.000000
_cell_volume 13531.203899
_symmetry_space_group_name_H-M "R -3 M"
_symmetry_group_IT_number 166
_symmetry_cell_setting 'hexagonal'
loop_
_space_group_symop_operation_xyz
x,y,z
-y,x-y,z
-x+y,-x,z
x-y,-y,-z
-x,-x+y,-z
y,x,-z
-x,-y,-z
y,-x+y,-z
x-y,x,-z
-x+y,y,z
x,x-y,z
-y,-x,z
2/3+x,1/3+y,1/3+z
2/3-y,1/3+x-y,1/3+z
2/3-x+y,1/3-x,1/3+z
2/3+x-y,1/3-y,1/3-z
2/3-x,1/3-x+y,1/3-z
2/3+y,1/3+x,1/3-z
2/3-x,1/3-y,1/3-z
2/3+y,1/3-x+y,1/3-z
2/3+x-y,1/3+x,1/3-z
2/3-x+y,1/3+y,1/3+z
2/3+x,1/3+x-y,1/3+z
2/3-y,1/3-x,1/3+z
1/3+x,2/3+y,2/3+z
1/3-y,2/3+x-y,2/3+z
1/3-x+y,2/3-x,2/3+z
1/3+x-y,2/3-y,2/3-z
1/3-x,2/3-x+y,2/3-z
1/3+y,2/3+x,2/3-z
1/3-x,2/3-y,2/3-z
1/3+y,2/3-x+y,2/3-z
1/3+x-y,2/3+x,2/3-z
1/3-x+y,2/3+y,2/3+z
1/3+x,2/3+x-y,2/3+z
1/3-y,2/3-x,2/3+z
loop_
_atom_site_type_symbol
_atom_site_label
_atom_site_fract_x
_atom_site_fract_y
_atom_site_fract_z
Si Si1 0.593382 0.735703 0.339727
Si Si2 0.688465 0.071773 0.211742
Si Si3 0.380038 0.415763 0.279080
Si Si4 0.199201 0.924561 0.203051
Si Si5 0.857294 0.264291 0.314637
Si Si6 0.813086 0.070959 0.496452
O O1 0.570055 0.785028 0.327076
O O2 0.666667 0.775894 0.333334
O O3 0.576246 0.674743 0.304773
O O4 0.583064 0.719101 0.403552
O O5 0.640382 0.083157 0.177967
O O6 0.729585 0.126334 0.251638
O O7 0.725057 0.058390 0.166667
O O8 0.649401 0.009876 0.248561
O O9 0.428834 0.419324 0.322640
O O10 0.412891 0.464608 0.231553
O O11 0.131927 0.868074 0.191085
O O12 0.243506 0.894454 0.200199
O O13 0.788344 0.211657 0.326412
O O14 0.876804 0.333334 0.333334
O O15 0.883107 0.116894 0.510039
O O16 0.790544 0.000000 0.500000
#
# Coordination Sequence:
#
# PCOD9579019 Si02
#       6
#    36  36  36  36  36  36
#     4  10  17  25  41  65  93 124 156 189 221 257
#     4  10  18  28  43  63  91 123 154 185 223 271
#     4  10  18  30  45  64  94 125 156 186 224 272
#     4   9  17  28  42  64  91 119 149 180 220 268
#     4  10  21  34  50  69  91 122 156 192 236 289
#     4  10  19  29  43  61  85 117 151 187 224 264
#
# _framework density 15.963103
#
# number of rings (size 3 to 8) (size 9 to 14) (size 15 to 20)
#    0.000    2.167    0.000    7.000    0.000    6.333 
#    0.000    0.000    0.000    0.333    0.000    0.000 
#    0.000    0.000    0.000    0.000    0.000    2.667 
#
# Total GULP energy -401133.267530 kJ/mol
# GULP energy per Si atom -5571.295382 kJ/mol
# Density = 1.592677 g / cm^3
# Si number density = 15.963103 Si / 1000 Ang^3
#
#
#
# Elastic Constant Matrix: (Units=GPa)
#
#
# Indices 1 2 3 4 5 6 
#
# 1 52.5459 28.9867 22.2510 -0.7553 0.0002 0.0000
# 2 28.9867 52.5459 22.2510 0.7553 -0.0002 0.0000
# 3 22.2510 22.2510 83.8104 0.0000 0.0000 0.0000
# 4 -0.7553 0.7553 0.0000 10.4381 0.0000 -0.0002
# 5 0.0002 -0.0002 0.0000 0.0000 10.4381 -0.7553
# 6 0.0000 0.0000 0.0000 -0.0002 -0.7553 11.7796
#
#
#
# Elastic Compliance Matrix: (Units=1/GPa)
#
#
# Indices 1 2 3 4 5 6 
#
# 1 0.028494 -0.014150 -0.003808 0.003086 -0.000001 0.000000
# 2 -0.014150 0.028494 -0.003808 -0.003086 0.000001 0.000000
# 3 -0.003808 -0.003808 0.013954 0.000000 0.000000 0.000000
# 4 0.003086 -0.003086 0.000000 0.096249 0.000000 0.000002
# 5 -0.000001 0.000001 0.000000 0.000000 0.096249 0.006172
# 6 0.000000 0.000000 0.000000 0.000002 0.006172 0.085288
#
#
# Mechanical properties :
#
#
# Convention : Reuss Voigt Hill
#
# Bulk Modulus (GPa) = 36.48511 37.31997 36.90254
# Shear Modulus (GPa) = 12.45649 14.22540 13.34095
#
# Velocity S-wave (km/s) = 2.79647 2.98844 2.89405
# Velocity P-wave (km/s) = 5.77343 5.94452 5.85960
#
# Compressibility (1/GPa) = 0.02740844
#
# Stress axis : x y z
#
# Youngs Moduli (GPa) = 35.09533 35.09533 71.66535
#
# Poissons Ratio (x) = 0.49661 0.27291
# Poissons Ratio (y) = 0.49661 0.27291
# Poissons Ratio (z) = 0.13365 0.13365
#
# Static dielectric constant tensor:
#      x y z
#    x 1.537150 0.000000 0.000000 
#    y 0.000000 1.537150 0.000000 
#    z 0.000000 0.000000 1.589660 
# 
# From -- ./inp_files/8650.got.cif
#   From: 2010.05.17/outbox.cif.g08.bks.cpg/sg166_5_cif.got.tgz:8650.got - 2010.05.20 11:04:41.
