data_PCOD9579762
_publ_section_title
;
Structure prediction by ZEFSAII (Michael W. Deem and Ramdas Pophale) SiO2 
 PCOD9579762
Probable space group: P 6
;
_chemical_formula_sum "Si O2"
_cell_formula_units_Z 28
_cell_length_a 14.098263
_cell_length_b 14.098263
_cell_length_c 7.583615
_cell_angle_alpha 90.000000
_cell_angle_beta 90.000000
_cell_angle_gamma 120.000000
_cell_volume 1305.383517
_symmetry_space_group_name_H-M "P 6"
_symmetry_group_IT_number 168
_symmetry_cell_setting 'hexagonal'
loop_
_space_group_symop_operation_xyz
x,y,z
x-y,x,z
-y,x-y,z
-x,-y,z
-x+y,-x,z
y,-x+y,z
loop_
_atom_site_type_symbol
_atom_site_label
_atom_site_fract_x
_atom_site_fract_y
_atom_site_fract_z
Si Si1 0.520692 0.616354 0.309850
Si Si2 0.333334 0.666668 0.737446
Si Si3 0.764154 0.809824 0.808639
Si Si4 0.190176 0.954330 0.233196
Si Si5 0.333333 0.666667 0.304398
Si Si6 0.383646 0.904339 0.731985
O O1 0.500000 0.500000 0.240243
O O2 0.643275 0.712611 0.275518
O O3 0.430721 0.646276 0.244789
O O4 0.506652 0.605262 0.520918
O O5 0.333334 0.666667 0.520922
O O6 0.353725 0.784447 0.797051
O O7 0.857302 0.784071 0.743297
O O8 0.643276 0.712611 0.766316
O O9 0.772893 0.816853 0.020918
O O10 0.073231 0.857301 0.298539
O O11 0.500000 0.000000 0.801592
#
# Coordination Sequence:
#
# PCOD9579762 Si02
#       6
#     6   2   6   6   2   6
#     4  10  20  35  56  80 107 140 177 217 262 313
#     4   9  18  33  52  77 109 141 172 212 265 318
#     4  10  21  37  56  78 106 140 177 218 265 315
#     4  10  21  37  56  78 106 140 177 218 265 315
#     4   9  18  33  52  77 109 141 172 212 265 318
#     4  10  20  35  56  80 107 140 177 217 262 313
#
# _framework density 21.449635000000001
#
# number of rings (size 3 to 8) (size 9 to 14) (size 15 to 20)
#    0.000    2.143    0.000    3.000    0.000    7.714 
#    0.000    2.143    0.000    2.571    0.000    0.000 
#    0.000    0.000    0.000    0.000    0.000    0.000 
#
# Total GULP energy -156528.036149 kJ/mol
# GULP energy per Si atom -5590.287005 kJ/mol
# Density = 2.140082 g / cm^3
# Si number density = 21.449635 Si / 1000 Ang^3
#
#
#
# Elastic Constant Matrix: (Units=GPa)
#
#
# Indices 1 2 3 4 5 6 
#
# 1 260.3670 162.9199 -1.1412 0.0000 0.0000 -0.0001
# 2 162.9199 260.3668 -1.1416 0.0000 0.0000 -0.0008
# 3 -1.1412 -1.1416 44.7390 0.0000 0.0000 -0.0001
# 4 0.0000 0.0000 0.0000 24.1014 0.0002 0.0000
# 5 0.0000 0.0000 0.0000 0.0002 24.1009 0.0000
# 6 -0.0001 -0.0008 -0.0001 0.0000 0.0000 48.7230
#
#
#
# Elastic Compliance Matrix: (Units=1/GPa)
#
#
# Indices 1 2 3 4 5 6 
#
# 1 0.006312 -0.003950 0.000060 0.000000 0.000000 0.000000
# 2 -0.003950 0.006312 0.000060 0.000000 0.000000 0.000000
# 3 0.000060 0.000060 0.022355 0.000000 0.000000 0.000000
# 4 0.000000 0.000000 0.000000 0.041491 0.000000 0.000000
# 5 0.000000 0.000000 0.000000 0.000000 0.041492 0.000000
# 6 0.000000 0.000000 0.000000 0.000000 0.000000 0.020524
#
#
# Mechanical properties :
#
#
# Convention : Reuss Voigt Hill
#
# Bulk Modulus (GPa) = 36.60102 98.52744 67.56423
# Shear Modulus (GPa) = 32.20554 46.37411 39.28983
#
# Velocity S-wave (km/s) = 3.87906 4.65478 4.28451
# Velocity P-wave (km/s) = 6.09619 8.65582 7.48621
#
# Compressibility (1/GPa) = 0.02732164
#
# Stress axis : x y z
#
# Youngs Moduli (GPa) = 158.41870 158.41856 44.73285
#
# Poissons Ratio (x) = 0.62569 -0.00269
# Poissons Ratio (y) = 0.62569 -0.00270
# Poissons Ratio (z) = -0.00954 -0.00956
#
# Static dielectric constant tensor:
#      x y z
#    x 1.731670 0.000000 0.000000 
#    y 0.000000 1.731670 0.000000 
#    z 0.000000 0.000000 1.823210 
# 
# From -- ./inp_files/252.got.cif
#   From: 2010.05.17/outbox.cif.g08.bks.cpg/sg168_cif.got.tgz:252.got - 2010.05.20 11:12:33.
