data_PCOD9579106
_publ_section_title
;
Structure prediction by ZEFSAII (Michael W. Deem and Ramdas Pophale) SiO2 
 PCOD9579106
Probable space group: R -3 M
;
_chemical_formula_sum "Si O2"
_cell_formula_units_Z 126
_cell_length_a 22.069506
_cell_length_b 22.069506
_cell_length_c 14.524545
_cell_angle_alpha 90.000000
_cell_angle_beta 90.000000
_cell_angle_gamma 120.000000
_cell_volume 6126.583999
_symmetry_space_group_name_H-M "R -3 M"
_symmetry_group_IT_number 166
_symmetry_cell_setting 'hexagonal'
loop_
_space_group_symop_operation_xyz
x,y,z
-y,x-y,z
-x+y,-x,z
x-y,-y,-z
-x,-x+y,-z
y,x,-z
-x,-y,-z
y,-x+y,-z
x-y,x,-z
-x+y,y,z
x,x-y,z
-y,-x,z
2/3+x,1/3+y,1/3+z
2/3-y,1/3+x-y,1/3+z
2/3-x+y,1/3-x,1/3+z
2/3+x-y,1/3-y,1/3-z
2/3-x,1/3-x+y,1/3-z
2/3+y,1/3+x,1/3-z
2/3-x,1/3-y,1/3-z
2/3+y,1/3-x+y,1/3-z
2/3+x-y,1/3+x,1/3-z
2/3-x+y,1/3+y,1/3+z
2/3+x,1/3+x-y,1/3+z
2/3-y,1/3-x,1/3+z
1/3+x,2/3+y,2/3+z
1/3-y,2/3+x-y,2/3+z
1/3-x+y,2/3-x,2/3+z
1/3+x-y,2/3-y,2/3-z
1/3-x,2/3-x+y,2/3-z
1/3+y,2/3+x,2/3-z
1/3-x,2/3-y,2/3-z
1/3+y,2/3-x+y,2/3-z
1/3+x-y,2/3+x,2/3-z
1/3-x+y,2/3+y,2/3+z
1/3+x,2/3+x-y,2/3+z
1/3-y,2/3-x,2/3+z
loop_
_atom_site_type_symbol
_atom_site_label
_atom_site_fract_x
_atom_site_fract_y
_atom_site_fract_z
Si Si1 0.445567 0.413866 0.595175
Si Si2 0.374413 0.884088 0.860739
Si Si3 0.858114 0.858114 0.000000
Si Si4 0.743225 0.628338 0.867155
O O1 0.403497 0.403497 0.500000
O O2 0.505241 0.494760 0.595306
O O3 0.477112 0.362395 0.585064
O O4 0.415313 0.401052 0.697144
O O5 0.431701 0.863401 0.890518
O O6 0.352685 0.857004 0.756264
O O7 0.412798 0.968424 0.861376
O O8 0.932778 0.865556 0.021921
O O9 0.802813 0.605625 0.872280
O O10 0.666667 0.571382 0.833334
#
# Coordination Sequence:
#
# PCOD9579106 Si02
#       4
#    36  36  18  36
#     4  10  20  35  55  77 104 141 182 221 263 317
#     4  10  20  32  49  76 106 135 171 217 267 319
#     4  10  19  32  50  74 107 144 182 222 266 318
#     4  10  22  38  56  80 109 142 180 223 275 332
#
# _framework density 20.566109000000001
#
# number of rings (size 3 to 8) (size 9 to 14) (size 15 to 20)
#    0.000    2.000    0.000    3.571    0.000    9.143 
#    0.000    2.857    0.000    0.857    0.000    0.000 
#    0.000    0.000    0.000    0.000    0.000    0.000 
#
# Total GULP energy -234277.657008 kJ/mol
# GULP energy per Si atom -5578.039453 kJ/mol
# Density = 2.051930 g / cm^3
# Si number density = 20.566109 Si / 1000 Ang^3
#
#
#
# Elastic Constant Matrix: (Units=GPa)
#
#
# Indices 1 2 3 4 5 6 
#
# 1 74.0151 17.0247 6.2165 7.2854 -0.0002 0.0000
# 2 17.0247 74.0151 6.2165 -7.2854 0.0002 0.0000
# 3 6.2165 6.2165 44.2660 0.0000 0.0000 0.0000
# 4 7.2854 -7.2854 0.0000 24.2585 0.0000 0.0002
# 5 -0.0002 0.0002 0.0000 0.0000 24.2585 7.2854
# 6 0.0000 0.0000 0.0000 0.0002 7.2854 28.4952
#
#
#
# Elastic Compliance Matrix: (Units=1/GPa)
#
#
# Indices 1 2 3 4 5 6 
#
# 1 0.015103 -0.003904 -0.001573 -0.005708 0.000000 0.000000
# 2 -0.003904 0.015103 -0.001573 0.005708 0.000000 0.000000
# 3 -0.001573 -0.001573 0.023032 0.000000 0.000000 0.000000
# 4 -0.005708 0.005708 0.000000 0.044651 0.000000 0.000000
# 5 0.000000 0.000000 0.000000 0.000000 0.044651 -0.011416
# 6 0.000000 0.000000 0.000000 0.000000 -0.011416 0.038012
#
#
# Mechanical properties :
#
#
# Convention : Reuss Voigt Hill
#
# Bulk Modulus (GPa) = 25.54967 27.91243 26.73105
# Shear Modulus (GPa) = 24.07352 26.25834 25.16593
#
# Velocity S-wave (km/s) = 3.42503 3.57708 3.50188
# Velocity P-wave (km/s) = 5.30012 5.53734 5.42003
#
# Compressibility (1/GPa) = 0.03913945
#
# Stress axis : x y z
#
# Youngs Moduli (GPa) = 66.21378 66.21378 43.41701
#
# Poissons Ratio (x) = 0.25847 0.06828
# Poissons Ratio (y) = 0.25847 0.06828
# Poissons Ratio (z) = 0.10414 0.10414
#
# Static dielectric constant tensor:
#      x y z
#    x 1.765520 0.000000 0.000000 
#    y 0.000000 1.765520 0.000000 
#    z 0.000000 0.000000 1.763970 
# 
# From -- ./inp_files/4881.got.cif
#   From: 2010.05.17/outbox.cif.g08.bks.cpg/sg166_3_cif.got.tgz:4881.got - 2010.05.20 11:04:41.
