data_PCOD9579680
_publ_section_title
;
Structure prediction by ZEFSAII (Michael W. Deem and Ramdas Pophale) SiO2 
 PCOD9579680
Probable space group: R -3 C 
;
_chemical_formula_sum "Si O2"
_cell_formula_units_Z 162
_cell_length_a 20.963088
_cell_length_b 20.963088
_cell_length_c 21.919496
_cell_angle_alpha 90.000000
_cell_angle_beta 90.000000
_cell_angle_gamma 120.000000
_cell_volume 8342.029296
_symmetry_space_group_name_H-M "R -3 C "
_symmetry_group_IT_number 167
_symmetry_cell_setting 'hexagonal'
loop_
_space_group_symop_operation_xyz
x,y,z
-y,x-y,z
-x+y,-x,z
x-y,-y,1/2-z
-x,-x+y,1/2-z
y,x,1/2-z
-x,-y,-z
y,-x+y,-z
x-y,x,-z
-x+y,y,1/2+z
x,x-y,1/2+z
-y,-x,1/2+z
2/3+x,1/3+y,1/3+z
2/3-y,1/3+x-y,1/3+z
2/3-x+y,1/3-x,1/3+z
2/3+x-y,1/3-y,5/6-z
2/3-x,1/3-x+y,5/6-z
2/3+y,1/3+x,5/6-z
2/3-x,1/3-y,1/3-z
2/3+y,1/3-x+y,1/3-z
2/3+x-y,1/3+x,1/3-z
2/3-x+y,1/3+y,5/6+z
2/3+x,1/3+x-y,5/6+z
2/3-y,1/3-x,5/6+z
1/3+x,2/3+y,2/3+z
1/3-y,2/3+x-y,2/3+z
1/3-x+y,2/3-x,2/3+z
1/3+x-y,2/3-y,1/6-z
1/3-x,2/3-x+y,1/6-z
1/3+y,2/3+x,1/6-z
1/3-x,2/3-y,2/3-z
1/3+y,2/3-x+y,2/3-z
1/3+x-y,2/3+x,2/3-z
1/3-x+y,2/3+y,1/6+z
1/3+x,2/3+x-y,1/6+z
1/3-y,2/3-x,1/6+z
loop_
_atom_site_type_symbol
_atom_site_label
_atom_site_fract_x
_atom_site_fract_y
_atom_site_fract_z
Si Si1 0.977503 0.851838 0.577994
Si Si2 0.645563 0.846978 0.267377
Si Si3 0.261291 0.959429 0.955264
Si Si4 0.492542 0.692026 0.597616
Si Si5 0.000000 0.678015 0.250000
O O1 0.938320 0.769716 0.602458
O O2 0.974106 0.848313 0.504351
O O3 0.918271 0.877115 0.594283
O O4 0.063360 0.901122 0.593922
O O5 0.666667 0.833334 0.333334
O O6 0.649153 0.789583 0.220926
O O7 0.692169 0.931794 0.253195
O O8 0.333334 0.977574 0.916667
O O9 0.226427 0.008227 0.927037
O O10 0.291079 0.976659 0.024455
#
# Coordination Sequence:
#
# PCOD9579680 Si02
#       5
#    36  36  36  36  18
#     4   9  17  32  54  84 124 155 195 256 313 371
#     4  11  23  42  62  89 131 166 213 264 325 391
#     4  11  23  42  64  92 126 169 218 265 325 388
#     4   9  17  32  55  88 118 157 200 253 312 373
#     4  12  24  44  66  92 130 176 212 272 326 392
#
# _framework density 19.419736
#
# number of rings (size 3 to 8) (size 9 to 14) (size 15 to 20)
#    0.000    1.778    4.444    0.444    0.000    1.778 
#    8.000    0.000    0.000    0.000    0.000    0.000 
#    1.111    0.000    0.000    0.000    0.000    0.000 
#
# Total GULP energy -300619.883984 kJ/mol
# GULP energy per Si atom -5567.034889 kJ/mol
# Density = 1.937554 g / cm^3
# Si number density = 19.419736 Si / 1000 Ang^3
#
#
#
# Elastic Constant Matrix: (Units=GPa)
#
#
# Indices 1 2 3 4 5 6 
#
# 1 99.6999 69.0027 16.0850 -10.8155 0.0001 0.0000
# 2 69.0027 99.6999 16.0850 10.8155 -0.0001 0.0000
# 3 16.0850 16.0850 60.5629 0.0000 0.0000 0.0000
# 4 -10.8155 10.8155 0.0000 12.9944 0.0000 -0.0001
# 5 0.0001 -0.0001 0.0000 0.0000 12.9944 -10.8155
# 6 0.0000 0.0000 0.0000 -0.0001 -10.8155 15.3486
#
#
#
# Elastic Compliance Matrix: (Units=1/GPa)
#
#
# Indices 1 2 3 4 5 6 
#
# 1 0.042513 -0.036269 -0.001658 0.065573 -0.000001 0.000000
# 2 -0.036269 0.042513 -0.001658 -0.065573 0.000001 0.000000
# 3 -0.001658 -0.001658 0.017393 0.000000 0.000000 0.000000
# 4 0.065573 -0.065573 0.000000 0.186111 0.000000 0.000001
# 5 -0.000001 0.000001 0.000000 0.000000 0.186111 0.131145
# 6 0.000000 0.000000 0.000000 0.000001 0.131145 0.157565
#
#
# Mechanical properties :
#
#
# Convention : Reuss Voigt Hill
#
# Bulk Modulus (GPa) = 43.01624 51.36756 47.19190
# Shear Modulus (GPa) = 6.95286 18.85347 12.90316
#
# Velocity S-wave (km/s) = 1.89422 3.11921 2.58046
# Velocity P-wave (km/s) = 5.19451 6.28341 5.76473
#
# Compressibility (1/GPa) = 0.02324703
#
# Stress axis : x y z
#
# Youngs Moduli (GPa) = 23.52207 23.52207 57.49568
#
# Poissons Ratio (x) = 0.85313 0.09535
# Poissons Ratio (y) = 0.85313 0.09535
# Poissons Ratio (z) = 0.03901 0.03901
#
# Static dielectric constant tensor:
#      x y z
#    x 1.784160 0.000000 0.000000 
#    y 0.000000 1.784160 0.000000 
#    z 0.000000 0.000000 1.646680 
# 
# From -- ./inp_files/4472.got.cif
#   From: 2010.05.17/outbox.cif.g08.bks.cpg/sg167_3_cif.got.tgz:4472.got - 2010.05.20 11:09:15.
