data_PCOD9579687
_publ_section_title
;
Structure prediction by ZEFSAII (Michael W. Deem and Ramdas Pophale) SiO2 
 PCOD9579687
Probable space group: R -3 C 
;
_chemical_formula_sum "Si O2"
_cell_formula_units_Z 144
_cell_length_a 19.333308
_cell_length_b 19.333308
_cell_length_c 18.214352
_cell_angle_alpha 90.000000
_cell_angle_beta 90.000000
_cell_angle_gamma 120.000000
_cell_volume 5895.989433
_symmetry_space_group_name_H-M "R -3 C "
_symmetry_group_IT_number 167
_symmetry_cell_setting 'hexagonal'
loop_
_space_group_symop_operation_xyz
x,y,z
-y,x-y,z
-x+y,-x,z
x-y,-y,1/2-z
-x,-x+y,1/2-z
y,x,1/2-z
-x,-y,-z
y,-x+y,-z
x-y,x,-z
-x+y,y,1/2+z
x,x-y,1/2+z
-y,-x,1/2+z
2/3+x,1/3+y,1/3+z
2/3-y,1/3+x-y,1/3+z
2/3-x+y,1/3-x,1/3+z
2/3+x-y,1/3-y,5/6-z
2/3-x,1/3-x+y,5/6-z
2/3+y,1/3+x,5/6-z
2/3-x,1/3-y,1/3-z
2/3+y,1/3-x+y,1/3-z
2/3+x-y,1/3+x,1/3-z
2/3-x+y,1/3+y,5/6+z
2/3+x,1/3+x-y,5/6+z
2/3-y,1/3-x,5/6+z
1/3+x,2/3+y,2/3+z
1/3-y,2/3+x-y,2/3+z
1/3-x+y,2/3-x,2/3+z
1/3+x-y,2/3-y,1/6-z
1/3-x,2/3-x+y,1/6-z
1/3+y,2/3+x,1/6-z
1/3-x,2/3-y,2/3-z
1/3+y,2/3-x+y,2/3-z
1/3+x-y,2/3+x,2/3-z
1/3-x+y,2/3+y,1/6+z
1/3+x,2/3+x-y,1/6+z
1/3-y,2/3-x,1/6+z
loop_
_atom_site_type_symbol
_atom_site_label
_atom_site_fract_x
_atom_site_fract_y
_atom_site_fract_z
Si Si1 0.218042 0.712831 0.207858
Si Si2 0.411867 0.824403 0.951937
Si Si3 0.266707 0.290279 0.516917
Si Si4 0.773360 0.093652 0.713623
O O1 0.248225 0.734669 0.292613
O O2 0.287155 0.763877 0.148339
O O3 0.266112 0.883867 0.221350
O O4 0.304033 0.977015 0.328357
O O5 0.333334 0.753072 0.916667
O O6 0.485399 0.818732 0.916667
O O7 0.409685 0.902043 0.921844
O O8 0.249009 0.333334 0.583334
O O9 0.244761 0.200749 0.535210
O O10 0.833334 0.166667 0.666667
#
# Coordination Sequence:
#
# PCOD9579687 Si02
#       4
#    36  36  36  36
#     4  12  26  48  76 115 159 208 269 344 425 505
#     4  12  24  46  73 108 153 202 259 329 406 492
#     4  11  23  47  75 106 156 201 264 334 403 501
#     4  11  24  47  73 108 155 205 265 328 408 495
#
# _framework density 24.423380999999999
#
# number of rings (size 3 to 8) (size 9 to 14) (size 15 to 20)
#    0.000    0.500    5.000    3.500    0.000    1.000 
#    4.500    2.500    0.000    0.000    0.000    0.000 
#    0.000    0.000    0.000    0.000    0.000    0.000 
#
# Total GULP energy -267323.353100 kJ/mol
# GULP energy per Si atom -5569.236523 kJ/mol
# Density = 2.436779 g / cm^3
# Si number density = 24.423381 Si / 1000 Ang^3
#
#
#
# Elastic Constant Matrix: (Units=GPa)
#
#
# Indices 1 2 3 4 5 6 
#
# 1 112.4287 38.7996 35.0007 11.2095 -0.0005 0.0000
# 2 38.7996 112.4287 35.0007 -11.2095 0.0005 0.0000
# 3 35.0007 35.0007 165.3956 0.0000 0.0000 0.0000
# 4 11.2095 -11.2095 0.0000 41.4021 0.0000 0.0005
# 5 -0.0005 0.0005 0.0000 0.0000 41.4021 11.2095
# 6 0.0000 0.0000 0.0000 0.0005 11.2095 36.8145
#
#
#
# Elastic Compliance Matrix: (Units=1/GPa)
#
#
# Indices 1 2 3 4 5 6 
#
# 1 0.011066 -0.003736 -0.001551 -0.004008 0.000000 0.000000
# 2 -0.003736 0.011066 -0.001551 0.004008 0.000000 0.000000
# 3 -0.001551 -0.001551 0.006703 0.000000 0.000000 0.000000
# 4 -0.004008 0.004008 0.000000 0.026323 0.000000 0.000000
# 5 0.000000 0.000000 0.000000 0.000000 0.026323 -0.008015
# 6 0.000000 0.000000 0.000000 0.000000 -0.008015 0.029604
#
#
# Mechanical properties :
#
#
# Convention : Reuss Voigt Hill
#
# Bulk Modulus (GPa) = 65.96869 67.53943 66.75406
# Shear Modulus (GPa) = 38.51635 42.68720 40.60178
#
# Velocity S-wave (km/s) = 3.97549 4.18521 4.08169
# Velocity P-wave (km/s) = 6.93843 7.14620 7.04308
#
# Compressibility (1/GPa) = 0.01515871
#
# Stress axis : x y z
#
# Youngs Moduli (GPa) = 90.36513 90.36513 149.19424
#
# Poissons Ratio (x) = 0.33757 0.23144
# Poissons Ratio (y) = 0.33757 0.23144
# Poissons Ratio (z) = 0.14018 0.14018
#
# Static dielectric constant tensor:
#      x y z
#    x 1.673070 0.000000 0.000000 
#    y 0.000000 1.673070 0.000000 
#    z 0.000000 0.000000 1.941820 
# 
# From -- ./inp_files/3289.got.cif
#   From: 2010.05.17/outbox.cif.g08.bks.cpg/sg167_2_cif.got.tgz:3289.got - 2010.05.20 11:09:15.
