data_PCOD9579334
_publ_section_title
;
Structure prediction by ZEFSAII (Michael W. Deem and Ramdas Pophale) SiO2 
 PCOD9579334
Probable space group: R -3 M
;
_chemical_formula_sum "Si O2"
_cell_formula_units_Z 135
_cell_length_a 25.446272
_cell_length_b 25.446272
_cell_length_c 12.768905
_cell_angle_alpha 90.000000
_cell_angle_beta 90.000000
_cell_angle_gamma 120.000000
_cell_volume 7160.323068
_symmetry_space_group_name_H-M "R -3 M"
_symmetry_group_IT_number 166
_symmetry_cell_setting 'hexagonal'
loop_
_space_group_symop_operation_xyz
x,y,z
-y,x-y,z
-x+y,-x,z
x-y,-y,-z
-x,-x+y,-z
y,x,-z
-x,-y,-z
y,-x+y,-z
x-y,x,-z
-x+y,y,z
x,x-y,z
-y,-x,z
2/3+x,1/3+y,1/3+z
2/3-y,1/3+x-y,1/3+z
2/3-x+y,1/3-x,1/3+z
2/3+x-y,1/3-y,1/3-z
2/3-x,1/3-x+y,1/3-z
2/3+y,1/3+x,1/3-z
2/3-x,1/3-y,1/3-z
2/3+y,1/3-x+y,1/3-z
2/3+x-y,1/3+x,1/3-z
2/3-x+y,1/3+y,1/3+z
2/3+x,1/3+x-y,1/3+z
2/3-y,1/3-x,1/3+z
1/3+x,2/3+y,2/3+z
1/3-y,2/3+x-y,2/3+z
1/3-x+y,2/3-x,2/3+z
1/3+x-y,2/3-y,2/3-z
1/3-x,2/3-x+y,2/3-z
1/3+y,2/3+x,2/3-z
1/3-x,2/3-y,2/3-z
1/3+y,2/3-x+y,2/3-z
1/3+x-y,2/3+x,2/3-z
1/3-x+y,2/3+y,2/3+z
1/3+x,2/3+x-y,2/3+z
1/3-y,2/3-x,2/3+z
loop_
_atom_site_type_symbol
_atom_site_label
_atom_site_fract_x
_atom_site_fract_y
_atom_site_fract_z
Si Si1 0.454269 0.666667 0.666667
Si Si2 0.636474 0.520660 0.515601
Si Si3 0.333334 0.166667 0.166667
Si Si4 0.944703 0.770004 0.419229
Si Si5 0.728201 0.686413 0.898063
O O1 0.447389 0.723695 0.635333
O O2 0.480522 0.646211 0.569765
O O3 0.572955 0.519075 0.493622
O O4 0.631922 0.501649 0.636361
O O5 0.694112 0.588274 0.502166
O O6 0.889098 0.778195 0.453791
O O7 0.920141 0.697316 0.409339
O O8 0.000000 0.799299 0.500000
O O9 0.666667 0.650697 0.833334
O O10 0.713047 0.713047 0.000000
#
# Coordination Sequence:
#
# PCOD9579334 Si02
#       5
#    18  36   9  36  36
#     4  12  27  44  64  94 130 172 221 276 330 382
#     4  12  23  38  66  98 124 170 219 263 323 386
#     4  12  20  40  68  98 130 164 222 280 304 390
#     4  11  25  43  64  90 131 174 216 267 317 388
#     4  11  20  35  60  92 131 164 200 254 317 386
#
# _framework density 18.853898000000001
#
# number of rings (size 3 to 8) (size 9 to 14) (size 15 to 20)
#    0.000    0.533    8.000    0.133    0.000    2.133 
#    0.000    1.333    0.000    0.267    0.000    0.000 
#    0.000    0.000    0.000    0.000    0.000    0.000 
#
# Total GULP energy -250529.438153 kJ/mol
# GULP energy per Si atom -5567.320848 kJ/mol
# Density = 1.881099 g / cm^3
# Si number density = 18.853898 Si / 1000 Ang^3
#
#
#
# Elastic Constant Matrix: (Units=GPa)
#
#
# Indices 1 2 3 4 5 6 
#
# 1 128.0896 40.1027 46.5844 -11.2576 -0.0007 0.0000
# 2 40.1027 128.0896 46.5845 11.2576 0.0008 0.0000
# 3 46.5844 46.5845 78.6870 0.0001 0.0002 0.0002
# 4 -11.2576 11.2576 0.0001 29.3298 0.0000 0.0007
# 5 -0.0007 0.0008 0.0002 0.0000 29.3299 -11.2575
# 6 0.0000 0.0000 0.0002 0.0007 -11.2575 43.9935
#
#
#
# Elastic Compliance Matrix: (Units=1/GPa)
#
#
# Indices 1 2 3 4 5 6 
#
# 1 0.010725 -0.001878 -0.005238 0.004837 0.000000 0.000000
# 2 -0.001878 0.010725 -0.005238 -0.004837 0.000000 0.000000
# 3 -0.005238 -0.005238 0.018910 0.000000 0.000000 0.000000
# 4 0.004837 -0.004837 0.000000 0.037808 0.000000 -0.000001
# 5 0.000000 0.000000 0.000000 0.000000 0.037808 0.009675
# 6 0.000000 0.000000 0.000000 -0.000001 0.009675 0.025206
#
#
# Mechanical properties :
#
#
# Convention : Reuss Voigt Hill
#
# Bulk Modulus (GPa) = 63.88294 66.82327 65.35311
# Shear Modulus (GPa) = 29.22136 33.97028 31.59582
#
# Velocity S-wave (km/s) = 3.94113 4.24932 4.09812
# Velocity P-wave (km/s) = 7.39369 7.71980 7.55850
#
# Compressibility (1/GPa) = 0.01565363
#
# Stress axis : x y z
#
# Youngs Moduli (GPa) = 93.23988 93.23978 52.88191
#
# Poissons Ratio (x) = 0.17512 0.27697
# Poissons Ratio (y) = 0.17512 0.27697
# Poissons Ratio (z) = 0.48835 0.48835
#
# Static dielectric constant tensor:
#      x y z
#    x 1.660080 0.000000 0.000000 
#    y 0.000000 1.660080 0.000000 
#    z 0.000000 0.000000 1.687520 
# 
# From -- ./inp_files/2969.got.cif
#   From: 2010.05.17/outbox.cif.g08.bks.cpg/sg166_2_cif.got.tgz:2969.got - 2010.05.20 11:04:41.
