data_PCOD9579884
_publ_section_title
;
Structure prediction by ZEFSAII (Michael W. Deem and Ramdas Pophale) SiO2 
 PCOD9579884
Probable space group: P 61
;
_chemical_formula_sum "Si O2"
_cell_formula_units_Z 30
_cell_length_a 7.068547
_cell_length_b 7.068547
_cell_length_c 23.697192
_cell_angle_alpha 90.000000
_cell_angle_beta 90.000000
_cell_angle_gamma 120.000000
_cell_volume 1025.387028
_symmetry_space_group_name_H-M "P 61"
_symmetry_group_IT_number 169
_symmetry_cell_setting 'hexagonal'
loop_
_space_group_symop_operation_xyz
x,y,z
x-y,x,1/6+z
-y,x-y,1/3+z
-x,-y,1/2+z
-x+y,-x,2/3+z
y,-x+y,5/6+z
loop_
_atom_site_type_symbol
_atom_site_label
_atom_site_fract_x
_atom_site_fract_y
_atom_site_fract_z
Si Si1 0.209035 0.806329 0.875000
Si Si2 0.507457 0.642817 0.104980
Si Si3 0.018581 0.185637 0.589567
Si Si4 0.129913 0.589849 0.022355
Si Si5 0.543941 0.889238 0.280492
O O1 0.156702 0.598735 0.834013
O O2 0.032726 0.822436 0.914260
O O3 0.437749 0.929385 0.908337
O O4 0.264016 0.977962 0.823437
O O5 0.344439 0.684949 0.064089
O O6 0.763470 0.823540 0.101579
O O7 0.005800 0.287234 0.528156
O O8 0.045762 0.398592 0.624431
O O9 0.974615 0.358399 0.051705
O O10 0.191885 0.553933 0.960911
#
# Coordination Sequence:
#
# PCOD9579884 Si02
#       5
#     6   6   6   6   6
#     4  10  21  40  65  96 130 169 224 276 325 407
#     4  10  21  40  61  90 128 170 214 271 339 386
#     4  10  20  36  66  87 124 173 211 268 333 392
#     4   8  17  34  57  83 124 159 205 263 320 382
#     4   8  17  34  57  84 122 161 198 270 317 369
#
# _framework density 29.257242000000002
#
# number of rings (size 3 to 8) (size 9 to 14) (size 15 to 20)
#    1.200    1.600    0.000    1.200    0.000    3.200 
#    0.000   12.000    0.000    0.000    0.000    0.000 
#    0.000    0.000    0.000    0.000    0.000    0.000 
#
# Total GULP energy -167253.525026 kJ/mol
# GULP energy per Si atom -5575.117501 kJ/mol
# Density = 2.919065 g / cm^3
# Si number density = 29.257242 Si / 1000 Ang^3
#
#
#
# Elastic Constant Matrix: (Units=GPa)
#
#
# Indices 1 2 3 4 5 6 
#
# 1 141.9801 54.2499 27.6721 0.0000 0.0000 0.0000
# 2 54.2499 141.9801 27.6721 0.0000 0.0000 0.0000
# 3 27.6721 27.6721 94.6016 0.0000 0.0000 0.0000
# 4 0.0000 0.0000 0.0000 39.8213 0.0000 0.0000
# 5 0.0000 0.0000 0.0000 0.0000 39.8213 0.0000
# 6 0.0000 0.0000 0.0000 0.0000 0.0000 43.8651
#
#
#
# Elastic Compliance Matrix: (Units=1/GPa)
#
#
# Indices 1 2 3 4 5 6 
#
# 1 0.008476 -0.002922 -0.001625 0.000000 0.000000 0.000000
# 2 -0.002922 0.008476 -0.001625 0.000000 0.000000 0.000000
# 3 -0.001625 -0.001625 0.011521 0.000000 0.000000 0.000000
# 4 0.000000 0.000000 0.000000 0.025112 0.000000 0.000000
# 5 0.000000 0.000000 0.000000 0.000000 0.025112 0.000000
# 6 0.000000 0.000000 0.000000 0.000000 0.000000 0.022797
#
#
# Mechanical properties :
#
#
# Convention : Reuss Voigt Hill
#
# Bulk Modulus (GPa) = 61.99273 66.41668 64.20470
# Shear Modulus (GPa) = 41.94082 42.63272 42.28677
#
# Velocity S-wave (km/s) = 3.79029 3.82143 3.80589
# Velocity P-wave (km/s) = 6.35531 6.49779 6.42694
#
# Compressibility (1/GPa) = 0.01613092
#
# Stress axis : x y z
#
# Youngs Moduli (GPa) = 117.97415 117.97415 86.79699
#
# Poissons Ratio (x) = 0.34474 0.14102
# Poissons Ratio (y) = 0.34474 0.14102
# Poissons Ratio (z) = 0.19167 0.19167
#
# Static dielectric constant tensor:
#      x y z
#    x 2.332670 0.000000 0.000000 
#    y 0.000000 2.332670 0.000000 
#    z 0.000000 0.000000 2.266940 
# 
# From -- ./inp_files/1715.got.cif
#   From: 2010.05.17/outbox.cif.g08.bks.cpg/sg169_cif.got.tgz:1715.got - 2010.05.20 11:12:54.
