data_PCOD9579056
_publ_section_title
;
Structure prediction by ZEFSAII (Michael W. Deem and Ramdas Pophale) SiO2 
 PCOD9579056
Probable space group: R -3 M
;
_chemical_formula_sum "Si O2"
_cell_formula_units_Z 162
_cell_length_a 26.311070
_cell_length_b 26.311070
_cell_length_c 16.365364
_cell_angle_alpha 90.000000
_cell_angle_beta 90.000000
_cell_angle_gamma 120.000000
_cell_volume 9811.452849
_symmetry_space_group_name_H-M "R -3 M"
_symmetry_group_IT_number 166
_symmetry_cell_setting 'hexagonal'
loop_
_space_group_symop_operation_xyz
x,y,z
-y,x-y,z
-x+y,-x,z
x-y,-y,-z
-x,-x+y,-z
y,x,-z
-x,-y,-z
y,-x+y,-z
x-y,x,-z
-x+y,y,z
x,x-y,z
-y,-x,z
2/3+x,1/3+y,1/3+z
2/3-y,1/3+x-y,1/3+z
2/3-x+y,1/3-x,1/3+z
2/3+x-y,1/3-y,1/3-z
2/3-x,1/3-x+y,1/3-z
2/3+y,1/3+x,1/3-z
2/3-x,1/3-y,1/3-z
2/3+y,1/3-x+y,1/3-z
2/3+x-y,1/3+x,1/3-z
2/3-x+y,1/3+y,1/3+z
2/3+x,1/3+x-y,1/3+z
2/3-y,1/3-x,1/3+z
1/3+x,2/3+y,2/3+z
1/3-y,2/3+x-y,2/3+z
1/3-x+y,2/3-x,2/3+z
1/3+x-y,2/3-y,2/3-z
1/3-x,2/3-x+y,2/3-z
1/3+y,2/3+x,2/3-z
1/3-x,2/3-y,2/3-z
1/3+y,2/3-x+y,2/3-z
1/3+x-y,2/3+x,2/3-z
1/3-x+y,2/3+y,2/3+z
1/3+x,2/3+x-y,2/3+z
1/3-y,2/3-x,2/3+z
loop_
_atom_site_type_symbol
_atom_site_label
_atom_site_fract_x
_atom_site_fract_y
_atom_site_fract_z
Si Si1 0.822387 0.767170 0.297791
Si Si2 0.790807 0.776723 0.114575
Si Si3 0.119113 0.000402 0.596622
Si Si4 0.454751 0.788084 0.666667
Si Si5 0.640283 0.879776 0.642284
O O1 0.882651 0.765302 0.285838
O O2 0.798424 0.770162 0.209297
O O3 0.839066 0.824619 0.350467
O O4 0.778619 0.707487 0.344977
O O5 0.842188 0.838269 0.077367
O O6 0.794239 0.726890 0.061331
O O7 0.729785 0.773032 0.089828
O O8 0.124449 0.062225 0.617415
O O9 0.131173 0.000000 0.500000
O O10 0.052546 0.947455 0.609868
O O11 0.391720 0.783440 0.670596
O O12 0.637226 0.818613 0.622403
#
# Coordination Sequence:
#
# PCOD9579056 Si02
#       5
#    36  36  36  18  36
#     4  10  19  32  52  76 100 128 165 208 249 290
#     4  10  18  31  50  72  95 129 174 213 244 289
#     4   9  18  33  53  76 102 132 164 199 242 294
#     4  10  19  30  44  68 106 144 171 200 246 302
#     4   9  18  32  49  70  99 131 164 205 252 296
#
# _framework density 16.511316000000001
#
# number of rings (size 3 to 8) (size 9 to 14) (size 15 to 20)
#    0.000    2.667    0.000    5.000    0.000    4.444 
#    0.000    4.444    0.000    2.667    0.000    9.333 
#    0.000    0.000    0.000    0.000    0.000    0.000 
#
# Total GULP energy -301142.160574 kJ/mol
# GULP energy per Si atom -5576.706677 kJ/mol
# Density = 1.647374 g / cm^3
# Si number density = 16.511316 Si / 1000 Ang^3
#
#
#
# Elastic Constant Matrix: (Units=GPa)
#
#
# Indices 1 2 3 4 5 6 
#
# 1 105.0112 51.9640 44.6945 -2.1023 0.0001 0.0000
# 2 51.9640 105.0112 44.6945 2.1023 -0.0001 0.0000
# 3 44.6945 44.6945 55.8983 0.0000 0.0000 0.0000
# 4 -2.1023 2.1023 0.0000 10.0131 0.0000 -0.0001
# 5 0.0001 -0.0001 0.0000 0.0000 10.0131 -2.1023
# 6 0.0000 0.0000 0.0000 -0.0001 -2.1023 26.5236
#
#
#
# Elastic Compliance Matrix: (Units=1/GPa)
#
#
# Indices 1 2 3 4 5 6 
#
# 1 0.015433 -0.003737 -0.009351 0.004025 0.000000 0.000000
# 2 -0.003737 0.015433 -0.009351 -0.004025 0.000000 0.000000
# 3 -0.009351 -0.009351 0.032844 0.000000 0.000000 0.000000
# 4 0.004025 -0.004025 0.000000 0.101559 0.000000 0.000000
# 5 0.000000 0.000000 0.000000 0.000000 0.101559 0.008050
# 6 0.000000 0.000000 0.000000 0.000000 0.008050 0.038340
#
#
# Mechanical properties :
#
#
# Convention : Reuss Voigt Hill
#
# Bulk Modulus (GPa) = 53.10864 60.95850 57.03357
# Shear Modulus (GPa) = 14.03217 17.61449 15.82333
#
# Velocity S-wave (km/s) = 2.91838 3.26975 3.09905
# Velocity P-wave (km/s) = 6.60233 7.15922 6.88641
#
# Compressibility (1/GPa) = 0.01882933
#
# Stress axis : x y z
#
# Youngs Moduli (GPa) = 64.79680 64.79680 30.44719
#
# Poissons Ratio (x) = 0.24217 0.28472
# Poissons Ratio (y) = 0.24217 0.28472
# Poissons Ratio (z) = 0.60594 0.60594
#
# Static dielectric constant tensor:
#      x y z
#    x 1.553770 0.000000 0.000000 
#    y 0.000000 1.553770 0.000000 
#    z 0.000000 0.000000 1.530600 
# 
# From -- ./inp_files/5550.got.cif
#   From: 2010.05.17/outbox.cif.g08.bks.cpg/sg166_3_cif.got.tgz:5550.got - 2010.05.20 11:04:41.
