data_PCOD9579318
_publ_section_title
;
Structure prediction by ZEFSAII (Michael W. Deem and Ramdas Pophale) SiO2 
 PCOD9579318
Probable space group: R -3 M
;
_chemical_formula_sum "Si O2"
_cell_formula_units_Z 144
_cell_length_a 23.912115
_cell_length_b 23.912115
_cell_length_c 18.737381
_cell_angle_alpha 90.000000
_cell_angle_beta 90.000000
_cell_angle_gamma 120.000000
_cell_volume 9278.451474
_symmetry_space_group_name_H-M "R -3 M"
_symmetry_group_IT_number 166
_symmetry_cell_setting 'hexagonal'
loop_
_space_group_symop_operation_xyz
x,y,z
-y,x-y,z
-x+y,-x,z
x-y,-y,-z
-x,-x+y,-z
y,x,-z
-x,-y,-z
y,-x+y,-z
x-y,x,-z
-x+y,y,z
x,x-y,z
-y,-x,z
2/3+x,1/3+y,1/3+z
2/3-y,1/3+x-y,1/3+z
2/3-x+y,1/3-x,1/3+z
2/3+x-y,1/3-y,1/3-z
2/3-x,1/3-x+y,1/3-z
2/3+y,1/3+x,1/3-z
2/3-x,1/3-y,1/3-z
2/3+y,1/3-x+y,1/3-z
2/3+x-y,1/3+x,1/3-z
2/3-x+y,1/3+y,1/3+z
2/3+x,1/3+x-y,1/3+z
2/3-y,1/3-x,1/3+z
1/3+x,2/3+y,2/3+z
1/3-y,2/3+x-y,2/3+z
1/3-x+y,2/3-x,2/3+z
1/3+x-y,2/3-y,2/3-z
1/3-x,2/3-x+y,2/3-z
1/3+y,2/3+x,2/3-z
1/3-x,2/3-y,2/3-z
1/3+y,2/3-x+y,2/3-z
1/3+x-y,2/3+x,2/3-z
1/3-x+y,2/3+y,2/3+z
1/3+x,2/3+x-y,2/3+z
1/3-y,2/3-x,2/3+z
loop_
_atom_site_type_symbol
_atom_site_label
_atom_site_fract_x
_atom_site_fract_y
_atom_site_fract_z
Si Si1 0.801513 0.073323 0.364685
Si Si2 0.594583 0.733554 0.364903
Si Si3 0.249018 0.872712 0.761120
Si Si4 0.289533 0.365559 0.519129
O O1 0.877864 0.122137 0.363606
O O2 0.770201 0.095821 0.302675
O O3 0.771769 0.084864 0.436773
O O4 0.780148 0.999906 0.344709
O O5 0.762700 0.881350 0.308460
O O6 0.666667 0.766965 0.333334
O O7 0.605041 0.722609 0.447880
O O8 0.204541 0.795460 0.754782
O O9 0.225630 0.892297 0.833334
O O10 0.325927 0.907238 0.766702
O O11 0.326429 0.326429 0.500000
#
# Coordination Sequence:
#
# PCOD9579318 Si02
#       4
#    36  36  36  36
#     4  11  20  32  48  71  96 128 163 199 243 292
#     4  11  21  33  48  69  96 128 161 200 244 291
#     4   9  16  26  46  69  93 123 154 182 225 284
#     4  11  18  30  48  69 101 123 158 195 242 283
#
# _framework density 15.519831
#
# number of rings (size 3 to 8) (size 9 to 14) (size 15 to 20)
#    0.000    1.500    7.500    1.500    0.000    0.000 
#    0.000    0.000    0.000    0.500    0.000    0.000 
#    0.000    1.000    0.000    0.000    0.000   42.250 
#
# Total GULP energy -267247.644154 kJ/mol
# GULP energy per Si atom -5567.659253 kJ/mol
# Density = 1.548451 g / cm^3
# Si number density = 15.519831 Si / 1000 Ang^3
#
#
#
# Elastic Constant Matrix: (Units=GPa)
#
#
# Indices 1 2 3 4 5 6 
#
# 1 102.2077 35.9427 14.5125 8.6514 -0.0017 0.0000
# 2 35.9427 102.2077 14.5125 -8.6514 0.0017 0.0000
# 3 14.5125 14.5125 23.3434 0.0000 0.0000 0.0000
# 4 8.6514 -8.6514 0.0000 23.8781 0.0000 0.0017
# 5 -0.0017 0.0017 0.0000 0.0000 23.8781 8.6514
# 6 0.0000 0.0000 0.0000 0.0017 8.6514 33.1325
#
#
#
# Elastic Compliance Matrix: (Units=1/GPa)
#
#
# Indices 1 2 3 4 5 6 
#
# 1 0.012497 -0.004171 -0.005176 -0.006039 0.000001 0.000000
# 2 -0.004171 0.012497 -0.005176 0.006039 -0.000001 0.000000
# 3 -0.005176 -0.005176 0.049275 0.000000 0.000000 0.000000
# 4 -0.006039 0.006039 0.000000 0.046255 0.000000 -0.000002
# 5 0.000001 -0.000001 0.000000 0.000000 0.046255 -0.012078
# 6 0.000000 0.000000 0.000000 -0.000002 -0.012078 0.033336
#
#
# Mechanical properties :
#
#
# Convention : Reuss Voigt Hill
#
# Bulk Modulus (GPa) = 22.11326 39.74380 30.92853
# Shear Modulus (GPa) = 20.47209 27.03052 23.75131
#
# Velocity S-wave (km/s) = 3.63587 4.17787 3.91626
# Velocity P-wave (km/s) = 5.64849 6.99548 6.35776
#
# Compressibility (1/GPa) = 0.04522173
#
# Stress axis : x y z
#
# Youngs Moduli (GPa) = 80.02001 80.02001 20.29442
#
# Poissons Ratio (x) = 0.33375 0.10505
# Poissons Ratio (y) = 0.33375 0.10505
# Poissons Ratio (z) = 0.41420 0.41420
#
# Static dielectric constant tensor:
#      x y z
#    x 1.540780 0.000000 0.000000 
#    y 0.000000 1.540780 0.000000 
#    z 0.000000 0.000000 1.570630 
# 
# From -- ./inp_files/5236.got.cif
#   From: 2010.05.17/outbox.cif.g08.bks.cpg/sg166_3_cif.got.tgz:5236.got - 2010.05.20 11:04:41.
