data_PCOD9579726
_publ_section_title
;
Structure prediction by ZEFSAII (Michael W. Deem and Ramdas Pophale) SiO2 
 PCOD9579726
Probable space group: R -3 C 
;
_chemical_formula_sum "Si O2"
_cell_formula_units_Z 66
_cell_length_a 14.591943
_cell_length_b 14.591943
_cell_length_c 13.564184
_cell_angle_alpha 90.000000
_cell_angle_beta 90.000000
_cell_angle_gamma 120.000000
_cell_volume 2501.212285
_symmetry_space_group_name_H-M "R -3 C "
_symmetry_group_IT_number 167
_symmetry_cell_setting 'hexagonal'
loop_
_space_group_symop_operation_xyz
x,y,z
-y,x-y,z
-x+y,-x,z
x-y,-y,1/2-z
-x,-x+y,1/2-z
y,x,1/2-z
-x,-y,-z
y,-x+y,-z
x-y,x,-z
-x+y,y,1/2+z
x,x-y,1/2+z
-y,-x,1/2+z
2/3+x,1/3+y,1/3+z
2/3-y,1/3+x-y,1/3+z
2/3-x+y,1/3-x,1/3+z
2/3+x-y,1/3-y,5/6-z
2/3-x,1/3-x+y,5/6-z
2/3+y,1/3+x,5/6-z
2/3-x,1/3-y,1/3-z
2/3+y,1/3-x+y,1/3-z
2/3+x-y,1/3+x,1/3-z
2/3-x+y,1/3+y,5/6+z
2/3+x,1/3+x-y,5/6+z
2/3-y,1/3-x,5/6+z
1/3+x,2/3+y,2/3+z
1/3-y,2/3+x-y,2/3+z
1/3-x+y,2/3-x,2/3+z
1/3+x-y,2/3-y,1/6-z
1/3-x,2/3-x+y,1/6-z
1/3+y,2/3+x,1/6-z
1/3-x,2/3-y,2/3-z
1/3+y,2/3-x+y,2/3-z
1/3+x-y,2/3+x,2/3-z
1/3-x+y,2/3+y,1/6+z
1/3+x,2/3+x-y,1/6+z
1/3-y,2/3-x,1/6+z
loop_
_atom_site_type_symbol
_atom_site_label
_atom_site_fract_x
_atom_site_fract_y
_atom_site_fract_z
Si Si1 0.151787 0.818453 0.083334
Si Si2 0.899594 0.406724 0.948172
Si Si3 0.000000 0.000000 0.882445
O O1 0.124024 0.710309 0.028416
O O2 0.240340 0.837938 0.164441
O O3 0.790156 0.401857 0.976539
O O4 0.000000 0.500000 0.000000
O O5 0.000000 0.000000 0.000000
#
# Coordination Sequence:
#
# PCOD9579726 Si02
#       3
#    18  36  12
#     4  12  26  48  76 114 158 200 266 322 380 464
#     4  12  28  49  81 115 156 211 261 321 394 468
#     4  12  24  57  78 106 171 207 250 336 402 448
#
# _framework density 26.387205000000002
#
# number of rings (size 3 to 8) (size 9 to 14) (size 15 to 20)
#    0.000    0.000    5.455    1.636   15.273    0.000 
#    0.000    0.000    0.000    0.000    0.000    0.000 
#    0.000    0.000    0.000    0.000    0.000    0.000 
#
# Total GULP energy -123369.336204 kJ/mol
# GULP energy per Si atom -5607.697100 kJ/mol
# Density = 2.632715 g / cm^3
# Si number density = 26.387205 Si / 1000 Ang^3
#
#
#
# Elastic Constant Matrix: (Units=GPa)
#
#
# Indices 1 2 3 4 5 6 
#
# 1 168.8283 64.0319 33.4174 11.9248 0.0001 0.0000
# 2 64.0319 168.8283 33.4174 -11.9248 -0.0001 0.0000
# 3 33.4174 33.4174 101.2479 0.0000 0.0000 0.0000
# 4 11.9248 -11.9248 0.0000 50.0760 0.0000 -0.0001
# 5 0.0001 -0.0001 0.0000 0.0000 50.0760 11.9248
# 6 0.0000 0.0000 0.0000 -0.0001 11.9248 52.3982
#
#
#
# Elastic Compliance Matrix: (Units=1/GPa)
#
#
# Indices 1 2 3 4 5 6 
#
# 1 0.007416 -0.002673 -0.001566 -0.002403 0.000000 0.000000
# 2 -0.002673 0.007416 -0.001566 0.002403 0.000000 0.000000
# 3 -0.001566 -0.001566 0.010910 0.000000 0.000000 0.000000
# 4 -0.002403 0.002403 0.000000 0.021114 0.000000 0.000000
# 5 0.000000 0.000000 0.000000 0.000000 0.021114 -0.004805
# 6 0.000000 0.000000 0.000000 0.000000 -0.004805 0.020178
#
#
# Mechanical properties :
#
#
# Convention : Reuss Voigt Hill
#
# Bulk Modulus (GPa) = 70.74616 77.84863 74.29740
# Shear Modulus (GPa) = 47.86110 51.04591 49.45350
#
# Velocity S-wave (km/s) = 4.26349 4.40306 4.33384
# Velocity P-wave (km/s) = 7.14881 7.44417 7.29799
#
# Compressibility (1/GPa) = 0.01413504
#
# Stress axis : x y z
#
# Youngs Moduli (GPa) = 134.83548 134.83548 91.65654
#
# Poissons Ratio (x) = 0.36037 0.14351
# Poissons Ratio (y) = 0.36037 0.14351
# Poissons Ratio (z) = 0.21111 0.21111
#
# Static dielectric constant tensor:
#      x y z
#    x 2.016920 0.000000 0.000000 
#    y 0.000000 2.016920 0.000000 
#    z 0.000000 0.000000 2.244920 
# 
# From -- ./inp_files/2703.got.cif
#   From: 2010.05.17/outbox.cif.g08.bks.cpg/sg167_2_cif.got.tgz:2703.got - 2010.05.20 11:09:15.
