data_PCOD9579395
_publ_section_title
;
Structure prediction by ZEFSAII (Michael W. Deem and Ramdas Pophale) SiO2 
 PCOD9579395
Probable space group: R -3 C 
;
_chemical_formula_sum "Si O2"
_cell_formula_units_Z 270
_cell_length_a 22.863919
_cell_length_b 22.863919
_cell_length_c 25.422442
_cell_angle_alpha 90.000000
_cell_angle_beta 90.000000
_cell_angle_gamma 120.000000
_cell_volume 11509.308802
_symmetry_space_group_name_H-M "R -3 C "
_symmetry_group_IT_number 167
_symmetry_cell_setting 'hexagonal'
loop_
_space_group_symop_operation_xyz
x,y,z
-y,x-y,z
-x+y,-x,z
x-y,-y,1/2-z
-x,-x+y,1/2-z
y,x,1/2-z
-x,-y,-z
y,-x+y,-z
x-y,x,-z
-x+y,y,1/2+z
x,x-y,1/2+z
-y,-x,1/2+z
2/3+x,1/3+y,1/3+z
2/3-y,1/3+x-y,1/3+z
2/3-x+y,1/3-x,1/3+z
2/3+x-y,1/3-y,5/6-z
2/3-x,1/3-x+y,5/6-z
2/3+y,1/3+x,5/6-z
2/3-x,1/3-y,1/3-z
2/3+y,1/3-x+y,1/3-z
2/3+x-y,1/3+x,1/3-z
2/3-x+y,1/3+y,5/6+z
2/3+x,1/3+x-y,5/6+z
2/3-y,1/3-x,5/6+z
1/3+x,2/3+y,2/3+z
1/3-y,2/3+x-y,2/3+z
1/3-x+y,2/3-x,2/3+z
1/3+x-y,2/3-y,1/6-z
1/3-x,2/3-x+y,1/6-z
1/3+y,2/3+x,1/6-z
1/3-x,2/3-y,2/3-z
1/3+y,2/3-x+y,2/3-z
1/3+x-y,2/3+x,2/3-z
1/3-x+y,2/3+y,1/6+z
1/3+x,2/3+x-y,1/6+z
1/3-y,2/3-x,1/6+z
loop_
_atom_site_type_symbol
_atom_site_label
_atom_site_fract_x
_atom_site_fract_y
_atom_site_fract_z
Si Si1 0.611476 0.741032 0.170678
Si Si2 0.853841 0.699731 0.262425
Si Si3 0.695712 0.077783 0.250187
Si Si4 0.474052 0.000000 0.250000
Si Si5 0.132959 0.106761 0.986737
Si Si6 0.780965 0.832173 0.644683
Si Si7 0.771052 0.273297 0.128073
Si Si8 0.491938 0.676353 0.037183
O O1 0.662918 0.776563 0.218341
O O2 0.592632 0.671978 0.140476
O O3 0.642548 0.801368 0.127602
O O4 0.537946 0.729649 0.181596
O O5 0.870611 0.644684 0.239281
O O6 0.909164 0.727474 0.309428
O O7 0.879435 0.768094 0.230696
O O8 0.660813 0.105157 0.208067
O O9 0.677500 0.000000 0.250000
O O10 0.401868 0.934814 0.262069
O O11 0.133857 0.139804 0.930850
O O12 0.080264 0.110542 0.024583
O O13 0.834619 0.812503 0.663704
O O14 0.819307 0.912816 0.638367
O O15 0.787141 0.333334 0.083334
O O16 0.702225 0.232682 0.161742
#
# Coordination Sequence:
#
# PCOD9579395 Si02
#       8
#    36  36  36  18  36  36  36  36
#     4  10  18  36  62  95 129 175 226 286 352 426
#     4  10  22  39  66  97 141 183 229 300 356 428
#     4  11  19  37  64  98 126 175 236 292 364 426
#     4  10  16  34  64  98 122 178 236 296 354 430
#     4  11  24  40  62 100 135 173 225 296 356 426
#     4  10  20  41  66  96 135 183 245 295 361 430
#     4  10  24  45  67 102 144 194 241 293 358 428
#     4  11  24  41  72  97 137 193 239 299 365 437
#
# _framework density 23.459271000000001
#
# number of rings (size 3 to 8) (size 9 to 14) (size 15 to 20)
#    0.000    1.600    3.333    3.733    1.867    2.667 
#    0.800    0.000    0.000    0.000    0.000    0.000 
#    0.000    0.000    0.000    0.000    0.000    0.000 
#
# Total GULP energy -501433.710938 kJ/mol
# GULP energy per Si atom -5571.485677 kJ/mol
# Density = 2.340588 g / cm^3
# Si number density = 23.459271 Si / 1000 Ang^3
#
#
#
# Elastic Constant Matrix: (Units=GPa)
#
#
# Indices 1 2 3 4 5 6 
#
# 1 61.7108 31.5959 26.8511 10.6430 0.0000 0.0000
# 2 31.5959 61.7108 26.8511 -10.6430 0.0000 0.0000
# 3 26.8511 26.8511 55.7092 0.0000 0.0000 0.0000
# 4 10.6430 -10.6430 0.0000 23.8561 0.0000 0.0000
# 5 0.0000 0.0000 0.0000 0.0000 23.8561 10.6430
# 6 0.0000 0.0000 0.0000 0.0000 10.6430 15.0575
#
#
#
# Elastic Compliance Matrix: (Units=1/GPa)
#
#
# Indices 1 2 3 4 5 6 
#
# 1 0.031666 -0.016834 -0.007149 -0.021637 0.000000 0.000000
# 2 -0.016834 0.031666 -0.007149 0.021637 0.000000 0.000000
# 3 -0.007149 -0.007149 0.024842 0.000000 0.000000 0.000000
# 4 -0.021637 0.021637 0.000000 0.061224 0.000000 0.000000
# 5 0.000000 0.000000 0.000000 0.000000 0.061224 -0.043275
# 6 0.000000 0.000000 0.000000 0.000000 -0.043275 0.097000
#
#
# Mechanical properties :
#
#
# Convention : Reuss Voigt Hill
#
# Bulk Modulus (GPa) = 38.59487 38.85857 38.72672
# Shear Modulus (GPa) = 13.20930 18.80945 16.00938
#
# Velocity S-wave (km/s) = 2.37549 2.83466 2.61518
# Velocity P-wave (km/s) = 4.90016 5.22628 5.06584
#
# Compressibility (1/GPa) = 0.02591018
#
# Stress axis : x y z
#
# Youngs Moduli (GPa) = 31.57979 31.57979 40.25517
#
# Poissons Ratio (x) = 0.53162 0.28777
# Poissons Ratio (y) = 0.53162 0.28777
# Poissons Ratio (z) = 0.22576 0.22576
#
# Static dielectric constant tensor:
#      x y z
#    x 1.971310 0.000000 0.000000 
#    y 0.000000 1.971310 0.000000 
#    z 0.000000 0.000000 2.056390 
# 
# From -- ./inp_files/7264.got.cif
#   From: 2010.05.17/outbox.cif.g08.bks.cpg/sg167_4_cif.got.tgz:7264.got - 2010.05.20 11:09:15.
