data_PCOD9579969
_publ_section_title
;
Structure prediction by ZEFSAII (Michael W. Deem and Ramdas Pophale) SiO2 
 PCOD9579969
Probable space group: P 61
;
_chemical_formula_sum "Si O2"
_cell_formula_units_Z 24
_cell_length_a 12.269140
_cell_length_b 12.269140
_cell_length_c 8.691856
_cell_angle_alpha 90.000000
_cell_angle_beta 90.000000
_cell_angle_gamma 120.000000
_cell_volume 1133.108242
_symmetry_space_group_name_H-M "P 61"
_symmetry_group_IT_number 169
_symmetry_cell_setting 'hexagonal'
loop_
_space_group_symop_operation_xyz
x,y,z
x-y,x,1/6+z
-y,x-y,1/3+z
-x,-y,1/2+z
-x+y,-x,2/3+z
y,-x+y,5/6+z
loop_
_atom_site_type_symbol
_atom_site_label
_atom_site_fract_x
_atom_site_fract_y
_atom_site_fract_z
Si Si1 0.271363 0.136020 0.365910
Si Si2 0.508942 0.873890 0.025638
Si Si3 0.447527 0.265450 0.074279
Si Si4 0.602035 0.531796 0.529844
O O1 0.188698 0.188137 0.449522
O O2 0.371840 0.139243 0.487996
O O3 0.363947 0.222739 0.228704
O O4 0.375466 0.785194 0.942068
O O5 0.538825 0.008535 0.952648
O O6 0.475691 0.863078 0.204281
O O7 0.445160 0.153624 0.983317
O O8 0.389378 0.336956 0.979999
#
# Coordination Sequence:
#
# PCOD9579969 Si02
#       4
#     6   6   6   6
#     4  12  25  50  70 104 150 190 243 297 362 438
#     4  10  24  44  70 105 142 178 246 303 361 412
#     4  10  22  44  73  96 145 188 234 298 356 426
#     4  10  21  44  69 105 141 184 237 300 363 428
#
# _framework density 21.180678
#
# number of rings (size 3 to 8) (size 9 to 14) (size 15 to 20)
#    1.500    0.000    2.500    3.000    3.500    0.000 
#   13.500    0.000    0.000    0.000    0.000    0.000 
#    0.000    0.000    0.000    0.000    0.000    0.000 
#
# Total GULP energy -133734.477746 kJ/mol
# GULP energy per Si atom -5572.269906 kJ/mol
# Density = 2.113247 g / cm^3
# Si number density = 21.180678 Si / 1000 Ang^3
#
#
#
# Elastic Constant Matrix: (Units=GPa)
#
#
# Indices 1 2 3 4 5 6 
#
# 1 93.3052 28.9471 14.4213 0.0000 0.0000 0.0000
# 2 28.9471 93.3052 14.4213 0.0000 0.0000 0.0000
# 3 14.4213 14.4213 73.0917 0.0000 0.0000 0.0000
# 4 0.0000 0.0000 0.0000 23.3368 0.0000 0.0000
# 5 0.0000 0.0000 0.0000 0.0000 23.3368 0.0000
# 6 0.0000 0.0000 0.0000 0.0000 0.0000 32.1791
#
#
#
# Elastic Compliance Matrix: (Units=1/GPa)
#
#
# Indices 1 2 3 4 5 6 
#
# 1 0.012059 -0.003479 -0.001693 0.000000 0.000000 0.000000
# 2 -0.003479 0.012059 -0.001693 0.000000 0.000000 0.000000
# 3 -0.001693 -0.001693 0.014349 0.000000 0.000000 0.000000
# 4 0.000000 0.000000 0.000000 0.042851 0.000000 0.000000
# 5 0.000000 0.000000 0.000000 0.000000 0.042851 0.000000
# 6 0.000000 0.000000 0.000000 0.000000 0.000000 0.031076
#
#
# Mechanical properties :
#
#
# Convention : Reuss Voigt Hill
#
# Bulk Modulus (GPa) = 40.42542 41.69793 41.06167
# Shear Modulus (GPa) = 28.21360 29.23138 28.72249
#
# Velocity S-wave (km/s) = 3.65368 3.71900 3.68648
# Velocity P-wave (km/s) = 6.07672 6.17825 6.12770
#
# Compressibility (1/GPa) = 0.02473691
#
# Stress axis : x y z
#
# Youngs Moduli (GPa) = 82.92834 82.92834 69.68931
#
# Poissons Ratio (x) = 0.28854 0.11796
# Poissons Ratio (y) = 0.28854 0.11796
# Poissons Ratio (z) = 0.14037 0.14037
#
# Static dielectric constant tensor:
#      x y z
#    x 1.792940 0.000000 0.000000 
#    y 0.000000 1.792940 0.000000 
#    z 0.000000 0.000000 1.763690 
# 
# From -- ./inp_files/511.got.cif
#   From: 2010.05.17/outbox.cif.g08.bks.cpg/sg169_cif.got.tgz:511.got - 2010.05.20 11:12:54.
