data_PCOD9579348
_publ_section_title
;
Structure prediction by ZEFSAII (Michael W. Deem and Ramdas Pophale) SiO2 
 PCOD9579348
Probable space group: R -3 M
;
_chemical_formula_sum "Si O2"
_cell_formula_units_Z 114
_cell_length_a 19.730111
_cell_length_b 19.730111
_cell_length_c 13.814049
_cell_angle_alpha 90.000000
_cell_angle_beta 90.000000
_cell_angle_gamma 120.000000
_cell_volume 4657.047644
_symmetry_space_group_name_H-M "R -3 M"
_symmetry_group_IT_number 166
_symmetry_cell_setting 'hexagonal'
loop_
_space_group_symop_operation_xyz
x,y,z
-y,x-y,z
-x+y,-x,z
x-y,-y,-z
-x,-x+y,-z
y,x,-z
-x,-y,-z
y,-x+y,-z
x-y,x,-z
-x+y,y,z
x,x-y,z
-y,-x,z
2/3+x,1/3+y,1/3+z
2/3-y,1/3+x-y,1/3+z
2/3-x+y,1/3-x,1/3+z
2/3+x-y,1/3-y,1/3-z
2/3-x,1/3-x+y,1/3-z
2/3+y,1/3+x,1/3-z
2/3-x,1/3-y,1/3-z
2/3+y,1/3-x+y,1/3-z
2/3+x-y,1/3+x,1/3-z
2/3-x+y,1/3+y,1/3+z
2/3+x,1/3+x-y,1/3+z
2/3-y,1/3-x,1/3+z
1/3+x,2/3+y,2/3+z
1/3-y,2/3+x-y,2/3+z
1/3-x+y,2/3-x,2/3+z
1/3+x-y,2/3-y,2/3-z
1/3-x,2/3-x+y,2/3-z
1/3+y,2/3+x,2/3-z
1/3-x,2/3-y,2/3-z
1/3+y,2/3-x+y,2/3-z
1/3+x-y,2/3+x,2/3-z
1/3-x+y,2/3+y,2/3+z
1/3+x,2/3+x-y,2/3+z
1/3-y,2/3-x,2/3+z
loop_
_atom_site_type_symbol
_atom_site_label
_atom_site_fract_x
_atom_site_fract_y
_atom_site_fract_z
Si Si1 0.666668 0.333334 0.454839
Si Si2 0.966588 0.483294 0.694794
Si Si3 0.351818 0.419666 0.788102
Si Si4 0.823668 0.911834 0.471182
Si Si5 0.239322 0.760679 0.830979
Si Si6 0.126716 0.253431 0.277235
O O1 0.666668 0.333335 0.333334
O O2 0.620841 0.379160 0.493854
O O3 0.919252 0.459626 0.795637
O O4 0.906599 0.453300 0.601246
O O5 0.016760 0.578932 0.709954
O O6 0.312671 0.333334 0.833334
O O7 0.289379 0.448400 0.772072
O O8 0.395389 0.476346 0.877433
O O9 0.869510 0.869510 0.500000
O O10 0.812211 0.906106 0.357288
O O11 0.166667 0.333334 0.333334
#
# Coordination Sequence:
#
# PCOD9579348 Si02
#       6
#     6  18  36  18  18  18
#     4  12  30  66  96 117 178 224 277 342 432 540
#     4  11  25  42  78 116 166 219 282 351 431 499
#     4  11  25  47  73 119 166 225 287 359 418 508
#     4  12  24  40  66 111 158 218 271 337 421 517
#     4  12  28  53  85 126 156 226 282 344 427 502
#     4  11  23  40  70 101 161 217 271 341 435 496
#
# _framework density 24.479029000000001
#
# number of rings (size 3 to 8) (size 9 to 14) (size 15 to 20)
#    0.000    0.632    3.158    5.368    4.421    1.263 
#   11.368    0.000    0.000    0.000    0.000    0.000 
#    0.000    0.000    0.000    0.000    0.000    0.000 
#
# Total GULP energy -212310.209149 kJ/mol
# GULP energy per Si atom -5587.110767 kJ/mol
# Density = 2.442331 g / cm^3
# Si number density = 24.479029 Si / 1000 Ang^3
#
#
#
# Elastic Constant Matrix: (Units=GPa)
#
#
# Indices 1 2 3 4 5 6 
#
# 1 180.4658 112.4561 56.0156 -9.5917 -0.0031 0.0000
# 2 112.4561 180.4653 56.0159 9.5920 0.0031 0.0000
# 3 56.0156 56.0159 149.9306 -0.0001 0.0000 0.0000
# 4 -9.5917 9.5920 -0.0001 -61.5058 0.0000 0.0031
# 5 -0.0031 0.0031 0.0000 0.0000 -61.5044 -9.5918
# 6 0.0000 0.0000 0.0000 0.0031 -9.5918 34.0047
#
#
#
# Elastic Compliance Matrix: (Units=1/GPa)
#
#
# Indices 1 2 3 4 5 6 
#
# 1 0.009034 -0.005051 -0.001488 -0.002196 -0.000001 0.000000
# 2 -0.005051 0.009034 -0.001488 0.002196 0.000001 0.000000
# 3 -0.001488 -0.001488 0.007782 0.000000 0.000000 0.000000
# 4 -0.002196 0.002196 0.000000 -0.015574 0.000000 0.000001
# 5 -0.000001 0.000001 0.000000 0.000000 -0.015574 -0.004393
# 6 0.000000 0.000000 0.000000 0.000001 -0.004393 0.028169
#
#
# Mechanical properties :
#
#
# Convention : Reuss Voigt Hill
#
# Bulk Modulus (GPa) = 102.08940 106.64853 104.36896
# Shear Modulus (GPa) = 118.51471 1.29052 59.90261
#
# Velocity S-wave (km/s) = 6.96562 0.72687 4.95218
# Velocity P-wave (km/s) = 10.31933 6.66081 8.68490
#
# Compressibility (1/GPa) = 0.00979534
#
# Stress axis : x y z
#
# Youngs Moduli (GPa) = 110.69747 110.69704 128.50670
#
# Poissons Ratio (x) = 0.55909 0.19123
# Poissons Ratio (y) = 0.55909 0.19123
# Poissons Ratio (z) = 0.16473 0.16473
#
# Static dielectric constant tensor:
#      x y z
#    x 1.814750 0.000000 0.000000 
#    y 0.000000 1.814750 0.000000 
#    z 0.000000 0.000000 2.007460 
# 
# From -- ./inp_files/3783.got.cif
#   From: 2010.05.17/outbox.cif.g08.bks.cpg/sg166_2_cif.got.tgz:3783.got - 2010.05.20 11:04:41.
