data_PCOD9579965
_publ_section_title
;
Structure prediction by ZEFSAII (Michael W. Deem and Ramdas Pophale) SiO2 
 PCOD9579965
Probable space group: P 61
;
_chemical_formula_sum "Si O2"
_cell_formula_units_Z 48
_cell_length_a 15.060526
_cell_length_b 15.060526
_cell_length_c 10.847235
_cell_angle_alpha 90.000000
_cell_angle_beta 90.000000
_cell_angle_gamma 120.000000
_cell_volume 2130.737558
_symmetry_space_group_name_H-M "P 61"
_symmetry_group_IT_number 169
_symmetry_cell_setting 'hexagonal'
loop_
_space_group_symop_operation_xyz
x,y,z
x-y,x,1/6+z
-y,x-y,1/3+z
-x,-y,1/2+z
-x+y,-x,2/3+z
y,-x+y,5/6+z
loop_
_atom_site_type_symbol
_atom_site_label
_atom_site_fract_x
_atom_site_fract_y
_atom_site_fract_z
Si Si1 0.507922 0.055074 0.055200
Si Si2 0.350136 0.546818 0.437740
Si Si3 0.253282 0.413629 0.632348
Si Si4 0.645453 0.696227 0.084855
Si Si5 0.165061 0.981065 0.916654
Si Si6 0.285519 0.873009 0.990508
Si Si7 0.259153 0.500301 0.091776
Si Si8 0.204222 0.334673 0.891420
O O1 0.524139 0.093669 0.197524
O O2 0.398653 0.954316 0.035712
O O3 0.602345 0.052174 0.988893
O O4 0.501586 0.146907 0.987847
O O5 0.337293 0.524430 0.583655
O O6 0.234597 0.473130 0.393686
O O7 0.387578 0.663668 0.406559
O O8 0.276239 0.340674 0.544683
O O9 0.139344 0.396275 0.646859
O O10 0.270969 0.379336 0.767673
O O11 0.704601 0.794621 0.174317
O O12 0.251344 0.044169 0.811405
O O13 0.061880 0.904273 0.841617
O O14 0.210937 0.920816 0.992251
O O15 0.283599 0.838714 0.848753
O O16 0.233894 0.435093 0.970037
#
# Coordination Sequence:
#
# PCOD9579965 Si02
#       8
#     6   6   6   6   6   6   6   6
#     4  11  23  40  68  98 137 186 235 293 366 433
#     4  11  24  44  67 100 144 185 236 293 370 449
#     4  10  24  42  64 100 139 183 226 292 363 435
#     4  10  23  42  62 101 133 183 233 286 366 433
#     4  12  23  45  74 109 144 192 256 316 374 440
#     4  11  24  43  70 103 139 189 241 307 366 444
#     4  11  22  43  69 101 138 183 241 300 357 439
#     4  10  21  43  70  96 134 183 242 301 356 431
#
# _framework density 22.527412000000002
#
# number of rings (size 3 to 8) (size 9 to 14) (size 15 to 20)
#    0.750    0.500    3.750    2.250    1.750    3.000 
#    2.250    2.500    0.000    0.000    0.000    0.000 
#    0.000    0.000    0.000    0.000    0.000    0.000 
#
# Total GULP energy -267815.363208 kJ/mol
# GULP energy per Si atom -5579.486733 kJ/mol
# Density = 2.247614 g / cm^3
# Si number density = 22.527412 Si / 1000 Ang^3
#
#
#
# Elastic Constant Matrix: (Units=GPa)
#
#
# Indices 1 2 3 4 5 6 
#
# 1 129.2825 59.2387 30.9864 0.0000 0.0000 0.0000
# 2 59.2387 129.2825 30.9864 0.0000 0.0000 0.0000
# 3 30.9864 30.9864 45.0598 0.0000 0.0000 0.0000
# 4 0.0000 0.0000 0.0000 36.1280 0.0000 0.0000
# 5 0.0000 0.0000 0.0000 0.0000 36.1280 0.0000
# 6 0.0000 0.0000 0.0000 0.0000 0.0000 35.0219
#
#
#
# Elastic Compliance Matrix: (Units=1/GPa)
#
#
# Indices 1 2 3 4 5 6 
#
# 1 0.010565 -0.003711 -0.004713 0.000000 0.000000 0.000000
# 2 -0.003711 0.010565 -0.004713 0.000000 0.000000 0.000000
# 3 -0.004713 -0.004713 0.028675 0.000000 0.000000 0.000000
# 4 0.000000 0.000000 0.000000 0.027679 0.000000 0.000000
# 5 0.000000 0.000000 0.000000 0.000000 0.027679 0.000000
# 6 0.000000 0.000000 0.000000 0.000000 0.000000 0.028554
#
#
# Mechanical properties :
#
#
# Convention : Reuss Voigt Hill
#
# Bulk Modulus (GPa) = 42.49913 60.67199 51.58556
# Shear Modulus (GPa) = 29.79082 33.61646 31.70364
#
# Velocity S-wave (km/s) = 3.64046 3.86715 3.75552
# Velocity P-wave (km/s) = 6.04790 6.85061 6.46173
#
# Compressibility (1/GPa) = 0.02352989
#
# Stress axis : x y z
#
# Youngs Moduli (GPa) = 94.64945 94.64945 34.87356
#
# Poissons Ratio (x) = 0.35129 0.16437
# Poissons Ratio (y) = 0.35129 0.16437
# Poissons Ratio (z) = 0.44610 0.44610
#
# Static dielectric constant tensor:
#      x y z
#    x 1.861680 0.000000 0.000000 
#    y 0.000000 1.861680 0.000000 
#    z 0.000000 0.000000 1.988430 
# 
# From -- ./inp_files/1046.got.cif
#   From: 2010.05.17/outbox.cif.g08.bks.cpg/sg169_cif.got.tgz:1046.got - 2010.05.20 11:12:54.
