data_PCOD9579786
_publ_section_title
;
Structure prediction by ZEFSAII (Michael W. Deem and Ramdas Pophale) SiO2 
 PCOD9579786
Probable space group: P 61
;
_chemical_formula_sum "Si O2"
_cell_formula_units_Z 48
_cell_length_a 11.822553
_cell_length_b 11.822553
_cell_length_c 17.046863
_cell_angle_alpha 90.000000
_cell_angle_beta 90.000000
_cell_angle_gamma 120.000000
_cell_volume 2063.467542
_symmetry_space_group_name_H-M "P 61"
_symmetry_group_IT_number 169
_symmetry_cell_setting 'hexagonal'
loop_
_space_group_symop_operation_xyz
x,y,z
x-y,x,1/6+z
-y,x-y,1/3+z
-x,-y,1/2+z
-x+y,-x,2/3+z
y,-x+y,5/6+z
loop_
_atom_site_type_symbol
_atom_site_label
_atom_site_fract_x
_atom_site_fract_y
_atom_site_fract_z
Si Si1 0.983907 0.903945 0.821270
Si Si2 0.644555 0.762824 0.452631
Si Si3 0.547187 0.207060 0.073714
Si Si4 0.114520 0.571378 0.312150
Si Si5 0.637705 0.540593 0.537355
Si Si6 0.565057 0.839306 0.826856
Si Si7 0.703363 0.675228 0.841152
Si Si8 0.582079 0.280742 0.607367
O O1 0.959711 0.966934 0.742838
O O2 0.859670 0.755482 0.824052
O O3 0.123689 0.913286 0.808201
O O4 0.545552 0.775318 0.511714
O O5 0.617477 0.617088 0.465672
O O6 0.605032 0.810191 0.374841
O O7 0.574867 0.322655 0.133678
O O8 0.450490 0.077017 0.119608
O O9 0.672506 0.225500 0.025267
O O10 0.112470 0.665212 0.245065
O O11 0.140119 0.635819 0.398399
O O12 0.001708 0.430446 0.279754
O O13 0.580869 0.387105 0.547495
O O14 0.656808 0.777273 0.827500
O O15 0.624472 0.951087 0.762663
O O16 0.424785 0.723531 0.797422
#
# Coordination Sequence:
#
# PCOD9579786 Si02
#       8
#     6   6   6   6   6   6   6   6
#     4  12  21  34  61 105 140 178 234 303 378 440
#     4  10  17  32  60 101 128 172 215 294 366 416
#     4   9  18  34  60  91 130 164 214 291 356 419
#     4  10  21  39  57  93 134 180 222 286 360 451
#     4  10  21  36  64  97 143 170 230 293 363 430
#     4  11  25  38  62 100 136 185 239 302 374 436
#     4  12  21  38  64 100 139 172 236 313 369 437
#     4  10  22  37  60  99 134 179 224 286 368 429
#
# _framework density 23.261814999999999
#
# number of rings (size 3 to 8) (size 9 to 14) (size 15 to 20)
#    0.000    1.500    5.000    1.500    5.250    0.000 
#    0.000    0.000    0.000    0.000   26.000    0.000 
#    0.000    0.000    0.000    0.000    0.000    0.000 
#
# Total GULP energy -267352.947204 kJ/mol
# GULP energy per Si atom -5569.853067 kJ/mol
# Density = 2.320887 g / cm^3
# Si number density = 23.261815 Si / 1000 Ang^3
#
#
#
# Elastic Constant Matrix: (Units=GPa)
#
#
# Indices 1 2 3 4 5 6 
#
# 1 57.4264 16.9616 12.1799 0.0000 0.0000 0.0000
# 2 16.9616 57.4264 12.1799 0.0000 0.0000 0.0000
# 3 12.1799 12.1799 79.1487 0.0000 0.0000 0.0000
# 4 0.0000 0.0000 0.0000 34.7193 0.0000 0.0000
# 5 0.0000 0.0000 0.0000 0.0000 34.7193 0.0000
# 6 0.0000 0.0000 0.0000 0.0000 0.0000 20.2324
#
#
#
# Elastic Compliance Matrix: (Units=1/GPa)
#
#
# Indices 1 2 3 4 5 6 
#
# 1 0.019435 -0.005278 -0.002178 0.000000 0.000000 0.000000
# 2 -0.005278 0.019435 -0.002178 0.000000 0.000000 0.000000
# 3 -0.002178 -0.002178 0.013305 0.000000 0.000000 0.000000
# 4 0.000000 0.000000 0.000000 0.028802 0.000000 0.000000
# 5 0.000000 0.000000 0.000000 0.000000 0.028802 0.000000
# 6 0.000000 0.000000 0.000000 0.000000 0.000000 0.049426
#
#
# Mechanical properties :
#
#
# Convention : Reuss Voigt Hill
#
# Bulk Modulus (GPa) = 30.39158 30.73824 30.56491
# Shear Modulus (GPa) = 26.39320 28.11290 27.25305
#
# Velocity S-wave (km/s) = 3.37206 3.48018 3.42655
# Velocity P-wave (km/s) = 5.31549 5.42140 5.36871
#
# Compressibility (1/GPa) = 0.03290385
#
# Stress axis : x y z
#
# Youngs Moduli (GPa) = 51.45461 51.45461 75.16019
#
# Poissons Ratio (x) = 0.27159 0.16373
# Poissons Ratio (y) = 0.27159 0.16373
# Poissons Ratio (z) = 0.11209 0.11209
#
# Static dielectric constant tensor:
#      x y z
#    x 1.927560 0.000000 0.000000 
#    y 0.000000 1.927560 0.000000 
#    z 0.000000 0.000000 2.040200 
# 
# From -- ./inp_files/1415.got.cif
#   From: 2010.05.17/outbox.cif.g08.bks.cpg/sg169_cif.got.tgz:1415.got - 2010.05.20 11:12:54.
