data_PCOD9579171
_publ_section_title
;
Structure prediction by ZEFSAII (Michael W. Deem and Ramdas Pophale) SiO2 
 PCOD9579171
Probable space group: R -3 M
;
_chemical_formula_sum "Si O2"
_cell_formula_units_Z 162
_cell_length_a 28.833073
_cell_length_b 28.833073
_cell_length_c 13.010119
_cell_angle_alpha 90.000000
_cell_angle_beta 90.000000
_cell_angle_gamma 120.000000
_cell_volume 9366.854274
_symmetry_space_group_name_H-M "R -3 M"
_symmetry_group_IT_number 166
_symmetry_cell_setting 'hexagonal'
loop_
_space_group_symop_operation_xyz
x,y,z
-y,x-y,z
-x+y,-x,z
x-y,-y,-z
-x,-x+y,-z
y,x,-z
-x,-y,-z
y,-x+y,-z
x-y,x,-z
-x+y,y,z
x,x-y,z
-y,-x,z
2/3+x,1/3+y,1/3+z
2/3-y,1/3+x-y,1/3+z
2/3-x+y,1/3-x,1/3+z
2/3+x-y,1/3-y,1/3-z
2/3-x,1/3-x+y,1/3-z
2/3+y,1/3+x,1/3-z
2/3-x,1/3-y,1/3-z
2/3+y,1/3-x+y,1/3-z
2/3+x-y,1/3+x,1/3-z
2/3-x+y,1/3+y,1/3+z
2/3+x,1/3+x-y,1/3+z
2/3-y,1/3-x,1/3+z
1/3+x,2/3+y,2/3+z
1/3-y,2/3+x-y,2/3+z
1/3-x+y,2/3-x,2/3+z
1/3+x-y,2/3-y,2/3-z
1/3-x,2/3-x+y,2/3-z
1/3+y,2/3+x,2/3-z
1/3-x,2/3-y,2/3-z
1/3+y,2/3-x+y,2/3-z
1/3+x-y,2/3+x,2/3-z
1/3-x+y,2/3+y,2/3+z
1/3+x,2/3+x-y,2/3+z
1/3-y,2/3-x,2/3+z
loop_
_atom_site_type_symbol
_atom_site_label
_atom_site_fract_x
_atom_site_fract_y
_atom_site_fract_z
Si Si1 0.886050 0.388222 0.119654
Si Si2 0.226027 0.167233 0.545944
Si Si3 0.925833 0.253798 0.861420
Si Si4 0.000000 0.342593 0.000000
Si Si5 0.891750 0.000589 0.123514
O O1 0.878883 0.439442 0.122942
O O2 0.937556 0.403489 0.189081
O O3 0.829289 0.340743 0.158764
O O4 0.897459 0.382722 0.000499
O O5 0.185958 0.185958 0.500000
O O6 0.209822 0.104911 0.535125
O O7 0.284988 0.203429 0.496005
O O8 0.963782 0.287608 0.765719
O O9 0.950311 0.286040 0.966163
O O10 0.944245 0.055756 0.153302
O O11 0.899702 0.949851 0.149038
O O12 0.885828 0.000000 0.000000
#
# Coordination Sequence:
#
# PCOD9579171 Si02
#       5
#    36  36  36  18  36
#     4  10  20  32  52  80 105 135 178 224 266 313
#     4  11  21  36  56  79 108 140 181 222 267 320
#     4  11  18  35  51  79 104 143 172 217 263 318
#     4  10  20  30  55  72 108 132 175 204 254 320
#     4   9  18  33  52  75 104 140 181 223 271 323
#
# _framework density 17.295027999999999
#
# number of rings (size 3 to 8) (size 9 to 14) (size 15 to 20)
#    0.000    1.778    4.444    0.889    1.556    3.556 
#    0.000    0.000    0.000    0.222    0.000    6.222 
#    0.000    0.000    0.000    0.000    0.000    0.000 
#
# Total GULP energy -300721.462983 kJ/mol
# GULP energy per Si atom -5568.915981 kJ/mol
# Density = 1.725566 g / cm^3
# Si number density = 17.295028 Si / 1000 Ang^3
#
#
#
# Elastic Constant Matrix: (Units=GPa)
#
#
# Indices 1 2 3 4 5 6 
#
# 1 89.6702 41.4587 15.3248 -3.8717 0.0001 0.0000
# 2 41.4587 89.6702 15.3247 3.8716 0.0000 0.0000
# 3 15.3248 15.3247 15.1353 -0.0003 0.0003 0.0000
# 4 -3.8717 3.8716 -0.0003 25.6642 -0.0001 -0.0001
# 5 0.0001 0.0000 0.0003 -0.0001 25.6643 -3.8717
# 6 0.0000 0.0000 0.0000 -0.0001 -3.8717 24.1058
#
#
#
# Elastic Compliance Matrix: (Units=1/GPa)
#
#
# Indices 1 2 3 4 5 6 
#
# 1 0.015624 -0.005633 -0.010116 0.003207 0.000000 0.000000
# 2 -0.005633 0.015624 -0.010115 -0.003207 0.000000 0.000000
# 3 -0.010116 -0.010115 0.086555 0.000001 -0.000001 0.000000
# 4 0.003207 -0.003207 0.000001 0.039932 0.000000 0.000000
# 5 0.000000 0.000000 -0.000001 0.000000 0.039932 0.006414
# 6 0.000000 0.000000 0.000000 0.000000 0.006414 0.042514
#
#
# Mechanical properties :
#
#
# Convention : Reuss Voigt Hill
#
# Bulk Modulus (GPa) = 15.13458 37.63244 26.38351
# Shear Modulus (GPa) = 15.92692 23.24469 19.58581
#
# Velocity S-wave (km/s) = 3.03792 3.67005 3.36884
# Velocity P-wave (km/s) = 4.59076 6.30598 5.51545
#
# Compressibility (1/GPa) = 0.06607385
#
# Stress axis : x y z
#
# Youngs Moduli (GPa) = 64.00526 64.00538 11.55336
#
# Poissons Ratio (x) = 0.36056 0.11687
# Poissons Ratio (y) = 0.36056 0.11687
# Poissons Ratio (z) = 0.64745 0.64744
#
# Static dielectric constant tensor:
#      x y z
#    x 1.626170 0.000000 0.000000 
#    y 0.000000 1.626170 0.000000 
#    z 0.000000 0.000000 1.597160 
# 
# From -- ./inp_files/4228.got.cif
#   From: 2010.05.17/outbox.cif.g08.bks.cpg/sg166_3_cif.got.tgz:4228.got - 2010.05.20 11:04:41.
