data_PCOD9579554
_publ_section_title
;
Structure prediction by ZEFSAII (Michael W. Deem and Ramdas Pophale) SiO2 
 PCOD9579554
Probable space group: R -3 C 
;
_chemical_formula_sum "Si O2"
_cell_formula_units_Z 126
_cell_length_a 19.755286
_cell_length_b 19.755286
_cell_length_c 17.897223
_cell_angle_alpha 90.000000
_cell_angle_beta 90.000000
_cell_angle_gamma 120.000000
_cell_volume 6048.990800
_symmetry_space_group_name_H-M "R -3 C "
_symmetry_group_IT_number 167
_symmetry_cell_setting 'hexagonal'
loop_
_space_group_symop_operation_xyz
x,y,z
-y,x-y,z
-x+y,-x,z
x-y,-y,1/2-z
-x,-x+y,1/2-z
y,x,1/2-z
-x,-y,-z
y,-x+y,-z
x-y,x,-z
-x+y,y,1/2+z
x,x-y,1/2+z
-y,-x,1/2+z
2/3+x,1/3+y,1/3+z
2/3-y,1/3+x-y,1/3+z
2/3-x+y,1/3-x,1/3+z
2/3+x-y,1/3-y,5/6-z
2/3-x,1/3-x+y,5/6-z
2/3+y,1/3+x,5/6-z
2/3-x,1/3-y,1/3-z
2/3+y,1/3-x+y,1/3-z
2/3+x-y,1/3+x,1/3-z
2/3-x+y,1/3+y,5/6+z
2/3+x,1/3+x-y,5/6+z
2/3-y,1/3-x,5/6+z
1/3+x,2/3+y,2/3+z
1/3-y,2/3+x-y,2/3+z
1/3-x+y,2/3-x,2/3+z
1/3+x-y,2/3-y,1/6-z
1/3-x,2/3-x+y,1/6-z
1/3+y,2/3+x,1/6-z
1/3-x,2/3-y,2/3-z
1/3+y,2/3-x+y,2/3-z
1/3+x-y,2/3+x,2/3-z
1/3-x+y,2/3+y,1/6+z
1/3+x,2/3+x-y,1/6+z
1/3-y,2/3-x,1/6+z
loop_
_atom_site_type_symbol
_atom_site_label
_atom_site_fract_x
_atom_site_fract_y
_atom_site_fract_z
Si Si1 0.961335 0.718995 0.516520
Si Si2 0.769551 0.023512 0.834582
Si Si3 0.782369 0.841322 0.630133
Si Si4 0.000000 0.910447 0.250000
O O1 0.956287 0.776949 0.457214
O O2 0.898711 0.629173 0.497778
O O3 0.955607 0.736314 0.603036
O O4 0.045546 0.726288 0.504426
O O5 0.855070 0.085974 0.860410
O O6 0.769890 0.000000 0.750000
O O7 0.859666 0.863314 0.677899
O O8 0.927620 0.927620 0.250000
#
# Coordination Sequence:
#
# PCOD9579554 Si02
#       4
#    36  36  36  18
#     4  10  21  40  67 100 134 165 216 282 351 396
#     4  11  22  40  65 101 126 167 225 273 337 400
#     4  11  22  43  65  93 134 176 216 278 327 400
#     4  10  24  46  62  94 138 184 238 262 324 414
#
# _framework density 20.829922
#
# number of rings (size 3 to 8) (size 9 to 14) (size 15 to 20)
#    0.286    1.143    2.857    6.000    0.000    1.143 
#   15.429    0.000    0.000    1.714    0.000    0.000 
#    0.000    0.000    0.000    0.000    0.000    0.000 
#
# Total GULP energy -234438.298798 kJ/mol
# GULP energy per Si atom -5581.864257 kJ/mol
# Density = 2.078251 g / cm^3
# Si number density = 20.829922 Si / 1000 Ang^3
#
#
#
# Elastic Constant Matrix: (Units=GPa)
#
#
# Indices 1 2 3 4 5 6 
#
# 1 28.9862 53.2552 46.3490 -19.0773 0.0000 0.0000
# 2 53.2552 28.9862 46.3490 19.0773 0.0000 0.0000
# 3 46.3490 46.3490 215.3734 0.0000 0.0000 0.0000
# 4 -19.0773 19.0773 0.0000 19.6124 0.0000 0.0000
# 5 0.0000 0.0000 0.0000 0.0000 19.6124 -19.0773
# 6 0.0000 0.0000 0.0000 0.0000 -19.0773 -12.1345
#
#
#
# Elastic Compliance Matrix: (Units=1/GPa)
#
#
# Indices 1 2 3 4 5 6 
#
# 1 -0.000119 0.016172 -0.003455 -0.015847 0.000000 0.000000
# 2 0.016172 -0.000119 -0.003455 0.015847 0.000000 0.000000
# 3 -0.003455 -0.003455 0.006130 0.000000 0.000000 0.000000
# 4 -0.015847 0.015847 0.000000 0.020159 0.000000 0.000000
# 5 0.000000 0.000000 0.000000 0.000000 0.020159 -0.031693
# 6 0.000000 0.000000 0.000000 0.000000 -0.031693 -0.032583
#
#
# Mechanical properties :
#
#
# Convention : Reuss Voigt Hill
#
# Bulk Modulus (GPa) = 40.95382 62.80582 51.87982
# Shear Modulus (GPa) = 1542.35591 13.91090 778.13340
#
# Velocity S-wave (km/s) = 27.24077 2.58705 19.34880
# Velocity P-wave (km/s) = 31.76659 6.25627 22.89386
#
# Compressibility (1/GPa) = 0.02441775
#
# Stress axis : x y z
#
# Youngs Moduli (GPa) = -8404.48885 -8404.48748 163.13127
#
# Poissons Ratio (x) = 135.91974 0.56357
# Poissons Ratio (y) = 135.91976 0.56357
# Poissons Ratio (z) = -29.03516 -29.03515
#
# Static dielectric constant tensor:
#      x y z
#    x 1.762470 0.000000 0.000000 
#    y 0.000000 1.762470 0.000000 
#    z 0.000000 0.000000 1.798220 
# 
# From -- ./inp_files/3099.got.cif
#   From: 2010.05.17/outbox.cif.g08.bks.cpg/sg167_2_cif.got.tgz:3099.got - 2010.05.20 11:09:15.
