data_PCOD9579245
_publ_section_title
;
Structure prediction by ZEFSAII (Michael W. Deem and Ramdas Pophale) SiO2 
 PCOD9579245
Probable space group: R -3 M
;
_chemical_formula_sum "Si O2"
_cell_formula_units_Z 234
_cell_length_a 24.964782
_cell_length_b 24.964782
_cell_length_c 24.002209
_cell_angle_alpha 90.000000
_cell_angle_beta 90.000000
_cell_angle_gamma 120.000000
_cell_volume 12954.999507
_symmetry_space_group_name_H-M "R -3 M"
_symmetry_group_IT_number 166
_symmetry_cell_setting 'hexagonal'
loop_
_space_group_symop_operation_xyz
x,y,z
-y,x-y,z
-x+y,-x,z
x-y,-y,-z
-x,-x+y,-z
y,x,-z
-x,-y,-z
y,-x+y,-z
x-y,x,-z
-x+y,y,z
x,x-y,z
-y,-x,z
2/3+x,1/3+y,1/3+z
2/3-y,1/3+x-y,1/3+z
2/3-x+y,1/3-x,1/3+z
2/3+x-y,1/3-y,1/3-z
2/3-x,1/3-x+y,1/3-z
2/3+y,1/3+x,1/3-z
2/3-x,1/3-y,1/3-z
2/3+y,1/3-x+y,1/3-z
2/3+x-y,1/3+x,1/3-z
2/3-x+y,1/3+y,1/3+z
2/3+x,1/3+x-y,1/3+z
2/3-y,1/3-x,1/3+z
1/3+x,2/3+y,2/3+z
1/3-y,2/3+x-y,2/3+z
1/3-x+y,2/3-x,2/3+z
1/3+x-y,2/3-y,2/3-z
1/3-x,2/3-x+y,2/3-z
1/3+y,2/3+x,2/3-z
1/3-x,2/3-y,2/3-z
1/3+y,2/3-x+y,2/3-z
1/3+x-y,2/3+x,2/3-z
1/3-x+y,2/3+y,2/3+z
1/3+x,2/3+x-y,2/3+z
1/3-y,2/3-x,2/3+z
loop_
_atom_site_type_symbol
_atom_site_label
_atom_site_fract_x
_atom_site_fract_y
_atom_site_fract_z
Si Si1 0.620878 0.810439 0.203124
Si Si2 0.101217 0.550609 0.895450
Si Si3 0.944692 0.689397 0.460964
Si Si4 0.341306 0.410241 0.013115
Si Si5 0.211913 0.218599 0.153204
Si Si6 0.542769 0.584183 0.417248
Si Si7 0.879838 0.759675 0.648742
Si Si8 0.564916 0.720314 0.713171
O O1 0.690984 0.845492 0.231189
O O2 0.618797 0.860647 0.163932
O O3 0.565846 0.782923 0.248135
O O4 0.120767 0.612676 0.861051
O O5 0.127716 0.563858 0.958179
O O6 0.900620 0.616473 0.453829
O O7 0.000000 0.697543 0.500000
O O8 0.972154 0.726411 0.404592
O O9 0.407303 0.472525 0.014716
O O10 0.355905 0.355905 0.000000
O O11 0.298845 0.412917 0.964972
O O12 0.266176 0.221959 0.192372
O O13 0.194899 0.169093 0.104460
O O14 0.474458 0.525542 0.419996
O O15 0.587066 0.556807 0.399331
O O16 0.560630 0.780315 0.694722
O O17 0.541132 0.666667 0.666667
#
# Coordination Sequence:
#
# PCOD9579245 Si02
#       8
#    18  18  36  36  36  36  18  36
#     4  10  21  34  48  76 116 146 187 232 274 334
#     4  10  21  34  56  84 113 150 194 238 281 342
#     4  11  21  32  52  77 108 154 188 229 276 333
#     4  12  22  35  55  79 115 153 193 233 280 339
#     4  11  21  37  58  83 115 154 198 236 288 341
#     4  11  23  37  56  84 117 155 194 240 284 343
#     4  12  21  36  54  82 114 150 191 233 279 333
#     4  11  24  41  61  86 116 152 193 241 295 354
#
# _framework density 18.062525000000001
#
# number of rings (size 3 to 8) (size 9 to 14) (size 15 to 20)
#    0.000    0.923    3.077    6.462    2.154    1.231 
#    0.000    0.000    0.000    0.154    0.000    0.000 
#    8.462    0.000    0.000    2.308    0.000    0.000 
#
# Total GULP energy -434687.277602 kJ/mol
# GULP energy per Si atom -5572.913815 kJ/mol
# Density = 1.802141 g / cm^3
# Si number density = 18.062525 Si / 1000 Ang^3
#
#
#
# Elastic Constant Matrix: (Units=GPa)
#
#
# Indices 1 2 3 4 5 6 
#
# 1 50.3291 66.2348 44.5020 -8.9925 0.0001 0.0000
# 2 66.2348 50.3291 44.5020 8.9925 -0.0001 0.0000
# 3 44.5020 44.5020 128.6507 0.0000 0.0000 0.0000
# 4 -8.9925 8.9925 0.0000 25.2408 0.0000 -0.0001
# 5 0.0001 -0.0001 0.0000 0.0000 25.2408 -8.9925
# 6 0.0000 0.0000 0.0000 -0.0001 -8.9925 -7.9528
#
#
#
# Elastic Compliance Matrix: (Units=1/GPa)
#
#
# Indices 1 2 3 4 5 6 
#
# 1 -0.016579 0.028238 -0.004033 -0.015967 0.000000 0.000000
# 2 0.028238 -0.016579 -0.004033 0.015967 0.000000 0.000000
# 3 -0.004033 -0.004033 0.010563 0.000000 0.000000 0.000000
# 4 -0.015967 0.015967 0.000000 0.028242 0.000000 0.000000
# 5 0.000000 0.000000 0.000000 0.000000 0.028242 -0.031933
# 6 0.000000 0.000000 0.000000 0.000000 -0.031933 -0.089634
#
#
# Mechanical properties :
#
#
# Convention : Reuss Voigt Hill
#
# Bulk Modulus (GPa) = 56.34291 59.97629 58.15960
# Shear Modulus (GPa) = -55.44825 13.44378 -21.00224
#
# Velocity S-wave (km/s) = -5.54658 2.73113 -3.41361
# Velocity P-wave (km/s) = 3.12386 6.57437 4.09047
#
# Compressibility (1/GPa) = 0.01774846
#
# Stress axis : x y z
#
# Youngs Moduli (GPa) = -60.31620 -60.31620 94.67053
#
# Poissons Ratio (x) = 1.70318 0.38178
# Poissons Ratio (y) = 1.70318 0.38178
# Poissons Ratio (z) = -0.24324 -0.24324
#
# Static dielectric constant tensor:
#      x y z
#    x 1.545900 0.000000 0.000000 
#    y 0.000000 1.545900 0.000000 
#    z 0.000000 0.000000 1.651870 
# 
# From -- ./inp_files/7265.got.cif
#   From: 2010.05.17/outbox.cif.g08.bks.cpg/sg166_4_cif.got.tgz:7265.got - 2010.05.20 11:04:41.
