data_PCOD9579161
_publ_section_title
;
Structure prediction by ZEFSAII (Michael W. Deem and Ramdas Pophale) SiO2 
 PCOD9579161
Probable space group: R -3 M
;
_chemical_formula_sum "Si O2"
_cell_formula_units_Z 216
_cell_length_a 21.774588
_cell_length_b 21.774588
_cell_length_c 27.139613
_cell_angle_alpha 90.000000
_cell_angle_beta 90.000000
_cell_angle_gamma 120.000000
_cell_volume 11143.822219
_symmetry_space_group_name_H-M "R -3 M"
_symmetry_group_IT_number 166
_symmetry_cell_setting 'hexagonal'
loop_
_space_group_symop_operation_xyz
x,y,z
-y,x-y,z
-x+y,-x,z
x-y,-y,-z
-x,-x+y,-z
y,x,-z
-x,-y,-z
y,-x+y,-z
x-y,x,-z
-x+y,y,z
x,x-y,z
-y,-x,z
2/3+x,1/3+y,1/3+z
2/3-y,1/3+x-y,1/3+z
2/3-x+y,1/3-x,1/3+z
2/3+x-y,1/3-y,1/3-z
2/3-x,1/3-x+y,1/3-z
2/3+y,1/3+x,1/3-z
2/3-x,1/3-y,1/3-z
2/3+y,1/3-x+y,1/3-z
2/3+x-y,1/3+x,1/3-z
2/3-x+y,1/3+y,1/3+z
2/3+x,1/3+x-y,1/3+z
2/3-y,1/3-x,1/3+z
1/3+x,2/3+y,2/3+z
1/3-y,2/3+x-y,2/3+z
1/3-x+y,2/3-x,2/3+z
1/3+x-y,2/3-y,2/3-z
1/3-x,2/3-x+y,2/3-z
1/3+y,2/3+x,2/3-z
1/3-x,2/3-y,2/3-z
1/3+y,2/3-x+y,2/3-z
1/3+x-y,2/3+x,2/3-z
1/3-x+y,2/3+y,2/3+z
1/3+x,2/3+x-y,2/3+z
1/3-y,2/3-x,2/3+z
loop_
_atom_site_type_symbol
_atom_site_label
_atom_site_fract_x
_atom_site_fract_y
_atom_site_fract_z
Si Si1 0.430522 0.146219 0.139076
Si Si2 0.744411 0.801111 0.104681
Si Si3 0.806583 0.049896 0.452180
Si Si4 0.894607 0.250749 0.274382
Si Si5 0.334440 0.533331 0.380191
Si Si6 0.089266 0.675007 0.320159
O O1 0.419412 0.209706 0.158339
O O2 0.458356 0.116590 0.181478
O O3 0.359823 0.093805 0.107706
O O4 0.491967 0.178985 0.098404
O O5 0.764071 0.882036 0.092912
O O6 0.662115 0.760404 0.119968
O O7 0.760227 0.756686 0.063342
O O8 0.890073 0.109928 0.448027
O O9 0.772409 0.003869 0.402814
O O10 0.789308 0.000000 0.500000
O O11 0.813487 0.186514 0.275008
O O12 0.935194 0.239832 0.320532
O O13 0.280700 0.561400 0.386406
O O14 0.407355 0.592646 0.356512
O O15 0.302319 0.463872 0.347858
O O16 0.062490 0.729157 0.333334
#
# Coordination Sequence:
#
# PCOD9579161 Si02
#       6
#    36  36  36  36  36  36
#     4   9  18  33  55  84 116 152 197 249 303 364
#     4  11  21  32  51  82 121 159 203 246 299 367
#     4  11  24  41  61  88 124 160 199 247 308 375
#     4  10  19  35  60  84 111 152 204 258 312 368
#     4  10  21  37  59  87 122 162 204 248 304 373
#     4  11  22  40  62  89 121 155 205 262 311 359
#
# _framework density 19.382936999999998
#
# number of rings (size 3 to 8) (size 9 to 14) (size 15 to 20)
#    0.000    1.667    1.667    5.167    2.333    2.333 
#    0.000    0.000    0.000    3.833    0.000    0.000 
#    0.000    0.667    0.000    0.000    0.000    0.000 
#
# Total GULP energy -401677.756210 kJ/mol
# GULP energy per Si atom -5578.857725 kJ/mol
# Density = 1.933882 g / cm^3
# Si number density = 19.382937 Si / 1000 Ang^3
#
#
#
# Elastic Constant Matrix: (Units=GPa)
#
#
# Indices 1 2 3 4 5 6 
#
# 1 84.3745 36.9253 19.1500 -0.6775 0.0002 0.0000
# 2 36.9253 84.3745 19.1500 0.6775 -0.0002 0.0000
# 3 19.1500 19.1500 91.6503 0.0000 0.0000 0.0000
# 4 -0.6775 0.6775 0.0000 13.0604 0.0000 -0.0002
# 5 0.0002 -0.0002 0.0000 0.0000 13.0604 -0.6775
# 6 0.0000 0.0000 0.0000 -0.0002 -0.6775 23.7246
#
#
#
# Elastic Compliance Matrix: (Units=1/GPa)
#
#
# Indices 1 2 3 4 5 6 
#
# 1 0.014966 -0.006140 -0.001844 0.001095 0.000000 0.000000
# 2 -0.006140 0.014966 -0.001844 -0.001095 0.000000 0.000000
# 3 -0.001844 -0.001844 0.011682 0.000000 0.000000 0.000000
# 4 0.001095 -0.001095 0.000000 0.076681 0.000000 0.000001
# 5 0.000000 0.000000 0.000000 0.000000 0.076681 0.002190
# 6 0.000000 0.000000 0.000000 0.000001 0.002190 0.042213
#
#
# Mechanical properties :
#
#
# Convention : Reuss Voigt Hill
#
# Bulk Modulus (GPa) = 45.54251 45.64996 45.59623
# Shear Modulus (GPa) = 18.92758 22.31404 20.62081
#
# Velocity S-wave (km/s) = 3.12830 3.39665 3.26523
# Velocity P-wave (km/s) = 6.04943 6.24385 6.14741
#
# Compressibility (1/GPa) = 0.02195751
#
# Stress axis : x y z
#
# Youngs Moduli (GPa) = 66.81639 66.81639 85.60374
#
# Poissons Ratio (x) = 0.41026 0.15787
# Poissons Ratio (y) = 0.41026 0.15787
# Poissons Ratio (z) = 0.12322 0.12322
#
# Static dielectric constant tensor:
#      x y z
#    x 1.682390 0.000000 0.000000 
#    y 0.000000 1.682390 0.000000 
#    z 0.000000 0.000000 1.719110 
# 
# From -- ./inp_files/9738.got.cif
#   From: 2010.05.17/outbox.cif.g08.bks.cpg/sg166_5_cif.got.tgz:9738.got - 2010.05.20 11:04:41.
