data_PCOD9579674
_publ_section_title
;
Structure prediction by ZEFSAII (Michael W. Deem and Ramdas Pophale) SiO2 
 PCOD9579674
Probable space group: R -3 C 
;
_chemical_formula_sum "Si O2"
_cell_formula_units_Z 162
_cell_length_a 20.510231
_cell_length_b 20.510231
_cell_length_c 19.724140
_cell_angle_alpha 90.000000
_cell_angle_beta 90.000000
_cell_angle_gamma 120.000000
_cell_volume 7185.712077
_symmetry_space_group_name_H-M "R -3 C "
_symmetry_group_IT_number 167
_symmetry_cell_setting 'hexagonal'
loop_
_space_group_symop_operation_xyz
x,y,z
-y,x-y,z
-x+y,-x,z
x-y,-y,1/2-z
-x,-x+y,1/2-z
y,x,1/2-z
-x,-y,-z
y,-x+y,-z
x-y,x,-z
-x+y,y,1/2+z
x,x-y,1/2+z
-y,-x,1/2+z
2/3+x,1/3+y,1/3+z
2/3-y,1/3+x-y,1/3+z
2/3-x+y,1/3-x,1/3+z
2/3+x-y,1/3-y,5/6-z
2/3-x,1/3-x+y,5/6-z
2/3+y,1/3+x,5/6-z
2/3-x,1/3-y,1/3-z
2/3+y,1/3-x+y,1/3-z
2/3+x-y,1/3+x,1/3-z
2/3-x+y,1/3+y,5/6+z
2/3+x,1/3+x-y,5/6+z
2/3-y,1/3-x,5/6+z
1/3+x,2/3+y,2/3+z
1/3-y,2/3+x-y,2/3+z
1/3-x+y,2/3-x,2/3+z
1/3+x-y,2/3-y,1/6-z
1/3-x,2/3-x+y,1/6-z
1/3+y,2/3+x,1/6-z
1/3-x,2/3-y,2/3-z
1/3+y,2/3-x+y,2/3-z
1/3+x-y,2/3+x,2/3-z
1/3-x+y,2/3+y,1/6+z
1/3+x,2/3+x-y,1/6+z
1/3-y,2/3-x,1/6+z
loop_
_atom_site_type_symbol
_atom_site_label
_atom_site_fract_x
_atom_site_fract_y
_atom_site_fract_z
Si Si1 0.128873 0.879176 0.801570
Si Si2 0.715054 0.154948 0.488766
Si Si3 0.537887 0.173912 0.317536
Si Si4 0.000000 0.751630 0.750000
Si Si5 0.709867 0.000092 0.987879
O O1 0.166667 0.833334 0.833334
O O2 0.141553 0.901156 0.721637
O O3 0.041722 0.817550 0.804067
O O4 0.163600 0.960772 0.834165
O O5 0.736046 0.203049 0.420528
O O6 0.714008 0.076234 0.485816
O O7 0.529338 0.247634 0.310992
O O8 0.460342 0.111621 0.351783
O O9 0.944425 0.675428 0.791235
O O10 0.687215 0.020548 0.916667
#
# Coordination Sequence:
#
# PCOD9579674 Si02
#       5
#    36  36  36  18  36
#     4  11  22  42  71 102 148 185 234 302 382 454
#     4  11  24  46  68 102 146 187 237 304 374 454
#     4  12  30  49  70  99 147 205 257 307 370 462
#     4  12  24  40  70 110 140 188 234 302 390 454
#     4  12  24  41  70 109 141 179 234 311 387 451
#
# _framework density 22.544737999999999
#
# number of rings (size 3 to 8) (size 9 to 14) (size 15 to 20)
#    0.000    0.444    6.667    0.222   12.444    0.000 
#    0.000    0.000    0.000    3.556    0.000    0.000 
#    0.000    0.000    0.000    0.000    0.000    0.000 
#
# Total GULP energy -301557.646401 kJ/mol
# GULP energy per Si atom -5584.400859 kJ/mol
# Density = 2.249343 g / cm^3
# Si number density = 22.544738 Si / 1000 Ang^3
#
#
#
# Elastic Constant Matrix: (Units=GPa)
#
#
# Indices 1 2 3 4 5 6 
#
# 1 104.2905 36.9725 18.3054 0.6277 -0.0008 0.0000
# 2 36.9725 104.2905 18.3054 -0.6277 0.0008 0.0000
# 3 18.3054 18.3054 112.0165 0.0000 0.0000 0.0000
# 4 0.6277 -0.6277 0.0000 38.0782 0.0000 0.0008
# 5 -0.0008 0.0008 0.0000 0.0000 38.0782 0.6277
# 6 0.0000 0.0000 0.0000 0.0008 0.6277 33.6590
#
#
#
# Elastic Compliance Matrix: (Units=1/GPa)
#
#
# Indices 1 2 3 4 5 6 
#
# 1 0.011126 -0.003734 -0.001208 -0.000245 0.000000 0.000000
# 2 -0.003734 0.011126 -0.001208 0.000245 0.000000 0.000000
# 3 -0.001208 -0.001208 0.009322 0.000000 0.000000 0.000000
# 4 -0.000245 0.000245 0.000000 0.026270 0.000000 -0.000001
# 5 0.000000 0.000000 0.000000 0.000000 0.026270 -0.000490
# 6 0.000000 0.000000 0.000000 -0.000001 -0.000490 0.029719
#
#
# Mechanical properties :
#
#
# Convention : Reuss Voigt Hill
#
# Bulk Modulus (GPa) = 51.88270 51.97377 51.92823
# Shear Modulus (GPa) = 37.71983 38.43067 38.07525
#
# Velocity S-wave (km/s) = 4.09480 4.13321 4.11405
# Velocity P-wave (km/s) = 6.73942 6.77359 6.75653
#
# Compressibility (1/GPa) = 0.01927425
#
# Stress axis : x y z
#
# Youngs Moduli (GPa) = 89.88152 89.88152 107.27233
#
# Poissons Ratio (x) = 0.33559 0.12958
# Poissons Ratio (y) = 0.33559 0.12958
# Poissons Ratio (z) = 0.10858 0.10858
#
# Static dielectric constant tensor:
#      x y z
#    x 1.852550 0.000000 0.000000 
#    y 0.000000 1.852550 0.000000 
#    z 0.000000 0.000000 2.126880 
# 
# From -- ./inp_files/4461.got.cif
#   From: 2010.05.17/outbox.cif.g08.bks.cpg/sg167_3_cif.got.tgz:4461.got - 2010.05.20 11:09:15.
