data_PCOD9579796
_publ_section_title
;
Structure prediction by ZEFSAII (Michael W. Deem and Ramdas Pophale) SiO2 
 PCOD9579796
Probable space group: P 61
;
_chemical_formula_sum "Si O2"
_cell_formula_units_Z 42
_cell_length_a 11.220045
_cell_length_b 11.220045
_cell_length_c 22.451081
_cell_angle_alpha 90.000000
_cell_angle_beta 90.000000
_cell_angle_gamma 120.000000
_cell_volume 2447.693789
_symmetry_space_group_name_H-M "P 61"
_symmetry_group_IT_number 169
_symmetry_cell_setting 'hexagonal'
loop_
_space_group_symop_operation_xyz
x,y,z
x-y,x,1/6+z
-y,x-y,1/3+z
-x,-y,1/2+z
-x+y,-x,2/3+z
y,-x+y,5/6+z
loop_
_atom_site_type_symbol
_atom_site_label
_atom_site_fract_x
_atom_site_fract_y
_atom_site_fract_z
Si Si1 0.118369 0.444331 0.900920
Si Si2 0.118369 0.674038 0.828458
Si Si3 0.906732 0.335456 0.998821
Si Si4 0.000000 0.514092 0.114689
Si Si5 0.386802 0.695293 0.765917
Si Si6 0.428723 0.335456 0.063890
Si Si7 0.386802 0.691509 0.963461
O O1 0.064991 0.532496 0.864689
O O2 0.183274 0.383358 0.855117
O O3 0.250128 0.557406 0.938306
O O4 0.006436 0.342945 0.946838
O O5 0.250129 0.692722 0.791072
O O6 0.183275 0.799918 0.874261
O O7 0.006437 0.663491 0.782539
O O8 0.816003 0.399383 0.972384
O O9 0.988363 0.426902 0.055568
O O10 0.146587 0.654198 0.107360
O O11 0.011638 0.438541 0.173810
O O12 0.853413 0.507611 0.122017
O O13 0.356090 0.643908 0.698022
O O14 0.583379 0.399382 0.090327
#
# Coordination Sequence:
#
# PCOD9579796 Si02
#       7
#     6   6   6   6   6   6   6
#     4   9  18  31  47  73 104 141 172 210 263 314
#     4   9  18  31  47  73 104 141 172 210 263 314
#     4  10  19  30  50  73 109 142 169 215 265 318
#     4  10  18  30  46  70 106 136 176 208 262 312
#     4  10  18  31  49  72 106 141 171 217 255 317
#     4  10  19  30  50  73 109 142 169 215 265 318
#     4  10  18  31  49  72 106 141 171 217 255 317
#
# _framework density 17.159009000000001
#
# number of rings (size 3 to 8) (size 9 to 14) (size 15 to 20)
#    0.000    2.286    2.857    3.429    0.000    0.000 
#    0.000    0.000    0.000    0.000    0.000    0.000 
#    0.000  274.286    0.000    0.000    0.000    0.000 
#
# Total GULP energy -233998.775406 kJ/mol
# GULP energy per Si atom -5571.399414 kJ/mol
# Density = 1.711995 g / cm^3
# Si number density = 17.159009 Si / 1000 Ang^3
#
#
#
# Elastic Constant Matrix: (Units=GPa)
#
#
# Indices 1 2 3 4 5 6 
#
# 1 54.6935 32.7237 37.2493 0.0000 0.0000 0.0000
# 2 32.7237 54.6935 37.2493 0.0000 0.0000 0.0000
# 3 37.2493 37.2493 122.7532 0.0000 0.0000 0.0000
# 4 0.0000 0.0000 0.0000 33.4624 0.0000 0.0000
# 5 0.0000 0.0000 0.0000 0.0000 33.4624 0.0000
# 6 0.0000 0.0000 0.0000 0.0000 0.0000 10.9849
#
#
#
# Elastic Compliance Matrix: (Units=1/GPa)
#
#
# Indices 1 2 3 4 5 6 
#
# 1 0.030473 -0.015044 -0.004682 0.000000 0.000000 0.000000
# 2 -0.015044 0.030473 -0.004682 0.000000 0.000000 0.000000
# 3 -0.004682 -0.004682 0.010988 0.000000 0.000000 0.000000
# 4 0.000000 0.000000 0.000000 0.029884 0.000000 0.000000
# 5 0.000000 0.000000 0.000000 0.000000 0.029884 0.000000
# 6 0.000000 0.000000 0.000000 0.000000 0.000000 0.091034
#
#
# Mechanical properties :
#
#
# Convention : Reuss Voigt Hill
#
# Bulk Modulus (GPa) = 43.25488 49.62050 46.43769
# Shear Modulus (GPa) = 17.90451 23.90979 20.90715
#
# Velocity S-wave (km/s) = 3.23375 3.73691 3.49440
# Velocity P-wave (km/s) = 6.26145 6.89929 6.58809
#
# Compressibility (1/GPa) = 0.02311878
#
# Stress axis : x y z
#
# Youngs Moduli (GPa) = 32.81562 32.81562 91.00866
#
# Poissons Ratio (x) = 0.49367 0.42611
# Poissons Ratio (y) = 0.49367 0.42611
# Poissons Ratio (z) = 0.15365 0.15365
#
# Static dielectric constant tensor:
#      x y z
#    x 1.593450 0.000000 0.000000 
#    y 0.000000 1.593450 0.000000 
#    z 0.000000 0.000000 1.619730 
# 
# From -- ./inp_files/1534.got.cif
#   From: 2010.05.17/outbox.cif.g08.bks.cpg/sg169_cif.got.tgz:1534.got - 2010.05.20 11:12:54.
