data_PCOD9579345
_publ_section_title
;
Structure prediction by ZEFSAII (Michael W. Deem and Ramdas Pophale) SiO2 
 PCOD9579345
Probable space group: R -3 M
;
_chemical_formula_sum "Si O2"
_cell_formula_units_Z 144
_cell_length_a 29.084968
_cell_length_b 29.084968
_cell_length_c 9.439898
_cell_angle_alpha 90.000000
_cell_angle_beta 90.000000
_cell_angle_gamma 120.000000
_cell_volume 6915.683574
_symmetry_space_group_name_H-M "R -3 M"
_symmetry_group_IT_number 166
_symmetry_cell_setting 'hexagonal'
loop_
_space_group_symop_operation_xyz
x,y,z
-y,x-y,z
-x+y,-x,z
x-y,-y,-z
-x,-x+y,-z
y,x,-z
-x,-y,-z
y,-x+y,-z
x-y,x,-z
-x+y,y,z
x,x-y,z
-y,-x,z
2/3+x,1/3+y,1/3+z
2/3-y,1/3+x-y,1/3+z
2/3-x+y,1/3-x,1/3+z
2/3+x-y,1/3-y,1/3-z
2/3-x,1/3-x+y,1/3-z
2/3+y,1/3+x,1/3-z
2/3-x,1/3-y,1/3-z
2/3+y,1/3-x+y,1/3-z
2/3+x-y,1/3+x,1/3-z
2/3-x+y,1/3+y,1/3+z
2/3+x,1/3+x-y,1/3+z
2/3-y,1/3-x,1/3+z
1/3+x,2/3+y,2/3+z
1/3-y,2/3+x-y,2/3+z
1/3-x+y,2/3-x,2/3+z
1/3+x-y,2/3-y,2/3-z
1/3-x,2/3-x+y,2/3-z
1/3+y,2/3+x,2/3-z
1/3-x,2/3-y,2/3-z
1/3+y,2/3-x+y,2/3-z
1/3+x-y,2/3+x,2/3-z
1/3-x+y,2/3+y,2/3+z
1/3+x,2/3+x-y,2/3+z
1/3-y,2/3-x,2/3+z
loop_
_atom_site_type_symbol
_atom_site_label
_atom_site_fract_x
_atom_site_fract_y
_atom_site_fract_z
Si Si1 0.089463 0.805823 0.942388
Si Si2 0.741113 0.059909 0.505866
Si Si3 0.102732 0.102307 0.666595
Si Si4 0.833864 0.277814 0.007823
O O1 0.137082 0.862919 0.991906
O O2 0.116134 0.782801 0.833334
O O3 0.051405 0.812880 0.835326
O O4 0.066200 0.765780 0.070988
O O5 0.746891 0.080225 0.666667
O O6 0.790780 0.056283 0.436315
O O7 0.692440 0.000000 0.500000
O O8 0.091455 0.091455 0.500000
O O9 0.050704 0.101407 0.730665
O O10 0.151762 0.161874 0.665207
O O11 0.112290 0.056145 0.725567
O O12 0.779135 0.220866 0.992448
#
# Coordination Sequence:
#
# PCOD9579345 Si02
#       4
#    36  36  36  36
#     4   8  16  34  58  80 107 144 184 232 294 353
#     4  11  23  36  52  80 113 148 194 249 303 351
#     4   9  16  27  48  83 126 164 195 231 281 342
#     4   9  18  35  59  85 116 156 196 238 291 349
#
# _framework density 20.822237000000001
#
# number of rings (size 3 to 8) (size 9 to 14) (size 15 to 20)
#    0.000    2.750    0.000    3.250    0.000    6.000 
#    0.000    1.250    0.000    0.000    0.000    5.250 
#    0.000    3.000    0.000    8.250    0.000  241.750 
#
# Total GULP energy -267522.540936 kJ/mol
# GULP energy per Si atom -5573.386269 kJ/mol
# Density = 2.077484 g / cm^3
# Si number density = 20.822237 Si / 1000 Ang^3
#
#
#
# Elastic Constant Matrix: (Units=GPa)
#
#
# Indices 1 2 3 4 5 6 
#
# 1 95.6189 49.2315 50.8721 -5.8887 -0.0465 -0.0098
# 2 49.2315 95.6378 50.8995 5.8619 0.0129 0.0031
# 3 50.8721 50.8995 122.5039 -0.0671 -0.0314 -0.0043
# 4 -5.8887 5.8619 -0.0671 -1.9994 -0.1001 -0.0204
# 5 -0.0465 0.0129 -0.0314 -0.1001 -2.0216 -5.8662
# 6 -0.0098 0.0031 -0.0043 -0.0204 -5.8662 23.2066
#
#
#
# Elastic Compliance Matrix: (Units=1/GPa)
#
#
# Indices 1 2 3 4 5 6 
#
# 1 0.011059 -0.001301 -0.004072 -0.036301 0.000968 0.000217
# 2 -0.001301 0.011039 -0.004027 0.036384 -0.000994 -0.000222
# 3 -0.004072 -0.004027 0.011527 -0.000197 -0.000060 -0.000014
# 4 -0.036301 0.036384 -0.000197 -0.287044 0.009268 0.002070
# 5 0.000968 -0.000994 -0.000060 0.009268 -0.285641 -0.072197
# 6 0.000217 -0.000222 -0.000014 0.002070 -0.072197 0.024843
#
#
# Mechanical properties :
#
#
# Convention : Reuss Voigt Hill
#
# Bulk Modulus (GPa) = 67.44811 68.41855 67.93333
# Shear Modulus (GPa) = -10.19417 14.68761 2.24672
#
# Velocity S-wave (km/s) = -2.21505 2.65878 1.03988
# Velocity P-wave (km/s) = 5.09124 6.50809 5.84277
#
# Compressibility (1/GPa) = 0.01482621
#
# Stress axis : x y z
#
# Youngs Moduli (GPa) = 90.42273 90.58820 86.75500
#
# Poissons Ratio (x) = 0.11787 0.35323
# Poissons Ratio (y) = 0.11765 0.34933
# Poissons Ratio (z) = 0.36816 0.36476
#
# Static dielectric constant tensor:
#      x y z
#    x 1.796820 0.000000 -0.000020 
#    y 0.000000 1.796840 0.000000 
#    z -0.000020 0.000000 1.745530 
# 
# From -- ./inp_files/1804.got.cif
#   From: 2010.05.17/outbox.cif.g08.bks.cpg/sg166_1_cif.got.tgz:1804.got - 2010.05.20 11:04:41.
