data_PCOD9579626
_publ_section_title
;
Structure prediction by ZEFSAII (Michael W. Deem and Ramdas Pophale) SiO2 
 PCOD9579626
Probable space group: R -3 C 
;
_chemical_formula_sum "Si O2"
_cell_formula_units_Z 162
_cell_length_a 23.105841
_cell_length_b 23.105841
_cell_length_c 16.363995
_cell_angle_alpha 90.000000
_cell_angle_beta 90.000000
_cell_angle_gamma 120.000000
_cell_volume 7565.951113
_symmetry_space_group_name_H-M "R -3 C "
_symmetry_group_IT_number 167
_symmetry_cell_setting 'hexagonal'
loop_
_space_group_symop_operation_xyz
x,y,z
-y,x-y,z
-x+y,-x,z
x-y,-y,1/2-z
-x,-x+y,1/2-z
y,x,1/2-z
-x,-y,-z
y,-x+y,-z
x-y,x,-z
-x+y,y,1/2+z
x,x-y,1/2+z
-y,-x,1/2+z
2/3+x,1/3+y,1/3+z
2/3-y,1/3+x-y,1/3+z
2/3-x+y,1/3-x,1/3+z
2/3+x-y,1/3-y,5/6-z
2/3-x,1/3-x+y,5/6-z
2/3+y,1/3+x,5/6-z
2/3-x,1/3-y,1/3-z
2/3+y,1/3-x+y,1/3-z
2/3+x-y,1/3+x,1/3-z
2/3-x+y,1/3+y,5/6+z
2/3+x,1/3+x-y,5/6+z
2/3-y,1/3-x,5/6+z
1/3+x,2/3+y,2/3+z
1/3-y,2/3+x-y,2/3+z
1/3-x+y,2/3-x,2/3+z
1/3+x-y,2/3-y,1/6-z
1/3-x,2/3-x+y,1/6-z
1/3+y,2/3+x,1/6-z
1/3-x,2/3-y,2/3-z
1/3+y,2/3-x+y,2/3-z
1/3+x-y,2/3+x,2/3-z
1/3-x+y,2/3+y,1/6+z
1/3+x,2/3+x-y,1/6+z
1/3-y,2/3-x,1/6+z
loop_
_atom_site_type_symbol
_atom_site_label
_atom_site_fract_x
_atom_site_fract_y
_atom_site_fract_z
Si Si1 0.936180 0.666667 0.416667
Si Si2 0.470045 0.806780 0.516711
Si Si3 0.100208 0.820490 0.933360
Si Si4 0.268571 0.209923 0.148660
Si Si5 0.554073 0.336458 0.674765
O O1 0.919365 0.710880 0.476699
O O2 0.953287 0.617477 0.464677
O O3 0.479980 0.813313 0.416667
O O4 0.508537 0.881111 0.555695
O O5 0.481493 0.745287 0.539743
O O6 0.393401 0.778699 0.547356
O O7 0.167142 0.892240 0.925308
O O8 0.120015 0.771635 0.885493
O O9 0.190255 0.169375 0.166911
O O10 0.578268 0.333334 0.583334
#
# Coordination Sequence:
#
# PCOD9579626 Si02
#       5
#    18  36  36  36  36
#     4  12  24  42  64  92 122 168 224 272 324 398
#     4   9  18  32  61  97 129 170 218 263 332 412
#     4  10  23  43  63  91 128 174 214 272 337 392
#     4  10  23  43  60  87 128 163 211 270 327 383
#     4   9  16  32  58  89 127 162 203 265 324 391
#
# _framework density 21.411716999999999
#
# number of rings (size 3 to 8) (size 9 to 14) (size 15 to 20)
#    0.000    2.222    0.000    2.444    1.556    5.333 
#    4.000    0.000    0.000    0.000    0.000    7.778 
#    0.000    0.000    0.000    0.000    0.000    0.000 
#
# Total GULP energy -300806.244553 kJ/mol
# GULP energy per Si atom -5570.486010 kJ/mol
# Density = 2.136298 g / cm^3
# Si number density = 21.411717 Si / 1000 Ang^3
#
#
#
# Elastic Constant Matrix: (Units=GPa)
#
#
# Indices 1 2 3 4 5 6 
#
# 1 111.4195 38.7719 11.5670 -11.9899 0.0002 0.0000
# 2 38.7719 111.4195 11.5670 11.9899 -0.0002 0.0000
# 3 11.5670 11.5670 34.5233 0.0000 0.0000 0.0000
# 4 -11.9899 11.9899 0.0000 -0.1045 0.0000 -0.0002
# 5 0.0002 -0.0002 0.0000 0.0000 -0.1045 -11.9899
# 6 0.0000 0.0000 0.0000 -0.0002 -11.9899 36.3238
#
#
#
# Elastic Compliance Matrix: (Units=1/GPa)
#
#
# Indices 1 2 3 4 5 6 
#
# 1 0.003687 0.003333 -0.002352 -0.040628 0.000001 0.000000
# 2 0.003333 0.003687 -0.002352 0.040628 -0.000001 0.000000
# 3 -0.002352 -0.002352 0.030542 0.000000 0.000000 0.000000
# 4 -0.040628 0.040628 0.000000 -0.246170 0.000000 -0.000001
# 5 0.000001 -0.000001 0.000000 0.000000 -0.246170 -0.081257
# 6 0.000000 0.000000 0.000000 -0.000001 -0.081257 0.000709
#
#
# Mechanical properties :
#
#
# Convention : Reuss Voigt Hill
#
# Bulk Modulus (GPa) = 28.42984 42.35269 35.39127
# Shear Modulus (GPa) = -11.38311 20.25337 4.43513
#
# Velocity S-wave (km/s) = -2.30821 3.07889 1.44078
# Velocity P-wave (km/s) = 2.49053 5.69759 4.39689
#
# Compressibility (1/GPa) = 0.03517431
#
# Stress axis : x y z
#
# Youngs Moduli (GPa) = 271.19623 271.19623 32.74160
#
# Poissons Ratio (x) = -0.90393 0.07702
# Poissons Ratio (y) = -0.90393 0.07702
# Poissons Ratio (z) = 0.63791 0.63791
#
# Static dielectric constant tensor:
#      x y z
#    x 1.859700 0.000000 0.000000 
#    y 0.000000 1.859700 0.000000 
#    z 0.000000 0.000000 1.856740 
# 
# From -- ./inp_files/4439.got.cif
#   From: 2010.05.17/outbox.cif.g08.bks.cpg/sg167_3_cif.got.tgz:4439.got - 2010.05.20 11:09:15.
