data_PCOD9579956
_publ_section_title
;
Structure prediction by ZEFSAII (Michael W. Deem and Ramdas Pophale) SiO2 
 PCOD9579956
Probable space group: P 61
;
_chemical_formula_sum "Si O2"
_cell_formula_units_Z 24
_cell_length_a 14.078817
_cell_length_b 14.078817
_cell_length_c 7.603465
_cell_angle_alpha 90.000000
_cell_angle_beta 90.000000
_cell_angle_gamma 120.000000
_cell_volume 1305.192323
_symmetry_space_group_name_H-M "P 61"
_symmetry_group_IT_number 169
_symmetry_cell_setting 'hexagonal'
loop_
_space_group_symop_operation_xyz
x,y,z
x-y,x,1/6+z
-y,x-y,1/3+z
-x,-y,1/2+z
-x+y,-x,2/3+z
y,-x+y,5/6+z
loop_
_atom_site_type_symbol
_atom_site_label
_atom_site_fract_x
_atom_site_fract_y
_atom_site_fract_z
Si Si1 0.241344 0.789903 0.301590
Si Si2 0.826238 0.772225 0.198992
Si Si3 0.345958 0.933913 0.640881
Si Si4 0.116412 0.536933 0.336625
O O1 0.136732 0.803048 0.248721
O O2 0.276255 0.840509 0.497285
O O3 0.207000 0.663414 0.306008
O O4 0.338907 0.853547 0.166028
O O5 0.816948 0.870109 0.109588
O O6 0.720193 0.714933 0.328096
O O7 0.465331 0.008316 0.553087
O O8 0.364996 0.895277 0.827442
#
# Coordination Sequence:
#
# PCOD9579956 Si02
#       4
#     6   6   6   6
#     4  10  23  38  62  93 127 167 203 261 311 371
#     4   9  20  44  62  86 123 162 207 265 310 362
#     4  10  21  41  64  89 130 163 203 258 315 366
#     4  11  22  39  62  92 128 164 211 252 310 381
#
# _framework density 18.388095
#
# number of rings (size 3 to 8) (size 9 to 14) (size 15 to 20)
#    0.000    2.000    2.500    0.000    3.500    0.000 
#    9.000    0.000    0.000    0.000    0.000    0.000 
#    0.000    0.000    0.000    0.000    0.000    0.000 
#
# Total GULP energy -133792.730666 kJ/mol
# GULP energy per Si atom -5574.697111 kJ/mol
# Density = 1.834624 g / cm^3
# Si number density = 18.388095 Si / 1000 Ang^3
#
#
#
# Elastic Constant Matrix: (Units=GPa)
#
#
# Indices 1 2 3 4 5 6 
#
# 1 108.9165 50.7438 28.2832 0.0000 0.0000 0.0000
# 2 50.7438 108.9165 28.2832 0.0000 0.0000 0.0000
# 3 28.2832 28.2832 66.9833 0.0000 0.0000 0.0000
# 4 0.0000 0.0000 0.0000 22.9007 0.0000 0.0000
# 5 0.0000 0.0000 0.0000 0.0000 22.9007 0.0000
# 6 0.0000 0.0000 0.0000 0.0000 0.0000 29.0864
#
#
#
# Elastic Compliance Matrix: (Units=1/GPa)
#
#
# Indices 1 2 3 4 5 6 
#
# 1 0.012278 -0.004913 -0.003110 0.000000 0.000000 0.000000
# 2 -0.004913 0.012278 -0.003110 0.000000 0.000000 0.000000
# 3 -0.003110 -0.003110 0.017555 0.000000 0.000000 0.000000
# 4 0.000000 0.000000 0.000000 0.043667 0.000000 0.000000
# 5 0.000000 0.000000 0.000000 0.000000 0.043667 0.000000
# 6 0.000000 0.000000 0.000000 0.000000 0.000000 0.034380
#
#
# Mechanical properties :
#
#
# Convention : Reuss Voigt Hill
#
# Bulk Modulus (GPa) = 50.38779 55.49299 52.94039
# Shear Modulus (GPa) = 25.94645 26.81128 26.37886
#
# Velocity S-wave (km/s) = 3.76046 3.82262 3.79167
# Velocity P-wave (km/s) = 6.80564 7.05177 6.92980
#
# Compressibility (1/GPa) = 0.01984608
#
# Stress axis : x y z
#
# Youngs Moduli (GPa) = 81.44885 81.44885 56.96277
#
# Poissons Ratio (x) = 0.40012 0.17715
# Poissons Ratio (y) = 0.40012 0.17715
# Poissons Ratio (z) = 0.25329 0.25329
#
# Static dielectric constant tensor:
#      x y z
#    x 1.649610 0.000000 0.000000 
#    y 0.000000 1.649610 0.000000 
#    z 0.000000 0.000000 1.594400 
# 
# From -- ./inp_files/55.got.cif
#   From: 2010.05.17/outbox.cif.g08.bks.cpg/sg169_cif.got.tgz:55.got - 2010.05.20 11:12:54.
