data_PCOD9579302
_publ_section_title
;
Structure prediction by ZEFSAII (Michael W. Deem and Ramdas Pophale) SiO2 
 PCOD9579302
Probable space group: R -3 M
;
_chemical_formula_sum "Si O2"
_cell_formula_units_Z 90
_cell_length_a 14.790850
_cell_length_b 14.790850
_cell_length_c 23.405102
_cell_angle_alpha 90.000000
_cell_angle_beta 90.000000
_cell_angle_gamma 120.000000
_cell_volume 4434.324133
_symmetry_space_group_name_H-M "R -3 M"
_symmetry_group_IT_number 166
_symmetry_cell_setting 'hexagonal'
loop_
_space_group_symop_operation_xyz
x,y,z
-y,x-y,z
-x+y,-x,z
x-y,-y,-z
-x,-x+y,-z
y,x,-z
-x,-y,-z
y,-x+y,-z
x-y,x,-z
-x+y,y,z
x,x-y,z
-y,-x,z
2/3+x,1/3+y,1/3+z
2/3-y,1/3+x-y,1/3+z
2/3-x+y,1/3-x,1/3+z
2/3+x-y,1/3-y,1/3-z
2/3-x,1/3-x+y,1/3-z
2/3+y,1/3+x,1/3-z
2/3-x,1/3-y,1/3-z
2/3+y,1/3-x+y,1/3-z
2/3+x-y,1/3+x,1/3-z
2/3-x+y,1/3+y,1/3+z
2/3+x,1/3+x-y,1/3+z
2/3-y,1/3-x,1/3+z
1/3+x,2/3+y,2/3+z
1/3-y,2/3+x-y,2/3+z
1/3-x+y,2/3-x,2/3+z
1/3+x-y,2/3-y,2/3-z
1/3-x,2/3-x+y,2/3-z
1/3+y,2/3+x,2/3-z
1/3-x,2/3-y,2/3-z
1/3+y,2/3-x+y,2/3-z
1/3+x-y,2/3+x,2/3-z
1/3-x+y,2/3+y,2/3+z
1/3+x,2/3+x-y,2/3+z
1/3-y,2/3-x,2/3+z
loop_
_atom_site_type_symbol
_atom_site_label
_atom_site_fract_x
_atom_site_fract_y
_atom_site_fract_z
Si Si1 0.341691 0.170846 0.755147
Si Si2 0.000000 0.654681 0.500000
Si Si3 0.929482 0.070519 0.671929
Si Si4 0.128063 0.668438 0.727445
O O1 0.343852 0.256789 0.796413
O O2 0.228534 0.114267 0.722252
O O3 0.445434 0.222717 0.715066
O O4 0.942237 0.571371 0.450425
O O5 0.056126 0.112252 0.673179
O O6 0.107123 0.553562 0.738505
O O7 0.249318 0.750683 0.716784
O O8 0.073516 0.666667 0.666667
#
# Coordination Sequence:
#
# PCOD9579302 Si02
#       4
#    18  18  18  36
#     4  11  26  45  73 105 135 186 237 279 353 415
#     4  12  25  44  63 104 138 174 232 291 337 418
#     4   9  24  49  75 102 140 186 231 289 346 421
#     4  10  22  42  67  95 131 178 223 282 348 416
#
# _framework density 20.296216999999999
#
# number of rings (size 3 to 8) (size 9 to 14) (size 15 to 20)
#    0.400    1.200    2.000    1.000    8.400    4.800 
#    0.000    1.000    0.000    0.000    0.000    0.000 
#    0.000    0.000    0.000    0.000    0.000    0.000 
#
# Total GULP energy -167048.100062 kJ/mol
# GULP energy per Si atom -5568.270002 kJ/mol
# Density = 2.025002 g / cm^3
# Si number density = 20.296217 Si / 1000 Ang^3
#
#
#
# Elastic Constant Matrix: (Units=GPa)
#
#
# Indices 1 2 3 4 5 6 
#
# 1 109.1335 61.9979 75.2174 -11.0880 -0.0001 0.0000
# 2 61.9979 109.1335 75.2174 11.0880 0.0001 0.0000
# 3 75.2174 75.2174 198.7357 0.0000 0.0000 0.0000
# 4 -11.0880 11.0880 0.0000 34.9092 0.0000 0.0001
# 5 -0.0001 0.0001 0.0000 0.0000 34.9092 -11.0880
# 6 0.0000 0.0000 0.0000 0.0001 -11.0880 23.5678
#
#
#
# Elastic Compliance Matrix: (Units=1/GPa)
#
#
# Indices 1 2 3 4 5 6 
#
# 1 0.016850 -0.008093 -0.003314 0.007922 0.000000 0.000000
# 2 -0.008093 0.016850 -0.003314 -0.007922 0.000000 0.000000
# 3 -0.003314 -0.003314 0.007541 0.000000 0.000000 0.000000
# 4 0.007922 -0.007922 0.000000 0.033678 0.000000 0.000000
# 5 0.000000 0.000000 0.000000 0.000000 0.033678 0.015845
# 6 0.000000 0.000000 0.000000 0.000000 0.015845 0.049885
#
#
# Mechanical properties :
#
#
# Convention : Reuss Voigt Hill
#
# Bulk Modulus (GPa) = 84.76573 93.54091 89.15332
# Shear Modulus (GPa) = 26.06099 32.31526 29.18813
#
# Velocity S-wave (km/s) = 3.58723 3.99454 3.79635
# Velocity P-wave (km/s) = 7.68196 8.21359 7.95222
#
# Compressibility (1/GPa) = 0.01179722
#
# Stress axis : x y z
#
# Youngs Moduli (GPa) = 59.34791 59.34791 132.61501
#
# Poissons Ratio (x) = 0.48029 0.43953
# Poissons Ratio (y) = 0.48029 0.43953
# Poissons Ratio (z) = 0.19670 0.19670
#
# Static dielectric constant tensor:
#      x y z
#    x 1.737160 0.000000 0.000000 
#    y 0.000000 1.737160 0.000000 
#    z 0.000000 0.000000 1.738780 
# 
# From -- ./inp_files/9048.got.cif
#   From: 2010.05.17/outbox.cif.g08.bks.cpg/sg166_5_cif.got.tgz:9048.got - 2010.05.20 11:04:41.
