data_PCOD9579604
_publ_section_title
;
Structure prediction by ZEFSAII (Michael W. Deem and Ramdas Pophale) SiO2 
 PCOD9579604
Probable space group: R -3 C 
;
_chemical_formula_sum "Si O2"
_cell_formula_units_Z 108
_cell_length_a 16.901652
_cell_length_b 16.901652
_cell_length_c 17.291440
_cell_angle_alpha 90.000000
_cell_angle_beta 90.000000
_cell_angle_gamma 120.000000
_cell_volume 4277.796341
_symmetry_space_group_name_H-M "R -3 C "
_symmetry_group_IT_number 167
_symmetry_cell_setting 'hexagonal'
loop_
_space_group_symop_operation_xyz
x,y,z
-y,x-y,z
-x+y,-x,z
x-y,-y,1/2-z
-x,-x+y,1/2-z
y,x,1/2-z
-x,-y,-z
y,-x+y,-z
x-y,x,-z
-x+y,y,1/2+z
x,x-y,1/2+z
-y,-x,1/2+z
2/3+x,1/3+y,1/3+z
2/3-y,1/3+x-y,1/3+z
2/3-x+y,1/3-x,1/3+z
2/3+x-y,1/3-y,5/6-z
2/3-x,1/3-x+y,5/6-z
2/3+y,1/3+x,5/6-z
2/3-x,1/3-y,1/3-z
2/3+y,1/3-x+y,1/3-z
2/3+x-y,1/3+x,1/3-z
2/3-x+y,1/3+y,5/6+z
2/3+x,1/3+x-y,5/6+z
2/3-y,1/3-x,5/6+z
1/3+x,2/3+y,2/3+z
1/3-y,2/3+x-y,2/3+z
1/3-x+y,2/3-x,2/3+z
1/3+x-y,2/3-y,1/6-z
1/3-x,2/3-x+y,1/6-z
1/3+y,2/3+x,1/6-z
1/3-x,2/3-y,2/3-z
1/3+y,2/3-x+y,2/3-z
1/3+x-y,2/3+x,2/3-z
1/3-x+y,2/3+y,1/6+z
1/3+x,2/3+x-y,1/6+z
1/3-y,2/3-x,1/6+z
loop_
_atom_site_type_symbol
_atom_site_label
_atom_site_fract_x
_atom_site_fract_y
_atom_site_fract_z
Si Si1 0.247371 0.345592 0.734434
Si Si2 0.363821 0.522880 0.205722
Si Si3 0.215095 0.055066 0.818768
O O1 0.258852 0.258852 0.750000
O O2 0.293362 0.397902 0.654726
O O3 0.139249 0.305185 0.721311
O O4 0.313427 0.418626 0.799173
O O5 0.263814 0.506269 0.194001
O O6 0.412050 0.563365 0.286117
O O7 0.146899 0.000000 0.750000
#
# Coordination Sequence:
#
# PCOD9579604 Si02
#       3
#    36  36  36
#     4  11  24  44  71 104 145 195 256 323 392 471
#     4  10  22  43  68 101 146 200 252 312 395 477
#     4  11  24  43  70 107 148 195 257 325 392 468
#
# _framework density 25.246644
#
# number of rings (size 3 to 8) (size 9 to 14) (size 15 to 20)
#    0.000    1.333    0.000    6.333    0.000   10.667 
#    0.000    0.000    0.000    0.667    0.000    0.000 
#    0.000    0.000    0.000    0.000    0.000    0.000 
#
# Total GULP energy -201043.441887 kJ/mol
# GULP energy per Si atom -5584.540052 kJ/mol
# Density = 2.518918 g / cm^3
# Si number density = 25.246644 Si / 1000 Ang^3
#
#
#
# Elastic Constant Matrix: (Units=GPa)
#
#
# Indices 1 2 3 4 5 6 
#
# 1 113.1496 41.6781 66.5333 2.9088 0.0000 0.0000
# 2 41.6781 113.1496 66.5333 -2.9088 0.0000 0.0000
# 3 66.5333 66.5333 147.9723 0.0000 0.0000 0.0000
# 4 2.9088 -2.9088 0.0000 41.6944 0.0000 0.0000
# 5 0.0000 0.0000 0.0000 0.0000 41.6944 2.9088
# 6 0.0000 0.0000 0.0000 0.0000 2.9088 35.7358
#
#
#
# Elastic Compliance Matrix: (Units=1/GPa)
#
#
# Indices 1 2 3 4 5 6 
#
# 1 0.012299 -0.001772 -0.004733 -0.000982 0.000000 0.000000
# 2 -0.001772 0.012299 -0.004733 0.000982 0.000000 0.000000
# 3 -0.004733 -0.004733 0.011014 0.000000 0.000000 0.000000
# 4 -0.000982 0.000982 0.000000 0.024121 0.000000 0.000000
# 5 0.000000 0.000000 0.000000 0.000000 0.024121 -0.001963
# 6 0.000000 0.000000 0.000000 0.000000 -0.001963 0.028143
#
#
# Mechanical properties :
#
#
# Convention : Reuss Voigt Hill
#
# Bulk Modulus (GPa) = 76.13148 80.41786 78.27467
# Shear Modulus (GPa) = 36.00920 37.12670 36.56795
#
# Velocity S-wave (km/s) = 3.78073 3.83895 3.80995
# Velocity P-wave (km/s) = 7.01991 7.18137 7.10110
#
# Compressibility (1/GPa) = 0.01313517
#
# Stress axis : x y z
#
# Youngs Moduli (GPa) = 81.30682 81.30682 90.79038
#
# Poissons Ratio (x) = 0.14411 0.42972
# Poissons Ratio (y) = 0.14411 0.42972
# Poissons Ratio (z) = 0.38484 0.38484
#
# Static dielectric constant tensor:
#      x y z
#    x 1.998010 0.000000 0.000000 
#    y 0.000000 1.998010 0.000000 
#    z 0.000000 0.000000 1.986300 
# 
# From -- ./inp_files/4051.got.cif
#   From: 2010.05.17/outbox.cif.g08.bks.cpg/sg167_3_cif.got.tgz:4051.got - 2010.05.20 11:09:15.
