data_PCOD9579278
_publ_section_title
;
Structure prediction by ZEFSAII (Michael W. Deem and Ramdas Pophale) SiO2 
 PCOD9579278
Probable space group: R -3 M
;
_chemical_formula_sum "Si O2"
_cell_formula_units_Z 108
_cell_length_a 23.722537
_cell_length_b 23.722537
_cell_length_c 9.619575
_cell_angle_alpha 90.000000
_cell_angle_beta 90.000000
_cell_angle_gamma 120.000000
_cell_volume 4688.228623
_symmetry_space_group_name_H-M "R -3 M"
_symmetry_group_IT_number 166
_symmetry_cell_setting 'hexagonal'
loop_
_space_group_symop_operation_xyz
x,y,z
-y,x-y,z
-x+y,-x,z
x-y,-y,-z
-x,-x+y,-z
y,x,-z
-x,-y,-z
y,-x+y,-z
x-y,x,-z
-x+y,y,z
x,x-y,z
-y,-x,z
2/3+x,1/3+y,1/3+z
2/3-y,1/3+x-y,1/3+z
2/3-x+y,1/3-x,1/3+z
2/3+x-y,1/3-y,1/3-z
2/3-x,1/3-x+y,1/3-z
2/3+y,1/3+x,1/3-z
2/3-x,1/3-y,1/3-z
2/3+y,1/3-x+y,1/3-z
2/3+x-y,1/3+x,1/3-z
2/3-x+y,1/3+y,1/3+z
2/3+x,1/3+x-y,1/3+z
2/3-y,1/3-x,1/3+z
1/3+x,2/3+y,2/3+z
1/3-y,2/3+x-y,2/3+z
1/3-x+y,2/3-x,2/3+z
1/3+x-y,2/3-y,2/3-z
1/3-x,2/3-x+y,2/3-z
1/3+y,2/3+x,2/3-z
1/3-x,2/3-y,2/3-z
1/3+y,2/3-x+y,2/3-z
1/3+x-y,2/3+x,2/3-z
1/3-x+y,2/3+y,2/3+z
1/3+x,2/3+x-y,2/3+z
1/3-y,2/3-x,2/3+z
loop_
_atom_site_type_symbol
_atom_site_label
_atom_site_fract_x
_atom_site_fract_y
_atom_site_fract_z
Si Si1 0.903850 0.223840 0.330436
Si Si2 0.543751 0.209775 0.999819
Si Si3 0.447359 0.066105 0.074907
O O1 0.850933 0.149068 0.372969
O O2 0.893348 0.226681 0.166667
O O3 0.954604 0.395960 0.235597
O O4 0.980788 0.251894 0.333532
O O5 0.620117 0.240234 0.026303
O O6 0.520701 0.260351 0.046296
O O7 0.534493 0.201159 0.833334
O O8 0.508580 0.137818 0.062078
O O9 0.436179 0.000000 0.000000
#
# Coordination Sequence:
#
# PCOD9579278 Si02
#       3
#    36  36  36
#     4  11  24  41  62  91 130 176 224 275 338 413
#     4  10  21  38  62  95 137 185 237 295 360 430
#     4  12  23  39  64  95 135 177 224 282 347 413
#
# _framework density 23.036418999999999
#
# number of rings (size 3 to 8) (size 9 to 14) (size 15 to 20)
#    0.000    1.000    0.000    8.333    0.000    6.667 
#    0.000    0.000    0.000    0.000    0.000    0.000 
#    0.000   16.000    0.000    1.333    0.000    0.000 
#
# Total GULP energy -200648.739399 kJ/mol
# GULP energy per Si atom -5573.576094 kJ/mol
# Density = 2.298399 g / cm^3
# Si number density = 23.036419 Si / 1000 Ang^3
#
#
#
# Elastic Constant Matrix: (Units=GPa)
#
#
# Indices 1 2 3 4 5 6 
#
# 1 159.4372 84.7979 49.9992 5.2496 -0.0005 0.0003
# 2 84.7979 159.4375 49.9987 -5.2478 -0.0008 0.0002
# 3 49.9992 49.9987 107.0964 0.0055 0.0033 0.0012
# 4 5.2496 -5.2478 0.0055 21.6667 -0.0002 0.0004
# 5 -0.0005 -0.0008 0.0033 -0.0002 21.6721 5.2474
# 6 0.0003 0.0002 0.0012 0.0004 5.2474 37.3202
#
#
#
# Elastic Compliance Matrix: (Units=1/GPa)
#
#
# Indices 1 2 3 4 5 6 
#
# 1 0.009466 -0.004404 -0.002363 -0.003360 0.000000 0.000000
# 2 -0.004404 0.009466 -0.002363 0.003360 0.000001 0.000000
# 3 -0.002363 -0.002363 0.011544 -0.000003 -0.000002 0.000000
# 4 -0.003360 0.003360 -0.000003 0.047782 0.000001 -0.000001
# 5 0.000000 0.000001 -0.000002 0.000001 0.047769 -0.006717
# 6 0.000000 0.000000 0.000000 -0.000001 -0.006717 0.027740
#
#
# Mechanical properties :
#
#
# Convention : Reuss Voigt Hill
#
# Bulk Modulus (GPa) = 81.86644 88.39587 85.13115
# Shear Modulus (GPa) = 28.39313 32.21016 30.30164
#
# Velocity S-wave (km/s) = 3.51455 3.74334 3.63075
# Velocity P-wave (km/s) = 7.21695 7.55904 7.38997
#
# Compressibility (1/GPa) = 0.01221502
#
# Stress axis : x y z
#
# Youngs Moduli (GPa) = 105.63988 105.63924 86.62524
#
# Poissons Ratio (x) = 0.46525 0.20470
# Poissons Ratio (y) = 0.46525 0.20473
# Poissons Ratio (z) = 0.24964 0.24967
#
# Static dielectric constant tensor:
#      x y z
#    x 1.932660 0.000000 0.000000 
#    y 0.000000 1.932660 0.000000 
#    z 0.000000 0.000000 1.841990 
# 
# From -- ./inp_files/2590.got.cif
#   From: 2010.05.17/outbox.cif.g08.bks.cpg/sg166_2_cif.got.tgz:2590.got - 2010.05.20 11:04:41.
