data_PCOD9579249
_publ_section_title
;
Structure prediction by ZEFSAII (Michael W. Deem and Ramdas Pophale) SiO2 
 PCOD9579249
Probable space group: R -3 M
;
_chemical_formula_sum "Si O2"
_cell_formula_units_Z 162
_cell_length_a 29.690703
_cell_length_b 29.690703
_cell_length_c 12.595277
_cell_angle_alpha 90.000000
_cell_angle_beta 90.000000
_cell_angle_gamma 120.000000
_cell_volume 9615.664815
_symmetry_space_group_name_H-M "R -3 M"
_symmetry_group_IT_number 166
_symmetry_cell_setting 'hexagonal'
loop_
_space_group_symop_operation_xyz
x,y,z
-y,x-y,z
-x+y,-x,z
x-y,-y,-z
-x,-x+y,-z
y,x,-z
-x,-y,-z
y,-x+y,-z
x-y,x,-z
-x+y,y,z
x,x-y,z
-y,-x,z
2/3+x,1/3+y,1/3+z
2/3-y,1/3+x-y,1/3+z
2/3-x+y,1/3-x,1/3+z
2/3+x-y,1/3-y,1/3-z
2/3-x,1/3-x+y,1/3-z
2/3+y,1/3+x,1/3-z
2/3-x,1/3-y,1/3-z
2/3+y,1/3-x+y,1/3-z
2/3+x-y,1/3+x,1/3-z
2/3-x+y,1/3+y,1/3+z
2/3+x,1/3+x-y,1/3+z
2/3-y,1/3-x,1/3+z
1/3+x,2/3+y,2/3+z
1/3-y,2/3+x-y,2/3+z
1/3-x+y,2/3-x,2/3+z
1/3+x-y,2/3-y,2/3-z
1/3-x,2/3-x+y,2/3-z
1/3+y,2/3+x,2/3-z
1/3-x,2/3-y,2/3-z
1/3+y,2/3-x+y,2/3-z
1/3+x-y,2/3+x,2/3-z
1/3-x+y,2/3+y,2/3+z
1/3+x,2/3+x-y,2/3+z
1/3-y,2/3-x,2/3+z
loop_
_atom_site_type_symbol
_atom_site_label
_atom_site_fract_x
_atom_site_fract_y
_atom_site_fract_z
Si Si1 0.666667 0.634897 0.333334
Si Si2 0.527522 0.666667 0.166667
Si Si3 0.247934 0.123967 0.804696
Si Si4 0.952926 0.728108 0.301154
Si Si5 0.823531 0.647062 0.942865
Si Si6 0.318945 0.446001 0.552331
Si Si7 0.444195 0.888390 0.104398
O O1 0.713823 0.687999 0.290521
O O2 0.691842 0.612022 0.416913
O O3 0.548501 0.645884 0.262412
O O4 0.474570 0.617767 0.123095
O O5 0.301385 0.150693 0.871699
O O6 0.220688 0.156881 0.837671
O O7 0.249374 0.124687 0.677117
O O8 0.891299 0.694075 0.319315
O O9 0.968593 0.765979 0.199927
O O10 0.799800 0.599599 0.859981
O O11 0.333334 0.473583 0.666667
#
# Coordination Sequence:
#
# PCOD9579249 Si02
#       7
#    18  18  18  36  18  36  18
#     4  10  22  34  50  73 110 148 198 235 272 320
#     4  10  22  36  58  85 110 147 178 234 294 342
#     4  12  19  39  56  77 114 148 198 237 279 337
#     4  11  21  35  52  78 112 146 191 237 282 327
#     4  10  21  35  54  81 110 151 192 237 289 332
#     4  10  23  36  52  77 104 150 193 236 280 324
#     4  10  21  36  58  83 116 143 182 233 290 350
#
# _framework density 16.847508999999999
#
# number of rings (size 3 to 8) (size 9 to 14) (size 15 to 20)
#    0.667    0.889    4.444    1.000    3.111    0.889 
#    0.000    2.222    0.000    0.222    0.000    0.000 
#    0.000    0.000    0.000    2.556    0.000    0.111 
#
# Total GULP energy -300774.204794 kJ/mol
# GULP energy per Si atom -5569.892681 kJ/mol
# Density = 1.680916 g / cm^3
# Si number density = 16.847509 Si / 1000 Ang^3
#
#
#
# Elastic Constant Matrix: (Units=GPa)
#
#
# Indices 1 2 3 4 5 6 
#
# 1 70.8898 30.7816 16.7972 -4.1668 -0.0010 -0.0002
# 2 30.7816 70.8902 16.7974 4.1661 -0.0002 -0.0001
# 3 16.7972 16.7974 83.5478 -0.0012 -0.0016 -0.0006
# 4 -4.1668 4.1661 -0.0012 16.8942 -0.0007 0.0004
# 5 -0.0010 -0.0002 -0.0016 -0.0007 16.8931 -4.1667
# 6 -0.0002 -0.0001 -0.0006 0.0004 -4.1667 20.0543
#
#
#
# Elastic Compliance Matrix: (Units=1/GPa)
#
#
# Indices 1 2 3 4 5 6 
#
# 1 0.018407 -0.007872 -0.002118 0.006481 0.000001 0.000000
# 2 -0.007872 0.018407 -0.002118 -0.006481 -0.000001 0.000000
# 3 -0.002118 -0.002118 0.012821 0.000001 0.000001 0.000001
# 4 0.006481 -0.006481 0.000001 0.062389 0.000003 -0.000001
# 5 0.000001 -0.000001 0.000001 0.000003 0.062393 0.012963
# 6 0.000000 0.000000 0.000001 -0.000001 0.012963 0.052558
#
#
# Mechanical properties :
#
#
# Convention : Reuss Voigt Hill
#
# Bulk Modulus (GPa) = 39.34030 39.34224 39.34127
# Shear Modulus (GPa) = 19.25564 21.49842 20.37703
#
# Velocity S-wave (km/s) = 3.38440 3.57607 3.48156
# Velocity P-wave (km/s) = 6.21882 6.36032 6.28997
#
# Compressibility (1/GPa) = 0.02541923
#
# Stress axis : x y z
#
# Youngs Moduli (GPa) = 54.32649 54.32681 77.99762
#
# Poissons Ratio (x) = 0.42764 0.16520
# Poissons Ratio (y) = 0.42764 0.16522
# Poissons Ratio (z) = 0.11507 0.11508
#
# Static dielectric constant tensor:
#      x y z
#    x 1.559220 0.000000 0.000000 
#    y 0.000000 1.559220 0.000000 
#    z 0.000000 0.000000 1.608030 
# 
# From -- ./inp_files/3158.got.cif
#   From: 2010.05.17/outbox.cif.g08.bks.cpg/sg166_2_cif.got.tgz:3158.got - 2010.05.20 11:04:41.
