data_PCOD9579248
_publ_section_title
;
Structure prediction by ZEFSAII (Michael W. Deem and Ramdas Pophale) SiO2 
 PCOD9579248
Probable space group: R -3 M
;
_chemical_formula_sum "Si O2"
_cell_formula_units_Z 252
_cell_length_a 30.600540
_cell_length_b 30.600540
_cell_length_c 17.191346
_cell_angle_alpha 90.000000
_cell_angle_beta 90.000000
_cell_angle_gamma 120.000000
_cell_volume 13941.153009
_symmetry_space_group_name_H-M "R -3 M"
_symmetry_group_IT_number 166
_symmetry_cell_setting 'hexagonal'
loop_
_space_group_symop_operation_xyz
x,y,z
-y,x-y,z
-x+y,-x,z
x-y,-y,-z
-x,-x+y,-z
y,x,-z
-x,-y,-z
y,-x+y,-z
x-y,x,-z
-x+y,y,z
x,x-y,z
-y,-x,z
2/3+x,1/3+y,1/3+z
2/3-y,1/3+x-y,1/3+z
2/3-x+y,1/3-x,1/3+z
2/3+x-y,1/3-y,1/3-z
2/3-x,1/3-x+y,1/3-z
2/3+y,1/3+x,1/3-z
2/3-x,1/3-y,1/3-z
2/3+y,1/3-x+y,1/3-z
2/3+x-y,1/3+x,1/3-z
2/3-x+y,1/3+y,1/3+z
2/3+x,1/3+x-y,1/3+z
2/3-y,1/3-x,1/3+z
1/3+x,2/3+y,2/3+z
1/3-y,2/3+x-y,2/3+z
1/3-x+y,2/3-x,2/3+z
1/3+x-y,2/3-y,2/3-z
1/3-x,2/3-x+y,2/3-z
1/3+y,2/3+x,2/3-z
1/3-x,2/3-y,2/3-z
1/3+y,2/3-x+y,2/3-z
1/3+x-y,2/3+x,2/3-z
1/3-x+y,2/3+y,2/3+z
1/3+x,2/3+x-y,2/3+z
1/3-y,2/3-x,2/3+z
loop_
_atom_site_type_symbol
_atom_site_label
_atom_site_fract_x
_atom_site_fract_y
_atom_site_fract_z
Si Si1 0.923938 0.364505 0.407002
Si Si2 0.801612 0.098467 0.741612
Si Si3 0.890467 0.207923 0.328296
Si Si4 0.000524 0.616012 0.794467
Si Si5 0.802224 0.294574 0.573654
Si Si6 0.825958 0.552274 0.110543
Si Si7 0.334279 0.565334 0.756318
O O1 0.890321 0.333334 0.333334
O O2 0.952996 0.334294 0.429419
O O3 0.894388 0.367302 0.480923
O O4 0.964173 0.421027 0.382345
O O5 0.845225 0.154776 0.762341
O O6 0.773554 0.106887 0.666667
O O7 0.760666 0.072309 0.807633
O O8 0.831303 0.066364 0.742983
O O9 0.839776 0.160225 0.360144
O O10 0.929986 0.242267 0.392917
O O11 0.916561 0.186993 0.270907
O O12 0.960382 0.627049 0.833334
O O13 0.746405 0.253596 0.603268
O O14 0.838542 0.350810 0.605019
O O15 0.790727 0.309429 0.486478
O O16 0.771894 0.543788 0.133884
O O17 0.278357 0.556714 0.774832
O O18 0.374888 0.625113 0.755938
O O19 0.333334 0.548073 0.666667
#
# Coordination Sequence:
#
# PCOD9579248 Si02
#       7
#    36  36  36  36  36  36  36
#     4  10  21  35  53  81 112 150 193 227 270 316
#     4  10  22  39  59  78 103 141 183 230 286 345
#     4  10  22  38  56  80 114 148 183 232 282 335
#     4  11  22  35  58  83 110 142 183 234 274 335
#     4  10  21  36  53  76 107 140 185 235 276 325
#     4  11  21  36  57  80 111 148 188 227 279 337
#     4   9  17  31  52  79 113 153 194 232 275 327
#
# _framework density 18.075979
#
# number of rings (size 3 to 8) (size 9 to 14) (size 15 to 20)
#    0.000    1.857    1.429    2.714    2.000    2.857 
#    0.000    2.143    0.000    0.286    0.000    0.000 
#    0.000    0.000    0.000    0.000    0.000    5.714 
#
# Total GULP energy -467694.815585 kJ/mol
# GULP energy per Si atom -5567.795424 kJ/mol
# Density = 1.803484 g / cm^3
# Si number density = 18.075979 Si / 1000 Ang^3
#
#
#
# Elastic Constant Matrix: (Units=GPa)
#
#
# Indices 1 2 3 4 5 6 
#
# 1 76.5050 35.1258 24.4665 -3.5916 -0.0007 0.0000
# 2 35.1258 76.5050 24.4665 3.5916 0.0007 0.0000
# 3 24.4665 24.4665 39.3881 0.0000 0.0000 0.0000
# 4 -3.5916 3.5916 0.0000 25.9267 0.0000 0.0007
# 5 -0.0007 0.0007 0.0000 0.0000 25.9267 -3.5916
# 6 0.0000 0.0000 0.0000 0.0007 -3.5916 20.6896
#
#
#
# Elastic Compliance Matrix: (Units=1/GPa)
#
#
# Indices 1 2 3 4 5 6 
#
# 1 0.018536 -0.006226 -0.007646 0.003430 0.000001 0.000000
# 2 -0.006226 0.018536 -0.007646 -0.003430 -0.000001 0.000000
# 3 -0.007646 -0.007646 0.034888 0.000000 0.000000 0.000000
# 4 0.003430 -0.003430 0.000000 0.039521 0.000000 -0.000001
# 5 0.000001 -0.000001 0.000000 0.000000 0.039521 0.006861
# 6 0.000000 0.000000 0.000000 -0.000001 0.006861 0.049524
#
#
# Mechanical properties :
#
#
# Convention : Reuss Voigt Hill
#
# Bulk Modulus (GPa) = 34.57608 40.05728 37.31668
# Shear Modulus (GPa) = 19.74688 21.73123 20.73906
#
# Velocity S-wave (km/s) = 3.30879 3.47106 3.39090
# Velocity P-wave (km/s) = 5.81095 6.18651 6.00167
#
# Compressibility (1/GPa) = 0.02892173
#
# Stress axis : x y z
#
# Youngs Moduli (GPa) = 53.94888 53.94887 28.66330
#
# Poissons Ratio (x) = 0.33589 0.21917
# Poissons Ratio (y) = 0.33589 0.21917
# Poissons Ratio (z) = 0.41252 0.41252
#
# Static dielectric constant tensor:
#      x y z
#    x 1.655550 0.000000 0.000000 
#    y 0.000000 1.655550 0.000000 
#    z 0.000000 0.000000 1.634320 
# 
# From -- ./inp_files/5822.got.cif
#   From: 2010.05.17/outbox.cif.g08.bks.cpg/sg166_3_cif.got.tgz:5822.got - 2010.05.20 11:04:41.
