data_PCOD9579230
_publ_section_title
;
Structure prediction by ZEFSAII (Michael W. Deem and Ramdas Pophale) SiO2 
 PCOD9579230
Probable space group: R -3 M
;
_chemical_formula_sum "Si O2"
_cell_formula_units_Z 144
_cell_length_a 21.890006
_cell_length_b 21.890006
_cell_length_c 20.358805
_cell_angle_alpha 90.000000
_cell_angle_beta 90.000000
_cell_angle_gamma 120.000000
_cell_volume 8448.404040
_symmetry_space_group_name_H-M "R -3 M"
_symmetry_group_IT_number 166
_symmetry_cell_setting 'hexagonal'
loop_
_space_group_symop_operation_xyz
x,y,z
-y,x-y,z
-x+y,-x,z
x-y,-y,-z
-x,-x+y,-z
y,x,-z
-x,-y,-z
y,-x+y,-z
x-y,x,-z
-x+y,y,z
x,x-y,z
-y,-x,z
2/3+x,1/3+y,1/3+z
2/3-y,1/3+x-y,1/3+z
2/3-x+y,1/3-x,1/3+z
2/3+x-y,1/3-y,1/3-z
2/3-x,1/3-x+y,1/3-z
2/3+y,1/3+x,1/3-z
2/3-x,1/3-y,1/3-z
2/3+y,1/3-x+y,1/3-z
2/3+x-y,1/3+x,1/3-z
2/3-x+y,1/3+y,1/3+z
2/3+x,1/3+x-y,1/3+z
2/3-y,1/3-x,1/3+z
1/3+x,2/3+y,2/3+z
1/3-y,2/3+x-y,2/3+z
1/3-x+y,2/3-x,2/3+z
1/3+x-y,2/3-y,2/3-z
1/3-x,2/3-x+y,2/3-z
1/3+y,2/3+x,2/3-z
1/3-x,2/3-y,2/3-z
1/3+y,2/3-x+y,2/3-z
1/3+x-y,2/3+x,2/3-z
1/3-x+y,2/3+y,2/3+z
1/3+x,2/3+x-y,2/3+z
1/3-y,2/3-x,2/3+z
loop_
_atom_site_type_symbol
_atom_site_label
_atom_site_fract_x
_atom_site_fract_y
_atom_site_fract_z
Si Si1 0.260156 0.203251 0.130762
Si Si2 0.186794 0.666667 0.166667
Si Si3 0.522344 0.188916 0.572013
Si Si4 0.333334 0.378735 0.666667
Si Si5 0.713800 0.142559 0.964435
O O1 0.260263 0.130132 0.122251
O O2 0.333334 0.256400 0.166667
O O3 0.196317 0.187500 0.179114
O O4 0.259001 0.235062 0.061144
O O5 0.194173 0.597087 0.157996
O O6 0.151834 0.680325 0.102616
O O7 0.602639 0.205278 0.565956
O O8 0.518606 0.259303 0.571361
O O9 0.493444 0.147160 0.640211
O O10 0.267197 0.305050 0.642748
O O11 0.796534 0.203467 0.964220
#
# Coordination Sequence:
#
# PCOD9579230 Si02
#       5
#    36  18  36  18  36
#     4  10  21  39  60  82 113 150 190 234 280 335
#     4  10  21  38  58  82 113 150 190 234 284 334
#     4  10  20  37  60  86 114 148 191 237 283 332
#     4  12  22  36  61  84 113 154 188 226 288 342
#     4  10  22  37  56  84 118 150 190 235 276 335
#
# _framework density 17.044639
#
# number of rings (size 3 to 8) (size 9 to 14) (size 15 to 20)
#    0.000    1.750    2.500    1.875    1.750    2.000 
#    0.000    7.500    0.000    0.000    0.000    4.375 
#    0.000    0.000    0.000    0.000    0.000    0.000 
#
# Total GULP energy -268036.106877 kJ/mol
# GULP energy per Si atom -5584.085560 kJ/mol
# Density = 1.700584 g / cm^3
# Si number density = 17.044639 Si / 1000 Ang^3
#
#
#
# Elastic Constant Matrix: (Units=GPa)
#
#
# Indices 1 2 3 4 5 6 
#
# 1 93.9199 51.7354 67.4453 1.0486 0.0004 0.0000
# 2 51.7354 93.9199 67.4453 -1.0486 -0.0004 0.0000
# 3 67.4453 67.4453 167.3027 0.0000 0.0000 0.0000
# 4 1.0486 -1.0486 0.0000 28.4727 0.0000 -0.0004
# 5 0.0004 -0.0004 0.0000 0.0000 28.4727 1.0486
# 6 0.0000 0.0000 0.0000 -0.0004 1.0486 21.0922
#
#
#
# Elastic Compliance Matrix: (Units=1/GPa)
#
#
# Indices 1 2 3 4 5 6 
#
# 1 0.017352 -0.006397 -0.004417 -0.000875 0.000000 0.000000
# 2 -0.006397 0.017352 -0.004417 0.000875 0.000000 0.000000
# 3 -0.004417 -0.004417 0.009538 0.000000 0.000000 0.000000
# 4 -0.000875 0.000875 0.000000 0.035186 0.000000 0.000001
# 5 0.000000 0.000000 0.000000 0.000000 0.035186 -0.001749
# 6 0.000000 0.000000 0.000000 0.000001 -0.001749 0.047498
#
#
# Mechanical properties :
#
#
# Convention : Reuss Voigt Hill
#
# Bulk Modulus (GPa) = 72.55238 80.93271 76.74255
# Shear Modulus (GPa) = 25.35933 26.84196 26.10065
#
# Velocity S-wave (km/s) = 3.86141 3.97269 3.91744
# Velocity P-wave (km/s) = 7.90817 8.28425 8.09839
#
# Compressibility (1/GPa) = 0.01378314
#
# Stress axis : x y z
#
# Youngs Moduli (GPa) = 57.62923 57.62923 104.84199
#
# Poissons Ratio (x) = 0.36863 0.46305
# Poissons Ratio (y) = 0.36863 0.46305
# Poissons Ratio (z) = 0.25453 0.25453
#
# Static dielectric constant tensor:
#      x y z
#    x 1.556000 0.000000 0.000000 
#    y 0.000000 1.556000 0.000000 
#    z 0.000000 0.000000 1.537550 
# 
# From -- ./inp_files/6663.got.cif
#   From: 2010.05.17/outbox.cif.g08.bks.cpg/sg166_4_cif.got.tgz:6663.got - 2010.05.20 11:04:41.
