data_PCOD9579341
_publ_section_title
;
Structure prediction by ZEFSAII (Michael W. Deem and Ramdas Pophale) SiO2 
 PCOD9579341
Probable space group: R -3 M
;
_chemical_formula_sum "Si O2"
_cell_formula_units_Z 144
_cell_length_a 20.893405
_cell_length_b 20.893405
_cell_length_c 18.961724
_cell_angle_alpha 90.000000
_cell_angle_beta 90.000000
_cell_angle_gamma 120.000000
_cell_volume 7168.477032
_symmetry_space_group_name_H-M "R -3 M"
_symmetry_group_IT_number 166
_symmetry_cell_setting 'hexagonal'
loop_
_space_group_symop_operation_xyz
x,y,z
-y,x-y,z
-x+y,-x,z
x-y,-y,-z
-x,-x+y,-z
y,x,-z
-x,-y,-z
y,-x+y,-z
x-y,x,-z
-x+y,y,z
x,x-y,z
-y,-x,z
2/3+x,1/3+y,1/3+z
2/3-y,1/3+x-y,1/3+z
2/3-x+y,1/3-x,1/3+z
2/3+x-y,1/3-y,1/3-z
2/3-x,1/3-x+y,1/3-z
2/3+y,1/3+x,1/3-z
2/3-x,1/3-y,1/3-z
2/3+y,1/3-x+y,1/3-z
2/3+x-y,1/3+x,1/3-z
2/3-x+y,1/3+y,1/3+z
2/3+x,1/3+x-y,1/3+z
2/3-y,1/3-x,1/3+z
1/3+x,2/3+y,2/3+z
1/3-y,2/3+x-y,2/3+z
1/3-x+y,2/3-x,2/3+z
1/3+x-y,2/3-y,2/3-z
1/3-x,2/3-x+y,2/3-z
1/3+y,2/3+x,2/3-z
1/3-x,2/3-y,2/3-z
1/3+y,2/3-x+y,2/3-z
1/3+x-y,2/3+x,2/3-z
1/3-x+y,2/3+y,2/3+z
1/3+x,2/3+x-y,2/3+z
1/3-y,2/3-x,2/3+z
loop_
_atom_site_type_symbol
_atom_site_label
_atom_site_fract_x
_atom_site_fract_y
_atom_site_fract_z
Si Si1 0.936157 0.543135 0.396429
Si Si2 0.660134 0.560126 0.555068
Si Si3 0.266186 0.388601 0.219474
Si Si4 0.665760 0.476296 0.676887
O O1 0.921629 0.460815 0.382393
O O2 0.907782 0.574449 0.333334
O O3 0.901467 0.546441 0.471824
O O4 0.023912 0.596010 0.410330
O O5 0.736013 0.636189 0.568591
O O6 0.661190 0.494056 0.595543
O O7 0.199570 0.399140 0.191044
O O8 0.333334 0.411396 0.166667
O O9 0.301978 0.445460 0.283742
O O10 0.725235 0.450469 0.688058
O O11 0.585946 0.414055 0.702813
#
# Coordination Sequence:
#
# PCOD9579341 Si02
#       4
#    36  36  36  36
#     4  11  23  40  62  91 126 161 204 256 313 372
#     4  11  22  40  61  92 122 158 206 259 320 365
#     4  11  22  38  60  90 125 161 204 255 313 376
#     4  11  23  39  60  86 122 166 209 254 307 375
#
# _framework density 20.087948999999998
#
# number of rings (size 3 to 8) (size 9 to 14) (size 15 to 20)
#    0.000    1.000    2.500    7.000    0.000    4.000 
#    0.000    0.000    0.000    4.250    0.000    0.000 
#    0.000    0.000    0.000    0.000    0.000    0.000 
#
# Total GULP energy -268225.527068 kJ/mol
# GULP energy per Si atom -5588.031814 kJ/mol
# Density = 2.004223 g / cm^3
# Si number density = 20.087949 Si / 1000 Ang^3
#
#
#
# Elastic Constant Matrix: (Units=GPa)
#
#
# Indices 1 2 3 4 5 6 
#
# 1 68.9069 39.3303 32.7619 2.6864 0.0006 0.0000
# 2 39.3303 68.9069 32.7619 -2.6864 -0.0006 0.0000
# 3 32.7619 32.7619 76.4088 0.0000 0.0000 0.0000
# 4 2.6864 -2.6864 0.0000 9.5062 0.0000 -0.0006
# 5 0.0006 -0.0006 0.0000 0.0000 9.5062 2.6864
# 6 0.0000 0.0000 0.0000 -0.0006 2.6864 14.7883
#
#
#
# Elastic Compliance Matrix: (Units=1/GPa)
#
#
# Indices 1 2 3 4 5 6 
#
# 1 0.024059 -0.011581 -0.005350 -0.010072 -0.000002 0.000000
# 2 -0.011581 0.024059 -0.005350 0.010072 0.000002 0.000000
# 3 -0.005350 -0.005350 0.017675 0.000000 0.000000 0.000000
# 4 -0.010072 0.010072 0.000000 0.110886 0.000000 0.000005
# 5 -0.000002 0.000002 0.000000 0.000000 0.110886 -0.020143
# 6 0.000000 0.000000 0.000000 0.000005 -0.020143 0.071280
#
#
# Mechanical properties :
#
#
# Convention : Reuss Voigt Hill
#
# Bulk Modulus (GPa) = 47.10195 47.10344 47.10270
# Shear Modulus (GPa) = 12.18069 14.05138 13.11604
#
# Velocity S-wave (km/s) = 2.46513 2.64766 2.55802
# Velocity P-wave (km/s) = 5.62150 5.73117 5.67660
#
# Compressibility (1/GPa) = 0.02123054
#
# Stress axis : x y z
#
# Youngs Moduli (GPa) = 41.56467 41.56467 56.57559
#
# Poissons Ratio (x) = 0.48137 0.30269
# Poissons Ratio (y) = 0.48137 0.30269
# Poissons Ratio (z) = 0.22238 0.22238
#
# Static dielectric constant tensor:
#      x y z
#    x 1.704770 0.000000 0.000000 
#    y 0.000000 1.704770 0.000000 
#    z 0.000000 0.000000 1.725350 
# 
# From -- ./inp_files/6595.got.cif
#   From: 2010.05.17/outbox.cif.g08.bks.cpg/sg166_4_cif.got.tgz:6595.got - 2010.05.20 11:04:41.
