data_PCOD9579970
_publ_section_title
;
Structure prediction by ZEFSAII (Michael W. Deem and Ramdas Pophale) SiO2 
 PCOD9579970
Probable space group: P 61
;
_chemical_formula_sum "Si O2"
_cell_formula_units_Z 36
_cell_length_a 14.898790
_cell_length_b 14.898790
_cell_length_c 6.795915
_cell_angle_alpha 90.000000
_cell_angle_beta 90.000000
_cell_angle_gamma 120.000000
_cell_volume 1306.413223
_symmetry_space_group_name_H-M "P 61"
_symmetry_group_IT_number 169
_symmetry_cell_setting 'hexagonal'
loop_
_space_group_symop_operation_xyz
x,y,z
x-y,x,1/6+z
-y,x-y,1/3+z
-x,-y,1/2+z
-x+y,-x,2/3+z
y,-x+y,5/6+z
loop_
_atom_site_type_symbol
_atom_site_label
_atom_site_fract_x
_atom_site_fract_y
_atom_site_fract_z
Si Si1 0.361388 0.382112 0.115910
Si Si2 0.545612 0.351406 0.189632
Si Si3 0.395781 0.808129 0.490518
Si Si4 0.135581 0.224602 0.128114
Si Si5 0.632402 0.760955 0.129102
Si Si6 0.410778 0.081540 0.484210
O O1 0.429110 0.327623 0.151025
O O2 0.420036 0.500894 0.185108
O O3 0.244521 0.321507 0.196655
O O4 0.347159 0.392365 0.880786
O O5 0.577814 0.274156 0.088597
O O6 0.576709 0.369723 0.421988
O O7 0.609938 0.468745 0.105263
O O8 0.295772 0.814129 0.565474
O O9 0.030175 0.170824 0.249375
O O10 0.106915 0.273734 0.940124
O O11 0.628541 0.837003 0.969976
O O12 0.641155 0.665651 0.044873
#
# Coordination Sequence:
#
# PCOD9579970 Si02
#       6
#     6   6   6   6   6   6
#     4  10  21  44  77 111 156 206 268 340 411 505
#     4  11  25  49  75 115 167 217 274 346 419 512
#     4  11  26  47  74 120 161 221 272 341 419 507
#     4  11  22  42  75 109 149 209 270 336 413 492
#     4  11  21  45  70 112 150 205 273 327 413 486
#     4  10  23  41  73 107 157 206 263 334 409 490
#
# _framework density 27.556365
#
# number of rings (size 3 to 8) (size 9 to 14) (size 15 to 20)
#    0.000    1.333    5.000    1.000    4.667    4.000 
#    6.000    1.667    0.000    0.000    0.000    0.000 
#    0.000    0.000    0.000    0.000    0.000    0.000 
#
# Total GULP energy -201887.121583 kJ/mol
# GULP energy per Si atom -5607.975600 kJ/mol
# Density = 2.749365 g / cm^3
# Si number density = 27.556365 Si / 1000 Ang^3
#
#
#
# Elastic Constant Matrix: (Units=GPa)
#
#
# Indices 1 2 3 4 5 6 
#
# 1 196.6646 54.2547 34.5245 0.0000 0.0000 0.0000
# 2 54.2547 196.6646 34.5245 0.0000 0.0000 0.0000
# 3 34.5245 34.5245 141.7922 0.0000 0.0000 0.0000
# 4 0.0000 0.0000 0.0000 25.8347 0.0000 0.0000
# 5 0.0000 0.0000 0.0000 0.0000 25.8347 0.0000
# 6 0.0000 0.0000 0.0000 0.0000 0.0000 71.2049
#
#
#
# Elastic Compliance Matrix: (Units=1/GPa)
#
#
# Indices 1 2 3 4 5 6 
#
# 1 0.005647 -0.001375 -0.001040 0.000000 0.000000 0.000000
# 2 -0.001375 0.005647 -0.001040 0.000000 0.000000 0.000000
# 3 -0.001040 -0.001040 0.007559 0.000000 0.000000 0.000000
# 4 0.000000 0.000000 0.000000 0.038708 0.000000 0.000000
# 5 0.000000 0.000000 0.000000 0.000000 0.038708 0.000000
# 6 0.000000 0.000000 0.000000 0.000000 0.000000 0.014044
#
#
# Mechanical properties :
#
#
# Convention : Reuss Voigt Hill
#
# Bulk Modulus (GPa) = 83.73877 86.85877 85.29877
# Shear Modulus (GPa) = 41.25300 52.02935 46.64118
#
# Velocity S-wave (km/s) = 3.87336 4.34995 4.11855
# Velocity P-wave (km/s) = 7.10338 7.53779 7.32381
#
# Compressibility (1/GPa) = 0.01194190
#
# Stress axis : x y z
#
# Youngs Moduli (GPa) = 177.09235 177.09235 132.29163
#
# Poissons Ratio (x) = 0.24354 0.13759
# Poissons Ratio (y) = 0.24354 0.13759
# Poissons Ratio (z) = 0.18419 0.18419
#
# Static dielectric constant tensor:
#      x y z
#    x 2.123790 0.000000 0.000000 
#    y 0.000000 2.123790 0.000000 
#    z 0.000000 0.000000 2.269350 
# 
# From -- ./inp_files/886.got.cif
#   From: 2010.05.17/outbox.cif.g08.bks.cpg/sg169_cif.got.tgz:886.got - 2010.05.20 11:12:54.
