data_PCOD9579243
_publ_section_title
;
Structure prediction by ZEFSAII (Michael W. Deem and Ramdas Pophale) SiO2 
 PCOD9579243
Probable space group: R -3 M
;
_chemical_formula_sum "Si O2"
_cell_formula_units_Z 108
_cell_length_a 14.697268
_cell_length_b 14.697268
_cell_length_c 26.157662
_cell_angle_alpha 90.000000
_cell_angle_beta 90.000000
_cell_angle_gamma 120.000000
_cell_volume 4893.310590
_symmetry_space_group_name_H-M "R -3 M"
_symmetry_group_IT_number 166
_symmetry_cell_setting 'hexagonal'
loop_
_space_group_symop_operation_xyz
x,y,z
-y,x-y,z
-x+y,-x,z
x-y,-y,-z
-x,-x+y,-z
y,x,-z
-x,-y,-z
y,-x+y,-z
x-y,x,-z
-x+y,y,z
x,x-y,z
-y,-x,z
2/3+x,1/3+y,1/3+z
2/3-y,1/3+x-y,1/3+z
2/3-x+y,1/3-x,1/3+z
2/3+x-y,1/3-y,1/3-z
2/3-x,1/3-x+y,1/3-z
2/3+y,1/3+x,1/3-z
2/3-x,1/3-y,1/3-z
2/3+y,1/3-x+y,1/3-z
2/3+x-y,1/3+x,1/3-z
2/3-x+y,1/3+y,1/3+z
2/3+x,1/3+x-y,1/3+z
2/3-y,1/3-x,1/3+z
1/3+x,2/3+y,2/3+z
1/3-y,2/3+x-y,2/3+z
1/3-x+y,2/3-x,2/3+z
1/3+x-y,2/3-y,2/3-z
1/3-x,2/3-x+y,2/3-z
1/3+y,2/3+x,2/3-z
1/3-x,2/3-y,2/3-z
1/3+y,2/3-x+y,2/3-z
1/3+x-y,2/3+x,2/3-z
1/3-x+y,2/3+y,2/3+z
1/3+x,2/3+x-y,2/3+z
1/3-y,2/3-x,2/3+z
loop_
_atom_site_type_symbol
_atom_site_label
_atom_site_fract_x
_atom_site_fract_y
_atom_site_fract_z
Si Si1 0.933484 0.066517 0.252905
Si Si2 0.225109 0.774892 0.806955
Si Si3 0.790032 0.209969 0.982820
Si Si4 0.877628 0.122373 0.624213
Si Si5 0.578495 0.789248 0.176296
Si Si6 0.879961 0.759922 0.906336
O O1 0.925057 0.074944 0.192852
O O2 0.882891 0.117110 0.288863
O O3 0.056688 0.113376 0.266133
O O4 0.166667 0.833334 0.833334
O O5 0.329326 0.843571 0.773064
O O6 0.670096 0.154835 0.963425
O O7 0.848572 0.151429 0.960046
O O8 0.833334 0.166667 0.666667
O O9 0.855496 0.144504 0.566860
O O10 0.508777 0.666667 0.166667
O O11 0.669857 0.834929 0.135930
#
# Coordination Sequence:
#
# PCOD9579243 Si02
#       6
#    18  18  18  18  18  18
#     4  10  20  44  77 109 145 193 248 306 384 443
#     4  12  27  46  78 107 148 205 264 314 364 451
#     4  12  25  45  72 113 157 193 236 311 396 459
#     4  12  26  43  71 108 154 193 235 303 381 463
#     4  12  23  42  70 108 153 189 227 287 382 474
#     4  12  26  48  71 109 147 196 265 307 374 441
#
# _framework density 22.070948000000001
#
# number of rings (size 3 to 8) (size 9 to 14) (size 15 to 20)
#    0.333    0.000    6.667    1.833    4.667    0.000 
#    0.000    0.000    0.000    0.000    0.000    3.500 
#    0.000    0.000    0.000    0.000    0.000    0.000 
#
# Total GULP energy -201243.089904 kJ/mol
# GULP energy per Si atom -5590.085831 kJ/mol
# Density = 2.202071 g / cm^3
# Si number density = 22.070948 Si / 1000 Ang^3
#
#
#
# Elastic Constant Matrix: (Units=GPa)
#
#
# Indices 1 2 3 4 5 6 
#
# 1 131.5149 84.7947 27.4173 15.5253 0.0002 0.0000
# 2 84.7947 131.5149 27.4173 -15.5253 -0.0002 0.0000
# 3 27.4173 27.4173 126.7554 0.0000 0.0000 0.0000
# 4 15.5253 -15.5253 0.0000 25.7177 0.0000 -0.0002
# 5 0.0002 -0.0002 0.0000 0.0000 25.7177 15.5253
# 6 0.0000 0.0000 0.0000 -0.0002 15.5253 23.3601
#
#
#
# Elastic Compliance Matrix: (Units=1/GPa)
#
#
# Indices 1 2 3 4 5 6 
#
# 1 0.020318 -0.015427 -0.001058 -0.021579 0.000000 0.000000
# 2 -0.015427 0.020318 -0.001058 0.021579 0.000000 0.000000
# 3 -0.001058 -0.001058 0.008347 0.000000 0.000000 0.000000
# 4 -0.021579 0.021579 0.000000 0.064937 0.000000 0.000000
# 5 0.000000 0.000000 0.000000 0.000000 0.064937 -0.043158
# 6 0.000000 0.000000 0.000000 0.000000 -0.043158 0.071491
#
#
# Mechanical properties :
#
#
# Convention : Reuss Voigt Hill
#
# Bulk Modulus (GPa) = 71.95586 74.33819 73.14703
# Shear Modulus (GPa) = 17.23737 31.63616 24.43677
#
# Velocity S-wave (km/s) = 2.79767 3.79011 3.33106
# Velocity P-wave (km/s) = 6.56573 7.27378 6.92880
#
# Compressibility (1/GPa) = 0.01389741
#
# Stress axis : x y z
#
# Youngs Moduli (GPa) = 49.21667 49.21667 119.80515
#
# Poissons Ratio (x) = 0.75927 0.12675
# Poissons Ratio (y) = 0.75927 0.12675
# Poissons Ratio (z) = 0.05207 0.05207
#
# Static dielectric constant tensor:
#      x y z
#    x 1.885930 0.000000 0.000000 
#    y 0.000000 1.885930 0.000000 
#    z 0.000000 0.000000 1.810910 
# 
# From -- ./inp_files/10194.got.cif
#   From: 2010.05.17/outbox.cif.g08.bks.cpg/sg166_6_cif.got.tgz:10194.got - 2010.05.20 11:04:41.
