data_PCOD9579212
_publ_section_title
;
Structure prediction by ZEFSAII (Michael W. Deem and Ramdas Pophale) SiO2 
 PCOD9579212
Probable space group: R -3 M
;
_chemical_formula_sum "Si O2"
_cell_formula_units_Z 234
_cell_length_a 26.838332
_cell_length_b 26.838332
_cell_length_c 23.058489
_cell_angle_alpha 90.000000
_cell_angle_beta 90.000000
_cell_angle_gamma 120.000000
_cell_volume 14383.763001
_symmetry_space_group_name_H-M "R -3 M"
_symmetry_group_IT_number 166
_symmetry_cell_setting 'hexagonal'
loop_
_space_group_symop_operation_xyz
x,y,z
-y,x-y,z
-x+y,-x,z
x-y,-y,-z
-x,-x+y,-z
y,x,-z
-x,-y,-z
y,-x+y,-z
x-y,x,-z
-x+y,y,z
x,x-y,z
-y,-x,z
2/3+x,1/3+y,1/3+z
2/3-y,1/3+x-y,1/3+z
2/3-x+y,1/3-x,1/3+z
2/3+x-y,1/3-y,1/3-z
2/3-x,1/3-x+y,1/3-z
2/3+y,1/3+x,1/3-z
2/3-x,1/3-y,1/3-z
2/3+y,1/3-x+y,1/3-z
2/3+x-y,1/3+x,1/3-z
2/3-x+y,1/3+y,1/3+z
2/3+x,1/3+x-y,1/3+z
2/3-y,1/3-x,1/3+z
1/3+x,2/3+y,2/3+z
1/3-y,2/3+x-y,2/3+z
1/3-x+y,2/3-x,2/3+z
1/3+x-y,2/3-y,2/3-z
1/3-x,2/3-x+y,2/3-z
1/3+y,2/3+x,2/3-z
1/3-x,2/3-y,2/3-z
1/3+y,2/3-x+y,2/3-z
1/3+x-y,2/3+x,2/3-z
1/3-x+y,2/3+y,2/3+z
1/3+x,2/3+x-y,2/3+z
1/3-y,2/3-x,2/3+z
loop_
_atom_site_type_symbol
_atom_site_label
_atom_site_fract_x
_atom_site_fract_y
_atom_site_fract_z
Si Si1 0.540707 0.459294 0.075677
Si Si2 0.815928 0.631856 0.803930
Si Si3 0.137397 0.568699 0.049336
Si Si4 0.393296 0.140788 0.202536
Si Si5 0.982227 0.673693 0.066625
Si Si6 0.877659 0.330021 0.096865
Si Si7 0.438148 0.059312 0.786997
Si Si8 0.033454 0.183109 0.641125
O O1 0.507002 0.492999 0.088770
O O2 0.604379 0.496898 0.101818
O O3 0.548219 0.451782 0.007622
O O4 0.785034 0.570068 0.772234
O O5 0.771566 0.637742 0.845416
O O6 0.173531 0.535803 0.044313
O O7 0.404894 0.202447 0.224644
O O8 0.333334 0.112979 0.166667
O O9 0.380177 0.091782 0.249732
O O10 0.440295 0.146490 0.155672
O O11 0.935527 0.607771 0.081595
O O12 0.040105 0.692639 0.102423
O O13 0.000000 0.680112 0.000000
O O14 0.835966 0.303619 0.041326
O O15 0.436105 0.102772 0.833334
O O16 0.475134 0.095417 0.731992
O O17 0.085028 0.170056 0.633439
#
# Coordination Sequence:
#
# PCOD9579212 Si02
#       8
#    18  18  18  36  36  36  36  36
#     4  10  21  32  52  80 104 136 172 217 276 315
#     4  12  21  34  52  75 106 140 177 214 265 318
#     4  10  23  38  54  75 106 137 174 231 265 325
#     4   9  18  34  55  76 101 141 180 211 251 311
#     4  11  21  35  51  77 111 141 175 214 258 309
#     4  10  20  36  55  75 108 137 174 219 263 316
#     4  12  22  34  52  74 107 143 178 217 260 319
#     4  11  22  38  56  78 101 137 182 222 274 320
#
# _framework density 16.268343999999999
#
# number of rings (size 3 to 8) (size 9 to 14) (size 15 to 20)
#    0.000    1.385    3.846    3.923    0.000    0.615 
#    1.846    0.000    0.000    0.000    0.000    1.615 
#    0.000    0.000    0.000    0.692    0.000    0.000 
#
# Total GULP energy -435314.389371 kJ/mol
# GULP energy per Si atom -5580.953710 kJ/mol
# Density = 1.623132 g / cm^3
# Si number density = 16.268344 Si / 1000 Ang^3
#
#
#
# Elastic Constant Matrix: (Units=GPa)
#
#
# Indices 1 2 3 4 5 6 
#
# 1 88.6506 53.3724 30.2992 -1.6980 0.0000 0.0000
# 2 53.3724 88.6506 30.2992 1.6980 0.0000 0.0000
# 3 30.2992 30.2992 40.6934 0.0000 0.0000 0.0000
# 4 -1.6980 1.6980 0.0000 21.7509 0.0000 0.0000
# 5 0.0000 0.0000 0.0000 0.0000 21.7509 -1.6980
# 6 0.0000 0.0000 0.0000 0.0000 -1.6980 17.6391
#
#
#
# Elastic Compliance Matrix: (Units=1/GPa)
#
#
# Indices 1 2 3 4 5 6 
#
# 1 0.019440 -0.009121 -0.007684 0.002230 0.000000 0.000000
# 2 -0.009121 0.019440 -0.007684 -0.002230 0.000000 0.000000
# 3 -0.007684 -0.007684 0.036016 0.000000 0.000000 0.000000
# 4 0.002230 -0.002230 0.000000 0.046323 0.000000 0.000000
# 5 0.000000 0.000000 0.000000 0.000000 0.046323 0.004459
# 6 0.000000 0.000000 0.000000 0.000000 0.004459 0.057122
#
#
# Mechanical properties :
#
#
# Convention : Reuss Voigt Hill
#
# Bulk Modulus (GPa) = 38.57936 49.54846 44.06391
# Shear Modulus (GPa) = 17.71288 19.16311 18.43800
#
# Velocity S-wave (km/s) = 3.30327 3.43583 3.37020
# Velocity P-wave (km/s) = 6.18988 6.80169 6.50299
#
# Compressibility (1/GPa) = 0.02592059
#
# Stress axis : x y z
#
# Youngs Moduli (GPa) = 51.43985 51.43985 27.76530
#
# Poissons Ratio (x) = 0.46916 0.21334
# Poissons Ratio (y) = 0.46916 0.21334
# Poissons Ratio (z) = 0.39525 0.39525
#
# Static dielectric constant tensor:
#      x y z
#    x 1.553110 0.000000 0.000000 
#    y 0.000000 1.553110 0.000000 
#    z 0.000000 0.000000 1.555650 
# 
# From -- ./inp_files/7276.got.cif
#   From: 2010.05.17/outbox.cif.g08.bks.cpg/sg166_4_cif.got.tgz:7276.got - 2010.05.20 11:04:41.
