data_PCOD9579764
_publ_section_title
;
Structure prediction by ZEFSAII (Michael W. Deem and Ramdas Pophale) SiO2 
 PCOD9579764
Probable space group: P 6
;
_chemical_formula_sum "Si O2"
_cell_formula_units_Z 30
_cell_length_a 15.932103
_cell_length_b 15.932103
_cell_length_c 5.573265
_cell_angle_alpha 90.000000
_cell_angle_beta 90.000000
_cell_angle_gamma 120.000000
_cell_volume 1225.142304
_symmetry_space_group_name_H-M "P 6"
_symmetry_group_IT_number 168
_symmetry_cell_setting 'hexagonal'
loop_
_space_group_symop_operation_xyz
x,y,z
x-y,x,z
-y,x-y,z
-x,-y,z
-x+y,-x,z
y,-x+y,z
loop_
_atom_site_type_symbol
_atom_site_label
_atom_site_fract_x
_atom_site_fract_y
_atom_site_fract_z
Si Si1 0.513825 0.608352 0.955740
Si Si2 0.249066 0.946203 0.685847
Si Si3 0.560032 0.118875 0.450483
Si Si4 0.950052 0.157170 0.070641
Si Si5 0.624168 0.872646 0.385871
O O1 0.500000 0.500000 0.972223
O O2 0.623094 0.688781 0.896423
O O3 0.455756 0.605767 0.714940
O O4 0.483629 0.627156 0.215844
O O5 0.187602 0.843797 0.556073
O O6 0.323355 0.019440 0.495533
O O7 0.198278 0.002742 0.804201
O O8 0.487009 0.158119 0.392807
O O9 0.500000 0.000000 0.465552
O O10 0.892891 0.214190 0.132137
O O11 0.052385 0.178825 0.176764
#
# Coordination Sequence:
#
# PCOD9579764 Si02
#       5
#     6   6   6   6   6
#     4  10  20  38  66  94 130 165 221 282 357 415
#     4  12  24  41  65 100 137 185 241 307 356 437
#     4  10  20  38  66  94 130 165 221 282 357 415
#     4  12  25  40  61  88 138 194 254 306 363 420
#     4  12  24  41  65 100 137 185 241 307 356 437
#
# _framework density 24.486951000000001
#
# number of rings (size 3 to 8) (size 9 to 14) (size 15 to 20)
#    0.000    0.800    8.000    2.600    0.000    0.000 
#    0.000    0.000    0.000    0.800    0.000    2.800 
#    0.000    0.000    0.000    0.000    0.000    0.000 
#
# Total GULP energy -167207.285343 kJ/mol
# GULP energy per Si atom -5573.576178 kJ/mol
# Density = 2.443122 g / cm^3
# Si number density = 24.486951 Si / 1000 Ang^3
#
#
#
# Elastic Constant Matrix: (Units=GPa)
#
#
# Indices 1 2 3 4 5 6 
#
# 1 50.9383 26.3600 4.5360 0.0000 0.0000 0.0000
# 2 26.3600 50.9383 4.5360 0.0000 0.0000 0.0000
# 3 4.5360 4.5360 99.8535 0.0000 0.0000 0.0000
# 4 0.0000 0.0000 0.0000 4.9784 0.0000 0.0000
# 5 0.0000 0.0000 0.0000 0.0000 4.9784 0.0000
# 6 0.0000 0.0000 0.0000 0.0000 0.0000 12.2891
#
#
#
# Elastic Compliance Matrix: (Units=1/GPa)
#
#
# Indices 1 2 3 4 5 6 
#
# 1 0.026846 -0.013840 -0.000591 0.000000 0.000000 0.000000
# 2 -0.013840 0.026846 -0.000591 0.000000 0.000000 0.000000
# 3 -0.000591 -0.000591 0.010068 0.000000 0.000000 0.000000
# 4 0.000000 0.000000 0.000000 0.200869 0.000000 0.000000
# 5 0.000000 0.000000 0.000000 0.000000 0.200869 0.000000
# 6 0.000000 0.000000 0.000000 0.000000 0.000000 0.081373
#
#
# Mechanical properties :
#
#
# Convention : Reuss Voigt Hill
#
# Bulk Modulus (GPa) = 29.65817 30.28822 29.97319
# Shear Modulus (GPa) = 8.50116 15.53571 12.01843
#
# Velocity S-wave (km/s) = 1.86527 2.52156 2.21783
# Velocity P-wave (km/s) = 4.09599 4.56877 4.33882
#
# Compressibility (1/GPa) = 0.03371753
#
# Stress axis : x y z
#
# Youngs Moduli (GPa) = 37.24904 37.24904 99.32114
#
# Poissons Ratio (x) = 0.51553 0.05868
# Poissons Ratio (y) = 0.51553 0.05868
# Poissons Ratio (z) = 0.02201 0.02201
#
# Static dielectric constant tensor:
#      x y z
#    x 2.176680 0.000000 0.000000 
#    y 0.000000 2.176680 0.000000 
#    z 0.000000 0.000000 2.063490 
# 
# From -- ./inp_files/103.got.cif
#   From: 2010.05.17/outbox.cif.g08.bks.cpg/sg168_cif.got.tgz:103.got - 2010.05.20 11:12:33.
