data_PCOD9579920
_publ_section_title
;
Structure prediction by ZEFSAII (Michael W. Deem and Ramdas Pophale) SiO2 
 PCOD9579920
Probable space group: P 61
;
_chemical_formula_sum "Si O2"
_cell_formula_units_Z 18
_cell_length_a 11.224077
_cell_length_b 11.224077
_cell_length_c 6.435780
_cell_angle_alpha 90.000000
_cell_angle_beta 90.000000
_cell_angle_gamma 120.000000
_cell_volume 702.155167
_symmetry_space_group_name_H-M "P 61"
_symmetry_group_IT_number 169
_symmetry_cell_setting 'hexagonal'
loop_
_space_group_symop_operation_xyz
x,y,z
x-y,x,1/6+z
-y,x-y,1/3+z
-x,-y,1/2+z
-x+y,-x,2/3+z
y,-x+y,5/6+z
loop_
_atom_site_type_symbol
_atom_site_label
_atom_site_fract_x
_atom_site_fract_y
_atom_site_fract_z
Si Si1 0.145900 0.466346 0.076890
Si Si2 0.562073 0.142588 0.651742
Si Si3 0.911170 0.707508 0.966567
O O1 0.195991 0.585702 0.251303
O O2 0.078686 0.329236 0.222585
O O3 0.018286 0.462798 0.961782
O O4 0.282694 0.499565 0.954822
O O5 0.696193 0.137522 0.732421
O O6 0.808353 0.765642 0.935939
#
# Coordination Sequence:
#
# PCOD9579920 Si02
#       3
#     6   6   6
#     4  10  20  46  78 130 170 215 287 363 446 531
#     4  10  22  46  81 131 169 223 284 370 446 533
#     4  10  22  48  87 123 169 224 293 353 446 528
#
# _framework density 25.635359999999999
#
# number of rings (size 3 to 8) (size 9 to 14) (size 15 to 20)
#    2.000    0.000    3.333    0.000    0.000    0.000 
#   18.000    0.000   14.667    0.000    0.000    0.000 
#    0.000    0.000    0.000    0.000    0.000    0.000 
#
# Total GULP energy -100450.176811 kJ/mol
# GULP energy per Si atom -5580.565378 kJ/mol
# Density = 2.557701 g / cm^3
# Si number density = 25.635360 Si / 1000 Ang^3
#
#
#
# Elastic Constant Matrix: (Units=GPa)
#
#
# Indices 1 2 3 4 5 6 
#
# 1 180.3301 121.3345 70.8331 0.0000 0.0000 0.0000
# 2 121.3345 180.3301 70.8331 0.0000 0.0000 0.0000
# 3 70.8331 70.8331 122.5154 0.0000 0.0000 0.0000
# 4 0.0000 0.0000 0.0000 42.0033 0.0000 0.0000
# 5 0.0000 0.0000 0.0000 0.0000 42.0033 0.0000
# 6 0.0000 0.0000 0.0000 0.0000 0.0000 29.4978
#
#
#
# Elastic Compliance Matrix: (Units=1/GPa)
#
#
# Indices 1 2 3 4 5 6 
#
# 1 0.010750 -0.006200 -0.002631 0.000000 0.000000 0.000000
# 2 -0.006200 0.010750 -0.002631 0.000000 0.000000 0.000000
# 3 -0.002631 -0.002631 0.011204 0.000000 0.000000 0.000000
# 4 0.000000 0.000000 0.000000 0.023808 0.000000 0.000000
# 5 0.000000 0.000000 0.000000 0.000000 0.023808 0.000000
# 6 0.000000 0.000000 0.000000 0.000000 0.000000 0.033901
#
#
# Mechanical properties :
#
#
# Convention : Reuss Voigt Hill
#
# Bulk Modulus (GPa) = 102.23115 112.13078 107.18097
# Shear Modulus (GPa) = 35.61118 37.37921 36.49520
#
# Velocity S-wave (km/s) = 3.73116 3.82267 3.77719
# Velocity P-wave (km/s) = 7.65034 7.95734 7.80535
#
# Compressibility (1/GPa) = 0.00978175
#
# Stress axis : x y z
#
# Youngs Moduli (GPa) = 93.01955 93.01955 89.25117
#
# Poissons Ratio (x) = 0.57672 0.23481
# Poissons Ratio (y) = 0.57672 0.23481
# Poissons Ratio (z) = 0.24472 0.24472
#
# Static dielectric constant tensor:
#      x y z
#    x 2.052130 0.000000 0.000000 
#    y 0.000000 2.052130 0.000000 
#    z 0.000000 0.000000 2.115700 
# 
# From -- ./inp_files/443.got.cif
#   From: 2010.05.17/outbox.cif.g08.bks.cpg/sg169_cif.got.tgz:443.got - 2010.05.20 11:12:54.
