data_PCOD9579404
_publ_section_title
;
Structure prediction by ZEFSAII (Michael W. Deem and Ramdas Pophale) SiO2 
 PCOD9579404
Probable space group: R -3 C 
;
_chemical_formula_sum "Si O2"
_cell_formula_units_Z 252
_cell_length_a 28.306525
_cell_length_b 28.306525
_cell_length_c 17.028974
_cell_angle_alpha 90.000000
_cell_angle_beta 90.000000
_cell_angle_gamma 120.000000
_cell_volume 11816.591674
_symmetry_space_group_name_H-M "R -3 C "
_symmetry_group_IT_number 167
_symmetry_cell_setting 'hexagonal'
loop_
_space_group_symop_operation_xyz
x,y,z
-y,x-y,z
-x+y,-x,z
x-y,-y,1/2-z
-x,-x+y,1/2-z
y,x,1/2-z
-x,-y,-z
y,-x+y,-z
x-y,x,-z
-x+y,y,1/2+z
x,x-y,1/2+z
-y,-x,1/2+z
2/3+x,1/3+y,1/3+z
2/3-y,1/3+x-y,1/3+z
2/3-x+y,1/3-x,1/3+z
2/3+x-y,1/3-y,5/6-z
2/3-x,1/3-x+y,5/6-z
2/3+y,1/3+x,5/6-z
2/3-x,1/3-y,1/3-z
2/3+y,1/3-x+y,1/3-z
2/3+x-y,1/3+x,1/3-z
2/3-x+y,1/3+y,5/6+z
2/3+x,1/3+x-y,5/6+z
2/3-y,1/3-x,5/6+z
1/3+x,2/3+y,2/3+z
1/3-y,2/3+x-y,2/3+z
1/3-x+y,2/3-x,2/3+z
1/3+x-y,2/3-y,1/6-z
1/3-x,2/3-x+y,1/6-z
1/3+y,2/3+x,1/6-z
1/3-x,2/3-y,2/3-z
1/3+y,2/3-x+y,2/3-z
1/3+x-y,2/3+x,2/3-z
1/3-x+y,2/3+y,1/6+z
1/3+x,2/3+x-y,1/6+z
1/3-y,2/3-x,1/6+z
loop_
_atom_site_type_symbol
_atom_site_label
_atom_site_fract_x
_atom_site_fract_y
_atom_site_fract_z
Si Si1 0.333334 0.505673 0.916667
Si Si2 0.256074 0.196109 0.792831
Si Si3 0.124977 0.561166 0.002785
Si Si4 0.858578 0.301039 0.922743
Si Si5 0.986989 0.603071 0.910855
Si Si6 0.558875 0.000000 0.750000
Si Si7 0.190974 0.187240 0.572390
Si Si8 0.705369 0.924425 0.402351
O O1 0.383707 0.553957 0.961378
O O2 0.358895 0.488884 0.844498
O O3 0.233980 0.233980 0.750000
O O4 0.241969 0.147272 0.733197
O O5 0.221361 0.172189 0.872903
O O6 0.322044 0.229129 0.796728
O O7 0.152844 0.533493 0.050633
O O8 0.081396 0.569539 0.054707
O O9 0.843540 0.238847 0.905553
O O10 0.838122 0.325185 0.852637
O O11 0.923429 0.344978 0.913065
O O12 0.008429 0.590977 0.831159
O O13 0.922754 0.562714 0.910936
O O14 0.005924 0.666667 0.916667
O O15 0.011547 0.587723 0.984911
#
# Coordination Sequence:
#
# PCOD9579404 Si02
#       8
#    18  36  36  36  36  18  36  36
#     4  10  22  44  62  76 104 159 202 251 306 386
#     4  10  20  34  54  80 114 157 190 244 310 354
#     4  10  21  39  57  81 113 153 207 252 308 357
#     4  10  21  34  54  79 112 148 202 249 294 349
#     4  11  20  29  50  75 108 155 205 247 291 342
#     4  10  18  26  44  72 100 141 194 243 282 320
#     4  10  23  36  56  84 119 152 195 262 311 350
#     4  11  20  33  55  78 113 162 204 250 288 355
#
# _framework density 21.325946999999999
#
# number of rings (size 3 to 8) (size 9 to 14) (size 15 to 20)
#    0.000    1.714    4.286    2.143    6.000    0.000 
#    5.143    0.000    0.000    0.000    0.000    0.000 
#   19.286    0.000    0.000   46.286    0.000    0.000 
#
# Total GULP energy -467774.372962 kJ/mol
# GULP energy per Si atom -5568.742535 kJ/mol
# Density = 2.127741 g / cm^3
# Si number density = 21.325947 Si / 1000 Ang^3
#
#
#
# Elastic Constant Matrix: (Units=GPa)
#
#
# Indices 1 2 3 4 5 6 
#
# 1 54.2107 21.1764 17.4968 6.7850 0.0000 0.0000
# 2 21.1764 54.2107 17.4968 -6.7850 0.0000 0.0000
# 3 17.4968 17.4968 127.6802 0.0000 0.0000 0.0000
# 4 6.7850 -6.7850 0.0000 24.6617 0.0000 0.0000
# 5 0.0000 0.0000 0.0000 0.0000 24.6617 6.7850
# 6 0.0000 0.0000 0.0000 0.0000 6.7850 16.5172
#
#
#
# Elastic Compliance Matrix: (Units=1/GPa)
#
#
# Indices 1 2 3 4 5 6 
#
# 1 0.024147 -0.009981 -0.001941 -0.009389 0.000000 0.000000
# 2 -0.009981 0.024147 -0.001941 0.009389 0.000000 0.000000
# 3 -0.001941 -0.001941 0.008364 0.000000 0.000000 0.000000
# 4 -0.009389 0.009389 0.000000 0.045715 0.000000 0.000000
# 5 0.000000 0.000000 0.000000 0.000000 0.045715 -0.018779
# 6 0.000000 0.000000 0.000000 0.000000 -0.018779 0.068257
#
#
# Mechanical properties :
#
#
# Convention : Reuss Voigt Hill
#
# Bulk Modulus (GPa) = 34.56492 38.71571 36.64032
# Shear Modulus (GPa) = 19.70697 25.16357 22.43527
#
# Velocity S-wave (km/s) = 3.04317 3.43877 3.24700
# Velocity P-wave (km/s) = 5.34705 5.82757 5.59247
#
# Compressibility (1/GPa) = 0.02893107
#
# Stress axis : x y z
#
# Youngs Moduli (GPa) = 41.41256 41.41256 119.55844
#
# Poissons Ratio (x) = 0.41335 0.23209
# Poissons Ratio (y) = 0.41335 0.23209
# Poissons Ratio (z) = 0.08039 0.08039
#
# Static dielectric constant tensor:
#      x y z
#    x 1.854510 0.000000 0.000000 
#    y 0.000000 1.854510 0.000000 
#    z 0.000000 0.000000 1.915060 
# 
# From -- ./inp_files/3737.got.cif
#   From: 2010.05.17/outbox.cif.g08.bks.cpg/sg167_2_cif.got.tgz:3737.got - 2010.05.20 11:09:15.
