data_PCOD9579866
_publ_section_title
;
Structure prediction by ZEFSAII (Michael W. Deem and Ramdas Pophale) SiO2 
 PCOD9579866
Probable space group: P 61
;
_chemical_formula_sum "Si O2"
_cell_formula_units_Z 48
_cell_length_a 21.407810
_cell_length_b 21.407810
_cell_length_c 7.648048
_cell_angle_alpha 90.000000
_cell_angle_beta 90.000000
_cell_angle_gamma 120.000000
_cell_volume 3035.468426
_symmetry_space_group_name_H-M "P 61"
_symmetry_group_IT_number 169
_symmetry_cell_setting 'hexagonal'
loop_
_space_group_symop_operation_xyz
x,y,z
x-y,x,1/6+z
-y,x-y,1/3+z
-x,-y,1/2+z
-x+y,-x,2/3+z
y,-x+y,5/6+z
loop_
_atom_site_type_symbol
_atom_site_label
_atom_site_fract_x
_atom_site_fract_y
_atom_site_fract_z
Si Si1 0.360849 0.840573 0.215100
Si Si2 0.086406 0.430703 0.201177
Si Si3 0.390739 0.492220 0.711102
Si Si4 0.322967 0.712330 0.659180
Si Si5 0.775945 0.231498 0.275643
Si Si6 0.937508 0.489389 0.373709
Si Si7 0.696567 0.473165 0.972358
Si Si8 0.928322 0.344633 0.238270
O O1 0.430565 0.841565 0.131055
O O2 0.390586 0.887568 0.391868
O O3 0.292247 0.761342 0.237859
O O4 0.347094 0.881940 0.057019
O O5 0.145916 0.416752 0.111773
O O6 0.009713 0.362765 0.247305
O O7 0.076275 0.483077 0.060207
O O8 0.459085 0.482228 0.663904
O O9 0.333637 0.480491 0.563806
O O10 0.357323 0.438679 0.870088
O O11 0.348446 0.700013 0.470343
O O12 0.263910 0.737588 0.651067
O O13 0.396917 0.770635 0.755599
O O14 0.768832 0.263550 0.458736
O O15 0.861162 0.266167 0.265851
O O16 0.922679 0.407310 0.350169
#
# Coordination Sequence:
#
# PCOD9579866 Si02
#       8
#     6   6   6   6   6   6   6   6
#     4  10  21  34  48  69  89 123 153 199 255 287
#     4  10  21  37  49  68  96 114 160 206 231 297
#     4  10  20  34  49  69  90 118 165 196 242 303
#     4  10  22  31  43  62  88 117 146 192 245 281
#     4  10  23  33  49  71  87 125 155 195 256 282
#     4  10  22  33  54  68  90 128 154 206 248 280
#     4  10  21  33  47  66  95 118 151 205 246 289
#     4  10  22  33  51  71  85 125 160 189 247 297
#
# _framework density 15.813046
#
# number of rings (size 3 to 8) (size 9 to 14) (size 15 to 20)
#    0.000    2.000    1.250    2.250   14.000    0.000 
#    0.000    0.000    0.000    0.000    0.000    0.000 
#    0.000    0.000    0.000    0.000    0.000   10.000 
#
# Total GULP energy -267384.213766 kJ/mol
# GULP energy per Si atom -5570.504453 kJ/mol
# Density = 1.577705 g / cm^3
# Si number density = 15.813046 Si / 1000 Ang^3
#
#
#
# Elastic Constant Matrix: (Units=GPa)
#
#
# Indices 1 2 3 4 5 6 
#
# 1 81.4162 35.4549 9.3291 0.0000 0.0000 0.0000
# 2 35.4549 81.4162 9.3291 0.0000 0.0000 0.0000
# 3 9.3291 9.3291 57.2717 0.0000 0.0000 0.0000
# 4 0.0000 0.0000 0.0000 17.0698 0.0000 0.0000
# 5 0.0000 0.0000 0.0000 0.0000 17.0698 0.0000
# 6 0.0000 0.0000 0.0000 0.0000 0.0000 22.9806
#
#
#
# Elastic Compliance Matrix: (Units=1/GPa)
#
#
# Indices 1 2 3 4 5 6 
#
# 1 0.015271 -0.006486 -0.001431 0.000000 0.000000 0.000000
# 2 -0.006486 0.015271 -0.001431 0.000000 0.000000 0.000000
# 3 -0.001431 -0.001431 0.017927 0.000000 0.000000 0.000000
# 4 0.000000 0.000000 0.000000 0.058583 0.000000 0.000000
# 5 0.000000 0.000000 0.000000 0.000000 0.058583 0.000000
# 6 0.000000 0.000000 0.000000 0.000000 0.000000 0.043515
#
#
# Mechanical properties :
#
#
# Convention : Reuss Voigt Hill
#
# Bulk Modulus (GPa) = 33.58786 36.48113 35.03449
# Shear Modulus (GPa) = 21.02867 22.49012 21.75939
#
# Velocity S-wave (km/s) = 3.65064 3.77537 3.71353
# Velocity P-wave (km/s) = 6.24950 6.49037 6.37107
#
# Compressibility (1/GPa) = 0.02977267
#
# Stress axis : x y z
#
# Youngs Moduli (GPa) = 65.48283 65.48283 55.78235
#
# Poissons Ratio (x) = 0.42474 0.07982
# Poissons Ratio (y) = 0.42474 0.07982
# Poissons Ratio (z) = 0.09370 0.09370
#
# Static dielectric constant tensor:
#      x y z
#    x 1.592410 0.000000 0.000000 
#    y 0.000000 1.592410 0.000000 
#    z 0.000000 0.000000 1.603670 
# 
# From -- ./inp_files/808.got.cif
#   From: 2010.05.17/outbox.cif.g08.bks.cpg/sg169_cif.got.tgz:808.got - 2010.05.20 11:12:54.
