data_PCOD9579456
_publ_section_title
;
Structure prediction by ZEFSAII (Michael W. Deem and Ramdas Pophale) SiO2 
 PCOD9579456
Probable space group: R -3 C 
;
_chemical_formula_sum "Si O2"
_cell_formula_units_Z 120
_cell_length_a 18.973187
_cell_length_b 18.973187
_cell_length_c 13.842287
_cell_angle_alpha 90.000000
_cell_angle_beta 90.000000
_cell_angle_gamma 120.000000
_cell_volume 4315.380109
_symmetry_space_group_name_H-M "R -3 C "
_symmetry_group_IT_number 167
_symmetry_cell_setting 'hexagonal'
loop_
_space_group_symop_operation_xyz
x,y,z
-y,x-y,z
-x+y,-x,z
x-y,-y,1/2-z
-x,-x+y,1/2-z
y,x,1/2-z
-x,-y,-z
y,-x+y,-z
x-y,x,-z
-x+y,y,1/2+z
x,x-y,1/2+z
-y,-x,1/2+z
2/3+x,1/3+y,1/3+z
2/3-y,1/3+x-y,1/3+z
2/3-x+y,1/3-x,1/3+z
2/3+x-y,1/3-y,5/6-z
2/3-x,1/3-x+y,5/6-z
2/3+y,1/3+x,5/6-z
2/3-x,1/3-y,1/3-z
2/3+y,1/3-x+y,1/3-z
2/3+x-y,1/3+x,1/3-z
2/3-x+y,1/3+y,5/6+z
2/3+x,1/3+x-y,5/6+z
2/3-y,1/3-x,5/6+z
1/3+x,2/3+y,2/3+z
1/3-y,2/3+x-y,2/3+z
1/3-x+y,2/3-x,2/3+z
1/3+x-y,2/3-y,1/6-z
1/3-x,2/3-x+y,1/6-z
1/3+y,2/3+x,1/6-z
1/3-x,2/3-y,2/3-z
1/3+y,2/3-x+y,2/3-z
1/3+x-y,2/3+x,2/3-z
1/3-x+y,2/3+y,1/6+z
1/3+x,2/3+x-y,1/6+z
1/3-y,2/3-x,1/6+z
loop_
_atom_site_type_symbol
_atom_site_label
_atom_site_fract_x
_atom_site_fract_y
_atom_site_fract_z
Si Si1 0.085479 0.584068 0.128462
Si Si2 0.333334 0.666667 0.547740
Si Si3 0.443753 0.851518 0.811211
Si Si4 0.917691 0.673304 0.217092
O O1 0.095462 0.579458 0.241640
O O2 0.164446 0.660656 0.084966
O O3 0.069024 0.496547 0.089050
O O4 0.016207 0.586955 0.064328
O O5 0.333335 0.666668 0.666667
O O6 0.298056 0.573463 0.510828
O O7 0.499923 0.913741 0.896010
O O8 0.000000 0.678854 0.250000
#
# Coordination Sequence:
#
# PCOD9579456 Si02
#       4
#    36  12  36  36
#     4  10  19  38  61  85 118 150 195 238 289 351
#     4  12  21  39  60  88 123 162 202 243 288 364
#     4  11  20  38  62  86 120 158 190 241 298 341
#     4   9  21  38  61  89 116 151 193 243 289 348
#
# _framework density 27.807517000000001
#
# number of rings (size 3 to 8) (size 9 to 14) (size 15 to 20)
#    0.000    1.800    3.000    0.900    0.000    0.000 
#    0.000   33.000    0.000   25.200    0.000    0.000 
#    0.000    0.000    0.000    0.000    0.000    0.000 
#
# Total GULP energy -223283.060697 kJ/mol
# GULP energy per Si atom -5582.076517 kJ/mol
# Density = 2.774423 g / cm^3
# Si number density = 27.807517 Si / 1000 Ang^3
#
#
#
# Elastic Constant Matrix: (Units=GPa)
#
#
# Indices 1 2 3 4 5 6 
#
# 1 135.7032 48.0247 46.0958 6.8936 0.0000 0.0000
# 2 48.0247 135.7026 46.0955 -6.8939 0.0000 0.0000
# 3 46.0958 46.0955 187.0980 0.0000 0.0000 0.0000
# 4 6.8936 -6.8939 0.0000 34.8022 0.0000 0.0000
# 5 0.0000 0.0000 0.0000 0.0000 34.8023 6.8936
# 6 0.0000 0.0000 0.0000 0.0000 6.8936 43.8391
#
#
#
# Elastic Compliance Matrix: (Units=1/GPa)
#
#
# Indices 1 2 3 4 5 6 
#
# 1 0.008991 -0.002781 -0.001530 -0.002332 0.000000 0.000000
# 2 -0.002781 0.008991 -0.001530 0.002332 0.000000 0.000000
# 3 -0.001530 -0.001530 0.006099 0.000000 0.000000 0.000000
# 4 -0.002332 0.002332 0.000000 0.029658 0.000000 0.000000
# 5 0.000000 0.000000 0.000000 0.000000 0.029657 -0.004664
# 6 0.000000 0.000000 0.000000 0.000000 -0.004664 0.023544
#
#
# Mechanical properties :
#
#
# Convention : Reuss Voigt Hill
#
# Bulk Modulus (GPa) = 80.64832 82.10399 81.37615
# Shear Modulus (GPa) = 40.73136 43.90792 42.31964
#
# Velocity S-wave (km/s) = 3.83137 3.97797 3.90536
# Velocity P-wave (km/s) = 6.97408 7.11961 7.04722
#
# Compressibility (1/GPa) = 0.01239951
#
# Stress axis : x y z
#
# Youngs Moduli (GPa) = 111.21855 111.21806 163.96800
#
# Poissons Ratio (x) = 0.30926 0.25089
# Poissons Ratio (y) = 0.30926 0.25089
# Poissons Ratio (z) = 0.17018 0.17018
#
# Static dielectric constant tensor:
#      x y z
#    x 2.204760 0.000000 0.000000 
#    y 0.000000 2.204760 0.000000 
#    z 0.000000 0.000000 2.139480 
# 
# From -- ./inp_files/2292.got.cif
#   From: 2010.05.17/outbox.cif.g08.bks.cpg/sg167_2_cif.got.tgz:2292.got - 2010.05.20 11:09:15.
