data_PCOD9579863
_publ_section_title
;
Structure prediction by ZEFSAII (Michael W. Deem and Ramdas Pophale) SiO2 
 PCOD9579863
Probable space group: P 61
;
_chemical_formula_sum "Si O2"
_cell_formula_units_Z 42
_cell_length_a 16.366668
_cell_length_b 16.366668
_cell_length_c 10.934451
_cell_angle_alpha 90.000000
_cell_angle_beta 90.000000
_cell_angle_gamma 120.000000
_cell_volume 2536.577641
_symmetry_space_group_name_H-M "P 61"
_symmetry_group_IT_number 169
_symmetry_cell_setting 'hexagonal'
loop_
_space_group_symop_operation_xyz
x,y,z
x-y,x,1/6+z
-y,x-y,1/3+z
-x,-y,1/2+z
-x+y,-x,2/3+z
y,-x+y,5/6+z
loop_
_atom_site_type_symbol
_atom_site_label
_atom_site_fract_x
_atom_site_fract_y
_atom_site_fract_z
Si Si1 0.604644 0.200846 0.463740
Si Si2 0.476703 0.082089 0.269482
Si Si3 0.379035 0.268347 0.048248
Si Si4 0.337752 0.864705 0.636626
Si Si5 0.094354 0.538861 0.740914
Si Si6 0.342648 0.598298 0.903940
Si Si7 0.632468 0.930729 0.538475
O O1 0.504460 0.143997 0.392894
O O2 0.666646 0.150728 0.439884
O O3 0.661386 0.305660 0.407365
O O4 0.590314 0.208442 0.606750
O O5 0.573639 0.139669 0.194400
O O6 0.390659 0.060207 0.180757
O O7 0.470295 0.984724 0.306908
O O8 0.356044 0.160975 0.038036
O O9 0.310035 0.287386 0.133832
O O10 0.393464 0.303576 0.906667
O O11 0.381264 0.918113 0.510372
O O12 0.263681 0.756719 0.603657
O O13 0.194840 0.583917 0.676320
O O14 0.085914 0.624101 0.800364
#
# Coordination Sequence:
#
# PCOD9579863 Si02
#       7
#     6   6   6   6   6   6   6
#     4  11  20  32  48  76 106 152 198 233 277 323
#     4  10  22  33  49  71 108 151 192 229 273 333
#     4  11  21  38  57  78 108 146 186 242 291 347
#     4  10  20  32  46  72 103 144 189 230 272 316
#     4  11  20  33  49  72 109 149 186 230 269 325
#     4  12  20  31  49  73 106 148 198 240 269 320
#     4  11  21  37  56  76 110 144 187 238 291 340
#
# _framework density 16.557741
#
# number of rings (size 3 to 8) (size 9 to 14) (size 15 to 20)
#    0.000    1.143    5.714    5.143    2.000    0.000 
#    0.000    0.000    0.000    0.000    0.000    0.000 
#    4.286    0.000    0.000    0.000    0.000    0.000 
#
# Total GULP energy -234025.245229 kJ/mol
# GULP energy per Si atom -5572.029648 kJ/mol
# Density = 1.652006 g / cm^3
# Si number density = 16.557741 Si / 1000 Ang^3
#
#
#
# Elastic Constant Matrix: (Units=GPa)
#
#
# Indices 1 2 3 4 5 6 
#
# 1 66.3409 23.8127 29.8885 0.0000 0.0000 0.0000
# 2 23.8127 66.3409 29.8885 0.0000 0.0000 0.0000
# 3 29.8885 29.8885 88.2421 0.0000 0.0000 0.0000
# 4 0.0000 0.0000 0.0000 21.7336 0.0000 0.0000
# 5 0.0000 0.0000 0.0000 0.0000 21.7336 0.0000
# 6 0.0000 0.0000 0.0000 0.0000 0.0000 21.2641
#
#
#
# Elastic Compliance Matrix: (Units=1/GPa)
#
#
# Indices 1 2 3 4 5 6 
#
# 1 0.018909 -0.004604 -0.004845 0.000000 0.000000 0.000000
# 2 -0.004604 0.018909 -0.004845 0.000000 0.000000 0.000000
# 3 -0.004845 -0.004845 0.014615 0.000000 0.000000 0.000000
# 4 0.000000 0.000000 0.000000 0.046012 0.000000 0.000000
# 5 0.000000 0.000000 0.000000 0.000000 0.046012 0.000000
# 6 0.000000 0.000000 0.000000 0.000000 0.000000 0.047028
#
#
# Mechanical properties :
#
#
# Convention : Reuss Voigt Hill
#
# Bulk Modulus (GPa) = 41.94000 43.12256 42.53128
# Shear Modulus (GPa) = 21.92774 22.10190 22.01482
#
# Velocity S-wave (km/s) = 3.64307 3.65751 3.65029
# Velocity P-wave (km/s) = 6.56357 6.62848 6.59611
#
# Compressibility (1/GPa) = 0.02384359
#
# Stress axis : x y z
#
# Youngs Moduli (GPa) = 52.88404 52.88404 68.42433
#
# Poissons Ratio (x) = 0.24350 0.33153
# Poissons Ratio (y) = 0.24350 0.33153
# Poissons Ratio (z) = 0.25623 0.25623
#
# Static dielectric constant tensor:
#      x y z
#    x 1.573820 0.000000 0.000000 
#    y 0.000000 1.573820 0.000000 
#    z 0.000000 0.000000 1.635780 
# 
# From -- ./inp_files/987.got.cif
#   From: 2010.05.17/outbox.cif.g08.bks.cpg/sg169_cif.got.tgz:987.got - 2010.05.20 11:12:54.
