data_PCOD9579336
_publ_section_title
;
Structure prediction by ZEFSAII (Michael W. Deem and Ramdas Pophale) SiO2 
 PCOD9579336
Probable space group: R -3 M
;
_chemical_formula_sum "Si O2"
_cell_formula_units_Z 144
_cell_length_a 28.602956
_cell_length_b 28.602956
_cell_length_c 10.065286
_cell_angle_alpha 90.000000
_cell_angle_beta 90.000000
_cell_angle_gamma 120.000000
_cell_volume 7131.462246
_symmetry_space_group_name_H-M "R -3 M"
_symmetry_group_IT_number 166
_symmetry_cell_setting 'hexagonal'
loop_
_space_group_symop_operation_xyz
x,y,z
-y,x-y,z
-x+y,-x,z
x-y,-y,-z
-x,-x+y,-z
y,x,-z
-x,-y,-z
y,-x+y,-z
x-y,x,-z
-x+y,y,z
x,x-y,z
-y,-x,z
2/3+x,1/3+y,1/3+z
2/3-y,1/3+x-y,1/3+z
2/3-x+y,1/3-x,1/3+z
2/3+x-y,1/3-y,1/3-z
2/3-x,1/3-x+y,1/3-z
2/3+y,1/3+x,1/3-z
2/3-x,1/3-y,1/3-z
2/3+y,1/3-x+y,1/3-z
2/3+x-y,1/3+x,1/3-z
2/3-x+y,1/3+y,1/3+z
2/3+x,1/3+x-y,1/3+z
2/3-y,1/3-x,1/3+z
1/3+x,2/3+y,2/3+z
1/3-y,2/3+x-y,2/3+z
1/3-x+y,2/3-x,2/3+z
1/3+x-y,2/3-y,2/3-z
1/3-x,2/3-x+y,2/3-z
1/3+y,2/3+x,2/3-z
1/3-x,2/3-y,2/3-z
1/3+y,2/3-x+y,2/3-z
1/3+x-y,2/3+x,2/3-z
1/3-x+y,2/3+y,2/3+z
1/3+x,2/3+x-y,2/3+z
1/3-y,2/3-x,2/3+z
loop_
_atom_site_type_symbol
_atom_site_label
_atom_site_fract_x
_atom_site_fract_y
_atom_site_fract_z
Si Si1 0.189411 0.703840 0.788591
Si Si2 0.567741 0.604319 0.629217
Si Si3 0.395682 0.963419 0.129212
Si Si4 0.143921 0.181092 0.378069
O O1 0.249125 0.750876 0.821984
O O2 0.187614 0.666667 0.666667
O O3 0.154515 0.730673 0.737825
O O4 0.160914 0.666668 0.916665
O O5 0.588588 0.588588 0.500000
O O6 0.608255 0.666667 0.666667
O O7 0.567788 0.567787 0.750001
O O8 0.333334 0.941583 0.166667
O O9 0.397342 0.909490 0.095499
O O10 0.411412 0.000000 0.000000
O O11 0.145720 0.145720 0.500000
O O12 0.084206 0.168412 0.344676
#
# Coordination Sequence:
#
# PCOD9579336 Si02
#       4
#    36  36  36  36
#     4  11  24  42  64  89 119 158 201 250 310 366
#     4  11  21  34  56  86 123 165 203 238 280 336
#     4  11  21  34  56  86 123 165 203 238 280 336
#     4  11  24  42  64  89 119 158 201 250 310 366
#
# _framework density 20.192212000000001
#
# number of rings (size 3 to 8) (size 9 to 14) (size 15 to 20)
#    0.000    1.000    0.000   10.500    0.000    2.000 
#    0.000    0.000    0.000   10.000    0.000    0.000 
#    0.000    0.000    0.000    0.000    0.000    0.000 
#
# Total GULP energy -268568.422651 kJ/mol
# GULP energy per Si atom -5595.175472 kJ/mol
# Density = 2.014625 g / cm^3
# Si number density = 20.192212 Si / 1000 Ang^3
#
#
#
# Elastic Constant Matrix: (Units=GPa)
#
#
# Indices 1 2 3 4 5 6 
#
# 1 102.2575 25.9728 37.1816 -39.9012 -0.1736 0.1421
# 2 25.9728 102.2445 37.1113 39.8942 0.1931 -0.1612
# 3 37.1816 37.1113 151.7243 -0.0402 0.0339 -0.0479
# 4 -39.9012 39.8942 -0.0402 58.4501 0.2001 -0.1747
# 5 -0.1736 0.1931 0.0339 0.2001 58.6407 -40.0851
# 6 0.1421 -0.1612 -0.0479 -0.1747 -40.0851 38.3476
#
#
#
# Elastic Compliance Matrix: (Units=1/GPa)
#
#
# Indices 1 2 3 4 5 6 
#
# 1 0.027470 -0.018381 -0.002228 0.031296 0.000033 -0.000005
# 2 -0.018381 0.027468 -0.002222 -0.031297 -0.000037 -0.000001
# 3 -0.002228 -0.002222 0.007680 0.000002 0.000007 0.000016
# 4 0.031296 -0.031297 0.000002 0.059835 0.000030 0.000057
# 5 0.000033 -0.000037 0.000007 0.000030 0.059739 0.062446
# 6 -0.000005 -0.000001 0.000016 0.000057 0.062446 0.091353
#
#
# Mechanical properties :
#
#
# Convention : Reuss Voigt Hill
#
# Bulk Modulus (GPa) = 58.97469 61.86196 60.41832
# Shear Modulus (GPa) = 15.39127 48.15172 31.77149
#
# Velocity S-wave (km/s) = 2.76386 4.88860 3.97098
# Velocity P-wave (km/s) = 6.28134 7.90997 7.14223
#
# Compressibility (1/GPa) = 0.01695643
#
# Stress axis : x y z
#
# Youngs Moduli (GPa) = 36.40349 36.40575 130.20155
#
# Poissons Ratio (x) = 0.66917 0.29003
# Poissons Ratio (y) = 0.66913 0.28937
# Poissons Ratio (z) = 0.08109 0.08091
#
# Static dielectric constant tensor:
#      x y z
#    x 1.712350 0.000000 0.000000 
#    y 0.000000 1.712350 0.000000 
#    z 0.000000 0.000000 1.695730 
# 
# From -- ./inp_files/1774.got.cif
#   From: 2010.05.17/outbox.cif.g08.bks.cpg/sg166_1_cif.got.tgz:1774.got - 2010.05.20 11:04:41.
