data_PCOD9579280
_publ_section_title
;
Structure prediction by ZEFSAII (Michael W. Deem and Ramdas Pophale) SiO2 
 PCOD9579280
Probable space group: R -3 M
;
_chemical_formula_sum "Si O2"
_cell_formula_units_Z 162
_cell_length_a 22.418823
_cell_length_b 22.418823
_cell_length_c 18.786343
_cell_angle_alpha 90.000000
_cell_angle_beta 90.000000
_cell_angle_gamma 120.000000
_cell_volume 8177.084684
_symmetry_space_group_name_H-M "R -3 M"
_symmetry_group_IT_number 166
_symmetry_cell_setting 'hexagonal'
loop_
_space_group_symop_operation_xyz
x,y,z
-y,x-y,z
-x+y,-x,z
x-y,-y,-z
-x,-x+y,-z
y,x,-z
-x,-y,-z
y,-x+y,-z
x-y,x,-z
-x+y,y,z
x,x-y,z
-y,-x,z
2/3+x,1/3+y,1/3+z
2/3-y,1/3+x-y,1/3+z
2/3-x+y,1/3-x,1/3+z
2/3+x-y,1/3-y,1/3-z
2/3-x,1/3-x+y,1/3-z
2/3+y,1/3+x,1/3-z
2/3-x,1/3-y,1/3-z
2/3+y,1/3-x+y,1/3-z
2/3+x-y,1/3+x,1/3-z
2/3-x+y,1/3+y,1/3+z
2/3+x,1/3+x-y,1/3+z
2/3-y,1/3-x,1/3+z
1/3+x,2/3+y,2/3+z
1/3-y,2/3+x-y,2/3+z
1/3-x+y,2/3-x,2/3+z
1/3+x-y,2/3-y,2/3-z
1/3-x,2/3-x+y,2/3-z
1/3+y,2/3+x,2/3-z
1/3-x,2/3-y,2/3-z
1/3+y,2/3-x+y,2/3-z
1/3+x-y,2/3+x,2/3-z
1/3-x+y,2/3+y,2/3+z
1/3+x,2/3+x-y,2/3+z
1/3-y,2/3-x,2/3+z
loop_
_atom_site_type_symbol
_atom_site_label
_atom_site_fract_x
_atom_site_fract_y
_atom_site_fract_z
Si Si1 0.613303 0.087866 0.568212
Si Si2 0.876422 0.255875 0.328888
Si Si3 0.862916 0.861166 0.364720
Si Si4 0.446421 0.333334 0.833334
Si Si5 0.116118 0.367220 0.506547
O O1 0.543839 0.087677 0.542547
O O2 0.648063 0.146639 0.628557
O O3 0.672592 0.100390 0.512530
O O4 0.587849 0.014896 0.607498
O O5 0.797694 0.202307 0.312755
O O6 0.894157 0.333334 0.333334
O O7 0.891443 0.242487 0.409342
O O8 0.848242 0.924121 0.366323
O O9 0.830976 0.813343 0.433963
O O10 0.944213 0.888426 0.364361
O O11 0.433360 0.394344 0.859738
O O12 0.193307 0.386613 0.485717
#
# Coordination Sequence:
#
# PCOD9579280 Si02
#       5
#    36  36  36  18  36
#     4  10  22  39  60  88 120 152 198 252 300 355
#     4  10  21  39  60  87 119 153 190 242 301 358
#     4  11  22  37  55  80 115 158 202 245 294 352
#     4  12  22  36  56  82 120 154 200 252 296 348
#     4  11  22  38  61  88 120 158 199 248 303 358
#
# _framework density 19.811461000000001
#
# number of rings (size 3 to 8) (size 9 to 14) (size 15 to 20)
#    0.000    1.333    2.222    4.222    0.000    0.889 
#    0.000    6.111    0.000    0.667    0.000    0.000 
#    0.000    0.000    0.000    0.000    0.000    0.000 
#
# Total GULP energy -301656.817647 kJ/mol
# GULP energy per Si atom -5586.237364 kJ/mol
# Density = 1.976637 g / cm^3
# Si number density = 19.811461 Si / 1000 Ang^3
#
#
#
# Elastic Constant Matrix: (Units=GPa)
#
#
# Indices 1 2 3 4 5 6 
#
# 1 119.4170 63.9757 17.8214 -2.4854 0.0004 0.0000
# 2 63.9757 119.4170 17.8214 2.4854 -0.0004 0.0000
# 3 17.8214 17.8214 44.3961 0.0000 0.0000 0.0000
# 4 -2.4854 2.4854 0.0000 28.0779 0.0000 -0.0004
# 5 0.0004 -0.0004 0.0000 0.0000 28.0779 -2.4854
# 6 0.0000 0.0000 0.0000 -0.0004 -2.4854 27.7207
#
#
#
# Elastic Compliance Matrix: (Units=1/GPa)
#
#
# Indices 1 2 3 4 5 6 
#
# 1 0.012048 -0.006134 -0.002374 0.001609 0.000000 0.000000
# 2 -0.006134 0.012048 -0.002374 -0.001609 0.000000 0.000000
# 3 -0.002374 -0.002374 0.024430 0.000000 0.000000 0.000000
# 4 0.001609 -0.001609 0.000000 0.035900 0.000000 0.000001
# 5 0.000000 0.000000 0.000000 0.000000 0.035900 0.003219
# 6 0.000000 0.000000 0.000000 0.000001 0.003219 0.036363
#
#
# Mechanical properties :
#
#
# Convention : Reuss Voigt Hill
#
# Bulk Modulus (GPa) = 37.36559 53.60748 45.48653
# Shear Modulus (GPa) = 26.68470 29.01608 27.85039
#
# Velocity S-wave (km/s) = 3.67404 3.83117 3.75343
# Velocity P-wave (km/s) = 6.07451 6.83287 6.46482
#
# Compressibility (1/GPa) = 0.02676259
#
# Stress axis : x y z
#
# Youngs Moduli (GPa) = 83.00283 83.00283 40.93246
#
# Poissons Ratio (x) = 0.50911 0.09718
# Poissons Ratio (y) = 0.50911 0.09718
# Poissons Ratio (z) = 0.19705 0.19705
#
# Static dielectric constant tensor:
#      x y z
#    x 1.691920 0.000000 0.000000 
#    y 0.000000 1.691920 0.000000 
#    z 0.000000 0.000000 1.728030 
# 
# From -- ./inp_files/5399.got.cif
#   From: 2010.05.17/outbox.cif.g08.bks.cpg/sg166_3_cif.got.tgz:5399.got - 2010.05.20 11:04:41.
