data_PCOD9579629
_publ_section_title
;
Structure prediction by ZEFSAII (Michael W. Deem and Ramdas Pophale) SiO2 
 PCOD9579629
Probable space group: R -3 C 
;
_chemical_formula_sum "Si O2"
_cell_formula_units_Z 210
_cell_length_a 27.783571
_cell_length_b 27.783571
_cell_length_c 14.084875
_cell_angle_alpha 90.000000
_cell_angle_beta 90.000000
_cell_angle_gamma 120.000000
_cell_volume 9415.854910
_symmetry_space_group_name_H-M "R -3 C "
_symmetry_group_IT_number 167
_symmetry_cell_setting 'hexagonal'
loop_
_space_group_symop_operation_xyz
x,y,z
-y,x-y,z
-x+y,-x,z
x-y,-y,1/2-z
-x,-x+y,1/2-z
y,x,1/2-z
-x,-y,-z
y,-x+y,-z
x-y,x,-z
-x+y,y,1/2+z
x,x-y,1/2+z
-y,-x,1/2+z
2/3+x,1/3+y,1/3+z
2/3-y,1/3+x-y,1/3+z
2/3-x+y,1/3-x,1/3+z
2/3+x-y,1/3-y,5/6-z
2/3-x,1/3-x+y,5/6-z
2/3+y,1/3+x,5/6-z
2/3-x,1/3-y,1/3-z
2/3+y,1/3-x+y,1/3-z
2/3+x-y,1/3+x,1/3-z
2/3-x+y,1/3+y,5/6+z
2/3+x,1/3+x-y,5/6+z
2/3-y,1/3-x,5/6+z
1/3+x,2/3+y,2/3+z
1/3-y,2/3+x-y,2/3+z
1/3-x+y,2/3-x,2/3+z
1/3+x-y,2/3-y,1/6-z
1/3-x,2/3-x+y,1/6-z
1/3+y,2/3+x,1/6-z
1/3-x,2/3-y,2/3-z
1/3+y,2/3-x+y,2/3-z
1/3+x-y,2/3+x,2/3-z
1/3-x+y,2/3+y,1/6+z
1/3+x,2/3+x-y,1/6+z
1/3-y,2/3-x,1/6+z
loop_
_atom_site_type_symbol
_atom_site_label
_atom_site_fract_x
_atom_site_fract_y
_atom_site_fract_z
Si Si1 0.454448 0.944138 0.877432
Si Si2 0.145545 0.883059 0.984916
Si Si3 0.446215 0.151834 0.151712
Si Si4 0.207423 0.207423 0.750000
Si Si5 0.698441 0.493917 0.752467
Si Si6 0.666668 0.333334 0.948205
Si Si7 0.102043 0.993302 0.885139
O O1 0.446919 0.931918 0.764732
O O2 0.476871 0.908435 0.932724
O O3 0.393786 0.929221 0.918064
O O4 0.500247 0.008871 0.885036
O O5 0.183266 0.940113 0.925306
O O6 0.081738 0.864243 0.962137
O O7 0.433230 0.099896 0.083334
O O8 0.512287 0.174591 0.171984
O O9 0.173232 0.175999 0.655709
O O10 0.666702 0.450482 0.836647
O O11 0.729670 0.467618 0.696254
O O12 0.666668 0.333335 0.833334
O O13 0.711515 0.314920 0.975771
#
# Coordination Sequence:
#
# PCOD9579629 Si02
#       7
#    36  36  36  18  36  12  36
#     4  11  23  42  70  97 129 166 222 276 346 405
#     4  10  23  44  68  95 124 171 220 284 334 407
#     4  11  23  41  65  95 129 172 220 271 330 403
#     4  12  22  36  66  98 128 172 212 272 330 416
#     4  11  21  37  63  92 129 174 228 268 331 399
#     4  12  21  36  55  81 135 184 224 271 319 362
#     4  11  21  39  59  87 129 183 224 275 321 386
#
# _framework density 22.302809
#
# number of rings (size 3 to 8) (size 9 to 14) (size 15 to 20)
#    0.000    1.029    5.143    3.600    0.000    1.371 
#    0.000    0.000    3.771    0.000    0.000    0.000 
#    0.000    0.000    0.000    0.000    0.000    0.000 
#
# Total GULP energy -390081.698179 kJ/mol
# GULP energy per Si atom -5572.595688 kJ/mol
# Density = 2.225205 g / cm^3
# Si number density = 22.302809 Si / 1000 Ang^3
#
#
#
# Elastic Constant Matrix: (Units=GPa)
#
#
# Indices 1 2 3 4 5 6 
#
# 1 80.5501 43.5281 5.4612 8.2862 0.0001 0.0000
# 2 43.5281 80.5508 5.4610 -8.2861 -0.0001 0.0000
# 3 5.4612 5.4610 97.6437 0.0000 0.0001 0.0000
# 4 8.2862 -8.2861 0.0000 27.5800 0.0000 -0.0001
# 5 0.0001 -0.0001 0.0001 0.0000 27.5800 8.2862
# 6 0.0000 0.0000 0.0000 -0.0001 8.2862 18.5110
#
#
#
# Elastic Compliance Matrix: (Units=1/GPa)
#
#
# Indices 1 2 3 4 5 6 
#
# 1 0.019654 -0.011554 -0.000453 -0.009376 0.000000 0.000000
# 2 -0.011554 0.019653 -0.000453 0.009376 0.000000 0.000000
# 3 -0.000453 -0.000453 0.010292 0.000000 0.000000 0.000000
# 4 -0.009376 0.009376 0.000000 0.041892 0.000000 0.000000
# 5 0.000000 0.000000 0.000000 0.000000 0.041892 -0.018753
# 6 0.000000 0.000000 0.000000 0.000000 -0.018753 0.062416
#
#
# Mechanical properties :
#
#
# Convention : Reuss Voigt Hill
#
# Bulk Modulus (GPa) = 40.52089 40.84946 40.68517
# Shear Modulus (GPa) = 21.83922 28.35384 25.09653
#
# Velocity S-wave (km/s) = 3.13263 3.56941 3.35813
# Velocity P-wave (km/s) = 5.59397 5.94502 5.77216
#
# Compressibility (1/GPa) = 0.02467863
#
# Stress axis : x y z
#
# Youngs Moduli (GPa) = 50.88129 50.88181 97.16299
#
# Poissons Ratio (x) = 0.58790 0.04402
# Poissons Ratio (y) = 0.58789 0.04401
# Poissons Ratio (z) = 0.02305 0.02305
#
# Static dielectric constant tensor:
#      x y z
#    x 1.894230 0.000000 0.000000 
#    y 0.000000 1.894220 0.000000 
#    z 0.000000 0.000000 1.928380 
# 
# From -- ./inp_files/2520.got.cif
#   From: 2010.05.17/outbox.cif.g08.bks.cpg/sg167_2_cif.got.tgz:2520.got - 2010.05.20 11:09:15.
