data_PCOD9579590
_publ_section_title
;
Structure prediction by ZEFSAII (Michael W. Deem and Ramdas Pophale) SiO2 
 PCOD9579590
Probable space group: R -3 C 
;
_chemical_formula_sum "Si O2"
_cell_formula_units_Z 162
_cell_length_a 23.857922
_cell_length_b 23.857922
_cell_length_c 14.510493
_cell_angle_alpha 90.000000
_cell_angle_beta 90.000000
_cell_angle_gamma 120.000000
_cell_volume 7152.832061
_symmetry_space_group_name_H-M "R -3 C "
_symmetry_group_IT_number 167
_symmetry_cell_setting 'hexagonal'
loop_
_space_group_symop_operation_xyz
x,y,z
-y,x-y,z
-x+y,-x,z
x-y,-y,1/2-z
-x,-x+y,1/2-z
y,x,1/2-z
-x,-y,-z
y,-x+y,-z
x-y,x,-z
-x+y,y,1/2+z
x,x-y,1/2+z
-y,-x,1/2+z
2/3+x,1/3+y,1/3+z
2/3-y,1/3+x-y,1/3+z
2/3-x+y,1/3-x,1/3+z
2/3+x-y,1/3-y,5/6-z
2/3-x,1/3-x+y,5/6-z
2/3+y,1/3+x,5/6-z
2/3-x,1/3-y,1/3-z
2/3+y,1/3-x+y,1/3-z
2/3+x-y,1/3+x,1/3-z
2/3-x+y,1/3+y,5/6+z
2/3+x,1/3+x-y,5/6+z
2/3-y,1/3-x,5/6+z
1/3+x,2/3+y,2/3+z
1/3-y,2/3+x-y,2/3+z
1/3-x+y,2/3-x,2/3+z
1/3+x-y,2/3-y,1/6-z
1/3-x,2/3-x+y,1/6-z
1/3+y,2/3+x,1/6-z
1/3-x,2/3-y,2/3-z
1/3+y,2/3-x+y,2/3-z
1/3+x-y,2/3+x,2/3-z
1/3-x+y,2/3+y,1/6+z
1/3+x,2/3+x-y,1/6+z
1/3-y,2/3-x,1/6+z
loop_
_atom_site_type_symbol
_atom_site_label
_atom_site_fract_x
_atom_site_fract_y
_atom_site_fract_z
Si Si1 0.076874 0.743541 0.583334
Si Si2 0.707643 0.594224 0.836342
Si Si3 0.275579 0.202895 0.282756
Si Si4 0.780209 0.329721 0.372567
Si Si5 0.601735 0.120968 0.139538
O O1 0.060279 0.686003 0.655860
O O2 0.139529 0.750208 0.531660
O O3 0.762769 0.647267 0.769597
O O4 0.684732 0.521061 0.812594
O O5 0.732077 0.602033 0.940030
O O6 0.247184 0.247184 0.250000
O O7 0.233537 0.129757 0.248225
O O8 0.728886 0.284555 0.295288
O O9 0.769118 0.286177 0.463510
O O10 0.666667 0.140818 0.083334
#
# Coordination Sequence:
#
# PCOD9579590 Si02
#       5
#    18  36  36  36  36
#     4  10  22  44  64 100 140 180 232 288 354 430
#     4  10  22  40  68  97 136 183 226 288 356 425
#     4  11  23  42  65 102 140 181 233 292 362 424
#     4  11  24  45  68  99 137 192 238 292 355 423
#     4  11  26  42  69 103 142 182 237 297 353 431
#
# _framework density 22.648371999999998
#
# number of rings (size 3 to 8) (size 9 to 14) (size 15 to 20)
#    0.000    1.333    3.333    1.556    9.333    0.000 
#    0.000    5.556    0.000    0.444    0.000    0.000 
#    0.000    0.000    0.000    0.000    0.000    0.000 
#
# Total GULP energy -301351.087066 kJ/mol
# GULP energy per Si atom -5580.575686 kJ/mol
# Density = 2.259682 g / cm^3
# Si number density = 22.648372 Si / 1000 Ang^3
#
#
#
# Elastic Constant Matrix: (Units=GPa)
#
#
# Indices 1 2 3 4 5 6 
#
# 1 133.1833 67.3039 17.2620 -1.6063 0.0001 0.0000
# 2 67.3039 133.1833 17.2620 1.6063 -0.0001 0.0000
# 3 17.2620 17.2620 17.3662 0.0000 0.0000 0.0000
# 4 -1.6063 1.6063 0.0000 20.1890 0.0000 -0.0001
# 5 0.0001 -0.0001 0.0000 0.0000 20.1890 -1.6063
# 6 0.0000 0.0000 0.0000 -0.0001 -1.6063 32.9397
#
#
#
# Elastic Compliance Matrix: (Units=1/GPa)
#
#
# Indices 1 2 3 4 5 6 
#
# 1 0.010628 -0.004610 -0.005982 0.001212 0.000000 0.000000
# 2 -0.004610 0.010628 -0.005982 -0.001212 0.000000 0.000000
# 3 -0.005982 -0.005982 0.069475 0.000000 0.000000 0.000000
# 4 0.001212 -0.001212 0.000000 0.049725 0.000000 0.000000
# 5 0.000000 0.000000 0.000000 0.000000 0.049725 0.002425
# 6 0.000000 0.000000 0.000000 0.000000 0.002425 0.030477
#
#
# Mechanical properties :
#
#
# Convention : Reuss Voigt Hill
#
# Bulk Modulus (GPa) = 17.36604 54.15429 35.76016
# Shear Modulus (GPa) = 18.31500 26.79053 22.55277
#
# Velocity S-wave (km/s) = 2.84679 3.44305 3.15902
# Velocity P-wave (km/s) = 4.30000 6.30626 5.39717
#
# Compressibility (1/GPa) = 0.05758365
#
# Stress axis : x y z
#
# Youngs Moduli (GPa) = 94.08984 94.08984 14.39365
#
# Poissons Ratio (x) = 0.43378 0.08610
# Poissons Ratio (y) = 0.43378 0.08610
# Poissons Ratio (z) = 0.56283 0.56283
#
# Static dielectric constant tensor:
#      x y z
#    x 1.898480 0.000000 0.000000 
#    y 0.000000 1.898480 0.000000 
#    z 0.000000 0.000000 1.878150 
# 
# From -- ./inp_files/3458.got.cif
#   From: 2010.05.17/outbox.cif.g08.bks.cpg/sg167_2_cif.got.tgz:3458.got - 2010.05.20 11:09:15.
