data_PCOD9579022
_publ_section_title
;
Structure prediction by ZEFSAII (Michael W. Deem and Ramdas Pophale) SiO2 
 PCOD9579022
Probable space group: R -3 M
;
_chemical_formula_sum "Si O2"
_cell_formula_units_Z 162
_cell_length_a 21.227222
_cell_length_b 21.227222
_cell_length_c 19.661930
_cell_angle_alpha 90.000000
_cell_angle_beta 90.000000
_cell_angle_gamma 120.000000
_cell_volume 7672.609604
_symmetry_space_group_name_H-M "R -3 M"
_symmetry_group_IT_number 166
_symmetry_cell_setting 'hexagonal'
loop_
_space_group_symop_operation_xyz
x,y,z
-y,x-y,z
-x+y,-x,z
x-y,-y,-z
-x,-x+y,-z
y,x,-z
-x,-y,-z
y,-x+y,-z
x-y,x,-z
-x+y,y,z
x,x-y,z
-y,-x,z
2/3+x,1/3+y,1/3+z
2/3-y,1/3+x-y,1/3+z
2/3-x+y,1/3-x,1/3+z
2/3+x-y,1/3-y,1/3-z
2/3-x,1/3-x+y,1/3-z
2/3+y,1/3+x,1/3-z
2/3-x,1/3-y,1/3-z
2/3+y,1/3-x+y,1/3-z
2/3+x-y,1/3+x,1/3-z
2/3-x+y,1/3+y,1/3+z
2/3+x,1/3+x-y,1/3+z
2/3-y,1/3-x,1/3+z
1/3+x,2/3+y,2/3+z
1/3-y,2/3+x-y,2/3+z
1/3-x+y,2/3-x,2/3+z
1/3+x-y,2/3-y,2/3-z
1/3-x,2/3-x+y,2/3-z
1/3+y,2/3+x,2/3-z
1/3-x,2/3-y,2/3-z
1/3+y,2/3-x+y,2/3-z
1/3+x-y,2/3+x,2/3-z
1/3-x+y,2/3+y,2/3+z
1/3+x,2/3+x-y,2/3+z
1/3-y,2/3-x,2/3+z
loop_
_atom_site_type_symbol
_atom_site_label
_atom_site_fract_x
_atom_site_fract_y
_atom_site_fract_z
Si Si1 0.711306 0.564519 0.965296
Si Si2 0.703665 0.064134 0.450211
Si Si3 0.498065 0.501936 0.118885
Si Si4 0.999798 0.854792 0.081851
Si Si5 0.469332 0.666667 0.166667
Si Si6 0.775558 0.551116 0.663665
O O1 0.791457 0.582914 0.989835
O O2 0.707762 0.637757 0.947878
O O3 0.699485 0.527886 0.891504
O O4 0.645494 0.497376 0.006068
O O5 0.772698 0.108711 0.499291
O O6 0.673935 0.117894 0.431060
O O7 0.649061 0.000000 0.500000
O O8 0.530294 0.469707 0.065274
O O9 0.463192 0.536809 0.069901
O O10 0.071983 0.928018 0.107083
O O11 0.925152 0.850303 0.106510
O O12 0.000000 0.860387 0.000000
O O13 0.454818 0.727409 0.197908
#
# Coordination Sequence:
#
# PCOD9579022 Si02
#       6
#    36  36  18  36  18  18
#     4  11  20  34  56  81 120 160 208 256 295 352
#     4  12  22  37  63  92 126 162 204 254 321 372
#     4  11  22  38  60  85 121 169 211 256 293 386
#     4  10  22  42  69  96 121 152 202 262 322 385
#     4  10  17  26  46  76 107 146 206 254 294 320
#     4  11  22  38  56  86 119 172 225 244 298 364
#
# _framework density 21.114066999999999
#
# number of rings (size 3 to 8) (size 9 to 14) (size 15 to 20)
#    0.000    1.111    6.667    0.333    0.000    3.111 
#    0.667    1.111    0.000    0.000    0.000    0.000 
#    0.000    0.000    0.000    0.000    0.000    0.000 
#
# Total GULP energy -301022.064175 kJ/mol
# GULP energy per Si atom -5574.482670 kJ/mol
# Density = 2.106601 g / cm^3
# Si number density = 21.114067 Si / 1000 Ang^3
#
#
#
# Elastic Constant Matrix: (Units=GPa)
#
#
# Indices 1 2 3 4 5 6 
#
# 1 174.5386 44.8850 12.5550 24.1465 -0.0025 0.0000
# 2 44.8850 174.5386 12.5550 -24.1465 0.0025 0.0000
# 3 12.5550 12.5550 15.6954 0.0000 0.0000 0.0000
# 4 24.1465 -24.1465 0.0000 46.8917 0.0000 0.0025
# 5 -0.0025 0.0025 0.0000 0.0000 46.8917 24.1465
# 6 0.0000 0.0000 0.0000 0.0025 24.1465 64.8268
#
#
#
# Elastic Compliance Matrix: (Units=1/GPa)
#
#
# Indices 1 2 3 4 5 6 
#
# 1 0.007280 -0.002263 -0.004013 -0.004914 0.000001 0.000000
# 2 -0.002263 0.007280 -0.004013 0.004914 -0.000001 0.000000
# 3 -0.004013 -0.004013 0.070133 0.000000 0.000000 0.000000
# 4 -0.004914 0.004914 0.000000 0.026387 0.000000 -0.000001
# 5 0.000001 -0.000001 0.000000 0.000000 0.026387 -0.009829
# 6 0.000000 0.000000 0.000000 -0.000001 -0.009829 0.019087
#
#
# Mechanical properties :
#
#
# Convention : Reuss Voigt Hill
#
# Bulk Modulus (GPa) = 15.59706 56.08473 35.84089
# Shear Modulus (GPa) = 25.18854 51.37387 38.28121
#
# Velocity S-wave (km/s) = 3.45769 4.93806 4.26263
# Velocity P-wave (km/s) = 4.83156 7.68979 6.42172
#
# Compressibility (1/GPa) = 0.06411465
#
# Stress axis : x y z
#
# Youngs Moduli (GPa) = 137.36338 137.36338 14.25864
#
# Poissons Ratio (x) = 0.31090 0.05722
# Poissons Ratio (y) = 0.31090 0.05722
# Poissons Ratio (z) = 0.55122 0.55122
#
# Static dielectric constant tensor:
#      x y z
#    x 1.841970 0.000000 0.000000 
#    y 0.000000 1.841970 0.000000 
#    z 0.000000 0.000000 1.742890 
# 
# From -- ./inp_files/6825.got.cif
#   From: 2010.05.17/outbox.cif.g08.bks.cpg/sg166_4_cif.got.tgz:6825.got - 2010.05.20 11:04:41.
