data_PCOD9579477
_publ_section_title
;
Structure prediction by ZEFSAII (Michael W. Deem and Ramdas Pophale) SiO2 
 PCOD9579477
Probable space group: R -3 C 
;
_chemical_formula_sum "Si O2"
_cell_formula_units_Z 270
_cell_length_a 27.010511
_cell_length_b 27.010511
_cell_length_c 21.987098
_cell_angle_alpha 90.000000
_cell_angle_beta 90.000000
_cell_angle_gamma 120.000000
_cell_volume 13891.979854
_symmetry_space_group_name_H-M "R -3 C "
_symmetry_group_IT_number 167
_symmetry_cell_setting 'hexagonal'
loop_
_space_group_symop_operation_xyz
x,y,z
-y,x-y,z
-x+y,-x,z
x-y,-y,1/2-z
-x,-x+y,1/2-z
y,x,1/2-z
-x,-y,-z
y,-x+y,-z
x-y,x,-z
-x+y,y,1/2+z
x,x-y,1/2+z
-y,-x,1/2+z
2/3+x,1/3+y,1/3+z
2/3-y,1/3+x-y,1/3+z
2/3-x+y,1/3-x,1/3+z
2/3+x-y,1/3-y,5/6-z
2/3-x,1/3-x+y,5/6-z
2/3+y,1/3+x,5/6-z
2/3-x,1/3-y,1/3-z
2/3+y,1/3-x+y,1/3-z
2/3+x-y,1/3+x,1/3-z
2/3-x+y,1/3+y,5/6+z
2/3+x,1/3+x-y,5/6+z
2/3-y,1/3-x,5/6+z
1/3+x,2/3+y,2/3+z
1/3-y,2/3+x-y,2/3+z
1/3-x+y,2/3-x,2/3+z
1/3+x-y,2/3-y,1/6-z
1/3-x,2/3-x+y,1/6-z
1/3+y,2/3+x,1/6-z
1/3-x,2/3-y,2/3-z
1/3+y,2/3-x+y,2/3-z
1/3+x-y,2/3+x,2/3-z
1/3-x+y,2/3+y,1/6+z
1/3+x,2/3+x-y,1/6+z
1/3-y,2/3-x,1/6+z
loop_
_atom_site_type_symbol
_atom_site_label
_atom_site_fract_x
_atom_site_fract_y
_atom_site_fract_z
Si Si1 0.210081 0.262443 0.386236
Si Si2 0.197928 0.131767 0.752396
Si Si3 0.861525 0.609201 0.853407
Si Si4 0.460000 0.447212 0.844815
Si Si5 0.893022 0.598270 0.980084
Si Si6 0.510815 0.628783 0.363465
Si Si7 0.372896 0.372896 0.750000
Si Si8 0.136222 0.760896 0.320092
O O1 0.185464 0.248860 0.453958
O O2 0.191107 0.201583 0.354729
O O3 0.278829 0.293852 0.390584
O O4 0.202947 0.312593 0.352759
O O5 0.146272 0.146272 0.750000
O O6 0.239901 0.179364 0.800629
O O7 0.182446 0.069317 0.777046
O O8 0.237573 0.146548 0.691478
O O9 0.815680 0.630165 0.857667
O O10 0.863008 0.577847 0.914142
O O11 0.922780 0.667124 0.850658
O O12 0.423486 0.479531 0.846892
O O13 0.419185 0.392513 0.804633
O O14 0.473471 0.438819 0.914143
O O15 0.937725 0.577485 0.989538
O O16 0.554422 0.666667 0.416667
#
# Coordination Sequence:
#
# PCOD9579477 Si02
#       8
#    36  36  36  36  36  36  18  36
#     4  11  21  32  51  77 110 144 190 233 274 322
#     4  10  22  40  60  79 108 151 197 241 290 345
#     4  11  21  33  53  74 111 151 195 225 275 329
#     4  11  22  35  50  77 113 150 184 229 280 338
#     4  10  20  35  55  74 107 157 203 229 261 326
#     4  11  22  35  54  80 113 142 181 235 300 337
#     4  10  22  32  46  70 108 148 188 226 274 312
#     4  11  21  35  55  80 109 147 197 234 274 337
#
# _framework density 19.435673999999999
#
# number of rings (size 3 to 8) (size 9 to 14) (size 15 to 20)
#    0.000    1.333    4.000    2.400    4.667    4.267 
#    0.000    0.000    0.000    0.267    0.000    0.000 
#    0.000    0.000    0.000    1.200    0.000    0.000 
#
# Total GULP energy -501932.233924 kJ/mol
# GULP energy per Si atom -5577.024821 kJ/mol
# Density = 1.939144 g / cm^3
# Si number density = 19.435674 Si / 1000 Ang^3
#
#
#
# Elastic Constant Matrix: (Units=GPa)
#
#
# Indices 1 2 3 4 5 6 
#
# 1 55.6710 20.9360 16.0799 5.7928 0.0003 0.0000
# 2 20.9360 55.6710 16.0799 -5.7928 -0.0003 0.0000
# 3 16.0799 16.0799 128.3504 0.0000 0.0000 0.0000
# 4 5.7928 -5.7928 0.0000 15.2632 0.0000 -0.0003
# 5 0.0003 -0.0003 0.0000 0.0000 15.2632 5.7928
# 6 0.0000 0.0000 0.0000 -0.0003 5.7928 17.3675
#
#
#
# Elastic Compliance Matrix: (Units=1/GPa)
#
#
# Indices 1 2 3 4 5 6 
#
# 1 0.023370 -0.009592 -0.001726 -0.012510 -0.000001 0.000000
# 2 -0.009592 0.023370 -0.001726 0.012510 0.000001 0.000000
# 3 -0.001726 -0.001726 0.008224 0.000000 0.000000 0.000000
# 4 -0.012510 0.012510 0.000000 0.075013 0.000000 0.000001
# 5 -0.000001 0.000001 0.000000 0.000000 0.075013 -0.025020
# 6 0.000000 0.000000 0.000000 0.000001 -0.025020 0.065924
#
#
# Mechanical properties :
#
#
# Convention : Reuss Voigt Hill
#
# Bulk Modulus (GPa) = 34.63130 38.43155 36.53142
# Shear Modulus (GPa) = 16.30644 22.01856 19.16250
#
# Velocity S-wave (km/s) = 2.89968 3.36950 3.14338
# Velocity P-wave (km/s) = 5.39147 5.91225 5.65786
#
# Compressibility (1/GPa) = 0.02887561
#
# Stress axis : x y z
#
# Youngs Moduli (GPa) = 42.78960 42.78960 121.60005
#
# Poissons Ratio (x) = 0.41043 0.20990
# Poissons Ratio (y) = 0.41043 0.20990
# Poissons Ratio (z) = 0.07386 0.07386
#
# Static dielectric constant tensor:
#      x y z
#    x 1.725760 0.000000 0.000000 
#    y 0.000000 1.725760 0.000000 
#    z 0.000000 0.000000 1.823260 
# 
# From -- ./inp_files/5700.got.cif
#   From: 2010.05.17/outbox.cif.g08.bks.cpg/sg167_3_cif.got.tgz:5700.got - 2010.05.20 11:09:15.
