data_PCOD9579000
_publ_section_title
;
Structure prediction by ZEFSAII (Michael W. Deem and Ramdas Pophale) SiO2 
 PCOD9579000
Probable space group: P -3 C 1
;
_chemical_formula_sum "Si O2"
_cell_formula_units_Z 72
_cell_length_a 14.158315
_cell_length_b 14.158315
_cell_length_c 18.079369
_cell_angle_alpha 90.000000
_cell_angle_beta 90.000000
_cell_angle_gamma 120.000000
_cell_volume 3138.607740
_symmetry_space_group_name_H-M "P -3 C 1"
_symmetry_group_IT_number 165
_symmetry_cell_setting 'hexagonal'
loop_
_space_group_symop_operation_xyz
x,y,z
-y,x-y,z
-x+y,-x,z
x-y,-y,1/2-z
-x,-x+y,1/2-z
y,x,1/2-z
-x,-y,-z
y,-x+y,-z
x-y,x,-z
-x+y,y,1/2+z
x,x-y,1/2+z
-y,-x,1/2+z
loop_
_atom_site_type_symbol
_atom_site_label
_atom_site_fract_x
_atom_site_fract_y
_atom_site_fract_z
Si Si1 0.570418 0.812583 0.899644
Si Si2 0.524234 0.086484 0.307961
Si Si3 0.568413 0.490007 0.566832
Si Si4 0.912985 0.105643 0.301611
Si Si5 0.843746 0.037579 0.548342
Si Si6 0.772167 0.569869 0.775289
O O1 0.473409 0.836168 0.917715
O O2 0.550652 0.699289 0.935123
O O3 0.681122 0.915676 0.930042
O O4 0.580138 0.804364 0.811190
O O5 0.644462 0.158244 0.276014
O O6 0.477231 0.165784 0.324703
O O7 0.441398 0.000000 0.250000
O O8 0.533935 0.009848 0.367963
O O9 0.500000 0.500000 0.500000
O O10 0.807465 0.118850 0.308077
O O11 0.000000 0.203232 0.250000
O O12 0.975165 0.122358 0.379027
O O13 0.878698 0.000000 0.250000
O O14 0.953555 0.142572 0.519357
#
# Coordination Sequence:
#
# PCOD9579000 Si02
#       6
#    12  12  12  12  12  12
#     4  12  24  48  76 106 145 192 245 298 373 437
#     4  12  24  45  74 109 146 186 250 301 360 435
#     4  12  28  47  76 111 150 194 242 305 372 446
#     4  12  25  44  71 100 137 186 244 289 351 423
#     4  12  27  46  69 102 147 190 238 296 363 428
#     4  12  24  44  77 109 141 192 242 305 360 429
#
# _framework density 22.940107000000001
#
# number of rings (size 3 to 8) (size 9 to 14) (size 15 to 20)
#    0.000    0.000    5.000    5.000    0.000    2.667 
#    0.000    0.000    0.000    0.000    0.000    0.000 
#    0.000    0.000    0.000    0.000    0.000    0.000 
#
# Total GULP energy -402485.979590 kJ/mol
# GULP energy per Si atom -5590.083050 kJ/mol
# Density = 2.288789 g / cm^3
# Si number density = 22.940107 Si / 1000 Ang^3
#
#
#
# Elastic Constant Matrix: (Units=GPa)
#
#
# Indices 1 2 3 4 5 6 
#
# 1 99.4980 53.1737 23.5792 -10.9371 0.0000 0.0000
# 2 53.1737 99.4980 23.5792 10.9371 0.0000 0.0000
# 3 23.5792 23.5792 76.8387 0.0000 0.0000 0.0000
# 4 -10.9371 10.9371 0.0000 16.4525 0.0000 0.0000
# 5 0.0000 0.0000 0.0000 0.0000 16.4525 -10.9371
# 6 0.0000 0.0000 0.0000 0.0000 -10.9371 23.1622
#
#
#
# Elastic Compliance Matrix: (Units=1/GPa)
#
#
# Indices 1 2 3 4 5 6 
#
# 1 0.019350 -0.012114 -0.002220 0.020916 0.000000 0.000000
# 2 -0.012114 0.019350 -0.002220 -0.020916 0.000000 0.000000
# 3 -0.002220 -0.002220 0.014377 0.000000 0.000000 0.000000
# 4 0.020916 -0.020916 0.000000 0.088589 0.000000 0.000000
# 5 0.000000 0.000000 0.000000 0.000000 0.088589 0.041832
# 6 0.000000 0.000000 0.000000 0.000000 0.041832 0.062927
#
#
# Mechanical properties :
#
#
# Convention : Reuss Voigt Hill
#
# Bulk Modulus (GPa) = 50.08264 52.94431 51.51348
# Shear Modulus (GPa) = 15.01742 22.91361 18.96552
#
# Velocity S-wave (km/s) = 2.56136 3.16388 2.87843
# Velocity P-wave (km/s) = 5.53414 6.03956 5.79237
#
# Compressibility (1/GPa) = 0.01996700
#
# Stress axis : x y z
#
# Youngs Moduli (GPa) = 51.68066 51.68066 69.55543
#
# Poissons Ratio (x) = 0.62605 0.15444
# Poissons Ratio (y) = 0.62605 0.15444
# Poissons Ratio (z) = 0.11475 0.11475
#
# Static dielectric constant tensor:
#      x y z
#    x 1.843850 0.000000 0.000000 
#    y 0.000000 1.843850 0.000000 
#    z 0.000000 0.000000 1.924950 
# 
# From -- ./inp_files/2263.got.cif
#   From: 2010.05.17/outbox.cif.g08.bks.cpg/sg165_2_cif.got.tgz:2263.got - 2010.05.20 11:02:39.
