data_PCOD9579649
_publ_section_title
;
Structure prediction by ZEFSAII (Michael W. Deem and Ramdas Pophale) SiO2 
 PCOD9579649
Probable space group: R -3 C 
;
_chemical_formula_sum "Si O2"
_cell_formula_units_Z 144
_cell_length_a 18.738973
_cell_length_b 18.738973
_cell_length_c 21.024194
_cell_angle_alpha 90.000000
_cell_angle_beta 90.000000
_cell_angle_gamma 120.000000
_cell_volume 6393.542522
_symmetry_space_group_name_H-M "R -3 C "
_symmetry_group_IT_number 167
_symmetry_cell_setting 'hexagonal'
loop_
_space_group_symop_operation_xyz
x,y,z
-y,x-y,z
-x+y,-x,z
x-y,-y,1/2-z
-x,-x+y,1/2-z
y,x,1/2-z
-x,-y,-z
y,-x+y,-z
x-y,x,-z
-x+y,y,1/2+z
x,x-y,1/2+z
-y,-x,1/2+z
2/3+x,1/3+y,1/3+z
2/3-y,1/3+x-y,1/3+z
2/3-x+y,1/3-x,1/3+z
2/3+x-y,1/3-y,5/6-z
2/3-x,1/3-x+y,5/6-z
2/3+y,1/3+x,5/6-z
2/3-x,1/3-y,1/3-z
2/3+y,1/3-x+y,1/3-z
2/3+x-y,1/3+x,1/3-z
2/3-x+y,1/3+y,5/6+z
2/3+x,1/3+x-y,5/6+z
2/3-y,1/3-x,5/6+z
1/3+x,2/3+y,2/3+z
1/3-y,2/3+x-y,2/3+z
1/3-x+y,2/3-x,2/3+z
1/3+x-y,2/3-y,1/6-z
1/3-x,2/3-x+y,1/6-z
1/3+y,2/3+x,1/6-z
1/3-x,2/3-y,2/3-z
1/3+y,2/3-x+y,2/3-z
1/3+x-y,2/3+x,2/3-z
1/3-x+y,2/3+y,1/6+z
1/3+x,2/3+x-y,1/6+z
1/3-y,2/3-x,1/6+z
loop_
_atom_site_type_symbol
_atom_site_label
_atom_site_fract_x
_atom_site_fract_y
_atom_site_fract_z
Si Si1 0.059373 0.222023 0.350205
Si Si2 0.458811 0.458811 0.750000
Si Si3 0.574157 0.240824 0.583334
Si Si4 0.752624 0.724897 0.677539
Si Si5 0.144750 0.586158 0.659538
O O1 0.150726 0.243352 0.329484
O O2 0.042658 0.294321 0.329796
O O3 0.061611 0.216832 0.425870
O O4 0.998568 0.139324 0.312922
O O5 0.434932 0.382476 0.702605
O O6 0.465696 0.532584 0.706000
O O7 0.666667 0.256526 0.583334
O O8 0.735597 0.735597 0.750000
O O9 0.205036 0.677252 0.687154
#
# Coordination Sequence:
#
# PCOD9579649 Si02
#       5
#    36  18  18  36  36
#     4  11  24  44  68 103 140 188 234 298 363 422
#     4  12  25  48  72 106 141 188 248 300 360 438
#     4  10  25  42  68 102 135 190 236 284 340 432
#     4  11  23  43  73 101 140 182 240 300 360 423
#     4  12  28  47  73 108 146 192 239 304 371 440
#
# _framework density 22.522725999999999
#
# number of rings (size 3 to 8) (size 9 to 14) (size 15 to 20)
#    0.250    0.500    5.000    1.750    3.500    4.000 
#    0.000    0.000    0.000    0.000    0.000    0.000 
#    0.000    0.000    0.000    0.000    0.000    0.000 
#
# Total GULP energy -268557.174363 kJ/mol
# GULP energy per Si atom -5594.941133 kJ/mol
# Density = 2.247146 g / cm^3
# Si number density = 22.522726 Si / 1000 Ang^3
#
#
#
# Elastic Constant Matrix: (Units=GPa)
#
#
# Indices 1 2 3 4 5 6 
#
# 1 66.4922 16.9580 14.6209 -12.8957 0.0002 0.0000
# 2 16.9580 66.4922 14.6209 12.8957 -0.0002 0.0000
# 3 14.6209 14.6209 104.9631 0.0000 0.0000 0.0000
# 4 -12.8957 12.8957 0.0000 41.8900 0.0000 -0.0002
# 5 0.0002 -0.0002 0.0000 0.0000 41.8900 -12.8957
# 6 0.0000 0.0000 0.0000 -0.0002 -12.8957 24.7671
#
#
#
# Elastic Compliance Matrix: (Units=1/GPa)
#
#
# Indices 1 2 3 4 5 6 
#
# 1 0.018320 -0.005722 -0.001755 0.007401 0.000000 0.000000
# 2 -0.005722 0.018320 -0.001755 -0.007401 0.000000 0.000000
# 3 -0.001755 -0.001755 0.010016 0.000000 0.000000 0.000000
# 4 0.007401 -0.007401 0.000000 0.028429 0.000000 0.000000
# 5 0.000000 0.000000 0.000000 0.000000 0.028429 0.014802
# 6 0.000000 0.000000 0.000000 0.000000 0.014802 0.048083
#
#
# Mechanical properties :
#
#
# Convention : Reuss Voigt Hill
#
# Bulk Modulus (GPa) = 35.47001 36.70523 36.08762
# Shear Modulus (GPa) = 27.86176 34.49259 31.17718
#
# Velocity S-wave (km/s) = 3.52099 3.91763 3.72459
# Velocity P-wave (km/s) = 5.68441 6.06598 5.87829
#
# Compressibility (1/GPa) = 0.02819283
#
# Stress axis : x y z
#
# Youngs Moduli (GPa) = 54.58550 54.58550 99.83974
#
# Poissons Ratio (x) = 0.31233 0.17521
# Poissons Ratio (y) = 0.31233 0.17521
# Poissons Ratio (z) = 0.09579 0.09579
#
# Static dielectric constant tensor:
#      x y z
#    x 1.851100 0.000000 0.000000 
#    y 0.000000 1.851100 0.000000 
#    z 0.000000 0.000000 1.802760 
# 
# From -- ./inp_files/4370.got.cif
#   From: 2010.05.17/outbox.cif.g08.bks.cpg/sg167_3_cif.got.tgz:4370.got - 2010.05.20 11:09:15.
