data_PCOD9579446
_publ_section_title
;
Structure prediction by ZEFSAII (Michael W. Deem and Ramdas Pophale) SiO2 
 PCOD9579446
Probable space group: R -3 C 
;
_chemical_formula_sum "Si O2"
_cell_formula_units_Z 144
_cell_length_a 21.308097
_cell_length_b 21.308097
_cell_length_c 20.547566
_cell_angle_alpha 90.000000
_cell_angle_beta 90.000000
_cell_angle_gamma 120.000000
_cell_volume 8079.422996
_symmetry_space_group_name_H-M "R -3 C "
_symmetry_group_IT_number 167
_symmetry_cell_setting 'hexagonal'
loop_
_space_group_symop_operation_xyz
x,y,z
-y,x-y,z
-x+y,-x,z
x-y,-y,1/2-z
-x,-x+y,1/2-z
y,x,1/2-z
-x,-y,-z
y,-x+y,-z
x-y,x,-z
-x+y,y,1/2+z
x,x-y,1/2+z
-y,-x,1/2+z
2/3+x,1/3+y,1/3+z
2/3-y,1/3+x-y,1/3+z
2/3-x+y,1/3-x,1/3+z
2/3+x-y,1/3-y,5/6-z
2/3-x,1/3-x+y,5/6-z
2/3+y,1/3+x,5/6-z
2/3-x,1/3-y,1/3-z
2/3+y,1/3-x+y,1/3-z
2/3+x-y,1/3+x,1/3-z
2/3-x+y,1/3+y,5/6+z
2/3+x,1/3+x-y,5/6+z
2/3-y,1/3-x,5/6+z
1/3+x,2/3+y,2/3+z
1/3-y,2/3+x-y,2/3+z
1/3-x+y,2/3-x,2/3+z
1/3+x-y,2/3-y,1/6-z
1/3-x,2/3-x+y,1/6-z
1/3+y,2/3+x,1/6-z
1/3-x,2/3-y,2/3-z
1/3+y,2/3-x+y,2/3-z
1/3+x-y,2/3+x,2/3-z
1/3-x+y,2/3+y,1/6+z
1/3+x,2/3+x-y,1/6+z
1/3-y,2/3-x,1/6+z
loop_
_atom_site_type_symbol
_atom_site_label
_atom_site_fract_x
_atom_site_fract_y
_atom_site_fract_z
Si Si1 0.105795 0.168192 0.013934
Si Si2 0.654127 0.038824 0.159618
Si Si3 0.303901 0.229837 0.554222
Si Si4 0.067467 0.539956 0.799568
O O1 0.120678 0.197223 0.088405
O O2 0.133448 0.112091 0.001200
O O3 0.152519 0.238049 0.967536
O O4 0.666667 0.041066 0.083334
O O5 0.725403 0.087145 0.203044
O O6 0.598445 0.066423 0.176473
O O7 0.623656 0.956973 0.185556
O O8 0.378716 0.240078 0.525960
O O9 0.000000 0.513469 0.750000
#
# Coordination Sequence:
#
# PCOD9579446 Si02
#       4
#    36  36  36  36
#     4  11  20  35  59  88 114 157 201 242 284 347
#     4  11  20  36  57  85 119 148 188 241 298 354
#     4  10  20  35  57  86 117 150 188 241 299 346
#     4  10  19  35  56  80 117 151 189 239 288 344
#
# _framework density 17.823055
#
# number of rings (size 3 to 8) (size 9 to 14) (size 15 to 20)
#    0.000    1.500    5.000    4.000    0.000    1.000 
#    0.000    2.500    0.000    0.000    0.000    0.000 
#    0.000    0.000    0.000    0.000    0.000    0.000 
#
# Total GULP energy -267809.953835 kJ/mol
# GULP energy per Si atom -5579.374038 kJ/mol
# Density = 1.778249 g / cm^3
# Si number density = 17.823055 Si / 1000 Ang^3
#
#
#
# Elastic Constant Matrix: (Units=GPa)
#
#
# Indices 1 2 3 4 5 6 
#
# 1 78.7626 33.2648 35.7390 6.5803 -0.0002 0.0000
# 2 33.2648 78.7626 35.7390 -6.5803 0.0002 0.0000
# 3 35.7390 35.7390 136.3020 0.0000 0.0000 0.0000
# 4 6.5803 -6.5803 0.0000 23.3404 0.0000 0.0002
# 5 -0.0002 0.0002 0.0000 0.0000 23.3404 6.5803
# 6 0.0000 0.0000 0.0000 0.0002 6.5803 22.7489
#
#
#
# Elastic Compliance Matrix: (Units=1/GPa)
#
#
# Indices 1 2 3 4 5 6 
#
# 1 0.017325 -0.006605 -0.002811 -0.006747 0.000000 0.000000
# 2 -0.006605 0.017325 -0.002811 0.006747 0.000000 0.000000
# 3 -0.002811 -0.002811 0.008811 0.000000 0.000000 0.000000
# 4 -0.006747 0.006747 0.000000 0.046648 0.000000 -0.000001
# 5 0.000000 0.000000 0.000000 0.000000 0.046648 -0.013493
# 6 0.000000 0.000000 0.000000 -0.000001 -0.013493 0.047861
#
#
# Mechanical properties :
#
#
# Convention : Reuss Voigt Hill
#
# Bulk Modulus (GPa) = 52.61194 55.92366 54.26780
# Shear Modulus (GPa) = 23.21173 26.49160 24.85167
#
# Velocity S-wave (km/s) = 3.61271 3.85953 3.73816
# Velocity P-wave (km/s) = 6.85459 7.16286 7.01042
#
# Compressibility (1/GPa) = 0.01900709
#
# Stress axis : x y z
#
# Youngs Moduli (GPa) = 57.71944 57.71944 113.49909
#
# Poissons Ratio (x) = 0.38126 0.31902
# Poissons Ratio (y) = 0.38126 0.31902
# Poissons Ratio (z) = 0.16224 0.16224
#
# Static dielectric constant tensor:
#      x y z
#    x 1.620240 0.000000 0.000000 
#    y 0.000000 1.620240 0.000000 
#    z 0.000000 0.000000 1.628660 
# 
# From -- ./inp_files/4295.got.cif
#   From: 2010.05.17/outbox.cif.g08.bks.cpg/sg167_3_cif.got.tgz:4295.got - 2010.05.20 11:09:15.
