data_PCOD9579831
_publ_section_title
;
Structure prediction by ZEFSAII (Michael W. Deem and Ramdas Pophale) SiO2 
 PCOD9579831
Probable space group: P 61
;
_chemical_formula_sum "Si O2"
_cell_formula_units_Z 48
_cell_length_a 14.333214
_cell_length_b 14.333214
_cell_length_c 13.245702
_cell_angle_alpha 90.000000
_cell_angle_beta 90.000000
_cell_angle_gamma 120.000000
_cell_volume 2356.637489
_symmetry_space_group_name_H-M "P 61"
_symmetry_group_IT_number 169
_symmetry_cell_setting 'hexagonal'
loop_
_space_group_symop_operation_xyz
x,y,z
x-y,x,1/6+z
-y,x-y,1/3+z
-x,-y,1/2+z
-x+y,-x,2/3+z
y,-x+y,5/6+z
loop_
_atom_site_type_symbol
_atom_site_label
_atom_site_fract_x
_atom_site_fract_y
_atom_site_fract_z
Si Si1 0.511317 0.507240 0.051840
Si Si2 0.372119 0.801776 0.275729
Si Si3 0.920656 0.822589 0.617229
Si Si4 0.286973 0.229838 0.228203
Si Si5 0.732902 0.133413 0.344814
Si Si6 0.226822 0.658899 0.956064
Si Si7 0.473402 0.457849 0.277851
Si Si8 0.737382 0.568128 0.989609
O O1 0.449160 0.393308 0.994133
O O2 0.519263 0.474870 0.165464
O O3 0.452861 0.576794 0.040521
O O4 0.629894 0.571781 0.006384
O O5 0.375013 0.691982 0.279312
O O6 0.438403 0.890067 0.187762
O O7 0.248493 0.766025 0.251268
O O8 0.895155 0.861690 0.510737
O O9 0.835487 0.813565 0.703364
O O10 0.887812 0.696596 0.604065
O O11 0.339210 0.244671 0.118224
O O12 0.355237 0.348319 0.277423
O O13 0.318255 0.155850 0.292562
O O14 0.758008 0.254589 0.368382
O O15 0.107350 0.556807 0.957476
O O16 0.232017 0.716958 0.063428
#
# Coordination Sequence:
#
# PCOD9579831 Si02
#       8
#     6   6   6   6   6   6   6   6
#     4  11  22  38  58  88 124 166 208 252 318 381
#     4  11  24  36  58  92 121 166 211 249 317 379
#     4  10  19  34  60  92 117 152 209 260 310 359
#     4   8  17  32  56  84 115 150 198 254 307 353
#     4   9  18  34  56  84 117 155 197 255 307 359
#     4  11  20  37  60  87 125 167 206 260 315 373
#     4  10  21  37  56  86 126 157 212 259 304 384
#     4  10  21  36  58  87 129 161 201 259 310 380
#
# _framework density 20.368002000000001
#
# number of rings (size 3 to 8) (size 9 to 14) (size 15 to 20)
#    0.000    2.000    3.750    0.750    1.750    0.000 
#    0.000    0.000    0.000    3.000    0.000    0.000 
#    0.000    0.000    0.000    0.000    0.000    0.000 
#
# Total GULP energy -267656.628402 kJ/mol
# GULP energy per Si atom -5576.179758 kJ/mol
# Density = 2.032164 g / cm^3
# Si number density = 20.368002 Si / 1000 Ang^3
#
#
#
# Elastic Constant Matrix: (Units=GPa)
#
#
# Indices 1 2 3 4 5 6 
#
# 1 73.0403 13.8576 1.0426 0.0000 0.0000 0.0000
# 2 13.8576 73.0403 1.0426 0.0000 0.0000 0.0000
# 3 1.0426 1.0426 39.8727 0.0000 0.0000 0.0000
# 4 0.0000 0.0000 0.0000 22.9881 0.0000 0.0000
# 5 0.0000 0.0000 0.0000 0.0000 22.9881 0.0000
# 6 0.0000 0.0000 0.0000 0.0000 0.0000 29.5913
#
#
#
# Elastic Compliance Matrix: (Units=1/GPa)
#
#
# Indices 1 2 3 4 5 6 
#
# 1 0.014206 -0.002691 -0.000301 0.000000 0.000000 0.000000
# 2 -0.002691 0.014206 -0.000301 0.000000 0.000000 0.000000
# 3 -0.000301 -0.000301 0.025096 0.000000 0.000000 0.000000
# 4 0.000000 0.000000 0.000000 0.043501 0.000000 0.000000
# 5 0.000000 0.000000 0.000000 0.000000 0.043501 0.000000
# 6 0.000000 0.000000 0.000000 0.000000 0.000000 0.033794
#
#
# Mechanical properties :
#
#
# Convention : Reuss Voigt Hill
#
# Bulk Modulus (GPa) = 21.31233 24.20431 22.75832
# Shear Modulus (GPa) = 25.44149 26.44753 25.94451
#
# Velocity S-wave (km/s) = 3.53808 3.60736 3.57289
# Velocity P-wave (km/s) = 5.21316 5.40925 5.31211
#
# Compressibility (1/GPa) = 0.04692119
#
# Stress axis : x y z
#
# Youngs Moduli (GPa) = 70.39324 70.39324 39.84766
#
# Poissons Ratio (x) = 0.18942 0.01200
# Poissons Ratio (y) = 0.18942 0.01200
# Poissons Ratio (z) = 0.02119 0.02119
#
# Static dielectric constant tensor:
#      x y z
#    x 1.763600 0.000000 0.000000 
#    y 0.000000 1.763600 0.000000 
#    z 0.000000 0.000000 1.809590 
# 
# From -- ./inp_files/1245.got.cif
#   From: 2010.05.17/outbox.cif.g08.bks.cpg/sg169_cif.got.tgz:1245.got - 2010.05.20 11:12:54.
