data_PCOD9579638
_publ_section_title
;
Structure prediction by ZEFSAII (Michael W. Deem and Ramdas Pophale) SiO2 
 PCOD9579638
Probable space group: R -3 C 
;
_chemical_formula_sum "Si O2"
_cell_formula_units_Z 162
_cell_length_a 22.927986
_cell_length_b 22.927986
_cell_length_c 17.178348
_cell_angle_alpha 90.000000
_cell_angle_beta 90.000000
_cell_angle_gamma 120.000000
_cell_volume 7820.667894
_symmetry_space_group_name_H-M "R -3 C "
_symmetry_group_IT_number 167
_symmetry_cell_setting 'hexagonal'
loop_
_space_group_symop_operation_xyz
x,y,z
-y,x-y,z
-x+y,-x,z
x-y,-y,1/2-z
-x,-x+y,1/2-z
y,x,1/2-z
-x,-y,-z
y,-x+y,-z
x-y,x,-z
-x+y,y,1/2+z
x,x-y,1/2+z
-y,-x,1/2+z
2/3+x,1/3+y,1/3+z
2/3-y,1/3+x-y,1/3+z
2/3-x+y,1/3-x,1/3+z
2/3+x-y,1/3-y,5/6-z
2/3-x,1/3-x+y,5/6-z
2/3+y,1/3+x,5/6-z
2/3-x,1/3-y,1/3-z
2/3+y,1/3-x+y,1/3-z
2/3+x-y,1/3+x,1/3-z
2/3-x+y,1/3+y,5/6+z
2/3+x,1/3+x-y,5/6+z
2/3-y,1/3-x,5/6+z
1/3+x,2/3+y,2/3+z
1/3-y,2/3+x-y,2/3+z
1/3-x+y,2/3-x,2/3+z
1/3+x-y,2/3-y,1/6-z
1/3-x,2/3-x+y,1/6-z
1/3+y,2/3+x,1/6-z
1/3-x,2/3-y,2/3-z
1/3+y,2/3-x+y,2/3-z
1/3+x-y,2/3+x,2/3-z
1/3-x+y,2/3+y,1/6+z
1/3+x,2/3+x-y,1/6+z
1/3-y,2/3-x,1/6+z
loop_
_atom_site_type_symbol
_atom_site_label
_atom_site_fract_x
_atom_site_fract_y
_atom_site_fract_z
Si Si1 0.358260 0.436384 0.603742
Si Si2 0.067953 0.517529 0.783743
Si Si3 0.333334 0.028545 0.916667
Si Si4 0.021238 0.453789 0.950685
Si Si5 0.899413 0.845993 0.982022
O O1 0.278489 0.407458 0.601972
O O2 0.379029 0.395276 0.662672
O O3 0.375287 0.439367 0.513460
O O4 0.394719 0.513424 0.630805
O O5 0.056330 0.495473 0.873070
O O6 0.138675 0.585016 0.765961
O O7 0.000000 0.513256 0.750000
O O8 0.404284 0.028520 0.927388
O O9 0.000000 0.500000 0.000000
O O10 0.877384 0.902112 0.987305
#
# Coordination Sequence:
#
# PCOD9579638 Si02
#       5
#    36  36  18  36  36
#     4  11  23  41  68  95 137 181 225 278 353 412
#     4  11  20  42  64  96 135 176 221 284 342 408
#     4  12  24  44  66  98 146 186 218 286 350 430
#     4  12  24  39  63  99 141 180 227 274 347 421
#     4  10  24  43  70  97 134 184 239 285 345 413
#
# _framework density 20.714341999999998
#
# number of rings (size 3 to 8) (size 9 to 14) (size 15 to 20)
#    0.000    0.889    4.444    2.222    7.778    0.000 
#    0.000    1.111    0.000    0.000    0.000    3.111 
#    0.000    0.000    0.000    0.000    0.000    0.000 
#
# Total GULP energy -300634.648769 kJ/mol
# GULP energy per Si atom -5567.308311 kJ/mol
# Density = 2.066720 g / cm^3
# Si number density = 20.714342 Si / 1000 Ang^3
#
#
#
# Elastic Constant Matrix: (Units=GPa)
#
#
# Indices 1 2 3 4 5 6 
#
# 1 85.4390 23.9164 40.9984 0.8757 0.0000 0.0000
# 2 23.9164 85.4390 40.9984 -0.8757 0.0000 0.0000
# 3 40.9984 40.9984 159.4821 0.0000 0.0000 0.0000
# 4 0.8757 -0.8757 0.0000 30.3412 0.0000 0.0000
# 5 0.0000 0.0000 0.0000 0.0000 30.3412 0.8757
# 6 0.0000 0.0000 0.0000 0.0000 0.8757 30.7613
#
#
#
# Elastic Compliance Matrix: (Units=1/GPa)
#
#
# Indices 1 2 3 4 5 6 
#
# 1 0.013798 -0.002470 -0.002912 -0.000469 0.000000 0.000000
# 2 -0.002470 0.013798 -0.002912 0.000469 0.000000 0.000000
# 3 -0.002912 -0.002912 0.007768 0.000000 0.000000 0.000000
# 4 -0.000469 0.000469 0.000000 0.032986 0.000000 0.000000
# 5 0.000000 0.000000 0.000000 0.000000 0.032986 -0.000939
# 6 0.000000 0.000000 0.000000 0.000000 -0.000939 0.032535
#
#
# Mechanical properties :
#
#
# Convention : Reuss Voigt Hill
#
# Bulk Modulus (GPa) = 53.26183 60.24293 56.75238
# Shear Modulus (GPa) = 31.90485 33.25185 32.57835
#
# Velocity S-wave (km/s) = 3.92883 4.01091 3.97009
# Velocity P-wave (km/s) = 6.80803 7.11307 6.96222
#
# Compressibility (1/GPa) = 0.01877517
#
# Stress axis : x y z
#
# Youngs Moduli (GPa) = 72.47523 72.47523 128.74076
#
# Poissons Ratio (x) = 0.17900 0.37491
# Poissons Ratio (y) = 0.17900 0.37491
# Poissons Ratio (z) = 0.21106 0.21106
#
# Static dielectric constant tensor:
#      x y z
#    x 1.920760 0.000000 0.000000 
#    y 0.000000 1.920760 0.000000 
#    z 0.000000 0.000000 1.765930 
# 
# From -- ./inp_files/3401.got.cif
#   From: 2010.05.17/outbox.cif.g08.bks.cpg/sg167_2_cif.got.tgz:3401.got - 2010.05.20 11:09:15.
