data_PCOD9579071
_publ_section_title
;
Structure prediction by ZEFSAII (Michael W. Deem and Ramdas Pophale) SiO2 
 PCOD9579071
Probable space group: R -3 M
;
_chemical_formula_sum "Si O2"
_cell_formula_units_Z 234
_cell_length_a 28.485170
_cell_length_b 28.485170
_cell_length_c 19.231860
_cell_angle_alpha 90.000000
_cell_angle_beta 90.000000
_cell_angle_gamma 120.000000
_cell_volume 13514.175418
_symmetry_space_group_name_H-M "R -3 M"
_symmetry_group_IT_number 166
_symmetry_cell_setting 'hexagonal'
loop_
_space_group_symop_operation_xyz
x,y,z
-y,x-y,z
-x+y,-x,z
x-y,-y,-z
-x,-x+y,-z
y,x,-z
-x,-y,-z
y,-x+y,-z
x-y,x,-z
-x+y,y,z
x,x-y,z
-y,-x,z
2/3+x,1/3+y,1/3+z
2/3-y,1/3+x-y,1/3+z
2/3-x+y,1/3-x,1/3+z
2/3+x-y,1/3-y,1/3-z
2/3-x,1/3-x+y,1/3-z
2/3+y,1/3+x,1/3-z
2/3-x,1/3-y,1/3-z
2/3+y,1/3-x+y,1/3-z
2/3+x-y,1/3+x,1/3-z
2/3-x+y,1/3+y,1/3+z
2/3+x,1/3+x-y,1/3+z
2/3-y,1/3-x,1/3+z
1/3+x,2/3+y,2/3+z
1/3-y,2/3+x-y,2/3+z
1/3-x+y,2/3-x,2/3+z
1/3+x-y,2/3-y,2/3-z
1/3-x,2/3-x+y,2/3-z
1/3+y,2/3+x,2/3-z
1/3-x,2/3-y,2/3-z
1/3+y,2/3-x+y,2/3-z
1/3+x-y,2/3+x,2/3-z
1/3-x+y,2/3+y,2/3+z
1/3+x,2/3+x-y,2/3+z
1/3-y,2/3-x,2/3+z
loop_
_atom_site_type_symbol
_atom_site_label
_atom_site_fract_x
_atom_site_fract_y
_atom_site_fract_z
Si Si1 0.569915 0.034638 0.632440
Si Si2 0.666667 0.018611 0.833334
Si Si3 0.262869 0.986365 0.365791
Si Si4 0.023883 0.265541 0.922121
Si Si5 0.000109 0.890332 0.579364
Si Si6 0.469588 0.179978 0.633749
Si Si7 0.534128 0.712460 0.855140
O O1 0.515324 0.030647 0.660174
O O2 0.617281 0.051905 0.688910
O O3 0.593191 0.079529 0.571822
O O4 0.560149 0.979338 0.598819
O O5 0.638716 0.039674 0.888178
O O6 0.708382 0.005276 0.875077
O O7 0.307314 0.973981 0.333334
O O8 0.207795 0.955813 0.321965
O O9 0.025642 0.217773 0.879991
O O10 0.000000 0.249644 0.000000
O O11 0.058253 0.941748 0.595191
O O12 0.000000 0.872397 0.500000
O O13 0.953441 0.906881 0.582279
O O14 0.983829 0.842851 0.634030
O O15 0.460093 0.230047 0.624173
O O16 0.499915 0.172824 0.567544
O O17 0.518090 0.759045 0.843623
#
# Coordination Sequence:
#
# PCOD9579071 Si02
#       7
#    36  18  36  36  36  36  36
#     4  10  18  33  55  84 110 133 177 231 281 331
#     4  12  18  34  57  76 110 154 187 214 262 330
#     4  11  21  37  55  76 106 152 190 225 270 325
#     4  12  20  34  57  85 113 147 184 231 281 334
#     4   9  17  31  53  81 112 142 177 227 288 342
#     4  10  22  38  55  78 109 150 195 236 272 326
#     4  10  20  35  59  83 109 143 179 234 299 343
#
# _framework density 17.315152000000001
#
# number of rings (size 3 to 8) (size 9 to 14) (size 15 to 20)
#    0.000    1.538    4.615    2.000    1.077    2.769 
#    0.000    2.308    0.000    0.308    0.000    0.000 
#    0.000    0.615    0.000    0.000    0.000    0.000 
#
# Total GULP energy -434756.579510 kJ/mol
# GULP energy per Si atom -5573.802301 kJ/mol
# Density = 1.727574 g / cm^3
# Si number density = 17.315152 Si / 1000 Ang^3
#
#
#
# Elastic Constant Matrix: (Units=GPa)
#
#
# Indices 1 2 3 4 5 6 
#
# 1 75.3836 45.6561 31.7914 -1.4542 -0.0001 0.0000
# 2 45.6561 75.3836 31.7914 1.4542 0.0001 0.0000
# 3 31.7914 31.7914 87.2280 0.0000 0.0000 0.0000
# 4 -1.4542 1.4542 0.0000 17.1200 0.0000 0.0001
# 5 -0.0001 0.0001 0.0000 0.0000 17.1200 -1.4542
# 6 0.0000 0.0000 0.0000 0.0001 -1.4542 14.8637
#
#
#
# Elastic Compliance Matrix: (Units=1/GPa)
#
#
# Indices 1 2 3 4 5 6 
#
# 1 0.022069 -0.011851 -0.003724 0.002881 0.000000 0.000000
# 2 -0.011851 0.022069 -0.003724 -0.002881 0.000000 0.000000
# 3 -0.003724 -0.003724 0.014179 0.000000 0.000000 0.000000
# 4 0.002881 -0.002881 0.000000 0.058901 0.000000 -0.000001
# 5 0.000000 0.000000 0.000000 0.000000 0.058901 0.005763
# 6 0.000000 0.000000 0.000000 -0.000001 0.005763 0.067842
#
#
# Mechanical properties :
#
#
# Convention : Reuss Voigt Hill
#
# Bulk Modulus (GPa) = 50.71382 50.71921 50.71651
# Shear Modulus (GPa) = 17.29308 18.40449 17.84879
#
# Velocity S-wave (km/s) = 3.16369 3.26377 3.21412
# Velocity P-wave (km/s) = 6.53433 6.59987 6.56719
#
# Compressibility (1/GPa) = 0.01971849
#
# Stress axis : x y z
#
# Youngs Moduli (GPa) = 45.31154 45.31154 70.52789
#
# Poissons Ratio (x) = 0.53701 0.26265
# Poissons Ratio (y) = 0.53701 0.26265
# Poissons Ratio (z) = 0.16874 0.16874
#
# Static dielectric constant tensor:
#      x y z
#    x 1.597730 0.000000 0.000000 
#    y 0.000000 1.597730 0.000000 
#    z 0.000000 0.000000 1.639070 
# 
# From -- ./inp_files/7235.got.cif
#   From: 2010.05.17/outbox.cif.g08.bks.cpg/sg166_4_cif.got.tgz:7235.got - 2010.05.20 11:04:41.
