data_PCOD9579067
_publ_section_title
;
Structure prediction by ZEFSAII (Michael W. Deem and Ramdas Pophale) SiO2 
 PCOD9579067
Probable space group: R -3 M
;
_chemical_formula_sum "Si O2"
_cell_formula_units_Z 216
_cell_length_a 26.845157
_cell_length_b 26.845157
_cell_length_c 20.285138
_cell_angle_alpha 90.000000
_cell_angle_beta 90.000000
_cell_angle_gamma 120.000000
_cell_volume 12660.197906
_symmetry_space_group_name_H-M "R -3 M"
_symmetry_group_IT_number 166
_symmetry_cell_setting 'hexagonal'
loop_
_space_group_symop_operation_xyz
x,y,z
-y,x-y,z
-x+y,-x,z
x-y,-y,-z
-x,-x+y,-z
y,x,-z
-x,-y,-z
y,-x+y,-z
x-y,x,-z
-x+y,y,z
x,x-y,z
-y,-x,z
2/3+x,1/3+y,1/3+z
2/3-y,1/3+x-y,1/3+z
2/3-x+y,1/3-x,1/3+z
2/3+x-y,1/3-y,1/3-z
2/3-x,1/3-x+y,1/3-z
2/3+y,1/3+x,1/3-z
2/3-x,1/3-y,1/3-z
2/3+y,1/3-x+y,1/3-z
2/3+x-y,1/3+x,1/3-z
2/3-x+y,1/3+y,1/3+z
2/3+x,1/3+x-y,1/3+z
2/3-y,1/3-x,1/3+z
1/3+x,2/3+y,2/3+z
1/3-y,2/3+x-y,2/3+z
1/3-x+y,2/3-x,2/3+z
1/3+x-y,2/3-y,2/3-z
1/3-x,2/3-x+y,2/3-z
1/3+y,2/3+x,2/3-z
1/3-x,2/3-y,2/3-z
1/3+y,2/3-x+y,2/3-z
1/3+x-y,2/3+x,2/3-z
1/3-x+y,2/3+y,2/3+z
1/3+x,2/3+x-y,2/3+z
1/3-y,2/3-x,2/3+z
loop_
_atom_site_type_symbol
_atom_site_label
_atom_site_fract_x
_atom_site_fract_y
_atom_site_fract_z
Si Si1 0.506110 0.893290 0.866225
Si Si2 0.083023 0.729122 0.184137
Si Si3 0.830345 0.778946 0.956052
Si Si4 0.370007 0.858929 0.100572
Si Si5 0.134197 0.506937 0.359607
Si Si6 0.900185 0.682640 0.369052
O O1 0.446023 0.892046 0.878299
O O2 0.508971 0.881665 0.788643
O O3 0.512039 0.847712 0.911142
O O4 0.558323 0.958439 0.877934
O O5 0.029113 0.666667 0.166667
O O6 0.127042 0.719781 0.229130
O O7 0.113394 0.751307 0.112938
O O8 0.890997 0.781993 0.966065
O O9 0.779928 0.714954 0.976523
O O10 0.824230 0.824230 0.000000
O O11 0.428132 0.856264 0.099753
O O12 0.333334 0.830963 0.166667
O O13 0.330613 0.828142 0.037450
O O14 0.137600 0.568800 0.366579
O O15 0.068271 0.458180 0.342764
O O16 0.840073 0.680146 0.359684
#
# Coordination Sequence:
#
# PCOD9579067 Si02
#       6
#    36  36  36  36  36  36
#     4  10  22  38  55  81 117 150 185 231 285 341
#     4  10  18  32  55  82 112 147 180 224 274 335
#     4   9  19  36  60  82 107 143 180 226 275 334
#     4  11  20  33  55  81 110 148 192 232 276 328
#     4  11  22  36  54  77 110 150 188 234 285 333
#     4   9  17  33  51  74 109 146 178 214 271 328
#
# _framework density 17.061344999999999
#
# number of rings (size 3 to 8) (size 9 to 14) (size 15 to 20)
#    0.000    2.000    3.333    3.500    0.000    4.000 
#    0.000    1.667    0.000   10.000    0.000    0.000 
#    0.000    0.000    0.000    0.000    0.000    0.000 
#
# Total GULP energy -401338.094557 kJ/mol
# GULP energy per Si atom -5574.140202 kJ/mol
# Density = 1.702251 g / cm^3
# Si number density = 17.061345 Si / 1000 Ang^3
#
#
#
# Elastic Constant Matrix: (Units=GPa)
#
#
# Indices 1 2 3 4 5 6 
#
# 1 89.2086 63.3017 62.4882 -3.9005 -0.0002 0.0000
# 2 63.3017 89.2086 62.4882 3.9005 0.0002 0.0000
# 3 62.4882 62.4882 63.4370 0.0000 0.0000 0.0000
# 4 -3.9005 3.9005 0.0000 24.3098 0.0000 0.0002
# 5 -0.0002 0.0002 0.0000 0.0000 24.3098 -3.9005
# 6 0.0000 0.0000 0.0000 0.0002 -3.9005 12.9534
#
#
#
# Elastic Compliance Matrix: (Units=1/GPa)
#
#
# Indices 1 2 3 4 5 6 
#
# 1 0.037285 -0.003275 -0.033501 0.006508 0.000000 0.000000
# 2 -0.003275 0.037285 -0.033501 -0.006508 0.000000 0.000000
# 3 -0.033501 -0.033501 0.081764 0.000000 0.000000 0.000000
# 4 0.006508 -0.006508 0.000000 0.043224 0.000000 -0.000001
# 5 0.000000 0.000000 0.000000 0.000000 0.043224 0.013015
# 6 0.000000 0.000000 0.000000 -0.000001 0.013015 0.081119
#
#
# Mechanical properties :
#
#
# Convention : Reuss Voigt Hill
#
# Bulk Modulus (GPa) = 63.37579 68.71224 66.04402
# Shear Modulus (GPa) = 10.64475 15.88633 13.26554
#
# Velocity S-wave (km/s) = 2.50053 3.05475 2.79143
# Velocity P-wave (km/s) = 6.75006 7.26657 7.01307
#
# Compressibility (1/GPa) = 0.01577890
#
# Stress axis : x y z
#
# Youngs Moduli (GPa) = 26.82064 26.82064 12.23027
#
# Poissons Ratio (x) = 0.08783 0.40973
# Poissons Ratio (y) = 0.08783 0.40973
# Poissons Ratio (z) = 0.89853 0.89853
#
# Static dielectric constant tensor:
#      x y z
#    x 1.589040 0.000000 0.000000 
#    y 0.000000 1.589040 0.000000 
#    z 0.000000 0.000000 1.622190 
# 
# From -- ./inp_files/7155.got.cif
#   From: 2010.05.17/outbox.cif.g08.bks.cpg/sg166_4_cif.got.tgz:7155.got - 2010.05.20 11:04:41.
