data_PCOD9579488
_publ_section_title
;
Structure prediction by ZEFSAII (Michael W. Deem and Ramdas Pophale) SiO2 
 PCOD9579488
Probable space group: R -3 C 
;
_chemical_formula_sum "Si O2"
_cell_formula_units_Z 126
_cell_length_a 20.750288
_cell_length_b 20.750288
_cell_length_c 15.905580
_cell_angle_alpha 90.000000
_cell_angle_beta 90.000000
_cell_angle_gamma 120.000000
_cell_volume 5931.006496
_symmetry_space_group_name_H-M "R -3 C "
_symmetry_group_IT_number 167
_symmetry_cell_setting 'hexagonal'
loop_
_space_group_symop_operation_xyz
x,y,z
-y,x-y,z
-x+y,-x,z
x-y,-y,1/2-z
-x,-x+y,1/2-z
y,x,1/2-z
-x,-y,-z
y,-x+y,-z
x-y,x,-z
-x+y,y,1/2+z
x,x-y,1/2+z
-y,-x,1/2+z
2/3+x,1/3+y,1/3+z
2/3-y,1/3+x-y,1/3+z
2/3-x+y,1/3-x,1/3+z
2/3+x-y,1/3-y,5/6-z
2/3-x,1/3-x+y,5/6-z
2/3+y,1/3+x,5/6-z
2/3-x,1/3-y,1/3-z
2/3+y,1/3-x+y,1/3-z
2/3+x-y,1/3+x,1/3-z
2/3-x+y,1/3+y,5/6+z
2/3+x,1/3+x-y,5/6+z
2/3-y,1/3-x,5/6+z
1/3+x,2/3+y,2/3+z
1/3-y,2/3+x-y,2/3+z
1/3-x+y,2/3-x,2/3+z
1/3+x-y,2/3-y,1/6-z
1/3-x,2/3-x+y,1/6-z
1/3+y,2/3+x,1/6-z
1/3-x,2/3-y,2/3-z
1/3+y,2/3-x+y,2/3-z
1/3+x-y,2/3+x,2/3-z
1/3-x+y,2/3+y,1/6+z
1/3+x,2/3+x-y,1/6+z
1/3-y,2/3-x,1/6+z
loop_
_atom_site_type_symbol
_atom_site_label
_atom_site_fract_x
_atom_site_fract_y
_atom_site_fract_z
Si Si1 0.910910 0.217832 0.504523
Si Si2 0.221552 0.074879 0.206242
Si Si3 0.065723 0.785867 0.977662
Si Si4 0.890498 0.557165 0.583334
O O1 0.927850 0.261183 0.416667
O O2 0.866803 0.238421 0.571178
O O3 0.858153 0.132806 0.480882
O O4 0.991709 0.236821 0.531874
O O5 0.241733 0.059202 0.113548
O O6 0.209359 0.145967 0.207772
O O7 0.157067 0.000000 0.250000
O O8 0.087572 0.721820 0.966031
#
# Coordination Sequence:
#
# PCOD9579488 Si02
#       4
#    36  36  36  18
#     4  11  22  37  62  90 123 161 199 255 309 368
#     4  11  22  41  62  91 130 160 212 252 306 379
#     4  11  23  41  60  97 125 159 206 263 312 369
#     4  10  20  36  64  90 118 168 200 252 306 352
#
# _framework density 21.244287
#
# number of rings (size 3 to 8) (size 9 to 14) (size 15 to 20)
#    0.000    1.143    4.286    3.429    0.000   10.286 
#    0.857    0.000    0.000    0.571    0.000    0.000 
#    0.000    0.000    0.000    0.000    0.000    0.000 
#
# Total GULP energy -234460.471012 kJ/mol
# GULP energy per Si atom -5582.392167 kJ/mol
# Density = 2.119593 g / cm^3
# Si number density = 21.244287 Si / 1000 Ang^3
#
#
#
# Elastic Constant Matrix: (Units=GPa)
#
#
# Indices 1 2 3 4 5 6 
#
# 1 143.3786 63.5740 16.0324 -0.1235 0.0000 0.0000
# 2 63.5740 143.3786 16.0324 0.1235 0.0000 0.0000
# 3 16.0324 16.0324 83.3854 0.0000 0.0000 0.0000
# 4 -0.1235 0.1235 0.0000 25.7872 0.0000 0.0000
# 5 0.0000 0.0000 0.0000 0.0000 25.7872 -0.1235
# 6 0.0000 0.0000 0.0000 0.0000 -0.1235 39.9023
#
#
#
# Elastic Compliance Matrix: (Units=1/GPa)
#
#
# Indices 1 2 3 4 5 6 
#
# 1 0.008756 -0.003775 -0.000958 0.000060 0.000000 0.000000
# 2 -0.003775 0.008756 -0.000958 -0.000060 0.000000 0.000000
# 3 -0.000958 -0.000958 0.012361 0.000000 0.000000 0.000000
# 4 0.000060 -0.000060 0.000000 0.038780 0.000000 0.000000
# 5 0.000000 0.000000 0.000000 0.000000 0.038780 0.000120
# 6 0.000000 0.000000 0.000000 0.000000 0.000120 0.025062
#
#
# Mechanical properties :
#
#
# Convention : Reuss Voigt Hill
#
# Bulk Modulus (GPa) = 54.07975 62.38004 58.22990
# Shear Modulus (GPa) = 33.32513 36.59559 34.96036
#
# Velocity S-wave (km/s) = 3.96493 4.15493 4.06104
# Velocity P-wave (km/s) = 6.81706 7.24189 7.03268
#
# Compressibility (1/GPa) = 0.01849121
#
# Stress axis : x y z
#
# Youngs Moduli (GPa) = 114.21276 114.21276 80.90138
#
# Poissons Ratio (x) = 0.43118 0.07747
# Poissons Ratio (y) = 0.43118 0.07747
# Poissons Ratio (z) = 0.10937 0.10937
#
# Static dielectric constant tensor:
#      x y z
#    x 1.788400 0.000000 0.000000 
#    y 0.000000 1.788400 0.000000 
#    z 0.000000 0.000000 1.922150 
# 
# From -- ./inp_files/3036.got.cif
#   From: 2010.05.17/outbox.cif.g08.bks.cpg/sg167_2_cif.got.tgz:3036.got - 2010.05.20 11:09:15.
