data_PCOD9579360
_publ_section_title
;
Structure prediction by ZEFSAII (Michael W. Deem and Ramdas Pophale) SiO2 
 PCOD9579360
Probable space group: R -3 M
;
_chemical_formula_sum "Si O2"
_cell_formula_units_Z 42
_cell_length_a 27.000000
_cell_length_b 27.000000
_cell_length_c 12.000000
_cell_angle_alpha 90.000000
_cell_angle_beta 90.000000
_cell_angle_gamma 120.000000
_cell_volume 7575.990232
_symmetry_space_group_name_H-M "R -3 M"
_symmetry_group_IT_number 166
_symmetry_cell_setting 'hexagonal'
loop_
_space_group_symop_operation_xyz
x,y,z
-y,x-y,z
-x+y,-x,z
x-y,-y,-z
-x,-x+y,-z
y,x,-z
-x,-y,-z
y,-x+y,-z
x-y,x,-z
-x+y,y,z
x,x-y,z
-y,-x,z
2/3+x,1/3+y,1/3+z
2/3-y,1/3+x-y,1/3+z
2/3-x+y,1/3-x,1/3+z
2/3+x-y,1/3-y,1/3-z
2/3-x,1/3-x+y,1/3-z
2/3+y,1/3+x,1/3-z
2/3-x,1/3-y,1/3-z
2/3+y,1/3-x+y,1/3-z
2/3+x-y,1/3+x,1/3-z
2/3-x+y,1/3+y,1/3+z
2/3+x,1/3+x-y,1/3+z
2/3-y,1/3-x,1/3+z
1/3+x,2/3+y,2/3+z
1/3-y,2/3+x-y,2/3+z
1/3-x+y,2/3-x,2/3+z
1/3+x-y,2/3-y,2/3-z
1/3-x,2/3-x+y,2/3-z
1/3+y,2/3+x,2/3-z
1/3-x,2/3-y,2/3-z
1/3+y,2/3-x+y,2/3-z
1/3+x-y,2/3+x,2/3-z
1/3-x+y,2/3+y,2/3+z
1/3+x,2/3+x-y,2/3+z
1/3-y,2/3-x,2/3+z
loop_
_atom_site_type_symbol
_atom_site_label
_atom_site_fract_x
_atom_site_fract_y
_atom_site_fract_z
Si Si1 0.898057 0.629951 0.831313
Si Si2 0.400507 0.486095 0.921300
Si Si3 0.333334 0.779021 0.166667
Si Si4 0.493061 0.615616 0.353202
O O1 0.950656 0.617323 0.833334
O O2 0.861998 0.598704 0.719334
O O3 0.916065 0.695347 0.815390
O O4 0.862070 0.599693 0.941568
O O5 0.448049 0.551952 0.903844
O O6 0.334767 0.467382 0.901757
O O7 0.385882 0.771765 0.127342
O O8 0.356417 0.825012 0.265232
O O9 0.439701 0.560300 0.405375
#
# Coordination Sequence:
#
# PCOD9579360 Si02
#       4
#    36  36  18  36
#     4   9  16  24  36  54  73  94 121 156 189 220
#     4  10  16  24  38  54  73  98 126 153 184 219
#     4  10  17  24  32  46  70 100 127 150 174 204
#     4  10  17  25  36  52  74  97 124 156 188 217
#
# _framework density 5.5438299999999998
#
# number of rings (size 3 to 8) (size 9 to 14) (size 15 to 20)
#    0.000    2.286    4.286    4.429    0.000    0.000 
#    0.000    0.000    0.000    1.429    0.000    0.000 
#    0.000    0.000    0.000    0.000    0.000    0.000 
#
# Total GULP energy -234016.658495 kJ/mol
# GULP energy per Si atom -5571.825202 kJ/mol
# Density = 0.553121 g / cm^3
# Si number density = 5.543830 Si / 1000 Ang^3
#
#
#
# Elastic Constant Matrix: (Units=GPa)
#
#
# Indices 1 2 3 4 5 6 
#
# 1 100.6962 69.2648 13.4565 0.5891 0.0008 0.0000
# 2 69.2648 100.6956 13.4545 -0.5892 -0.0003 -0.0001
# 3 13.4565 13.4545 5.9743 -0.0004 0.0009 -0.0002
# 4 0.5891 -0.5892 -0.0004 7.1248 -0.0001 -0.0002
# 5 0.0008 -0.0003 0.0009 -0.0001 7.1254 0.5891
# 6 0.0000 -0.0001 -0.0002 -0.0002 0.5891 15.7152
#
#
#
# Elastic Compliance Matrix: (Units=1/GPa)
#
#
# Indices 1 2 3 4 5 6 
#
# 1 0.020531 -0.011385 -0.020605 -0.002640 0.000000 0.000000
# 2 -0.011385 0.020528 -0.020588 0.002638 0.000005 0.000000
# 3 -0.020605 -0.020588 0.260158 0.000016 -0.000030 0.000004
# 4 -0.002640 0.002638 0.000016 0.140791 0.000003 0.000002
# 5 0.000000 0.000005 -0.000030 0.000003 0.140778 -0.005277
# 6 0.000000 0.000000 0.000004 0.000002 -0.005277 0.063830
#
#
# Mechanical properties :
#
#
# Convention : Reuss Voigt Hill
#
# Bulk Modulus (GPa) = 5.10041 44.41308 24.75674
# Shear Modulus (GPa) = 6.11900 13.40578 9.76239
#
# Velocity S-wave (km/s) = 1.92020 2.84218 2.42540
# Velocity P-wave (km/s) = 2.82658 6.12640 4.77087
#
# Compressibility (1/GPa) = 0.19606275
#
# Stress axis : x y z
#
# Youngs Moduli (GPa) = 48.70693 48.71283 3.84382
#
# Poissons Ratio (x) = 0.55459 0.07920
# Poissons Ratio (y) = 0.55452 0.07914
# Poissons Ratio (z) = 1.00358 1.00290
#
# Static dielectric constant tensor:
#      x y z
#    x 1.607040 0.000000 0.000000 
#    y 0.000000 1.607040 0.000000 
#    z 0.000000 0.000000 1.511720 
# 
# From -- ./inp_files/2865.got.cif
#   From: 2010.05.17/outbox.ucp.g08.bks.cvg/sg166_2_cif.got.tgz:2865.got - 2010.06.11 15:16:39.
