data_PCOD9579193
_publ_section_title
;
Structure prediction by ZEFSAII (Michael W. Deem and Ramdas Pophale) SiO2 
 PCOD9579193
Probable space group: R -3 M
;
_chemical_formula_sum "Si O2"
_cell_formula_units_Z 144
_cell_length_a 21.414009
_cell_length_b 21.414009
_cell_length_c 19.827036
_cell_angle_alpha 90.000000
_cell_angle_beta 90.000000
_cell_angle_gamma 120.000000
_cell_volume 7873.800170
_symmetry_space_group_name_H-M "R -3 M"
_symmetry_group_IT_number 166
_symmetry_cell_setting 'hexagonal'
loop_
_space_group_symop_operation_xyz
x,y,z
-y,x-y,z
-x+y,-x,z
x-y,-y,-z
-x,-x+y,-z
y,x,-z
-x,-y,-z
y,-x+y,-z
x-y,x,-z
-x+y,y,z
x,x-y,z
-y,-x,z
2/3+x,1/3+y,1/3+z
2/3-y,1/3+x-y,1/3+z
2/3-x+y,1/3-x,1/3+z
2/3+x-y,1/3-y,1/3-z
2/3-x,1/3-x+y,1/3-z
2/3+y,1/3+x,1/3-z
2/3-x,1/3-y,1/3-z
2/3+y,1/3-x+y,1/3-z
2/3+x-y,1/3+x,1/3-z
2/3-x+y,1/3+y,1/3+z
2/3+x,1/3+x-y,1/3+z
2/3-y,1/3-x,1/3+z
1/3+x,2/3+y,2/3+z
1/3-y,2/3+x-y,2/3+z
1/3-x+y,2/3-x,2/3+z
1/3+x-y,2/3-y,2/3-z
1/3-x,2/3-x+y,2/3-z
1/3+y,2/3+x,2/3-z
1/3-x,2/3-y,2/3-z
1/3+y,2/3-x+y,2/3-z
1/3+x-y,2/3+x,2/3-z
1/3-x+y,2/3+y,2/3+z
1/3+x,2/3+x-y,2/3+z
1/3-y,2/3-x,2/3+z
loop_
_atom_site_type_symbol
_atom_site_label
_atom_site_fract_x
_atom_site_fract_y
_atom_site_fract_z
Si Si1 0.069131 0.460140 0.224880
Si Si2 0.676493 0.597479 0.254542
Si Si3 0.087342 0.468736 0.379634
Si Si4 0.523188 0.189644 0.163209
O O1 0.075522 0.537761 0.217024
O O2 0.110748 0.444082 0.166667
O O3 0.093856 0.454705 0.301002
O O4 0.985640 0.397358 0.224524
O O5 0.666667 0.576902 0.333334
O O6 0.736644 0.681831 0.254843
O O7 0.693985 0.544100 0.213865
O O8 0.077809 0.538905 0.382395
O O9 0.156543 0.487541 0.424171
O O10 0.589423 0.178845 0.182711
O O11 0.546971 0.273486 0.160150
#
# Coordination Sequence:
#
# PCOD9579193 Si02
#       4
#    36  36  36  36
#     4  10  20  34  54  80 107 134 167 210 259 308
#     4  10  20  35  55  78 103 132 169 214 262 308
#     4   9  19  35  54  76 102 136 176 212 251 303
#     4  11  22  35  52  75 105 140 176 213 252 298
#
# _framework density 18.288501
#
# number of rings (size 3 to 8) (size 9 to 14) (size 15 to 20)
#    0.000    2.000    0.000    4.000    0.000    6.000 
#    0.000    0.000    0.000    9.250    0.000    0.000 
#    0.000    0.000    0.000    0.000    0.000    0.000 
#
# Total GULP energy -267924.321112 kJ/mol
# GULP energy per Si atom -5581.756690 kJ/mol
# Density = 1.824688 g / cm^3
# Si number density = 18.288501 Si / 1000 Ang^3
#
#
#
# Elastic Constant Matrix: (Units=GPa)
#
#
# Indices 1 2 3 4 5 6 
#
# 1 62.8792 29.9523 37.4397 3.0277 0.0003 0.0000
# 2 29.9523 62.8792 37.4397 -3.0277 -0.0003 0.0000
# 3 37.4397 37.4397 69.2568 0.0000 0.0000 0.0000
# 4 3.0277 -3.0277 0.0000 25.5494 0.0000 -0.0003
# 5 0.0003 -0.0003 0.0000 0.0000 25.5494 3.0277
# 6 0.0000 0.0000 0.0000 -0.0003 3.0277 16.4634
#
#
#
# Elastic Compliance Matrix: (Units=1/GPa)
#
#
# Indices 1 2 3 4 5 6 
#
# 1 0.025074 -0.005973 -0.010326 -0.003679 0.000000 0.000000
# 2 -0.005973 0.025074 -0.010326 0.003679 0.000000 0.000000
# 3 -0.010326 -0.010326 0.025603 0.000000 0.000000 0.000000
# 4 -0.003679 0.003679 0.000000 0.040012 0.000000 0.000001
# 5 0.000000 0.000000 0.000000 0.000000 0.040012 -0.007358
# 6 0.000000 0.000000 0.000000 0.000001 -0.007358 0.062094
#
#
# Mechanical properties :
#
#
# Convention : Reuss Voigt Hill
#
# Bulk Modulus (GPa) = 44.44069 44.96431 44.70250
# Shear Modulus (GPa) = 17.94561 19.52468 18.73514
#
# Velocity S-wave (km/s) = 3.13589 3.27095 3.20413
# Velocity P-wave (km/s) = 6.12081 6.23738 6.17937
#
# Compressibility (1/GPa) = 0.02250190
#
# Stress axis : x y z
#
# Youngs Moduli (GPa) = 39.88172 39.88172 39.05734
#
# Poissons Ratio (x) = 0.23820 0.40331
# Poissons Ratio (y) = 0.23820 0.40331
# Poissons Ratio (z) = 0.41182 0.41182
#
# Static dielectric constant tensor:
#      x y z
#    x 1.604370 0.000000 0.000000 
#    y 0.000000 1.604370 0.000000 
#    z 0.000000 0.000000 1.656350 
# 
# From -- ./inp_files/5218.got.cif
#   From: 2010.05.17/outbox.cif.g08.bks.cpg/sg166_3_cif.got.tgz:5218.got - 2010.05.20 11:04:41.
