data_PCOD9579917
_publ_section_title
;
Structure prediction by ZEFSAII (Michael W. Deem and Ramdas Pophale) SiO2 
 PCOD9579917
Probable space group: P 61
;
_chemical_formula_sum "Si O2"
_cell_formula_units_Z 42
_cell_length_a 9.009018
_cell_length_b 9.009018
_cell_length_c 28.986084
_cell_angle_alpha 90.000000
_cell_angle_beta 90.000000
_cell_angle_gamma 120.000000
_cell_volume 2037.394303
_symmetry_space_group_name_H-M "P 61"
_symmetry_group_IT_number 169
_symmetry_cell_setting 'hexagonal'
loop_
_space_group_symop_operation_xyz
x,y,z
x-y,x,1/6+z
-y,x-y,1/3+z
-x,-y,1/2+z
-x+y,-x,2/3+z
y,-x+y,5/6+z
loop_
_atom_site_type_symbol
_atom_site_label
_atom_site_fract_x
_atom_site_fract_y
_atom_site_fract_z
Si Si1 0.470207 0.197718 0.303970
Si Si2 0.873086 0.215695 0.458811
Si Si3 0.144649 0.999241 0.787714
Si Si4 0.207084 0.600471 0.037323
Si Si5 0.708818 0.915723 0.189311
Si Si6 0.637658 0.266379 0.053146
Si Si7 0.111075 0.586047 0.641073
O O1 0.343227 0.269303 0.299784
O O2 0.572794 0.233874 0.256125
O O3 0.588978 0.261299 0.349108
O O4 0.377059 0.993437 0.305320
O O5 0.789733 0.259084 0.502441
O O6 0.820849 0.271903 0.410682
O O7 0.839638 0.023625 0.460664
O O8 0.171254 0.039301 0.733711
O O9 0.317890 0.000403 0.803982
O O10 0.149736 0.161553 0.813166
O O11 0.033799 0.416703 0.027184
O O12 0.355869 0.565829 0.021862
O O13 0.557137 0.718246 0.194064
O O14 0.759544 0.340782 0.098189
#
# Coordination Sequence:
#
# PCOD9579917 Si02
#       7
#     6   6   6   6   6   6   6
#     4  12  21  38  67  93 124 161 211 267 311 368
#     4  11  25  39  63 100 127 157 212 278 313 370
#     4  10  22  38  70  89 123 165 223 253 311 382
#     4  10  21  41  63  88 129 165 211 253 326 377
#     4  10  20  43  65  88 124 183 207 255 316 400
#     4  10  22  41  64  88 127 174 207 251 325 390
#     4   9  21  42  64  86 124 173 205 253 320 391
#
# _framework density 20.614567000000001
#
# number of rings (size 3 to 8) (size 9 to 14) (size 15 to 20)
#    0.000    1.714    4.286    0.857    6.000    0.000 
#    2.571    0.000    0.000    0.000    0.000    0.000 
#    0.000    0.000    0.000    0.000    0.000    0.000 
#
# Total GULP energy -234157.287222 kJ/mol
# GULP energy per Si atom -5575.173505 kJ/mol
# Density = 2.056765 g / cm^3
# Si number density = 20.614567 Si / 1000 Ang^3
#
#
#
# Elastic Constant Matrix: (Units=GPa)
#
#
# Indices 1 2 3 4 5 6 
#
# 1 60.4256 28.7224 12.7594 0.0000 0.0000 0.0000
# 2 28.7224 60.4256 12.7594 0.0000 0.0000 0.0000
# 3 12.7594 12.7594 42.9628 0.0000 0.0000 0.0000
# 4 0.0000 0.0000 0.0000 18.7179 0.0000 0.0000
# 5 0.0000 0.0000 0.0000 0.0000 18.7179 0.0000
# 6 0.0000 0.0000 0.0000 0.0000 0.0000 15.8516
#
#
#
# Elastic Compliance Matrix: (Units=1/GPa)
#
#
# Indices 1 2 3 4 5 6 
#
# 1 0.021901 -0.009642 -0.003641 0.000000 0.000000 0.000000
# 2 -0.009642 0.021901 -0.003641 0.000000 0.000000 0.000000
# 3 -0.003641 -0.003641 0.025439 0.000000 0.000000 0.000000
# 4 0.000000 0.000000 0.000000 0.053425 0.000000 0.000000
# 5 0.000000 0.000000 0.000000 0.000000 0.053425 0.000000
# 6 0.000000 0.000000 0.000000 0.000000 0.000000 0.063085
#
#
# Mechanical properties :
#
#
# Convention : Reuss Voigt Hill
#
# Bulk Modulus (GPa) = 28.25343 30.25516 29.25429
# Shear Modulus (GPa) = 17.55495 17.96234 17.75864
#
# Velocity S-wave (km/s) = 2.92135 2.95505 2.93825
# Velocity P-wave (km/s) = 5.01142 5.13338 5.07277
#
# Compressibility (1/GPa) = 0.03539394
#
# Stress axis : x y z
#
# Youngs Moduli (GPa) = 45.65994 45.65994 39.31041
#
# Poissons Ratio (x) = 0.44023 0.14313
# Poissons Ratio (y) = 0.44023 0.14313
# Poissons Ratio (z) = 0.16624 0.16624
#
# Static dielectric constant tensor:
#      x y z
#    x 1.777950 0.000000 0.000000 
#    y 0.000000 1.777950 0.000000 
#    z 0.000000 0.000000 1.745530 
# 
# From -- ./inp_files/1880.got.cif
#   From: 2010.05.17/outbox.cif.g08.bks.cpg/sg169_cif.got.tgz:1880.got - 2010.05.20 11:12:54.
