data_PCOD9579916
_publ_section_title
;
Structure prediction by ZEFSAII (Michael W. Deem and Ramdas Pophale) SiO2 
 PCOD9579916
Probable space group: P 61
;
_chemical_formula_sum "Si O2"
_cell_formula_units_Z 48
_cell_length_a 14.545489
_cell_length_b 14.545489
_cell_length_c 11.451610
_cell_angle_alpha 90.000000
_cell_angle_beta 90.000000
_cell_angle_gamma 120.000000
_cell_volume 2098.233581
_symmetry_space_group_name_H-M "P 61"
_symmetry_group_IT_number 169
_symmetry_cell_setting 'hexagonal'
loop_
_space_group_symop_operation_xyz
x,y,z
x-y,x,1/6+z
-y,x-y,1/3+z
-x,-y,1/2+z
-x+y,-x,2/3+z
y,-x+y,5/6+z
loop_
_atom_site_type_symbol
_atom_site_label
_atom_site_fract_x
_atom_site_fract_y
_atom_site_fract_z
Si Si1 0.466498 0.607729 0.615420
Si Si2 0.798108 0.904933 0.780742
Si Si3 0.130160 0.192185 0.897270
Si Si4 0.404462 0.443934 0.436581
Si Si5 0.211778 0.376534 0.279448
Si Si6 0.303497 0.283499 0.619939
Si Si7 0.697331 0.639349 0.545139
Si Si8 0.539837 0.915345 0.151557
O O1 0.391448 0.527780 0.516385
O O2 0.509096 0.730956 0.610145
O O3 0.579764 0.608495 0.592569
O O4 0.405007 0.559052 0.735179
O O5 0.864759 0.865080 0.855680
O O6 0.705912 0.820154 0.694813
O O7 0.743141 0.940704 0.880400
O O8 0.135743 0.108641 0.812364
O O9 0.110530 0.278473 0.827676
O O10 0.237626 0.251303 0.972615
O O11 0.310245 0.382813 0.347572
O O12 0.397796 0.355396 0.528504
O O13 0.508883 0.512704 0.362579
O O14 0.225239 0.351759 0.147631
O O15 0.326210 0.357779 0.733115
O O16 0.682690 0.556437 0.441837
#
# Coordination Sequence:
#
# PCOD9579916 Si02
#       8
#     6   6   6   6   6   6   6   6
#     4  10  21  41  67  94 134 173 225 291 356 428
#     4  11  25  45  69  97 145 202 251 297 353 426
#     4  12  25  45  67 101 148 194 244 296 352 430
#     4   9  21  40  67  93 125 172 228 287 353 433
#     4  11  22  41  67 103 137 173 228 296 367 431
#     4  10  22  42  67  95 131 181 241 298 352 426
#     4  11  22  40  69 103 134 183 238 291 360 431
#     4  10  20  42  69  98 124 176 237 290 357 433
#
# _framework density 22.876384000000002
#
# number of rings (size 3 to 8) (size 9 to 14) (size 15 to 20)
#    0.000    1.500    2.500    2.250    3.500    0.000 
#    0.000   17.500    0.000    0.000    0.000    0.000 
#    0.000    0.000    0.000    0.000    0.000    0.000 
#
# Total GULP energy -267676.823789 kJ/mol
# GULP energy per Si atom -5576.600496 kJ/mol
# Density = 2.282432 g / cm^3
# Si number density = 22.876384 Si / 1000 Ang^3
#
#
#
# Elastic Constant Matrix: (Units=GPa)
#
#
# Indices 1 2 3 4 5 6 
#
# 1 68.7681 16.0247 42.1958 0.0000 0.0000 0.0000
# 2 16.0247 68.7681 42.1958 0.0000 0.0000 0.0000
# 3 42.1958 42.1958 163.1017 0.0000 0.0000 0.0000
# 4 0.0000 0.0000 0.0000 34.6898 0.0000 0.0000
# 5 0.0000 0.0000 0.0000 0.0000 34.6898 0.0000
# 6 0.0000 0.0000 0.0000 0.0000 0.0000 26.3717
#
#
#
# Elastic Compliance Matrix: (Units=1/GPa)
#
#
# Indices 1 2 3 4 5 6 
#
# 1 0.017421 -0.001538 -0.004109 0.000000 0.000000 0.000000
# 2 -0.001538 0.017421 -0.004109 0.000000 0.000000 0.000000
# 3 -0.004109 -0.004109 0.008257 0.000000 0.000000 0.000000
# 4 0.000000 0.000000 0.000000 0.028827 0.000000 0.000000
# 5 0.000000 0.000000 0.000000 0.000000 0.028827 0.000000
# 6 0.000000 0.000000 0.000000 0.000000 0.000000 0.037919
#
#
# Mechanical properties :
#
#
# Convention : Reuss Voigt Hill
#
# Bulk Modulus (GPa) = 42.39605 55.71893 49.05749
# Shear Modulus (GPa) = 30.11163 32.49836 31.30500
#
# Velocity S-wave (km/s) = 3.63199 3.77318 3.70326
# Velocity P-wave (km/s) = 6.01343 6.58726 6.30687
#
# Compressibility (1/GPa) = 0.02358711
#
# Stress axis : x y z
#
# Youngs Moduli (GPa) = 57.40059 57.40059 121.10560
#
# Poissons Ratio (x) = 0.08830 0.49763
# Poissons Ratio (y) = 0.08830 0.49763
# Poissons Ratio (z) = 0.23586 0.23586
#
# Static dielectric constant tensor:
#      x y z
#    x 1.902940 0.000000 0.000000 
#    y 0.000000 1.902940 0.000000 
#    z 0.000000 0.000000 1.901490 
# 
# From -- ./inp_files/1021.got.cif
#   From: 2010.05.17/outbox.cif.g08.bks.cpg/sg169_cif.got.tgz:1021.got - 2010.05.20 11:12:54.
