data_PCOD9579873
_publ_section_title
;
Structure prediction by ZEFSAII (Michael W. Deem and Ramdas Pophale) SiO2 
 PCOD9579873
Probable space group: P 61
;
_chemical_formula_sum "Si O2"
_cell_formula_units_Z 42
_cell_length_a 12.150930
_cell_length_b 12.150930
_cell_length_c 17.355313
_cell_angle_alpha 90.000000
_cell_angle_beta 90.000000
_cell_angle_gamma 120.000000
_cell_volume 2219.126809
_symmetry_space_group_name_H-M "P 61"
_symmetry_group_IT_number 169
_symmetry_cell_setting 'hexagonal'
loop_
_space_group_symop_operation_xyz
x,y,z
x-y,x,1/6+z
-y,x-y,1/3+z
-x,-y,1/2+z
-x+y,-x,2/3+z
y,-x+y,5/6+z
loop_
_atom_site_type_symbol
_atom_site_label
_atom_site_fract_x
_atom_site_fract_y
_atom_site_fract_z
Si Si1 0.510384 0.074096 0.091780
Si Si2 0.694926 0.578475 0.176013
Si Si3 0.473839 0.103889 0.263531
Si Si4 0.723204 0.753266 0.033349
Si Si5 0.219473 0.562234 0.240368
Si Si6 0.343224 0.243902 0.188443
Si Si7 0.056465 0.014245 0.168855
O O1 0.513717 0.067966 0.184037
O O2 0.579832 0.221127 0.067160
O O3 0.363713 0.014550 0.064387
O O4 0.561885 0.990008 0.052892
O O5 0.727923 0.672610 0.103985
O O6 0.823417 0.646490 0.224417
O O7 0.655301 0.442590 0.137893
O O8 0.582323 0.164828 0.327800
O O9 0.427458 0.202437 0.239250
O O10 0.347812 0.988310 0.300724
O O11 0.866962 0.844570 0.004821
O O12 0.128244 0.421095 0.275238
O O13 0.203485 0.123936 0.178307
O O14 0.989114 0.021841 0.248020
#
# Coordination Sequence:
#
# PCOD9579873 Si02
#       7
#     6   6   6   6   6   6   6
#     4  10  22  39  61  90 122 163 208 252 316 384
#     4  10  22  39  59  89 125 157 195 262 308 370
#     4  10  20  35  63  91 115 160 214 256 306 378
#     4  11  21  37  62  93 121 156 214 262 311 372
#     4   9  21  36  58  88 123 152 206 257 308 362
#     4  10  20  37  63  93 119 163 212 270 311 376
#     4  12  22  37  66  98 125 165 215 275 322 380
#
# _framework density 18.926362000000001
#
# number of rings (size 3 to 8) (size 9 to 14) (size 15 to 20)
#    0.000    1.714    2.857    1.714    4.000    3.429 
#    0.000    2.857    0.000    0.000    0.000    0.000 
#    0.000    0.000    0.000    0.000    0.000    0.000 
#
# Total GULP energy -234170.854815 kJ/mol
# GULP energy per Si atom -5575.496543 kJ/mol
# Density = 1.888328 g / cm^3
# Si number density = 18.926362 Si / 1000 Ang^3
#
#
#
# Elastic Constant Matrix: (Units=GPa)
#
#
# Indices 1 2 3 4 5 6 
#
# 1 75.2012 30.4863 15.9670 0.0000 0.0000 0.0000
# 2 30.4863 75.2012 15.9670 0.0000 0.0000 0.0000
# 3 15.9670 15.9670 96.9956 0.0000 0.0000 0.0000
# 4 0.0000 0.0000 0.0000 21.4323 0.0000 0.0000
# 5 0.0000 0.0000 0.0000 0.0000 21.4323 0.0000
# 6 0.0000 0.0000 0.0000 0.0000 0.0000 22.3575
#
#
#
# Elastic Compliance Matrix: (Units=1/GPa)
#
#
# Indices 1 2 3 4 5 6 
#
# 1 0.016160 -0.006203 -0.001639 0.000000 0.000000 0.000000
# 2 -0.006203 0.016160 -0.001639 0.000000 0.000000 0.000000
# 3 -0.001639 -0.001639 0.010849 0.000000 0.000000 0.000000
# 4 0.000000 0.000000 0.000000 0.046659 0.000000 0.000000
# 5 0.000000 0.000000 0.000000 0.000000 0.046659 0.000000
# 6 0.000000 0.000000 0.000000 0.000000 0.000000 0.044728
#
#
# Mechanical properties :
#
#
# Convention : Reuss Voigt Hill
#
# Bulk Modulus (GPa) = 41.30997 41.35985 41.33491
# Shear Modulus (GPa) = 24.00989 25.37627 24.69308
#
# Velocity S-wave (km/s) = 3.56560 3.66565 3.61597
# Velocity P-wave (km/s) = 6.23100 6.31003 6.27064
#
# Compressibility (1/GPa) = 0.02420723
#
# Stress axis : x y z
#
# Youngs Moduli (GPa) = 61.87928 61.87928 92.17111
#
# Poissons Ratio (x) = 0.38386 0.15108
# Poissons Ratio (y) = 0.38386 0.15108
# Poissons Ratio (z) = 0.10143 0.10143
#
# Static dielectric constant tensor:
#      x y z
#    x 1.671830 0.000000 0.000000 
#    y 0.000000 1.671830 0.000000 
#    z 0.000000 0.000000 1.696670 
# 
# From -- ./inp_files/1388.got.cif
#   From: 2010.05.17/outbox.cif.g08.bks.cpg/sg169_cif.got.tgz:1388.got - 2010.05.20 11:12:54.
