data_PCOD9579939
_publ_section_title
;
Structure prediction by ZEFSAII (Michael W. Deem and Ramdas Pophale) SiO2 
 PCOD9579939
Probable space group: P 61
;
_chemical_formula_sum "Si O2"
_cell_formula_units_Z 36
_cell_length_a 14.476346
_cell_length_b 14.476346
_cell_length_c 10.086576
_cell_angle_alpha 90.000000
_cell_angle_beta 90.000000
_cell_angle_gamma 120.000000
_cell_volume 1830.595145
_symmetry_space_group_name_H-M "P 61"
_symmetry_group_IT_number 169
_symmetry_cell_setting 'hexagonal'
loop_
_space_group_symop_operation_xyz
x,y,z
x-y,x,1/6+z
-y,x-y,1/3+z
-x,-y,1/2+z
-x+y,-x,2/3+z
y,-x+y,5/6+z
loop_
_atom_site_type_symbol
_atom_site_label
_atom_site_fract_x
_atom_site_fract_y
_atom_site_fract_z
Si Si1 0.432147 0.864293 0.309990
Si Si2 0.074523 0.873073 0.769173
Si Si3 0.185311 0.774487 0.329566
Si Si4 0.225513 0.814689 0.623747
Si Si5 0.456183 0.456183 0.726656
Si Si6 0.126926 0.925477 0.184139
O O1 0.304356 0.793167 0.318738
O O2 0.488810 0.793166 0.301242
O O3 0.461979 0.938561 0.178989
O O4 0.476582 0.938561 0.440991
O O5 0.155561 0.833740 0.729716
O O6 0.994842 0.855271 0.649637
O O7 1.000000 0.808209 0.893323
O O8 0.182612 0.817387 0.476656
O O9 0.090810 0.653131 0.325886
O O10 0.166259 0.844438 0.223596
O O11 0.346868 0.909190 0.627426
O O12 0.005157 0.860428 0.137009
#
# Coordination Sequence:
#
# PCOD9579939 Si02
#       6
#     6   6   6   6   6   6
#     4  10  22  40  66  96 126 164 224 262 318 398
#     4  10  21  38  55  89 127 165 210 261 311 372
#     4  10  21  42  66  87 126 172 210 259 327 395
#     4  10  21  42  66  87 126 172 210 259 327 395
#     4  10  22  44  64  94 126 172 208 266 332 376
#     4  10  21  38  55  89 127 165 210 261 311 372
#
# _framework density 19.665735000000002
#
# number of rings (size 3 to 8) (size 9 to 14) (size 15 to 20)
#    0.000    2.000    0.000    4.000    2.333    0.000 
#   42.000    0.000    0.000    0.000    0.000    0.000 
#    0.000    0.000    0.000    0.000    0.000    0.000 
#
# Total GULP energy -200993.119742 kJ/mol
# GULP energy per Si atom -5583.142215 kJ/mol
# Density = 1.962098 g / cm^3
# Si number density = 19.665735 Si / 1000 Ang^3
#
#
#
# Elastic Constant Matrix: (Units=GPa)
#
#
# Indices 1 2 3 4 5 6 
#
# 1 90.2435 51.8320 42.3641 0.0000 0.0000 0.0000
# 2 51.8320 90.2435 42.3641 0.0000 0.0000 0.0000
# 3 42.3641 42.3641 45.4719 0.0000 0.0000 0.0000
# 4 0.0000 0.0000 0.0000 33.9173 0.0000 0.0000
# 5 0.0000 0.0000 0.0000 0.0000 33.9173 0.0000
# 6 0.0000 0.0000 0.0000 0.0000 0.0000 19.2058
#
#
#
# Elastic Compliance Matrix: (Units=1/GPa)
#
#
# Indices 1 2 3 4 5 6 
#
# 1 0.020936 -0.005098 -0.014756 0.000000 0.000000 0.000000
# 2 -0.005098 0.020936 -0.014756 0.000000 0.000000 0.000000
# 3 -0.014756 -0.014756 0.049486 0.000000 0.000000 0.000000
# 4 0.000000 0.000000 0.000000 0.029483 0.000000 0.000000
# 5 0.000000 0.000000 0.000000 0.000000 0.029483 0.000000
# 6 0.000000 0.000000 0.000000 0.000000 0.000000 0.052068
#
#
# Mechanical properties :
#
#
# Convention : Reuss Voigt Hill
#
# Bulk Modulus (GPa) = 45.16799 55.45327 50.31063
# Shear Modulus (GPa) = 17.92167 23.36801 20.64484
#
# Velocity S-wave (km/s) = 3.02207 3.45085 3.24356
# Velocity P-wave (km/s) = 5.93253 6.64357 6.29809
#
# Compressibility (1/GPa) = 0.02213957
#
# Stress axis : x y z
#
# Youngs Moduli (GPa) = 47.76445 47.76445 20.20759
#
# Poissons Ratio (x) = 0.24349 0.29818
# Poissons Ratio (y) = 0.24349 0.29818
# Poissons Ratio (z) = 0.70481 0.70481
#
# Static dielectric constant tensor:
#      x y z
#    x 1.674880 0.000000 0.000000 
#    y 0.000000 1.674880 0.000000 
#    z 0.000000 0.000000 1.718770 
# 
# From -- ./inp_files/617.got.cif
#   From: 2010.05.17/outbox.cif.g08.bks.cpg/sg169_cif.got.tgz:617.got - 2010.05.20 11:12:54.
