data_PCOD9579059
_publ_section_title
;
Structure prediction by ZEFSAII (Michael W. Deem and Ramdas Pophale) SiO2 
 PCOD9579059
Probable space group: R -3 M
;
_chemical_formula_sum "Si O2"
_cell_formula_units_Z 252
_cell_length_a 31.059255
_cell_length_b 31.059255
_cell_length_c 17.313372
_cell_angle_alpha 90.000000
_cell_angle_beta 90.000000
_cell_angle_gamma 120.000000
_cell_volume 14464.198089
_symmetry_space_group_name_H-M "R -3 M"
_symmetry_group_IT_number 166
_symmetry_cell_setting 'hexagonal'
loop_
_space_group_symop_operation_xyz
x,y,z
-y,x-y,z
-x+y,-x,z
x-y,-y,-z
-x,-x+y,-z
y,x,-z
-x,-y,-z
y,-x+y,-z
x-y,x,-z
-x+y,y,z
x,x-y,z
-y,-x,z
2/3+x,1/3+y,1/3+z
2/3-y,1/3+x-y,1/3+z
2/3-x+y,1/3-x,1/3+z
2/3+x-y,1/3-y,1/3-z
2/3-x,1/3-x+y,1/3-z
2/3+y,1/3+x,1/3-z
2/3-x,1/3-y,1/3-z
2/3+y,1/3-x+y,1/3-z
2/3+x-y,1/3+x,1/3-z
2/3-x+y,1/3+y,1/3+z
2/3+x,1/3+x-y,1/3+z
2/3-y,1/3-x,1/3+z
1/3+x,2/3+y,2/3+z
1/3-y,2/3+x-y,2/3+z
1/3-x+y,2/3-x,2/3+z
1/3+x-y,2/3-y,2/3-z
1/3-x,2/3-x+y,2/3-z
1/3+y,2/3+x,2/3-z
1/3-x,2/3-y,2/3-z
1/3+y,2/3-x+y,2/3-z
1/3+x-y,2/3+x,2/3-z
1/3-x+y,2/3+y,2/3+z
1/3+x,2/3+x-y,2/3+z
1/3-y,2/3-x,2/3+z
loop_
_atom_site_type_symbol
_atom_site_label
_atom_site_fract_x
_atom_site_fract_y
_atom_site_fract_z
Si Si1 0.379786 0.522627 0.925936
Si Si2 0.474947 0.053056 0.963982
Si Si3 0.544407 0.928233 0.628666
Si Si4 0.754563 0.153008 0.456410
Si Si5 0.532717 0.570278 0.355098
Si Si6 0.946785 0.154198 0.189957
Si Si7 0.365099 0.087272 0.858193
O O1 0.419958 0.580043 0.944535
O O2 0.399256 0.508319 0.849543
O O3 0.324282 0.506415 0.900651
O O4 0.384118 0.486973 0.989970
O O5 0.525851 0.051702 0.969695
O O6 0.461050 0.055460 0.876229
O O7 0.432705 0.000000 0.000000
O O8 0.587861 0.921194 0.666667
O O9 0.508416 0.916604 0.702354
O O10 0.518591 0.892010 0.556736
O O11 0.561245 0.985210 0.610895
O O12 0.814182 0.185819 0.466781
O O13 0.735810 0.095910 0.475153
O O14 0.483480 0.516521 0.338898
O O15 0.516498 0.597011 0.417247
O O16 0.554778 0.602224 0.276500
O O17 0.899618 0.100383 0.175096
O O18 0.379603 0.046270 0.833334
#
# Coordination Sequence:
#
# PCOD9579059 Si02
#       7
#    36  36  36  36  36  36  36
#     4  10  20  35  55  80 105 132 175 223 266 319
#     4  10  18  31  54  76  98 136 180 219 257 305
#     4  11  20  34  52  81 103 137 187 223 263 305
#     4  10  19  35  52  69 101 138 176 216 260 312
#     4  10  22  39  55  73 107 152 186 219 266 320
#     4  11  22  39  58  79 106 139 181 224 273 327
#     4  11  20  32  47  75 108 139 178 217 264 307
#
# _framework density 17.422328
#
# number of rings (size 3 to 8) (size 9 to 14) (size 15 to 20)
#    0.000    1.571    2.857    4.714    0.000    1.143 
#    5.143    0.714    0.000    0.286    0.000    0.000 
#    0.000    0.571    0.000    0.000    0.000   29.714 
#
# Total GULP energy -468071.852608 kJ/mol
# GULP energy per Si atom -5572.283960 kJ/mol
# Density = 1.738267 g / cm^3
# Si number density = 17.422328 Si / 1000 Ang^3
#
#
#
# Elastic Constant Matrix: (Units=GPa)
#
#
# Indices 1 2 3 4 5 6 
#
# 1 56.3104 28.9714 12.3433 -1.0810 -0.0002 0.0000
# 2 28.9714 56.3104 12.3433 1.0810 0.0002 0.0000
# 3 12.3433 12.3433 56.6157 0.0000 0.0000 0.0000
# 4 -1.0810 1.0810 0.0000 11.0945 0.0000 0.0002
# 5 -0.0002 0.0002 0.0000 0.0000 11.0945 -1.0810
# 6 0.0000 0.0000 0.0000 0.0002 -1.0810 13.6695
#
#
#
# Elastic Compliance Matrix: (Units=1/GPa)
#
#
# Indices 1 2 3 4 5 6 
#
# 1 0.024689 -0.012173 -0.002729 0.003591 0.000001 0.000000
# 2 -0.012173 0.024689 -0.002729 -0.003591 -0.000001 0.000000
# 3 -0.002729 -0.002729 0.018853 0.000000 0.000000 0.000000
# 4 0.003591 -0.003591 0.000000 0.090834 0.000000 -0.000002
# 5 0.000001 -0.000001 0.000000 0.000000 0.090834 0.007183
# 6 0.000000 0.000000 0.000000 -0.000002 0.007183 0.073724
#
#
# Mechanical properties :
#
#
# Convention : Reuss Voigt Hill
#
# Bulk Modulus (GPa) = 30.33107 30.72806 30.52957
# Shear Modulus (GPa) = 13.51814 14.87694 14.19754
#
# Velocity S-wave (km/s) = 2.78854 2.92533 2.85775
# Velocity P-wave (km/s) = 5.27399 5.39310 5.33388
#
# Compressibility (1/GPa) = 0.03296949
#
# Stress axis : x y z
#
# Youngs Moduli (GPa) = 40.50430 40.50430 53.04262
#
# Poissons Ratio (x) = 0.49306 0.14474
# Poissons Ratio (y) = 0.49306 0.14474
# Poissons Ratio (z) = 0.11052 0.11052
#
# Static dielectric constant tensor:
#      x y z
#    x 1.635350 0.000000 0.000000 
#    y 0.000000 1.635350 0.000000 
#    z 0.000000 0.000000 1.612170 
# 
# From -- ./inp_files/5836.got.cif
#   From: 2010.05.17/outbox.cif.g08.bks.cpg/sg166_3_cif.got.tgz:5836.got - 2010.05.20 11:04:41.
