data_PCOD9579299
_publ_section_title
;
Structure prediction by ZEFSAII (Michael W. Deem and Ramdas Pophale) SiO2 
 PCOD9579299
Probable space group: R -3 M
;
_chemical_formula_sum "Si O2"
_cell_formula_units_Z 144
_cell_length_a 27.240539
_cell_length_b 27.240539
_cell_length_c 9.627640
_cell_angle_alpha 90.000000
_cell_angle_beta 90.000000
_cell_angle_gamma 120.000000
_cell_volume 6187.024951
_symmetry_space_group_name_H-M "R -3 M"
_symmetry_group_IT_number 166
_symmetry_cell_setting 'hexagonal'
loop_
_space_group_symop_operation_xyz
x,y,z
-y,x-y,z
-x+y,-x,z
x-y,-y,-z
-x,-x+y,-z
y,x,-z
-x,-y,-z
y,-x+y,-z
x-y,x,-z
-x+y,y,z
x,x-y,z
-y,-x,z
2/3+x,1/3+y,1/3+z
2/3-y,1/3+x-y,1/3+z
2/3-x+y,1/3-x,1/3+z
2/3+x-y,1/3-y,1/3-z
2/3-x,1/3-x+y,1/3-z
2/3+y,1/3+x,1/3-z
2/3-x,1/3-y,1/3-z
2/3+y,1/3-x+y,1/3-z
2/3+x-y,1/3+x,1/3-z
2/3-x+y,1/3+y,1/3+z
2/3+x,1/3+x-y,1/3+z
2/3-y,1/3-x,1/3+z
1/3+x,2/3+y,2/3+z
1/3-y,2/3+x-y,2/3+z
1/3-x+y,2/3-x,2/3+z
1/3+x-y,2/3-y,2/3-z
1/3-x,2/3-x+y,2/3-z
1/3+y,2/3+x,2/3-z
1/3-x,2/3-y,2/3-z
1/3+y,2/3-x+y,2/3-z
1/3+x-y,2/3+x,2/3-z
1/3-x+y,2/3+y,2/3+z
1/3+x,2/3+x-y,2/3+z
1/3-y,2/3-x,2/3+z
loop_
_atom_site_type_symbol
_atom_site_label
_atom_site_fract_x
_atom_site_fract_y
_atom_site_fract_z
Si Si1 0.393742 0.493655 0.666773
Si Si2 0.000412 0.888838 0.333647
Si Si3 0.334960 0.273273 0.505781
Si Si4 0.822975 0.760146 0.317181
O O1 0.446185 0.553816 0.705094
O O2 0.333334 0.490482 0.666667
O O3 0.387956 0.444711 0.767972
O O4 0.404732 0.479997 0.510142
O O5 0.059903 0.940098 0.281474
O O6 0.000000 0.895963 0.500000
O O7 0.945720 0.891439 0.276836
O O8 0.988185 0.825008 0.316672
O O9 0.329635 0.329635 0.500000
O O10 0.333334 0.257593 0.666667
O O11 0.281700 0.226812 0.417072
O O12 0.880955 0.761909 0.362951
#
# Coordination Sequence:
#
# PCOD9579299 Si02
#       4
#    36  36  36  36
#     4  11  25  46  71  99 136 180 224 273 334 405
#     4   9  17  31  55  90 133 178 223 273 331 397
#     4  12  25  43  69  99 132 171 223 283 342 403
#     4  10  22  41  65  95 133 176 220 274 340 404
#
# _framework density 23.274512999999999
#
# number of rings (size 3 to 8) (size 9 to 14) (size 15 to 20)
#    0.000    1.500    0.000    4.750    0.000    6.000 
#    0.000    3.750    0.000    0.250    0.000    0.000 
#    0.000    0.000    0.000    0.000    0.000    0.000 
#
# Total GULP energy -268675.686415 kJ/mol
# GULP energy per Si atom -5597.410134 kJ/mol
# Density = 2.322154 g / cm^3
# Si number density = 23.274513 Si / 1000 Ang^3
#
#
#
# Elastic Constant Matrix: (Units=GPa)
#
#
# Indices 1 2 3 4 5 6 
#
# 1 139.8718 83.7673 27.0441 6.4895 -0.0125 -0.0019
# 2 83.7673 139.8845 27.0398 -6.4921 0.0055 0.0040
# 3 27.0441 27.0398 95.8386 -0.0073 -0.0173 0.0018
# 4 6.4895 -6.4921 -0.0073 21.3490 -0.0077 0.0050
# 5 -0.0125 0.0055 -0.0173 -0.0077 21.3192 6.4926
# 6 -0.0019 0.0040 0.0018 0.0050 6.4926 28.0650
#
#
#
# Elastic Compliance Matrix: (Units=1/GPa)
#
#
# Indices 1 2 3 4 5 6 
#
# 1 0.011985 -0.007186 -0.001355 -0.005829 0.000005 0.000002
# 2 -0.007186 0.011984 -0.001353 0.005828 -0.000006 -0.000002
# 3 -0.001355 -0.001353 0.011198 0.000004 0.000010 -0.000003
# 4 -0.005829 0.005828 0.000004 0.050385 0.000018 -0.000014
# 5 0.000005 -0.000006 0.000010 0.000018 0.050461 -0.011674
# 6 0.000002 -0.000002 -0.000003 -0.000014 -0.011674 0.038332
#
#
# Mechanical properties :
#
#
# Convention : Reuss Voigt Hill
#
# Bulk Modulus (GPa) = 65.02037 72.36635 68.69336
# Shear Modulus (GPa) = 25.09287 29.99623 27.54455
#
# Velocity S-wave (km/s) = 3.28705 3.59388 3.44388
# Velocity P-wave (km/s) = 6.51177 6.95567 6.73738
#
# Compressibility (1/GPa) = 0.01537980
#
# Stress axis : x y z
#
# Youngs Moduli (GPa) = 83.43559 83.44584 89.29904
#
# Poissons Ratio (x) = 0.59962 0.12101
# Poissons Ratio (y) = 0.59955 0.12082
# Poissons Ratio (z) = 0.11306 0.11290
#
# Static dielectric constant tensor:
#      x y z
#    x 1.884620 0.000000 -0.000010 
#    y 0.000000 1.884630 0.000000 
#    z -0.000010 0.000000 1.890330 
# 
# From -- ./inp_files/1806.got.cif
#   From: 2010.05.17/outbox.cif.g08.bks.cpg/sg166_1_cif.got.tgz:1806.got - 2010.05.20 11:04:41.
