data_PCOD9579312
_publ_section_title
;
Structure prediction by ZEFSAII (Michael W. Deem and Ramdas Pophale) SiO2 
 PCOD9579312
Probable space group: R -3 M
;
_chemical_formula_sum "Si O2"
_cell_formula_units_Z 162
_cell_length_a 23.645667
_cell_length_b 23.645667
_cell_length_c 17.402511
_cell_angle_alpha 90.000000
_cell_angle_beta 90.000000
_cell_angle_gamma 120.000000
_cell_volume 8426.470156
_symmetry_space_group_name_H-M "R -3 M"
_symmetry_group_IT_number 166
_symmetry_cell_setting 'hexagonal'
loop_
_space_group_symop_operation_xyz
x,y,z
-y,x-y,z
-x+y,-x,z
x-y,-y,-z
-x,-x+y,-z
y,x,-z
-x,-y,-z
y,-x+y,-z
x-y,x,-z
-x+y,y,z
x,x-y,z
-y,-x,z
2/3+x,1/3+y,1/3+z
2/3-y,1/3+x-y,1/3+z
2/3-x+y,1/3-x,1/3+z
2/3+x-y,1/3-y,1/3-z
2/3-x,1/3-x+y,1/3-z
2/3+y,1/3+x,1/3-z
2/3-x,1/3-y,1/3-z
2/3+y,1/3-x+y,1/3-z
2/3+x-y,1/3+x,1/3-z
2/3-x+y,1/3+y,1/3+z
2/3+x,1/3+x-y,1/3+z
2/3-y,1/3-x,1/3+z
1/3+x,2/3+y,2/3+z
1/3-y,2/3+x-y,2/3+z
1/3-x+y,2/3-x,2/3+z
1/3+x-y,2/3-y,2/3-z
1/3-x,2/3-x+y,2/3-z
1/3+y,2/3+x,2/3-z
1/3-x,2/3-y,2/3-z
1/3+y,2/3-x+y,2/3-z
1/3+x-y,2/3+x,2/3-z
1/3-x+y,2/3+y,2/3+z
1/3+x,2/3+x-y,2/3+z
1/3-y,2/3-x,2/3+z
loop_
_atom_site_type_symbol
_atom_site_label
_atom_site_fract_x
_atom_site_fract_y
_atom_site_fract_z
Si Si1 0.244109 0.122055 0.254643
Si Si2 0.031264 0.193829 0.274889
Si Si3 0.866367 0.133634 0.071315
Si Si4 0.430561 0.333334 0.333334
Si Si5 0.520382 0.911278 0.113608
Si Si6 0.291189 0.027278 0.841725
O O1 0.198242 0.151191 0.279666
O O2 0.254133 0.127067 0.162435
O O3 0.320780 0.160390 0.281579
O O4 0.084449 0.168898 0.267536
O O5 0.049422 0.232080 0.355989
O O6 0.036096 0.235938 0.199816
O O7 0.939769 0.173232 0.038259
O O8 0.377880 0.299802 0.400782
O O9 0.458135 0.916270 0.137137
O O10 0.524344 0.857677 0.166667
O O11 0.584726 0.978197 0.133550
O O12 0.292642 0.959308 0.833334
#
# Coordination Sequence:
#
# PCOD9579312 Si02
#       6
#    18  36  18  18  36  36
#     4  11  24  46  70  97 134 177 229 289 339 406
#     4  11  24  44  66  93 131 176 225 277 335 405
#     4  11  26  44  68 102 135 181 227 285 345 414
#     4  12  26  40  66  99 139 180 226 268 346 406
#     4  10  24  39  62  92 125 166 211 266 333 399
#     4  11  24  37  64  95 132 170 213 270 329 404
#
# _framework density 19.225131000000001
#
# number of rings (size 3 to 8) (size 9 to 14) (size 15 to 20)
#    0.000    1.111    2.222    2.667   17.111    1.778 
#    0.667    0.000    0.000    0.444    0.000    0.000 
#    0.000    0.000    0.000    0.000    0.000    0.000 
#
# Total GULP energy -300739.233124 kJ/mol
# GULP energy per Si atom -5569.245058 kJ/mol
# Density = 1.918137 g / cm^3
# Si number density = 19.225131 Si / 1000 Ang^3
#
#
#
# Elastic Constant Matrix: (Units=GPa)
#
#
# Indices 1 2 3 4 5 6 
#
# 1 96.8523 47.0210 9.5895 -2.2420 0.0000 0.0000
# 2 47.0210 96.8523 9.5895 2.2420 0.0000 0.0000
# 3 9.5895 9.5895 84.3170 0.0000 0.0000 0.0000
# 4 -2.2420 2.2420 0.0000 28.6008 0.0000 0.0000
# 5 0.0000 0.0000 0.0000 0.0000 28.6008 -2.2420
# 6 0.0000 0.0000 0.0000 0.0000 -2.2420 24.9157
#
#
#
# Elastic Compliance Matrix: (Units=1/GPa)
#
#
# Indices 1 2 3 4 5 6 
#
# 1 0.013634 -0.006576 -0.000803 0.001584 0.000000 0.000000
# 2 -0.006576 0.013634 -0.000803 -0.001584 0.000000 0.000000
# 3 -0.000803 -0.000803 0.012043 0.000000 0.000000 0.000000
# 4 0.001584 -0.001584 0.000000 0.035212 0.000000 0.000000
# 5 0.000000 0.000000 0.000000 0.000000 0.035212 0.003169
# 6 0.000000 0.000000 0.000000 0.000000 0.003169 0.040420
#
#
# Mechanical properties :
#
#
# Convention : Reuss Voigt Hill
#
# Bulk Modulus (GPa) = 43.57864 45.60242 44.59053
# Shear Modulus (GPa) = 28.70791 30.54491 29.62641
#
# Velocity S-wave (km/s) = 3.86845 3.99030 3.92985
# Velocity P-wave (km/s) = 6.53222 6.70833 6.62086
#
# Compressibility (1/GPa) = 0.02294702
#
# Stress axis : x y z
#
# Youngs Moduli (GPa) = 73.34659 73.34659 83.03872
#
# Poissons Ratio (x) = 0.48235 0.06665
# Poissons Ratio (y) = 0.48235 0.06665
# Poissons Ratio (z) = 0.05887 0.05887
#
# Static dielectric constant tensor:
#      x y z
#    x 1.735760 0.000000 0.000000 
#    y 0.000000 1.735760 0.000000 
#    z 0.000000 0.000000 1.888750 
# 
# From -- ./inp_files/5487.got.cif
#   From: 2010.05.17/outbox.cif.g08.bks.cpg/sg166_3_cif.got.tgz:5487.got - 2010.05.20 11:04:41.
