data_PCOD9579419
_publ_section_title
;
Structure prediction by ZEFSAII (Michael W. Deem and Ramdas Pophale) SiO2 
 PCOD9579419
Probable space group: R -3 C 
;
_chemical_formula_sum "Si O2"
_cell_formula_units_Z 210
_cell_length_a 28.295477
_cell_length_b 28.295477
_cell_length_c 17.371713
_cell_angle_alpha 90.000000
_cell_angle_beta 90.000000
_cell_angle_gamma 120.000000
_cell_volume 12045.014207
_symmetry_space_group_name_H-M "R -3 C "
_symmetry_group_IT_number 167
_symmetry_cell_setting 'hexagonal'
loop_
_space_group_symop_operation_xyz
x,y,z
-y,x-y,z
-x+y,-x,z
x-y,-y,1/2-z
-x,-x+y,1/2-z
y,x,1/2-z
-x,-y,-z
y,-x+y,-z
x-y,x,-z
-x+y,y,1/2+z
x,x-y,1/2+z
-y,-x,1/2+z
2/3+x,1/3+y,1/3+z
2/3-y,1/3+x-y,1/3+z
2/3-x+y,1/3-x,1/3+z
2/3+x-y,1/3-y,5/6-z
2/3-x,1/3-x+y,5/6-z
2/3+y,1/3+x,5/6-z
2/3-x,1/3-y,1/3-z
2/3+y,1/3-x+y,1/3-z
2/3+x-y,1/3+x,1/3-z
2/3-x+y,1/3+y,5/6+z
2/3+x,1/3+x-y,5/6+z
2/3-y,1/3-x,5/6+z
1/3+x,2/3+y,2/3+z
1/3-y,2/3+x-y,2/3+z
1/3-x+y,2/3-x,2/3+z
1/3+x-y,2/3-y,1/6-z
1/3-x,2/3-x+y,1/6-z
1/3+y,2/3+x,1/6-z
1/3-x,2/3-y,2/3-z
1/3+y,2/3-x+y,2/3-z
1/3+x-y,2/3+x,2/3-z
1/3-x+y,2/3+y,1/6+z
1/3+x,2/3+x-y,1/6+z
1/3-y,2/3-x,1/6+z
loop_
_atom_site_type_symbol
_atom_site_label
_atom_site_fract_x
_atom_site_fract_y
_atom_site_fract_z
Si Si1 0.558935 0.795430 0.991009
Si Si2 0.722180 0.802796 0.533264
Si Si3 0.567960 0.666667 0.416667
Si Si4 0.705820 0.976086 0.413914
Si Si5 0.283089 0.719854 0.468993
Si Si6 0.000000 0.000000 0.408625
Si Si7 0.513655 0.517173 0.588682
O O1 0.561623 0.843168 0.936772
O O2 0.499638 0.743303 0.986755
O O3 0.610983 0.791798 0.963176
O O4 0.567588 0.817521 0.078063
O O5 0.666667 0.774457 0.583334
O O6 0.735431 0.753751 0.528057
O O7 0.708044 0.829297 0.462138
O O8 0.603661 0.677065 0.340001
O O9 0.691299 0.914576 0.429718
O O10 0.657309 0.990643 0.416667
O O11 0.252688 0.666667 0.416667
O O12 0.333334 0.763001 0.416667
O O13 0.307839 0.702291 0.540011
O O14 0.000000 0.000000 0.500000
O O15 0.500000 0.500000 0.500000
#
# Coordination Sequence:
#
# PCOD9579419 Si02
#       7
#    36  36  18  36  36  12  36
#     4  10  18  35  59  81 113 153 199 236 295 350
#     4   8  19  38  56  77 115 158 193 236 299 361
#     4  10  18  36  62  84 108 164 198 232 286 382
#     4  10  21  37  60  86 115 155 203 241 301 364
#     4   9  18  34  58  84 114 154 195 236 295 366
#     4   9  19  38  58  84 115 152 193 246 301 359
#     4  11  21  37  59  89 117 152 205 255 291 355
#
# _framework density 17.4346
#
# number of rings (size 3 to 8) (size 9 to 14) (size 15 to 20)
#    0.000    2.400    2.571    1.714    0.000    0.686 
#    4.629    8.571    0.000    0.000    0.000    0.000 
#    0.000    0.000    0.000    0.000    0.000    0.000 
#
# Total GULP energy -389897.429269 kJ/mol
# GULP energy per Si atom -5569.963275 kJ/mol
# Density = 1.739492 g / cm^3
# Si number density = 17.434600 Si / 1000 Ang^3
#
#
#
# Elastic Constant Matrix: (Units=GPa)
#
#
# Indices 1 2 3 4 5 6 
#
# 1 107.2966 46.7455 40.8193 2.0479 0.0004 0.0000
# 2 46.7455 107.2966 40.8193 -2.0479 -0.0004 0.0000
# 3 40.8193 40.8193 84.7169 0.0000 0.0000 0.0000
# 4 2.0479 -2.0479 0.0000 19.3291 0.0000 -0.0004
# 5 0.0004 -0.0004 0.0000 0.0000 19.3291 2.0479
# 6 0.0000 0.0000 0.0000 -0.0004 2.0479 30.2756
#
#
#
# Elastic Compliance Matrix: (Units=1/GPa)
#
#
# Indices 1 2 3 4 5 6 
#
# 1 0.012676 -0.003958 -0.004201 -0.001762 0.000000 0.000000
# 2 -0.003958 0.012676 -0.004201 0.001762 0.000000 0.000000
# 3 -0.004201 -0.004201 0.015852 0.000000 0.000000 0.000000
# 4 -0.001762 0.001762 0.000000 0.052109 0.000000 0.000001
# 5 0.000000 0.000000 0.000000 0.000000 0.052109 -0.003525
# 6 0.000000 0.000000 0.000000 0.000001 -0.003525 0.033268
#
#
# Mechanical properties :
#
#
# Convention : Reuss Voigt Hill
#
# Bulk Modulus (GPa) = 60.65929 61.78649 61.22289
# Shear Modulus (GPa) = 23.93441 25.18181 24.55811
#
# Velocity S-wave (km/s) = 3.70917 3.80459 3.75718
# Velocity P-wave (km/s) = 7.29465 7.40377 7.34941
#
# Compressibility (1/GPa) = 0.01648552
#
# Stress axis : x y z
#
# Youngs Moduli (GPa) = 78.88890 78.88890 63.08363
#
# Poissons Ratio (x) = 0.31225 0.26499
# Poissons Ratio (y) = 0.31225 0.26499
# Poissons Ratio (z) = 0.33138 0.33138
#
# Static dielectric constant tensor:
#      x y z
#    x 1.626950 0.000000 0.000000 
#    y 0.000000 1.626950 0.000000 
#    z 0.000000 0.000000 1.607380 
# 
# From -- ./inp_files/2518.got.cif
#   From: 2010.05.17/outbox.cif.g08.bks.cpg/sg167_2_cif.got.tgz:2518.got - 2010.05.20 11:09:15.
