data_PCOD9579154
_publ_section_title
;
Structure prediction by ZEFSAII (Michael W. Deem and Ramdas Pophale) SiO2 
 PCOD9579154
Probable space group: R -3 M
;
_chemical_formula_sum "Si O2"
_cell_formula_units_Z 162
_cell_length_a 22.098474
_cell_length_b 22.098474
_cell_length_c 18.786606
_cell_angle_alpha 90.000000
_cell_angle_beta 90.000000
_cell_angle_gamma 120.000000
_cell_volume 7945.176116
_symmetry_space_group_name_H-M "R -3 M"
_symmetry_group_IT_number 166
_symmetry_cell_setting 'hexagonal'
loop_
_space_group_symop_operation_xyz
x,y,z
-y,x-y,z
-x+y,-x,z
x-y,-y,-z
-x,-x+y,-z
y,x,-z
-x,-y,-z
y,-x+y,-z
x-y,x,-z
-x+y,y,z
x,x-y,z
-y,-x,z
2/3+x,1/3+y,1/3+z
2/3-y,1/3+x-y,1/3+z
2/3-x+y,1/3-x,1/3+z
2/3+x-y,1/3-y,1/3-z
2/3-x,1/3-x+y,1/3-z
2/3+y,1/3+x,1/3-z
2/3-x,1/3-y,1/3-z
2/3+y,1/3-x+y,1/3-z
2/3+x-y,1/3+x,1/3-z
2/3-x+y,1/3+y,1/3+z
2/3+x,1/3+x-y,1/3+z
2/3-y,1/3-x,1/3+z
1/3+x,2/3+y,2/3+z
1/3-y,2/3+x-y,2/3+z
1/3-x+y,2/3-x,2/3+z
1/3+x-y,2/3-y,2/3-z
1/3-x,2/3-x+y,2/3-z
1/3+y,2/3+x,2/3-z
1/3-x,2/3-y,2/3-z
1/3+y,2/3-x+y,2/3-z
1/3+x-y,2/3+x,2/3-z
1/3-x+y,2/3+y,2/3+z
1/3+x,2/3+x-y,2/3+z
1/3-y,2/3-x,2/3+z
loop_
_atom_site_type_symbol
_atom_site_label
_atom_site_fract_x
_atom_site_fract_y
_atom_site_fract_z
Si Si1 0.533128 0.608915 0.792054
Si Si2 0.265095 0.866301 0.886564
Si Si3 0.861422 0.999668 0.414195
Si Si4 0.477066 0.810399 0.666667
Si Si5 0.356831 0.406458 0.300134
O O1 0.468581 0.531420 0.801901
O O2 0.552534 0.655468 0.862754
O O3 0.510905 0.647589 0.732937
O O4 0.599348 0.605565 0.760902
O O5 0.216662 0.783339 0.878809
O O6 0.234188 0.900855 0.833334
O O7 0.259393 0.887727 0.966419
O O8 0.866985 0.933493 0.388738
O O9 0.864103 0.000000 0.500000
O O10 0.789563 0.995100 0.392183
O O11 0.927440 0.072561 0.389215
O O12 0.401757 0.803513 0.652579
O O13 0.299628 0.333334 0.333334
#
# Coordination Sequence:
#
# PCOD9579154 Si02
#       5
#    36  36  36  18  36
#     4  11  22  38  60  88 122 162 206 253 307 370
#     4  11  22  39  61  85 118 163 208 253 306 373
#     4  10  23  44  70  96 126 166 212 262 317 379
#     4  10  19  34  56  84 117 158 208 258 302 354
#     4  12  24  40  62  93 130 164 207 255 317 382
#
# _framework density 20.38973
#
# number of rings (size 3 to 8) (size 9 to 14) (size 15 to 20)
#    0.000    1.111    3.333    3.000    3.111    5.778 
#    0.000    0.000    0.000    0.444    0.000    0.000 
#    0.000    0.000    0.000    0.000    0.000    0.000 
#
# Total GULP energy -301904.216076 kJ/mol
# GULP energy per Si atom -5590.818816 kJ/mol
# Density = 2.034332 g / cm^3
# Si number density = 20.389730 Si / 1000 Ang^3
#
#
#
# Elastic Constant Matrix: (Units=GPa)
#
#
# Indices 1 2 3 4 5 6 
#
# 1 113.9312 78.0172 5.9486 -16.2879 -0.0011 0.0000
# 2 78.0172 113.9312 5.9486 16.2879 0.0011 0.0000
# 3 5.9486 5.9486 32.9565 0.0000 0.0000 0.0000
# 4 -16.2879 16.2879 0.0000 15.4222 0.0000 0.0011
# 5 -0.0011 0.0011 0.0000 0.0000 15.4222 -16.2879
# 6 0.0000 0.0000 0.0000 0.0011 -16.2879 17.9570
#
#
#
# Elastic Compliance Matrix: (Units=1/GPa)
#
#
# Indices 1 2 3 4 5 6 
#
# 1 0.333875 -0.328606 -0.000951 0.699671 0.000049 0.000000
# 2 -0.328606 0.333875 -0.000951 -0.699671 -0.000049 0.000000
# 3 -0.000951 -0.000951 0.030686 0.000000 0.000000 0.000000
# 4 0.699671 -0.699671 0.000000 1.542738 0.000000 -0.000097
# 5 0.000049 -0.000049 0.000000 0.000000 1.542738 1.399342
# 6 0.000000 0.000000 0.000000 -0.000097 1.399342 1.324963
#
#
# Mechanical properties :
#
#
# Convention : Reuss Voigt Hill
#
# Bulk Modulus (GPa) = 26.72387 48.96087 37.84237
# Shear Modulus (GPa) = 0.86470 21.15389 11.00930
#
# Velocity S-wave (km/s) = 0.65192 3.22448 2.32619
# Velocity P-wave (km/s) = 3.70158 6.15855 5.08082
#
# Compressibility (1/GPa) = 0.03741974
#
# Stress axis : x y z
#
# Youngs Moduli (GPa) = 2.99513 2.99513 32.58776
#
# Poissons Ratio (x) = 0.98422 0.03099
# Poissons Ratio (y) = 0.98422 0.03099
# Poissons Ratio (z) = 0.00285 0.00285
#
# Static dielectric constant tensor:
#      x y z
#    x 1.716260 0.000000 0.000000 
#    y 0.000000 1.716260 0.000000 
#    z 0.000000 0.000000 1.728290 
# 
# From -- ./inp_files/6743.got.cif
#   From: 2010.05.17/outbox.cif.g08.bks.cpg/sg166_4_cif.got.tgz:6743.got - 2010.05.20 11:04:41.
