data_PCOD9579692
_publ_section_title
;
Structure prediction by ZEFSAII (Michael W. Deem and Ramdas Pophale) SiO2 
 PCOD9579692
Probable space group: R -3 C 
;
_chemical_formula_sum "Si O2"
_cell_formula_units_Z 162
_cell_length_a 22.309922
_cell_length_b 22.309922
_cell_length_c 18.856940
_cell_angle_alpha 90.000000
_cell_angle_beta 90.000000
_cell_angle_gamma 120.000000
_cell_volume 8128.266882
_symmetry_space_group_name_H-M "R -3 C "
_symmetry_group_IT_number 167
_symmetry_cell_setting 'hexagonal'
loop_
_space_group_symop_operation_xyz
x,y,z
-y,x-y,z
-x+y,-x,z
x-y,-y,1/2-z
-x,-x+y,1/2-z
y,x,1/2-z
-x,-y,-z
y,-x+y,-z
x-y,x,-z
-x+y,y,1/2+z
x,x-y,1/2+z
-y,-x,1/2+z
2/3+x,1/3+y,1/3+z
2/3-y,1/3+x-y,1/3+z
2/3-x+y,1/3-x,1/3+z
2/3+x-y,1/3-y,5/6-z
2/3-x,1/3-x+y,5/6-z
2/3+y,1/3+x,5/6-z
2/3-x,1/3-y,1/3-z
2/3+y,1/3-x+y,1/3-z
2/3+x-y,1/3+x,1/3-z
2/3-x+y,1/3+y,5/6+z
2/3+x,1/3+x-y,5/6+z
2/3-y,1/3-x,5/6+z
1/3+x,2/3+y,2/3+z
1/3-y,2/3+x-y,2/3+z
1/3-x+y,2/3-x,2/3+z
1/3+x-y,2/3-y,1/6-z
1/3-x,2/3-x+y,1/6-z
1/3+y,2/3+x,1/6-z
1/3-x,2/3-y,2/3-z
1/3+y,2/3-x+y,2/3-z
1/3+x-y,2/3+x,2/3-z
1/3-x+y,2/3+y,1/6+z
1/3+x,2/3+x-y,1/6+z
1/3-y,2/3-x,1/6+z
loop_
_atom_site_type_symbol
_atom_site_label
_atom_site_fract_x
_atom_site_fract_y
_atom_site_fract_z
Si Si1 0.809910 0.710488 0.843635
Si Si2 0.013699 0.142834 0.420335
Si Si3 0.071898 0.626682 0.344286
Si Si4 0.649485 0.982819 0.916667
Si Si5 0.808918 0.346561 0.246808
O O1 0.780969 0.666667 0.916667
O O2 0.877304 0.706156 0.819581
O O3 0.754677 0.691280 0.780761
O O4 0.835913 0.789791 0.865840
O O5 0.016823 0.160807 0.503333
O O6 0.086482 0.151903 0.396591
O O7 0.988413 0.187270 0.378000
O O8 0.953897 0.063153 0.409612
O O9 0.103281 0.666667 0.416667
O O10 0.020020 0.650214 0.314393
#
# Coordination Sequence:
#
# PCOD9579692 Si02
#       5
#    36  36  36  18  36
#     4  11  24  44  67  93 132 172 218 275 332 400
#     4   9  18  35  61  92 128 165 210 271 316 390
#     4  11  25  44  65  94 130 167 217 272 332 394
#     4  12  26  46  68  94 124 178 224 270 332 402
#     4   9  18  35  62  93 124 167 216 260 327 381
#
# _framework density 19.930447999999998
#
# number of rings (size 3 to 8) (size 9 to 14) (size 15 to 20)
#    0.000    1.778    1.111    2.444    3.111    2.667 
#    8.000    0.000    0.000    0.000    0.000    0.000 
#    0.000    0.000    0.000    0.000    0.000    0.000 
#
# Total GULP energy -301641.125783 kJ/mol
# GULP energy per Si atom -5585.946774 kJ/mol
# Density = 1.988509 g / cm^3
# Si number density = 19.930448 Si / 1000 Ang^3
#
#
#
# Elastic Constant Matrix: (Units=GPa)
#
#
# Indices 1 2 3 4 5 6 
#
# 1 91.4082 36.6817 29.2976 10.8403 0.0000 0.0000
# 2 36.6817 91.4082 29.2976 -10.8403 0.0000 0.0000
# 3 29.2976 29.2976 28.1437 0.0000 0.0000 0.0000
# 4 10.8403 -10.8403 0.0000 50.8553 0.0000 0.0000
# 5 0.0000 0.0000 0.0000 0.0000 50.8553 10.8403
# 6 0.0000 0.0000 0.0000 0.0000 10.8403 27.3633
#
#
#
# Elastic Compliance Matrix: (Units=1/GPa)
#
#
# Indices 1 2 3 4 5 6 
#
# 1 0.017431 -0.002527 -0.015516 -0.004254 0.000000 0.000000
# 2 -0.002527 0.017431 -0.015516 0.004254 0.000000 0.000000
# 3 -0.015516 -0.015516 0.067837 0.000000 0.000000 0.000000
# 4 -0.004254 0.004254 0.000000 0.021477 0.000000 0.000000
# 5 0.000000 0.000000 0.000000 0.000000 0.021477 -0.008508
# 6 0.000000 0.000000 0.000000 0.000000 -0.008508 0.039916
#
#
# Mechanical properties :
#
#
# Convention : Reuss Voigt Hill
#
# Bulk Modulus (GPa) = 28.10401 44.61266 36.35833
# Shear Modulus (GPa) = 18.90013 33.52698 26.21356
#
# Velocity S-wave (km/s) = 3.08280 4.10591 3.63057
# Velocity P-wave (km/s) = 5.17718 6.70155 5.98807
#
# Compressibility (1/GPa) = 0.03558211
#
# Stress axis : x y z
#
# Youngs Moduli (GPa) = 57.36746 57.36746 14.74131
#
# Poissons Ratio (x) = 0.14494 0.22873
# Poissons Ratio (y) = 0.14494 0.22873
# Poissons Ratio (z) = 0.89012 0.89012
#
# Static dielectric constant tensor:
#      x y z
#    x 1.683090 0.000000 0.000000 
#    y 0.000000 1.683090 0.000000 
#    z 0.000000 0.000000 1.696280 
# 
# From -- ./inp_files/4431.got.cif
#   From: 2010.05.17/outbox.cif.g08.bks.cpg/sg167_3_cif.got.tgz:4431.got - 2010.05.20 11:09:15.
