data_PCOD9579769
_publ_section_title
;
Structure prediction by ZEFSAII (Michael W. Deem and Ramdas Pophale) SiO2 
 PCOD9579769
Probable space group: P 6
;
_chemical_formula_sum "Si O2"
_cell_formula_units_Z 48
_cell_length_a 17.622759
_cell_length_b 17.622759
_cell_length_c 7.642321
_cell_angle_alpha 90.000000
_cell_angle_beta 90.000000
_cell_angle_gamma 120.000000
_cell_volume 2055.434829
_symmetry_space_group_name_H-M "P 6"
_symmetry_group_IT_number 168
_symmetry_cell_setting 'hexagonal'
loop_
_space_group_symop_operation_xyz
x,y,z
x-y,x,z
-y,x-y,z
-x,-y,z
-x+y,-x,z
y,-x+y,z
loop_
_atom_site_type_symbol
_atom_site_label
_atom_site_fract_x
_atom_site_fract_y
_atom_site_fract_z
Si Si1 0.295761 0.472634 0.015200
Si Si2 0.704239 0.527366 0.589921
Si Si3 0.478231 0.631852 0.599804
Si Si4 0.631852 0.153620 0.005317
Si Si5 0.331067 0.988762 0.098106
Si Si6 0.808760 0.848384 0.088433
Si Si7 0.039624 0.191240 0.516687
Si Si8 0.657695 0.668933 0.507015
O O1 0.389499 0.552108 0.078678
O O2 0.219830 0.491306 0.078050
O O3 0.290117 0.383197 0.075519
O O4 0.294392 0.469403 0.802561
O O5 0.780170 0.508694 0.527071
O O6 0.610501 0.447892 0.526443
O O7 0.709883 0.616803 0.529602
O O8 0.561903 0.618951 0.590315
O O9 0.457486 0.636178 0.802561
O O10 0.618951 0.057048 0.014807
O O11 0.232665 0.949443 0.027913
O O12 0.326106 0.969057 0.302561
O O13 0.829252 0.943820 0.033408
O O14 0.807241 0.847314 0.302560
O O15 0.050557 0.283222 0.577208
O O16 0.114569 0.170748 0.571713
#
# Coordination Sequence:
#
# PCOD9579769 Si02
#       8
#     6   6   6   6   6   6   6   6
#     4  10  21  38  59  81 106 140 184 231 276 324
#     4  10  21  38  59  81 106 140 184 231 276 324
#     4  10  21  38  59  81 106 140 184 231 276 324
#     4  10  21  38  59  81 106 140 184 231 276 324
#     4  11  22  35  53  81 116 147 176 218 274 335
#     4   9  17  30  49  73 102 137 176 216 258 307
#     4   9  17  30  49  73 102 137 176 216 258 307
#     4  11  22  35  53  81 116 147 176 218 274 335
#
# _framework density 23.352720999999999
#
# number of rings (size 3 to 8) (size 9 to 14) (size 15 to 20)
#    0.000    2.000    0.000    3.750    0.000   10.000 
#    0.000    0.000    0.000    3.000    0.000    0.000 
#    0.000   12.000    0.000    0.000    0.000    0.000 
#
# Total GULP energy -268420.147139 kJ/mol
# GULP energy per Si atom -5592.086399 kJ/mol
# Density = 2.329957 g / cm^3
# Si number density = 23.352721 Si / 1000 Ang^3
#
#
#
# Elastic Constant Matrix: (Units=GPa)
#
#
# Indices 1 2 3 4 5 6 
#
# 1 73.5305 -8.3018 -2.4477 0.0000 0.0000 0.0000
# 2 -8.3018 73.5305 -2.4477 0.0000 0.0000 0.0000
# 3 -2.4477 -2.4477 48.1756 0.0000 0.0000 0.0000
# 4 0.0000 0.0000 0.0000 916.2812 0.0000 0.0000
# 5 0.0000 0.0000 0.0000 0.0000 916.2816 0.0000
# 6 0.0000 0.0000 0.0000 0.0000 0.0000 40.9161
#
#
#
# Elastic Compliance Matrix: (Units=1/GPa)
#
#
# Indices 1 2 3 4 5 6 
#
# 1 0.013805 0.001585 0.000782 0.000000 0.000000 0.000000
# 2 0.001585 0.013805 0.000782 0.000000 0.000000 0.000000
# 3 0.000782 0.000782 0.020837 0.000000 0.000000 0.000000
# 4 0.000000 0.000000 0.000000 0.001091 0.000000 0.000000
# 5 0.000000 0.000000 0.000000 0.000000 0.001091 0.000000
# 6 0.000000 0.000000 0.000000 0.000000 0.000000 0.024440
#
#
# Mechanical properties :
#
#
# Convention : Reuss Voigt Hill
#
# Bulk Modulus (GPa) = 18.26712 18.76025 18.51369
# Shear Modulus (GPa) = 57.45790 388.59135 223.02463
#
# Velocity S-wave (km/s) = 4.96566 12.91364 9.78315
# Velocity P-wave (km/s) = 6.38093 15.17895 11.64295
#
# Compressibility (1/GPa) = 0.05474315
#
# Stress axis : x y z
#
# Youngs Moduli (GPa) = 72.43888 72.43888 47.99188
#
# Poissons Ratio (x) = -0.11479 -0.03752
# Poissons Ratio (y) = -0.11479 -0.03752
# Poissons Ratio (z) = -0.05664 -0.05664
#
# Static dielectric constant tensor:
#      x y z
#    x 1.841430 0.000000 0.000000 
#    y 0.000000 1.841430 0.000000 
#    z 0.000000 0.000000 1.891080 
# 
# From -- ./inp_files/356.got.cif
#   From: 2010.05.17/outbox.cif.g08.bks.cpg/sg168_cif.got.tgz:356.got - 2010.05.20 11:12:33.
