data_PCOD9579383
_publ_section_title
;
Structure prediction by ZEFSAII (Michael W. Deem and Ramdas Pophale) SiO2 
 PCOD9579383
Probable space group: R -3 M
;
_chemical_formula_sum "Si O2"
_cell_formula_units_Z 72
_cell_length_a 24.000000
_cell_length_b 24.000000
_cell_length_c 24.000000
_cell_angle_alpha 90.000000
_cell_angle_beta 90.000000
_cell_angle_gamma 120.000000
_cell_volume 11971.935182
_symmetry_space_group_name_H-M "R -3 M"
_symmetry_group_IT_number 166
_symmetry_cell_setting 'hexagonal'
loop_
_space_group_symop_operation_xyz
x,y,z
-y,x-y,z
-x+y,-x,z
x-y,-y,-z
-x,-x+y,-z
y,x,-z
-x,-y,-z
y,-x+y,-z
x-y,x,-z
-x+y,y,z
x,x-y,z
-y,-x,z
2/3+x,1/3+y,1/3+z
2/3-y,1/3+x-y,1/3+z
2/3-x+y,1/3-x,1/3+z
2/3+x-y,1/3-y,1/3-z
2/3-x,1/3-x+y,1/3-z
2/3+y,1/3+x,1/3-z
2/3-x,1/3-y,1/3-z
2/3+y,1/3-x+y,1/3-z
2/3+x-y,1/3+x,1/3-z
2/3-x+y,1/3+y,1/3+z
2/3+x,1/3+x-y,1/3+z
2/3-y,1/3-x,1/3+z
1/3+x,2/3+y,2/3+z
1/3-y,2/3+x-y,2/3+z
1/3-x+y,2/3-x,2/3+z
1/3+x-y,2/3-y,2/3-z
1/3-x,2/3-x+y,2/3-z
1/3+y,2/3+x,2/3-z
1/3-x,2/3-y,2/3-z
1/3+y,2/3-x+y,2/3-z
1/3+x-y,2/3+x,2/3-z
1/3-x+y,2/3+y,2/3+z
1/3+x,2/3+x-y,2/3+z
1/3-y,2/3-x,2/3+z
loop_
_atom_site_type_symbol
_atom_site_label
_atom_site_fract_x
_atom_site_fract_y
_atom_site_fract_z
Si Si1 0.697792 0.058792 0.275628
Si Si2 0.147890 0.852110 0.921712
Si Si3 0.551135 0.448866 0.528482
Si Si4 0.548011 0.893316 0.902465
Si Si5 0.782900 0.825435 0.552520
Si Si6 0.123001 0.754590 0.535775
Si Si7 0.140183 0.408419 0.313186
O O1 0.666667 0.025447 0.333334
O O2 0.754620 0.130889 0.287843
O O3 0.730460 0.022739 0.245007
O O4 0.643536 0.059536 0.237642
O O5 0.183286 0.816715 0.893527
O O6 0.123296 0.876705 0.870224
O O7 0.509179 0.374975 0.546114
O O8 0.531908 0.932236 0.857750
O O9 0.516348 0.887808 0.961967
O O10 0.825105 0.825105 0.500000
O O11 0.796610 0.898305 0.567669
O O12 0.708603 0.787596 0.532617
O O13 0.786854 0.779702 0.601541
O O14 0.191245 0.808756 0.560154
O O15 0.205500 0.411000 0.293083
O O16 0.093281 0.333334 0.333334
#
# Coordination Sequence:
#
# PCOD9579383 Si02
#       7
#    36  18  18  36  36  36  36
#     4  11  21  33  53  77 114 147 179 221 272 334
#     4   9  18  34  50  76 106 142 181 211 264 333
#     4   9  18  32  54  78 104 141 181 218 265 335
#     4  11  20  35  56  80 110 147 182 224 278 334
#     4  11  23  39  60  86 117 156 197 239 291 348
#     4  11  22  34  53  82 114 147 186 230 279 337
#     4  11  23  39  60  87 117 151 194 242 294 347
#
# _framework density 6.0140650000000004
#
# number of rings (size 3 to 8) (size 9 to 14) (size 15 to 20)
#    0.000    1.333    1.667    6.000    2.333    2.667 
#    0.000    0.000    0.000    3.000    0.000    0.000 
#    9.167    0.667    0.000    0.000    0.000    0.000 
#
# Total GULP energy -401701.113793 kJ/mol
# GULP energy per Si atom -5579.182136 kJ/mol
# Density = 0.600038 g / cm^3
# Si number density = 6.014065 Si / 1000 Ang^3
#
#
#
# Elastic Constant Matrix: (Units=GPa)
#
#
# Indices 1 2 3 4 5 6 
#
# 1 89.3646 49.6939 21.0848 -2.7710 -0.0002 0.0000
# 2 49.6939 89.3646 21.0848 2.7710 0.0002 0.0000
# 3 21.0848 21.0848 62.1521 0.0000 0.0000 0.0000
# 4 -2.7710 2.7710 0.0000 23.5175 0.0000 0.0002
# 5 -0.0002 0.0002 0.0000 0.0000 23.5175 -2.7710
# 6 0.0000 0.0000 0.0000 0.0002 -2.7710 19.8353
#
#
#
# Elastic Compliance Matrix: (Units=1/GPa)
#
#
# Indices 1 2 3 4 5 6 
#
# 1 0.016823 -0.008807 -0.002719 0.003020 0.000000 0.000000
# 2 -0.008807 0.016823 -0.002719 -0.003020 0.000000 0.000000
# 3 -0.002719 -0.002719 0.017935 0.000000 0.000000 0.000000
# 4 0.003020 -0.003020 0.000000 0.043233 0.000000 0.000000
# 5 0.000000 0.000000 0.000000 0.000000 0.043233 0.006040
# 6 0.000000 0.000000 0.000000 0.000000 0.006040 0.051259
#
#
# Mechanical properties :
#
#
# Convention : Reuss Voigt Hill
#
# Bulk Modulus (GPa) = 43.31077 47.17874 45.24475
# Shear Modulus (GPa) = 22.17372 23.30859 22.74115
#
# Velocity S-wave (km/s) = 3.50950 3.59819 3.55412
# Velocity P-wave (km/s) = 6.36235 6.59307 6.47874
#
# Compressibility (1/GPa) = 0.02308894
#
# Stress axis : x y z
#
# Youngs Moduli (GPa) = 59.44373 59.44373 55.75812
#
# Poissons Ratio (x) = 0.52351 0.15163
# Poissons Ratio (y) = 0.52351 0.15163
# Poissons Ratio (z) = 0.16165 0.16165
#
# Static dielectric constant tensor:
#      x y z
#    x 1.641040 0.000000 0.000000 
#    y 0.000000 1.641040 0.000000 
#    z 0.000000 0.000000 1.636970 
# 
# From -- ./inp_files/8514.got.cif
#   From: 2010.05.17/outbox.ucp.g08.bks.cvg/sg166_5_cif.got.tgz:8514.got - 2010.06.11 15:16:39.
