data_PCOD9579327
_publ_section_title
;
Structure prediction by ZEFSAII (Michael W. Deem and Ramdas Pophale) SiO2 
 PCOD9579327
Probable space group: R -3 M
;
_chemical_formula_sum "Si O2"
_cell_formula_units_Z 180
_cell_length_a 24.850720
_cell_length_b 24.850720
_cell_length_c 17.501646
_cell_angle_alpha 90.000000
_cell_angle_beta 90.000000
_cell_angle_gamma 120.000000
_cell_volume 9360.250663
_symmetry_space_group_name_H-M "R -3 M"
_symmetry_group_IT_number 166
_symmetry_cell_setting 'hexagonal'
loop_
_space_group_symop_operation_xyz
x,y,z
-y,x-y,z
-x+y,-x,z
x-y,-y,-z
-x,-x+y,-z
y,x,-z
-x,-y,-z
y,-x+y,-z
x-y,x,-z
-x+y,y,z
x,x-y,z
-y,-x,z
2/3+x,1/3+y,1/3+z
2/3-y,1/3+x-y,1/3+z
2/3-x+y,1/3-x,1/3+z
2/3+x-y,1/3-y,1/3-z
2/3-x,1/3-x+y,1/3-z
2/3+y,1/3+x,1/3-z
2/3-x,1/3-y,1/3-z
2/3+y,1/3-x+y,1/3-z
2/3+x-y,1/3+x,1/3-z
2/3-x+y,1/3+y,1/3+z
2/3+x,1/3+x-y,1/3+z
2/3-y,1/3-x,1/3+z
1/3+x,2/3+y,2/3+z
1/3-y,2/3+x-y,2/3+z
1/3-x+y,2/3-x,2/3+z
1/3+x-y,2/3-y,2/3-z
1/3-x,2/3-x+y,2/3-z
1/3+y,2/3+x,2/3-z
1/3-x,2/3-y,2/3-z
1/3+y,2/3-x+y,2/3-z
1/3+x-y,2/3+x,2/3-z
1/3-x+y,2/3+y,2/3+z
1/3+x,2/3+x-y,2/3+z
1/3-y,2/3-x,2/3+z
loop_
_atom_site_type_symbol
_atom_site_label
_atom_site_fract_x
_atom_site_fract_y
_atom_site_fract_z
Si Si1 0.032698 0.234323 0.884047
Si Si2 0.753695 0.936945 0.452452
Si Si3 0.000000 0.875367 0.000000
Si Si4 0.941727 0.275060 0.666667
Si Si5 0.232335 0.885106 0.579610
Si Si6 0.940167 0.235497 0.267157
O O1 0.025589 0.176281 0.931793
O O2 0.046524 0.241168 0.792840
O O3 0.085000 0.303148 0.910237
O O4 0.968494 0.232539 0.905258
O O5 0.780784 0.890392 0.448548
O O6 0.724595 0.939249 0.370475
O O7 0.690972 0.903355 0.502315
O O8 0.796495 0.000000 0.500000
O O9 0.941373 0.882746 0.975552
O O10 0.964144 0.329269 0.603563
O O11 0.187670 0.812331 0.594121
O O12 0.217865 0.922027 0.645031
#
# Coordination Sequence:
#
# PCOD9579327 Si02
#       6
#    36  36  18  18  36  36
#     4  11  21  35  57  87 118 152 190 241 292 357
#     4  11  22  35  55  82 114 152 193 236 282 341
#     4  12  26  46  66  84 112 158 216 270 308 344
#     4  12  18  34  52  84 126 154 186 226 284 360
#     4  11  20  33  53  80 115 156 191 226 289 360
#     4  11  20  32  57  86 121 155 184 227 294 366
#
# _framework density 19.230253999999999
#
# number of rings (size 3 to 8) (size 9 to 14) (size 15 to 20)
#    0.000    0.800    8.000    1.000    0.000    0.800 
#    0.000    2.000    0.000    0.200    0.000    0.000 
#    0.000    0.000    0.000    0.000    0.000    0.000 
#
# Total GULP energy -334079.247094 kJ/mol
# GULP energy per Si atom -5567.987452 kJ/mol
# Density = 1.918648 g / cm^3
# Si number density = 19.230254 Si / 1000 Ang^3
#
#
#
# Elastic Constant Matrix: (Units=GPa)
#
#
# Indices 1 2 3 4 5 6 
#
# 1 82.1071 52.5270 19.6613 -0.8402 0.0000 0.0000
# 2 52.5270 82.1071 19.6613 0.8402 0.0000 0.0000
# 3 19.6613 19.6613 75.6639 0.0000 0.0000 0.0000
# 4 -0.8402 0.8402 0.0000 11.6435 0.0000 0.0000
# 5 0.0000 0.0000 0.0000 0.0000 11.6435 -0.8402
# 6 0.0000 0.0000 0.0000 0.0000 -0.8402 14.7901
#
#
#
# Elastic Compliance Matrix: (Units=1/GPa)
#
#
# Indices 1 2 3 4 5 6 
#
# 1 0.020992 -0.012954 -0.002089 0.002450 0.000000 0.000000
# 2 -0.012954 0.020992 -0.002089 -0.002450 0.000000 0.000000
# 3 -0.002089 -0.002089 0.014302 0.000000 0.000000 0.000000
# 4 0.002450 -0.002450 0.000000 0.086239 0.000000 0.000000
# 5 0.000000 0.000000 0.000000 0.000000 0.086239 0.004899
# 6 0.000000 0.000000 0.000000 0.000000 0.004899 0.067891
#
#
# Mechanical properties :
#
#
# Convention : Reuss Voigt Hill
#
# Bulk Modulus (GPa) = 45.40785 47.06414 46.23600
# Shear Modulus (GPa) = 14.78168 17.48397 16.13282
#
# Velocity S-wave (km/s) = 2.77549 3.01855 2.89957
# Velocity P-wave (km/s) = 5.82539 6.05607 5.94185
#
# Compressibility (1/GPa) = 0.02202262
#
# Stress axis : x y z
#
# Youngs Moduli (GPa) = 47.63812 47.63812 69.92144
#
# Poissons Ratio (x) = 0.61711 0.14603
# Poissons Ratio (y) = 0.61711 0.14603
# Poissons Ratio (z) = 0.09949 0.09949
#
# Static dielectric constant tensor:
#      x y z
#    x 1.706380 0.000000 0.000000 
#    y 0.000000 1.706380 0.000000 
#    z 0.000000 0.000000 1.817270 
# 
# From -- ./inp_files/5675.got.cif
#   From: 2010.05.17/outbox.cif.g08.bks.cpg/sg166_3_cif.got.tgz:5675.got - 2010.05.20 11:04:41.
