data_PCOD9579974
_publ_section_title
;
Structure prediction by ZEFSAII (Michael W. Deem and Ramdas Pophale) SiO2 
 PCOD9579974
Probable space group: P 61
;
_chemical_formula_sum "Si O2"
_cell_formula_units_Z 42
_cell_length_a 13.870183
_cell_length_b 13.870183
_cell_length_c 12.218670
_cell_angle_alpha 90.000000
_cell_angle_beta 90.000000
_cell_angle_gamma 120.000000
_cell_volume 2035.724247
_symmetry_space_group_name_H-M "P 61"
_symmetry_group_IT_number 169
_symmetry_cell_setting 'hexagonal'
loop_
_space_group_symop_operation_xyz
x,y,z
x-y,x,1/6+z
-y,x-y,1/3+z
-x,-y,1/2+z
-x+y,-x,2/3+z
y,-x+y,5/6+z
loop_
_atom_site_type_symbol
_atom_site_label
_atom_site_fract_x
_atom_site_fract_y
_atom_site_fract_z
Si Si1 0.487759 0.083882 0.182570
Si Si2 0.592675 0.076339 0.864435
Si Si3 0.908190 0.113763 0.201294
Si Si4 0.779891 0.452354 0.787519
Si Si5 0.285433 0.870904 0.580395
Si Si6 0.762455 0.369398 0.017790
Si Si7 0.645977 0.633286 0.634626
O O1 0.509772 0.206356 0.167103
O O2 0.599219 0.081133 0.148334
O O3 0.456284 0.040620 0.304439
O O4 0.387954 0.012384 0.097298
O O5 0.634619 0.164634 0.766405
O O6 0.492616 0.085921 0.922191
O O7 0.678097 0.087850 0.956661
O O8 0.800459 0.098296 0.133756
O O9 0.946498 0.228516 0.268611
O O10 0.009075 0.138774 0.116971
O O11 0.709119 0.363386 0.695108
O O12 0.890711 0.562835 0.753869
O O13 0.801637 0.394028 0.892343
O O14 0.236318 0.738265 0.565528
#
# Coordination Sequence:
#
# PCOD9579974 Si02
#       7
#     6   6   6   6   6   6   6
#     4  10  22  36  59  99 135 174 220 263 330 399
#     4  11  20  38  61  98 136 167 210 263 321 405
#     4  12  27  50  74  94 123 173 234 287 332 386
#     4  11  22  36  57  92 131 173 209 268 324 390
#     4  10  23  39  67  95 132 177 215 268 332 402
#     4  11  20  36  59  92 137 168 202 251 328 401
#     4  11  22  39  67  94 130 174 226 268 331 393
#
# _framework density 20.631477
#
# number of rings (size 3 to 8) (size 9 to 14) (size 15 to 20)
#    0.000    1.143    4.286    2.571    0.000    1.143 
#    2.571    2.857    0.000    0.000    0.000    0.000 
#    0.000    0.000    0.000    0.000    0.000    0.000 
#
# Total GULP energy -234636.799324 kJ/mol
# GULP energy per Si atom -5586.590460 kJ/mol
# Density = 2.058452 g / cm^3
# Si number density = 20.631477 Si / 1000 Ang^3
#
#
#
# Elastic Constant Matrix: (Units=GPa)
#
#
# Indices 1 2 3 4 5 6 
#
# 1 82.7683 39.1113 32.7856 0.0000 0.0000 0.0000
# 2 39.1113 82.7683 32.7856 0.0000 0.0000 0.0000
# 3 32.7856 32.7856 98.8500 0.0000 0.0000 0.0000
# 4 0.0000 0.0000 0.0000 35.2456 0.0000 0.0000
# 5 0.0000 0.0000 0.0000 0.0000 35.2456 0.0000
# 6 0.0000 0.0000 0.0000 0.0000 0.0000 21.8285
#
#
#
# Elastic Compliance Matrix: (Units=1/GPa)
#
#
# Indices 1 2 3 4 5 6 
#
# 1 0.016446 -0.006459 -0.003312 0.000000 0.000000 0.000000
# 2 -0.006459 0.016446 -0.003312 0.000000 0.000000 0.000000
# 3 -0.003312 -0.003312 0.012314 0.000000 0.000000 0.000000
# 4 0.000000 0.000000 0.000000 0.028372 0.000000 0.000000
# 5 0.000000 0.000000 0.000000 0.000000 0.028372 0.000000
# 6 0.000000 0.000000 0.000000 0.000000 0.000000 0.045812
#
#
# Mechanical properties :
#
#
# Convention : Reuss Voigt Hill
#
# Bulk Modulus (GPa) = 52.52682 52.63906 52.58294
# Shear Modulus (GPa) = 27.73510 29.11088 28.42299
#
# Velocity S-wave (km/s) = 3.67046 3.76039 3.71570
# Velocity P-wave (km/s) = 6.59377 6.66509 6.62953
#
# Compressibility (1/GPa) = 0.01903789
#
# Stress axis : x y z
#
# Youngs Moduli (GPa) = 60.80372 60.80372 81.21129
#
# Poissons Ratio (x) = 0.39276 0.26900
# Poissons Ratio (y) = 0.39276 0.26900
# Poissons Ratio (z) = 0.20140 0.20140
#
# Static dielectric constant tensor:
#      x y z
#    x 1.769390 0.000000 0.000000 
#    y 0.000000 1.769390 0.000000 
#    z 0.000000 0.000000 1.794500 
# 
# From -- ./inp_files/929.got.cif
#   From: 2010.05.17/outbox.cif.g08.bks.cpg/sg169_cif.got.tgz:929.got - 2010.05.20 11:12:54.
