data_PCOD9579948
_publ_section_title
;
Structure prediction by ZEFSAII (Michael W. Deem and Ramdas Pophale) SiO2 
 PCOD9579948
Probable space group: P 61
;
_chemical_formula_sum "Si O2"
_cell_formula_units_Z 24
_cell_length_a 10.804473
_cell_length_b 10.804473
_cell_length_c 9.608736
_cell_angle_alpha 90.000000
_cell_angle_beta 90.000000
_cell_angle_gamma 120.000000
_cell_volume 971.413356
_symmetry_space_group_name_H-M "P 61"
_symmetry_group_IT_number 169
_symmetry_cell_setting 'hexagonal'
loop_
_space_group_symop_operation_xyz
x,y,z
x-y,x,1/6+z
-y,x-y,1/3+z
-x,-y,1/2+z
-x+y,-x,2/3+z
y,-x+y,5/6+z
loop_
_atom_site_type_symbol
_atom_site_label
_atom_site_fract_x
_atom_site_fract_y
_atom_site_fract_z
Si Si1 0.204403 0.417792 0.276470
Si Si2 0.442602 0.895826 0.147914
Si Si3 0.810244 0.494448 0.482556
Si Si4 0.216427 0.960881 0.283443
O O1 0.096600 0.466006 0.336601
O O2 0.224798 0.438779 0.113723
O O3 0.344678 0.543042 0.352618
O O4 0.184192 0.270669 0.331927
O O5 0.459567 0.762559 0.194680
O O6 0.605435 0.021068 0.130578
O O7 0.333693 0.908551 0.260016
O O8 0.228410 0.058455 0.416099
#
# Coordination Sequence:
#
# PCOD9579948 Si02
#       4
#     6   6   6   6
#     4  10  21  39  65  98 130 171 219 276 330 394
#     4  10  23  39  66 100 131 176 222 279 331 399
#     4  11  22  38  64  96 134 167 221 273 334 395
#     4   9  20  40  67  90 131 178 218 266 331 394
#
# _framework density 24.70627
#
# number of rings (size 3 to 8) (size 9 to 14) (size 15 to 20)
#    0.000    2.000    2.500    0.000   10.500    0.000 
#    0.000    0.000   11.000    0.000    0.000    0.000 
#    0.000    0.000    0.000    0.000    0.000    0.000 
#
# Total GULP energy -133688.827371 kJ/mol
# GULP energy per Si atom -5570.367807 kJ/mol
# Density = 2.465004 g / cm^3
# Si number density = 24.706270 Si / 1000 Ang^3
#
#
#
# Elastic Constant Matrix: (Units=GPa)
#
#
# Indices 1 2 3 4 5 6 
#
# 1 102.6304 28.1113 25.1821 0.0000 0.0000 0.0000
# 2 28.1113 102.6304 25.1821 0.0000 0.0000 0.0000
# 3 25.1821 25.1821 65.3545 0.0000 0.0000 0.0000
# 4 0.0000 0.0000 0.0000 25.5340 0.0000 0.0000
# 5 0.0000 0.0000 0.0000 0.0000 25.5340 0.0000
# 6 0.0000 0.0000 0.0000 0.0000 0.0000 37.2595
#
#
#
# Elastic Compliance Matrix: (Units=1/GPa)
#
#
# Indices 1 2 3 4 5 6 
#
# 1 0.011201 -0.002219 -0.003461 0.000000 0.000000 0.000000
# 2 -0.002219 0.011201 -0.003461 0.000000 0.000000 0.000000
# 3 -0.003461 -0.003461 0.017968 0.000000 0.000000 0.000000
# 4 0.000000 0.000000 0.000000 0.039163 0.000000 0.000000
# 5 0.000000 0.000000 0.000000 0.000000 0.039163 0.000000
# 6 0.000000 0.000000 0.000000 0.000000 0.000000 0.026839
#
#
# Mechanical properties :
#
#
# Convention : Reuss Voigt Hill
#
# Bulk Modulus (GPa) = 45.27238 47.50736 46.38987
# Shear Modulus (GPa) = 29.20922 30.47483 29.84202
#
# Velocity S-wave (km/s) = 3.44213 3.51591 3.47922
# Velocity P-wave (km/s) = 5.84480 5.97936 5.91247
#
# Compressibility (1/GPa) = 0.02208852
#
# Stress axis : x y z
#
# Youngs Moduli (GPa) = 89.28078 89.28078 55.65386
#
# Poissons Ratio (x) = 0.19809 0.19261
# Poissons Ratio (y) = 0.19809 0.19261
# Poissons Ratio (z) = 0.30899 0.30899
#
# Static dielectric constant tensor:
#      x y z
#    x 2.111570 0.000000 0.000000 
#    y 0.000000 2.111570 0.000000 
#    z 0.000000 0.000000 2.050170 
# 
# From -- ./inp_files/834.got.cif
#   From: 2010.05.17/outbox.cif.g08.bks.cpg/sg169_cif.got.tgz:834.got - 2010.05.20 11:12:54.
