data_PCOD9579195
_publ_section_title
;
Structure prediction by ZEFSAII (Michael W. Deem and Ramdas Pophale) SiO2 
 PCOD9579195
Probable space group: R -3 M
;
_chemical_formula_sum "Si O2"
_cell_formula_units_Z 252
_cell_length_a 30.279824
_cell_length_b 30.279824
_cell_length_c 17.923188
_cell_angle_alpha 90.000000
_cell_angle_beta 90.000000
_cell_angle_gamma 120.000000
_cell_volume 14231.562518
_symmetry_space_group_name_H-M "R -3 M"
_symmetry_group_IT_number 166
_symmetry_cell_setting 'hexagonal'
loop_
_space_group_symop_operation_xyz
x,y,z
-y,x-y,z
-x+y,-x,z
x-y,-y,-z
-x,-x+y,-z
y,x,-z
-x,-y,-z
y,-x+y,-z
x-y,x,-z
-x+y,y,z
x,x-y,z
-y,-x,z
2/3+x,1/3+y,1/3+z
2/3-y,1/3+x-y,1/3+z
2/3-x+y,1/3-x,1/3+z
2/3+x-y,1/3-y,1/3-z
2/3-x,1/3-x+y,1/3-z
2/3+y,1/3+x,1/3-z
2/3-x,1/3-y,1/3-z
2/3+y,1/3-x+y,1/3-z
2/3+x-y,1/3+x,1/3-z
2/3-x+y,1/3+y,1/3+z
2/3+x,1/3+x-y,1/3+z
2/3-y,1/3-x,1/3+z
1/3+x,2/3+y,2/3+z
1/3-y,2/3+x-y,2/3+z
1/3-x+y,2/3-x,2/3+z
1/3+x-y,2/3-y,2/3-z
1/3-x,2/3-x+y,2/3-z
1/3+y,2/3+x,2/3-z
1/3-x,2/3-y,2/3-z
1/3+y,2/3-x+y,2/3-z
1/3+x-y,2/3+x,2/3-z
1/3-x+y,2/3+y,2/3+z
1/3+x,2/3+x-y,2/3+z
1/3-y,2/3-x,2/3+z
loop_
_atom_site_type_symbol
_atom_site_label
_atom_site_fract_x
_atom_site_fract_y
_atom_site_fract_z
Si Si1 0.717409 0.180021 0.194703
Si Si2 0.208643 0.198961 0.377185
Si Si3 0.446691 0.059477 0.346116
Si Si4 0.624892 0.760108 0.513189
Si Si5 0.856883 0.481641 0.095626
Si Si6 0.805482 0.714303 0.271162
Si Si7 0.922356 0.740403 0.513552
O O1 0.762159 0.237842 0.200428
O O2 0.709560 0.151486 0.272565
O O3 0.666414 0.174693 0.158973
O O4 0.738057 0.152378 0.137177
O O5 0.162875 0.174790 0.316703
O O6 0.258009 0.213314 0.328205
O O7 0.219041 0.171290 0.446969
O O8 0.201574 0.242346 0.415848
O O9 0.395523 0.062190 0.333334
O O10 0.466815 0.059132 0.263709
O O11 0.439893 0.010981 0.392447
O O12 0.627696 0.813848 0.505578
O O13 0.582231 0.725114 0.452480
O O14 0.683201 0.773564 0.505945
O O15 0.852279 0.426140 0.095189
O O16 0.858691 0.717381 0.295538
O O17 0.869990 0.739980 0.528760
#
# Coordination Sequence:
#
# PCOD9579195 Si02
#       7
#    36  36  36  36  36  36  36
#     4  10  21  37  58  82 106 139 186 227 272 329
#     4  10  20  34  54  81 105 143 190 228 272 322
#     4  12  21  34  51  81 110 144 184 228 270 314
#     4  10  20  36  55  72 104 149 183 220 272 323
#     4  10  21  38  56  81 111 139 180 229 276 329
#     4  10  20  37  56  77 110 150 185 225 273 324
#     4  10  20  36  56  79 108 146 189 228 273 327
#
# _framework density 17.707121000000001
#
# number of rings (size 3 to 8) (size 9 to 14) (size 15 to 20)
#    0.000    1.714    2.857    2.571    0.000    2.286 
#    5.143    2.143    0.000    0.286    0.000    0.000 
#    0.000    0.571    0.000   23.429    0.000    0.000 
#
# Total GULP energy -467658.306048 kJ/mol
# GULP energy per Si atom -5567.360786 kJ/mol
# Density = 1.766682 g / cm^3
# Si number density = 17.707121 Si / 1000 Ang^3
#
#
#
# Elastic Constant Matrix: (Units=GPa)
#
#
# Indices 1 2 3 4 5 6 
#
# 1 61.4921 53.7360 25.9916 -13.1419 0.0000 0.0000
# 2 53.7360 61.4921 25.9916 13.1419 0.0000 0.0000
# 3 25.9916 25.9916 67.0335 0.0000 0.0000 0.0000
# 4 -13.1419 13.1419 0.0000 5.7269 0.0000 0.0000
# 5 0.0000 0.0000 0.0000 0.0000 5.7269 -13.1419
# 6 0.0000 0.0000 0.0000 0.0000 -13.1419 3.8781
#
#
#
# Elastic Compliance Matrix: (Units=1/GPa)
#
#
# Indices 1 2 3 4 5 6 
#
# 1 -0.004254 0.014772 -0.004078 -0.043661 0.000000 0.000000
# 2 0.014772 -0.004254 -0.004078 0.043661 0.000000 0.000000
# 3 -0.004078 -0.004078 0.018081 0.000000 0.000000 0.000000
# 4 -0.043661 0.043661 0.000000 -0.025768 0.000000 0.000000
# 5 0.000000 0.000000 0.000000 0.000000 -0.025768 -0.087322
# 6 0.000000 0.000000 0.000000 0.000000 -0.087322 -0.038052
#
#
# Mechanical properties :
#
#
# Convention : Reuss Voigt Hill
#
# Bulk Modulus (GPa) = 43.85241 44.60621 44.22931
# Shear Modulus (GPa) = -58.38034 8.68628 -24.84703
#
# Velocity S-wave (km/s) = -5.74818 2.21725 -3.75002
# Velocity P-wave (km/s) = 4.38591 5.63921 2.50644
#
# Compressibility (1/GPa) = 0.02280376
#
# Stress axis : x y z
#
# Youngs Moduli (GPa) = -235.07494 -235.07497 55.30791
#
# Poissons Ratio (x) = 3.47260 0.22557
# Poissons Ratio (y) = 3.47259 0.22557
# Poissons Ratio (z) = -0.95872 -0.95872
#
# Static dielectric constant tensor:
#      x y z
#    x 1.606750 0.000000 0.000000 
#    y 0.000000 1.606750 0.000000 
#    z 0.000000 0.000000 1.642210 
# 
# From -- ./inp_files/5802.got.cif
#   From: 2010.05.17/outbox.cif.g08.bks.cpg/sg166_3_cif.got.tgz:5802.got - 2010.05.20 11:04:41.
