data_PCOD9579055
_publ_section_title
;
Structure prediction by ZEFSAII (Michael W. Deem and Ramdas Pophale) SiO2 
 PCOD9579055
Probable space group: R -3 M
;
_chemical_formula_sum "Si O2"
_cell_formula_units_Z 216
_cell_length_a 25.907914
_cell_length_b 25.907914
_cell_length_c 24.130748
_cell_angle_alpha 90.000000
_cell_angle_beta 90.000000
_cell_angle_gamma 120.000000
_cell_volume 14027.048852
_symmetry_space_group_name_H-M "R -3 M"
_symmetry_group_IT_number 166
_symmetry_cell_setting 'hexagonal'
loop_
_space_group_symop_operation_xyz
x,y,z
-y,x-y,z
-x+y,-x,z
x-y,-y,-z
-x,-x+y,-z
y,x,-z
-x,-y,-z
y,-x+y,-z
x-y,x,-z
-x+y,y,z
x,x-y,z
-y,-x,z
2/3+x,1/3+y,1/3+z
2/3-y,1/3+x-y,1/3+z
2/3-x+y,1/3-x,1/3+z
2/3+x-y,1/3-y,1/3-z
2/3-x,1/3-x+y,1/3-z
2/3+y,1/3+x,1/3-z
2/3-x,1/3-y,1/3-z
2/3+y,1/3-x+y,1/3-z
2/3+x-y,1/3+x,1/3-z
2/3-x+y,1/3+y,1/3+z
2/3+x,1/3+x-y,1/3+z
2/3-y,1/3-x,1/3+z
1/3+x,2/3+y,2/3+z
1/3-y,2/3+x-y,2/3+z
1/3-x+y,2/3-x,2/3+z
1/3+x-y,2/3-y,2/3-z
1/3-x,2/3-x+y,2/3-z
1/3+y,2/3+x,2/3-z
1/3-x,2/3-y,2/3-z
1/3+y,2/3-x+y,2/3-z
1/3+x-y,2/3+x,2/3-z
1/3-x+y,2/3+y,2/3+z
1/3+x,2/3+x-y,2/3+z
1/3-y,2/3-x,2/3+z
loop_
_atom_site_type_symbol
_atom_site_label
_atom_site_fract_x
_atom_site_fract_y
_atom_site_fract_z
Si Si1 0.624742 0.033279 0.124784
Si Si2 0.056548 0.664426 0.576285
Si Si3 0.595444 0.069088 0.015512
Si Si4 0.027611 0.455923 0.661856
Si Si5 0.160231 0.435845 0.027564
Si Si6 0.484633 0.085558 0.823870
O O1 0.653242 0.068816 0.181363
O O2 0.670226 0.014653 0.097576
O O3 0.609449 0.069222 0.080541
O O4 0.566507 0.972293 0.144874
O O5 0.053715 0.607833 0.605559
O O6 0.092730 0.716888 0.620174
O O7 0.537737 0.075475 0.005188
O O8 0.653797 0.121515 0.985073
O O9 0.575493 0.000000 0.000000
O O10 0.047328 0.523664 0.673412
O O11 0.956183 0.419631 0.656417
O O12 0.232414 0.464827 0.020811
O O13 0.147513 0.411803 0.090810
O O14 0.548124 0.096248 0.842567
O O15 0.473192 0.139859 0.833334
#
# Coordination Sequence:
#
# PCOD9579055 Si02
#       6
#    36  36  36  36  36  36
#     4  11  19  31  46  71  99 129 159 203 250 288
#     4  10  19  30  48  70  99 128 159 204 238 278
#     4  11  22  33  50  74 101 128 162 212 262 297
#     4  10  18  31  49  67  93 132 168 191 231 293
#     4  10  20  33  48  67  95 132 168 197 235 298
#     4  11  20  31  48  70  93 122 160 202 244 292
#
# _framework density 15.398819
#
# number of rings (size 3 to 8) (size 9 to 14) (size 15 to 20)
#    0.000    1.500    5.000    2.500    0.000    2.667 
#    0.000    2.500    0.000    0.500    0.000    0.000 
#    0.000    0.000    0.000   16.000    0.000    0.000 
#
# Total GULP energy -401092.709556 kJ/mol
# GULP energy per Si atom -5570.732077 kJ/mol
# Density = 1.536377 g / cm^3
# Si number density = 15.398819 Si / 1000 Ang^3
#
#
#
# Elastic Constant Matrix: (Units=GPa)
#
#
# Indices 1 2 3 4 5 6 
#
# 1 62.9593 27.0992 21.5350 -3.6863 0.0000 0.0000
# 2 27.0992 62.9593 21.5350 3.6863 0.0000 0.0000
# 3 21.5350 21.5350 60.7217 0.0000 0.0000 0.0000
# 4 -3.6863 3.6863 0.0000 14.8038 0.0000 0.0000
# 5 0.0000 0.0000 0.0000 0.0000 14.8038 -3.6863
# 6 0.0000 0.0000 0.0000 0.0000 -3.6863 17.9300
#
#
#
# Elastic Compliance Matrix: (Units=1/GPa)
#
#
# Indices 1 2 3 4 5 6 
#
# 1 0.021381 -0.008009 -0.004742 0.007319 0.000000 0.000000
# 2 -0.008009 0.021381 -0.004742 -0.007319 0.000000 0.000000
# 3 -0.004742 -0.004742 0.019832 0.000000 0.000000 0.000000
# 4 0.007319 -0.007319 0.000000 0.071195 0.000000 0.000000
# 5 0.000000 0.000000 0.000000 0.000000 0.071195 0.014637
# 6 0.000000 0.000000 0.000000 0.000000 0.014637 0.058782
#
#
# Mechanical properties :
#
#
# Convention : Reuss Voigt Hill
#
# Bulk Modulus (GPa) = 36.22304 36.33094 36.27699
# Shear Modulus (GPa) = 16.23602 17.27227 16.75415
#
# Velocity S-wave (km/s) = 3.25063 3.35276 3.30209
# Velocity P-wave (km/s) = 6.13703 6.21551 6.17639
#
# Compressibility (1/GPa) = 0.02760674
#
# Stress axis : x y z
#
# Youngs Moduli (GPa) = 46.76973 46.76973 50.42277
#
# Poissons Ratio (x) = 0.37460 0.23912
# Poissons Ratio (y) = 0.37460 0.23912
# Poissons Ratio (z) = 0.22180 0.22180
#
# Static dielectric constant tensor:
#      x y z
#    x 1.524320 0.000000 0.000000 
#    y 0.000000 1.524320 0.000000 
#    z 0.000000 0.000000 1.560700 
# 
# From -- ./inp_files/8638.got.cif
#   From: 2010.05.17/outbox.cif.g08.bks.cpg/sg166_5_cif.got.tgz:8638.got - 2010.05.20 11:04:41.
