data_PCOD9579586
_publ_section_title
;
Structure prediction by ZEFSAII (Michael W. Deem and Ramdas Pophale) SiO2 
 PCOD9579586
Probable space group: R -3 C 
;
_chemical_formula_sum "Si O2"
_cell_formula_units_Z 144
_cell_length_a 28.924295
_cell_length_b 28.924295
_cell_length_c 8.701540
_cell_angle_alpha 90.000000
_cell_angle_beta 90.000000
_cell_angle_gamma 120.000000
_cell_volume 6304.524215
_symmetry_space_group_name_H-M "R -3 C "
_symmetry_group_IT_number 167
_symmetry_cell_setting 'hexagonal'
loop_
_space_group_symop_operation_xyz
x,y,z
-y,x-y,z
-x+y,-x,z
x-y,-y,1/2-z
-x,-x+y,1/2-z
y,x,1/2-z
-x,-y,-z
y,-x+y,-z
x-y,x,-z
-x+y,y,1/2+z
x,x-y,1/2+z
-y,-x,1/2+z
2/3+x,1/3+y,1/3+z
2/3-y,1/3+x-y,1/3+z
2/3-x+y,1/3-x,1/3+z
2/3+x-y,1/3-y,5/6-z
2/3-x,1/3-x+y,5/6-z
2/3+y,1/3+x,5/6-z
2/3-x,1/3-y,1/3-z
2/3+y,1/3-x+y,1/3-z
2/3+x-y,1/3+x,1/3-z
2/3-x+y,1/3+y,5/6+z
2/3+x,1/3+x-y,5/6+z
2/3-y,1/3-x,5/6+z
1/3+x,2/3+y,2/3+z
1/3-y,2/3+x-y,2/3+z
1/3-x+y,2/3-x,2/3+z
1/3+x-y,2/3-y,1/6-z
1/3-x,2/3-x+y,1/6-z
1/3+y,2/3+x,1/6-z
1/3-x,2/3-y,2/3-z
1/3+y,2/3-x+y,2/3-z
1/3+x-y,2/3+x,2/3-z
1/3-x+y,2/3+y,1/6+z
1/3+x,2/3+x-y,1/6+z
1/3-y,2/3-x,1/6+z
loop_
_atom_site_type_symbol
_atom_site_label
_atom_site_fract_x
_atom_site_fract_y
_atom_site_fract_z
Si Si1 0.885374 0.125238 0.230186
Si Si2 0.722007 0.790603 0.524589
Si Si3 0.562887 0.244666 0.906989
Si Si4 0.801901 0.971429 0.511680
O O1 0.836585 0.103197 0.348940
O O2 0.939597 0.144791 0.330281
O O3 0.900877 0.178309 0.131556
O O4 0.863733 0.073842 0.116893
O O5 0.666667 0.742191 0.583334
O O6 0.766611 0.772268 0.506190
O O7 0.570198 0.300577 0.866877
O O8 0.507724 0.194687 0.856759
O O9 0.574508 0.241175 0.083334
#
# Coordination Sequence:
#
# PCOD9579586 Si02
#       4
#    36  36  36  36
#     4  10  22  40  65  97 133 177 224 272 338 414
#     4  11  22  38  63  96 133 175 225 283 345 409
#     4  12  24  38  56  85 126 175 229 288 344 398
#     4  11  22  40  68  96 127 173 225 275 327 401
#
# _framework density 22.84074
#
# number of rings (size 3 to 8) (size 9 to 14) (size 15 to 20)
#    0.000    1.000    0.000    9.250    0.000    2.000 
#    0.000    0.000    0.000   24.000    0.000    0.000 
#    0.000    0.000    0.000    0.000    0.000    0.000 
#
# Total GULP energy -267974.492452 kJ/mol
# GULP energy per Si atom -5582.801926 kJ/mol
# Density = 2.278875 g / cm^3
# Si number density = 22.840740 Si / 1000 Ang^3
#
#
#
# Elastic Constant Matrix: (Units=GPa)
#
#
# Indices 1 2 3 4 5 6 
#
# 1 87.0329 38.2231 20.7495 -11.9688 0.0527 0.1004
# 2 38.2231 86.9543 20.6351 12.0434 -0.0190 -0.0226
# 3 20.7495 20.6351 132.1836 0.1078 0.0391 0.1273
# 4 -11.9688 12.0434 0.1078 15.9248 0.0619 0.0415
# 5 0.0527 -0.0190 0.0391 0.0619 15.9403 -11.9599
# 6 0.1004 -0.0226 0.1273 0.0415 -11.9599 24.4313
#
#
#
# Elastic Compliance Matrix: (Units=1/GPa)
#
#
# Indices 1 2 3 4 5 6 
#
# 1 0.020503 -0.012095 -0.001350 0.024569 -0.000430 -0.000341
# 2 -0.012095 0.020532 -0.001287 -0.024612 0.000397 0.000312
# 3 -0.001350 -0.001287 0.007978 -0.000095 -0.000070 -0.000071
# 4 0.024569 -0.024612 -0.000095 0.099881 -0.001135 -0.000848
# 5 -0.000430 0.000397 -0.000070 -0.001135 0.099167 0.048550
# 6 -0.000341 0.000312 -0.000071 -0.000848 0.048550 0.064701
#
#
# Mechanical properties :
#
#
# Convention : Reuss Voigt Hill
#
# Bulk Modulus (GPa) = 51.15449 51.70957 51.43203
# Shear Modulus (GPa) = 14.33719 26.36349 20.35034
#
# Velocity S-wave (km/s) = 2.50812 3.40108 2.98814
# Velocity P-wave (km/s) = 5.55269 6.17345 5.87128
#
# Compressibility (1/GPa) = 0.01954863
#
# Stress axis : x y z
#
# Youngs Moduli (GPa) = 48.77286 48.70556 125.34190
#
# Poissons Ratio (x) = 0.58912 0.16919
# Poissons Ratio (y) = 0.58993 0.16129
# Poissons Ratio (z) = 0.06584 0.06268
#
# Static dielectric constant tensor:
#      x y z
#    x 1.881820 -0.000010 -0.000030 
#    y -0.000010 1.881840 0.000000 
#    z -0.000030 0.000000 1.877160 
# 
# From -- ./inp_files/778.got.cif
#   From: 2010.05.17/outbox.cif.g08.bks.cpg/sg167_1_cif.got.tgz:778.got - 2010.05.20 11:09:15.
