data_PCOD9579262
_publ_section_title
;
Structure prediction by ZEFSAII (Michael W. Deem and Ramdas Pophale) SiO2 
 PCOD9579262
Probable space group: R -3 M
;
_chemical_formula_sum "Si O2"
_cell_formula_units_Z 126
_cell_length_a 21.743681
_cell_length_b 21.743681
_cell_length_c 15.943681
_cell_angle_alpha 90.000000
_cell_angle_beta 90.000000
_cell_angle_gamma 120.000000
_cell_volume 6528.078438
_symmetry_space_group_name_H-M "R -3 M"
_symmetry_group_IT_number 166
_symmetry_cell_setting 'hexagonal'
loop_
_space_group_symop_operation_xyz
x,y,z
-y,x-y,z
-x+y,-x,z
x-y,-y,-z
-x,-x+y,-z
y,x,-z
-x,-y,-z
y,-x+y,-z
x-y,x,-z
-x+y,y,z
x,x-y,z
-y,-x,z
2/3+x,1/3+y,1/3+z
2/3-y,1/3+x-y,1/3+z
2/3-x+y,1/3-x,1/3+z
2/3+x-y,1/3-y,1/3-z
2/3-x,1/3-x+y,1/3-z
2/3+y,1/3+x,1/3-z
2/3-x,1/3-y,1/3-z
2/3+y,1/3-x+y,1/3-z
2/3+x-y,1/3+x,1/3-z
2/3-x+y,1/3+y,1/3+z
2/3+x,1/3+x-y,1/3+z
2/3-y,1/3-x,1/3+z
1/3+x,2/3+y,2/3+z
1/3-y,2/3+x-y,2/3+z
1/3-x+y,2/3-x,2/3+z
1/3+x-y,2/3-y,2/3-z
1/3-x,2/3-x+y,2/3-z
1/3+y,2/3+x,2/3-z
1/3-x,2/3-y,2/3-z
1/3+y,2/3-x+y,2/3-z
1/3+x-y,2/3+x,2/3-z
1/3-x+y,2/3+y,2/3+z
1/3+x,2/3+x-y,2/3+z
1/3-y,2/3-x,2/3+z
loop_
_atom_site_type_symbol
_atom_site_label
_atom_site_fract_x
_atom_site_fract_y
_atom_site_fract_z
Si Si1 0.290501 0.436537 0.990764
Si Si2 0.454019 0.408620 0.412144
Si Si3 0.930617 0.393329 0.160316
Si Si4 0.910193 0.333334 0.833334
O O1 0.224599 0.449198 0.972272
O O2 0.317724 0.455857 0.084995
O O3 0.257582 0.350946 0.985872
O O4 0.351924 0.468319 0.921259
O O5 0.431684 0.431684 0.500000
O O6 0.536453 0.463548 0.398732
O O7 0.434770 0.329213 0.430003
O O8 0.929620 0.464810 0.175876
O O9 0.011687 0.411605 0.147133
#
# Coordination Sequence:
#
# PCOD9579262 Si02
#       4
#    36  36  36  18
#     4  10  21  38  58  78 113 159 194 233 290 347
#     4   8  15  33  57  78 105 147 191 237 291 344
#     4  11  21  33  56  86 115 150 191 241 292 342
#     4  12  22  34  51  84 119 148 188 238 288 350
#
# _framework density 19.301238999999999
#
# number of rings (size 3 to 8) (size 9 to 14) (size 15 to 20)
#    0.000    2.000    4.286    4.286    0.000    3.429 
#    0.000    0.000    0.000    6.286    0.000    1.000 
#    0.000    0.000    0.000   36.571    0.000    0.000 
#
# Total GULP energy -234608.293114 kJ/mol
# GULP energy per Si atom -5585.911741 kJ/mol
# Density = 1.925731 g / cm^3
# Si number density = 19.301239 Si / 1000 Ang^3
#
#
#
# Elastic Constant Matrix: (Units=GPa)
#
#
# Indices 1 2 3 4 5 6 
#
# 1 98.6985 44.0061 -0.0027 1.8267 -0.0001 0.0000
# 2 44.0061 98.6985 -0.0027 -1.8267 0.0001 0.0000
# 3 -0.0027 -0.0027 71.5456 0.0000 0.0000 0.0000
# 4 1.8267 -1.8267 0.0000 13.0124 0.0000 0.0001
# 5 -0.0001 0.0001 0.0000 0.0000 13.0124 1.8267
# 6 0.0000 0.0000 0.0000 0.0001 1.8267 27.3462
#
#
#
# Elastic Compliance Matrix: (Units=1/GPa)
#
#
# Indices 1 2 3 4 5 6 
#
# 1 0.012732 -0.005725 0.000000 -0.002591 0.000000 0.000000
# 2 -0.005725 0.012732 0.000000 0.002591 0.000000 0.000000
# 3 0.000000 0.000000 0.013977 0.000000 0.000000 0.000000
# 4 -0.002591 0.002591 0.000000 0.077577 0.000000 0.000000
# 5 0.000000 0.000000 0.000000 0.000000 0.077577 -0.005182
# 6 0.000000 0.000000 0.000000 0.000000 -0.005182 0.036914
#
#
# Mechanical properties :
#
#
# Convention : Reuss Voigt Hill
#
# Bulk Modulus (GPa) = 35.72308 39.66046 37.69177
# Shear Modulus (GPa) = 19.81844 25.67032 22.74438
#
# Velocity S-wave (km/s) = 3.20784 3.65085 3.43649
# Velocity P-wave (km/s) = 5.68055 6.19390 5.94277
#
# Compressibility (1/GPa) = 0.02799311
#
# Stress axis : x y z
#
# Youngs Moduli (GPa) = 78.54026 78.54026 71.54560
#
# Poissons Ratio (x) = 0.44963 -0.00002
# Poissons Ratio (y) = 0.44963 -0.00002
# Poissons Ratio (z) = -0.00002 -0.00002
#
# Static dielectric constant tensor:
#      x y z
#    x 1.669340 0.000000 0.000000 
#    y 0.000000 1.669340 0.000000 
#    z 0.000000 0.000000 1.789920 
# 
# From -- ./inp_files/4958.got.cif
#   From: 2010.05.17/outbox.cif.g08.bks.cpg/sg166_3_cif.got.tgz:4958.got - 2010.05.20 11:04:41.
