data_PCOD9579727
_publ_section_title
;
Structure prediction by ZEFSAII (Michael W. Deem and Ramdas Pophale) SiO2 
 PCOD9579727
Probable space group: R -3 C 
;
_chemical_formula_sum "Si O2"
_cell_formula_units_Z 168
_cell_length_a 16.458152
_cell_length_b 16.458152
_cell_length_c 30.710096
_cell_angle_alpha 90.000000
_cell_angle_beta 90.000000
_cell_angle_gamma 120.000000
_cell_volume 7204.003973
_symmetry_space_group_name_H-M "R -3 C "
_symmetry_group_IT_number 167
_symmetry_cell_setting 'hexagonal'
loop_
_space_group_symop_operation_xyz
x,y,z
-y,x-y,z
-x+y,-x,z
x-y,-y,1/2-z
-x,-x+y,1/2-z
y,x,1/2-z
-x,-y,-z
y,-x+y,-z
x-y,x,-z
-x+y,y,1/2+z
x,x-y,1/2+z
-y,-x,1/2+z
2/3+x,1/3+y,1/3+z
2/3-y,1/3+x-y,1/3+z
2/3-x+y,1/3-x,1/3+z
2/3+x-y,1/3-y,5/6-z
2/3-x,1/3-x+y,5/6-z
2/3+y,1/3+x,5/6-z
2/3-x,1/3-y,1/3-z
2/3+y,1/3-x+y,1/3-z
2/3+x-y,1/3+x,1/3-z
2/3-x+y,1/3+y,5/6+z
2/3+x,1/3+x-y,5/6+z
2/3-y,1/3-x,5/6+z
1/3+x,2/3+y,2/3+z
1/3-y,2/3+x-y,2/3+z
1/3-x+y,2/3-x,2/3+z
1/3+x-y,2/3-y,1/6-z
1/3-x,2/3-x+y,1/6-z
1/3+y,2/3+x,1/6-z
1/3-x,2/3-y,2/3-z
1/3+y,2/3-x+y,2/3-z
1/3+x-y,2/3+x,2/3-z
1/3-x+y,2/3+y,1/6+z
1/3+x,2/3+x-y,1/6+z
1/3-y,2/3-x,1/6+z
loop_
_atom_site_type_symbol
_atom_site_label
_atom_site_fract_x
_atom_site_fract_y
_atom_site_fract_z
Si Si1 0.333334 0.666667 0.364736
Si Si2 0.706731 0.528209 0.749226
Si Si3 0.009603 0.819218 0.678910
Si Si4 0.666668 0.333334 0.884936
Si Si5 0.289857 0.039495 0.616701
Si Si6 0.616917 0.731378 0.458898
O O1 0.333334 0.666668 0.416667
O O2 0.317514 0.567713 0.348710
O O3 0.656714 0.534837 0.705472
O O4 0.659960 0.422350 0.765231
O O5 0.814262 0.561939 0.736134
O O6 0.717319 0.605295 0.783910
O O7 0.110110 0.857625 0.701363
O O8 0.935366 0.725860 0.703194
O O9 0.666668 0.333335 0.833334
O O10 0.307012 0.973679 0.583334
O O11 0.246716 0.989629 0.662350
O O12 0.566908 0.666667 0.416667
#
# Coordination Sequence:
#
# PCOD9579727 Si02
#       6
#    12  36  36  12  36  36
#     4  12  25  38  76 111 157 194 250 316 386 460
#     4  12  27  52  78 110 157 199 260 325 383 465
#     4  12  25  47  74 114 152 202 254 314 396 452
#     4  12  31  53  79 111 151 212 268 319 386 466
#     4  12  26  48  75 113 155 199 257 317 386 459
#     4  12  27  48  79 113 154 204 254 318 386 463
#
# _framework density 23.320364000000001
#
# number of rings (size 3 to 8) (size 9 to 14) (size 15 to 20)
#    0.000    0.000    4.286    5.786    6.000    0.000 
#    3.857    0.000    0.000    0.000    0.000    0.000 
#    0.000    0.000    0.000    0.000    0.000    0.000 
#
# Total GULP energy -314140.681511 kJ/mol
# GULP energy per Si atom -5609.655027 kJ/mol
# Density = 2.326729 g / cm^3
# Si number density = 23.320364 Si / 1000 Ang^3
#
#
#
# Elastic Constant Matrix: (Units=GPa)
#
#
# Indices 1 2 3 4 5 6 
#
# 1 65.6896 6.9585 4.1801 -1.4087 -0.0001 0.0000
# 2 6.9585 65.6922 4.1815 1.4092 0.0001 0.0000
# 3 4.1801 4.1815 95.6587 0.0006 0.0000 0.0000
# 4 -1.4087 1.4092 0.0006 36.2159 0.0000 0.0001
# 5 -0.0001 0.0001 0.0000 0.0000 36.2157 -1.4088
# 6 0.0000 0.0000 0.0000 0.0001 -1.4088 29.3664
#
#
#
# Elastic Compliance Matrix: (Units=1/GPa)
#
#
# Indices 1 2 3 4 5 6 
#
# 1 0.015447 -0.001612 -0.000605 0.000664 0.000000 0.000000
# 2 -0.001612 0.015446 -0.000605 -0.000664 0.000000 0.000000
# 3 -0.000605 -0.000605 0.010507 0.000000 0.000000 0.000000
# 4 0.000664 -0.000664 0.000000 0.027664 0.000000 0.000000
# 5 0.000000 0.000000 0.000000 0.000000 0.027664 0.001327
# 6 0.000000 0.000000 0.000000 0.000000 0.001327 0.034116
#
#
# Mechanical properties :
#
#
# Convention : Reuss Voigt Hill
#
# Bulk Modulus (GPa) = 27.96669 28.63118 28.29894
# Shear Modulus (GPa) = 33.69170 34.47430 34.08300
#
# Velocity S-wave (km/s) = 3.80509 3.84903 3.82712
# Velocity P-wave (km/s) = 5.59673 5.66192 5.62942
#
# Compressibility (1/GPa) = 0.03575682
#
# Stress axis : x y z
#
# Youngs Moduli (GPa) = 64.73929 64.74170 95.17746
#
# Poissons Ratio (x) = 0.10436 0.05754
# Poissons Ratio (y) = 0.10436 0.05756
# Poissons Ratio (z) = 0.03914 0.03915
#
# Static dielectric constant tensor:
#      x y z
#    x 1.876360 0.000000 0.000000 
#    y 0.000000 1.876360 0.000000 
#    z 0.000000 0.000000 1.874160 
# 
# From -- ./inp_files/6993.got.cif
#   From: 2010.05.17/outbox.cif.g08.bks.cpg/sg167_4_cif.got.tgz:6993.got - 2010.05.20 11:09:15.
