data_PCOD9579820
_publ_section_title
;
Structure prediction by ZEFSAII (Michael W. Deem and Ramdas Pophale) SiO2 
 PCOD9579820
Probable space group: P 61
;
_chemical_formula_sum "Si O2"
_cell_formula_units_Z 42
_cell_length_a 15.478331
_cell_length_b 15.478331
_cell_length_c 11.727482
_cell_angle_alpha 90.000000
_cell_angle_beta 90.000000
_cell_angle_gamma 120.000000
_cell_volume 2433.232822
_symmetry_space_group_name_H-M "P 61"
_symmetry_group_IT_number 169
_symmetry_cell_setting 'hexagonal'
loop_
_space_group_symop_operation_xyz
x,y,z
x-y,x,1/6+z
-y,x-y,1/3+z
-x,-y,1/2+z
-x+y,-x,2/3+z
y,-x+y,5/6+z
loop_
_atom_site_type_symbol
_atom_site_label
_atom_site_fract_x
_atom_site_fract_y
_atom_site_fract_z
Si Si1 0.359884 0.776537 0.422470
Si Si2 0.946690 0.440075 0.087205
Si Si3 0.477854 0.370216 0.093890
Si Si4 0.759459 0.328969 0.491142
Si Si5 0.454240 0.134420 0.537633
Si Si6 0.745474 0.619076 0.972765
Si Si7 0.363010 0.321469 0.308955
O O1 0.448569 0.859830 0.347222
O O2 0.390384 0.799038 0.555278
O O3 0.342120 0.667164 0.388880
O O4 0.251403 0.761586 0.390024
O O5 0.049178 0.462579 0.144817
O O6 0.915477 0.353953 0.993695
O O7 0.954119 0.539780 0.033335
O O8 0.502997 0.281199 0.093709
O O9 0.576921 0.454806 0.156023
O O10 0.383479 0.345532 0.174848
O O11 0.827191 0.320802 0.589180
O O12 0.375789 0.087628 0.434681
O O13 0.728541 0.683264 0.877625
O O14 0.855855 0.637309 0.985387
#
# Coordination Sequence:
#
# PCOD9579820 Si02
#       7
#     6   6   6   6   6   6   6
#     4  11  18  30  44  70  96 140 177 218 246 295
#     4  11  19  31  47  71 103 140 179 212 253 301
#     4   9  19  32  46  69  97 142 175 214 254 303
#     4  10  20  31  51  69 104 139 180 216 254 304
#     4  10  19  31  45  65 102 132 179 216 251 301
#     4  11  20  38  52  77 102 138 174 228 275 313
#     4  10  21  33  55  71 104 137 174 228 267 315
#
# _framework density 17.260987
#
# number of rings (size 3 to 8) (size 9 to 14) (size 15 to 20)
#    0.000    1.714    4.286    3.429    0.000    0.000 
#    0.000    1.429    0.000    0.000    0.000    0.000 
#    8.571    0.000    0.000    0.000    0.000    0.000 
#
# Total GULP energy -233910.827572 kJ/mol
# GULP energy per Si atom -5569.305418 kJ/mol
# Density = 1.722170 g / cm^3
# Si number density = 17.260987 Si / 1000 Ang^3
#
#
#
# Elastic Constant Matrix: (Units=GPa)
#
#
# Indices 1 2 3 4 5 6 
#
# 1 40.8572 11.7953 16.7560 0.0000 0.0000 0.0000
# 2 11.7953 40.8572 16.7560 0.0000 0.0000 0.0000
# 3 16.7560 16.7560 72.9801 0.0000 0.0000 0.0000
# 4 0.0000 0.0000 0.0000 23.0965 0.0000 0.0000
# 5 0.0000 0.0000 0.0000 0.0000 23.0965 0.0000
# 6 0.0000 0.0000 0.0000 0.0000 0.0000 14.5310
#
#
#
# Elastic Compliance Matrix: (Units=1/GPa)
#
#
# Indices 1 2 3 4 5 6 
#
# 1 0.028326 -0.006083 -0.005107 0.000000 0.000000 0.000000
# 2 -0.006083 0.028326 -0.005107 0.000000 0.000000 0.000000
# 3 -0.005107 -0.005107 0.016047 0.000000 0.000000 0.000000
# 4 0.000000 0.000000 0.000000 0.043297 0.000000 0.000000
# 5 0.000000 0.000000 0.000000 0.000000 0.043297 0.000000
# 6 0.000000 0.000000 0.000000 0.000000 0.000000 0.068819
#
#
# Mechanical properties :
#
#
# Convention : Reuss Voigt Hill
#
# Bulk Modulus (GPa) = 24.93420 27.25656 26.09538
# Shear Modulus (GPa) = 18.24326 19.43727 18.84027
#
# Velocity S-wave (km/s) = 3.25454 3.35935 3.30736
# Velocity P-wave (km/s) = 5.34785 5.55627 5.45305
#
# Compressibility (1/GPa) = 0.04010556
#
# Stress axis : x y z
#
# Youngs Moduli (GPa) = 35.30320 35.30320 62.31536
#
# Poissons Ratio (x) = 0.21476 0.31824
# Poissons Ratio (y) = 0.21476 0.31824
# Poissons Ratio (z) = 0.18029 0.18029
#
# Static dielectric constant tensor:
#      x y z
#    x 1.605760 0.000000 0.000000 
#    y 0.000000 1.605760 0.000000 
#    z 0.000000 0.000000 1.641330 
# 
# From -- ./inp_files/942.got.cif
#   From: 2010.05.17/outbox.cif.g08.bks.cpg/sg169_cif.got.tgz:942.got - 2010.05.20 11:12:54.
