data_PCOD9579469
_publ_section_title
;
Structure prediction by ZEFSAII (Michael W. Deem and Ramdas Pophale) SiO2 
 PCOD9579469
Probable space group: R -3 C 
;
_chemical_formula_sum "Si O2"
_cell_formula_units_Z 216
_cell_length_a 22.047556
_cell_length_b 22.047556
_cell_length_c 24.316931
_cell_angle_alpha 90.000000
_cell_angle_beta 90.000000
_cell_angle_gamma 120.000000
_cell_volume 10236.707708
_symmetry_space_group_name_H-M "R -3 C "
_symmetry_group_IT_number 167
_symmetry_cell_setting 'hexagonal'
loop_
_space_group_symop_operation_xyz
x,y,z
-y,x-y,z
-x+y,-x,z
x-y,-y,1/2-z
-x,-x+y,1/2-z
y,x,1/2-z
-x,-y,-z
y,-x+y,-z
x-y,x,-z
-x+y,y,1/2+z
x,x-y,1/2+z
-y,-x,1/2+z
2/3+x,1/3+y,1/3+z
2/3-y,1/3+x-y,1/3+z
2/3-x+y,1/3-x,1/3+z
2/3+x-y,1/3-y,5/6-z
2/3-x,1/3-x+y,5/6-z
2/3+y,1/3+x,5/6-z
2/3-x,1/3-y,1/3-z
2/3+y,1/3-x+y,1/3-z
2/3+x-y,1/3+x,1/3-z
2/3-x+y,1/3+y,5/6+z
2/3+x,1/3+x-y,5/6+z
2/3-y,1/3-x,5/6+z
1/3+x,2/3+y,2/3+z
1/3-y,2/3+x-y,2/3+z
1/3-x+y,2/3-x,2/3+z
1/3+x-y,2/3-y,1/6-z
1/3-x,2/3-x+y,1/6-z
1/3+y,2/3+x,1/6-z
1/3-x,2/3-y,2/3-z
1/3+y,2/3-x+y,2/3-z
1/3+x-y,2/3+x,2/3-z
1/3-x+y,2/3+y,1/6+z
1/3+x,2/3+x-y,1/6+z
1/3-y,2/3-x,1/6+z
loop_
_atom_site_type_symbol
_atom_site_label
_atom_site_fract_x
_atom_site_fract_y
_atom_site_fract_z
Si Si1 0.517343 0.147488 0.457431
Si Si2 0.667043 0.917033 0.239190
Si Si3 0.514950 0.238924 0.316590
Si Si4 0.385304 0.087144 0.958423
Si Si5 0.792479 0.850719 0.795150
Si Si6 0.746874 0.850537 0.076810
O O1 0.573918 0.171223 0.408653
O O2 0.560598 0.153015 0.511523
O O3 0.470225 0.183721 0.452301
O O4 0.461086 0.068811 0.439692
O O5 0.667455 0.915211 0.173723
O O6 0.722233 0.895415 0.260547
O O7 0.699537 0.000000 0.250000
O O8 0.546078 0.309351 0.352739
O O9 0.445010 0.184852 0.349672
O O10 0.333334 0.024571 0.916667
O O11 0.410768 0.157402 0.923717
O O12 0.455618 0.099109 0.990461
O O13 0.841496 0.841496 0.750000
O O14 0.666667 0.787633 0.083334
#
# Coordination Sequence:
#
# PCOD9579469 Si02
#       6
#    36  36  36  36  36  36
#     4  11  19  32  54  77 108 150 182 228 292 338
#     4   9  19  34  52  76 109 146 184 229 278 339
#     4  10  21  35  56  85 115 147 188 236 290 351
#     4   9  17  34  55  76 105 141 180 229 284 335
#     4   9  20  36  53  74 105 145 188 229 274 336
#     4  10  20  33  52  84 117 143 182 235 282 341
#
# _framework density 21.100535000000001
#
# number of rings (size 3 to 8) (size 9 to 14) (size 15 to 20)
#    0.000    2.667    0.000    4.167    0.000    1.333 
#    0.000    6.667    0.000    0.667    0.000    0.000 
#    0.000    0.000    0.000    0.000    0.000    0.000 
#
# Total GULP energy -400876.373643 kJ/mol
# GULP energy per Si atom -5567.727412 kJ/mol
# Density = 2.105251 g / cm^3
# Si number density = 21.100535 Si / 1000 Ang^3
#
#
#
# Elastic Constant Matrix: (Units=GPa)
#
#
# Indices 1 2 3 4 5 6 
#
# 1 44.7182 28.1489 15.7068 -11.4727 0.0001 0.0000
# 2 28.1489 44.7182 15.7068 11.4727 -0.0001 0.0000
# 3 15.7068 15.7068 72.6949 0.0000 0.0000 0.0000
# 4 -11.4727 11.4727 0.0000 18.6294 0.0000 -0.0001
# 5 0.0001 -0.0001 0.0000 0.0000 18.6294 -11.4727
# 6 0.0000 0.0000 0.0000 -0.0001 -11.4727 8.2846
#
#
#
# Elastic Compliance Matrix: (Units=1/GPa)
#
#
# Indices 1 2 3 4 5 6 
#
# 1 0.212595 -0.197462 -0.003270 0.252529 -0.000002 0.000000
# 2 -0.197462 0.212595 -0.003270 -0.252529 0.000002 0.000000
# 3 -0.003270 -0.003270 0.015169 0.000000 0.000000 0.000000
# 4 0.252529 -0.252529 0.000000 0.364712 0.000000 0.000003
# 5 -0.000002 0.000002 0.000000 0.000000 0.364712 0.505057
# 6 0.000000 0.000000 0.000000 0.000003 0.505057 0.820115
#
#
# Mechanical properties :
#
#
# Convention : Reuss Voigt Hill
#
# Bulk Modulus (GPa) = 30.90566 31.25068 31.07817
# Shear Modulus (GPa) = 2.07582 15.94661 9.01122
#
# Velocity S-wave (km/s) = 0.99293 2.75206 2.06879
# Velocity P-wave (km/s) = 3.99915 4.99410 4.52406
#
# Compressibility (1/GPa) = 0.03235654
#
# Stress axis : x y z
#
# Youngs Moduli (GPa) = 4.70377 4.70377 65.92359
#
# Poissons Ratio (x) = 0.92882 0.21555
# Poissons Ratio (y) = 0.92882 0.21555
# Poissons Ratio (z) = 0.01538 0.01538
#
# Static dielectric constant tensor:
#      x y z
#    x 1.834730 0.000000 0.000000 
#    y 0.000000 1.834730 0.000000 
#    z 0.000000 0.000000 2.993420 
# 
# From -- ./inp_files/5505.got.cif
#   From: 2010.05.17/outbox.cif.g08.bks.cpg/sg167_3_cif.got.tgz:5505.got - 2010.05.20 11:09:15.
