data_PCOD9579222
_publ_section_title
;
Structure prediction by ZEFSAII (Michael W. Deem and Ramdas Pophale) SiO2 
 PCOD9579222
Probable space group: R -3 M
;
_chemical_formula_sum "Si O2"
_cell_formula_units_Z 126
_cell_length_a 22.322147
_cell_length_b 22.322147
_cell_length_c 14.800540
_cell_angle_alpha 90.000000
_cell_angle_beta 90.000000
_cell_angle_gamma 120.000000
_cell_volume 6386.752995
_symmetry_space_group_name_H-M "R -3 M"
_symmetry_group_IT_number 166
_symmetry_cell_setting 'hexagonal'
loop_
_space_group_symop_operation_xyz
x,y,z
-y,x-y,z
-x+y,-x,z
x-y,-y,-z
-x,-x+y,-z
y,x,-z
-x,-y,-z
y,-x+y,-z
x-y,x,-z
-x+y,y,z
x,x-y,z
-y,-x,z
2/3+x,1/3+y,1/3+z
2/3-y,1/3+x-y,1/3+z
2/3-x+y,1/3-x,1/3+z
2/3+x-y,1/3-y,1/3-z
2/3-x,1/3-x+y,1/3-z
2/3+y,1/3+x,1/3-z
2/3-x,1/3-y,1/3-z
2/3+y,1/3-x+y,1/3-z
2/3+x-y,1/3+x,1/3-z
2/3-x+y,1/3+y,1/3+z
2/3+x,1/3+x-y,1/3+z
2/3-y,1/3-x,1/3+z
1/3+x,2/3+y,2/3+z
1/3-y,2/3+x-y,2/3+z
1/3-x+y,2/3-x,2/3+z
1/3+x-y,2/3-y,2/3-z
1/3-x,2/3-x+y,2/3-z
1/3+y,2/3+x,2/3-z
1/3-x,2/3-y,2/3-z
1/3+y,2/3-x+y,2/3-z
1/3+x-y,2/3+x,2/3-z
1/3-x+y,2/3+y,2/3+z
1/3+x,2/3+x-y,2/3+z
1/3-y,2/3-x,2/3+z
loop_
_atom_site_type_symbol
_atom_site_label
_atom_site_fract_x
_atom_site_fract_y
_atom_site_fract_z
Si Si1 0.340342 0.947212 0.770642
Si Si2 0.860871 0.860769 0.146196
Si Si3 0.000061 0.137881 0.636461
Si Si4 0.757572 0.000000 0.500000
O O1 0.333334 0.962836 0.666667
O O2 0.280870 0.947536 0.833334
O O3 0.339819 0.875977 0.776064
O O4 0.408835 0.013593 0.810785
O O5 0.928776 0.857551 0.118728
O O6 0.855550 0.854888 0.255466
O O7 0.868026 0.934013 0.121144
O O8 0.938780 0.061221 0.614260
O O9 0.073828 0.147656 0.608500
O O10 0.987246 0.193161 0.584581
#
# Coordination Sequence:
#
# PCOD9579222 Si02
#       4
#    36  36  36  18
#     4  10  23  42  63  89 121 160 204 252 303 357
#     4  10  22  40  64  91 122 158 200 249 303 361
#     4  10  20  36  59  90 125 162 200 245 300 360
#     4  10  22  36  60  86 122 160 204 250 300 360
#
# _framework density 19.728335000000001
#
# number of rings (size 3 to 8) (size 9 to 14) (size 15 to 20)
#    0.857    1.143    0.000    3.143    0.000    6.286 
#    0.000    4.286    0.000    1.714    0.000    0.000 
#    0.000    0.000    0.000    0.000    0.000    0.000 
#
# Total GULP energy -234307.865731 kJ/mol
# GULP energy per Si atom -5578.758708 kJ/mol
# Density = 1.968343 g / cm^3
# Si number density = 19.728335 Si / 1000 Ang^3
#
#
#
# Elastic Constant Matrix: (Units=GPa)
#
#
# Indices 1 2 3 4 5 6 
#
# 1 123.9625 62.9623 37.5076 0.2357 0.0001 0.0000
# 2 62.9623 123.9625 37.5076 -0.2357 -0.0001 0.0000
# 3 37.5076 37.5076 80.7401 0.0000 0.0000 0.0000
# 4 0.2357 -0.2357 0.0000 18.0683 0.0000 -0.0001
# 5 0.0001 -0.0001 0.0000 0.0000 18.0683 0.2357
# 6 0.0000 0.0000 0.0000 -0.0001 0.2357 30.5001
#
#
#
# Elastic Compliance Matrix: (Units=1/GPa)
#
#
# Indices 1 2 3 4 5 6 
#
# 1 0.011485 -0.004910 -0.003055 -0.000214 0.000000 0.000000
# 2 -0.004910 0.011485 -0.003055 0.000214 0.000000 0.000000
# 3 -0.003055 -0.003055 0.015224 0.000000 0.000000 0.000000
# 4 -0.000214 0.000214 0.000000 0.055351 0.000000 0.000000
# 5 0.000000 0.000000 0.000000 0.000000 0.055351 -0.000428
# 6 0.000000 0.000000 0.000000 0.000000 -0.000428 0.032790
#
#
# Mechanical properties :
#
#
# Convention : Reuss Voigt Hill
#
# Bulk Modulus (GPa) = 61.89648 67.18003 64.53825
# Shear Modulus (GPa) = 23.91085 26.03985 24.97535
#
# Velocity S-wave (km/s) = 3.48516 3.63701 3.56190
# Velocity P-wave (km/s) = 6.90200 7.19470 7.04987
#
# Compressibility (1/GPa) = 0.01615601
#
# Stress axis : x y z
#
# Youngs Moduli (GPa) = 87.06759 87.06759 65.68788
#
# Poissons Ratio (x) = 0.42748 0.20066
# Poissons Ratio (y) = 0.42748 0.20066
# Poissons Ratio (z) = 0.26596 0.26596
#
# Static dielectric constant tensor:
#      x y z
#    x 1.665920 0.000000 0.000000 
#    y 0.000000 1.665920 0.000000 
#    z 0.000000 0.000000 1.727440 
# 
# From -- ./inp_files/4920.got.cif
#   From: 2010.05.17/outbox.cif.g08.bks.cpg/sg166_3_cif.got.tgz:4920.got - 2010.05.20 11:04:41.
