data_PCOD9579291
_publ_section_title
;
Structure prediction by ZEFSAII (Michael W. Deem and Ramdas Pophale) SiO2 
 PCOD9579291
Probable space group: R -3 M
;
_chemical_formula_sum "Si O2"
_cell_formula_units_Z 126
_cell_length_a 20.085560
_cell_length_b 20.085560
_cell_length_c 18.112591
_cell_angle_alpha 90.000000
_cell_angle_beta 90.000000
_cell_angle_gamma 120.000000
_cell_volume 6328.184046
_symmetry_space_group_name_H-M "R -3 M"
_symmetry_group_IT_number 166
_symmetry_cell_setting 'hexagonal'
loop_
_space_group_symop_operation_xyz
x,y,z
-y,x-y,z
-x+y,-x,z
x-y,-y,-z
-x,-x+y,-z
y,x,-z
-x,-y,-z
y,-x+y,-z
x-y,x,-z
-x+y,y,z
x,x-y,z
-y,-x,z
2/3+x,1/3+y,1/3+z
2/3-y,1/3+x-y,1/3+z
2/3-x+y,1/3-x,1/3+z
2/3+x-y,1/3-y,1/3-z
2/3-x,1/3-x+y,1/3-z
2/3+y,1/3+x,1/3-z
2/3-x,1/3-y,1/3-z
2/3+y,1/3-x+y,1/3-z
2/3+x-y,1/3+x,1/3-z
2/3-x+y,1/3+y,1/3+z
2/3+x,1/3+x-y,1/3+z
2/3-y,1/3-x,1/3+z
1/3+x,2/3+y,2/3+z
1/3-y,2/3+x-y,2/3+z
1/3-x+y,2/3-x,2/3+z
1/3+x-y,2/3-y,2/3-z
1/3-x,2/3-x+y,2/3-z
1/3+y,2/3+x,2/3-z
1/3-x,2/3-y,2/3-z
1/3+y,2/3-x+y,2/3-z
1/3+x-y,2/3+x,2/3-z
1/3-x+y,2/3+y,2/3+z
1/3+x,2/3+x-y,2/3+z
1/3-y,2/3-x,2/3+z
loop_
_atom_site_type_symbol
_atom_site_label
_atom_site_fract_x
_atom_site_fract_y
_atom_site_fract_z
Si Si1 0.238296 0.000000 0.000000
Si Si2 0.260620 0.210103 0.281725
Si Si3 0.492551 0.667391 0.248852
Si Si4 0.508069 0.177664 0.478092
O O1 0.317913 0.062461 0.037258
O O2 0.178887 0.975311 0.067379
O O3 0.255244 0.127622 0.280790
O O4 0.213063 0.210763 0.352721
O O5 0.218386 0.210504 0.206702
O O6 0.484490 0.742245 0.255800
O O7 0.408470 0.591531 0.254079
O O8 0.522791 0.666667 0.166667
O O9 0.588668 0.177336 0.470834
O O10 0.523844 0.261922 0.500400
#
# Coordination Sequence:
#
# PCOD9579291 Si02
#       4
#    18  36  36  36
#     4  12  24  40  60  86 122 162 198 236 290 362
#     4  10  22  39  58  83 117 157 198 241 295 359
#     4   9  17  31  53  81 113 150 195 248 301 350
#     4  11  23  41  66  93 120 152 198 256 309 352
#
# _framework density 19.910924999999999
#
# number of rings (size 3 to 8) (size 9 to 14) (size 15 to 20)
#    0.000    1.714    0.000    4.857    0.000    5.714 
#    0.000   10.000    0.000    0.000    0.000    0.000 
#    0.000    0.000    0.000    0.000    0.000    0.000 
#
# Total GULP energy -234430.365482 kJ/mol
# GULP energy per Si atom -5581.675369 kJ/mol
# Density = 1.986561 g / cm^3
# Si number density = 19.910925 Si / 1000 Ang^3
#
#
#
# Elastic Constant Matrix: (Units=GPa)
#
#
# Indices 1 2 3 4 5 6 
#
# 1 49.4584 32.0121 41.8200 -5.9901 0.0013 0.0000
# 2 32.0121 49.4584 41.8200 5.9901 -0.0013 0.0000
# 3 41.8200 41.8200 124.2495 0.0000 0.0000 0.0000
# 4 -5.9901 5.9901 0.0000 27.7720 0.0000 -0.0013
# 5 0.0013 -0.0013 0.0000 0.0000 27.7720 -5.9901
# 6 0.0000 0.0000 0.0000 -0.0013 -5.9901 8.7231
#
#
#
# Elastic Compliance Matrix: (Units=1/GPa)
#
#
# Indices 1 2 3 4 5 6 
#
# 1 0.043020 -0.024265 -0.006313 0.014513 -0.000003 0.000000
# 2 -0.024265 0.043020 -0.006313 -0.014513 0.000003 0.000000
# 3 -0.006313 -0.006313 0.012298 0.000000 0.000000 0.000000
# 4 0.014513 -0.014513 0.000000 0.042268 0.000000 0.000006
# 5 -0.000003 0.000003 0.000000 0.000000 0.042268 0.029025
# 6 0.000000 0.000000 0.000000 0.000006 0.029025 0.134569
#
#
# Mechanical properties :
#
#
# Convention : Reuss Voigt Hill
#
# Bulk Modulus (GPa) = 40.72077 50.49670 45.60874
# Shear Modulus (GPa) = 12.51854 20.02104 16.26979
#
# Velocity S-wave (km/s) = 2.51016 3.17445 2.86165
# Velocity P-wave (km/s) = 5.37560 6.23318 5.82021
#
# Compressibility (1/GPa) = 0.02455749
#
# Stress axis : x y z
#
# Youngs Moduli (GPa) = 23.24512 23.24512 81.31589
#
# Poissons Ratio (x) = 0.56404 0.51331
# Poissons Ratio (y) = 0.56404 0.51331
# Poissons Ratio (z) = 0.14674 0.14674
#
# Static dielectric constant tensor:
#      x y z
#    x 1.696300 0.000000 0.000000 
#    y 0.000000 1.696300 0.000000 
#    z 0.000000 0.000000 1.719910 
# 
# From -- ./inp_files/4899.got.cif
#   From: 2010.05.17/outbox.cif.g08.bks.cpg/sg166_3_cif.got.tgz:4899.got - 2010.05.20 11:04:41.
