data_PCOD9579708
_publ_section_title
;
Structure prediction by ZEFSAII (Michael W. Deem and Ramdas Pophale) SiO2 
 PCOD9579708
Probable space group: R -3 C 
;
_chemical_formula_sum "Si O2"
_cell_formula_units_Z 84
_cell_length_a 17.668430
_cell_length_b 17.668430
_cell_length_c 13.290316
_cell_angle_alpha 90.000000
_cell_angle_beta 90.000000
_cell_angle_gamma 120.000000
_cell_volume 3593.038405
_symmetry_space_group_name_H-M "R -3 C "
_symmetry_group_IT_number 167
_symmetry_cell_setting 'hexagonal'
loop_
_space_group_symop_operation_xyz
x,y,z
-y,x-y,z
-x+y,-x,z
x-y,-y,1/2-z
-x,-x+y,1/2-z
y,x,1/2-z
-x,-y,-z
y,-x+y,-z
x-y,x,-z
-x+y,y,1/2+z
x,x-y,1/2+z
-y,-x,1/2+z
2/3+x,1/3+y,1/3+z
2/3-y,1/3+x-y,1/3+z
2/3-x+y,1/3-x,1/3+z
2/3+x-y,1/3-y,5/6-z
2/3-x,1/3-x+y,5/6-z
2/3+y,1/3+x,5/6-z
2/3-x,1/3-y,1/3-z
2/3+y,1/3-x+y,1/3-z
2/3+x-y,1/3+x,1/3-z
2/3-x+y,1/3+y,5/6+z
2/3+x,1/3+x-y,5/6+z
2/3-y,1/3-x,5/6+z
1/3+x,2/3+y,2/3+z
1/3-y,2/3+x-y,2/3+z
1/3-x+y,2/3-x,2/3+z
1/3+x-y,2/3-y,1/6-z
1/3-x,2/3-x+y,1/6-z
1/3+y,2/3+x,1/6-z
1/3-x,2/3-y,2/3-z
1/3+y,2/3-x+y,2/3-z
1/3+x-y,2/3+x,2/3-z
1/3-x+y,2/3+y,1/6+z
1/3+x,2/3+x-y,1/6+z
1/3-y,2/3-x,1/6+z
loop_
_atom_site_type_symbol
_atom_site_label
_atom_site_fract_x
_atom_site_fract_y
_atom_site_fract_z
Si Si1 0.087895 0.339528 0.703595
Si Si2 0.666668 0.333334 0.451116
Si Si3 0.472677 0.220386 0.652679
O O1 0.083844 0.333334 0.583334
O O2 0.171966 0.425836 0.744295
O O3 0.092845 0.259975 0.757757
O O4 0.000000 0.332182 0.750000
O O5 0.666668 0.333335 0.333334
O O6 0.601671 0.366932 0.487074
O O7 0.489143 0.155810 0.583334
#
# Coordination Sequence:
#
# PCOD9579708 Si02
#       3
#    36  12  36
#     4  11  26  46  74 107 149 198 253 310 377 449
#     4  12  28  47  79 112 149 193 253 311 376 445
#     4  11  26  47  72 109 149 195 249 313 377 451
#
# _framework density 23.378543000000001
#
# number of rings (size 3 to 8) (size 9 to 14) (size 15 to 20)
#    0.000    0.857    0.000    5.143   12.000    5.143 
#    0.000    0.000    0.000    0.000    0.000    0.000 
#    0.000    0.000    0.000    0.000    0.000    0.000 
#
# Total GULP energy -156813.191826 kJ/mol
# GULP energy per Si atom -5600.471137 kJ/mol
# Density = 2.332533 g / cm^3
# Si number density = 23.378543 Si / 1000 Ang^3
#
#
#
# Elastic Constant Matrix: (Units=GPa)
#
#
# Indices 1 2 3 4 5 6 
#
# 1 56.0092 40.8906 32.5037 -11.2670 0.0006 0.0000
# 2 40.8906 56.0103 32.5026 11.2681 -0.0006 0.0000
# 3 32.5037 32.5026 241.8669 0.0003 0.0000 0.0000
# 4 -11.2670 11.2681 0.0003 25.0528 0.0000 -0.0006
# 5 0.0006 -0.0006 0.0000 0.0000 25.0529 -11.2672
# 6 0.0000 0.0000 0.0000 -0.0006 -11.2672 7.5597
#
#
#
# Elastic Compliance Matrix: (Units=1/GPa)
#
#
# Indices 1 2 3 4 5 6 
#
# 1 0.105995 -0.094652 -0.001525 0.090241 -0.000004 0.000000
# 2 -0.094652 0.105994 -0.001524 -0.090241 0.000004 0.000000
# 3 -0.001525 -0.001524 0.004544 -0.000001 0.000000 0.000000
# 4 0.090241 -0.090241 -0.000001 0.121088 0.000000 0.000009
# 5 -0.000004 0.000004 0.000000 0.000000 0.121065 0.180438
# 6 0.000000 0.000000 0.000000 0.000009 0.180438 0.401210
#
#
# Mechanical properties :
#
#
# Convention : Reuss Voigt Hill
#
# Bulk Modulus (GPa) = 47.32147 62.85335 55.08741
# Shear Modulus (GPa) = 4.70659 28.06572 16.38616
#
# Velocity S-wave (km/s) = 1.42042 3.46857 2.65033
# Velocity P-wave (km/s) = 4.79327 6.55627 5.74283
#
# Compressibility (1/GPa) = 0.02113206
#
# Stress axis : x y z
#
# Youngs Moduli (GPa) = 9.43442 9.43451 220.06199
#
# Poissons Ratio (x) = 0.89299 0.33557
# Poissons Ratio (y) = 0.89299 0.33529
# Poissons Ratio (z) = 0.01439 0.01437
#
# Static dielectric constant tensor:
#      x y z
#    x 1.903780 0.000000 0.000000 
#    y 0.000000 1.903780 0.000000 
#    z 0.000000 0.000000 1.822820 
# 
# From -- ./inp_files/1859.got.cif
#   From: 2010.05.17/outbox.cif.g08.bks.cpg/sg167_1_cif.got.tgz:1859.got - 2010.05.20 11:09:15.
