data_PCOD9579675
_publ_section_title
;
Structure prediction by ZEFSAII (Michael W. Deem and Ramdas Pophale) SiO2 
 PCOD9579675
Probable space group: R -3 C 
;
_chemical_formula_sum "Si O2"
_cell_formula_units_Z 150
_cell_length_a 15.658867
_cell_length_b 15.658867
_cell_length_c 28.084269
_cell_angle_alpha 90.000000
_cell_angle_beta 90.000000
_cell_angle_gamma 120.000000
_cell_volume 5963.681301
_symmetry_space_group_name_H-M "R -3 C "
_symmetry_group_IT_number 167
_symmetry_cell_setting 'hexagonal'
loop_
_space_group_symop_operation_xyz
x,y,z
-y,x-y,z
-x+y,-x,z
x-y,-y,1/2-z
-x,-x+y,1/2-z
y,x,1/2-z
-x,-y,-z
y,-x+y,-z
x-y,x,-z
-x+y,y,1/2+z
x,x-y,1/2+z
-y,-x,1/2+z
2/3+x,1/3+y,1/3+z
2/3-y,1/3+x-y,1/3+z
2/3-x+y,1/3-x,1/3+z
2/3+x-y,1/3-y,5/6-z
2/3-x,1/3-x+y,5/6-z
2/3+y,1/3+x,5/6-z
2/3-x,1/3-y,1/3-z
2/3+y,1/3-x+y,1/3-z
2/3+x-y,1/3+x,1/3-z
2/3-x+y,1/3+y,5/6+z
2/3+x,1/3+x-y,5/6+z
2/3-y,1/3-x,5/6+z
1/3+x,2/3+y,2/3+z
1/3-y,2/3+x-y,2/3+z
1/3-x+y,2/3-x,2/3+z
1/3+x-y,2/3-y,1/6-z
1/3-x,2/3-x+y,1/6-z
1/3+y,2/3+x,1/6-z
1/3-x,2/3-y,2/3-z
1/3+y,2/3-x+y,2/3-z
1/3+x-y,2/3+x,2/3-z
1/3-x+y,2/3+y,1/6+z
1/3+x,2/3+x-y,1/6+z
1/3-y,2/3-x,1/6+z
loop_
_atom_site_type_symbol
_atom_site_label
_atom_site_fract_x
_atom_site_fract_y
_atom_site_fract_z
Si Si1 0.863611 0.512549 0.505329
Si Si2 0.711961 0.546808 0.267187
Si Si3 0.334311 0.000977 0.083334
Si Si4 0.164104 0.318114 0.521873
Si Si5 0.666668 0.333334 0.902235
Si Si6 0.000000 0.000000 0.183384
O O1 0.903868 0.498007 0.454895
O O2 0.948242 0.581551 0.542262
O O3 0.807067 0.568178 0.482985
O O4 0.779330 0.412434 0.529042
O O5 0.607930 0.533217 0.285388
O O6 0.795524 0.625489 0.300322
O O7 0.704270 0.443522 0.279482
O O8 0.236956 0.948211 0.048532
O O9 0.666668 0.333334 0.959311
#
# Coordination Sequence:
#
# PCOD9579675 Si02
#       6
#    36  36  18  36  12  12
#     4  11  25  48  73 103 143 192 241 298 361 431
#     4  11  22  42  72 108 151 184 232 299 370 416
#     4  12  26  42  72 106 144 190 238 284 362 436
#     4  12  23  41  75 107 145 185 232 302 357 431
#     4   9  21  37  74 112 133 191 238 286 359 451
#     4   9  24  49  74  88 142 194 247 295 353 421
#
# _framework density 25.152248
#
# number of rings (size 3 to 8) (size 9 to 14) (size 15 to 20)
#    0.000    0.960    4.800    1.440    0.000    3.840 
#    0.000    7.200    0.000    0.000    0.000    0.000 
#    0.000    0.000    0.000    0.000    0.000    0.000 
#
# Total GULP energy -278996.864240 kJ/mol
# GULP energy per Si atom -5579.937285 kJ/mol
# Density = 2.509500 g / cm^3
# Si number density = 25.152248 Si / 1000 Ang^3
#
#
#
# Elastic Constant Matrix: (Units=GPa)
#
#
# Indices 1 2 3 4 5 6 
#
# 1 70.1372 22.5137 12.2006 -0.6649 -0.0003 0.0000
# 2 22.5137 70.1368 12.2005 0.6646 0.0003 0.0000
# 3 12.2006 12.2005 176.8569 0.0000 0.0000 0.0000
# 4 -0.6649 0.6646 0.0000 21.8888 0.0000 0.0003
# 5 -0.0003 0.0003 0.0000 0.0000 21.8892 -0.6645
# 6 0.0000 0.0000 0.0000 0.0003 -0.6645 23.8116
#
#
#
# Elastic Compliance Matrix: (Units=1/GPa)
#
#
# Indices 1 2 3 4 5 6 
#
# 1 0.016004 -0.005012 -0.000758 0.000638 0.000000 0.000000
# 2 -0.005012 0.016005 -0.000758 -0.000638 0.000000 0.000000
# 3 -0.000758 -0.000758 0.005759 0.000000 0.000000 0.000000
# 4 0.000638 -0.000638 0.000000 0.045724 0.000000 -0.000001
# 5 0.000000 0.000000 0.000000 0.000000 0.045723 0.001276
# 6 0.000000 0.000000 0.000000 -0.000001 0.001276 0.042032
#
#
# Mechanical properties :
#
#
# Convention : Reuss Voigt Hill
#
# Bulk Modulus (GPa) = 40.46714 45.66228 43.06471
# Shear Modulus (GPa) = 25.96849 31.53232 28.75040
#
# Velocity S-wave (km/s) = 3.21667 3.54454 3.38458
# Velocity P-wave (km/s) = 5.46989 5.91147 5.69496
#
# Compressibility (1/GPa) = 0.02471141
#
# Stress axis : x y z
#
# Youngs Moduli (GPa) = 62.48279 62.48242 173.64371
#
# Poissons Ratio (x) = 0.31313 0.13168
# Poissons Ratio (y) = 0.31313 0.13168
# Poissons Ratio (z) = 0.04738 0.04738
#
# Static dielectric constant tensor:
#      x y z
#    x 1.984490 0.000000 0.000000 
#    y 0.000000 1.984490 0.000000 
#    z 0.000000 0.000000 2.043140 
# 
# From -- ./inp_files/6969.got.cif
#   From: 2010.05.17/outbox.cif.g08.bks.cpg/sg167_4_cif.got.tgz:6969.got - 2010.05.20 11:09:15.
