data_PCOD9579200
_publ_section_title
;
Structure prediction by ZEFSAII (Michael W. Deem and Ramdas Pophale) SiO2 
 PCOD9579200
Probable space group: R -3 M
;
_chemical_formula_sum "Si O2"
_cell_formula_units_Z 252
_cell_length_a 29.204082
_cell_length_b 29.204082
_cell_length_c 19.805181
_cell_angle_alpha 90.000000
_cell_angle_beta 90.000000
_cell_angle_gamma 120.000000
_cell_volume 14628.391197
_symmetry_space_group_name_H-M "R -3 M"
_symmetry_group_IT_number 166
_symmetry_cell_setting 'hexagonal'
loop_
_space_group_symop_operation_xyz
x,y,z
-y,x-y,z
-x+y,-x,z
x-y,-y,-z
-x,-x+y,-z
y,x,-z
-x,-y,-z
y,-x+y,-z
x-y,x,-z
-x+y,y,z
x,x-y,z
-y,-x,z
2/3+x,1/3+y,1/3+z
2/3-y,1/3+x-y,1/3+z
2/3-x+y,1/3-x,1/3+z
2/3+x-y,1/3-y,1/3-z
2/3-x,1/3-x+y,1/3-z
2/3+y,1/3+x,1/3-z
2/3-x,1/3-y,1/3-z
2/3+y,1/3-x+y,1/3-z
2/3+x-y,1/3+x,1/3-z
2/3-x+y,1/3+y,1/3+z
2/3+x,1/3+x-y,1/3+z
2/3-y,1/3-x,1/3+z
1/3+x,2/3+y,2/3+z
1/3-y,2/3+x-y,2/3+z
1/3-x+y,2/3-x,2/3+z
1/3+x-y,2/3-y,2/3-z
1/3-x,2/3-x+y,2/3-z
1/3+y,2/3+x,2/3-z
1/3-x,2/3-y,2/3-z
1/3+y,2/3-x+y,2/3-z
1/3+x-y,2/3+x,2/3-z
1/3-x+y,2/3+y,2/3+z
1/3+x,2/3+x-y,2/3+z
1/3-y,2/3-x,2/3+z
loop_
_atom_site_type_symbol
_atom_site_label
_atom_site_fract_x
_atom_site_fract_y
_atom_site_fract_z
Si Si1 0.875384 0.385837 0.859171
Si Si2 0.102055 0.496163 0.406879
Si Si3 0.275666 0.925294 0.146646
Si Si4 0.481658 0.190197 0.650181
Si Si5 0.391403 0.997805 0.341181
Si Si6 0.031037 0.464021 0.933375
Si Si7 0.279899 0.087345 0.121421
O O1 0.874909 0.437455 0.838152
O O2 0.825395 0.333334 0.833334
O O3 0.927679 0.388914 0.829047
O O4 0.871380 0.379981 0.939460
O O5 0.090966 0.545483 0.396656
O O6 0.158697 0.510091 0.376138
O O7 0.057748 0.441340 0.370769
O O8 0.097143 0.485235 0.487871
O O9 0.333334 0.973002 0.166667
O O10 0.236768 0.925633 0.201469
O O11 0.259054 0.925038 0.070099
O O12 0.507437 0.253719 0.643799
O O13 0.426173 0.163891 0.611635
O O14 0.342711 0.009377 0.333334
O O15 0.434824 0.041852 0.391957
O O16 0.009309 0.504655 0.921871
O O17 0.000000 0.431510 0.000000
O O18 0.272778 0.136389 0.097738
O O19 0.333334 0.113207 0.166667
#
# Coordination Sequence:
#
# PCOD9579200 Si02
#       7
#    36  36  36  36  36  36  36
#     4  10  20  35  51  75 102 135 179 223 272 323
#     4  10  21  39  62  79 106 150 190 229 283 351
#     4  11  23  32  47  72 103 145 182 225 265 319
#     4  10  21  35  55  80 106 134 176 230 279 334
#     4  11  24  33  49  81 109 146 190 239 274 315
#     4  10  20  35  53  71 101 141 177 222 277 328
#     4   8  17  36  56  73  99 139 188 235 276 323
#
# _framework density 17.226773999999999
#
# number of rings (size 3 to 8) (size 9 to 14) (size 15 to 20)
#    0.000    2.000    1.429    3.429    4.000    4.571 
#    0.000    0.000    0.000    0.429    0.000    0.000 
#    0.000    0.000    0.000    0.000    0.000    5.714 
#
# Total GULP energy -468061.716817 kJ/mol
# GULP energy per Si atom -5572.163295 kJ/mol
# Density = 1.718757 g / cm^3
# Si number density = 17.226774 Si / 1000 Ang^3
#
#
#
# Elastic Constant Matrix: (Units=GPa)
#
#
# Indices 1 2 3 4 5 6 
#
# 1 67.9112 26.8983 31.9596 3.6687 -0.0008 0.0000
# 2 26.8983 67.9112 31.9596 -3.6687 0.0008 0.0000
# 3 31.9596 31.9596 109.5799 0.0000 0.0000 0.0000
# 4 3.6687 -3.6687 0.0000 19.7492 0.0000 0.0008
# 5 -0.0008 0.0008 0.0000 0.0000 19.7492 3.6687
# 6 0.0000 0.0000 0.0000 0.0008 3.6687 20.5064
#
#
#
# Elastic Compliance Matrix: (Units=1/GPa)
#
#
# Indices 1 2 3 4 5 6 
#
# 1 0.019175 -0.006046 -0.003829 -0.004685 0.000001 0.000000
# 2 -0.006046 0.019175 -0.003829 0.004685 -0.000001 0.000000
# 3 -0.003829 -0.003829 0.011359 0.000000 0.000000 0.000000
# 4 -0.004685 0.004685 0.000000 0.052376 0.000000 -0.000002
# 5 0.000001 -0.000001 0.000000 0.000000 0.052376 -0.009370
# 6 0.000000 0.000000 0.000000 -0.000002 -0.009370 0.050442
#
#
# Mechanical properties :
#
#
# Convention : Reuss Voigt Hill
#
# Bulk Modulus (GPa) = 44.84147 47.44861 46.14504
# Shear Modulus (GPa) = 20.85558 22.30662 21.58110
#
# Velocity S-wave (km/s) = 3.48321 3.60235 3.54328
# Velocity P-wave (km/s) = 6.50105 6.70118 6.60188
#
# Compressibility (1/GPa) = 0.02230078
#
# Stress axis : x y z
#
# Youngs Moduli (GPa) = 52.15145 52.15145 88.03318
#
# Poissons Ratio (x) = 0.31530 0.33709
# Poissons Ratio (y) = 0.31530 0.33709
# Poissons Ratio (z) = 0.19970 0.19970
#
# Static dielectric constant tensor:
#      x y z
#    x 1.612990 0.000000 0.000000 
#    y 0.000000 1.612990 0.000000 
#    z 0.000000 0.000000 2.211710 
# 
# From -- ./inp_files/5841.got.cif
#   From: 2010.05.17/outbox.cif.g08.bks.cpg/sg166_3_cif.got.tgz:5841.got - 2010.05.20 11:04:41.
