data_PCOD9579234
_publ_section_title
;
Structure prediction by ZEFSAII (Michael W. Deem and Ramdas Pophale) SiO2 
 PCOD9579234
Probable space group: R -3 M
;
_chemical_formula_sum "Si O2"
_cell_formula_units_Z 126
_cell_length_a 20.973550
_cell_length_b 20.973550
_cell_length_c 16.666435
_cell_angle_alpha 90.000000
_cell_angle_beta 90.000000
_cell_angle_gamma 120.000000
_cell_volume 6349.174101
_symmetry_space_group_name_H-M "R -3 M"
_symmetry_group_IT_number 166
_symmetry_cell_setting 'hexagonal'
loop_
_space_group_symop_operation_xyz
x,y,z
-y,x-y,z
-x+y,-x,z
x-y,-y,-z
-x,-x+y,-z
y,x,-z
-x,-y,-z
y,-x+y,-z
x-y,x,-z
-x+y,y,z
x,x-y,z
-y,-x,z
2/3+x,1/3+y,1/3+z
2/3-y,1/3+x-y,1/3+z
2/3-x+y,1/3-x,1/3+z
2/3+x-y,1/3-y,1/3-z
2/3-x,1/3-x+y,1/3-z
2/3+y,1/3+x,1/3-z
2/3-x,1/3-y,1/3-z
2/3+y,1/3-x+y,1/3-z
2/3+x-y,1/3+x,1/3-z
2/3-x+y,1/3+y,1/3+z
2/3+x,1/3+x-y,1/3+z
2/3-y,1/3-x,1/3+z
1/3+x,2/3+y,2/3+z
1/3-y,2/3+x-y,2/3+z
1/3-x+y,2/3-x,2/3+z
1/3+x-y,2/3-y,2/3-z
1/3-x,2/3-x+y,2/3-z
1/3+y,2/3+x,2/3-z
1/3-x,2/3-y,2/3-z
1/3+y,2/3-x+y,2/3-z
1/3+x-y,2/3+x,2/3-z
1/3-x+y,2/3+y,2/3+z
1/3+x,2/3+x-y,2/3+z
1/3-y,2/3-x,2/3+z
loop_
_atom_site_type_symbol
_atom_site_label
_atom_site_fract_x
_atom_site_fract_y
_atom_site_fract_z
Si Si1 0.667546 0.188408 0.208798
Si Si2 0.397142 0.453243 0.234099
Si Si3 0.915891 0.582557 0.333334
Si Si4 0.810337 0.476901 0.023771
O O1 0.586245 0.172490 0.231667
O O2 0.725060 0.274941 0.214620
O O3 0.695826 0.146326 0.264799
O O4 0.665038 0.165983 0.115950
O O5 0.477402 0.522599 0.206553
O O6 0.333334 0.412196 0.166667
O O7 0.407966 0.394670 0.286179
O O8 0.364167 0.487507 0.296317
O O9 0.722944 0.445888 0.022568
O O10 0.827843 0.413922 0.000470
#
# Coordination Sequence:
#
# PCOD9579234 Si02
#       4
#    36  36  18  36
#     4  10  20  37  63  93 125 160 204 258 315 371
#     4  11  25  44  65  91 125 167 215 261 310 372
#     4  12  26  40  58  90 124 168 208 252 304 366
#     4   9  19  37  64  95 124 157 202 260 319 370
#
# _framework density 19.845101
#
# number of rings (size 3 to 8) (size 9 to 14) (size 15 to 20)
#    0.000    1.714    0.000    4.000    4.000    2.286 
#    0.000    7.143    0.000    4.571    0.000    0.000 
#    0.000    0.000    0.000    0.000    0.000    0.000 
#
# Total GULP energy -234284.793501 kJ/mol
# GULP energy per Si atom -5578.209369 kJ/mol
# Density = 1.979993 g / cm^3
# Si number density = 19.845101 Si / 1000 Ang^3
#
#
#
# Elastic Constant Matrix: (Units=GPa)
#
#
# Indices 1 2 3 4 5 6 
#
# 1 92.7860 51.9337 56.0118 -6.7930 0.0008 0.0000
# 2 51.9337 92.7860 56.0118 6.7930 -0.0008 0.0000
# 3 56.0118 56.0118 77.8091 0.0000 0.0000 0.0000
# 4 -6.7930 6.7930 0.0000 38.0137 0.0000 -0.0008
# 5 0.0008 -0.0008 0.0000 0.0000 38.0137 -6.7930
# 6 0.0000 0.0000 0.0000 -0.0008 -6.7930 20.4262
#
#
#
# Elastic Compliance Matrix: (Units=1/GPa)
#
#
# Indices 1 2 3 4 5 6 
#
# 1 0.020815 -0.005210 -0.011234 0.004651 -0.000001 0.000000
# 2 -0.005210 0.020815 -0.011234 -0.004651 0.000001 0.000000
# 3 -0.011234 -0.011234 0.029026 0.000000 0.000000 0.000000
# 4 0.004651 -0.004651 0.000000 0.027968 0.000000 0.000001
# 5 -0.000001 0.000001 0.000000 0.000000 0.027968 0.009301
# 6 0.000000 0.000000 0.000000 0.000001 0.009301 0.052050
#
#
# Mechanical properties :
#
#
# Convention : Reuss Voigt Hill
#
# Bulk Modulus (GPa) = 65.35350 65.69950 65.52650
# Shear Modulus (GPa) = 20.91176 25.91898 23.41537
#
# Velocity S-wave (km/s) = 3.24967 3.61787 3.43870
# Velocity P-wave (km/s) = 6.86176 7.11548 6.98977
#
# Compressibility (1/GPa) = 0.01530140
#
# Stress axis : x y z
#
# Youngs Moduli (GPa) = 48.04115 48.04115 34.45185
#
# Poissons Ratio (x) = 0.25027 0.38704
# Poissons Ratio (y) = 0.25027 0.38704
# Poissons Ratio (z) = 0.53970 0.53970
#
# Static dielectric constant tensor:
#      x y z
#    x 1.710240 0.000000 0.000000 
#    y 0.000000 1.710240 0.000000 
#    z 0.000000 0.000000 1.694660 
# 
# From -- ./inp_files/4950.got.cif
#   From: 2010.05.17/outbox.cif.g08.bks.cpg/sg166_3_cif.got.tgz:4950.got - 2010.05.20 11:04:41.
