data_PCOD9579201
_publ_section_title
;
Structure prediction by ZEFSAII (Michael W. Deem and Ramdas Pophale) SiO2 
 PCOD9579201
Probable space group: R -3 M
;
_chemical_formula_sum "Si O2"
_cell_formula_units_Z 252
_cell_length_a 31.104720
_cell_length_b 31.104720
_cell_length_c 15.449972
_cell_angle_alpha 90.000000
_cell_angle_beta 90.000000
_cell_angle_gamma 120.000000
_cell_volume 12945.264274
_symmetry_space_group_name_H-M "R -3 M"
_symmetry_group_IT_number 166
_symmetry_cell_setting 'hexagonal'
loop_
_space_group_symop_operation_xyz
x,y,z
-y,x-y,z
-x+y,-x,z
x-y,-y,-z
-x,-x+y,-z
y,x,-z
-x,-y,-z
y,-x+y,-z
x-y,x,-z
-x+y,y,z
x,x-y,z
-y,-x,z
2/3+x,1/3+y,1/3+z
2/3-y,1/3+x-y,1/3+z
2/3-x+y,1/3-x,1/3+z
2/3+x-y,1/3-y,1/3-z
2/3-x,1/3-x+y,1/3-z
2/3+y,1/3+x,1/3-z
2/3-x,1/3-y,1/3-z
2/3+y,1/3-x+y,1/3-z
2/3+x-y,1/3+x,1/3-z
2/3-x+y,1/3+y,1/3+z
2/3+x,1/3+x-y,1/3+z
2/3-y,1/3-x,1/3+z
1/3+x,2/3+y,2/3+z
1/3-y,2/3+x-y,2/3+z
1/3-x+y,2/3-x,2/3+z
1/3+x-y,2/3-y,2/3-z
1/3-x,2/3-x+y,2/3-z
1/3+y,2/3+x,2/3-z
1/3-x,2/3-y,2/3-z
1/3+y,2/3-x+y,2/3-z
1/3+x-y,2/3+x,2/3-z
1/3-x+y,2/3+y,2/3+z
1/3+x,2/3+x-y,2/3+z
1/3-y,2/3-x,2/3+z
loop_
_atom_site_type_symbol
_atom_site_label
_atom_site_fract_x
_atom_site_fract_y
_atom_site_fract_z
Si Si1 0.196330 0.298861 0.919292
Si Si2 0.274187 0.391650 0.002005
Si Si3 0.522907 0.147332 0.054518
Si Si4 0.493479 0.196334 0.916351
Si Si5 0.663939 0.715925 0.138415
Si Si6 0.560600 0.890877 0.822444
Si Si7 0.858356 0.618684 0.728516
O O1 0.137695 0.275390 0.920276
O O2 0.216742 0.333334 0.833334
O O3 0.209542 0.255282 0.915947
O O4 0.221351 0.341671 0.991204
O O5 0.274773 0.436022 0.055259
O O6 0.302184 0.367685 0.051039
O O7 0.300318 0.413482 0.911125
O O8 0.576527 0.153054 0.062682
O O9 0.496341 0.140566 0.147248
O O10 0.522805 0.190679 0.997951
O O11 0.490028 0.096979 0.995961
O O12 0.503034 0.251517 0.900966
O O13 0.507802 0.174469 0.833334
O O14 0.664495 0.666667 0.166667
O O15 0.719984 0.759309 0.136563
O O16 0.632083 0.732209 0.198681
O O17 0.806206 0.612411 0.762819
O O18 0.882323 0.666667 0.666667
#
# Coordination Sequence:
#
# PCOD9579201 Si02
#       7
#    36  36  36  36  36  36  36
#     4   9  18  34  52  70  96 131 173 222 272 326
#     4  10  21  35  51  76 103 142 183 226 271 322
#     4  10  20  36  56  78 105 139 182 230 280 338
#     4  11  22  37  57  82 111 147 192 239 284 333
#     4  12  22  30  48  73 105 139 174 221 271 324
#     4  10  21  34  50  73 101 136 176 222 276 333
#     4  10  20  35  53  72 102 141 180 225 276 327
#
# _framework density 19.466577999999998
#
# number of rings (size 3 to 8) (size 9 to 14) (size 15 to 20)
#    0.000    1.714    1.429    5.143    0.000    7.429 
#    0.000    0.000    0.000    2.571    0.000    0.000 
#    0.000    0.000    0.000    0.000    0.000    0.000 
#
# Total GULP energy -468241.658877 kJ/mol
# GULP energy per Si atom -5574.305463 kJ/mol
# Density = 1.942227 g / cm^3
# Si number density = 19.466578 Si / 1000 Ang^3
#
#
#
# Elastic Constant Matrix: (Units=GPa)
#
#
# Indices 1 2 3 4 5 6 
#
# 1 85.3392 43.6580 26.9977 0.7464 0.0003 0.0000
# 2 43.6580 85.3391 26.9976 -0.7464 -0.0003 0.0000
# 3 26.9977 26.9976 17.4994 0.0000 0.0000 0.0000
# 4 0.7464 -0.7464 0.0000 18.3677 0.0000 -0.0003
# 5 0.0003 -0.0003 0.0000 0.0000 18.3677 0.7464
# 6 0.0000 0.0000 0.0000 -0.0003 0.7464 20.8406
#
#
#
# Elastic Compliance Matrix: (Units=1/GPa)
#
#
# Indices 1 2 3 4 5 6 
#
# 1 0.022956 -0.001071 -0.033763 -0.000976 0.000000 0.000000
# 2 -0.001071 0.022955 -0.033763 0.000976 0.000000 0.000000
# 3 -0.033763 -0.033763 0.161322 0.000000 0.000000 0.000000
# 4 -0.000976 0.000976 0.000000 0.054523 0.000000 0.000001
# 5 0.000000 0.000000 0.000000 0.000000 0.054523 -0.001953
# 6 0.000000 0.000000 0.000000 0.000001 -0.001953 0.048053
#
#
# Mechanical properties :
#
#
# Convention : Reuss Voigt Hill
#
# Bulk Modulus (GPa) = 14.27767 42.60935 28.44351
# Shear Modulus (GPa) = 9.52615 17.55016 13.53816
#
# Velocity S-wave (km/s) = 2.21455 3.00585 2.64001
# Velocity P-wave (km/s) = 3.72684 5.82948 4.89245
#
# Compressibility (1/GPa) = 0.07003943
#
# Stress axis : x y z
#
# Youngs Moduli (GPa) = 43.56235 43.56263 6.19879
#
# Poissons Ratio (x) = 0.04666 0.20929
# Poissons Ratio (y) = 0.04666 0.20929
# Poissons Ratio (z) = 1.47079 1.47079
#
# Static dielectric constant tensor:
#      x y z
#    x 1.697980 0.000000 0.000000 
#    y 0.000000 1.697980 0.000000 
#    z 0.000000 0.000000 1.815860 
# 
# From -- ./inp_files/5818.got.cif
#   From: 2010.05.17/outbox.cif.g08.bks.cpg/sg166_3_cif.got.tgz:5818.got - 2010.05.20 11:04:41.
