data_PCOD9579715
_publ_section_title
;
Structure prediction by ZEFSAII (Michael W. Deem and Ramdas Pophale) SiO2 
 PCOD9579715
Probable space group: R -3 C 
;
_chemical_formula_sum "Si O2"
_cell_formula_units_Z 108
_cell_length_a 24.519174
_cell_length_b 24.519174
_cell_length_c 10.580782
_cell_angle_alpha 90.000000
_cell_angle_beta 90.000000
_cell_angle_gamma 120.000000
_cell_volume 5508.838867
_symmetry_space_group_name_H-M "R -3 C "
_symmetry_group_IT_number 167
_symmetry_cell_setting 'hexagonal'
loop_
_space_group_symop_operation_xyz
x,y,z
-y,x-y,z
-x+y,-x,z
x-y,-y,1/2-z
-x,-x+y,1/2-z
y,x,1/2-z
-x,-y,-z
y,-x+y,-z
x-y,x,-z
-x+y,y,1/2+z
x,x-y,1/2+z
-y,-x,1/2+z
2/3+x,1/3+y,1/3+z
2/3-y,1/3+x-y,1/3+z
2/3-x+y,1/3-x,1/3+z
2/3+x-y,1/3-y,5/6-z
2/3-x,1/3-x+y,5/6-z
2/3+y,1/3+x,5/6-z
2/3-x,1/3-y,1/3-z
2/3+y,1/3-x+y,1/3-z
2/3+x-y,1/3+x,1/3-z
2/3-x+y,1/3+y,5/6+z
2/3+x,1/3+x-y,5/6+z
2/3-y,1/3-x,5/6+z
1/3+x,2/3+y,2/3+z
1/3-y,2/3+x-y,2/3+z
1/3-x+y,2/3-x,2/3+z
1/3+x-y,2/3-y,1/6-z
1/3-x,2/3-x+y,1/6-z
1/3+y,2/3+x,1/6-z
1/3-x,2/3-y,2/3-z
1/3+y,2/3-x+y,2/3-z
1/3+x-y,2/3+x,2/3-z
1/3-x+y,2/3+y,1/6+z
1/3+x,2/3+x-y,1/6+z
1/3-y,2/3-x,1/6+z
loop_
_atom_site_type_symbol
_atom_site_label
_atom_site_fract_x
_atom_site_fract_y
_atom_site_fract_z
Si Si1 0.808690 0.808690 0.250000
Si Si2 0.187805 0.812195 0.457865
Si Si3 0.000000 0.808690 0.250000
Si Si4 0.124151 0.124151 0.500000
O O1 0.817800 0.749234 0.287348
O O2 0.832819 0.849918 0.377063
O O3 0.166667 0.833333 0.583334
O O4 0.166667 0.833334 0.333334
O O5 0.264767 0.848867 0.454015
O O6 0.017099 0.849919 0.377063
O O7 0.116677 0.058339 0.461046
#
# Coordination Sequence:
#
# PCOD9579715 Si02
#       4
#    18  36  18  36
#     4  12  24  46  71 100 140 183 240 300 362 424
#     4  12  26  48  74 101 144 191 242 310 370 437
#     4  12  24  46  71 100 140 183 240 300 362 424
#     4  12  21  38  66 104 142 180 214 275 344 428
#
# _framework density 19.604858
#
# number of rings (size 3 to 8) (size 9 to 14) (size 15 to 20)
#    0.000    0.000    6.667    4.333    0.000    0.000 
#    6.000    3.333    0.000    0.000    0.000    0.000 
#    0.000    0.000    0.000    0.000    0.000    0.000 
#
# Total GULP energy -200612.754131 kJ/mol
# GULP energy per Si atom -5572.576504 kJ/mol
# Density = 1.956024 g / cm^3
# Si number density = 19.604858 Si / 1000 Ang^3
#
#
#
# Elastic Constant Matrix: (Units=GPa)
#
#
# Indices 1 2 3 4 5 6 
#
# 1 100.6788 90.4260 45.4128 0.0822 -0.0003 -0.0001
# 2 90.4260 100.6792 45.4142 -0.0820 0.0003 -0.0002
# 3 45.4128 45.4142 149.9048 0.0001 0.0009 -0.0010
# 4 0.0822 -0.0820 0.0001 77.7094 0.0001 -0.0003
# 5 -0.0003 0.0003 0.0009 0.0001 77.7096 0.0819
# 6 -0.0001 -0.0002 -0.0010 -0.0003 0.0819 5.1259
#
#
#
# Elastic Compliance Matrix: (Units=1/GPa)
#
#
# Indices 1 2 3 4 5 6 
#
# 1 0.051823 -0.045710 -0.001851 -0.000103 0.000000 -0.000001
# 2 -0.045710 0.051823 -0.001852 0.000103 0.000000 0.000001
# 3 -0.001851 -0.001852 0.007793 0.000000 0.000000 0.000001
# 4 -0.000103 0.000103 0.000000 0.012869 0.000000 0.000001
# 5 0.000000 0.000000 0.000000 0.000000 0.012869 -0.000206
# 6 -0.000001 0.000001 0.000001 0.000001 -0.000206 0.195091
#
#
# Mechanical properties :
#
#
# Convention : Reuss Voigt Hill
#
# Bulk Modulus (GPa) = 79.29489 79.30765 79.30127
# Shear Modulus (GPa) = 11.48634 43.44296 27.46465
#
# Velocity S-wave (km/s) = 2.42315 4.71247 3.74693
# Velocity P-wave (km/s) = 6.95437 8.37560 7.69786
#
# Compressibility (1/GPa) = 0.01261115
#
# Stress axis : x y z
#
# Youngs Moduli (GPa) = 19.29644 19.29634 128.32104
#
# Poissons Ratio (x) = 0.88204 0.23757
# Poissons Ratio (y) = 0.88205 0.23770
# Poissons Ratio (z) = 0.03573 0.03574
#
# Static dielectric constant tensor:
#      x y z
#    x 1.736540 0.000000 0.000000 
#    y 0.000000 1.736540 0.000000 
#    z 0.000000 0.000000 1.605260 
# 
# From -- ./inp_files/1270.got.cif
#   From: 2010.05.17/outbox.cif.g08.bks.cpg/sg167_1_cif.got.tgz:1270.got - 2010.05.20 11:09:15.
