data_PCOD9579145
_publ_section_title
;
Structure prediction by ZEFSAII (Michael W. Deem and Ramdas Pophale) SiO2 
 PCOD9579145
Probable space group: R -3 M
;
_chemical_formula_sum "Si O2"
_cell_formula_units_Z 216
_cell_length_a 22.656763
_cell_length_b 22.656763
_cell_length_c 23.171204
_cell_angle_alpha 90.000000
_cell_angle_beta 90.000000
_cell_angle_gamma 120.000000
_cell_volume 10300.894898
_symmetry_space_group_name_H-M "R -3 M"
_symmetry_group_IT_number 166
_symmetry_cell_setting 'hexagonal'
loop_
_space_group_symop_operation_xyz
x,y,z
-y,x-y,z
-x+y,-x,z
x-y,-y,-z
-x,-x+y,-z
y,x,-z
-x,-y,-z
y,-x+y,-z
x-y,x,-z
-x+y,y,z
x,x-y,z
-y,-x,z
2/3+x,1/3+y,1/3+z
2/3-y,1/3+x-y,1/3+z
2/3-x+y,1/3-x,1/3+z
2/3+x-y,1/3-y,1/3-z
2/3-x,1/3-x+y,1/3-z
2/3+y,1/3+x,1/3-z
2/3-x,1/3-y,1/3-z
2/3+y,1/3-x+y,1/3-z
2/3+x-y,1/3+x,1/3-z
2/3-x+y,1/3+y,1/3+z
2/3+x,1/3+x-y,1/3+z
2/3-y,1/3-x,1/3+z
1/3+x,2/3+y,2/3+z
1/3-y,2/3+x-y,2/3+z
1/3-x+y,2/3-x,2/3+z
1/3+x-y,2/3-y,2/3-z
1/3-x,2/3-x+y,2/3-z
1/3+y,2/3+x,2/3-z
1/3-x,2/3-y,2/3-z
1/3+y,2/3-x+y,2/3-z
1/3+x-y,2/3+x,2/3-z
1/3-x+y,2/3+y,2/3+z
1/3+x,2/3+x-y,2/3+z
1/3-y,2/3-x,2/3+z
loop_
_atom_site_type_symbol
_atom_site_label
_atom_site_fract_x
_atom_site_fract_y
_atom_site_fract_z
Si Si1 0.463614 0.665876 0.981675
Si Si2 0.114663 0.748123 0.068835
Si Si3 0.152130 0.711931 0.546842
Si Si4 0.828061 0.303302 0.771154
Si Si5 0.547837 0.954217 0.616797
Si Si6 0.280528 0.421867 0.892305
O O1 0.441436 0.720718 0.966426
O O2 0.408504 0.591496 0.960209
O O3 0.536587 0.692865 0.952311
O O4 0.467615 0.661215 0.050518
O O5 0.195965 0.804036 0.062473
O O6 0.086958 0.778505 0.117248
O O7 0.099564 0.673849 0.087216
O O8 0.077935 0.752889 0.010712
O O9 0.231519 0.768482 0.553735
O O10 0.132047 0.668926 0.488648
O O11 0.118035 0.656305 0.598087
O O12 0.778474 0.221527 0.773391
O O13 0.825810 0.333334 0.833334
O O14 0.474218 0.948436 0.616447
O O15 0.594630 0.010919 0.569286
O O16 0.209790 0.419580 0.877811
#
# Coordination Sequence:
#
# PCOD9579145 Si02
#       6
#    36  36  36  36  36  36
#     4  10  19  33  55  86 125 168 212 259 313 377
#     4  10  21  40  62  86 118 162 213 266 321 371
#     4  11  23  37  59  93 129 162 204 263 327 390
#     4  11  22  37  61  89 124 170 216 265 321 377
#     4  10  20  39  67  92 120 164 219 269 316 381
#     4  10  20  37  63  92 125 165 212 266 321 383
#
# _framework density 20.969051
#
# number of rings (size 3 to 8) (size 9 to 14) (size 15 to 20)
#    0.000    1.667    1.667    3.667    0.000    2.667 
#    0.000    0.833    0.000   13.167    0.000    0.000 
#    0.000   16.000    0.000    0.000    0.000    0.000 
#
# Total GULP energy -401516.578932 kJ/mol
# GULP energy per Si atom -5576.619152 kJ/mol
# Density = 2.092132 g / cm^3
# Si number density = 20.969051 Si / 1000 Ang^3
#
#
#
# Elastic Constant Matrix: (Units=GPa)
#
#
# Indices 1 2 3 4 5 6 
#
# 1 94.0428 36.7827 37.4794 -1.8639 0.0003 0.0000
# 2 36.7827 94.0428 37.4794 1.8639 -0.0003 0.0000
# 3 37.4794 37.4794 110.5886 0.0000 0.0000 0.0000
# 4 -1.8639 1.8639 0.0000 24.6063 0.0000 -0.0003
# 5 0.0003 -0.0003 0.0000 0.0000 24.6063 -1.8639
# 6 0.0000 0.0000 0.0000 -0.0003 -1.8639 28.6301
#
#
#
# Elastic Compliance Matrix: (Units=1/GPa)
#
#
# Indices 1 2 3 4 5 6 
#
# 1 0.013518 -0.004032 -0.003215 0.001329 0.000000 0.000000
# 2 -0.004032 0.013518 -0.003215 -0.001329 0.000000 0.000000
# 3 -0.003215 -0.003215 0.011222 0.000000 0.000000 0.000000
# 4 0.001329 -0.001329 0.000000 0.040841 0.000000 0.000000
# 5 0.000000 0.000000 0.000000 0.000000 0.040841 0.002659
# 6 0.000000 0.000000 0.000000 0.000000 0.002659 0.035101
#
#
# Mechanical properties :
#
#
# Convention : Reuss Voigt Hill
#
# Bulk Modulus (GPa) = 57.69054 58.01747 57.85401
# Shear Modulus (GPa) = 27.51118 28.03073 27.77095
#
# Velocity S-wave (km/s) = 3.62607 3.66015 3.64315
# Velocity P-wave (km/s) = 6.71589 6.75207 6.73400
#
# Compressibility (1/GPa) = 0.01733386
#
# Stress axis : x y z
#
# Youngs Moduli (GPa) = 73.97424 73.97424 89.11415
#
# Poissons Ratio (x) = 0.29830 0.28648
# Poissons Ratio (y) = 0.29830 0.28648
# Poissons Ratio (z) = 0.23781 0.23781
#
# Static dielectric constant tensor:
#      x y z
#    x 1.770690 0.000000 0.000000 
#    y 0.000000 1.770690 0.000000 
#    z 0.000000 0.000000 1.825680 
# 
# From -- ./inp_files/8488.got.cif
#   From: 2010.05.17/outbox.cif.g08.bks.cpg/sg166_5_cif.got.tgz:8488.got - 2010.05.20 11:04:41.
