data_PCOD9579283
_publ_section_title
;
Structure prediction by ZEFSAII (Michael W. Deem and Ramdas Pophale) SiO2 
 PCOD9579283
Probable space group: R -3 M
;
_chemical_formula_sum "Si O2"
_cell_formula_units_Z 144
_cell_length_a 28.559156
_cell_length_b 28.559156
_cell_length_c 11.270896
_cell_angle_alpha 90.000000
_cell_angle_beta 90.000000
_cell_angle_gamma 120.000000
_cell_volume 7961.223414
_symmetry_space_group_name_H-M "R -3 M"
_symmetry_group_IT_number 166
_symmetry_cell_setting 'hexagonal'
loop_
_space_group_symop_operation_xyz
x,y,z
-y,x-y,z
-x+y,-x,z
x-y,-y,-z
-x,-x+y,-z
y,x,-z
-x,-y,-z
y,-x+y,-z
x-y,x,-z
-x+y,y,z
x,x-y,z
-y,-x,z
2/3+x,1/3+y,1/3+z
2/3-y,1/3+x-y,1/3+z
2/3-x+y,1/3-x,1/3+z
2/3+x-y,1/3-y,1/3-z
2/3-x,1/3-x+y,1/3-z
2/3+y,1/3+x,1/3-z
2/3-x,1/3-y,1/3-z
2/3+y,1/3-x+y,1/3-z
2/3+x-y,1/3+x,1/3-z
2/3-x+y,1/3+y,1/3+z
2/3+x,1/3+x-y,1/3+z
2/3-y,1/3-x,1/3+z
1/3+x,2/3+y,2/3+z
1/3-y,2/3+x-y,2/3+z
1/3-x+y,2/3-x,2/3+z
1/3+x-y,2/3-y,2/3-z
1/3-x,2/3-x+y,2/3-z
1/3+y,2/3+x,2/3-z
1/3-x,2/3-y,2/3-z
1/3+y,2/3-x+y,2/3-z
1/3+x-y,2/3+x,2/3-z
1/3-x+y,2/3+y,2/3+z
1/3+x,2/3+x-y,2/3+z
1/3-y,2/3-x,2/3+z
loop_
_atom_site_type_symbol
_atom_site_label
_atom_site_fract_x
_atom_site_fract_y
_atom_site_fract_z
Si Si1 0.667045 0.223775 0.970929
Si Si2 0.586390 0.065938 0.300012
Si Si3 0.271814 0.974538 0.624745
Si Si4 0.191873 0.986315 0.802684
O O1 0.608504 0.217008 0.996723
O O2 0.713519 0.286482 0.977057
O O3 0.682412 0.190255 0.061846
O O4 0.666667 0.206516 0.833334
O O5 0.524310 0.048619 0.291454
O O6 0.610928 0.098584 0.422864
O O7 0.621686 0.107106 0.196554
O O8 0.594721 0.014413 0.289087
O O9 0.230698 0.977380 0.715109
O O10 0.269425 0.000000 0.500000
O O11 0.333334 0.011237 0.666667
#
# Coordination Sequence:
#
# PCOD9579283 Si02
#       4
#    36  36  36  36
#     4  10  21  39  62  88 119 156 199 249 304 359
#     4  11  23  38  60  88 121 160 201 245 294 355
#     4  12  21  41  62  86 119 162 199 244 296 352
#     4  11  22  38  61  88 122 155 199 245 301 352
#
# _framework density 18.087672999999999
#
# number of rings (size 3 to 8) (size 9 to 14) (size 15 to 20)
#    0.000    1.000    5.000    3.250    0.000    4.000 
#    0.000    3.750    0.000    0.000    0.000    8.750 
#    0.000    0.000    0.000    0.000    0.000    0.000 
#
# Total GULP energy -268083.073696 kJ/mol
# GULP energy per Si atom -5585.064035 kJ/mol
# Density = 1.804651 g / cm^3
# Si number density = 18.087673 Si / 1000 Ang^3
#
#
#
# Elastic Constant Matrix: (Units=GPa)
#
#
# Indices 1 2 3 4 5 6 
#
# 1 78.7940 10.5634 30.0175 6.5035 0.0109 -0.0059
# 2 10.5634 78.7943 30.0213 -6.5003 -0.0012 0.0048
# 3 30.0175 30.0213 89.4634 -0.0003 0.0075 -0.0021
# 4 6.5035 -6.5003 -0.0003 16.5852 0.0018 -0.0066
# 5 0.0109 -0.0012 0.0075 0.0018 16.5841 6.4995
# 6 -0.0059 0.0048 -0.0021 -0.0066 6.4995 34.1008
#
#
#
# Elastic Compliance Matrix: (Units=1/GPa)
#
#
# Indices 1 2 3 4 5 6 
#
# 1 0.015144 -0.000696 -0.004848 -0.006211 -0.000008 0.000003
# 2 -0.000696 0.015144 -0.004848 0.006208 0.000004 -0.000002
# 3 -0.004848 -0.004848 0.014431 0.000001 -0.000004 0.000002
# 4 -0.006211 0.006208 0.000001 0.065164 -0.000007 0.000012
# 5 -0.000008 0.000004 -0.000004 -0.000007 0.065166 -0.012420
# 6 0.000003 -0.000002 0.000002 0.000012 -0.012420 0.031692
#
#
# Mechanical properties :
#
#
# Convention : Reuss Voigt Hill
#
# Bulk Modulus (GPa) = 41.77880 43.13956 42.45918
# Shear Modulus (GPa) = 21.23107 25.21731 23.22419
#
# Velocity S-wave (km/s) = 3.42977 3.73791 3.58715
# Velocity P-wave (km/s) = 6.23158 6.52161 6.37824
#
# Compressibility (1/GPa) = 0.02393559
#
# Stress axis : x y z
#
# Youngs Moduli (GPa) = 66.03243 66.03273 69.29352
#
# Poissons Ratio (x) = 0.04593 0.33593
# Poissons Ratio (y) = 0.04593 0.33597
# Poissons Ratio (z) = 0.32012 0.32016
#
# Static dielectric constant tensor:
#      x y z
#    x 1.597300 0.000000 0.000000 
#    y 0.000000 1.597300 0.000000 
#    z 0.000000 0.000000 1.661120 
# 
# From -- ./inp_files/1801.got.cif
#   From: 2010.05.17/outbox.cif.g08.bks.cpg/sg166_1_cif.got.tgz:1801.got - 2010.05.20 11:04:41.
