data_PCOD9579043
_publ_section_title
;
Structure prediction by ZEFSAII (Michael W. Deem and Ramdas Pophale) SiO2 
 PCOD9579043
Probable space group: R -3 M
;
_chemical_formula_sum "Si O2"
_cell_formula_units_Z 162
_cell_length_a 21.837748
_cell_length_b 21.837748
_cell_length_c 24.438162
_cell_angle_alpha 90.000000
_cell_angle_beta 90.000000
_cell_angle_gamma 120.000000
_cell_volume 10092.874458
_symmetry_space_group_name_H-M "R -3 M"
_symmetry_group_IT_number 166
_symmetry_cell_setting 'hexagonal'
loop_
_space_group_symop_operation_xyz
x,y,z
-y,x-y,z
-x+y,-x,z
x-y,-y,-z
-x,-x+y,-z
y,x,-z
-x,-y,-z
y,-x+y,-z
x-y,x,-z
-x+y,y,z
x,x-y,z
-y,-x,z
2/3+x,1/3+y,1/3+z
2/3-y,1/3+x-y,1/3+z
2/3-x+y,1/3-x,1/3+z
2/3+x-y,1/3-y,1/3-z
2/3-x,1/3-x+y,1/3-z
2/3+y,1/3+x,1/3-z
2/3-x,1/3-y,1/3-z
2/3+y,1/3-x+y,1/3-z
2/3+x-y,1/3+x,1/3-z
2/3-x+y,1/3+y,1/3+z
2/3+x,1/3+x-y,1/3+z
2/3-y,1/3-x,1/3+z
1/3+x,2/3+y,2/3+z
1/3-y,2/3+x-y,2/3+z
1/3-x+y,2/3-x,2/3+z
1/3+x-y,2/3-y,2/3-z
1/3-x,2/3-x+y,2/3-z
1/3+y,2/3+x,2/3-z
1/3-x,2/3-y,2/3-z
1/3+y,2/3-x+y,2/3-z
1/3+x-y,2/3+x,2/3-z
1/3-x+y,2/3+y,2/3+z
1/3+x,2/3+x-y,2/3+z
1/3-y,2/3-x,2/3+z
loop_
_atom_site_type_symbol
_atom_site_label
_atom_site_fract_x
_atom_site_fract_y
_atom_site_fract_z
Si Si1 0.444518 0.031047 0.229935
Si Si2 0.035670 0.447245 0.559298
Si Si3 0.855563 0.002062 0.606805
Si Si4 0.000000 0.771500 0.500000
Si Si5 0.210238 0.275081 0.674159
O O1 0.524784 0.049568 0.225396
O O2 0.432018 0.096855 0.225575
O O3 0.397842 0.970995 0.185149
O O4 0.415559 0.993111 0.288776
O O5 0.055140 0.527570 0.572689
O O6 0.000000 0.429410 0.500000
O O7 0.979236 0.394690 0.604241
O O8 0.934234 0.065767 0.615039
O O9 0.822818 0.014359 0.551499
O O10 0.853403 0.926702 0.601979
O O11 0.802068 0.995582 0.655273
O O12 0.133521 0.267041 0.682341
#
# Coordination Sequence:
#
# PCOD9579043 Si02
#       5
#    36  36  36  18  36
#     4  10  18  31  51  73  98 129 164 202 247 297
#     4  10  19  33  52  73  95 123 161 206 251 298
#     4  10  18  29  46  69 100 137 176 211 249 294
#     4  10  18  30  46  70 102 138 172 212 244 282
#     4   8  17  31  48  67  92 126 161 201 248 294
#
# _framework density 16.050927999999999
#
# number of rings (size 3 to 8) (size 9 to 14) (size 15 to 20)
#    0.000    2.444    1.111    4.222    0.000    0.000 
#    0.000    2.222    0.000    3.111    0.000    0.000 
#    0.000    5.333    0.000    0.000    0.000    0.000 
#
# Total GULP energy -300738.763688 kJ/mol
# GULP energy per Si atom -5569.236365 kJ/mol
# Density = 1.601440 g / cm^3
# Si number density = 16.050928 Si / 1000 Ang^3
#
#
#
# Elastic Constant Matrix: (Units=GPa)
#
#
# Indices 1 2 3 4 5 6 
#
# 1 88.2313 40.9921 38.7745 0.5858 0.0000 0.0000
# 2 40.9921 88.2313 38.7745 -0.5858 0.0000 0.0000
# 3 38.7745 38.7745 75.5172 0.0000 0.0000 0.0000
# 4 0.5858 -0.5858 0.0000 16.2069 0.0000 0.0000
# 5 0.0000 0.0000 0.0000 0.0000 16.2069 0.5858
# 6 0.0000 0.0000 0.0000 0.0000 0.5858 23.6196
#
#
#
# Elastic Compliance Matrix: (Units=1/GPa)
#
#
# Indices 1 2 3 4 5 6 
#
# 1 0.016186 -0.005001 -0.005743 -0.000766 0.000000 0.000000
# 2 -0.005001 0.016186 -0.005743 0.000766 0.000000 0.000000
# 3 -0.005743 -0.005743 0.019139 0.000000 0.000000 0.000000
# 4 -0.000766 0.000766 0.000000 0.061757 0.000000 0.000000
# 5 0.000000 0.000000 0.000000 0.000000 0.061757 -0.001532
# 6 0.000000 0.000000 0.000000 0.000000 -0.001532 0.042376
#
#
# Mechanical properties :
#
#
# Convention : Reuss Voigt Hill
#
# Bulk Modulus (GPa) = 53.94438 54.34024 54.14231
# Shear Modulus (GPa) = 19.48887 20.10260 19.79573
#
# Velocity S-wave (km/s) = 3.48830 3.54280 3.51566
# Velocity P-wave (km/s) = 7.06439 7.11784 7.09116
#
# Compressibility (1/GPa) = 0.01853761
#
# Stress axis : x y z
#
# Youngs Moduli (GPa) = 61.78021 61.78021 52.24800
#
# Poissons Ratio (x) = 0.30899 0.30006
# Poissons Ratio (y) = 0.30899 0.30006
# Poissons Ratio (z) = 0.35480 0.35480
#
# Static dielectric constant tensor:
#      x y z
#    x 1.542750 0.000000 0.000000 
#    y 0.000000 1.542750 0.000000 
#    z 0.000000 0.000000 1.553030 
# 
# From -- ./inp_files/8162.got.cif
#   From: 2010.05.17/outbox.cif.g08.bks.cpg/sg166_5_cif.got.tgz:8162.got - 2010.05.20 11:04:41.
