data_PCOD9579159
_publ_section_title
;
Structure prediction by ZEFSAII (Michael W. Deem and Ramdas Pophale) SiO2 
 PCOD9579159
Probable space group: R -3 M
;
_chemical_formula_sum "Si O2"
_cell_formula_units_Z 108
_cell_length_a 22.096601
_cell_length_b 22.096601
_cell_length_c 14.897194
_cell_angle_alpha 90.000000
_cell_angle_beta 90.000000
_cell_angle_gamma 120.000000
_cell_volume 6299.209501
_symmetry_space_group_name_H-M "R -3 M"
_symmetry_group_IT_number 166
_symmetry_cell_setting 'hexagonal'
loop_
_space_group_symop_operation_xyz
x,y,z
-y,x-y,z
-x+y,-x,z
x-y,-y,-z
-x,-x+y,-z
y,x,-z
-x,-y,-z
y,-x+y,-z
x-y,x,-z
-x+y,y,z
x,x-y,z
-y,-x,z
2/3+x,1/3+y,1/3+z
2/3-y,1/3+x-y,1/3+z
2/3-x+y,1/3-x,1/3+z
2/3+x-y,1/3-y,1/3-z
2/3-x,1/3-x+y,1/3-z
2/3+y,1/3+x,1/3-z
2/3-x,1/3-y,1/3-z
2/3+y,1/3-x+y,1/3-z
2/3+x-y,1/3+x,1/3-z
2/3-x+y,1/3+y,1/3+z
2/3+x,1/3+x-y,1/3+z
2/3-y,1/3-x,1/3+z
1/3+x,2/3+y,2/3+z
1/3-y,2/3+x-y,2/3+z
1/3-x+y,2/3-x,2/3+z
1/3+x-y,2/3-y,2/3-z
1/3-x,2/3-x+y,2/3-z
1/3+y,2/3+x,2/3-z
1/3-x,2/3-y,2/3-z
1/3+y,2/3-x+y,2/3-z
1/3+x-y,2/3+x,2/3-z
1/3-x+y,2/3+y,2/3+z
1/3+x,2/3+x-y,2/3+z
1/3-y,2/3-x,2/3+z
loop_
_atom_site_type_symbol
_atom_site_label
_atom_site_fract_x
_atom_site_fract_y
_atom_site_fract_z
Si Si1 0.935977 0.538978 0.764786
Si Si2 0.953775 0.767972 0.910869
Si Si3 0.606202 0.538521 0.558603
O O1 0.913949 0.456975 0.771373
O O2 0.895899 0.562566 0.833334
O O3 0.929202 0.557557 0.661393
O O4 0.019335 0.581838 0.780347
O O5 0.893309 0.786618 0.926050
O O6 0.005754 0.807232 0.829578
O O7 0.000000 0.783699 0.000000
O O8 0.593047 0.593047 0.500000
O O9 0.531218 0.468783 0.562340
#
# Coordination Sequence:
#
# PCOD9579159 Si02
#       3
#    36  36  36
#     4  10  22  36  55  83 113 146 183 226 278 330
#     4  11  21  33  53  82 111 144 183 224 276 331
#     4  10  19  35  56  77 106 147 188 224 269 328
#
# _framework density 17.145009000000002
#
# number of rings (size 3 to 8) (size 9 to 14) (size 15 to 20)
#    0.000    1.667    3.333    2.000    0.000    1.333 
#    0.000    3.333    0.000    6.333    0.000    0.000 
#    0.000    0.000    0.000    0.000    0.000    0.000 
#
# Total GULP energy -200768.563943 kJ/mol
# GULP energy per Si atom -5576.904554 kJ/mol
# Density = 1.710599 g / cm^3
# Si number density = 17.145009 Si / 1000 Ang^3
#
#
#
# Elastic Constant Matrix: (Units=GPa)
#
#
# Indices 1 2 3 4 5 6 
#
# 1 56.7889 22.2896 43.0577 3.5312 0.0000 0.0000
# 2 22.2896 56.7889 43.0577 -3.5312 0.0000 0.0000
# 3 43.0577 43.0577 143.5223 0.0000 0.0000 0.0000
# 4 3.5312 -3.5312 0.0000 24.0597 0.0000 0.0000
# 5 0.0000 0.0000 0.0000 0.0000 24.0597 3.5312
# 6 0.0000 0.0000 0.0000 0.0000 3.5312 17.2497
#
#
#
# Elastic Compliance Matrix: (Units=1/GPa)
#
#
# Indices 1 2 3 4 5 6 
#
# 1 0.024333 -0.005551 -0.005635 -0.004386 0.000000 0.000000
# 2 -0.005551 0.024333 -0.005635 0.004386 0.000000 0.000000
# 3 -0.005635 -0.005635 0.010348 0.000000 0.000000 0.000000
# 4 -0.004386 0.004386 0.000000 0.042851 0.000000 0.000000
# 5 0.000000 0.000000 0.000000 0.000000 0.042851 -0.008772
# 6 0.000000 0.000000 0.000000 0.000000 -0.008772 0.059768
#
#
# Mechanical properties :
#
#
# Convention : Reuss Voigt Hill
#
# Bulk Modulus (GPa) = 39.41155 52.65669 46.03412
# Shear Modulus (GPa) = 20.27724 22.98683 21.63204
#
# Velocity S-wave (km/s) = 3.44276 3.66557 3.55591
# Velocity P-wave (km/s) = 6.23222 6.97814 6.61570
#
# Compressibility (1/GPa) = 0.02537327
#
# Stress axis : x y z
#
# Youngs Moduli (GPa) = 41.09675 41.09675 96.63302
#
# Poissons Ratio (x) = 0.22813 0.54449
# Poissons Ratio (y) = 0.22813 0.54449
# Poissons Ratio (z) = 0.23157 0.23157
#
# Static dielectric constant tensor:
#      x y z
#    x 1.596730 0.000000 0.000000 
#    y 0.000000 1.596730 0.000000 
#    z 0.000000 0.000000 1.617630 
# 
# From -- ./inp_files/2542.got.cif
#   From: 2010.05.17/outbox.cif.g08.bks.cpg/sg166_2_cif.got.tgz:2542.got - 2010.05.20 11:04:41.
