data_PCOD9579633
_publ_section_title
;
Structure prediction by ZEFSAII (Michael W. Deem and Ramdas Pophale) SiO2 
 PCOD9579633
Probable space group: R -3 C 
;
_chemical_formula_sum "Si O2"
_cell_formula_units_Z 162
_cell_length_a 24.419124
_cell_length_b 24.419124
_cell_length_c 15.339411
_cell_angle_alpha 90.000000
_cell_angle_beta 90.000000
_cell_angle_gamma 120.000000
_cell_volume 7921.354986
_symmetry_space_group_name_H-M "R -3 C "
_symmetry_group_IT_number 167
_symmetry_cell_setting 'hexagonal'
loop_
_space_group_symop_operation_xyz
x,y,z
-y,x-y,z
-x+y,-x,z
x-y,-y,1/2-z
-x,-x+y,1/2-z
y,x,1/2-z
-x,-y,-z
y,-x+y,-z
x-y,x,-z
-x+y,y,1/2+z
x,x-y,1/2+z
-y,-x,1/2+z
2/3+x,1/3+y,1/3+z
2/3-y,1/3+x-y,1/3+z
2/3-x+y,1/3-x,1/3+z
2/3+x-y,1/3-y,5/6-z
2/3-x,1/3-x+y,5/6-z
2/3+y,1/3+x,5/6-z
2/3-x,1/3-y,1/3-z
2/3+y,1/3-x+y,1/3-z
2/3+x-y,1/3+x,1/3-z
2/3-x+y,1/3+y,5/6+z
2/3+x,1/3+x-y,5/6+z
2/3-y,1/3-x,5/6+z
1/3+x,2/3+y,2/3+z
1/3-y,2/3+x-y,2/3+z
1/3-x+y,2/3-x,2/3+z
1/3+x-y,2/3-y,1/6-z
1/3-x,2/3-x+y,1/6-z
1/3+y,2/3+x,1/6-z
1/3-x,2/3-y,2/3-z
1/3+y,2/3-x+y,2/3-z
1/3+x-y,2/3+x,2/3-z
1/3-x+y,2/3+y,1/6+z
1/3+x,2/3+x-y,1/6+z
1/3-y,2/3-x,1/6+z
loop_
_atom_site_type_symbol
_atom_site_label
_atom_site_fract_x
_atom_site_fract_y
_atom_site_fract_z
Si Si1 0.380333 0.879011 0.252569
Si Si2 0.199338 0.432419 0.247754
Si Si3 0.400819 0.542073 0.399739
Si Si4 0.570670 0.986289 0.345634
Si Si5 0.371738 0.000000 0.250000
O O1 0.307729 0.829580 0.231409
O O2 0.420611 0.893400 0.164060
O O3 0.407431 0.854154 0.328892
O O4 0.382338 0.943670 0.283315
O O5 0.231867 0.450103 0.341192
O O6 0.138931 0.361893 0.244885
O O7 0.333334 0.536302 0.416667
O O8 0.387721 0.474659 0.362295
O O9 0.555276 0.000000 0.250000
O O10 0.645565 0.012120 0.350943
#
# Coordination Sequence:
#
# PCOD9579633 Si02
#       5
#    36  36  36  36  18
#     4  11  23  44  64  98 132 175 223 279 327 401
#     4  11  24  40  68  91 129 176 220 275 340 385
#     4  12  24  42  66  95 130 175 225 278 331 394
#     4  11  22  40  62  98 137 173 215 264 331 414
#     4  10  24  36  66  94 140 176 206 260 330 412
#
# _framework density 20.451046000000002
#
# number of rings (size 3 to 8) (size 9 to 14) (size 15 to 20)
#    0.000    0.889    3.333    4.000    3.111    3.556 
#    0.000    0.000    0.000   13.333    0.000    0.000 
#    0.000    0.000    0.000    0.000    0.000    0.000 
#
# Total GULP energy -301716.259859 kJ/mol
# GULP energy per Si atom -5587.338146 kJ/mol
# Density = 2.040450 g / cm^3
# Si number density = 20.451046 Si / 1000 Ang^3
#
#
#
# Elastic Constant Matrix: (Units=GPa)
#
#
# Indices 1 2 3 4 5 6 
#
# 1 65.8841 5.6208 -13.4504 2.3789 0.0004 0.0000
# 2 5.6208 65.8841 -13.4504 -2.3789 -0.0004 0.0000
# 3 -13.4504 -13.4504 48.0880 0.0000 0.0000 0.0000
# 4 2.3789 -2.3789 0.0000 22.3310 0.0000 -0.0004
# 5 0.0004 -0.0004 0.0000 0.0000 22.3310 2.3789
# 6 0.0000 0.0000 0.0000 -0.0004 2.3789 30.1317
#
#
#
# Elastic Compliance Matrix: (Units=1/GPa)
#
#
# Indices 1 2 3 4 5 6 
#
# 1 0.016182 -0.000552 0.004372 -0.001783 0.000000 0.000000
# 2 -0.000552 0.016182 0.004372 0.001783 0.000000 0.000000
# 3 0.004372 0.004372 0.023241 0.000000 0.000000 0.000000
# 4 -0.001783 0.001783 0.000000 0.045161 0.000000 0.000001
# 5 0.000000 0.000000 0.000000 0.000000 0.045161 -0.003565
# 6 0.000000 0.000000 0.000000 0.000001 -0.003565 0.033469
#
#
# Mechanical properties :
#
#
# Convention : Reuss Voigt Hill
#
# Bulk Modulus (GPa) = 13.89139 15.25513 14.57326
# Shear Modulus (GPa) = 26.73667 28.36784 27.55226
#
# Velocity S-wave (km/s) = 3.61965 3.72843 3.67444
# Velocity P-wave (km/s) = 4.92711 5.10005 5.01432
#
# Compressibility (1/GPa) = 0.07198705
#
# Stress axis : x y z
#
# Youngs Moduli (GPa) = 61.79646 61.79646 43.02783
#
# Poissons Ratio (x) = 0.03414 -0.18810
# Poissons Ratio (y) = 0.03414 -0.18810
# Poissons Ratio (z) = -0.27016 -0.27016
#
# Static dielectric constant tensor:
#      x y z
#    x 1.743200 0.000000 0.000000 
#    y 0.000000 1.743200 0.000000 
#    z 0.000000 0.000000 1.699940 
# 
# From -- ./inp_files/3398.got.cif
#   From: 2010.05.17/outbox.cif.g08.bks.cpg/sg167_2_cif.got.tgz:3398.got - 2010.05.20 11:09:15.
