data_PCOD9579952
_publ_section_title
;
Structure prediction by ZEFSAII (Michael W. Deem and Ramdas Pophale) SiO2 
 PCOD9579952
Probable space group: P 61
;
_chemical_formula_sum "Si O2"
_cell_formula_units_Z 24
_cell_length_a 8.931352
_cell_length_b 8.931352
_cell_length_c 13.950013
_cell_angle_alpha 90.000000
_cell_angle_beta 90.000000
_cell_angle_gamma 120.000000
_cell_volume 963.695112
_symmetry_space_group_name_H-M "P 61"
_symmetry_group_IT_number 169
_symmetry_cell_setting 'hexagonal'
loop_
_space_group_symop_operation_xyz
x,y,z
x-y,x,1/6+z
-y,x-y,1/3+z
-x,-y,1/2+z
-x+y,-x,2/3+z
y,-x+y,5/6+z
loop_
_atom_site_type_symbol
_atom_site_label
_atom_site_fract_x
_atom_site_fract_y
_atom_site_fract_z
Si Si1 0.142812 0.874141 0.940590
Si Si2 0.142812 0.268671 0.746499
Si Si3 0.577987 0.468897 0.564202
Si Si4 0.468897 0.577985 0.289555
O O1 0.082870 0.688406 0.988526
O O2 0.011576 0.842566 0.854976
O O3 0.335503 0.950887 0.894812
O O4 0.169010 0.157435 0.665446
O O5 0.082871 0.394466 0.698564
O O6 0.335503 0.384617 0.792277
O O7 0.730965 0.461927 0.510212
O O8 0.572350 0.427650 0.676878
#
# Coordination Sequence:
#
# PCOD9579952 Si02
#       4
#     6   6   6   6
#     4  10  22  43  78 115 152 200 255 315 384 460
#     4  10  22  43  78 115 152 200 255 315 384 460
#     4  10  21  40  72 109 149 195 245 310 381 450
#     4  10  21  40  72 109 149 195 245 310 381 450
#
# _framework density 24.904140999999999
#
# number of rings (size 3 to 8) (size 9 to 14) (size 15 to 20)
#    0.000    2.000    0.000    4.500    0.000    8.000 
#    0.000    0.000    0.000  168.000    0.000    0.000 
#    0.000    0.000    0.000    0.000    0.000    0.000 
#
# Total GULP energy -134403.927232 kJ/mol
# GULP energy per Si atom -5600.163635 kJ/mol
# Density = 2.484746 g / cm^3
# Si number density = 24.904141 Si / 1000 Ang^3
#
#
#
# Elastic Constant Matrix: (Units=GPa)
#
#
# Indices 1 2 3 4 5 6 
#
# 1 195.1638 81.1507 83.4606 0.0000 0.0000 0.0000
# 2 81.1507 195.1638 83.4606 0.0000 0.0000 0.0000
# 3 83.4606 83.4606 109.0698 0.0000 0.0000 0.0000
# 4 0.0000 0.0000 0.0000 51.2206 0.0000 0.0000
# 5 0.0000 0.0000 0.0000 0.0000 51.2206 0.0000
# 6 0.0000 0.0000 0.0000 0.0000 0.0000 57.0065
#
#
#
# Elastic Compliance Matrix: (Units=1/GPa)
#
#
# Indices 1 2 3 4 5 6 
#
# 1 0.007751 -0.001020 -0.005150 0.000000 0.000000 0.000000
# 2 -0.001020 0.007751 -0.005150 0.000000 0.000000 0.000000
# 3 -0.005150 -0.005150 0.017050 0.000000 0.000000 0.000000
# 4 0.000000 0.000000 0.000000 0.019523 0.000000 0.000000
# 5 0.000000 0.000000 0.000000 0.000000 0.019523 0.000000
# 6 0.000000 0.000000 0.000000 0.000000 0.000000 0.017542
#
#
# Mechanical properties :
#
#
# Convention : Reuss Voigt Hill
#
# Bulk Modulus (GPa) = 100.90314 110.61569 105.75942
# Shear Modulus (GPa) = 43.44672 48.64458 46.04565
#
# Velocity S-wave (km/s) = 4.18132 4.42438 4.30457
# Velocity P-wave (km/s) = 7.99474 8.40317 8.20149
#
# Compressibility (1/GPa) = 0.00991049
#
# Stress axis : x y z
#
# Youngs Moduli (GPa) = 129.02359 129.02359 58.65141
#
# Poissons Ratio (x) = 0.13166 0.30205
# Poissons Ratio (y) = 0.13166 0.30205
# Poissons Ratio (z) = 0.66446 0.66446
#
# Static dielectric constant tensor:
#      x y z
#    x 2.015420 0.000000 0.000000 
#    y 0.000000 2.015420 0.000000 
#    z 0.000000 0.000000 1.988340 
# 
# From -- ./inp_files/1286.got.cif
#   From: 2010.05.17/outbox.cif.g08.bks.cpg/sg169_cif.got.tgz:1286.got - 2010.05.20 11:12:54.
