data_PCOD9579585
_publ_section_title
;
Structure prediction by ZEFSAII (Michael W. Deem and Ramdas Pophale) SiO2 
 PCOD9579585
Probable space group: R -3 C 
;
_chemical_formula_sum "Si O2"
_cell_formula_units_Z 144
_cell_length_a 29.166998
_cell_length_b 29.166998
_cell_length_c 8.655381
_cell_angle_alpha 90.000000
_cell_angle_beta 90.000000
_cell_angle_gamma 120.000000
_cell_volume 6376.763132
_symmetry_space_group_name_H-M "R -3 C "
_symmetry_group_IT_number 167
_symmetry_cell_setting 'hexagonal'
loop_
_space_group_symop_operation_xyz
x,y,z
-y,x-y,z
-x+y,-x,z
x-y,-y,1/2-z
-x,-x+y,1/2-z
y,x,1/2-z
-x,-y,-z
y,-x+y,-z
x-y,x,-z
-x+y,y,1/2+z
x,x-y,1/2+z
-y,-x,1/2+z
2/3+x,1/3+y,1/3+z
2/3-y,1/3+x-y,1/3+z
2/3-x+y,1/3-x,1/3+z
2/3+x-y,1/3-y,5/6-z
2/3-x,1/3-x+y,5/6-z
2/3+y,1/3+x,5/6-z
2/3-x,1/3-y,1/3-z
2/3+y,1/3-x+y,1/3-z
2/3+x-y,1/3+x,1/3-z
2/3-x+y,1/3+y,5/6+z
2/3+x,1/3+x-y,5/6+z
2/3-y,1/3-x,5/6+z
1/3+x,2/3+y,2/3+z
1/3-y,2/3+x-y,2/3+z
1/3-x+y,2/3-x,2/3+z
1/3+x-y,2/3-y,1/6-z
1/3-x,2/3-x+y,1/6-z
1/3+y,2/3+x,1/6-z
1/3-x,2/3-y,2/3-z
1/3+y,2/3-x+y,2/3-z
1/3+x-y,2/3+x,2/3-z
1/3-x+y,2/3+y,1/6+z
1/3+x,2/3+x-y,1/6+z
1/3-y,2/3-x,1/6+z
loop_
_atom_site_type_symbol
_atom_site_label
_atom_site_fract_x
_atom_site_fract_y
_atom_site_fract_z
Si Si1 0.888300 0.127744 0.234999
Si Si2 0.722884 0.791381 0.540637
Si Si3 0.578131 0.348458 0.905564
Si Si4 0.802959 0.971392 0.487292
O O1 0.835973 0.108044 0.337434
O O2 0.868122 0.072317 0.140105
O O3 0.937280 0.148249 0.354934
O O4 0.906418 0.177593 0.121003
O O5 0.666667 0.741752 0.583334
O O6 0.769204 0.775606 0.547611
O O7 0.633813 0.396082 0.865210
O O8 0.529142 0.353483 0.846638
O O9 0.573341 0.333334 0.083334
#
# Coordination Sequence:
#
# PCOD9579585 Si02
#       4
#    36  36  36  36
#     4  10  22  40  65  97 133 177 223 271 336 411
#     4  11  22  38  63  96 133 174 224 281 343 407
#     4  12  24  38  56  85 126 174 227 284 337 388
#     4  11  22  40  68  96 127 173 225 274 325 398
#
# _framework density 22.581990000000001
#
# number of rings (size 3 to 8) (size 9 to 14) (size 15 to 20)
#    0.000    1.000    0.000    9.250    0.000    2.000 
#    0.000    0.000    0.000   24.000    0.000    0.000 
#    0.000    0.000    0.000    0.000    0.000    0.000 
#
# Total GULP energy -267870.728482 kJ/mol
# GULP energy per Si atom -5580.640177 kJ/mol
# Density = 2.253059 g / cm^3
# Si number density = 22.581990 Si / 1000 Ang^3
#
#
#
# Elastic Constant Matrix: (Units=GPa)
#
#
# Indices 1 2 3 4 5 6 
#
# 1 113.7708 42.5615 23.9113 -10.1525 0.0145 0.0138
# 2 42.5615 113.7666 23.8987 10.2251 0.0049 -0.0048
# 3 23.9113 23.8987 107.7332 0.1032 0.0801 0.0274
# 4 -10.1525 10.2251 0.1032 8.8100 0.0882 0.0074
# 5 0.0145 0.0049 0.0801 0.0882 8.8718 -10.1885
# 6 0.0138 -0.0048 0.0274 0.0074 -10.1885 35.6110
#
#
#
# Elastic Compliance Matrix: (Units=1/GPa)
#
#
# Indices 1 2 3 4 5 6 
#
# 1 0.013923 -0.007065 -0.001546 0.024267 -0.000384 -0.000120
# 2 -0.007065 0.013932 -0.001500 -0.024298 0.000404 0.000126
# 3 -0.001546 -0.001500 0.009958 -0.000156 -0.000139 -0.000047
# 4 0.024267 -0.024298 -0.000156 0.169702 -0.002632 -0.000801
# 5 -0.000384 0.000404 -0.000139 -0.002632 0.167916 0.048042
# 6 -0.000120 0.000126 -0.000047 -0.000801 0.048042 0.041827
#
#
# Mechanical properties :
#
#
# Convention : Reuss Voigt Hill
#
# Bulk Modulus (GPa) = 56.84331 57.33486 57.08908
# Shear Modulus (GPa) = 11.27794 26.98517 19.13156
#
# Velocity S-wave (km/s) = 2.23720 3.46061 2.91383
# Velocity P-wave (km/s) = 5.64801 6.43525 6.05444
#
# Compressibility (1/GPa) = 0.01759222
#
# Stress axis : x y z
#
# Youngs Moduli (GPa) = 71.82301 71.77749 100.41974
#
# Poissons Ratio (x) = 0.50712 0.15524
# Poissons Ratio (y) = 0.50744 0.15058
# Poissons Ratio (z) = 0.11103 0.10763
#
# Static dielectric constant tensor:
#      x y z
#    x 1.871630 0.000010 -0.000030 
#    y 0.000010 1.871650 0.000000 
#    z -0.000030 0.000000 1.886720 
# 
# From -- ./inp_files/788.got.cif
#   From: 2010.05.17/outbox.cif.g08.bks.cpg/sg167_1_cif.got.tgz:788.got - 2010.05.20 11:09:15.
