data_PCOD9579390
_publ_section_title
;
Structure prediction by ZEFSAII (Michael W. Deem and Ramdas Pophale) SiO2 
 PCOD9579390
Probable space group: R -3 C 
;
_chemical_formula_sum "Si O2"
_cell_formula_units_Z 270
_cell_length_a 26.752145
_cell_length_b 26.752145
_cell_length_c 24.099381
_cell_angle_alpha 90.000000
_cell_angle_beta 90.000000
_cell_angle_gamma 120.000000
_cell_volume 14936.668373
_symmetry_space_group_name_H-M "R -3 C "
_symmetry_group_IT_number 167
_symmetry_cell_setting 'hexagonal'
loop_
_space_group_symop_operation_xyz
x,y,z
-y,x-y,z
-x+y,-x,z
x-y,-y,1/2-z
-x,-x+y,1/2-z
y,x,1/2-z
-x,-y,-z
y,-x+y,-z
x-y,x,-z
-x+y,y,1/2+z
x,x-y,1/2+z
-y,-x,1/2+z
2/3+x,1/3+y,1/3+z
2/3-y,1/3+x-y,1/3+z
2/3-x+y,1/3-x,1/3+z
2/3+x-y,1/3-y,5/6-z
2/3-x,1/3-x+y,5/6-z
2/3+y,1/3+x,5/6-z
2/3-x,1/3-y,1/3-z
2/3+y,1/3-x+y,1/3-z
2/3+x-y,1/3+x,1/3-z
2/3-x+y,1/3+y,5/6+z
2/3+x,1/3+x-y,5/6+z
2/3-y,1/3-x,5/6+z
1/3+x,2/3+y,2/3+z
1/3-y,2/3+x-y,2/3+z
1/3-x+y,2/3-x,2/3+z
1/3+x-y,2/3-y,1/6-z
1/3-x,2/3-x+y,1/6-z
1/3+y,2/3+x,1/6-z
1/3-x,2/3-y,2/3-z
1/3+y,2/3-x+y,2/3-z
1/3+x-y,2/3+x,2/3-z
1/3-x+y,2/3+y,1/6+z
1/3+x,2/3+x-y,1/6+z
1/3-y,2/3-x,1/6+z
loop_
_atom_site_type_symbol
_atom_site_label
_atom_site_fract_x
_atom_site_fract_y
_atom_site_fract_z
Si Si1 0.037727 0.233408 0.970713
Si Si2 0.187911 0.791624 0.907285
Si Si3 0.089219 0.687251 0.031824
Si Si4 0.487391 0.587441 0.138295
Si Si5 0.481684 0.981605 0.307046
Si Si6 0.874746 0.258314 0.691520
Si Si7 0.466358 0.333334 0.583334
Si Si8 0.973778 0.308811 0.482716
O O1 0.087954 0.217751 0.973212
O O2 0.025906 0.247345 0.908578
O O3 0.050999 0.292431 0.003201
O O4 0.980504 0.179913 0.996033
O O5 0.230165 0.835712 0.862068
O O6 0.123807 0.778317 0.885039
O O7 0.187631 0.730932 0.909089
O O8 0.201053 0.819330 0.969408
O O9 0.141167 0.749800 0.048006
O O10 0.105065 0.675138 0.971617
O O11 0.030797 0.688709 0.021022
O O12 0.516719 0.554048 0.166514
O O13 0.507731 0.601297 0.074819
O O14 0.518804 0.000000 0.250000
O O15 0.929897 0.318909 0.674265
O O16 0.984628 0.317961 0.416667
#
# Coordination Sequence:
#
# PCOD9579390 Si02
#       8
#    36  36  36  36  36  36  18  36
#     4  12  25  38  59  84 113 155 193 244 291 355
#     4   9  18  27  48  73 101 147 192 245 272 327
#     4  11  18  33  52  77 113 151 195 233 271 341
#     4  11  23  39  55  81 113 148 194 238 296 345
#     4  10  17  32  49  74 112 142 187 230 278 335
#     4  10  19  34  52  78 109 144 201 234 276 344
#     4  10  16  28  52  72 104 150 192 242 282 324
#     4  12  19  35  55  80 115 152 191 233 283 340
#
# _framework density 18.076319999999999
#
# number of rings (size 3 to 8) (size 9 to 14) (size 15 to 20)
#    0.000    1.333    6.000    2.000    3.733    0.533 
#    0.000    0.000    0.000    0.267    0.000    0.000 
#    0.000    0.000    0.000    0.000    0.000    0.400 
#
# Total GULP energy -501160.887711 kJ/mol
# GULP energy per Si atom -5568.454308 kJ/mol
# Density = 1.803518 g / cm^3
# Si number density = 18.076320 Si / 1000 Ang^3
#
#
#
# Elastic Constant Matrix: (Units=GPa)
#
#
# Indices 1 2 3 4 5 6 
#
# 1 58.7621 21.3713 17.9139 3.2528 0.0001 0.0000
# 2 21.3713 58.7621 17.9139 -3.2528 -0.0001 0.0000
# 3 17.9139 17.9139 130.1559 0.0000 0.0000 0.0000
# 4 3.2528 -3.2528 0.0000 18.7086 0.0000 -0.0001
# 5 0.0001 -0.0001 0.0000 0.0000 18.7086 3.2528
# 6 0.0000 0.0000 0.0000 -0.0001 3.2528 18.6954
#
#
#
# Elastic Compliance Matrix: (Units=1/GPa)
#
#
# Indices 1 2 3 4 5 6 
#
# 1 0.020438 -0.007141 -0.001830 -0.004795 0.000000 0.000000
# 2 -0.007141 0.020438 -0.001830 0.004795 0.000000 0.000000
# 3 -0.001830 -0.001830 0.008187 0.000000 0.000000 0.000000
# 4 -0.004795 0.004795 0.000000 0.055119 0.000000 0.000000
# 5 0.000000 0.000000 0.000000 0.000000 0.055119 -0.009590
# 6 0.000000 0.000000 0.000000 0.000000 -0.009590 0.055158
#
#
# Mechanical properties :
#
#
# Convention : Reuss Voigt Hill
#
# Bulk Modulus (GPa) = 36.41515 40.23092 38.32303
# Shear Modulus (GPa) = 20.39035 23.92127 22.15581
#
# Velocity S-wave (km/s) = 3.36224 3.64173 3.50477
# Velocity P-wave (km/s) = 5.93816 6.32356 6.13389
#
# Compressibility (1/GPa) = 0.02746110
#
# Stress axis : x y z
#
# Youngs Moduli (GPa) = 48.92807 48.92807 122.14659
#
# Poissons Ratio (x) = 0.34938 0.22355
# Poissons Ratio (y) = 0.34938 0.22355
# Poissons Ratio (z) = 0.08955 0.08955
#
# Static dielectric constant tensor:
#      x y z
#    x 1.682900 0.000000 0.000000 
#    y 0.000000 1.682900 0.000000 
#    z 0.000000 0.000000 1.673340 
# 
# From -- ./inp_files/5690.got.cif
#   From: 2010.05.17/outbox.cif.g08.bks.cpg/sg167_3_cif.got.tgz:5690.got - 2010.05.20 11:09:15.
