data_PCOD9579050
_publ_section_title
;
Structure prediction by ZEFSAII (Michael W. Deem and Ramdas Pophale) SiO2 
 PCOD9579050
Probable space group: R -3 M
;
_chemical_formula_sum "Si O2"
_cell_formula_units_Z 180
_cell_length_a 27.675655
_cell_length_b 27.675655
_cell_length_c 19.255815
_cell_angle_alpha 90.000000
_cell_angle_beta 90.000000
_cell_angle_gamma 120.000000
_cell_volume 12772.865904
_symmetry_space_group_name_H-M "R -3 M"
_symmetry_group_IT_number 166
_symmetry_cell_setting 'hexagonal'
loop_
_space_group_symop_operation_xyz
x,y,z
-y,x-y,z
-x+y,-x,z
x-y,-y,-z
-x,-x+y,-z
y,x,-z
-x,-y,-z
y,-x+y,-z
x-y,x,-z
-x+y,y,z
x,x-y,z
-y,-x,z
2/3+x,1/3+y,1/3+z
2/3-y,1/3+x-y,1/3+z
2/3-x+y,1/3-x,1/3+z
2/3+x-y,1/3-y,1/3-z
2/3-x,1/3-x+y,1/3-z
2/3+y,1/3+x,1/3-z
2/3-x,1/3-y,1/3-z
2/3+y,1/3-x+y,1/3-z
2/3+x-y,1/3+x,1/3-z
2/3-x+y,1/3+y,1/3+z
2/3+x,1/3+x-y,1/3+z
2/3-y,1/3-x,1/3+z
1/3+x,2/3+y,2/3+z
1/3-y,2/3+x-y,2/3+z
1/3-x+y,2/3-x,2/3+z
1/3+x-y,2/3-y,2/3-z
1/3-x,2/3-x+y,2/3-z
1/3+y,2/3+x,2/3-z
1/3-x,2/3-y,2/3-z
1/3+y,2/3-x+y,2/3-z
1/3+x-y,2/3+x,2/3-z
1/3-x+y,2/3+y,2/3+z
1/3+x,2/3+x-y,2/3+z
1/3-y,2/3-x,2/3+z
loop_
_atom_site_type_symbol
_atom_site_label
_atom_site_fract_x
_atom_site_fract_y
_atom_site_fract_z
Si Si1 0.810698 0.189303 0.763979
Si Si2 0.268781 0.912694 0.148362
Si Si3 0.876583 0.753165 0.721880
Si Si4 0.064411 0.349368 0.990764
Si Si5 0.766051 0.780811 0.216147
Si Si6 0.249969 0.861007 0.784712
O O1 0.854629 0.239664 0.811078
O O2 0.843530 0.156471 0.741913
O O3 0.791715 0.208286 0.695252
O O4 0.333334 0.946098 0.166667
O O5 0.243257 0.949872 0.177215
O O6 0.263626 0.907846 0.065468
O O7 0.840461 0.779135 0.753668
O O8 0.092318 0.406053 0.946161
O O9 0.064640 0.299342 0.948308
O O10 0.000000 0.331977 0.000000
O O11 0.804093 0.771783 0.160069
O O12 0.200997 0.799004 0.768654
O O13 0.222855 0.889521 0.833334
#
# Coordination Sequence:
#
# PCOD9579050 Si02
#       6
#    18  36  18  36  36  36
#     4   9  20  28  40  64  83 110 146 179 215 253
#     4  11  18  28  42  59  85 116 150 181 210 258
#     4   9  18  30  44  60  88 110 142 184 221 260
#     4  11  18  27  43  60  85 119 153 175 215 253
#     4  10  18  30  44  62  82 117 147 182 219 256
#     4   9  18  31  44  61  86 114 150 186 216 258
#
# _framework density 14.092374
#
# number of rings (size 3 to 8) (size 9 to 14) (size 15 to 20)
#    0.000    2.000    4.000    1.800    4.200    0.000 
#    0.000    0.000    0.000    0.000    0.000    0.000 
#    1.000    0.000    0.000    1.200    0.000    1.400 
#
# Total GULP energy -334213.792989 kJ/mol
# GULP energy per Si atom -5570.229883 kJ/mol
# Density = 1.406030 g / cm^3
# Si number density = 14.092374 Si / 1000 Ang^3
#
#
#
# Elastic Constant Matrix: (Units=GPa)
#
#
# Indices 1 2 3 4 5 6 
#
# 1 44.6147 16.6438 21.7957 2.7935 0.0003 0.0000
# 2 16.6438 44.6147 21.7957 -2.7935 -0.0003 0.0000
# 3 21.7957 21.7957 104.8645 0.0000 0.0000 0.0000
# 4 2.7935 -2.7935 0.0000 15.6398 0.0000 -0.0003
# 5 0.0003 -0.0003 0.0000 0.0000 15.6398 2.7935
# 6 0.0000 0.0000 0.0000 -0.0003 2.7935 13.9854
#
#
#
# Elastic Compliance Matrix: (Units=1/GPa)
#
#
# Indices 1 2 3 4 5 6 
#
# 1 0.028116 -0.008958 -0.003982 -0.006622 -0.000001 0.000000
# 2 -0.008958 0.028116 -0.003982 0.006622 0.000001 0.000000
# 3 -0.003982 -0.003982 0.011191 0.000000 0.000000 0.000000
# 4 -0.006622 0.006622 0.000000 0.066305 0.000000 0.000001
# 5 -0.000001 0.000001 0.000000 0.000000 0.066305 -0.013244
# 6 0.000000 0.000000 0.000000 0.000001 -0.013244 0.074148
#
#
# Mechanical properties :
#
#
# Convention : Reuss Voigt Hill
#
# Bulk Modulus (GPa) = 29.78015 34.95156 32.36586
# Shear Modulus (GPa) = 15.66323 17.97692 16.82008
#
# Velocity S-wave (km/s) = 3.33749 3.57550 3.45854
# Velocity P-wave (km/s) = 6.00248 6.47311 6.24223
#
# Compressibility (1/GPa) = 0.03357941
#
# Stress axis : x y z
#
# Youngs Moduli (GPa) = 35.56696 35.56696 89.35478
#
# Poissons Ratio (x) = 0.31862 0.35580
# Poissons Ratio (y) = 0.31862 0.35580
# Poissons Ratio (z) = 0.14162 0.14162
#
# Static dielectric constant tensor:
#      x y z
#    x 1.456830 0.000000 0.000000 
#    y 0.000000 1.456830 0.000000 
#    z 0.000000 0.000000 1.495030 
# 
# From -- ./inp_files/5636.got.cif
#   From: 2010.05.17/outbox.cif.g08.bks.cpg/sg166_3_cif.got.tgz:5636.got - 2010.05.20 11:04:41.
