data_PCOD9579232
_publ_section_title
;
Structure prediction by ZEFSAII (Michael W. Deem and Ramdas Pophale) SiO2 
 PCOD9579232
Probable space group: R -3 M
;
_chemical_formula_sum "Si O2"
_cell_formula_units_Z 216
_cell_length_a 22.852309
_cell_length_b 22.852309
_cell_length_c 24.476603
_cell_angle_alpha 90.000000
_cell_angle_beta 90.000000
_cell_angle_gamma 120.000000
_cell_volume 11069.855481
_symmetry_space_group_name_H-M "R -3 M"
_symmetry_group_IT_number 166
_symmetry_cell_setting 'hexagonal'
loop_
_space_group_symop_operation_xyz
x,y,z
-y,x-y,z
-x+y,-x,z
x-y,-y,-z
-x,-x+y,-z
y,x,-z
-x,-y,-z
y,-x+y,-z
x-y,x,-z
-x+y,y,z
x,x-y,z
-y,-x,z
2/3+x,1/3+y,1/3+z
2/3-y,1/3+x-y,1/3+z
2/3-x+y,1/3-x,1/3+z
2/3+x-y,1/3-y,1/3-z
2/3-x,1/3-x+y,1/3-z
2/3+y,1/3+x,1/3-z
2/3-x,1/3-y,1/3-z
2/3+y,1/3-x+y,1/3-z
2/3+x-y,1/3+x,1/3-z
2/3-x+y,1/3+y,1/3+z
2/3+x,1/3+x-y,1/3+z
2/3-y,1/3-x,1/3+z
1/3+x,2/3+y,2/3+z
1/3-y,2/3+x-y,2/3+z
1/3-x+y,2/3-x,2/3+z
1/3+x-y,2/3-y,2/3-z
1/3-x,2/3-x+y,2/3-z
1/3+y,2/3+x,2/3-z
1/3-x,2/3-y,2/3-z
1/3+y,2/3-x+y,2/3-z
1/3+x-y,2/3+x,2/3-z
1/3-x+y,2/3+y,2/3+z
1/3+x,2/3+x-y,2/3+z
1/3-y,2/3-x,2/3+z
loop_
_atom_site_type_symbol
_atom_site_label
_atom_site_fract_x
_atom_site_fract_y
_atom_site_fract_z
Si Si1 0.795569 0.463574 0.967145
Si Si2 0.373909 0.343357 0.560114
Si Si3 0.486095 0.643587 0.910640
Si Si4 0.000094 0.873088 0.875473
Si Si5 0.138515 0.416549 0.713683
Si Si6 0.859731 0.279935 0.784230
O O1 0.741514 0.483027 0.946881
O O2 0.769725 0.384863 0.957221
O O3 0.865429 0.503817 0.935402
O O4 0.805810 0.475244 0.031865
O O5 0.370302 0.370302 0.500000
O O6 0.438049 0.334785 0.568594
O O7 0.380834 0.399884 0.603300
O O8 0.310670 0.266604 0.562022
O O9 0.437772 0.562229 0.912650
O O10 0.463464 0.666304 0.856599
O O11 0.924351 0.848702 0.893882
O O12 0.029505 0.829143 0.900905
O O13 0.050602 0.949399 0.893332
O O14 0.201260 0.402520 0.701733
O O15 0.123645 0.456978 0.666667
O O16 0.797077 0.202924 0.796134
O O17 0.873296 0.333334 0.833334
#
# Coordination Sequence:
#
# PCOD9579232 Si02
#       6
#    36  36  36  36  36  36
#     4  10  21  37  59  88 121 158 202 254 307 364
#     4  11  23  42  62  90 121 161 206 251 310 361
#     4  10  21  37  58  86 121 159 201 250 306 365
#     4  10  20  37  61  88 120 157 201 250 308 371
#     4  11  25  43  63  91 126 163 208 258 310 372
#     4  10  22  40  63  91 125 164 208 254 309 375
#
# _framework density 19.512450000000001
#
# number of rings (size 3 to 8) (size 9 to 14) (size 15 to 20)
#    0.000    1.667    1.667    2.333    2.333    1.667 
#    0.000    5.833    0.000    5.333    0.000    0.000 
#    0.000    0.000    0.000    0.000    0.000    0.000 
#
# Total GULP energy -401256.022490 kJ/mol
# GULP energy per Si atom -5573.000312 kJ/mol
# Density = 1.946804 g / cm^3
# Si number density = 19.512450 Si / 1000 Ang^3
#
#
#
# Elastic Constant Matrix: (Units=GPa)
#
#
# Indices 1 2 3 4 5 6 
#
# 1 97.1519 61.6693 15.7760 -7.4423 0.0000 0.0000
# 2 61.6693 97.1519 15.7760 7.4423 0.0000 0.0000
# 3 15.7760 15.7760 52.4597 0.0000 0.0000 0.0000
# 4 -7.4423 7.4423 0.0000 21.8788 0.0000 0.0000
# 5 0.0000 0.0000 0.0000 0.0000 21.8788 -7.4423
# 6 0.0000 0.0000 0.0000 0.0000 -7.4423 17.7413
#
#
#
# Elastic Compliance Matrix: (Units=1/GPa)
#
#
# Indices 1 2 3 4 5 6 
#
# 1 0.019785 -0.013089 -0.002014 0.011182 0.000000 0.000000
# 2 -0.013089 0.019785 -0.002014 -0.011182 0.000000 0.000000
# 3 -0.002014 -0.002014 0.020273 0.000000 0.000000 0.000000
# 4 0.011182 -0.011182 0.000000 0.053314 0.000000 0.000000
# 5 0.000000 0.000000 0.000000 0.000000 0.053314 0.022365
# 6 0.000000 0.000000 0.000000 0.000000 0.022365 0.065747
#
#
# Mechanical properties :
#
#
# Convention : Reuss Voigt Hill
#
# Bulk Modulus (GPa) = 39.04546 48.13401 43.58974
# Shear Modulus (GPa) = 18.18259 22.53595 20.35927
#
# Velocity S-wave (km/s) = 3.05593 3.40215 3.23367
# Velocity P-wave (km/s) = 5.70136 6.33677 6.02745
#
# Compressibility (1/GPa) = 0.02561117
#
# Stress axis : x y z
#
# Youngs Moduli (GPa) = 50.54310 50.54310 49.32563
#
# Poissons Ratio (x) = 0.66154 0.09933
# Poissons Ratio (y) = 0.66154 0.09933
# Poissons Ratio (z) = 0.10178 0.10178
#
# Static dielectric constant tensor:
#      x y z
#    x 1.691570 0.000000 0.000000 
#    y 0.000000 1.691570 0.000000 
#    z 0.000000 0.000000 1.675220 
# 
# From -- ./inp_files/8421.got.cif
#   From: 2010.05.17/outbox.cif.g08.bks.cpg/sg166_5_cif.got.tgz:8421.got - 2010.05.20 11:04:41.
