data_PCOD9579641
_publ_section_title
;
Structure prediction by ZEFSAII (Michael W. Deem and Ramdas Pophale) SiO2 
 PCOD9579641
Probable space group: R -3 C 
;
_chemical_formula_sum "Si O2"
_cell_formula_units_Z 120
_cell_length_a 16.618500
_cell_length_b 16.618500
_cell_length_c 21.843014
_cell_angle_alpha 90.000000
_cell_angle_beta 90.000000
_cell_angle_gamma 120.000000
_cell_volume 5224.284732
_symmetry_space_group_name_H-M "R -3 C "
_symmetry_group_IT_number 167
_symmetry_cell_setting 'hexagonal'
loop_
_space_group_symop_operation_xyz
x,y,z
-y,x-y,z
-x+y,-x,z
x-y,-y,1/2-z
-x,-x+y,1/2-z
y,x,1/2-z
-x,-y,-z
y,-x+y,-z
x-y,x,-z
-x+y,y,1/2+z
x,x-y,1/2+z
-y,-x,1/2+z
2/3+x,1/3+y,1/3+z
2/3-y,1/3+x-y,1/3+z
2/3-x+y,1/3-x,1/3+z
2/3+x-y,1/3-y,5/6-z
2/3-x,1/3-x+y,5/6-z
2/3+y,1/3+x,5/6-z
2/3-x,1/3-y,1/3-z
2/3+y,1/3-x+y,1/3-z
2/3+x-y,1/3+x,1/3-z
2/3-x+y,1/3+y,5/6+z
2/3+x,1/3+x-y,5/6+z
2/3-y,1/3-x,5/6+z
1/3+x,2/3+y,2/3+z
1/3-y,2/3+x-y,2/3+z
1/3-x+y,2/3-x,2/3+z
1/3+x-y,2/3-y,1/6-z
1/3-x,2/3-x+y,1/6-z
1/3+y,2/3+x,1/6-z
1/3-x,2/3-y,2/3-z
1/3+y,2/3-x+y,2/3-z
1/3+x-y,2/3+x,2/3-z
1/3-x+y,2/3+y,1/6+z
1/3+x,2/3+x-y,1/6+z
1/3-y,2/3-x,1/6+z
loop_
_atom_site_type_symbol
_atom_site_label
_atom_site_fract_x
_atom_site_fract_y
_atom_site_fract_z
Si Si1 0.801872 0.135205 0.916667
Si Si2 0.333334 0.666667 0.236815
Si Si3 0.528992 0.862325 0.916667
Si Si4 0.997567 0.165084 0.614225
Si Si5 0.098642 0.303984 0.224457
O O1 0.901818 0.140090 0.913532
O O2 0.766515 0.093541 0.847800
O O3 0.333335 0.666668 0.166667
O O4 0.290355 0.729569 0.255478
O O5 0.485003 0.814563 0.853011
O O6 0.517952 0.952569 0.905061
O O7 0.937896 0.212488 0.598358
O O8 0.000000 0.220968 0.250000
#
# Coordination Sequence:
#
# PCOD9579641 Si02
#       5
#    18  12  18  36  36
#     4  10  24  45  68 103 142 188 238 300 351 436
#     4  12  27  43  71 106 141 189 232 302 352 429
#     4  10  26  43  70 107 138 188 232 306 349 430
#     4  11  24  47  69 102 142 186 240 290 368 422
#     4  11  24  47  74 103 145 191 238 297 361 433
#
# _framework density 22.969650999999999
#
# number of rings (size 3 to 8) (size 9 to 14) (size 15 to 20)
#    0.000    1.200    1.500    2.700    8.400    1.200 
#    0.900    0.000    0.000    0.000    0.000    0.000 
#    0.000    0.000    0.000    0.000    0.000    0.000 
#
# Total GULP energy -222759.805955 kJ/mol
# GULP energy per Si atom -5568.995149 kJ/mol
# Density = 2.291737 g / cm^3
# Si number density = 22.969651 Si / 1000 Ang^3
#
#
#
# Elastic Constant Matrix: (Units=GPa)
#
#
# Indices 1 2 3 4 5 6 
#
# 1 72.3182 2.2900 19.9598 10.9818 -0.0016 0.0000
# 2 2.2900 72.3170 19.9612 -10.9816 0.0016 0.0000
# 3 19.9598 19.9612 183.3569 0.0000 0.0000 0.0000
# 4 10.9818 -10.9816 0.0000 23.5783 0.0000 0.0016
# 5 -0.0016 0.0016 0.0000 0.0000 23.5786 10.9821
# 6 0.0000 0.0000 0.0000 0.0016 10.9821 35.0153
#
#
#
# Elastic Compliance Matrix: (Units=1/GPa)
#
#
# Indices 1 2 3 4 5 6 
#
# 1 0.015478 -0.001245 -0.001549 -0.007789 0.000001 0.000000
# 2 -0.001245 0.015478 -0.001549 0.007789 -0.000001 0.000000
# 3 -0.001549 -0.001549 0.005791 0.000000 0.000000 0.000000
# 4 -0.007789 0.007789 0.000000 0.049667 0.000000 -0.000002
# 5 0.000001 -0.000001 0.000000 0.000000 0.049667 -0.015577
# 6 0.000000 0.000000 0.000000 -0.000002 -0.015577 0.033445
#
#
# Mechanical properties :
#
#
# Convention : Reuss Voigt Hill
#
# Bulk Modulus (GPa) = 35.63957 45.82379 40.73168
# Shear Modulus (GPa) = 26.65731 35.48651 31.07191
#
# Velocity S-wave (km/s) = 3.41037 3.93482 3.68195
# Velocity P-wave (km/s) = 5.57289 6.37470 5.98723
#
# Compressibility (1/GPa) = 0.02805870
#
# Stress axis : x y z
#
# Youngs Moduli (GPa) = 64.60972 64.60835 172.67642
#
# Poissons Ratio (x) = 0.08045 0.26753
# Poissons Ratio (y) = 0.08045 0.26755
# Poissons Ratio (z) = 0.10010 0.10011
#
# Static dielectric constant tensor:
#      x y z
#    x 1.884660 0.000000 0.000000 
#    y 0.000000 1.884660 0.000000 
#    z 0.000000 0.000000 1.840290 
# 
# From -- ./inp_files/5123.got.cif
#   From: 2010.05.17/outbox.cif.g08.bks.cpg/sg167_3_cif.got.tgz:5123.got - 2010.05.20 11:09:15.
