data_PCOD9579119
_publ_section_title
;
Structure prediction by ZEFSAII (Michael W. Deem and Ramdas Pophale) SiO2 
 PCOD9579119
Probable space group: R -3 M
;
_chemical_formula_sum "Si O2"
_cell_formula_units_Z 162
_cell_length_a 22.326927
_cell_length_b 22.326927
_cell_length_c 19.134296
_cell_angle_alpha 90.000000
_cell_angle_beta 90.000000
_cell_angle_gamma 120.000000
_cell_volume 8260.398983
_symmetry_space_group_name_H-M "R -3 M"
_symmetry_group_IT_number 166
_symmetry_cell_setting 'hexagonal'
loop_
_space_group_symop_operation_xyz
x,y,z
-y,x-y,z
-x+y,-x,z
x-y,-y,-z
-x,-x+y,-z
y,x,-z
-x,-y,-z
y,-x+y,-z
x-y,x,-z
-x+y,y,z
x,x-y,z
-y,-x,z
2/3+x,1/3+y,1/3+z
2/3-y,1/3+x-y,1/3+z
2/3-x+y,1/3-x,1/3+z
2/3+x-y,1/3-y,1/3-z
2/3-x,1/3-x+y,1/3-z
2/3+y,1/3+x,1/3-z
2/3-x,1/3-y,1/3-z
2/3+y,1/3-x+y,1/3-z
2/3+x-y,1/3+x,1/3-z
2/3-x+y,1/3+y,1/3+z
2/3+x,1/3+x-y,1/3+z
2/3-y,1/3-x,1/3+z
1/3+x,2/3+y,2/3+z
1/3-y,2/3+x-y,2/3+z
1/3-x+y,2/3-x,2/3+z
1/3+x-y,2/3-y,2/3-z
1/3-x,2/3-x+y,2/3-z
1/3+y,2/3+x,2/3-z
1/3-x,2/3-y,2/3-z
1/3+y,2/3-x+y,2/3-z
1/3+x-y,2/3+x,2/3-z
1/3-x+y,2/3+y,2/3+z
1/3+x,2/3+x-y,2/3+z
1/3-y,2/3-x,2/3+z
loop_
_atom_site_type_symbol
_atom_site_label
_atom_site_fract_x
_atom_site_fract_y
_atom_site_fract_z
Si Si1 0.069333 0.276302 0.272727
Si Si2 0.717063 0.140339 0.964928
Si Si3 0.529364 0.196706 0.249005
Si Si4 0.333334 0.523798 0.166667
Si Si5 0.957174 0.551160 0.216099
O O1 0.125641 0.251281 0.266148
O O2 0.096934 0.333334 0.333334
O O3 0.067551 0.307385 0.197784
O O4 0.996093 0.216809 0.299727
O O5 0.789511 0.210490 0.976024
O O6 0.678440 0.155660 0.901793
O O7 0.732714 0.081239 0.936838
O O8 0.602087 0.204173 0.224342
O O9 0.521012 0.260506 0.224363
O O10 0.532496 0.199163 0.333334
O O11 0.467697 0.121049 0.229443
O O12 0.264917 0.529834 0.175357
O O13 0.956629 0.478315 0.222876
#
# Coordination Sequence:
#
# PCOD9579119 Si02
#       5
#    36  36  36  18  36
#     4  10  20  35  55  76 100 134 175 214 252 301
#     4  10  20  34  53  77 105 137 173 213 258 309
#     4   9  17  31  53  79 107 139 174 212 256 309
#     4  10  19  32  52  78 107 136 170 214 262 312
#     4   9  19  34  51  75 106 137 171 213 258 303
#
# _framework density 19.611643999999998
#
# number of rings (size 3 to 8) (size 9 to 14) (size 15 to 20)
#    0.000    2.444    0.000    2.333    0.000    6.222 
#    0.000    0.000    0.000    0.444    0.000   10.111 
#    0.000    0.000    0.000    0.000    0.000    0.000 
#
# Total GULP energy -301407.397383 kJ/mol
# GULP energy per Si atom -5581.618470 kJ/mol
# Density = 1.956701 g / cm^3
# Si number density = 19.611644 Si / 1000 Ang^3
#
#
#
# Elastic Constant Matrix: (Units=GPa)
#
#
# Indices 1 2 3 4 5 6 
#
# 1 81.8800 32.9297 8.6147 -9.6982 -0.0003 0.0000
# 2 32.9297 81.8800 8.6147 9.6982 0.0003 0.0000
# 3 8.6147 8.6147 29.7596 0.0000 0.0000 0.0000
# 4 -9.6982 9.6982 0.0000 18.1388 0.0000 0.0003
# 5 -0.0003 0.0003 0.0000 0.0000 18.1388 -9.6982
# 6 0.0000 0.0000 0.0000 0.0003 -9.6982 24.4751
#
#
#
# Elastic Compliance Matrix: (Units=1/GPa)
#
#
# Indices 1 2 3 4 5 6 
#
# 1 0.017513 -0.008407 -0.002636 0.013859 0.000000 0.000000
# 2 -0.008407 0.017513 -0.002636 -0.013859 0.000000 0.000000
# 3 -0.002636 -0.002636 0.035129 0.000000 0.000000 0.000000
# 4 0.013859 -0.013859 0.000000 0.069950 0.000000 -0.000001
# 5 0.000000 0.000000 0.000000 0.000000 0.069950 0.027717
# 6 0.000000 0.000000 0.000000 -0.000001 0.027717 0.051841
#
#
# Mechanical properties :
#
#
# Convention : Reuss Voigt Hill
#
# Bulk Modulus (GPa) = 23.36642 32.64865 28.00753
# Shear Modulus (GPa) = 16.47343 21.70792 19.09067
#
# Velocity S-wave (km/s) = 2.90139 3.33060 3.12338
# Velocity P-wave (km/s) = 4.81295 5.61019 5.22680
#
# Compressibility (1/GPa) = 0.04279647
#
# Stress axis : x y z
#
# Youngs Moduli (GPa) = 57.10044 57.10044 28.46676
#
# Poissons Ratio (x) = 0.48006 0.07503
# Poissons Ratio (y) = 0.48006 0.07503
# Poissons Ratio (z) = 0.15051 0.15051
#
# Static dielectric constant tensor:
#      x y z
#    x 1.701920 0.000000 0.000000 
#    y 0.000000 1.701920 0.000000 
#    z 0.000000 0.000000 1.665770 
# 
# From -- ./inp_files/6742.got.cif
#   From: 2010.05.17/outbox.cif.g08.bks.cpg/sg166_4_cif.got.tgz:6742.got - 2010.05.20 11:04:41.
