data_PCOD9579277
_publ_section_title
;
Structure prediction by ZEFSAII (Michael W. Deem and Ramdas Pophale) SiO2 
 PCOD9579277
Probable space group: R -3 M
;
_chemical_formula_sum "Si O2"
_cell_formula_units_Z 162
_cell_length_a 19.251441
_cell_length_b 19.251441
_cell_length_c 22.791316
_cell_angle_alpha 90.000000
_cell_angle_beta 90.000000
_cell_angle_gamma 120.000000
_cell_volume 7315.205311
_symmetry_space_group_name_H-M "R -3 M"
_symmetry_group_IT_number 166
_symmetry_cell_setting 'hexagonal'
loop_
_space_group_symop_operation_xyz
x,y,z
-y,x-y,z
-x+y,-x,z
x-y,-y,-z
-x,-x+y,-z
y,x,-z
-x,-y,-z
y,-x+y,-z
x-y,x,-z
-x+y,y,z
x,x-y,z
-y,-x,z
2/3+x,1/3+y,1/3+z
2/3-y,1/3+x-y,1/3+z
2/3-x+y,1/3-x,1/3+z
2/3+x-y,1/3-y,1/3-z
2/3-x,1/3-x+y,1/3-z
2/3+y,1/3+x,1/3-z
2/3-x,1/3-y,1/3-z
2/3+y,1/3-x+y,1/3-z
2/3+x-y,1/3+x,1/3-z
2/3-x+y,1/3+y,1/3+z
2/3+x,1/3+x-y,1/3+z
2/3-y,1/3-x,1/3+z
1/3+x,2/3+y,2/3+z
1/3-y,2/3+x-y,2/3+z
1/3-x+y,2/3-x,2/3+z
1/3+x-y,2/3-y,2/3-z
1/3-x,2/3-x+y,2/3-z
1/3+y,2/3+x,2/3-z
1/3-x,2/3-y,2/3-z
1/3+y,2/3-x+y,2/3-z
1/3+x-y,2/3+x,2/3-z
1/3-x+y,2/3+y,2/3+z
1/3+x,2/3+x-y,2/3+z
1/3-y,2/3-x,2/3+z
loop_
_atom_site_type_symbol
_atom_site_label
_atom_site_fract_x
_atom_site_fract_y
_atom_site_fract_z
Si Si1 0.823636 0.490282 0.122350
Si Si2 0.372529 0.904984 0.226572
Si Si3 0.601524 0.921913 0.785009
Si Si4 0.496880 0.163547 0.333334
Si Si5 0.463623 0.089300 0.009780
O O1 0.748349 0.496697 0.142659
O O2 0.797203 0.398602 0.109384
O O3 0.888387 0.524208 0.173203
O O4 0.863225 0.543350 0.064406
O O5 0.463724 0.927448 0.229774
O O6 0.333334 0.859683 0.166667
O O7 0.326234 0.855629 0.283573
O O8 0.367125 0.985406 0.227039
O O9 0.666667 0.922124 0.833334
O O10 0.565005 0.874273 0.723125
O O11 0.585704 0.171408 0.322198
O O12 0.539745 0.079489 0.024650
O O13 0.391407 0.000000 0.000000
#
# Coordination Sequence:
#
# PCOD9579277 Si02
#       5
#    36  36  36  18  36
#     4  11  23  41  64  92 126 169 217 268 326 395
#     4  11  22  38  61  90 126 168 218 273 336 404
#     4  11  26  44  67  99 138 177 226 282 344 410
#     4  12  27  48  74 106 145 190 236 292 360 432
#     4  10  21  38  62  91 124 165 214 269 335 404
#
# _framework density 22.145652999999999
#
# number of rings (size 3 to 8) (size 9 to 14) (size 15 to 20)
#    0.000    1.111    0.000    7.000    4.667    3.556 
#    0.000    2.222    0.000    5.333    0.000    0.000 
#    0.000    0.000    0.000    0.000    0.000    0.000 
#
# Total GULP energy -300965.161505 kJ/mol
# GULP energy per Si atom -5573.428917 kJ/mol
# Density = 2.209525 g / cm^3
# Si number density = 22.145653 Si / 1000 Ang^3
#
#
#
# Elastic Constant Matrix: (Units=GPa)
#
#
# Indices 1 2 3 4 5 6 
#
# 1 20.0210 43.2650 9.4166 -14.4956 0.0021 0.0000
# 2 43.2650 20.0210 9.4166 14.4956 -0.0021 0.0000
# 3 9.4166 9.4166 133.2938 0.0000 0.0000 0.0000
# 4 -14.4956 14.4956 0.0000 16.7775 0.0000 -0.0021
# 5 0.0021 -0.0021 0.0000 0.0000 16.7775 -14.4956
# 6 0.0000 0.0000 0.0000 -0.0021 -14.4956 -11.6220
#
#
#
# Elastic Compliance Matrix: (Units=1/GPa)
#
#
# Indices 1 2 3 4 5 6 
#
# 1 -0.002283 0.018424 -0.001140 -0.017891 0.000003 0.000000
# 2 0.018424 -0.002283 -0.001140 0.017891 -0.000003 0.000000
# 3 -0.001140 -0.001140 0.007663 0.000000 0.000000 0.000000
# 4 -0.017891 0.017891 0.000000 0.028688 0.000000 -0.000005
# 5 0.000003 -0.000003 0.000000 0.000000 0.028688 -0.035782
# 6 0.000000 0.000000 0.000000 -0.000005 -0.035782 -0.041415
#
#
# Mechanical properties :
#
#
# Convention : Reuss Voigt Hill
#
# Bulk Modulus (GPa) = 28.26174 33.05912 30.66043
# Shear Modulus (GPa) = -3488.25082 11.80244 -1738.22419
#
# Velocity S-wave (km/s) = -39.73109 2.31107 -28.04656
# Velocity P-wave (km/s) = 45.73791 4.69913 32.17044
#
# Compressibility (1/GPa) = 0.03538352
#
# Stress axis : x y z
#
# Youngs Moduli (GPa) = -437.95765 -437.95764 130.49151
#
# Poissons Ratio (x) = 8.06891 0.14879
# Poissons Ratio (y) = 8.06891 0.14879
# Poissons Ratio (z) = -0.49939 -0.49939
#
# Static dielectric constant tensor:
#      x y z
#    x 1.793460 0.000000 0.000000 
#    y 0.000000 1.793460 0.000000 
#    z 0.000000 0.000000 1.973340 
# 
# From -- ./inp_files/6774.got.cif
#   From: 2010.05.17/outbox.cif.g08.bks.cpg/sg166_4_cif.got.tgz:6774.got - 2010.05.20 11:04:41.
