data_PCOD9579237
_publ_section_title
;
Structure prediction by ZEFSAII (Michael W. Deem and Ramdas Pophale) SiO2 
 PCOD9579237
Probable space group: R -3 M
;
_chemical_formula_sum "Si O2"
_cell_formula_units_Z 171
_cell_length_a 27.691607
_cell_length_b 27.691607
_cell_length_c 14.373764
_cell_angle_alpha 90.000000
_cell_angle_beta 90.000000
_cell_angle_gamma 120.000000
_cell_volume 9545.473155
_symmetry_space_group_name_H-M "R -3 M"
_symmetry_group_IT_number 166
_symmetry_cell_setting 'hexagonal'
loop_
_space_group_symop_operation_xyz
x,y,z
-y,x-y,z
-x+y,-x,z
x-y,-y,-z
-x,-x+y,-z
y,x,-z
-x,-y,-z
y,-x+y,-z
x-y,x,-z
-x+y,y,z
x,x-y,z
-y,-x,z
2/3+x,1/3+y,1/3+z
2/3-y,1/3+x-y,1/3+z
2/3-x+y,1/3-x,1/3+z
2/3+x-y,1/3-y,1/3-z
2/3-x,1/3-x+y,1/3-z
2/3+y,1/3+x,1/3-z
2/3-x,1/3-y,1/3-z
2/3+y,1/3-x+y,1/3-z
2/3+x-y,1/3+x,1/3-z
2/3-x+y,1/3+y,1/3+z
2/3+x,1/3+x-y,1/3+z
2/3-y,1/3-x,1/3+z
1/3+x,2/3+y,2/3+z
1/3-y,2/3+x-y,2/3+z
1/3-x+y,2/3-x,2/3+z
1/3+x-y,2/3-y,2/3-z
1/3-x,2/3-x+y,2/3-z
1/3+y,2/3+x,2/3-z
1/3-x,2/3-y,2/3-z
1/3+y,2/3-x+y,2/3-z
1/3+x-y,2/3+x,2/3-z
1/3-x+y,2/3+y,2/3+z
1/3+x,2/3+x-y,2/3+z
1/3-y,2/3-x,2/3+z
loop_
_atom_site_type_symbol
_atom_site_label
_atom_site_fract_x
_atom_site_fract_y
_atom_site_fract_z
Si Si1 0.500000 0.000000 0.500000
Si Si2 0.713947 0.984372 0.185730
Si Si3 0.287434 0.200058 0.542809
Si Si4 0.000000 0.215242 0.000000
Si Si5 0.902290 0.360033 0.687688
Si Si6 0.439020 0.560981 0.409764
Si Si7 0.110712 0.555356 0.613816
O O1 0.472720 0.945440 0.427281
O O2 0.477334 0.954668 0.585332
O O3 0.681875 0.920831 0.220159
O O4 0.666135 0.999468 0.166667
O O5 0.750356 0.996650 0.092937
O O6 0.752853 0.023826 0.267725
O O7 0.286931 0.143466 0.562836
O O8 0.241029 0.206088 0.601463
O O9 0.271913 0.203034 0.435287
O O10 0.055403 0.210730 0.997683
O O11 0.864267 0.383425 0.645466
O O12 0.428224 0.571777 0.515142
#
# Coordination Sequence:
#
# PCOD9579237 Si02
#       7
#     9  36  36  18  36  18  18
#     4   8  20  32  64  84 114 158 210 236 298 350
#     4  12  24  36  57  86 121 165 206 246 291 360
#     4  11  25  39  58  84 123 163 205 249 307 357
#     4  12  26  38  64  91 123 158 216 252 310 356
#     4  11  22  39  58  81 114 163 207 248 289 357
#     4  10  20  38  62  77 113 160 207 253 292 345
#     4  10  24  40  58  92 116 159 206 262 301 365
#
# _framework density 17.914251
#
# number of rings (size 3 to 8) (size 9 to 14) (size 15 to 20)
#    0.632    0.421    5.263    1.895   10.316    1.684 
#    0.000    0.000    0.000    0.211    0.000    0.000 
#    1.053    1.895    0.000    0.000    0.000    0.000 
#
# Total GULP energy -317354.663488 kJ/mol
# GULP energy per Si atom -5567.625675 kJ/mol
# Density = 1.787348 g / cm^3
# Si number density = 17.914251 Si / 1000 Ang^3
#
#
#
# Elastic Constant Matrix: (Units=GPa)
#
#
# Indices 1 2 3 4 5 6 
#
# 1 67.3844 48.2931 13.1428 1.4924 0.0001 0.0000
# 2 48.2931 67.3844 13.1428 -1.4924 0.0000 0.0000
# 3 13.1428 13.1428 82.2181 0.0000 0.0000 0.0000
# 4 1.4924 -1.4924 0.0000 13.9779 0.0000 0.0000
# 5 0.0001 0.0000 0.0000 0.0000 13.9779 1.4924
# 6 0.0000 0.0000 0.0000 0.0000 1.4924 9.5456
#
#
#
# Elastic Compliance Matrix: (Units=1/GPa)
#
#
# Indices 1 2 3 4 5 6 
#
# 1 0.031120 -0.022149 -0.001434 -0.005687 0.000000 0.000000
# 2 -0.022149 0.031120 -0.001434 0.005687 0.000000 0.000000
# 3 -0.001434 -0.001434 0.012621 0.000000 0.000000 0.000000
# 4 -0.005687 0.005687 0.000000 0.072756 0.000000 0.000000
# 5 0.000000 0.000000 0.000000 0.000000 0.072756 -0.011375
# 6 0.000000 0.000000 0.000000 0.000000 -0.011375 0.106538
#
#
# Mechanical properties :
#
#
# Convention : Reuss Voigt Hill
#
# Bulk Modulus (GPa) = 40.27959 40.68270 40.48115
# Shear Modulus (GPa) = 12.97958 16.99419 14.98688
#
# Velocity S-wave (km/s) = 2.69465 3.08334 2.89552
# Velocity P-wave (km/s) = 5.67582 5.95273 5.81592
#
# Compressibility (1/GPa) = 0.02482647
#
# Stress axis : x y z
#
# Youngs Moduli (GPa) = 32.13383 32.13384 79.23167
#
# Poissons Ratio (x) = 0.71174 0.11362
# Poissons Ratio (y) = 0.71174 0.11361
# Poissons Ratio (z) = 0.04608 0.04608
#
# Static dielectric constant tensor:
#      x y z
#    x 1.619550 0.000000 0.000000 
#    y 0.000000 1.619550 0.000000 
#    z 0.000000 0.000000 1.678420 
# 
# From -- ./inp_files/4179.got.cif
#   From: 2010.05.17/outbox.cif.g08.bks.cpg/sg166_3_cif.got.tgz:4179.got - 2010.05.20 11:04:41.
