data_PCOD9579524
_publ_section_title
;
Structure prediction by ZEFSAII (Michael W. Deem and Ramdas Pophale) SiO2 
 PCOD9579524
Probable space group: R -3 C 
;
_chemical_formula_sum "Si O2"
_cell_formula_units_Z 90
_cell_length_a 20.147306
_cell_length_b 20.147306
_cell_length_c 12.073034
_cell_angle_alpha 90.000000
_cell_angle_beta 90.000000
_cell_angle_gamma 120.000000
_cell_volume 4244.055168
_symmetry_space_group_name_H-M "R -3 C "
_symmetry_group_IT_number 167
_symmetry_cell_setting 'hexagonal'
loop_
_space_group_symop_operation_xyz
x,y,z
-y,x-y,z
-x+y,-x,z
x-y,-y,1/2-z
-x,-x+y,1/2-z
y,x,1/2-z
-x,-y,-z
y,-x+y,-z
x-y,x,-z
-x+y,y,1/2+z
x,x-y,1/2+z
-y,-x,1/2+z
2/3+x,1/3+y,1/3+z
2/3-y,1/3+x-y,1/3+z
2/3-x+y,1/3-x,1/3+z
2/3+x-y,1/3-y,5/6-z
2/3-x,1/3-x+y,5/6-z
2/3+y,1/3+x,5/6-z
2/3-x,1/3-y,1/3-z
2/3+y,1/3-x+y,1/3-z
2/3+x-y,1/3+x,1/3-z
2/3-x+y,1/3+y,5/6+z
2/3+x,1/3+x-y,5/6+z
2/3-y,1/3-x,5/6+z
1/3+x,2/3+y,2/3+z
1/3-y,2/3+x-y,2/3+z
1/3-x+y,2/3-x,2/3+z
1/3+x-y,2/3-y,1/6-z
1/3-x,2/3-x+y,1/6-z
1/3+y,2/3+x,1/6-z
1/3-x,2/3-y,2/3-z
1/3+y,2/3-x+y,2/3-z
1/3+x-y,2/3+x,2/3-z
1/3-x+y,2/3+y,1/6+z
1/3+x,2/3+x-y,1/6+z
1/3-y,2/3-x,1/6+z
loop_
_atom_site_type_symbol
_atom_site_label
_atom_site_fract_x
_atom_site_fract_y
_atom_site_fract_z
Si Si1 0.666667 0.546486 0.083334
Si Si2 0.495439 0.204920 0.861873
Si Si3 0.413097 0.048463 0.467483
O O1 0.624485 0.483130 0.176350
O O2 0.608596 0.568323 0.021410
O O3 0.520915 0.291522 0.835312
O O4 0.424332 0.147467 0.785556
O O5 0.333334 0.036863 0.416667
O O6 0.424160 0.090826 0.583334
#
# Coordination Sequence:
#
# PCOD9579524 Si02
#       3
#    18  36  36
#     4  10  22  48  68 102 132 164 230 286 338 384
#     4  12  28  44  67  98 138 186 222 265 326 405
#     4  10  20  45  68 106 132 164 223 283 346 383
#
# _framework density 21.206133999999999
#
# number of rings (size 3 to 8) (size 9 to 14) (size 15 to 20)
#    1.200    0.000    4.000    1.600    5.600    4.800 
#    0.000    0.000    0.000    0.000    0.000    0.000 
#    0.000    0.000    0.000    0.000    0.000    0.000 
#
# Total GULP energy -167612.880821 kJ/mol
# GULP energy per Si atom -5587.096027 kJ/mol
# Density = 2.115787 g / cm^3
# Si number density = 21.206134 Si / 1000 Ang^3
#
#
#
# Elastic Constant Matrix: (Units=GPa)
#
#
# Indices 1 2 3 4 5 6 
#
# 1 61.4151 2.7297 -7.4001 12.3349 0.0013 0.0000
# 2 2.7297 61.4151 -7.4001 -12.3349 -0.0013 0.0000
# 3 -7.4001 -7.4001 103.5506 0.0000 0.0000 0.0000
# 4 12.3349 -12.3349 0.0000 5.8409 0.0000 -0.0013
# 5 0.0013 -0.0013 0.0000 0.0000 5.8409 12.3349
# 6 0.0000 0.0000 0.0000 -0.0013 12.3349 29.3427
#
#
#
# Elastic Compliance Matrix: (Units=1/GPa)
#
#
# Indices 1 2 3 4 5 6 
#
# 1 0.083833 -0.067982 0.001133 -0.320608 -0.000035 0.000000
# 2 -0.067982 0.083833 0.001133 0.320608 0.000035 0.000000
# 3 0.001133 0.001133 0.009819 0.000000 0.000000 0.000000
# 4 -0.320608 0.320608 0.000000 1.525350 0.000004 0.000066
# 5 -0.000035 0.000035 0.000000 0.000004 1.525350 -0.641217
# 6 0.000000 0.000000 0.000000 0.000066 -0.641217 0.303631
#
#
# Mechanical properties :
#
#
# Convention : Reuss Voigt Hill
#
# Bulk Modulus (GPa) = 21.71442 22.47107 22.09274
# Shear Modulus (GPa) = 1.35921 24.10165 12.73043
#
# Velocity S-wave (km/s) = 0.80146 3.37492 2.45280
# Velocity P-wave (km/s) = 3.33442 5.07999 4.29678
#
# Compressibility (1/GPa) = 0.04605235
#
# Stress axis : x y z
#
# Youngs Moduli (GPa) = 11.92845 11.92845 101.84313
#
# Poissons Ratio (x) = 0.81092 -0.11536
# Poissons Ratio (y) = 0.81092 -0.11537
# Poissons Ratio (z) = -0.01351 -0.01351
#
# Static dielectric constant tensor:
#      x y z
#    x 1.751440 0.000000 0.000000 
#    y 0.000000 1.751440 0.000000 
#    z 0.000000 0.000000 1.760720 
# 
# From -- ./inp_files/1996.got.cif
#   From: 2010.05.17/outbox.cif.g08.bks.cpg/sg167_1_cif.got.tgz:1996.got - 2010.05.20 11:09:15.
