data_PCOD9579288
_publ_section_title
;
Structure prediction by ZEFSAII (Michael W. Deem and Ramdas Pophale) SiO2 
 PCOD9579288
Probable space group: R -3 M
;
_chemical_formula_sum "Si O2"
_cell_formula_units_Z 180
_cell_length_a 26.419427
_cell_length_b 26.419427
_cell_length_c 16.990714
_cell_angle_alpha 90.000000
_cell_angle_beta 90.000000
_cell_angle_gamma 120.000000
_cell_volume 10270.439995
_symmetry_space_group_name_H-M "R -3 M"
_symmetry_group_IT_number 166
_symmetry_cell_setting 'hexagonal'
loop_
_space_group_symop_operation_xyz
x,y,z
-y,x-y,z
-x+y,-x,z
x-y,-y,-z
-x,-x+y,-z
y,x,-z
-x,-y,-z
y,-x+y,-z
x-y,x,-z
-x+y,y,z
x,x-y,z
-y,-x,z
2/3+x,1/3+y,1/3+z
2/3-y,1/3+x-y,1/3+z
2/3-x+y,1/3-x,1/3+z
2/3+x-y,1/3-y,1/3-z
2/3-x,1/3-x+y,1/3-z
2/3+y,1/3+x,1/3-z
2/3-x,1/3-y,1/3-z
2/3+y,1/3-x+y,1/3-z
2/3+x-y,1/3+x,1/3-z
2/3-x+y,1/3+y,1/3+z
2/3+x,1/3+x-y,1/3+z
2/3-y,1/3-x,1/3+z
1/3+x,2/3+y,2/3+z
1/3-y,2/3+x-y,2/3+z
1/3-x+y,2/3-x,2/3+z
1/3+x-y,2/3-y,2/3-z
1/3-x,2/3-x+y,2/3-z
1/3+y,2/3+x,2/3-z
1/3-x,2/3-y,2/3-z
1/3+y,2/3-x+y,2/3-z
1/3+x-y,2/3+x,2/3-z
1/3-x+y,2/3+y,2/3+z
1/3+x,2/3+x-y,2/3+z
1/3-y,2/3-x,2/3+z
loop_
_atom_site_type_symbol
_atom_site_label
_atom_site_fract_x
_atom_site_fract_y
_atom_site_fract_z
Si Si1 0.664659 0.666667 0.166667
Si Si2 0.509785 0.019569 0.662221
Si Si3 0.876441 0.752882 0.169651
Si Si4 0.544537 0.573723 0.086202
Si Si5 0.425747 0.851493 0.343297
Si Si6 0.281564 0.892929 0.718063
Si Si7 0.525735 0.168005 0.920813
O O1 0.602378 0.611110 0.139969
O O2 0.693146 0.648277 0.237916
O O3 0.541858 0.083716 0.697937
O O4 0.517366 0.034732 0.568314
O O5 0.440564 0.983901 0.671717
O O6 0.903420 0.806840 0.229687
O O7 0.824731 0.748529 0.116303
O O8 0.490343 0.509658 0.114288
O O9 0.517004 0.615551 0.074953
O O10 0.563133 0.563133 0.000000
O O11 0.360355 0.822581 0.314423
O O12 0.333334 0.896474 0.666667
O O13 0.589909 0.179818 0.935232
O O14 0.520719 0.187386 0.833334
#
# Coordination Sequence:
#
# PCOD9579288 Si02
#       7
#    18  18  18  36  18  36  36
#     4  12  20  33  60  84 110 157 206 232 290 370
#     4   9  20  40  60  81 120 160 196 246 298 349
#     4   9  20  42  60  81 124 154 198 248 302 347
#     4  10  24  39  52  78 122 158 190 239 288 355
#     4  10  22  37  67  80 109 163 190 242 308 352
#     4  11  21  35  59  91 115 150 205 253 287 351
#     4  11  22  40  59  86 115 149 197 245 298 351
#
# _framework density 17.526026999999999
#
# number of rings (size 3 to 8) (size 9 to 14) (size 15 to 20)
#    0.600    1.000    4.000    1.200    8.400    0.000 
#    4.200    0.500    4.400    0.000    0.000    0.000 
#    0.000    0.800    0.000    0.000    0.000    0.000 
#
# Total GULP energy -334497.301524 kJ/mol
# GULP energy per Si atom -5574.955025 kJ/mol
# Density = 1.748614 g / cm^3
# Si number density = 17.526027 Si / 1000 Ang^3
#
#
#
# Elastic Constant Matrix: (Units=GPa)
#
#
# Indices 1 2 3 4 5 6 
#
# 1 121.7100 72.0973 34.2466 -0.2336 0.0002 0.0000
# 2 72.0973 121.7100 34.2466 0.2336 -0.0002 0.0000
# 3 34.2466 34.2466 40.9730 0.0000 0.0000 0.0000
# 4 -0.2336 0.2336 0.0000 29.0544 0.0000 -0.0002
# 5 0.0002 -0.0002 0.0000 0.0000 29.0544 -0.2336
# 6 0.0000 0.0000 0.0000 -0.0002 -0.2336 24.8063
#
#
#
# Elastic Compliance Matrix: (Units=1/GPa)
#
#
# Indices 1 2 3 4 5 6 
#
# 1 0.013740 -0.006417 -0.006121 0.000162 0.000000 0.000000
# 2 -0.006417 0.013740 -0.006121 -0.000162 0.000000 0.000000
# 3 -0.006121 -0.006121 0.034638 0.000000 0.000000 0.000000
# 4 0.000162 -0.000162 0.000000 0.034421 0.000000 0.000000
# 5 0.000000 0.000000 0.000000 0.000000 0.034421 0.000324
# 6 0.000000 0.000000 0.000000 0.000000 0.000324 0.040315
#
#
# Mechanical properties :
#
#
# Convention : Reuss Voigt Hill
#
# Bulk Modulus (GPa) = 40.32088 62.84154 51.58121
# Shear Modulus (GPa) = 23.05634 26.16987 24.61310
#
# Velocity S-wave (km/s) = 3.63098 3.86839 3.75156
# Velocity P-wave (km/s) = 6.37456 7.47573 6.94700
#
# Compressibility (1/GPa) = 0.02480105
#
# Stress axis : x y z
#
# Youngs Moduli (GPa) = 72.77877 72.77877 28.86994
#
# Poissons Ratio (x) = 0.46705 0.17670
# Poissons Ratio (y) = 0.46705 0.17670
# Poissons Ratio (z) = 0.44546 0.44546
#
# Static dielectric constant tensor:
#      x y z
#    x 1.631880 0.000000 0.000000 
#    y 0.000000 1.631880 0.000000 
#    z 0.000000 0.000000 1.624460 
# 
# From -- ./inp_files/5686.got.cif
#   From: 2010.05.17/outbox.cif.g08.bks.cpg/sg166_3_cif.got.tgz:5686.got - 2010.05.20 11:04:41.
