data_PCOD9579236
_publ_section_title
;
Structure prediction by ZEFSAII (Michael W. Deem and Ramdas Pophale) SiO2 
 PCOD9579236
Probable space group: R -3 M
;
_chemical_formula_sum "Si O2"
_cell_formula_units_Z 90
_cell_length_a 24.843240
_cell_length_b 24.843240
_cell_length_c 7.651854
_cell_angle_alpha 90.000000
_cell_angle_beta 90.000000
_cell_angle_gamma 120.000000
_cell_volume 4089.910237
_symmetry_space_group_name_H-M "R -3 M"
_symmetry_group_IT_number 166
_symmetry_cell_setting 'hexagonal'
loop_
_space_group_symop_operation_xyz
x,y,z
-y,x-y,z
-x+y,-x,z
x-y,-y,-z
-x,-x+y,-z
y,x,-z
-x,-y,-z
y,-x+y,-z
x-y,x,-z
-x+y,y,z
x,x-y,z
-y,-x,z
2/3+x,1/3+y,1/3+z
2/3-y,1/3+x-y,1/3+z
2/3-x+y,1/3-x,1/3+z
2/3+x-y,1/3-y,1/3-z
2/3-x,1/3-x+y,1/3-z
2/3+y,1/3+x,1/3-z
2/3-x,1/3-y,1/3-z
2/3+y,1/3-x+y,1/3-z
2/3+x-y,1/3+x,1/3-z
2/3-x+y,1/3+y,1/3+z
2/3+x,1/3+x-y,1/3+z
2/3-y,1/3-x,1/3+z
1/3+x,2/3+y,2/3+z
1/3-y,2/3+x-y,2/3+z
1/3-x+y,2/3-x,2/3+z
1/3+x-y,2/3-y,2/3-z
1/3-x,2/3-x+y,2/3-z
1/3+y,2/3+x,2/3-z
1/3-x,2/3-y,2/3-z
1/3+y,2/3-x+y,2/3-z
1/3+x-y,2/3+x,2/3-z
1/3-x+y,2/3+y,2/3+z
1/3+x,2/3+x-y,2/3+z
1/3-y,2/3-x,2/3+z
loop_
_atom_site_type_symbol
_atom_site_label
_atom_site_fract_x
_atom_site_fract_y
_atom_site_fract_z
Si Si1 0.125863 0.000000 0.500000
Si Si2 0.035664 0.241843 0.737338
Si Si3 0.125368 0.756241 0.557004
O O1 0.119289 0.059645 0.545474
O O2 0.176435 0.020371 0.343872
O O3 0.079971 0.298150 0.611128
O O4 0.970605 0.239450 0.770136
O O5 0.068109 0.259277 0.926669
O O6 0.188935 0.811066 0.480735
#
# Coordination Sequence:
#
# PCOD9579236 Si02
#       3
#    18  36  36
#     4  12  25  42  60  84 116 158 205 250 288 330
#     4  10  22  37  60  88 118 154 191 235 293 353
#     4  10  20  38  59  86 119 152 188 235 288 352
#
# _framework density 22.005372999999999
#
# number of rings (size 3 to 8) (size 9 to 14) (size 15 to 20)
#    0.000    1.600    0.000    6.200    0.000   11.200 
#    0.000    4.000    0.000    0.000    0.000   14.000 
#    0.000    0.000    0.000    0.000    0.000    0.000 
#
# Total GULP energy -167942.418071 kJ/mol
# GULP energy per Si atom -5598.080602 kJ/mol
# Density = 2.195529 g / cm^3
# Si number density = 22.005373 Si / 1000 Ang^3
#
#
#
# Elastic Constant Matrix: (Units=GPa)
#
#
# Indices 1 2 3 4 5 6 
#
# 1 125.0968 72.3308 11.0126 -9.1372 0.0300 -0.0024
# 2 72.3308 125.0813 10.9728 9.1770 0.0294 0.0085
# 3 11.0126 10.9728 78.1242 0.0248 0.1026 -0.0087
# 4 -9.1372 9.1770 0.0248 5.1312 0.0059 0.0116
# 5 0.0300 0.0294 0.1026 0.0059 5.1266 -9.1613
# 6 -0.0024 0.0085 -0.0087 0.0116 -9.1613 26.3821
#
#
#
# Elastic Compliance Matrix: (Units=1/GPa)
#
#
# Indices 1 2 3 4 5 6 
#
# 1 0.027465 -0.022334 -0.000762 0.088857 -0.000457 -0.000189
# 2 -0.022334 0.027496 -0.000686 -0.088945 0.000369 0.000156
# 3 -0.000762 -0.000686 0.013005 -0.000192 -0.000642 -0.000218
# 4 0.088857 -0.088945 -0.000192 0.512198 -0.002469 -0.001047
# 5 -0.000457 0.000369 -0.000642 -0.002469 0.514100 0.178524
# 6 -0.000189 0.000156 -0.000218 -0.001047 0.178524 0.099898
#
#
# Mechanical properties :
#
#
# Convention : Reuss Voigt Hill
#
# Bulk Modulus (GPa) = 49.01782 57.43719 53.22751
# Shear Modulus (GPa) = 4.00472 22.92705 13.46589
#
# Velocity S-wave (km/s) = 1.35049 3.23133 2.47642
# Velocity P-wave (km/s) = 4.97549 6.33088 5.69366
#
# Compressibility (1/GPa) = 0.02040074
#
# Stress axis : x y z
#
# Youngs Moduli (GPa) = 36.41000 36.36907 76.89481
#
# Poissons Ratio (x) = 0.81228 0.05861
# Poissons Ratio (y) = 0.81320 0.05274
# Poissons Ratio (z) = 0.02775 0.02494
#
# Static dielectric constant tensor:
#      x y z
#    x 1.782450 0.000000 -0.000030 
#    y 0.000000 1.782460 0.000000 
#    z -0.000030 0.000000 1.852710 
# 
# From -- ./inp_files/1258.got.cif
#   From: 2010.05.17/outbox.cif.g08.bks.cpg/sg166_1_cif.got.tgz:1258.got - 2010.05.20 11:04:41.
