data_PCOD9579075
_publ_section_title
;
Structure prediction by ZEFSAII (Michael W. Deem and Ramdas Pophale) SiO2 
 PCOD9579075
Probable space group: R -3 M
;
_chemical_formula_sum "Si O2"
_cell_formula_units_Z 270
_cell_length_a 25.646480
_cell_length_b 25.646480
_cell_length_c 24.068443
_cell_angle_alpha 90.000000
_cell_angle_beta 90.000000
_cell_angle_gamma 120.000000
_cell_volume 13709.896011
_symmetry_space_group_name_H-M "R -3 M"
_symmetry_group_IT_number 166
_symmetry_cell_setting 'hexagonal'
loop_
_space_group_symop_operation_xyz
x,y,z
-y,x-y,z
-x+y,-x,z
x-y,-y,-z
-x,-x+y,-z
y,x,-z
-x,-y,-z
y,-x+y,-z
x-y,x,-z
-x+y,y,z
x,x-y,z
-y,-x,z
2/3+x,1/3+y,1/3+z
2/3-y,1/3+x-y,1/3+z
2/3-x+y,1/3-x,1/3+z
2/3+x-y,1/3-y,1/3-z
2/3-x,1/3-x+y,1/3-z
2/3+y,1/3+x,1/3-z
2/3-x,1/3-y,1/3-z
2/3+y,1/3-x+y,1/3-z
2/3+x-y,1/3+x,1/3-z
2/3-x+y,1/3+y,1/3+z
2/3+x,1/3+x-y,1/3+z
2/3-y,1/3-x,1/3+z
1/3+x,2/3+y,2/3+z
1/3-y,2/3+x-y,2/3+z
1/3-x+y,2/3-x,2/3+z
1/3+x-y,2/3-y,2/3-z
1/3-x,2/3-x+y,2/3-z
1/3+y,2/3+x,2/3-z
1/3-x,2/3-y,2/3-z
1/3+y,2/3-x+y,2/3-z
1/3+x-y,2/3+x,2/3-z
1/3-x+y,2/3+y,2/3+z
1/3+x,2/3+x-y,2/3+z
1/3-y,2/3-x,2/3+z
loop_
_atom_site_type_symbol
_atom_site_label
_atom_site_fract_x
_atom_site_fract_y
_atom_site_fract_z
Si Si1 0.442467 0.557534 0.609429
Si Si2 0.176097 0.475239 0.462512
Si Si3 0.050302 0.216940 0.704237
Si Si4 0.001867 0.439314 0.866259
Si Si5 0.026995 0.176869 0.072990
Si Si6 0.411054 0.382961 0.251827
Si Si7 0.606866 0.916934 0.299338
Si Si8 0.097107 0.754804 0.769008
O O1 0.464779 0.629315 0.618615
O O2 0.423791 0.487919 0.592228
O O3 0.239934 0.479867 0.453524
O O4 0.163567 0.515351 0.420729
O O5 0.125834 0.404781 0.452931
O O6 0.173056 0.490311 0.526666
O O7 0.106817 0.213634 0.679806
O O8 0.996599 0.207100 0.662515
O O9 0.076526 0.281220 0.735577
O O10 0.995717 0.497859 0.875807
O O11 0.954197 0.385661 0.904764
O O12 0.999463 0.426282 0.800706
O O13 0.082765 0.165530 0.065592
O O14 0.051517 0.247385 0.058580
O O15 0.374413 0.396473 0.296739
O O16 0.363836 0.315747 0.231635
O O17 0.666667 0.930814 0.333334
O O18 0.107633 0.774300 0.833334
#
# Coordination Sequence:
#
# PCOD9579075 Si02
#       8
#    18  36  36  36  36  36  36  36
#     4  10  19  28  48  72 102 136 175 228 276 332
#     4   9  18  33  52  75 101 137 179 219 266 328
#     4  12  24  34  49  78 116 147 183 229 284 334
#     4  10  20  36  60  82 105 144 191 229 273 334
#     4   9  19  33  51  74  98 135 185 229 274 323
#     4  10  19  35  57  76 109 146 185 225 270 334
#     4  12  22  35  52  81 115 149 179 227 281 339
#     4  11  19  29  50  80 105 144 182 221 272 338
#
# _framework density 19.693804
#
# number of rings (size 3 to 8) (size 9 to 14) (size 15 to 20)
#    0.000    1.600    3.333    5.000    2.800    1.867 
#    0.400    0.000    0.000    0.267    0.000    0.000 
#    0.000    0.000    0.000    4.333    0.000    5.467 
#
# Total GULP energy -501326.664302 kJ/mol
# GULP energy per Si atom -5570.296270 kJ/mol
# Density = 1.964898 g / cm^3
# Si number density = 19.693804 Si / 1000 Ang^3
#
#
#
# Elastic Constant Matrix: (Units=GPa)
#
#
# Indices 1 2 3 4 5 6 
#
# 1 55.2212 15.6095 21.0907 -3.2464 0.0003 0.0000
# 2 15.6095 55.2212 21.0907 3.2464 -0.0003 0.0000
# 3 21.0907 21.0907 68.3320 0.0000 0.0000 0.0000
# 4 -3.2464 3.2464 0.0000 16.4110 0.0000 -0.0003
# 5 0.0003 -0.0003 0.0000 0.0000 16.4110 -3.2464
# 6 0.0000 0.0000 0.0000 -0.0003 -3.2464 19.8059
#
#
#
# Elastic Compliance Matrix: (Units=1/GPa)
#
#
# Indices 1 2 3 4 5 6 
#
# 1 0.021694 -0.004397 -0.005339 0.005161 0.000000 0.000000
# 2 -0.004397 0.021694 -0.005339 -0.005161 0.000000 0.000000
# 3 -0.005339 -0.005339 0.017930 0.000000 0.000000 0.000000
# 4 0.005161 -0.005161 0.000000 0.062977 0.000000 0.000001
# 5 0.000000 0.000000 0.000000 0.000000 0.062977 0.010322
# 6 0.000000 0.000000 0.000000 0.000001 0.010322 0.052182
#
#
# Mechanical properties :
#
#
# Convention : Reuss Voigt Hill
#
# Bulk Modulus (GPa) = 32.08241 32.70624 32.39433
# Shear Modulus (GPa) = 17.85760 18.59117 18.22438
#
# Velocity S-wave (km/s) = 3.01452 3.07581 3.04532
# Velocity P-wave (km/s) = 5.33314 5.40903 5.37122
#
# Compressibility (1/GPa) = 0.03116973
#
# Stress axis : x y z
#
# Youngs Moduli (GPa) = 46.09503 46.09503 55.77195
#
# Poissons Ratio (x) = 0.20267 0.29776
# Poissons Ratio (y) = 0.20267 0.29776
# Poissons Ratio (z) = 0.24610 0.24610
#
# Static dielectric constant tensor:
#      x y z
#    x 1.691410 0.000000 0.000000 
#    y 0.000000 1.691410 0.000000 
#    z 0.000000 0.000000 1.779290 
# 
# From -- ./inp_files/9866.got.cif
#   From: 2010.05.17/outbox.cif.g08.bks.cpg/sg166_5_cif.got.tgz:9866.got - 2010.05.20 11:04:41.
