data_PCOD9579776
_publ_section_title
;
Structure prediction by ZEFSAII (Michael W. Deem and Ramdas Pophale) SiO2 
 PCOD9579776
Probable space group: P 6
;
_chemical_formula_sum "Si O2"
_cell_formula_units_Z 28
_cell_length_a 14.644502
_cell_length_b 14.644502
_cell_length_c 8.271277
_cell_angle_alpha 90.000000
_cell_angle_beta 90.000000
_cell_angle_gamma 120.000000
_cell_volume 1536.216454
_symmetry_space_group_name_H-M "P 6"
_symmetry_group_IT_number 168
_symmetry_cell_setting 'hexagonal'
loop_
_space_group_symop_operation_xyz
x,y,z
x-y,x,z
-y,x-y,z
-x,-y,z
-x+y,-x,z
y,-x+y,z
loop_
_atom_site_type_symbol
_atom_site_label
_atom_site_fract_x
_atom_site_fract_y
_atom_site_fract_z
Si Si1 0.616456 0.592230 0.684530
Si Si2 0.333333 0.666666 0.190086
Si Si3 0.757254 0.191442 0.801177
Si Si4 0.975772 0.383544 0.302833
Si Si5 0.666667 0.333333 0.797270
Si Si6 0.565810 0.757251 0.186184
O O1 0.500000 0.500000 0.745348
O O2 0.627192 0.705680 0.717604
O O3 0.715600 0.590546 0.763820
O O4 0.619456 0.575132 0.493682
O O5 0.444981 0.685032 0.243551
O O6 0.333334 0.666667 0.993678
O O7 0.685037 0.240054 0.743806
O O8 0.746410 0.174722 0.993680
O O9 0.078487 0.372808 0.269755
O O10 0.000000 0.500000 0.242015
O O11 0.874943 0.284401 0.223545
#
# Coordination Sequence:
#
# PCOD9579776 Si02
#       6
#     6   2   6   6   2   6
#     4  11  23  37  55  84 119 154 189 235 293 346
#     4   9  18  30  52  83 115 147 187 236 277 324
#     4  11  21  37  58  83 114 154 197 237 282 339
#     4  11  23  37  55  84 119 154 189 235 293 346
#     4   9  18  30  52  83 115 147 187 236 277 324
#     4  11  21  37  58  83 114 154 197 237 282 339
#
# _framework density 18.226597000000002
#
# number of rings (size 3 to 8) (size 9 to 14) (size 15 to 20)
#    0.000    1.286    4.286    2.571    0.000    1.714 
#    0.000    0.000    0.000    0.857    0.000    6.000 
#    0.000    0.000    0.000    0.000    0.000    0.000 
#
# Total GULP energy -156246.659248 kJ/mol
# GULP energy per Si atom -5580.237830 kJ/mol
# Density = 1.818511 g / cm^3
# Si number density = 18.226597 Si / 1000 Ang^3
#
#
#
# Elastic Constant Matrix: (Units=GPa)
#
#
# Indices 1 2 3 4 5 6 
#
# 1 70.9452 18.0368 -7.7354 0.0000 0.0000 0.0000
# 2 18.0368 70.9456 -7.7354 0.0000 0.0000 0.0001
# 3 -7.7354 -7.7354 28.8260 0.0000 0.0000 0.0000
# 4 0.0000 0.0000 0.0000 24.5296 0.0000 0.0000
# 5 0.0000 0.0000 0.0000 0.0000 24.5296 0.0000
# 6 0.0000 0.0001 0.0000 0.0000 0.0000 26.4543
#
#
#
# Elastic Compliance Matrix: (Units=1/GPa)
#
#
# Indices 1 2 3 4 5 6 
#
# 1 0.015344 -0.003556 0.003163 0.000000 0.000000 0.000000
# 2 -0.003556 0.015344 0.003163 0.000000 0.000000 0.000000
# 3 0.003163 0.003163 0.036389 0.000000 0.000000 0.000000
# 4 0.000000 0.000000 0.000000 0.040767 0.000000 0.000000
# 5 0.000000 0.000000 0.000000 0.000000 0.040767 0.000000
# 6 0.000000 0.000000 0.000000 0.000000 0.000000 0.037801
#
#
# Mechanical properties :
#
#
# Convention : Reuss Voigt Hill
#
# Bulk Modulus (GPa) = 13.77058 19.53874 16.65466
# Shear Modulus (GPa) = 24.38099 26.31274 25.34687
#
# Velocity S-wave (km/s) = 3.66137 3.80366 3.73319
# Velocity P-wave (km/s) = 5.04438 5.48029 5.26685
#
# Compressibility (1/GPa) = 0.07261856
#
# Stress axis : x y z
#
# Youngs Moduli (GPa) = 65.17027 65.17070 27.48103
#
# Poissons Ratio (x) = 0.23176 -0.08693
# Poissons Ratio (y) = 0.23176 -0.08693
# Poissons Ratio (z) = -0.20616 -0.20616
#
# Static dielectric constant tensor:
#      x y z
#    x 1.633640 0.000000 0.000000 
#    y 0.000000 1.633640 0.000000 
#    z 0.000000 0.000000 1.620660 
# 
# From -- ./inp_files/248.got.cif
#   From: 2010.05.17/outbox.cif.g08.bks.cpg/sg168_cif.got.tgz:248.got - 2010.05.20 11:12:33.
