data_PCOD9579258
_publ_section_title
;
Structure prediction by ZEFSAII (Michael W. Deem and Ramdas Pophale) SiO2 
 PCOD9579258
Probable space group: R -3 M
;
_chemical_formula_sum "Si O2"
_cell_formula_units_Z 126
_cell_length_a 25.368645
_cell_length_b 25.368645
_cell_length_c 12.595291
_cell_angle_alpha 90.000000
_cell_angle_beta 90.000000
_cell_angle_gamma 120.000000
_cell_volume 7019.939670
_symmetry_space_group_name_H-M "R -3 M"
_symmetry_group_IT_number 166
_symmetry_cell_setting 'hexagonal'
loop_
_space_group_symop_operation_xyz
x,y,z
-y,x-y,z
-x+y,-x,z
x-y,-y,-z
-x,-x+y,-z
y,x,-z
-x,-y,-z
y,-x+y,-z
x-y,x,-z
-x+y,y,z
x,x-y,z
-y,-x,z
2/3+x,1/3+y,1/3+z
2/3-y,1/3+x-y,1/3+z
2/3-x+y,1/3-x,1/3+z
2/3+x-y,1/3-y,1/3-z
2/3-x,1/3-x+y,1/3-z
2/3+y,1/3+x,1/3-z
2/3-x,1/3-y,1/3-z
2/3+y,1/3-x+y,1/3-z
2/3+x-y,1/3+x,1/3-z
2/3-x+y,1/3+y,1/3+z
2/3+x,1/3+x-y,1/3+z
2/3-y,1/3-x,1/3+z
1/3+x,2/3+y,2/3+z
1/3-y,2/3+x-y,2/3+z
1/3-x+y,2/3-x,2/3+z
1/3+x-y,2/3-y,2/3-z
1/3-x,2/3-x+y,2/3-z
1/3+y,2/3+x,2/3-z
1/3-x,2/3-y,2/3-z
1/3+y,2/3-x+y,2/3-z
1/3+x-y,2/3+x,2/3-z
1/3-x+y,2/3+y,2/3+z
1/3+x,2/3+x-y,2/3+z
1/3-y,2/3-x,2/3+z
loop_
_atom_site_type_symbol
_atom_site_label
_atom_site_fract_x
_atom_site_fract_y
_atom_site_fract_z
Si Si1 0.205622 0.163661 0.792966
Si Si2 0.047451 0.826838 0.597753
Si Si3 0.454972 0.666667 0.666667
Si Si4 0.378319 0.394517 0.764436
O O1 0.206971 0.103486 0.757296
O O2 0.178917 0.188154 0.703054
O O3 0.165345 0.147209 0.899002
O O4 0.272225 0.216297 0.828287
O O5 0.106891 0.893110 0.585387
O O6 0.067509 0.775435 0.604827
O O7 0.000000 0.808136 0.500000
O O8 0.447796 0.723898 0.695544
O O9 0.333334 0.385321 0.666667
O O10 0.344561 0.333334 0.833334
#
# Coordination Sequence:
#
# PCOD9579258 Si02
#       4
#    36  36  18  36
#     4  11  22  38  61  89 120 156 202 250 303 359
#     4  11  24  41  63  89 123 162 205 250 302 360
#     4  10  21  36  56  80 112 150 195 250 302 352
#     4  11  21  39  59  90 127 160 194 243 303 371
#
# _framework density 17.948872000000001
#
# number of rings (size 3 to 8) (size 9 to 14) (size 15 to 20)
#    0.000    1.143    4.286    2.714    0.000    0.000 
#    0.000    5.714    0.000    6.857    0.000    0.000 
#    0.000    0.000    0.000    0.000    0.000    0.000 
#
# Total GULP energy -234624.314716 kJ/mol
# GULP energy per Si atom -5586.293208 kJ/mol
# Density = 1.790802 g / cm^3
# Si number density = 17.948872 Si / 1000 Ang^3
#
#
#
# Elastic Constant Matrix: (Units=GPa)
#
#
# Indices 1 2 3 4 5 6 
#
# 1 141.8109 44.2939 28.6829 20.9040 -0.0029 -0.0014
# 2 44.2939 141.8109 28.6810 -20.9040 0.0029 0.0012
# 3 28.6829 28.6810 55.0463 0.0003 0.0001 -0.0002
# 4 20.9040 -20.9040 0.0003 32.0230 -0.0001 0.0024
# 5 -0.0029 0.0029 0.0001 -0.0001 32.0229 20.9041
# 6 -0.0014 0.0012 -0.0002 0.0024 20.9041 48.7604
#
#
#
# Elastic Compliance Matrix: (Units=1/GPa)
#
#
# Indices 1 2 3 4 5 6 
#
# 1 0.010321 -0.003919 -0.003336 -0.009296 0.000001 0.000000
# 2 -0.003919 0.010321 -0.003335 0.009295 -0.000001 0.000000
# 3 -0.003336 -0.003335 0.021642 0.000000 0.000000 0.000000
# 4 -0.009296 0.009295 0.000000 0.043363 0.000000 -0.000003
# 5 0.000001 -0.000001 0.000000 0.000000 0.043363 -0.018590
# 6 0.000000 0.000000 0.000000 -0.000003 -0.018590 0.028478
#
#
# Mechanical properties :
#
#
# Convention : Reuss Voigt Hill
#
# Bulk Modulus (GPa) = 47.38573 60.22040 53.80306
# Shear Modulus (GPa) = 26.92470 38.36196 32.64333
#
# Velocity S-wave (km/s) = 3.87729 4.62810 4.26923
# Velocity P-wave (km/s) = 6.81925 7.88562 7.37174
#
# Compressibility (1/GPa) = 0.02110340
#
# Stress axis : x y z
#
# Youngs Moduli (GPa) = 96.89263 96.89396 46.20553
#
# Poissons Ratio (x) = 0.37975 0.15413
# Poissons Ratio (y) = 0.37974 0.15411
# Poissons Ratio (z) = 0.32321 0.32316
#
# Static dielectric constant tensor:
#      x y z
#    x 1.597520 0.000000 0.000000 
#    y 0.000000 1.597520 0.000000 
#    z 0.000000 0.000000 1.597110 
# 
# From -- ./inp_files/2840.got.cif
#   From: 2010.05.17/outbox.cif.g08.bks.cpg/sg166_2_cif.got.tgz:2840.got - 2010.05.20 11:04:41.
