data_PCOD9579506
_publ_section_title
;
Structure prediction by ZEFSAII (Michael W. Deem and Ramdas Pophale) SiO2 
 PCOD9579506
Probable space group: R -3 C 
;
_chemical_formula_sum "Si O2"
_cell_formula_units_Z 234
_cell_length_a 26.288462
_cell_length_b 26.288462
_cell_length_c 20.662073
_cell_angle_alpha 90.000000
_cell_angle_beta 90.000000
_cell_angle_gamma 120.000000
_cell_volume 12366.160543
_symmetry_space_group_name_H-M "R -3 C "
_symmetry_group_IT_number 167
_symmetry_cell_setting 'hexagonal'
loop_
_space_group_symop_operation_xyz
x,y,z
-y,x-y,z
-x+y,-x,z
x-y,-y,1/2-z
-x,-x+y,1/2-z
y,x,1/2-z
-x,-y,-z
y,-x+y,-z
x-y,x,-z
-x+y,y,1/2+z
x,x-y,1/2+z
-y,-x,1/2+z
2/3+x,1/3+y,1/3+z
2/3-y,1/3+x-y,1/3+z
2/3-x+y,1/3-x,1/3+z
2/3+x-y,1/3-y,5/6-z
2/3-x,1/3-x+y,5/6-z
2/3+y,1/3+x,5/6-z
2/3-x,1/3-y,1/3-z
2/3+y,1/3-x+y,1/3-z
2/3+x-y,1/3+x,1/3-z
2/3-x+y,1/3+y,5/6+z
2/3+x,1/3+x-y,5/6+z
2/3-y,1/3-x,5/6+z
1/3+x,2/3+y,2/3+z
1/3-y,2/3+x-y,2/3+z
1/3-x+y,2/3-x,2/3+z
1/3+x-y,2/3-y,1/6-z
1/3-x,2/3-x+y,1/6-z
1/3+y,2/3+x,1/6-z
1/3-x,2/3-y,2/3-z
1/3+y,2/3-x+y,2/3-z
1/3+x-y,2/3+x,2/3-z
1/3-x+y,2/3+y,1/6+z
1/3+x,2/3+x-y,1/6+z
1/3-y,2/3-x,1/6+z
loop_
_atom_site_type_symbol
_atom_site_label
_atom_site_fract_x
_atom_site_fract_y
_atom_site_fract_z
Si Si1 0.528571 0.260246 0.337483
Si Si2 0.263108 0.464607 0.411219
Si Si3 0.097151 0.333334 0.583334
Si Si4 0.141155 0.931302 0.879510
Si Si5 0.805622 0.542702 0.459520
Si Si6 0.318618 0.995120 0.007031
Si Si7 0.425758 0.000840 0.573478
O O1 0.566151 0.329005 0.321829
O O2 0.484493 0.226835 0.278807
O O3 0.493108 0.253520 0.402698
O O4 0.333334 0.505998 0.416667
O O5 0.236717 0.476461 0.346803
O O6 0.229276 0.468409 0.473965
O O7 0.247867 0.397265 0.406801
O O8 0.157084 0.389290 0.560948
O O9 0.067362 0.349237 0.643616
O O10 0.179602 0.899536 0.886542
O O11 0.185925 0.000713 0.869316
O O12 0.324326 0.990993 0.083334
O O13 0.261666 0.938991 0.976914
O O14 0.375592 0.997296 0.974736
#
# Coordination Sequence:
#
# PCOD9579506 Si02
#       7
#    36  36  18  36  36  36  36
#     4  10  23  43  66  92 123 164 215 278 334 389
#     4  12  25  42  62  93 133 172 219 274 334 390
#     4  10  22  40  58 102 130 166 234 254 334 406
#     4  11  23  42  65  92 128 168 222 269 329 398
#     4  11  24  41  65  94 129 169 221 276 329 400
#     4  10  20  38  67  85 138 174 205 270 327 386
#     4  10  22  42  56 101 125 168 222 253 322 406
#
# _framework density 18.922608
#
# number of rings (size 3 to 8) (size 9 to 14) (size 15 to 20)
#    0.000    1.538    4.615    2.000    4.308    2.462 
#    0.000    0.000    0.000    4.308    0.000    0.000 
#    0.000    0.000    0.000    0.000    0.000    0.000 
#
# Total GULP energy -435867.933912 kJ/mol
# GULP energy per Si atom -5588.050435 kJ/mol
# Density = 1.887954 g / cm^3
# Si number density = 18.922608 Si / 1000 Ang^3
#
#
#
# Elastic Constant Matrix: (Units=GPa)
#
#
# Indices 1 2 3 4 5 6 
#
# 1 34.4292 5.0401 4.8299 2.4460 0.0006 0.0000
# 2 5.0401 34.4292 4.8299 -2.4460 -0.0006 0.0000
# 3 4.8299 4.8299 95.8475 0.0000 0.0000 0.0000
# 4 2.4460 -2.4460 0.0000 12.2218 0.0000 -0.0006
# 5 0.0006 -0.0006 0.0000 0.0000 12.2218 2.4460
# 6 0.0000 0.0000 0.0000 -0.0006 2.4460 14.6945
#
#
#
# Elastic Compliance Matrix: (Units=1/GPa)
#
#
# Indices 1 2 3 4 5 6 
#
# 1 0.030426 -0.004773 -0.001293 -0.007044 -0.000002 0.000000
# 2 -0.004773 0.030426 -0.001293 0.007044 0.000002 0.000000
# 3 -0.001293 -0.001293 0.010564 0.000000 0.000000 0.000000
# 4 -0.007044 0.007044 0.000000 0.084641 0.000000 0.000004
# 5 -0.000002 0.000002 0.000000 0.000000 0.084641 -0.014089
# 6 0.000000 0.000000 0.000000 0.000004 -0.014089 0.070398
#
#
# Mechanical properties :
#
#
# Convention : Reuss Voigt Hill
#
# Bulk Modulus (GPa) = 17.63736 21.56731 19.60233
# Shear Modulus (GPa) = 14.50493 17.82802 16.16648
#
# Velocity S-wave (km/s) = 2.77165 3.07278 2.92609
# Velocity P-wave (km/s) = 4.42535 4.90017 4.66880
#
# Compressibility (1/GPa) = 0.05669782
#
# Stress axis : x y z
#
# Youngs Moduli (GPa) = 32.86700 32.86700 94.66543
#
# Poissons Ratio (x) = 0.15688 0.12237
# Poissons Ratio (y) = 0.15688 0.12237
# Poissons Ratio (z) = 0.04249 0.04249
#
# Static dielectric constant tensor:
#      x y z
#    x 1.646330 0.000000 0.000000 
#    y 0.000000 1.646330 0.000000 
#    z 0.000000 0.000000 1.636850 
# 
# From -- ./inp_files/4713.got.cif
#   From: 2010.05.17/outbox.cif.g08.bks.cpg/sg167_3_cif.got.tgz:4713.got - 2010.05.20 11:09:15.
