data_PCOD9579698
_publ_section_title
;
Structure prediction by ZEFSAII (Michael W. Deem and Ramdas Pophale) SiO2 
 PCOD9579698
Probable space group: R -3 C 
;
_chemical_formula_sum "Si O2"
_cell_formula_units_Z 108
_cell_length_a 23.601967
_cell_length_b 23.601967
_cell_length_c 9.356641
_cell_angle_alpha 90.000000
_cell_angle_beta 90.000000
_cell_angle_gamma 120.000000
_cell_volume 4513.848680
_symmetry_space_group_name_H-M "R -3 C "
_symmetry_group_IT_number 167
_symmetry_cell_setting 'hexagonal'
loop_
_space_group_symop_operation_xyz
x,y,z
-y,x-y,z
-x+y,-x,z
x-y,-y,1/2-z
-x,-x+y,1/2-z
y,x,1/2-z
-x,-y,-z
y,-x+y,-z
x-y,x,-z
-x+y,y,1/2+z
x,x-y,1/2+z
-y,-x,1/2+z
2/3+x,1/3+y,1/3+z
2/3-y,1/3+x-y,1/3+z
2/3-x+y,1/3-x,1/3+z
2/3+x-y,1/3-y,5/6-z
2/3-x,1/3-x+y,5/6-z
2/3+y,1/3+x,5/6-z
2/3-x,1/3-y,1/3-z
2/3+y,1/3-x+y,1/3-z
2/3+x-y,1/3+x,1/3-z
2/3-x+y,1/3+y,5/6+z
2/3+x,1/3+x-y,5/6+z
2/3-y,1/3-x,5/6+z
1/3+x,2/3+y,2/3+z
1/3-y,2/3+x-y,2/3+z
1/3-x+y,2/3-x,2/3+z
1/3+x-y,2/3-y,1/6-z
1/3-x,2/3-x+y,1/6-z
1/3+y,2/3+x,1/6-z
1/3-x,2/3-y,2/3-z
1/3+y,2/3-x+y,2/3-z
1/3+x-y,2/3+x,2/3-z
1/3-x+y,2/3+y,1/6+z
1/3+x,2/3+x-y,1/6+z
1/3-y,2/3-x,1/6+z
loop_
_atom_site_type_symbol
_atom_site_label
_atom_site_fract_x
_atom_site_fract_y
_atom_site_fract_z
Si Si1 0.807774 0.240298 0.080965
Si Si2 0.854809 0.932111 0.987827
Si Si3 0.013465 0.423512 0.916500
O O1 0.780620 0.274238 0.184255
O O2 0.879332 0.257702 0.139471
O O3 0.760587 0.163579 0.115953
O O4 0.793885 0.253960 0.920429
O O5 0.895114 0.901442 0.060475
O O6 0.038775 0.372108 0.916667
O O7 0.000000 0.430086 0.750000
#
# Coordination Sequence:
#
# PCOD9579698 Si02
#       3
#    36  36  36
#     4  11  25  46  72 104 152 193 244 317 384 440
#     4  12  25  45  73 106 147 199 253 311 384 449
#     4  11  24  47  73 109 145 193 252 309 378 468
#
# _framework density 23.926366999999999
#
# number of rings (size 3 to 8) (size 9 to 14) (size 15 to 20)
#    0.000    0.667    3.333    4.333    0.000    2.667 
#    0.000    3.333    0.000    0.000    0.000    0.000 
#    0.000    0.000    0.000    0.000    0.000    0.000 
#
# Total GULP energy -201102.079317 kJ/mol
# GULP energy per Si atom -5586.168870 kJ/mol
# Density = 2.387191 g / cm^3
# Si number density = 23.926367 Si / 1000 Ang^3
#
#
#
# Elastic Constant Matrix: (Units=GPa)
#
#
# Indices 1 2 3 4 5 6 
#
# 1 100.4003 50.5234 28.1717 19.4756 0.0045 0.0011
# 2 50.5234 100.3950 28.1562 -19.4768 -0.0022 -0.0006
# 3 28.1717 28.1562 126.7098 -0.0050 0.0032 0.0030
# 4 19.4756 -19.4768 -0.0050 12.0196 -0.0034 0.0009
# 5 0.0045 -0.0022 0.0032 -0.0034 12.0207 19.4761
# 6 0.0011 -0.0006 0.0030 0.0009 19.4761 24.9374
#
#
#
# Elastic Compliance Matrix: (Units=1/GPa)
#
#
# Indices 1 2 3 4 5 6 
#
# 1 -0.034145 0.041369 -0.001596 0.122359 -0.000217 0.000168
# 2 0.041369 -0.034142 -0.001616 -0.122355 0.000221 -0.000170
# 3 -0.001596 -0.001616 0.008606 -0.000028 0.000001 -0.000002
# 4 0.122359 -0.122355 -0.000028 -0.313329 0.000604 -0.000469
# 5 -0.000217 0.000221 0.000001 0.000604 -0.313464 0.244816
# 6 0.000168 -0.000170 -0.000002 -0.000469 0.244816 -0.151101
#
#
# Mechanical properties :
#
#
# Convention : Reuss Voigt Hill
#
# Bulk Modulus (GPa) = 60.12231 60.13421 60.12826
# Shear Modulus (GPa) = -5.50453 24.50579 9.50063
#
# Velocity S-wave (km/s) = -1.51842 3.20381 1.99484
# Velocity P-wave (km/s) = 4.70196 6.23486 5.52186
#
# Compressibility (1/GPa) = 0.01663276
#
# Stress axis : x y z
#
# Youngs Moduli (GPa) = -29.28726 -29.28966 116.19822
#
# Poissons Ratio (x) = 1.21167 0.18547
# Poissons Ratio (y) = 1.21157 0.18775
# Poissons Ratio (z) = -0.04675 -0.04733
#
# Static dielectric constant tensor:
#      x y z
#    x 1.991810 0.000000 0.000000 
#    y 0.000000 1.991810 -0.000010 
#    z 0.000000 -0.000010 1.931740 
# 
# From -- ./inp_files/1239.got.cif
#   From: 2010.05.17/outbox.cif.g08.bks.cpg/sg167_1_cif.got.tgz:1239.got - 2010.05.20 11:09:15.
