data_PCOD9579922
_publ_section_title
;
Structure prediction by ZEFSAII (Michael W. Deem and Ramdas Pophale) SiO2 
 PCOD9579922
Probable space group: P 61
;
_chemical_formula_sum "Si O2"
_cell_formula_units_Z 36
_cell_length_a 14.152355
_cell_length_b 14.152355
_cell_length_c 7.709363
_cell_angle_alpha 90.000000
_cell_angle_beta 90.000000
_cell_angle_gamma 120.000000
_cell_volume 1337.231366
_symmetry_space_group_name_H-M "P 61"
_symmetry_group_IT_number 169
_symmetry_cell_setting 'hexagonal'
loop_
_space_group_symop_operation_xyz
x,y,z
x-y,x,1/6+z
-y,x-y,1/3+z
-x,-y,1/2+z
-x+y,-x,2/3+z
y,-x+y,5/6+z
loop_
_atom_site_type_symbol
_atom_site_label
_atom_site_fract_x
_atom_site_fract_y
_atom_site_fract_z
Si Si1 0.049489 0.497898 0.407890
Si Si2 0.226469 0.079927 0.396421
Si Si3 0.385728 0.116973 0.683071
Si Si4 0.637600 0.378825 0.048593
Si Si5 0.815422 0.021337 0.392438
Si Si6 0.532243 0.659360 0.063160
O O1 0.107246 0.614818 0.510414
O O2 0.139692 0.535063 0.255483
O O3 0.049274 0.417907 0.556998
O O4 0.936966 0.483870 0.337235
O O5 0.177482 0.136089 0.517860
O O6 0.324679 0.080487 0.497600
O O7 0.254329 0.151317 0.221910
O O8 0.306343 0.030849 0.823434
O O9 0.404972 0.239304 0.697905
O O10 0.621062 0.280057 0.176864
O O11 0.755277 0.466651 0.130627
O O12 0.820596 0.913099 0.431238
#
# Coordination Sequence:
#
# PCOD9579922 Si02
#       6
#     6   6   6   6   6   6
#     4  10  22  39  61  89 115 154 208 256 324 391
#     4  10  21  34  55  87 124 169 212 242 295 378
#     4  11  22  40  60  84 126 166 196 270 332 369
#     4   9  20  38  62  88 118 156 196 248 318 377
#     4  10  21  34  55  87 124 169 212 242 295 378
#     4  10  22  39  61  89 115 154 208 256 324 391
#
# _framework density 26.921296999999999
#
# number of rings (size 3 to 8) (size 9 to 14) (size 15 to 20)
#    0.000    2.000    0.000    3.000    2.333    9.333 
#    0.000    0.000   14.667    0.000    0.000    0.000 
#    0.000    0.000    0.000    0.000    0.000    0.000 
#
# Total GULP energy -201017.336940 kJ/mol
# GULP energy per Si atom -5583.814915 kJ/mol
# Density = 2.686002 g / cm^3
# Si number density = 26.921297 Si / 1000 Ang^3
#
#
#
# Elastic Constant Matrix: (Units=GPa)
#
#
# Indices 1 2 3 4 5 6 
#
# 1 83.2546 8.9983 24.9302 0.0000 0.0000 0.0000
# 2 8.9983 83.2546 24.9302 0.0000 0.0000 0.0000
# 3 24.9302 24.9302 81.6718 0.0000 0.0000 0.0000
# 4 0.0000 0.0000 0.0000 42.6178 0.0000 0.0000
# 5 0.0000 0.0000 0.0000 0.0000 42.6178 0.0000
# 6 0.0000 0.0000 0.0000 0.0000 0.0000 37.1282
#
#
#
# Elastic Compliance Matrix: (Units=1/GPa)
#
#
# Indices 1 2 3 4 5 6 
#
# 1 0.013224 -0.000243 -0.003963 0.000000 0.000000 0.000000
# 2 -0.000243 0.013224 -0.003963 0.000000 0.000000 0.000000
# 3 -0.003963 -0.003963 0.014663 0.000000 0.000000 0.000000
# 4 0.000000 0.000000 0.000000 0.023464 0.000000 0.000000
# 5 0.000000 0.000000 0.000000 0.000000 0.023464 0.000000
# 6 0.000000 0.000000 0.000000 0.000000 0.000000 0.026934
#
#
# Mechanical properties :
#
#
# Convention : Reuss Voigt Hill
#
# Bulk Modulus (GPa) = 40.36185 40.65539 40.50862
# Shear Modulus (GPa) = 35.82474 37.09425 36.45950
#
# Velocity S-wave (km/s) = 3.65186 3.71600 3.68407
# Velocity P-wave (km/s) = 5.72770 5.79189 5.75988
#
# Compressibility (1/GPa) = 0.02477587
#
# Stress axis : x y z
#
# Youngs Moduli (GPa) = 75.61917 75.61917 68.19762
#
# Poissons Ratio (x) = 0.01835 0.27024
# Poissons Ratio (y) = 0.01835 0.27024
# Poissons Ratio (z) = 0.29965 0.29965
#
# Static dielectric constant tensor:
#      x y z
#    x 2.116390 0.000000 0.000000 
#    y 0.000000 2.116390 0.000000 
#    z 0.000000 0.000000 2.200280 
# 
# From -- ./inp_files/602.got.cif
#   From: 2010.05.17/outbox.cif.g08.bks.cpg/sg169_cif.got.tgz:602.got - 2010.05.20 11:12:54.
