data_PCOD9579359
_publ_section_title
;
Structure prediction by ZEFSAII (Michael W. Deem and Ramdas Pophale) SiO2 
 PCOD9579359
Probable space group: R -3 M
;
_chemical_formula_sum "Si O2"
_cell_formula_units_Z 144
_cell_length_a 19.652641
_cell_length_b 19.652641
_cell_length_c 19.734359
_cell_angle_alpha 90.000000
_cell_angle_beta 90.000000
_cell_angle_gamma 120.000000
_cell_volume 6600.783642
_symmetry_space_group_name_H-M "R -3 M"
_symmetry_group_IT_number 166
_symmetry_cell_setting 'hexagonal'
loop_
_space_group_symop_operation_xyz
x,y,z
-y,x-y,z
-x+y,-x,z
x-y,-y,-z
-x,-x+y,-z
y,x,-z
-x,-y,-z
y,-x+y,-z
x-y,x,-z
-x+y,y,z
x,x-y,z
-y,-x,z
2/3+x,1/3+y,1/3+z
2/3-y,1/3+x-y,1/3+z
2/3-x+y,1/3-x,1/3+z
2/3+x-y,1/3-y,1/3-z
2/3-x,1/3-x+y,1/3-z
2/3+y,1/3+x,1/3-z
2/3-x,1/3-y,1/3-z
2/3+y,1/3-x+y,1/3-z
2/3+x-y,1/3+x,1/3-z
2/3-x+y,1/3+y,1/3+z
2/3+x,1/3+x-y,1/3+z
2/3-y,1/3-x,1/3+z
1/3+x,2/3+y,2/3+z
1/3-y,2/3+x-y,2/3+z
1/3-x+y,2/3-x,2/3+z
1/3+x-y,2/3-y,2/3-z
1/3-x,2/3-x+y,2/3-z
1/3+y,2/3+x,2/3-z
1/3-x,2/3-y,2/3-z
1/3+y,2/3-x+y,2/3-z
1/3+x-y,2/3+x,2/3-z
1/3-x+y,2/3+y,2/3+z
1/3+x,2/3+x-y,2/3+z
1/3-y,2/3-x,2/3+z
loop_
_atom_site_type_symbol
_atom_site_label
_atom_site_fract_x
_atom_site_fract_y
_atom_site_fract_z
Si Si1 0.399364 0.947518 0.431958
Si Si2 0.576333 0.998487 0.276437
Si Si3 0.005721 0.577165 0.080891
Si Si4 0.998963 0.150359 0.919113
O O1 0.455152 0.910303 0.425894
O O2 0.306312 0.892503 0.436623
O O3 0.425949 0.000000 0.500000
O O4 0.412930 0.992926 0.359202
O O5 0.486558 0.973116 0.262773
O O6 0.627616 0.087623 0.249595
O O7 0.604531 0.942027 0.243446
O O8 0.027506 0.513753 0.107967
O O9 0.000000 0.568229 0.000000
O O10 0.088140 0.176279 0.896785
O O11 0.934263 0.065738 0.890033
O O12 0.000000 0.140125 0.000000
#
# Coordination Sequence:
#
# PCOD9579359 Si02
#       4
#    36  36  36  36
#     4   9  17  30  47  67  92 121 154 191 232 281
#     4   9  17  29  46  67  91 121 156 194 235 277
#     4   9  17  30  48  69  93 122 158 200 239 273
#     4   9  15  22  34  56  87 119 147 175 212 262
#
# _framework density 21.815591999999999
#
# number of rings (size 3 to 8) (size 9 to 14) (size 15 to 20)
#    0.000    3.000    0.000    2.500    0.000    4.000 
#    0.000    2.500    0.000    1.000    0.000    7.000 
#    0.000    3.000    0.000    0.750    0.000    1.500 
#
# Total GULP energy -267527.836984 kJ/mol
# GULP energy per Si atom -5573.496604 kJ/mol
# Density = 2.176594 g / cm^3
# Si number density = 21.815592 Si / 1000 Ang^3
#
#
#
# Elastic Constant Matrix: (Units=GPa)
#
#
# Indices 1 2 3 4 5 6 
#
# 1 152.6764 108.9590 14.4643 5.5388 0.0000 0.0000
# 2 108.9590 152.6764 14.4643 -5.5388 0.0000 0.0000
# 3 14.4643 14.4643 134.9688 0.0000 0.0000 0.0000
# 4 5.5388 -5.5388 0.0000 -13.7017 0.0000 0.0000
# 5 0.0000 0.0000 0.0000 0.0000 -13.7017 5.5388
# 6 0.0000 0.0000 0.0000 0.0000 5.5388 21.8587
#
#
#
# Elastic Compliance Matrix: (Units=1/GPa)
#
#
# Indices 1 2 3 4 5 6 
#
# 1 0.012308 -0.008440 -0.000415 0.008388 0.000000 0.000000
# 2 -0.008440 0.012308 -0.000415 -0.008388 0.000000 0.000000
# 3 -0.000415 -0.000415 0.007498 0.000000 0.000000 0.000000
# 4 0.008388 -0.008388 0.000000 -0.066202 0.000000 0.000000
# 5 0.000000 0.000000 0.000000 0.000000 -0.066202 0.016775
# 6 0.000000 0.000000 0.000000 0.000000 0.016775 0.041498
#
#
# Mechanical properties :
#
#
# Convention : Reuss Voigt Hill
#
# Bulk Modulus (GPa) = 73.66059 79.56631 76.61345
# Shear Modulus (GPa) = -139.94700 19.05331 -60.44684
#
# Velocity S-wave (km/s) = -8.01806 2.95851 -5.26956
# Velocity P-wave (km/s) = 7.20282 6.94419 1.35256
#
# Compressibility (1/GPa) = 0.01357578
#
# Stress axis : x y z
#
# Youngs Moduli (GPa) = 81.24537 81.24537 133.36951
#
# Poissons Ratio (x) = 0.68575 0.05528
# Poissons Ratio (y) = 0.68575 0.05528
# Poissons Ratio (z) = 0.03368 0.03368
#
# Static dielectric constant tensor:
#      x y z
#    x 1.865540 0.000000 0.000000 
#    y 0.000000 1.865540 0.000000 
#    z 0.000000 0.000000 1.850980 
# 
# From -- ./inp_files/9360.got.cif
#   From: 2010.05.17/outbox.cif.g08.bks.cpg/sg166_5_cif.got.tgz:9360.got - 2010.05.20 11:04:41.
