data_PCOD9579009
_publ_section_title
;
Structure prediction by ZEFSAII (Michael W. Deem and Ramdas Pophale) SiO2 
 PCOD9579009
Probable space group: P -3 C 1
;
_chemical_formula_sum "Si O2"
_cell_formula_units_Z 84
_cell_length_a 18.000000
_cell_length_b 18.000000
_cell_length_c 15.000000
_cell_angle_alpha 90.000000
_cell_angle_beta 90.000000
_cell_angle_gamma 120.000000
_cell_volume 4208.883462
_symmetry_space_group_name_H-M "P -3 C 1"
_symmetry_group_IT_number 165
_symmetry_cell_setting 'hexagonal'
loop_
_space_group_symop_operation_xyz
x,y,z
-y,x-y,z
-x+y,-x,z
x-y,-y,1/2-z
-x,-x+y,1/2-z
y,x,1/2-z
-x,-y,-z
y,-x+y,-z
x-y,x,-z
-x+y,y,1/2+z
x,x-y,1/2+z
-y,-x,1/2+z
loop_
_atom_site_type_symbol
_atom_site_label
_atom_site_fract_x
_atom_site_fract_y
_atom_site_fract_z
Si Si1 0.838708 0.333611 0.689094
Si Si2 0.000000 0.317700 0.750000
Si Si3 0.066924 0.308004 0.073534
Si Si4 0.665427 0.502675 0.973348
Si Si5 0.933076 0.241080 0.926466
Si Si6 0.505097 0.666389 0.310906
Si Si7 0.317700 0.000000 0.250000
Si Si8 0.837248 0.502675 0.973348
O O1 0.919738 0.328847 0.723734
O O2 0.750984 0.249016 0.716948
O O3 0.839396 0.419698 0.717325
O O4 0.841229 0.333796 0.581027
O O5 0.973357 0.252923 0.830944
O O6 0.154537 0.309074 0.061628
O O7 0.026643 0.279566 0.169056
O O8 0.090531 0.406863 0.063263
O O9 1.000000 0.252340 0.000000
O O10 0.666204 0.507433 0.081027
O O11 0.744160 0.488320 0.947550
O O12 0.575861 0.424139 0.943917
O O13 0.683668 0.593137 0.936737
O O14 0.590891 0.671153 0.276266
#
# Coordination Sequence:
#
# PCOD9579009 Si02
#       8
#    12   6  12  12  12  12   6  12
#     4  10  20  35  56  84 122 166 212 257 302 351
#     4  12  23  38  60  92 123 160 206 252 297 352
#     4  11  24  42  65  91 122 157 197 245 301 360
#     4   9  18  34  57  86 122 166 211 252 291 339
#     4  11  24  42  65  91 122 157 197 245 301 360
#     4  10  20  35  56  84 122 166 212 257 302 351
#     4  12  23  38  60  92 123 160 206 252 297 352
#     4   9  18  34  57  86 122 166 211 252 291 339
#
# _framework density 19.957787
#
# number of rings (size 3 to 8) (size 9 to 14) (size 15 to 20)
#    0.000    1.714    2.857    1.857    0.000    6.286 
#    0.000    0.000    0.000    3.714    0.000    1.000 
#    0.000    0.000    0.000    0.000    0.000    0.000 
#
# Total GULP energy -469495.704461 kJ/mol
# GULP energy per Si atom -5589.234577 kJ/mol
# Density = 1.991236 g / cm^3
# Si number density = 19.957787 Si / 1000 Ang^3
#
#
#
# Elastic Constant Matrix: (Units=GPa)
#
#
# Indices 1 2 3 4 5 6 
#
# 1 9.0678 27.8304 6.4473 3.5855 0.0000 0.0000
# 2 27.8304 9.0678 6.4473 -3.5855 0.0000 0.0000
# 3 6.4473 6.4473 55.0893 0.0000 0.0000 0.0000
# 4 3.5855 -3.5855 0.0000 -76.0727 0.0000 0.0000
# 5 0.0000 0.0000 0.0000 0.0000 -76.0727 3.5855
# 6 0.0000 0.0000 0.0000 0.0000 3.5855 -9.3813
#
#
#
# Elastic Compliance Matrix: (Units=1/GPa)
#
#
# Indices 1 2 3 4 5 6 
#
# 1 -0.013009 0.041266 -0.003307 -0.002558 0.000000 0.000000
# 2 0.041266 -0.013009 -0.003307 0.002558 0.000000 0.000000
# 3 -0.003307 -0.003307 0.018926 0.000000 0.000000 0.000000
# 4 -0.002558 0.002558 0.000000 -0.013386 0.000000 0.000000
# 5 0.000000 0.000000 0.000000 0.000000 -0.013386 -0.005116
# 6 0.000000 0.000000 0.000000 0.000000 -0.005116 -0.108551
#
#
# Mechanical properties :
#
#
# Convention : Reuss Voigt Hill
#
# Bulk Modulus (GPa) = 16.07389 17.18613 16.63001
# Shear Modulus (GPa) = -26.18051 -30.13869 -28.15960
#
# Velocity S-wave (km/s) = -3.62580 -3.89024 -3.76035
# Velocity P-wave (km/s) = 3.07525 3.39834 3.24082
#
# Compressibility (1/GPa) = 0.06221268
#
# Stress axis : x y z
#
# Youngs Moduli (GPa) = -76.86984 -76.86984 52.83615
#
# Poissons Ratio (x) = 3.17213 0.17473
# Poissons Ratio (y) = 3.17213 0.17473
# Poissons Ratio (z) = -0.25421 -0.25421
#
# Static dielectric constant tensor:
#      x y z
#    x 1.662030 0.000000 0.000000 
#    y 0.000000 1.662030 0.000000 
#    z 0.000000 0.000000 1.748740 
# 
# From -- ./inp_files/1890.got.cif
#   From: 2010.05.17/outbox.ucp.g08.bks.cvg/sg165_1_cif.got.tgz:1890.got - 2010.06.11 15:16:31.
