data_PCOD9579393
_publ_section_title
;
Structure prediction by ZEFSAII (Michael W. Deem and Ramdas Pophale) SiO2 
 PCOD9579393
Probable space group: R -3 C 
;
_chemical_formula_sum "Si O2"
_cell_formula_units_Z 126
_cell_length_a 25.169764
_cell_length_b 25.169764
_cell_length_c 8.843600
_cell_angle_alpha 90.000000
_cell_angle_beta 90.000000
_cell_angle_gamma 120.000000
_cell_volume 4851.968913
_symmetry_space_group_name_H-M "R -3 C "
_symmetry_group_IT_number 167
_symmetry_cell_setting 'hexagonal'
loop_
_space_group_symop_operation_xyz
x,y,z
-y,x-y,z
-x+y,-x,z
x-y,-y,1/2-z
-x,-x+y,1/2-z
y,x,1/2-z
-x,-y,-z
y,-x+y,-z
x-y,x,-z
-x+y,y,1/2+z
x,x-y,1/2+z
-y,-x,1/2+z
2/3+x,1/3+y,1/3+z
2/3-y,1/3+x-y,1/3+z
2/3-x+y,1/3-x,1/3+z
2/3+x-y,1/3-y,5/6-z
2/3-x,1/3-x+y,5/6-z
2/3+y,1/3+x,5/6-z
2/3-x,1/3-y,1/3-z
2/3+y,1/3-x+y,1/3-z
2/3+x-y,1/3+x,1/3-z
2/3-x+y,1/3+y,5/6+z
2/3+x,1/3+x-y,5/6+z
2/3-y,1/3-x,5/6+z
1/3+x,2/3+y,2/3+z
1/3-y,2/3+x-y,2/3+z
1/3-x+y,2/3-x,2/3+z
1/3+x-y,2/3-y,1/6-z
1/3-x,2/3-x+y,1/6-z
1/3+y,2/3+x,1/6-z
1/3-x,2/3-y,2/3-z
1/3+y,2/3-x+y,2/3-z
1/3+x-y,2/3+x,2/3-z
1/3-x+y,2/3+y,1/6+z
1/3+x,2/3+x-y,1/6+z
1/3-y,2/3-x,1/6+z
loop_
_atom_site_type_symbol
_atom_site_label
_atom_site_fract_x
_atom_site_fract_y
_atom_site_fract_z
Si Si1 0.880624 0.213958 0.916667
Si Si2 0.008339 0.746527 0.581517
Si Si3 0.763577 0.833168 0.818474
Si Si4 0.602708 0.224316 0.942308
O O1 0.894105 0.274929 0.826105
O O2 0.879850 0.168632 0.787485
O O3 0.028380 0.695047 0.583334
O O4 0.059883 0.800664 0.480096
O O5 0.000000 0.762914 0.750000
O O6 0.793306 0.793306 0.750000
O O7 0.821137 0.899651 0.841148
O O8 0.572337 0.238900 0.797696
O O9 0.596012 0.262678 0.083334
#
# Coordination Sequence:
#
# PCOD9579393 Si02
#       4
#    18  36  36  36
#     4  10  16  30  52  86 134 178 230 282 330 432
#     4  11  16  25  48  86 124 175 234 279 332 405
#     4   9  20  34  57  95 134 178 231 293 355 431
#     4  11  24  45  73 103 132 178 240 317 390 443
#
# _framework density 25.968838000000002
#
# number of rings (size 3 to 8) (size 9 to 14) (size 15 to 20)
#    0.000    1.714    4.286    2.000    0.000    2.286 
#    0.000    0.000    0.000   15.429   22.286    2.000 
#    0.000    0.000    0.000    0.000    0.000    2.571 
#
# Total GULP energy -234944.896589 kJ/mol
# GULP energy per Si atom -5593.926109 kJ/mol
# Density = 2.590973 g / cm^3
# Si number density = 25.968838 Si / 1000 Ang^3
#
#
#
# Elastic Constant Matrix: (Units=GPa)
#
#
# Indices 1 2 3 4 5 6 
#
# 1 82.9330 43.5554 53.0741 8.5168 0.0247 -0.0051
# 2 43.5554 82.9099 53.0784 -8.5163 0.0140 0.0036
# 3 53.0741 53.0784 179.2250 -0.0104 0.0493 -0.0207
# 4 8.5168 -8.5163 -0.0104 32.4539 -0.0110 -0.0001
# 5 0.0247 0.0140 0.0493 -0.0110 32.5145 8.4958
# 6 -0.0051 0.0036 -0.0207 -0.0001 8.4958 19.6812
#
#
#
# Elastic Compliance Matrix: (Units=1/GPa)
#
#
# Indices 1 2 3 4 5 6 
#
# 1 0.019586 -0.009067 -0.003115 -0.007520 -0.000011 0.000008
# 2 -0.009067 0.019592 -0.003117 0.007520 0.000009 -0.000013
# 3 -0.003115 -0.003117 0.007425 0.000002 -0.000011 0.000012
# 4 -0.007520 0.007520 0.000002 0.034760 0.000017 -0.000011
# 5 -0.000011 0.000009 -0.000011 0.000017 0.034665 -0.014964
# 6 0.000008 -0.000013 0.000012 -0.000011 -0.014964 0.057270
#
#
# Mechanical properties :
#
#
# Convention : Reuss Voigt Hill
#
# Bulk Modulus (GPa) = 62.48080 71.60929 67.04504
# Shear Modulus (GPa) = 23.89696 29.95392 26.92544
#
# Velocity S-wave (km/s) = 3.03680 3.39994 3.22349
# Velocity P-wave (km/s) = 6.03393 6.56108 6.30302
#
# Compressibility (1/GPa) = 0.01600492
#
# Stress axis : x y z
#
# Youngs Moduli (GPa) = 51.05749 51.03999 134.67790
#
# Poissons Ratio (x) = 0.46279 0.41953
# Poissons Ratio (y) = 0.46295 0.41977
# Poissons Ratio (z) = 0.15905 0.15909
#
# Static dielectric constant tensor:
#      x y z
#    x 2.001890 0.000000 -0.000010 
#    y 0.000000 2.001890 0.000000 
#    z -0.000010 0.000000 2.090910 
# 
# From -- ./inp_files/689.got.cif
#   From: 2010.05.17/outbox.cif.g08.bks.cpg/sg167_1_cif.got.tgz:689.got - 2010.05.20 11:09:15.
