data_PCOD9579143
_publ_section_title
;
Structure prediction by ZEFSAII (Michael W. Deem and Ramdas Pophale) SiO2 
 PCOD9579143
Probable space group: R -3 M
;
_chemical_formula_sum "Si O2"
_cell_formula_units_Z 144
_cell_length_a 28.766805
_cell_length_b 28.766805
_cell_length_c 12.026886
_cell_angle_alpha 90.000000
_cell_angle_beta 90.000000
_cell_angle_gamma 120.000000
_cell_volume 8619.202516
_symmetry_space_group_name_H-M "R -3 M"
_symmetry_group_IT_number 166
_symmetry_cell_setting 'hexagonal'
loop_
_space_group_symop_operation_xyz
x,y,z
-y,x-y,z
-x+y,-x,z
x-y,-y,-z
-x,-x+y,-z
y,x,-z
-x,-y,-z
y,-x+y,-z
x-y,x,-z
-x+y,y,z
x,x-y,z
-y,-x,z
2/3+x,1/3+y,1/3+z
2/3-y,1/3+x-y,1/3+z
2/3-x+y,1/3-x,1/3+z
2/3+x-y,1/3-y,1/3-z
2/3-x,1/3-x+y,1/3-z
2/3+y,1/3+x,1/3-z
2/3-x,1/3-y,1/3-z
2/3+y,1/3-x+y,1/3-z
2/3+x-y,1/3+x,1/3-z
2/3-x+y,1/3+y,1/3+z
2/3+x,1/3+x-y,1/3+z
2/3-y,1/3-x,1/3+z
1/3+x,2/3+y,2/3+z
1/3-y,2/3+x-y,2/3+z
1/3-x+y,2/3-x,2/3+z
1/3+x-y,2/3-y,2/3-z
1/3-x,2/3-x+y,2/3-z
1/3+y,2/3+x,2/3-z
1/3-x,2/3-y,2/3-z
1/3+y,2/3-x+y,2/3-z
1/3+x-y,2/3+x,2/3-z
1/3-x+y,2/3+y,2/3+z
1/3+x,2/3+x-y,2/3+z
1/3-y,2/3-x,2/3+z
loop_
_atom_site_type_symbol
_atom_site_label
_atom_site_fract_x
_atom_site_fract_y
_atom_site_fract_z
Si Si1 0.728192 0.709997 0.373694
Si Si2 0.331901 0.453964 0.845775
Si Si3 0.891612 0.000029 0.133239
Si Si4 0.715727 0.802559 0.003707
O O1 0.726413 0.726413 0.500000
O O2 0.666667 0.673154 0.333334
O O3 0.757814 0.760037 0.291322
O O4 0.755956 0.673656 0.360749
O O5 0.324723 0.505226 0.860396
O O6 0.282054 0.409342 0.773182
O O7 0.384828 0.473026 0.770569
O O8 0.950964 0.049037 0.153951
O O9 0.887276 0.943638 0.160535
O O10 0.881484 0.000000 0.000000
O O11 0.711770 0.855885 0.994966
#
# Coordination Sequence:
#
# PCOD9579143 Si02
#       4
#    36  36  36  36
#     4  12  22  41  59  81 114 158 192 234 284 337
#     4  11  21  34  58  85 117 150 190 232 287 338
#     4  10  19  33  55  84 117 149 183 230 289 345
#     4  11  21  35  58  85 114 150 193 237 281 335
#
# _framework density 16.706882
#
# number of rings (size 3 to 8) (size 9 to 14) (size 15 to 20)
#    0.000    1.000    7.500    2.500    0.000    4.000 
#    0.000    3.750    0.000    0.000    0.000    0.000 
#    0.000    2.000    0.000    0.000    0.000    0.000 
#
# Total GULP energy -268162.747272 kJ/mol
# GULP energy per Si atom -5586.723902 kJ/mol
# Density = 1.666886 g / cm^3
# Si number density = 16.706882 Si / 1000 Ang^3
#
#
#
# Elastic Constant Matrix: (Units=GPa)
#
#
# Indices 1 2 3 4 5 6 
#
# 1 73.3931 45.2632 39.1767 0.2771 0.0003 -0.0005
# 2 45.2632 73.3911 39.1697 -0.2767 -0.0016 -0.0009
# 3 39.1767 39.1697 102.0078 -0.0006 -0.0038 -0.0031
# 4 0.2771 -0.2767 -0.0006 8.4141 -0.0007 0.0005
# 5 0.0003 -0.0016 -0.0038 -0.0007 8.4122 0.2758
# 6 -0.0005 -0.0009 -0.0031 0.0005 0.2758 14.0666
#
#
#
# Elastic Compliance Matrix: (Units=1/GPa)
#
#
# Indices 1 2 3 4 5 6 
#
# 1 0.023433 -0.012141 -0.004337 -0.001171 -0.000005 -0.000001
# 2 -0.012141 0.023431 -0.004334 0.001170 0.000003 0.000000
# 3 -0.004337 -0.004334 0.013133 0.000001 0.000005 0.000002
# 4 -0.001171 0.001170 0.000001 0.118925 0.000010 -0.000005
# 5 -0.000005 0.000003 0.000005 0.000010 0.118952 -0.002333
# 6 -0.000001 0.000000 0.000002 -0.000005 -0.002333 0.071136
#
#
# Mechanical properties :
#
#
# Convention : Reuss Voigt Hill
#
# Bulk Modulus (GPa) = 54.43300 55.11234 54.77267
# Shear Modulus (GPa) = 11.99730 14.52408 13.26069
#
# Velocity S-wave (km/s) = 2.68266 2.95167 2.82037
# Velocity P-wave (km/s) = 6.49980 6.68400 6.59255
#
# Compressibility (1/GPa) = 0.01837121
#
# Stress axis : x y z
#
# Youngs Moduli (GPa) = 42.67516 42.67765 76.14231
#
# Poissons Ratio (x) = 0.51817 0.33026
# Poissons Ratio (y) = 0.51814 0.33003
# Poissons Ratio (z) = 0.18510 0.18498
#
# Static dielectric constant tensor:
#      x y z
#    x 1.564700 0.000000 0.000000 
#    y 0.000000 1.564700 0.000000 
#    z 0.000000 0.000000 1.542280 
# 
# From -- ./inp_files/1764.got.cif
#   From: 2010.05.17/outbox.cif.g08.bks.cpg/sg166_1_cif.got.tgz:1764.got - 2010.05.20 11:04:41.
