data_PCOD9579538
_publ_section_title
;
Structure prediction by ZEFSAII (Michael W. Deem and Ramdas Pophale) SiO2 
 PCOD9579538
Probable space group: R -3 C 
;
_chemical_formula_sum "Si O2"
_cell_formula_units_Z 108
_cell_length_a 15.906189
_cell_length_b 15.906189
_cell_length_c 23.879459
_cell_angle_alpha 90.000000
_cell_angle_beta 90.000000
_cell_angle_gamma 120.000000
_cell_volume 5232.236814
_symmetry_space_group_name_H-M "R -3 C "
_symmetry_group_IT_number 167
_symmetry_cell_setting 'hexagonal'
loop_
_space_group_symop_operation_xyz
x,y,z
-y,x-y,z
-x+y,-x,z
x-y,-y,1/2-z
-x,-x+y,1/2-z
y,x,1/2-z
-x,-y,-z
y,-x+y,-z
x-y,x,-z
-x+y,y,1/2+z
x,x-y,1/2+z
-y,-x,1/2+z
2/3+x,1/3+y,1/3+z
2/3-y,1/3+x-y,1/3+z
2/3-x+y,1/3-x,1/3+z
2/3+x-y,1/3-y,5/6-z
2/3-x,1/3-x+y,5/6-z
2/3+y,1/3+x,5/6-z
2/3-x,1/3-y,1/3-z
2/3+y,1/3-x+y,1/3-z
2/3+x-y,1/3+x,1/3-z
2/3-x+y,1/3+y,5/6+z
2/3+x,1/3+x-y,5/6+z
2/3-y,1/3-x,5/6+z
1/3+x,2/3+y,2/3+z
1/3-y,2/3+x-y,2/3+z
1/3-x+y,2/3-x,2/3+z
1/3+x-y,2/3-y,1/6-z
1/3-x,2/3-x+y,1/6-z
1/3+y,2/3+x,1/6-z
1/3-x,2/3-y,2/3-z
1/3+y,2/3-x+y,2/3-z
1/3+x-y,2/3+x,2/3-z
1/3-x+y,2/3+y,1/6+z
1/3+x,2/3+x-y,1/6+z
1/3-y,2/3-x,1/6+z
loop_
_atom_site_type_symbol
_atom_site_label
_atom_site_fract_x
_atom_site_fract_y
_atom_site_fract_z
Si Si1 0.498642 0.133517 0.308169
Si Si2 0.862924 0.529591 0.083334
Si Si3 0.333334 0.497604 0.916667
Si Si4 0.604222 0.681421 0.309351
O O1 0.483990 0.212212 0.343568
O O2 0.468395 0.134134 0.242688
O O3 0.419572 0.022049 0.322057
O O4 0.759485 0.502356 0.057381
O O5 0.908165 0.619376 0.126066
O O6 0.289327 0.424102 0.866137
#
# Coordination Sequence:
#
# PCOD9579538 Si02
#       4
#    36  18  18  36
#     4  10  21  39  61  88 117 153 201 249 294 353
#     4  10  23  40  59  92 118 158 208 238 305 360
#     4  12  23  40  63  88 128 158 194 264 297 350
#     4  10  23  40  60  88 118 162 204 234 300 371
#
# _framework density 20.641266000000002
#
# number of rings (size 3 to 8) (size 9 to 14) (size 15 to 20)
#    0.000    2.000    0.000    5.667    0.000    8.000 
#    0.000    0.000    0.000    0.000    0.000    0.000 
#    0.000    0.000    0.000    0.000    0.000    0.000 
#
# Total GULP energy -200426.355020 kJ/mol
# GULP energy per Si atom -5567.398751 kJ/mol
# Density = 2.059429 g / cm^3
# Si number density = 20.641266 Si / 1000 Ang^3
#
#
#
# Elastic Constant Matrix: (Units=GPa)
#
#
# Indices 1 2 3 4 5 6 
#
# 1 99.5027 49.8989 37.6459 12.4551 -0.0007 0.0000
# 2 49.8989 99.5027 37.6459 -12.4551 0.0007 0.0000
# 3 37.6459 37.6459 78.1562 0.0000 0.0000 0.0000
# 4 12.4551 -12.4551 0.0000 8.3860 0.0000 0.0007
# 5 -0.0007 0.0007 0.0000 0.0000 8.3860 12.4551
# 6 0.0000 0.0000 0.0000 0.0007 12.4551 24.8019
#
#
#
# Elastic Compliance Matrix: (Units=1/GPa)
#
#
# Indices 1 2 3 4 5 6 
#
# 1 0.044082 -0.035243 -0.004258 -0.117815 0.000007 0.000000
# 2 -0.035243 0.044082 -0.004258 0.117815 -0.000007 0.000000
# 3 -0.004258 -0.004258 0.016896 0.000000 0.000000 0.000000
# 4 -0.117815 0.117815 0.000000 0.469211 0.000000 -0.000014
# 5 0.000007 -0.000007 0.000000 0.000000 0.469211 -0.235630
# 6 0.000000 0.000000 0.000000 -0.000014 -0.235630 0.158649
#
#
# Mechanical properties :
#
#
# Convention : Reuss Voigt Hill
#
# Bulk Modulus (GPa) = 56.99871 58.61589 57.80730
# Shear Modulus (GPa) = 3.85953 18.44616 11.15285
#
# Velocity S-wave (km/s) = 1.36890 2.99265 2.32700
# Velocity P-wave (km/s) = 5.49294 6.35613 5.94023
#
# Compressibility (1/GPa) = 0.01754426
#
# Stress axis : x y z
#
# Youngs Moduli (GPa) = 22.68519 22.68519 59.18437
#
# Poissons Ratio (x) = 0.79949 0.25198
# Poissons Ratio (y) = 0.79949 0.25198
# Poissons Ratio (z) = 0.09658 0.09658
#
# Static dielectric constant tensor:
#      x y z
#    x 1.779070 0.000000 0.000000 
#    y 0.000000 1.779070 0.000000 
#    z 0.000000 0.000000 1.604780 
# 
# From -- ./inp_files/5957.got.cif
#   From: 2010.05.17/outbox.cif.g08.bks.cpg/sg167_3_cif.got.tgz:5957.got - 2010.05.20 11:09:15.
