data_PCOD9579142
_publ_section_title
;
Structure prediction by ZEFSAII (Michael W. Deem and Ramdas Pophale) SiO2 
 PCOD9579142
Probable space group: R -3 M
;
_chemical_formula_sum "Si O2"
_cell_formula_units_Z 144
_cell_length_a 20.864768
_cell_length_b 20.864768
_cell_length_c 19.811572
_cell_angle_alpha 90.000000
_cell_angle_beta 90.000000
_cell_angle_gamma 120.000000
_cell_volume 7469.244723
_symmetry_space_group_name_H-M "R -3 M"
_symmetry_group_IT_number 166
_symmetry_cell_setting 'hexagonal'
loop_
_space_group_symop_operation_xyz
x,y,z
-y,x-y,z
-x+y,-x,z
x-y,-y,-z
-x,-x+y,-z
y,x,-z
-x,-y,-z
y,-x+y,-z
x-y,x,-z
-x+y,y,z
x,x-y,z
-y,-x,z
2/3+x,1/3+y,1/3+z
2/3-y,1/3+x-y,1/3+z
2/3-x+y,1/3-x,1/3+z
2/3+x-y,1/3-y,1/3-z
2/3-x,1/3-x+y,1/3-z
2/3+y,1/3+x,1/3-z
2/3-x,1/3-y,1/3-z
2/3+y,1/3-x+y,1/3-z
2/3+x-y,1/3+x,1/3-z
2/3-x+y,1/3+y,1/3+z
2/3+x,1/3+x-y,1/3+z
2/3-y,1/3-x,1/3+z
1/3+x,2/3+y,2/3+z
1/3-y,2/3+x-y,2/3+z
1/3-x+y,2/3-x,2/3+z
1/3+x-y,2/3-y,2/3-z
1/3-x,2/3-x+y,2/3-z
1/3+y,2/3+x,2/3-z
1/3-x,2/3-y,2/3-z
1/3+y,2/3-x+y,2/3-z
1/3+x-y,2/3+x,2/3-z
1/3-x+y,2/3+y,2/3+z
1/3+x,2/3+x-y,2/3+z
1/3-y,2/3-x,2/3+z
loop_
_atom_site_type_symbol
_atom_site_label
_atom_site_fract_x
_atom_site_fract_y
_atom_site_fract_z
Si Si1 0.244796 0.012048 0.575381
Si Si2 0.001443 0.852479 0.302721
Si Si3 0.340042 0.924704 0.861251
Si Si4 0.943045 0.543691 0.280275
O O1 0.332638 0.068801 0.564167
O O2 0.212064 0.000000 0.500000
O O3 0.200210 0.028026 0.630687
O O4 0.241332 0.936874 0.600869
O O5 0.929730 0.859460 0.317384
O O6 0.981190 0.788401 0.247382
O O7 0.070125 0.929876 0.278363
O O8 0.280402 0.947069 0.833334
O O9 0.372196 0.908628 0.793965
O O10 0.934428 0.467214 0.304076
O O11 0.910116 0.576782 0.333334
#
# Coordination Sequence:
#
# PCOD9579142 Si02
#       4
#    36  36  36  36
#     4   9  20  37  59  86 109 136 183 242 295 330
#     4  12  25  39  56  81 118 160 193 223 268 336
#     4   9  20  38  60  87 110 137 185 242 296 334
#     4  10  19  33  55  83 113 142 177 226 283 339
#
# _framework density 19.279057999999999
#
# number of rings (size 3 to 8) (size 9 to 14) (size 15 to 20)
#    0.000    2.500    0.000    5.500    0.000    8.500 
#    0.000    0.000    0.000    2.500    0.000    0.000 
#    0.000    0.000    0.000    0.000    0.000    0.000 
#
# Total GULP energy -267842.045774 kJ/mol
# GULP energy per Si atom -5580.042620 kJ/mol
# Density = 1.923518 g / cm^3
# Si number density = 19.279058 Si / 1000 Ang^3
#
#
#
# Elastic Constant Matrix: (Units=GPa)
#
#
# Indices 1 2 3 4 5 6 
#
# 1 68.1430 48.2299 51.8881 2.6114 -0.0006 0.0000
# 2 48.2299 68.1430 51.8881 -2.6114 0.0006 0.0000
# 3 51.8881 51.8881 94.2535 0.0000 0.0000 0.0000
# 4 2.6114 -2.6114 0.0000 9.6941 0.0000 0.0006
# 5 -0.0006 0.0006 0.0000 0.0000 9.6941 2.6114
# 6 0.0000 0.0000 0.0000 0.0006 2.6114 9.9566
#
#
#
# Elastic Compliance Matrix: (Units=1/GPa)
#
#
# Indices 1 2 3 4 5 6 
#
# 1 0.035458 -0.018578 -0.009293 -0.014556 0.000003 0.000000
# 2 -0.018578 0.035458 -0.009293 0.014556 -0.000003 0.000000
# 3 -0.009293 -0.009293 0.020841 0.000000 0.000000 0.000000
# 4 -0.014556 0.014556 0.000000 0.110998 0.000000 -0.000007
# 5 0.000003 -0.000003 0.000000 0.000000 0.110998 -0.029113
# 6 0.000000 0.000000 0.000000 -0.000007 -0.029113 0.108072
#
#
# Mechanical properties :
#
#
# Convention : Reuss Voigt Hill
#
# Bulk Modulus (GPa) = 57.37126 59.39461 58.38294
# Shear Modulus (GPa) = 9.96092 11.10453 10.53273
#
# Velocity S-wave (km/s) = 2.27551 2.40258 2.33991
# Velocity P-wave (km/s) = 6.06027 6.21058 6.13588
#
# Compressibility (1/GPa) = 0.01743033
#
# Stress axis : x y z
#
# Youngs Moduli (GPa) = 28.20243 28.20243 47.98200
#
# Poissons Ratio (x) = 0.52395 0.44588
# Poissons Ratio (y) = 0.52395 0.44588
# Poissons Ratio (z) = 0.26207 0.26207
#
# Static dielectric constant tensor:
#      x y z
#    x 1.665650 0.000000 0.000000 
#    y 0.000000 1.665650 0.000000 
#    z 0.000000 0.000000 1.691520 
# 
# From -- ./inp_files/6617.got.cif
#   From: 2010.05.17/outbox.cif.g08.bks.cpg/sg166_4_cif.got.tgz:6617.got - 2010.05.20 11:04:41.
