data_PCOD9579858
_publ_section_title
;
Structure prediction by ZEFSAII (Michael W. Deem and Ramdas Pophale) SiO2 
 PCOD9579858
Probable space group: P 61
;
_chemical_formula_sum "Si O2"
_cell_formula_units_Z 36
_cell_length_a 9.058161
_cell_length_b 9.058161
_cell_length_c 25.055758
_cell_angle_alpha 90.000000
_cell_angle_beta 90.000000
_cell_angle_gamma 120.000000
_cell_volume 1780.402718
_symmetry_space_group_name_H-M "P 61"
_symmetry_group_IT_number 169
_symmetry_cell_setting 'hexagonal'
loop_
_space_group_symop_operation_xyz
x,y,z
x-y,x,1/6+z
-y,x-y,1/3+z
-x,-y,1/2+z
-x+y,-x,2/3+z
y,-x+y,5/6+z
loop_
_atom_site_type_symbol
_atom_site_label
_atom_site_fract_x
_atom_site_fract_y
_atom_site_fract_z
Si Si1 0.855835 0.760112 0.120770
Si Si2 0.412029 0.772413 0.700488
Si Si3 0.939888 0.713991 0.924766
Si Si4 0.496788 0.357940 0.368314
Si Si5 0.595127 0.418362 0.745268
Si Si6 0.594899 0.828689 0.068619
O O1 0.831251 0.613624 0.079219
O O2 0.706644 0.803464 0.112874
O O3 0.849193 0.690173 0.179699
O O4 0.043259 0.915365 0.105665
O O5 0.596707 0.789255 0.712407
O O6 0.365111 0.749218 0.638322
O O7 0.279160 0.601603 0.730905
O O8 0.463518 0.965818 0.714819
O O9 0.119899 0.737441 0.907670
O O10 0.886896 0.596733 0.978310
O O11 0.684110 0.385056 0.369864
O O12 0.412095 0.407170 0.741335
#
# Coordination Sequence:
#
# PCOD9579858 Si02
#       6
#     6   6   6   6   6   6
#     4  11  21  39  63  88 122 162 207 251 314 388
#     4   9  20  37  58  87 119 161 205 247 307 381
#     4   9  20  38  62  90 120 162 206 255 317 382
#     4  10  19  38  65  86 121 159 204 260 312 375
#     4  10  21  37  63  89 124 158 204 264 314 376
#     4  11  23  37  63  92 124 164 208 259 326 378
#
# _framework density 20.220144000000001
#
# number of rings (size 3 to 8) (size 9 to 14) (size 15 to 20)
#    0.000    2.000    3.333    0.000    7.000    0.000 
#    0.000    1.667    7.333    0.000    0.000    0.000 
#    0.000    0.000    0.000    0.000    0.000    0.000 
#
# Total GULP energy -200687.290395 kJ/mol
# GULP energy per Si atom -5574.646955 kJ/mol
# Density = 2.017412 g / cm^3
# Si number density = 20.220144 Si / 1000 Ang^3
#
#
#
# Elastic Constant Matrix: (Units=GPa)
#
#
# Indices 1 2 3 4 5 6 
#
# 1 88.3419 31.6553 8.4295 0.0000 0.0000 0.0000
# 2 31.6553 88.3419 8.4295 0.0000 0.0000 0.0000
# 3 8.4295 8.4295 50.2212 0.0000 0.0000 0.0000
# 4 0.0000 0.0000 0.0000 27.7283 0.0000 0.0000
# 5 0.0000 0.0000 0.0000 0.0000 27.7283 0.0000
# 6 0.0000 0.0000 0.0000 0.0000 0.0000 28.3433
#
#
#
# Elastic Compliance Matrix: (Units=1/GPa)
#
#
# Indices 1 2 3 4 5 6 
#
# 1 0.013088 -0.004553 -0.001433 0.000000 0.000000 0.000000
# 2 -0.004553 0.013088 -0.001433 0.000000 0.000000 0.000000
# 3 -0.001433 -0.001433 0.020393 0.000000 0.000000 0.000000
# 4 0.000000 0.000000 0.000000 0.036064 0.000000 0.000000
# 5 0.000000 0.000000 0.000000 0.000000 0.036064 0.000000
# 6 0.000000 0.000000 0.000000 0.000000 0.000000 0.035282
#
#
# Mechanical properties :
#
#
# Convention : Reuss Voigt Hill
#
# Bulk Modulus (GPa) = 31.51369 35.99261 33.75315
# Shear Modulus (GPa) = 27.87188 28.65269 28.26228
#
# Velocity S-wave (km/s) = 3.71674 3.76844 3.74268
# Velocity P-wave (km/s) = 5.83421 6.06415 5.95029
#
# Compressibility (1/GPa) = 0.03173224
#
# Stress axis : x y z
#
# Youngs Moduli (GPa) = 76.40686 76.40686 49.03686
#
# Poissons Ratio (x) = 0.34788 0.07025
# Poissons Ratio (y) = 0.34788 0.07025
# Poissons Ratio (z) = 0.10946 0.10946
#
# Static dielectric constant tensor:
#      x y z
#    x 1.754710 0.000000 0.000000 
#    y 0.000000 1.754710 0.000000 
#    z 0.000000 0.000000 1.731110 
# 
# From -- ./inp_files/1719.got.cif
#   From: 2010.05.17/outbox.cif.g08.bks.cpg/sg169_cif.got.tgz:1719.got - 2010.05.20 11:12:54.
