data_PCOD9579093
_publ_section_title
;
Structure prediction by ZEFSAII (Michael W. Deem and Ramdas Pophale) SiO2 
 PCOD9579093
Probable space group: R -3 M
;
_chemical_formula_sum "Si O2"
_cell_formula_units_Z 252
_cell_length_a 32.743554
_cell_length_b 32.743554
_cell_length_c 14.863035
_cell_angle_alpha 90.000000
_cell_angle_beta 90.000000
_cell_angle_gamma 120.000000
_cell_volume 13800.339307
_symmetry_space_group_name_H-M "R -3 M"
_symmetry_group_IT_number 166
_symmetry_cell_setting 'hexagonal'
loop_
_space_group_symop_operation_xyz
x,y,z
-y,x-y,z
-x+y,-x,z
x-y,-y,-z
-x,-x+y,-z
y,x,-z
-x,-y,-z
y,-x+y,-z
x-y,x,-z
-x+y,y,z
x,x-y,z
-y,-x,z
2/3+x,1/3+y,1/3+z
2/3-y,1/3+x-y,1/3+z
2/3-x+y,1/3-x,1/3+z
2/3+x-y,1/3-y,1/3-z
2/3-x,1/3-x+y,1/3-z
2/3+y,1/3+x,1/3-z
2/3-x,1/3-y,1/3-z
2/3+y,1/3-x+y,1/3-z
2/3+x-y,1/3+x,1/3-z
2/3-x+y,1/3+y,1/3+z
2/3+x,1/3+x-y,1/3+z
2/3-y,1/3-x,1/3+z
1/3+x,2/3+y,2/3+z
1/3-y,2/3+x-y,2/3+z
1/3-x+y,2/3-x,2/3+z
1/3+x-y,2/3-y,2/3-z
1/3-x,2/3-x+y,2/3-z
1/3+y,2/3+x,2/3-z
1/3-x,2/3-y,2/3-z
1/3+y,2/3-x+y,2/3-z
1/3+x-y,2/3+x,2/3-z
1/3-x+y,2/3+y,2/3+z
1/3+x,2/3+x-y,2/3+z
1/3-y,2/3-x,2/3+z
loop_
_atom_site_type_symbol
_atom_site_label
_atom_site_fract_x
_atom_site_fract_y
_atom_site_fract_z
Si Si1 0.279804 0.467636 0.303032
Si Si2 0.706294 0.761089 0.106178
Si Si3 0.277731 0.883057 0.169287
Si Si4 0.200221 0.053714 0.362878
Si Si5 0.187333 0.719777 0.813441
Si Si6 0.187629 0.720578 0.519511
Si Si7 0.292254 0.237427 0.100367
O O1 0.239992 0.479984 0.274977
O O2 0.269068 0.419132 0.255324
O O3 0.333616 0.505321 0.278026
O O4 0.278206 0.463686 0.410768
O O5 0.661381 0.751278 0.164172
O O6 0.749619 0.814003 0.113129
O O7 0.728638 0.728241 0.130663
O O8 0.690885 0.750604 0.002087
O O9 0.333334 0.921401 0.166667
O O10 0.268221 0.848865 0.083637
O O11 0.186933 0.093467 0.384839
O O12 0.206377 0.054357 0.255166
O O13 0.239962 0.760038 0.790541
O O14 0.172035 0.666228 0.788148
O O15 0.148608 0.730179 0.770602
O O16 0.239056 0.760945 0.548968
O O17 0.333334 0.244929 0.166667
#
# Coordination Sequence:
#
# PCOD9579093 Si02
#       7
#    36  36  36  36  36  36  36
#     4   9  18  32  49  69  96 129 164 201 244 295
#     4  10  21  34  50  72  99 132 166 201 240 285
#     4  10  19  31  47  70  97 129 167 204 241 281
#     4   9  17  30  49  71  95 123 159 203 246 289
#     4   9  18  33  52  73  96 125 160 197 242 294
#     4   9  19  35  52  71  97 130 164 200 244 293
#     4  10  20  35  52  72 100 131 164 201 242 285
#
# _framework density 18.26042
#
# number of rings (size 3 to 8) (size 9 to 14) (size 15 to 20)
#    0.000    2.571    0.000    1.714    0.000    3.714 
#    0.000    1.429    0.000    0.571    0.000    4.000 
#    0.000    3.429    0.000    7.429    0.000    7.429 
#
# Total GULP energy -468599.538075 kJ/mol
# GULP energy per Si atom -5578.565929 kJ/mol
# Density = 1.821886 g / cm^3
# Si number density = 18.260420 Si / 1000 Ang^3
#
#
#
# Elastic Constant Matrix: (Units=GPa)
#
#
# Indices 1 2 3 4 5 6 
#
# 1 93.2367 76.1371 10.4154 0.9324 -0.0006 -0.0001
# 2 76.1371 93.2370 10.4158 -0.9326 0.0003 -0.0001
# 3 10.4154 10.4158 30.7284 -0.0004 -0.0013 -0.0003
# 4 0.9324 -0.9326 -0.0004 17.6613 -0.0001 0.0004
# 5 -0.0006 0.0003 -0.0013 -0.0001 17.6609 0.9324
# 6 -0.0001 -0.0001 -0.0003 0.0004 0.9324 8.5499
#
#
#
# Elastic Compliance Matrix: (Units=1/GPa)
#
#
# Indices 1 2 3 4 5 6 
#
# 1 0.032490 -0.026329 -0.002088 -0.003106 0.000001 0.000000
# 2 -0.026329 0.032490 -0.002089 0.003106 -0.000002 0.000000
# 3 -0.002088 -0.002089 0.033959 0.000001 0.000002 0.000001
# 4 -0.003106 0.003106 0.000001 0.056949 0.000000 -0.000002
# 5 0.000001 -0.000002 0.000002 0.000000 0.056950 -0.006211
# 6 0.000000 0.000000 0.000001 -0.000002 -0.006211 0.117638
#
#
# Mechanical properties :
#
#
# Convention : Reuss Voigt Hill
#
# Bulk Modulus (GPa) = 26.36606 45.68205 36.02406
# Shear Modulus (GPa) = 12.37227 16.79001 14.58114
#
# Velocity S-wave (km/s) = 2.60579 3.03558 2.82886
# Velocity P-wave (km/s) = 4.85014 6.11208 5.51731
#
# Compressibility (1/GPa) = 0.03792755
#
# Stress axis : x y z
#
# Youngs Moduli (GPa) = 30.77871 30.77872 29.44745
#
# Poissons Ratio (x) = 0.81037 0.06148
# Poissons Ratio (y) = 0.81037 0.06150
# Poissons Ratio (z) = 0.06426 0.06428
#
# Static dielectric constant tensor:
#      x y z
#    x 1.613010 0.000000 0.000000 
#    y 0.000000 1.613010 0.000000 
#    z 0.000000 0.000000 1.670400 
# 
# From -- ./inp_files/5816.got.cif
#   From: 2010.05.17/outbox.cif.g08.bks.cpg/sg166_3_cif.got.tgz:5816.got - 2010.05.20 11:04:41.
