data_PCOD9579721
_publ_section_title
;
Structure prediction by ZEFSAII (Michael W. Deem and Ramdas Pophale) SiO2 
 PCOD9579721
Probable space group: R -3 C 
;
_chemical_formula_sum "Si O2"
_cell_formula_units_Z 138
_cell_length_a 19.424689
_cell_length_b 19.424689
_cell_length_c 23.790131
_cell_angle_alpha 90.000000
_cell_angle_beta 90.000000
_cell_angle_gamma 120.000000
_cell_volume 7773.840284
_symmetry_space_group_name_H-M "R -3 C "
_symmetry_group_IT_number 167
_symmetry_cell_setting 'hexagonal'
loop_
_space_group_symop_operation_xyz
x,y,z
-y,x-y,z
-x+y,-x,z
x-y,-y,1/2-z
-x,-x+y,1/2-z
y,x,1/2-z
-x,-y,-z
y,-x+y,-z
x-y,x,-z
-x+y,y,1/2+z
x,x-y,1/2+z
-y,-x,1/2+z
2/3+x,1/3+y,1/3+z
2/3-y,1/3+x-y,1/3+z
2/3-x+y,1/3-x,1/3+z
2/3+x-y,1/3-y,5/6-z
2/3-x,1/3-x+y,5/6-z
2/3+y,1/3+x,5/6-z
2/3-x,1/3-y,1/3-z
2/3+y,1/3-x+y,1/3-z
2/3+x-y,1/3+x,1/3-z
2/3-x+y,1/3+y,5/6+z
2/3+x,1/3+x-y,5/6+z
2/3-y,1/3-x,5/6+z
1/3+x,2/3+y,2/3+z
1/3-y,2/3+x-y,2/3+z
1/3-x+y,2/3-x,2/3+z
1/3+x-y,2/3-y,1/6-z
1/3-x,2/3-x+y,1/6-z
1/3+y,2/3+x,1/6-z
1/3-x,2/3-y,2/3-z
1/3+y,2/3-x+y,2/3-z
1/3+x-y,2/3+x,2/3-z
1/3-x+y,2/3+y,1/6+z
1/3+x,2/3+x-y,1/6+z
1/3-y,2/3-x,1/6+z
loop_
_atom_site_type_symbol
_atom_site_label
_atom_site_fract_x
_atom_site_fract_y
_atom_site_fract_z
Si Si1 0.333334 0.916669 0.916667
Si Si2 0.545046 0.454960 0.272524
Si Si3 0.846080 0.267909 0.267909
Si Si4 0.333334 0.666667 0.484233
Si Si5 0.639248 0.164492 0.974751
O O1 0.256153 0.925459 0.925453
O O2 0.319333 0.862288 0.862283
O O3 0.500008 0.500008 0.250000
O O4 0.639222 0.512267 0.265785
O O5 0.523616 0.432555 0.337554
O O6 0.516952 0.375395 0.236562
O O7 0.778664 0.221333 0.221332
O O8 0.333334 0.666668 0.416667
O O9 0.398449 0.753044 0.506562
#
# Coordination Sequence:
#
# PCOD9579721 Si02
#       5
#    18  36  36  12  36
#     4  12  26  44  64  98 144 172 222 272 340 438
#     4  12  24  42  67  95 133 177 219 277 338 397
#     4  12  25  42  69 100 129 176 229 277 338 404
#     4  12  24  42  67  95 133 177 219 277 338 397
#     4  12  25  42  69 100 129 176 229 277 338 404
#
# _framework density 17.751844999999999
#
# number of rings (size 3 to 8) (size 9 to 14) (size 15 to 20)
#    0.000    0.000   10.435    0.783    0.000    0.000 
#    0.000    2.609    0.000    0.000    0.000    0.000 
#    0.000    0.000    0.000    0.000    0.000    0.000 
#
# Total GULP energy -257361.846469 kJ/mol
# GULP energy per Si atom -5594.822749 kJ/mol
# Density = 1.771144 g / cm^3
# Si number density = 17.751845 Si / 1000 Ang^3
#
#
#
# Elastic Constant Matrix: (Units=GPa)
#
#
# Indices 1 2 3 4 5 6 
#
# 1 154.8093 83.6631 85.4656 2.6147 -0.0002 -0.0001
# 2 83.6631 154.8104 85.4655 -2.6140 0.0002 0.0000
# 3 85.4656 85.4655 152.8673 -0.0002 0.0000 0.0001
# 4 2.6147 -2.6140 -0.0002 37.4153 0.0001 0.0003
# 5 -0.0002 0.0002 0.0000 0.0001 37.4152 2.6143
# 6 -0.0001 0.0000 0.0001 0.0003 2.6143 35.5735
#
#
#
# Elastic Compliance Matrix: (Units=1/GPa)
#
#
# Indices 1 2 3 4 5 6 
#
# 1 0.010563 -0.003565 -0.003912 -0.000987 0.000000 0.000000
# 2 -0.003565 0.010563 -0.003912 0.000987 0.000000 0.000000
# 3 -0.003912 -0.003912 0.010916 0.000000 0.000000 0.000000
# 4 -0.000987 0.000987 0.000000 0.026865 0.000000 0.000000
# 5 0.000000 0.000000 0.000000 0.000000 0.026865 -0.001974
# 6 0.000000 0.000000 0.000000 0.000000 -0.001974 0.028256
#
#
# Mechanical properties :
#
#
# Convention : Reuss Voigt Hill
#
# Bulk Modulus (GPa) = 107.96389 107.96391 107.96390
# Shear Modulus (GPa) = 35.74130 35.94034 35.84082
#
# Velocity S-wave (km/s) = 4.49194 4.50443 4.49819
# Velocity P-wave (km/s) = 9.37304 9.38103 9.37703
#
# Compressibility (1/GPa) = 0.00926236
#
# Stress axis : x y z
#
# Youngs Moduli (GPa) = 94.67169 94.67295 91.60782
#
# Poissons Ratio (x) = 0.33753 0.35839
# Poissons Ratio (y) = 0.33753 0.35838
# Poissons Ratio (z) = 0.37038 0.37037
#
# Static dielectric constant tensor:
#      x y z
#    x 1.568360 0.000000 0.000000 
#    y 0.000000 1.568360 0.000000 
#    z 0.000000 0.000000 1.568360 
# 
# From -- ./inp_files/6034.got.cif
#   From: 2010.05.17/outbox.cif.g08.bks.cpg/sg167_4_cif.got.tgz:6034.got - 2010.05.20 11:09:15.
