data_PCOD9579411
_publ_section_title
;
Structure prediction by ZEFSAII (Michael W. Deem and Ramdas Pophale) SiO2 
 PCOD9579411
Probable space group: R -3 C 
;
_chemical_formula_sum "Si O2"
_cell_formula_units_Z 216
_cell_length_a 22.396406
_cell_length_b 22.396406
_cell_length_c 26.060588
_cell_angle_alpha 90.000000
_cell_angle_beta 90.000000
_cell_angle_gamma 120.000000
_cell_volume 11320.653702
_symmetry_space_group_name_H-M "R -3 C "
_symmetry_group_IT_number 167
_symmetry_cell_setting 'hexagonal'
loop_
_space_group_symop_operation_xyz
x,y,z
-y,x-y,z
-x+y,-x,z
x-y,-y,1/2-z
-x,-x+y,1/2-z
y,x,1/2-z
-x,-y,-z
y,-x+y,-z
x-y,x,-z
-x+y,y,1/2+z
x,x-y,1/2+z
-y,-x,1/2+z
2/3+x,1/3+y,1/3+z
2/3-y,1/3+x-y,1/3+z
2/3-x+y,1/3-x,1/3+z
2/3+x-y,1/3-y,5/6-z
2/3-x,1/3-x+y,5/6-z
2/3+y,1/3+x,5/6-z
2/3-x,1/3-y,1/3-z
2/3+y,1/3-x+y,1/3-z
2/3+x-y,1/3+x,1/3-z
2/3-x+y,1/3+y,5/6+z
2/3+x,1/3+x-y,5/6+z
2/3-y,1/3-x,5/6+z
1/3+x,2/3+y,2/3+z
1/3-y,2/3+x-y,2/3+z
1/3-x+y,2/3-x,2/3+z
1/3+x-y,2/3-y,1/6-z
1/3-x,2/3-x+y,1/6-z
1/3+y,2/3+x,1/6-z
1/3-x,2/3-y,2/3-z
1/3+y,2/3-x+y,2/3-z
1/3+x-y,2/3+x,2/3-z
1/3-x+y,2/3+y,1/6+z
1/3+x,2/3+x-y,1/6+z
1/3-y,2/3-x,1/6+z
loop_
_atom_site_type_symbol
_atom_site_label
_atom_site_fract_x
_atom_site_fract_y
_atom_site_fract_z
Si Si1 0.582843 0.592630 0.398296
Si Si2 0.746803 0.853122 0.073742
Si Si3 0.512696 0.373823 0.944207
Si Si4 0.824795 0.231940 0.154568
Si Si5 0.938758 0.846351 0.015632
Si Si6 0.636044 0.578238 0.213509
O O1 0.644143 0.666667 0.416667
O O2 0.600524 0.536051 0.417783
O O3 0.516897 0.584495 0.429641
O O4 0.574527 0.593790 0.337822
O O5 0.666667 0.795675 0.083334
O O6 0.799840 0.841571 0.108634
O O7 0.750147 0.924461 0.088810
O O8 0.776011 0.857495 0.015840
O O9 0.540941 0.413171 0.997660
O O10 0.577220 0.405078 0.906020
O O11 0.833334 0.166667 0.166667
O O12 0.879279 0.293337 0.191680
O O13 0.897744 0.878131 0.986334
O O14 0.637688 0.637688 0.250000
#
# Coordination Sequence:
#
# PCOD9579411 Si02
#       6
#    36  36  36  36  36  36
#     4   9  18  33  51  71 102 139 168 210 265 310
#     4  10  20  32  49  77 106 134 173 220 265 314
#     4  10  18  31  49  72 104 138 171 211 259 318
#     4   9  19  35  52  74 105 139 174 211 261 321
#     4  10  20  33  51  74 103 136 171 216 269 321
#     4  10  19  34  55  78 102 134 177 222 265 314
#
# _framework density 19.080169999999999
#
# number of rings (size 3 to 8) (size 9 to 14) (size 15 to 20)
#    0.000    2.333    0.000    3.667    0.000    1.333 
#    0.000   10.833    0.000    0.667    0.000    0.000 
#    0.000    4.000    0.000    0.000    0.000    0.000 
#
# Total GULP energy -401165.631383 kJ/mol
# GULP energy per Si atom -5571.744880 kJ/mol
# Density = 1.903674 g / cm^3
# Si number density = 19.080170 Si / 1000 Ang^3
#
#
#
# Elastic Constant Matrix: (Units=GPa)
#
#
# Indices 1 2 3 4 5 6 
#
# 1 59.3026 11.2794 8.6806 -7.3174 -0.0001 0.0000
# 2 11.2794 59.3026 8.6806 7.3174 0.0001 0.0000
# 3 8.6806 8.6806 61.3328 0.0000 0.0000 0.0000
# 4 -7.3174 7.3174 0.0000 18.2464 0.0000 0.0001
# 5 -0.0001 0.0001 0.0000 0.0000 18.2464 -7.3174
# 6 0.0000 0.0000 0.0000 0.0001 -7.3174 24.0116
#
#
#
# Elastic Compliance Matrix: (Units=1/GPa)
#
#
# Indices 1 2 3 4 5 6 
#
# 1 0.019201 -0.004522 -0.002078 0.009513 0.000000 0.000000
# 2 -0.004522 0.019201 -0.002078 -0.009513 0.000000 0.000000
# 3 -0.002078 -0.002078 0.016893 0.000000 0.000000 0.000000
# 4 0.009513 -0.009513 0.000000 0.062436 0.000000 0.000000
# 5 0.000000 0.000000 0.000000 0.000000 0.062436 0.019027
# 6 0.000000 0.000000 0.000000 0.000000 0.019027 0.047445
#
#
# Mechanical properties :
#
#
# Convention : Reuss Voigt Hill
#
# Bulk Modulus (GPa) = 26.35724 26.35769 26.35747
# Shear Modulus (GPa) = 19.40912 22.18737 20.79825
#
# Velocity S-wave (km/s) = 3.19288 3.41376 3.30516
# Velocity P-wave (km/s) = 5.23799 5.42056 5.33006
#
# Compressibility (1/GPa) = 0.03794024
#
# Stress axis : x y z
#
# Youngs Moduli (GPa) = 52.08145 52.08145 59.19763
#
# Poissons Ratio (x) = 0.23550 0.12299
# Poissons Ratio (y) = 0.23550 0.12299
# Poissons Ratio (z) = 0.10820 0.10820
#
# Static dielectric constant tensor:
#      x y z
#    x 1.710580 0.000000 0.000000 
#    y 0.000000 1.710580 0.000000 
#    z 0.000000 0.000000 1.708680 
# 
# From -- ./inp_files/5513.got.cif
#   From: 2010.05.17/outbox.cif.g08.bks.cpg/sg167_3_cif.got.tgz:5513.got - 2010.05.20 11:09:15.
