data_PCOD9579378
_publ_section_title
;
Structure prediction by ZEFSAII (Michael W. Deem and Ramdas Pophale) SiO2 
 PCOD9579378
Probable space group: R -3 M
;
_chemical_formula_sum "Si O2"
_cell_formula_units_Z 48
_cell_length_a 30.000000
_cell_length_b 30.000000
_cell_length_c 9.000000
_cell_angle_alpha 90.000000
_cell_angle_beta 90.000000
_cell_angle_gamma 120.000000
_cell_volume 7014.805771
_symmetry_space_group_name_H-M "R -3 M"
_symmetry_group_IT_number 166
_symmetry_cell_setting 'hexagonal'
loop_
_space_group_symop_operation_xyz
x,y,z
-y,x-y,z
-x+y,-x,z
x-y,-y,-z
-x,-x+y,-z
y,x,-z
-x,-y,-z
y,-x+y,-z
x-y,x,-z
-x+y,y,z
x,x-y,z
-y,-x,z
2/3+x,1/3+y,1/3+z
2/3-y,1/3+x-y,1/3+z
2/3-x+y,1/3-x,1/3+z
2/3+x-y,1/3-y,1/3-z
2/3-x,1/3-x+y,1/3-z
2/3+y,1/3+x,1/3-z
2/3-x,1/3-y,1/3-z
2/3+y,1/3-x+y,1/3-z
2/3+x-y,1/3+x,1/3-z
2/3-x+y,1/3+y,1/3+z
2/3+x,1/3+x-y,1/3+z
2/3-y,1/3-x,1/3+z
1/3+x,2/3+y,2/3+z
1/3-y,2/3+x-y,2/3+z
1/3-x+y,2/3-x,2/3+z
1/3+x-y,2/3-y,2/3-z
1/3-x,2/3-x+y,2/3-z
1/3+y,2/3+x,2/3-z
1/3-x,2/3-y,2/3-z
1/3+y,2/3-x+y,2/3-z
1/3+x-y,2/3+x,2/3-z
1/3-x+y,2/3+y,2/3+z
1/3+x,2/3+x-y,2/3+z
1/3-y,2/3-x,2/3+z
loop_
_atom_site_type_symbol
_atom_site_label
_atom_site_fract_x
_atom_site_fract_y
_atom_site_fract_z
Si Si1 0.044108 0.760153 0.728534
Si Si2 0.286910 0.814523 0.775309
Si Si3 0.933552 0.213768 0.619092
Si Si4 0.969996 0.131126 0.652970
O O1 0.065348 0.732015 0.833334
O O2 0.061501 0.814740 0.806399
O O3 0.060729 0.773640 0.556578
O O4 0.982374 0.725331 0.712457
O O5 0.236451 0.763550 0.716557
O O6 0.333334 0.851012 0.666667
O O7 0.318834 0.801328 0.892206
O O8 0.884221 0.217554 0.666667
O O9 0.940589 0.164665 0.651930
O O10 0.927327 0.072674 0.669506
O O11 0.000000 0.144554 0.500000
#
# Coordination Sequence:
#
# PCOD9579378 Si02
#       4
#    36  36  36  36
#     4  10  23  37  60  89 128 173 213 253 301 360
#     4  11  24  44  66  93 126 164 210 259 322 386
#     4  10  22  38  58  91 130 168 213 256 301 357
#     4  11  22  42  68  92 122 163 209 260 321 385
#
# _framework density 6.84267
#
# number of rings (size 3 to 8) (size 9 to 14) (size 15 to 20)
#    0.000    1.500    5.000    1.500   10.500    1.000 
#    0.000    0.000    0.000   10.000    0.000    0.000 
#    0.000    0.000    0.000    0.000    0.000    0.000 
#
# Total GULP energy -267596.418166 kJ/mol
# GULP energy per Si atom -5574.925378 kJ/mol
# Density = 0.682710 g / cm^3
# Si number density = 6.842670 Si / 1000 Ang^3
#
#
#
# Elastic Constant Matrix: (Units=GPa)
#
#
# Indices 1 2 3 4 5 6 
#
# 1 59.3480 59.8603 18.8054 15.0465 -0.0205 0.0189
# 2 59.8603 59.2664 18.7716 -15.0315 0.0502 -0.0169
# 3 18.8054 18.7716 45.4595 -0.0468 0.0923 -0.0910
# 4 15.0465 -15.0315 -0.0468 -1.2373 0.0314 -0.0011
# 5 -0.0205 0.0502 0.0923 0.0314 -1.2071 15.0056
# 6 0.0189 -0.0169 -0.0910 -0.0011 15.0056 -0.2030
#
#
#
# Elastic Compliance Matrix: (Units=1/GPa)
#
#
# Indices 1 2 3 4 5 6 
#
# 1 0.006176 0.003455 -0.003947 0.033288 -0.000026 -0.000051
# 2 0.003455 0.006212 -0.004028 -0.033306 -0.000023 0.000077
# 3 -0.003947 -0.004028 0.025293 -0.000016 0.000152 -0.000135
# 4 0.033288 -0.033306 -0.000016 0.001224 -0.000078 0.000148
# 5 -0.000026 -0.000023 0.000152 -0.000078 0.000903 0.066714
# 6 -0.000051 0.000077 -0.000135 0.000148 0.066714 0.005367
#
#
# Mechanical properties :
#
#
# Convention : Reuss Voigt Hill
#
# Bulk Modulus (GPa) = 34.91631 39.88315 37.39973
# Shear Modulus (GPa) = 78.41211 3.91295 41.16253
#
# Velocity S-wave (km/s) = 6.18713 1.38213 4.48279
# Velocity P-wave (km/s) = 8.25147 4.69232 6.71210
#
# Compressibility (1/GPa) = 0.02863991
#
# Stress axis : x y z
#
# Youngs Moduli (GPa) = 161.90553 160.97220 39.53608
#
# Poissons Ratio (x) = -0.55611 0.15606
# Poissons Ratio (y) = -0.55934 0.15927
# Poissons Ratio (z) = 0.63910 0.64846
#
# Static dielectric constant tensor:
#      x y z
#    x 1.706730 -0.000050 -0.000190 
#    y -0.000050 1.706380 0.000040 
#    z -0.000190 0.000040 1.803110 
# 
# From -- ./inp_files/1791.got.cif
#   From: 2010.05.17/outbox.ucp.g08.bks.cvg/sg166_1_cif.got.tgz:1791.got - 2010.06.11 15:16:39.
