data_PCOD9579523
_publ_section_title
;
Structure prediction by ZEFSAII (Michael W. Deem and Ramdas Pophale) SiO2 
 PCOD9579523
Probable space group: R -3 C 
;
_chemical_formula_sum "Si O2"
_cell_formula_units_Z 216
_cell_length_a 21.595818
_cell_length_b 21.595818
_cell_length_c 26.006545
_cell_angle_alpha 90.000000
_cell_angle_beta 90.000000
_cell_angle_gamma 120.000000
_cell_volume 10503.949104
_symmetry_space_group_name_H-M "R -3 C "
_symmetry_group_IT_number 167
_symmetry_cell_setting 'hexagonal'
loop_
_space_group_symop_operation_xyz
x,y,z
-y,x-y,z
-x+y,-x,z
x-y,-y,1/2-z
-x,-x+y,1/2-z
y,x,1/2-z
-x,-y,-z
y,-x+y,-z
x-y,x,-z
-x+y,y,1/2+z
x,x-y,1/2+z
-y,-x,1/2+z
2/3+x,1/3+y,1/3+z
2/3-y,1/3+x-y,1/3+z
2/3-x+y,1/3-x,1/3+z
2/3+x-y,1/3-y,5/6-z
2/3-x,1/3-x+y,5/6-z
2/3+y,1/3+x,5/6-z
2/3-x,1/3-y,1/3-z
2/3+y,1/3-x+y,1/3-z
2/3+x-y,1/3+x,1/3-z
2/3-x+y,1/3+y,5/6+z
2/3+x,1/3+x-y,5/6+z
2/3-y,1/3-x,5/6+z
1/3+x,2/3+y,2/3+z
1/3-y,2/3+x-y,2/3+z
1/3-x+y,2/3-x,2/3+z
1/3+x-y,2/3-y,1/6-z
1/3-x,2/3-x+y,1/6-z
1/3+y,2/3+x,1/6-z
1/3-x,2/3-y,2/3-z
1/3+y,2/3-x+y,2/3-z
1/3+x-y,2/3+x,2/3-z
1/3-x+y,2/3+y,1/6+z
1/3+x,2/3+x-y,1/6+z
1/3-y,2/3-x,1/6+z
loop_
_atom_site_type_symbol
_atom_site_label
_atom_site_fract_x
_atom_site_fract_y
_atom_site_fract_z
Si Si1 0.696000 0.029334 0.416667
Si Si2 0.631913 0.965247 0.916667
Si Si3 0.912561 0.985245 0.358897
Si Si4 0.882968 0.865995 0.972478
Si Si5 0.925497 0.708447 0.508841
Si Si6 0.866951 0.658849 0.748891
Si Si7 0.485829 0.903164 0.979476
O O1 0.683919 0.951158 0.427735
O O2 0.734260 0.080615 0.464850
O O3 0.565233 0.939794 0.955543
O O4 0.639933 0.033036 0.886180
O O5 0.848085 0.965398 0.319991
O O6 0.940274 0.928031 0.353312
O O7 0.884918 0.987766 0.416154
O O8 0.823663 0.784680 0.981676
O O9 0.872624 0.914289 0.014433
O O10 0.852227 0.690823 0.536500
O O11 0.824204 0.603827 0.702362
O O12 0.887948 0.736049 0.725036
#
# Coordination Sequence:
#
# PCOD9579523 Si02
#       7
#    18  18  36  36  36  36  36
#     4  12  22  46  65 103 142 166 238 292 330 438
#     4  10  22  44  69  93 130 180 230 284 340 396
#     4  10  21  38  62  98 138 177 223 273 344 407
#     4  12  21  39  62  97 138 174 214 269 345 418
#     4  11  24  40  70  97 128 182 226 281 348 402
#     4  10  23  42  68  95 130 183 221 282 350 398
#     4  10  20  44  66  90 132 180 228 278 339 411
#
# _framework density 20.563694999999999
#
# number of rings (size 3 to 8) (size 9 to 14) (size 15 to 20)
#    0.333    1.000    3.333    3.167    0.000    0.000 
#    6.000    3.333    0.000    0.000    0.000    0.000 
#    0.000    0.000    0.000    0.000    0.000    0.000 
#
# Total GULP energy -401810.104883 kJ/mol
# GULP energy per Si atom -5580.695901 kJ/mol
# Density = 2.051689 g / cm^3
# Si number density = 20.563695 Si / 1000 Ang^3
#
#
#
# Elastic Constant Matrix: (Units=GPa)
#
#
# Indices 1 2 3 4 5 6 
#
# 1 57.5214 36.3488 19.9046 17.6276 0.0001 0.0000
# 2 36.3488 57.5214 19.9046 -17.6276 -0.0001 0.0000
# 3 19.9046 19.9046 56.1929 0.0000 0.0000 0.0000
# 4 17.6276 -17.6276 0.0000 33.0259 0.0000 -0.0001
# 5 0.0001 -0.0001 0.0000 0.0000 33.0259 17.6276
# 6 0.0000 0.0000 0.0000 -0.0001 17.6276 10.5863
#
#
#
# Elastic Compliance Matrix: (Units=1/GPa)
#
#
# Indices 1 2 3 4 5 6 
#
# 1 0.218574 -0.206038 -0.004441 -0.226637 -0.000001 0.000000
# 2 -0.206038 0.218574 -0.004441 0.226637 0.000001 0.000000
# 3 -0.004441 -0.004441 0.020942 0.000000 0.000000 0.000000
# 4 -0.226637 0.226637 0.000000 0.272214 0.000000 0.000002
# 5 -0.000001 0.000001 0.000000 0.000000 0.272214 -0.453274
# 6 0.000000 0.000000 0.000000 0.000002 -0.453274 0.849224
#
#
# Mechanical properties :
#
#
# Convention : Reuss Voigt Hill
#
# Bulk Modulus (GPa) = 35.39588 35.95017 35.67303
# Shear Modulus (GPa) = 2.18246 21.66615 11.92430
#
# Velocity S-wave (km/s) = 1.03132 3.24946 2.41066
# Velocity P-wave (km/s) = 4.32069 5.62129 5.01335
#
# Compressibility (1/GPa) = 0.02825187
#
# Stress axis : x y z
#
# Youngs Moduli (GPa) = 4.57511 4.57511 47.75157
#
# Poissons Ratio (x) = 0.94265 0.21204
# Poissons Ratio (y) = 0.94265 0.21204
# Poissons Ratio (z) = 0.02032 0.02032
#
# Static dielectric constant tensor:
#      x y z
#    x 1.758150 0.000000 0.000000 
#    y 0.000000 1.758150 0.000000 
#    z 0.000000 0.000000 1.720150 
# 
# From -- ./inp_files/5566.got.cif
#   From: 2010.05.17/outbox.cif.g08.bks.cpg/sg167_3_cif.got.tgz:5566.got - 2010.05.20 11:09:15.
