data_PCOD9579953
_publ_section_title
;
Structure prediction by ZEFSAII (Michael W. Deem and Ramdas Pophale) SiO2 
 PCOD9579953
Probable space group: P 61
;
_chemical_formula_sum "Si O2"
_cell_formula_units_Z 42
_cell_length_a 15.079656
_cell_length_b 15.079656
_cell_length_c 10.228441
_cell_angle_alpha 90.000000
_cell_angle_beta 90.000000
_cell_angle_gamma 120.000000
_cell_volume 2014.294398
_symmetry_space_group_name_H-M "P 61"
_symmetry_group_IT_number 169
_symmetry_cell_setting 'hexagonal'
loop_
_space_group_symop_operation_xyz
x,y,z
x-y,x,1/6+z
-y,x-y,1/3+z
-x,-y,1/2+z
-x+y,-x,2/3+z
y,-x+y,5/6+z
loop_
_atom_site_type_symbol
_atom_site_label
_atom_site_fract_x
_atom_site_fract_y
_atom_site_fract_z
Si Si1 0.175123 0.077933 0.580240
Si Si2 0.284586 0.362860 0.826936
Si Si3 0.775062 0.187963 0.521121
Si Si4 0.885259 0.422222 0.559548
Si Si5 0.944279 0.478074 0.849318
Si Si6 0.179211 0.095577 0.217864
Si Si7 0.832709 0.590269 0.551384
O O1 0.147257 0.105825 0.718374
O O2 0.290934 0.105130 0.572485
O O3 0.143471 0.141773 0.483084
O O4 0.367679 0.461369 0.748386
O O5 0.337948 0.294275 0.860991
O O6 0.237458 0.390101 0.951450
O O7 0.824554 0.301309 0.577392
O O8 0.653628 0.130264 0.539638
O O9 0.826511 0.124249 0.573529
O O10 0.795404 0.193294 0.365742
O O11 0.951811 0.470909 0.692165
O O12 0.816533 0.475721 0.541896
O O13 0.952873 0.449514 0.428933
O O14 0.114330 0.150838 0.247321
#
# Coordination Sequence:
#
# PCOD9579953 Si02
#       7
#     6   6   6   6   6   6   6
#     4  10  21  41  60  95 142 178 236 280 335 425
#     4  11  22  44  68  99 136 189 229 286 352 419
#     4  11  24  45  69 100 138 174 237 294 352 421
#     4  10  24  45  70  99 136 177 231 287 350 420
#     4  10  25  45  71 102 134 182 232 283 357 417
#     4  10  23  40  60  95 139 184 227 283 348 412
#     4  10  25  42  68  98 135 182 232 279 358 416
#
# _framework density 20.850974000000001
#
# number of rings (size 3 to 8) (size 9 to 14) (size 15 to 20)
#    0.000    1.714    1.429    0.857   12.000    2.286 
#   18.000    0.000    0.000    0.000    0.000    0.000 
#    0.000    0.000    0.000    0.000    0.000    0.000 
#
# Total GULP energy -234432.458376 kJ/mol
# GULP energy per Si atom -5581.725199 kJ/mol
# Density = 2.080352 g / cm^3
# Si number density = 20.850974 Si / 1000 Ang^3
#
#
#
# Elastic Constant Matrix: (Units=GPa)
#
#
# Indices 1 2 3 4 5 6 
#
# 1 85.2910 39.5688 18.2466 0.0000 0.0000 0.0000
# 2 39.5688 85.2910 18.2466 0.0000 0.0000 0.0000
# 3 18.2466 18.2466 39.9734 0.0000 0.0000 0.0000
# 4 0.0000 0.0000 0.0000 31.6518 0.0000 0.0000
# 5 0.0000 0.0000 0.0000 0.0000 31.6518 0.0000
# 6 0.0000 0.0000 0.0000 0.0000 0.0000 22.8611
#
#
#
# Elastic Compliance Matrix: (Units=1/GPa)
#
#
# Indices 1 2 3 4 5 6 
#
# 1 0.015557 -0.006315 -0.004219 0.000000 0.000000 0.000000
# 2 -0.006315 0.015557 -0.004219 0.000000 0.000000 0.000000
# 3 -0.004219 -0.004219 0.028868 0.000000 0.000000 0.000000
# 4 0.000000 0.000000 0.000000 0.031594 0.000000 0.000000
# 5 0.000000 0.000000 0.000000 0.000000 0.031594 0.000000
# 6 0.000000 0.000000 0.000000 0.000000 0.000000 0.043742
#
#
# Mechanical properties :
#
#
# Convention : Reuss Voigt Hill
#
# Bulk Modulus (GPa) = 32.81134 40.29772 36.55453
# Shear Modulus (GPa) = 24.20440 26.19919 25.20179
#
# Velocity S-wave (km/s) = 3.41079 3.54856 3.48035
# Velocity P-wave (km/s) = 5.59299 6.01317 5.80688
#
# Compressibility (1/GPa) = 0.03047727
#
# Stress axis : x y z
#
# Youngs Moduli (GPa) = 64.28143 64.28143 34.64044
#
# Poissons Ratio (x) = 0.40591 0.14614
# Poissons Ratio (y) = 0.40591 0.14614
# Poissons Ratio (z) = 0.27118 0.27118
#
# Static dielectric constant tensor:
#      x y z
#    x 1.755220 0.000000 0.000000 
#    y 0.000000 1.755220 0.000000 
#    z 0.000000 0.000000 1.872300 
# 
# From -- ./inp_files/975.got.cif
#   From: 2010.05.17/outbox.cif.g08.bks.cpg/sg169_cif.got.tgz:975.got - 2010.05.20 11:12:54.
