data_PCOD9579862
_publ_section_title
;
Structure prediction by ZEFSAII (Michael W. Deem and Ramdas Pophale) SiO2 
 PCOD9579862
Probable space group: P 61
;
_chemical_formula_sum "Si O2"
_cell_formula_units_Z 30
_cell_length_a 14.704993
_cell_length_b 14.704993
_cell_length_c 6.861221
_cell_angle_alpha 90.000000
_cell_angle_beta 90.000000
_cell_angle_gamma 120.000000
_cell_volume 1284.877382
_symmetry_space_group_name_H-M "P 61"
_symmetry_group_IT_number 169
_symmetry_cell_setting 'hexagonal'
loop_
_space_group_symop_operation_xyz
x,y,z
x-y,x,1/6+z
-y,x-y,1/3+z
-x,-y,1/2+z
-x+y,-x,2/3+z
y,-x+y,5/6+z
loop_
_atom_site_type_symbol
_atom_site_label
_atom_site_fract_x
_atom_site_fract_y
_atom_site_fract_z
Si Si1 0.376831 0.373302 0.977840
Si Si2 0.178223 0.811324 0.799576
Si Si3 0.718270 0.529738 0.017840
Si Si4 0.086160 0.856198 0.158364
Si Si5 0.114663 0.522314 0.462026
O O1 0.391248 0.286215 0.867569
O O2 0.451126 0.492187 0.920871
O O3 0.260024 0.350559 0.983267
O O4 0.408614 0.361385 0.197904
O O5 0.192715 0.731920 0.947291
O O6 0.138256 0.872266 0.940974
O O7 0.767213 0.653706 0.066830
O O8 0.608739 0.455477 0.121982
O O9 0.793244 0.482802 0.073638
O O10 0.963124 0.815694 0.118163
#
# Coordination Sequence:
#
# PCOD9579862 Si02
#       5
#     6   6   6   6   6
#     4  11  22  37  63  91 125 168 207 259 313 380
#     4   9  18  39  58  88 122 165 205 255 312 369
#     4   9  22  39  62  90 125 168 206 257 314 384
#     4  10  19  40  68  87 122 169 208 264 325 372
#     4  11  23  39  63  92 126 170 208 257 318 377
#
# _framework density 23.348531999999999
#
# number of rings (size 3 to 8) (size 9 to 14) (size 15 to 20)
#    1.200    0.800    2.000    1.200    2.800    4.800 
#    0.000    2.000    0.000    0.000    0.000    0.000 
#    0.000    0.000    0.000    0.000    0.000    0.000 
#
# Total GULP energy -167197.558739 kJ/mol
# GULP energy per Si atom -5573.251958 kJ/mol
# Density = 2.329539 g / cm^3
# Si number density = 23.348532 Si / 1000 Ang^3
#
#
#
# Elastic Constant Matrix: (Units=GPa)
#
#
# Indices 1 2 3 4 5 6 
#
# 1 108.8957 24.6640 11.7152 0.0000 0.0000 0.0000
# 2 24.6640 108.8957 11.7152 0.0000 0.0000 0.0000
# 3 11.7152 11.7152 43.4304 0.0000 0.0000 0.0000
# 4 0.0000 0.0000 0.0000 18.7719 0.0000 0.0000
# 5 0.0000 0.0000 0.0000 0.0000 18.7719 0.0000
# 6 0.0000 0.0000 0.0000 0.0000 0.0000 42.1159
#
#
#
# Elastic Compliance Matrix: (Units=1/GPa)
#
#
# Indices 1 2 3 4 5 6 
#
# 1 0.009866 -0.002006 -0.002120 0.000000 0.000000 0.000000
# 2 -0.002006 0.009866 -0.002120 0.000000 0.000000 0.000000
# 3 -0.002120 -0.002120 0.024169 0.000000 0.000000 0.000000
# 4 0.000000 0.000000 0.000000 0.053271 0.000000 0.000000
# 5 0.000000 0.000000 0.000000 0.000000 0.053271 0.000000
# 6 0.000000 0.000000 0.000000 0.000000 0.000000 0.023744
#
#
# Mechanical properties :
#
#
# Convention : Reuss Voigt Hill
#
# Bulk Modulus (GPa) = 31.83954 39.71230 35.77592
# Shear Modulus (GPa) = 25.36160 30.14043 27.75101
#
# Velocity S-wave (km/s) = 3.29936 3.59680 3.45128
# Velocity P-wave (km/s) = 5.30854 5.85616 5.58906
#
# Compressibility (1/GPa) = 0.03140749
#
# Stress axis : x y z
#
# Youngs Moduli (GPa) = 101.36225 101.36225 41.37520
#
# Poissons Ratio (x) = 0.20337 0.08772
# Poissons Ratio (y) = 0.20337 0.08772
# Poissons Ratio (z) = 0.21489 0.21489
#
# Static dielectric constant tensor:
#      x y z
#    x 1.938300 0.000000 0.000000 
#    y 0.000000 1.938300 0.000000 
#    z 0.000000 0.000000 1.943570 
# 
# From -- ./inp_files/532.got.cif
#   From: 2010.05.17/outbox.cif.g08.bks.cpg/sg169_cif.got.tgz:532.got - 2010.05.20 11:12:54.
