data_PCOD9579377
_publ_section_title
;
Structure prediction by ZEFSAII (Michael W. Deem and Ramdas Pophale) SiO2 
 PCOD9579377
Probable space group: R -3 M
;
_chemical_formula_sum "Si O2"
_cell_formula_units_Z 48
_cell_length_a 30.000000
_cell_length_b 30.000000
_cell_length_c 9.000000
_cell_angle_alpha 90.000000
_cell_angle_beta 90.000000
_cell_angle_gamma 120.000000
_cell_volume 7014.805771
_symmetry_space_group_name_H-M "R -3 M"
_symmetry_group_IT_number 166
_symmetry_cell_setting 'hexagonal'
loop_
_space_group_symop_operation_xyz
x,y,z
-y,x-y,z
-x+y,-x,z
x-y,-y,-z
-x,-x+y,-z
y,x,-z
-x,-y,-z
y,-x+y,-z
x-y,x,-z
-x+y,y,z
x,x-y,z
-y,-x,z
2/3+x,1/3+y,1/3+z
2/3-y,1/3+x-y,1/3+z
2/3-x+y,1/3-x,1/3+z
2/3+x-y,1/3-y,1/3-z
2/3-x,1/3-x+y,1/3-z
2/3+y,1/3+x,1/3-z
2/3-x,1/3-y,1/3-z
2/3+y,1/3-x+y,1/3-z
2/3+x-y,1/3+x,1/3-z
2/3-x+y,1/3+y,1/3+z
2/3+x,1/3+x-y,1/3+z
2/3-y,1/3-x,1/3+z
1/3+x,2/3+y,2/3+z
1/3-y,2/3+x-y,2/3+z
1/3-x+y,2/3-x,2/3+z
1/3+x-y,2/3-y,2/3-z
1/3-x,2/3-x+y,2/3-z
1/3+y,2/3+x,2/3-z
1/3-x,2/3-y,2/3-z
1/3+y,2/3-x+y,2/3-z
1/3+x-y,2/3+x,2/3-z
1/3-x+y,2/3+y,2/3+z
1/3+x,2/3+x-y,2/3+z
1/3-y,2/3-x,2/3+z
loop_
_atom_site_type_symbol
_atom_site_label
_atom_site_fract_x
_atom_site_fract_y
_atom_site_fract_z
Si Si1 0.446629 0.170638 0.004001
Si Si2 0.058662 0.750025 0.493176
Si Si3 0.854416 0.247240 0.319789
Si Si4 0.800464 0.302194 0.482798
O O1 0.454899 0.227450 0.987601
O O2 0.412681 0.146225 0.154233
O O3 0.500524 0.174287 0.049786
O O4 0.411295 0.135203 0.869680
O O5 0.082848 0.749515 0.333334
O O6 0.092007 0.741942 0.617310
O O7 0.000000 0.705195 0.500000
O O8 0.813643 0.186358 0.323924
O O9 0.831876 0.274518 0.426025
O O10 0.743079 0.256921 0.519997
O O11 0.800905 0.333334 0.333334
#
# Coordination Sequence:
#
# PCOD9579377 Si02
#       4
#    36  36  36  36
#     4  10  21  40  65  89 117 160 207 251 308 373
#     4  12  26  39  54  85 123 161 204 257 312 363
#     4   9  19  38  63  86 116 159 203 247 298 364
#     4   9  17  33  60  94 129 165 207 255 310 373
#
# _framework density 6.84267
#
# number of rings (size 3 to 8) (size 9 to 14) (size 15 to 20)
#    0.000    2.000    0.000    5.250    0.000    9.000 
#    0.000    2.500    0.000    4.500    0.000    0.000 
#    0.000    1.000    0.000    0.000    0.000    0.250 
#
# Total GULP energy -268355.997843 kJ/mol
# GULP energy per Si atom -5590.749955 kJ/mol
# Density = 0.682710 g / cm^3
# Si number density = 6.842670 Si / 1000 Ang^3
#
#
#
# Elastic Constant Matrix: (Units=GPa)
#
#
# Indices 1 2 3 4 5 6 
#
# 1 124.0597 75.2945 47.1438 0.6080 0.0064 0.0124
# 2 75.2945 124.1027 47.1591 -0.6044 0.0299 0.0029
# 3 47.1438 47.1591 63.6003 0.0015 0.0398 -0.0032
# 4 0.6080 -0.6044 0.0015 31.3255 0.0010 0.0058
# 5 0.0064 0.0299 0.0398 0.0010 31.3561 0.6161
# 6 0.0124 0.0029 -0.0032 0.0058 0.6161 24.4237
#
#
#
# Elastic Compliance Matrix: (Units=1/GPa)
#
#
# Indices 1 2 3 4 5 6 
#
# 1 0.014117 -0.006392 -0.005725 -0.000397 0.000011 -0.000007
# 2 -0.006392 0.014114 -0.005728 0.000397 -0.000005 0.000001
# 3 -0.005725 -0.005728 0.024214 -0.000001 -0.000024 0.000007
# 4 -0.000397 0.000397 -0.000001 0.031938 -0.000001 -0.000007
# 5 0.000011 -0.000005 -0.000024 -0.000001 0.031908 -0.000805
# 6 -0.000007 0.000001 0.000007 -0.000007 -0.000805 0.040964
#
#
# Mechanical properties :
#
#
# Convention : Reuss Voigt Hill
#
# Bulk Modulus (GPa) = 59.67817 72.32861 66.00339
# Shear Modulus (GPa) = 25.18505 26.89874 26.04189
#
# Velocity S-wave (km/s) = 3.50646 3.62379 3.56561
# Velocity P-wave (km/s) = 6.74747 7.26772 7.01242
#
# Compressibility (1/GPa) = 0.01675655
#
# Stress axis : x y z
#
# Youngs Moduli (GPa) = 70.83466 70.85090 41.29802
#
# Poissons Ratio (x) = 0.45284 0.23644
# Poissons Ratio (y) = 0.45274 0.23655
# Poissons Ratio (z) = 0.40555 0.40582
#
# Static dielectric constant tensor:
#      x y z
#    x 1.743610 -0.000010 -0.000030 
#    y -0.000010 1.743620 -0.000010 
#    z -0.000030 -0.000010 1.747430 
# 
# From -- ./inp_files/1807.got.cif
#   From: 2010.05.17/outbox.ucp.g08.bks.cvg/sg166_1_cif.got.tgz:1807.got - 2010.06.11 15:16:39.
