data_PCOD9579316
_publ_section_title
;
Structure prediction by ZEFSAII (Michael W. Deem and Ramdas Pophale) SiO2 
 PCOD9579316
Probable space group: R -3 M
;
_chemical_formula_sum "Si O2"
_cell_formula_units_Z 144
_cell_length_a 29.256839
_cell_length_b 29.256839
_cell_length_c 8.359324
_cell_angle_alpha 90.000000
_cell_angle_beta 90.000000
_cell_angle_gamma 120.000000
_cell_volume 6196.644674
_symmetry_space_group_name_H-M "R -3 M"
_symmetry_group_IT_number 166
_symmetry_cell_setting 'hexagonal'
loop_
_space_group_symop_operation_xyz
x,y,z
-y,x-y,z
-x+y,-x,z
x-y,-y,-z
-x,-x+y,-z
y,x,-z
-x,-y,-z
y,-x+y,-z
x-y,x,-z
-x+y,y,z
x,x-y,z
-y,-x,z
2/3+x,1/3+y,1/3+z
2/3-y,1/3+x-y,1/3+z
2/3-x+y,1/3-x,1/3+z
2/3+x-y,1/3-y,1/3-z
2/3-x,1/3-x+y,1/3-z
2/3+y,1/3+x,1/3-z
2/3-x,1/3-y,1/3-z
2/3+y,1/3-x+y,1/3-z
2/3+x-y,1/3+x,1/3-z
2/3-x+y,1/3+y,1/3+z
2/3+x,1/3+x-y,1/3+z
2/3-y,1/3-x,1/3+z
1/3+x,2/3+y,2/3+z
1/3-y,2/3+x-y,2/3+z
1/3-x+y,2/3-x,2/3+z
1/3+x-y,2/3-y,2/3-z
1/3-x,2/3-x+y,2/3-z
1/3+y,2/3+x,2/3-z
1/3-x,2/3-y,2/3-z
1/3+y,2/3-x+y,2/3-z
1/3+x-y,2/3+x,2/3-z
1/3-x+y,2/3+y,2/3+z
1/3+x,2/3+x-y,2/3+z
1/3-y,2/3-x,2/3+z
loop_
_atom_site_type_symbol
_atom_site_label
_atom_site_fract_x
_atom_site_fract_y
_atom_site_fract_z
Si Si1 0.701279 0.604867 0.173934
Si Si2 0.761707 0.095040 0.666667
Si Si3 0.061184 0.938817 0.324263
Si Si4 0.939934 0.060067 0.291283
Si Si5 0.430753 0.215377 0.201601
Si Si6 0.000000 0.735217 0.500000
Si Si7 0.755835 0.877918 0.244697
O O1 0.718923 0.666667 0.166667
O O2 0.666667 0.577396 0.333334
O O3 0.753637 0.600175 0.166833
O O4 0.673501 0.577889 0.004778
O O5 0.735306 0.054387 0.521849
O O6 0.817482 0.100430 0.704881
O O7 0.057791 0.942210 0.516030
O O8 0.092928 0.907073 0.315487
O O9 0.002293 0.908383 0.248509
O O10 0.910239 0.089762 0.222144
O O11 0.435336 0.217668 0.391916
#
# Coordination Sequence:
#
# PCOD9579316 Si02
#       7
#    36  18  18  18  18  18  18
#     4  12  29  49  76 112 155 203 260 319 383 458
#     4  11  28  46  76 106 152 206 258 319 390 466
#     4  10  24  48  76 111 146 199 255 321 396 471
#     4  10  25  45  78 110 147 193 255 322 389 473
#     4  12  28  47  71 112 152 196 250 321 387 466
#     4  12  26  46  74 106 150 204 260 312 378 464
#     4  11  26  50  73 106 152 197 256 327 394 467
#
# _framework density 23.238382000000001
#
# number of rings (size 3 to 8) (size 9 to 14) (size 15 to 20)
#    0.000    0.750    0.000    5.125   15.750    2.000 
#    0.000    0.000    0.000    1.500    0.000    0.000 
#    0.000    0.000    0.000    0.000    0.000    0.000 
#
# Total GULP energy -268091.587419 kJ/mol
# GULP energy per Si atom -5585.241405 kJ/mol
# Density = 2.318549 g / cm^3
# Si number density = 23.238382 Si / 1000 Ang^3
#
#
#
# Elastic Constant Matrix: (Units=GPa)
#
#
# Indices 1 2 3 4 5 6 
#
# 1 175.7306 78.0917 33.3668 5.8299 0.0030 0.0004
# 2 78.0917 175.8421 33.4468 -5.9905 0.0672 -0.0005
# 3 33.3668 33.4468 130.1299 -0.0918 -0.0926 -0.0328
# 4 5.8299 -5.9905 -0.0918 34.7694 -0.0538 0.0204
# 5 0.0030 0.0672 -0.0926 -0.0538 34.5100 5.8297
# 6 0.0004 -0.0005 -0.0328 0.0204 5.8297 48.8386
#
#
#
# Elastic Compliance Matrix: (Units=1/GPa)
#
#
# Indices 1 2 3 4 5 6 
#
# 1 0.007338 -0.003113 -0.001083 -0.001770 0.000000 0.000000
# 2 -0.003113 0.007337 -0.001086 0.001783 -0.000014 0.000000
# 3 -0.001083 -0.001086 0.008241 0.000016 0.000024 0.000003
# 4 -0.001770 0.001783 0.000016 0.029365 0.000045 -0.000018
# 5 0.000000 -0.000014 0.000024 0.000045 0.029574 -0.003530
# 6 0.000000 0.000000 0.000003 -0.000018 -0.003530 0.020897
#
#
# Mechanical properties :
#
#
# Convention : Reuss Voigt Hill
#
# Bulk Modulus (GPa) = 80.95702 85.72369 83.34035
# Shear Modulus (GPa) = 42.57704 46.07675 44.32690
#
# Velocity S-wave (km/s) = 4.28505 4.45768 4.37222
# Velocity P-wave (km/s) = 7.70684 7.96640 7.83769
#
# Compressibility (1/GPa) = 0.01235223
#
# Stress axis : x y z
#
# Youngs Moduli (GPa) = 136.27116 136.29711 121.33773
#
# Poissons Ratio (x) = 0.42433 0.13137
# Poissons Ratio (y) = 0.42425 0.13180
# Poissons Ratio (z) = 0.14754 0.14805
#
# Static dielectric constant tensor:
#      x y z
#    x 2.020640 0.000210 -0.000140 
#    y 0.000210 2.020530 -0.000090 
#    z -0.000140 -0.000090 1.868860 
# 
# From -- ./inp_files/1942.got.cif
#   From: 2010.05.17/outbox.cif.g08.bks.cpg/sg166_1_cif.got.tgz:1942.got - 2010.05.20 11:04:41.
