data_PCOD9579985
_publ_section_title
;
Structure prediction by ZEFSAII (Michael W. Deem and Ramdas Pophale) SiO2 
 PCOD9579985
Probable space group: P 61
;
_chemical_formula_sum "Si O2"
_cell_formula_units_Z 36
_cell_length_a 8.483600
_cell_length_b 8.483600
_cell_length_c 28.567213
_cell_angle_alpha 90.000000
_cell_angle_beta 90.000000
_cell_angle_gamma 120.000000
_cell_volume 1780.569260
_symmetry_space_group_name_H-M "P 61"
_symmetry_group_IT_number 169
_symmetry_cell_setting 'hexagonal'
loop_
_space_group_symop_operation_xyz
x,y,z
x-y,x,1/6+z
-y,x-y,1/3+z
-x,-y,1/2+z
-x+y,-x,2/3+z
y,-x+y,5/6+z
loop_
_atom_site_type_symbol
_atom_site_label
_atom_site_fract_x
_atom_site_fract_y
_atom_site_fract_z
Si Si1 0.604767 0.271852 0.518290
Si Si2 0.882333 0.449531 0.090229
Si Si3 0.131167 0.540742 0.869135
Si Si4 0.149777 0.236285 0.253666
Si Si5 0.470606 0.208109 0.937413
Si Si6 0.965624 0.230043 0.521137
O O1 0.566401 0.331228 0.468752
O O2 0.637292 0.419030 0.557547
O O3 0.785949 0.252277 0.515805
O O4 0.448993 0.073570 0.533887
O O5 0.779511 0.267658 0.059370
O O6 0.075301 0.475096 0.105998
O O7 0.904930 0.608783 0.055466
O O8 0.136675 0.703089 0.900329
O O9 0.184470 0.620256 0.816872
O O10 0.137890 0.097562 0.213959
O O11 0.228932 0.201310 0.301677
O O12 0.962171 0.228895 0.266190
#
# Coordination Sequence:
#
# PCOD9579985 Si02
#       6
#     6   6   6   6   6   6
#     4  10  22  40  63  96 121 173 219 257 332 396
#     4  11  24  40  64  99 130 167 220 276 324 405
#     4  11  22  42  67  89 131 170 216 274 325 400
#     4  11  20  45  65  91 126 177 214 263 338 404
#     4  11  23  40  68  94 128 172 214 278 337 397
#     4  10  23  39  67  91 130 169 219 262 332 404
#
# _framework density 20.218250999999999
#
# number of rings (size 3 to 8) (size 9 to 14) (size 15 to 20)
#    0.000    1.333    5.000    1.000    7.000    0.000 
#    3.000    0.000    0.000    0.000    0.000    0.000 
#    0.000    0.000    0.000    0.000    0.000    0.000 
#
# Total GULP energy -201217.101379 kJ/mol
# GULP energy per Si atom -5589.363927 kJ/mol
# Density = 2.017223 g / cm^3
# Si number density = 20.218251 Si / 1000 Ang^3
#
#
#
# Elastic Constant Matrix: (Units=GPa)
#
#
# Indices 1 2 3 4 5 6 
#
# 1 37.5990 7.6200 8.0279 0.0000 0.0000 0.0000
# 2 7.6200 37.5990 8.0279 0.0000 0.0000 0.0000
# 3 8.0279 8.0279 102.4001 0.0000 0.0000 0.0000
# 4 0.0000 0.0000 0.0000 22.9565 0.0000 0.0000
# 5 0.0000 0.0000 0.0000 0.0000 22.9565 0.0000
# 6 0.0000 0.0000 0.0000 0.0000 0.0000 14.9895
#
#
#
# Elastic Compliance Matrix: (Units=1/GPa)
#
#
# Indices 1 2 3 4 5 6 
#
# 1 0.028052 -0.005304 -0.001783 0.000000 0.000000 0.000000
# 2 -0.005304 0.028052 -0.001783 0.000000 0.000000 0.000000
# 3 -0.001783 -0.001783 0.010045 0.000000 0.000000 0.000000
# 4 0.000000 0.000000 0.000000 0.043561 0.000000 0.000000
# 5 0.000000 0.000000 0.000000 0.000000 0.043561 0.000000
# 6 0.000000 0.000000 0.000000 0.000000 0.000000 0.066714
#
#
# Mechanical properties :
#
#
# Convention : Reuss Voigt Hill
#
# Bulk Modulus (GPa) = 20.65800 24.99440 22.82620
# Shear Modulus (GPa) = 19.69568 22.44199 21.06883
#
# Velocity S-wave (km/s) = 3.12453 3.33526 3.23161
# Velocity P-wave (km/s) = 4.82251 5.21738 5.02383
#
# Compressibility (1/GPa) = 0.04840740
#
# Stress axis : x y z
#
# Youngs Moduli (GPa) = 35.64772 35.64772 99.54973
#
# Poissons Ratio (x) = 0.18909 0.17753
# Poissons Ratio (y) = 0.18909 0.17753
# Poissons Ratio (z) = 0.06357 0.06357
#
# Static dielectric constant tensor:
#      x y z
#    x 1.710300 0.000000 0.000000 
#    y 0.000000 1.710300 0.000000 
#    z 0.000000 0.000000 1.693240 
# 
# From -- ./inp_files/1724.got.cif
#   From: 2010.05.17/outbox.cif.g08.bks.cpg/sg169_cif.got.tgz:1724.got - 2010.05.20 11:12:54.
