data_PCOD9579039
_publ_section_title
;
Structure prediction by ZEFSAII (Michael W. Deem and Ramdas Pophale) SiO2 
 PCOD9579039
Probable space group: R -3 M
;
_chemical_formula_sum "Si O2"
_cell_formula_units_Z 144
_cell_length_a 24.027405
_cell_length_b 24.027405
_cell_length_c 18.455474
_cell_angle_alpha 90.000000
_cell_angle_beta 90.000000
_cell_angle_gamma 120.000000
_cell_volume 9227.192332
_symmetry_space_group_name_H-M "R -3 M"
_symmetry_group_IT_number 166
_symmetry_cell_setting 'hexagonal'
loop_
_space_group_symop_operation_xyz
x,y,z
-y,x-y,z
-x+y,-x,z
x-y,-y,-z
-x,-x+y,-z
y,x,-z
-x,-y,-z
y,-x+y,-z
x-y,x,-z
-x+y,y,z
x,x-y,z
-y,-x,z
2/3+x,1/3+y,1/3+z
2/3-y,1/3+x-y,1/3+z
2/3-x+y,1/3-x,1/3+z
2/3+x-y,1/3-y,1/3-z
2/3-x,1/3-x+y,1/3-z
2/3+y,1/3+x,1/3-z
2/3-x,1/3-y,1/3-z
2/3+y,1/3-x+y,1/3-z
2/3+x-y,1/3+x,1/3-z
2/3-x+y,1/3+y,1/3+z
2/3+x,1/3+x-y,1/3+z
2/3-y,1/3-x,1/3+z
1/3+x,2/3+y,2/3+z
1/3-y,2/3+x-y,2/3+z
1/3-x+y,2/3-x,2/3+z
1/3+x-y,2/3-y,2/3-z
1/3-x,2/3-x+y,2/3-z
1/3+y,2/3+x,2/3-z
1/3-x,2/3-y,2/3-z
1/3+y,2/3-x+y,2/3-z
1/3+x-y,2/3+x,2/3-z
1/3-x+y,2/3+y,2/3+z
1/3+x,2/3+x-y,2/3+z
1/3-y,2/3-x,2/3+z
loop_
_atom_site_type_symbol
_atom_site_label
_atom_site_fract_x
_atom_site_fract_y
_atom_site_fract_z
Si Si1 0.000880 0.870946 0.839704
Si Si2 0.595849 0.533555 0.124472
Si Si3 0.886663 0.235945 0.376969
Si Si4 0.823850 0.823850 0.000000
Si Si5 0.029496 0.333334 0.333334
O O1 0.941052 0.882103 0.825055
O O2 0.983910 0.803568 0.801978
O O3 0.001597 0.859541 0.926340
O O4 0.068219 0.931782 0.818267
O O5 0.531249 0.468752 0.102181
O O6 0.582981 0.551751 0.204363
O O7 0.611752 0.589246 0.067779
O O8 0.839918 0.160083 0.364148
O O9 0.853716 0.272565 0.338051
O O10 0.959958 0.272434 0.352163
#
# Coordination Sequence:
#
# PCOD9579039 Si02
#       5
#    36  36  36  18  18
#     4  10  18  28  43  64  91 121 152 183 214 250
#     4   9  19  33  46  63  88 115 144 183 225 261
#     4   9  18  31  45  65  92 115 139 179 224 256
#     4   9  16  28  44  62  90 126 152 171 202 246
#     4  11  19  30  51  68  81 112 153 181 214 274
#
# _framework density 15.606047
#
# number of rings (size 3 to 8) (size 9 to 14) (size 15 to 20)
#    0.000    2.500    0.000    5.125    0.000    1.000 
#    0.000    1.250    0.000    9.000    0.000    0.000 
#    0.000    0.000    0.000    0.000    0.000   75.750 
#
# Total GULP energy -267501.727231 kJ/mol
# GULP energy per Si atom -5572.952651 kJ/mol
# Density = 1.557053 g / cm^3
# Si number density = 15.606047 Si / 1000 Ang^3
#
#
#
# Elastic Constant Matrix: (Units=GPa)
#
#
# Indices 1 2 3 4 5 6 
#
# 1 67.9892 36.5174 27.2836 3.0749 -0.0003 0.0000
# 2 36.5174 67.9892 27.2836 -3.0749 0.0003 0.0000
# 3 27.2836 27.2836 37.9818 0.0000 0.0000 0.0000
# 4 3.0749 -3.0749 0.0000 9.5315 0.0000 0.0003
# 5 -0.0003 0.0003 0.0000 0.0000 9.5315 3.0749
# 6 0.0000 0.0000 0.0000 0.0003 3.0749 15.7359
#
#
#
# Elastic Compliance Matrix: (Units=1/GPa)
#
#
# Indices 1 2 3 4 5 6 
#
# 1 0.024612 -0.009300 -0.010999 -0.010940 0.000001 0.000000
# 2 -0.009300 0.024612 -0.010999 0.010940 -0.000001 0.000000
# 3 -0.010999 -0.010999 0.042130 0.000000 0.000000 0.000000
# 4 -0.010940 0.010940 0.000000 0.111974 0.000000 -0.000002
# 5 0.000001 -0.000001 0.000000 0.000000 0.111974 -0.021881
# 6 0.000000 0.000000 0.000000 -0.000002 -0.021881 0.067825
#
#
# Mechanical properties :
#
#
# Convention : Reuss Voigt Hill
#
# Bulk Modulus (GPa) = 34.77297 39.56992 37.17145
# Shear Modulus (GPa) = 10.98154 12.48481 11.73317
#
# Velocity S-wave (km/s) = 2.65556 2.83149 2.74494
# Velocity P-wave (km/s) = 5.63318 6.00836 5.82379
#
# Compressibility (1/GPa) = 0.02875797
#
# Stress axis : x y z
#
# Youngs Moduli (GPa) = 40.63046 40.63046 23.73596
#
# Poissons Ratio (x) = 0.37788 0.26107
# Poissons Ratio (y) = 0.37788 0.26107
# Poissons Ratio (z) = 0.44689 0.44689
#
# Static dielectric constant tensor:
#      x y z
#    x 1.527780 0.000000 0.000000 
#    y 0.000000 1.527780 0.000000 
#    z 0.000000 0.000000 1.489700 
# 
# From -- ./inp_files/5316.got.cif
#   From: 2010.05.17/outbox.cif.g08.bks.cpg/sg166_3_cif.got.tgz:5316.got - 2010.05.20 11:04:41.
