data_PCOD9579038
_publ_section_title
;
Structure prediction by ZEFSAII (Michael W. Deem and Ramdas Pophale) SiO2 
 PCOD9579038
Probable space group: R -3 M
;
_chemical_formula_sum "Si O2"
_cell_formula_units_Z 216
_cell_length_a 23.756893
_cell_length_b 23.756893
_cell_length_c 28.471632
_cell_angle_alpha 90.000000
_cell_angle_beta 90.000000
_cell_angle_gamma 120.000000
_cell_volume 13916.251750
_symmetry_space_group_name_H-M "R -3 M"
_symmetry_group_IT_number 166
_symmetry_cell_setting 'hexagonal'
loop_
_space_group_symop_operation_xyz
x,y,z
-y,x-y,z
-x+y,-x,z
x-y,-y,-z
-x,-x+y,-z
y,x,-z
-x,-y,-z
y,-x+y,-z
x-y,x,-z
-x+y,y,z
x,x-y,z
-y,-x,z
2/3+x,1/3+y,1/3+z
2/3-y,1/3+x-y,1/3+z
2/3-x+y,1/3-x,1/3+z
2/3+x-y,1/3-y,1/3-z
2/3-x,1/3-x+y,1/3-z
2/3+y,1/3+x,1/3-z
2/3-x,1/3-y,1/3-z
2/3+y,1/3-x+y,1/3-z
2/3+x-y,1/3+x,1/3-z
2/3-x+y,1/3+y,1/3+z
2/3+x,1/3+x-y,1/3+z
2/3-y,1/3-x,1/3+z
1/3+x,2/3+y,2/3+z
1/3-y,2/3+x-y,2/3+z
1/3-x+y,2/3-x,2/3+z
1/3+x-y,2/3-y,2/3-z
1/3-x,2/3-x+y,2/3-z
1/3+y,2/3+x,2/3-z
1/3-x,2/3-y,2/3-z
1/3+y,2/3-x+y,2/3-z
1/3+x-y,2/3+x,2/3-z
1/3-x+y,2/3+y,2/3+z
1/3+x,2/3+x-y,2/3+z
1/3-y,2/3-x,2/3+z
loop_
_atom_site_type_symbol
_atom_site_label
_atom_site_fract_x
_atom_site_fract_y
_atom_site_fract_z
Si Si1 0.022519 0.665585 0.785848
Si Si2 0.993891 0.432194 0.291649
Si Si3 0.975533 0.148186 0.951349
Si Si4 0.797363 0.463689 0.569978
Si Si5 0.392825 0.262900 0.059502
Si Si6 0.501525 0.375823 0.474867
O O1 0.981155 0.647822 0.833334
O O2 0.041826 0.733185 0.759247
O O3 0.091983 0.680672 0.806423
O O4 0.993588 0.607502 0.748385
O O5 0.007789 0.503895 0.277428
O O6 0.031233 0.440277 0.340421
O O7 0.915616 0.389321 0.298007
O O8 0.917550 0.082451 0.930929
O O9 0.028130 0.179985 0.911119
O O10 0.000000 0.135802 0.000000
O O11 0.737835 0.475670 0.579415
O O12 0.776690 0.388345 0.576876
O O13 0.863018 0.505424 0.600536
O O14 0.821629 0.480793 0.515809
O O15 0.378654 0.189327 0.071239
O O16 0.547523 0.452478 0.484302
#
# Coordination Sequence:
#
# PCOD9579038 Si02
#       6
#    36  36  36  36  36  36
#     4  11  19  30  47  75  99 126 156 200 243 288
#     4   9  19  33  49  68  94 125 158 194 239 296
#     4  10  18  28  42  61  85 118 155 191 233 277
#     4  10  20  33  49  69  94 126 162 204 252 300
#     4  10  19  32  50  72  96 127 167 210 250 284
#     4  10  19  30  45  65  91 121 156 197 238 284
#
# _framework density 15.521421
#
# number of rings (size 3 to 8) (size 9 to 14) (size 15 to 20)
#    0.000    2.000    1.667    4.167    0.000    2.667 
#    0.000    0.000    0.000    7.000    0.000    0.000 
#    0.000    0.000    0.000    0.000    0.000   23.833 
#
# Total GULP energy -400972.384039 kJ/mol
# GULP energy per Si atom -5569.060889 kJ/mol
# Density = 1.548609 g / cm^3
# Si number density = 15.521421 Si / 1000 Ang^3
#
#
#
# Elastic Constant Matrix: (Units=GPa)
#
#
# Indices 1 2 3 4 5 6 
#
# 1 63.1764 32.8291 42.8087 0.4592 0.0000 0.0000
# 2 32.8291 63.1764 42.8087 -0.4592 0.0000 0.0000
# 3 42.8087 42.8087 105.1665 0.0000 0.0000 0.0000
# 4 0.4592 -0.4592 0.0000 19.1545 0.0000 0.0000
# 5 0.0000 0.0000 0.0000 0.0000 19.1545 0.4592
# 6 0.0000 0.0000 0.0000 0.0000 0.4592 15.1737
#
#
#
# Elastic Compliance Matrix: (Units=1/GPa)
#
#
# Indices 1 2 3 4 5 6 
#
# 1 0.024664 -0.008312 -0.006656 -0.000791 0.000000 0.000000
# 2 -0.008312 0.024664 -0.006656 0.000791 0.000000 0.000000
# 3 -0.006656 -0.006656 0.014928 0.000000 0.000000 0.000000
# 4 -0.000791 0.000791 0.000000 0.052245 0.000000 0.000000
# 5 0.000000 0.000000 0.000000 0.000000 0.052245 -0.001581
# 6 0.000000 0.000000 0.000000 0.000000 -0.001581 0.065951
#
#
# Mechanical properties :
#
#
# Convention : Reuss Voigt Hill
#
# Bulk Modulus (GPa) = 47.60337 52.04581 49.82459
# Shear Modulus (GPa) = 17.54707 18.23471 17.89089
#
# Velocity S-wave (km/s) = 3.36595 3.43127 3.39876
# Velocity P-wave (km/s) = 6.77069 7.02158 6.89727
#
# Compressibility (1/GPa) = 0.02100692
#
# Stress axis : x y z
#
# Youngs Moduli (GPa) = 40.54508 40.54508 66.98976
#
# Poissons Ratio (x) = 0.33700 0.44590
# Poissons Ratio (y) = 0.33700 0.44590
# Poissons Ratio (z) = 0.26988 0.26988
#
# Static dielectric constant tensor:
#      x y z
#    x 1.528580 0.000000 0.000000 
#    y 0.000000 1.528580 0.000000 
#    z 0.000000 0.000000 1.526570 
# 
# From -- ./inp_files/8634.got.cif
#   From: 2010.05.17/outbox.cif.g08.bks.cpg/sg166_5_cif.got.tgz:8634.got - 2010.05.20 11:04:41.
