data_PCOD9579816
_publ_section_title
;
Structure prediction by ZEFSAII (Michael W. Deem and Ramdas Pophale) SiO2 
 PCOD9579816
Probable space group: P 61
;
_chemical_formula_sum "Si O2"
_cell_formula_units_Z 24
_cell_length_a 9.906673
_cell_length_b 9.906673
_cell_length_c 15.652836
_cell_angle_alpha 90.000000
_cell_angle_beta 90.000000
_cell_angle_gamma 120.000000
_cell_volume 1330.391075
_symmetry_space_group_name_H-M "P 61"
_symmetry_group_IT_number 169
_symmetry_cell_setting 'hexagonal'
loop_
_space_group_symop_operation_xyz
x,y,z
x-y,x,1/6+z
-y,x-y,1/3+z
-x,-y,1/2+z
-x+y,-x,2/3+z
y,-x+y,5/6+z
loop_
_atom_site_type_symbol
_atom_site_label
_atom_site_fract_x
_atom_site_fract_y
_atom_site_fract_z
Si Si1 0.178077 0.589034 0.470770
Si Si2 0.425640 0.381848 0.649219
Si Si3 0.043783 0.618155 0.125657
Si Si4 0.128168 0.064077 0.470775
O O1 0.293787 0.770332 0.493530
O O2 0.293776 0.523434 0.448009
O O3 0.064953 0.567014 0.390294
O O4 0.064957 0.497938 0.551248
O O5 0.457024 0.457024 0.554105
O O6 0.247447 0.241558 0.647144
O O7 0.005866 0.758434 0.127737
O O8 0.026836 0.026830 0.554110
#
# Coordination Sequence:
#
# PCOD9579816 Si02
#       4
#     6   6   6   6
#     4  12  24  41  71  94 130 172 222 268 324 391
#     4  11  23  42  64  93 129 172 209 262 328 388
#     4  11  23  42  64  93 129 172 209 262 328 388
#     4  10  18  41  65  88 122 170 206 248 326 379
#
# _framework density 18.039807
#
# number of rings (size 3 to 8) (size 9 to 14) (size 15 to 20)
#    0.000    1.000   10.000    0.000    7.000    0.000 
#    0.000    5.000    0.000    0.000    0.000    0.000 
#    0.000    0.000    0.000    0.000    0.000    0.000 
#
# Total GULP energy -133759.137845 kJ/mol
# GULP energy per Si atom -5573.297410 kJ/mol
# Density = 1.799875 g / cm^3
# Si number density = 18.039807 Si / 1000 Ang^3
#
#
#
# Elastic Constant Matrix: (Units=GPa)
#
#
# Indices 1 2 3 4 5 6 
#
# 1 89.5073 31.0914 30.2342 0.0000 0.0000 0.0000
# 2 31.0914 89.5073 30.2342 0.0000 0.0000 0.0000
# 3 30.2342 30.2342 179.4653 0.0000 0.0000 0.0000
# 4 0.0000 0.0000 0.0000-1084.8285 0.0002 0.0000
# 5 0.0000 0.0000 0.0000 0.0002-1084.8287 0.0000
# 6 0.0000 0.0000 0.0000 0.0000 0.0000 29.2080
#
#
#
# Elastic Compliance Matrix: (Units=1/GPa)
#
#
# Indices 1 2 3 4 5 6 
#
# 1 0.013088 -0.004031 -0.001526 0.000000 0.000000 0.000000
# 2 -0.004031 0.013088 -0.001526 0.000000 0.000000 0.000000
# 3 -0.001526 -0.001526 0.006086 0.000000 0.000000 0.000000
# 4 0.000000 0.000000 0.000000 -0.000922 0.000000 0.000000
# 5 0.000000 0.000000 0.000000 0.000000 -0.000922 0.000000
# 6 0.000000 0.000000 0.000000 0.000000 0.000000 0.034237
#
#
# Mechanical properties :
#
#
# Convention : Reuss Voigt Hill
#
# Bulk Modulus (GPa) = 55.25790 60.17772 57.71781
# Shear Modulus (GPa) = 58.92568 -410.29516 -175.68474
#
# Velocity S-wave (km/s) = 5.72147 -15.09743 -9.87920
# Velocity P-wave (km/s) = 8.62232 16.44626 9.90290
#
# Compressibility (1/GPa) = 0.01809696
#
# Stress axis : x y z
#
# Youngs Moduli (GPa) = 76.40697 76.40697 164.30590
#
# Poissons Ratio (x) = 0.30798 0.25070
# Poissons Ratio (y) = 0.30798 0.25070
# Poissons Ratio (z) = 0.11658 0.11658
#
# Static dielectric constant tensor:
#      x y z
#    x 6.105770 0.000000 0.000000 
#    y 0.000000 6.105770 0.000000 
#    z 0.000000 0.000000 1.704020 
# 
# From -- ./inp_files/1274.got.cif
#   From: 2010.05.17/outbox.cif.g08.bks.cpg/sg169_cif.got.tgz:1274.got - 2010.05.20 11:12:54.
