data_PCOD9579573
_publ_section_title
;
Structure prediction by ZEFSAII (Michael W. Deem and Ramdas Pophale) SiO2 
 PCOD9579573
Probable space group: R -3 C 
;
_chemical_formula_sum "Si O2"
_cell_formula_units_Z 126
_cell_length_a 26.244163
_cell_length_b 26.244163
_cell_length_c 9.353749
_cell_angle_alpha 90.000000
_cell_angle_beta 90.000000
_cell_angle_gamma 120.000000
_cell_volume 5579.326751
_symmetry_space_group_name_H-M "R -3 C "
_symmetry_group_IT_number 167
_symmetry_cell_setting 'hexagonal'
loop_
_space_group_symop_operation_xyz
x,y,z
-y,x-y,z
-x+y,-x,z
x-y,-y,1/2-z
-x,-x+y,1/2-z
y,x,1/2-z
-x,-y,-z
y,-x+y,-z
x-y,x,-z
-x+y,y,1/2+z
x,x-y,1/2+z
-y,-x,1/2+z
2/3+x,1/3+y,1/3+z
2/3-y,1/3+x-y,1/3+z
2/3-x+y,1/3-x,1/3+z
2/3+x-y,1/3-y,5/6-z
2/3-x,1/3-x+y,5/6-z
2/3+y,1/3+x,5/6-z
2/3-x,1/3-y,1/3-z
2/3+y,1/3-x+y,1/3-z
2/3+x-y,1/3+x,1/3-z
2/3-x+y,1/3+y,5/6+z
2/3+x,1/3+x-y,5/6+z
2/3-y,1/3-x,5/6+z
1/3+x,2/3+y,2/3+z
1/3-y,2/3+x-y,2/3+z
1/3-x+y,2/3-x,2/3+z
1/3+x-y,2/3-y,1/6-z
1/3-x,2/3-x+y,1/6-z
1/3+y,2/3+x,1/6-z
1/3-x,2/3-y,2/3-z
1/3+y,2/3-x+y,2/3-z
1/3+x-y,2/3+x,2/3-z
1/3-x+y,2/3+y,1/6+z
1/3+x,2/3+x-y,1/6+z
1/3-y,2/3-x,1/6+z
loop_
_atom_site_type_symbol
_atom_site_label
_atom_site_fract_x
_atom_site_fract_y
_atom_site_fract_z
Si Si1 0.830083 0.304129 0.793264
Si Si2 0.236691 0.777692 0.984775
Si Si3 0.867705 0.666667 0.916667
Si Si4 0.650722 0.052007 0.424353
O O1 0.789624 0.253332 0.681087
O O2 0.797670 0.286259 0.945183
O O3 0.844835 0.366556 0.729863
O O4 0.894431 0.311668 0.815470
O O5 0.199476 0.809457 0.027419
O O6 0.893406 0.643238 0.791102
O O7 0.670517 0.003850 0.416667
O O8 0.666667 0.077778 0.583334
#
# Coordination Sequence:
#
# PCOD9579573 Si02
#       4
#    36  36  18  36
#     4  10  24  39  60  86 119 154 204 252 306 353
#     4  10  23  41  59  88 120 158 200 253 300 361
#     4  10  22  36  54  84 124 156 202 250 284 354
#     4  11  21  35  57  83 120 168 204 245 293 353
#
# _framework density 22.583369999999999
#
# number of rings (size 3 to 8) (size 9 to 14) (size 15 to 20)
#    0.000    1.714    1.429    1.714   14.000    1.143 
#    0.000    0.000    0.000    0.571    0.000    0.000 
#    0.000    0.000    0.000    0.000    0.000    0.000 
#
# Total GULP energy -234840.783305 kJ/mol
# GULP energy per Si atom -5591.447222 kJ/mol
# Density = 2.253197 g / cm^3
# Si number density = 22.583370 Si / 1000 Ang^3
#
#
#
# Elastic Constant Matrix: (Units=GPa)
#
#
# Indices 1 2 3 4 5 6 
#
# 1 31.7740 8.1270 23.6167 4.6907 0.0001 0.0002
# 2 8.1270 31.7717 23.6182 -4.6920 0.0036 -0.0002
# 3 23.6167 23.6182 113.5049 -0.0014 -0.0045 0.0009
# 4 4.6907 -4.6920 -0.0014 36.0076 -0.0009 0.0003
# 5 0.0001 0.0036 -0.0045 -0.0009 36.0045 4.6920
# 6 0.0002 -0.0002 0.0009 0.0003 4.6920 11.8244
#
#
#
# Elastic Compliance Matrix: (Units=1/GPa)
#
#
# Indices 1 2 3 4 5 6 
#
# 1 0.038923 -0.005671 -0.006919 -0.005810 -0.000001 0.000000
# 2 -0.005671 0.038927 -0.006920 0.005811 -0.000005 0.000003
# 3 -0.006919 -0.006920 0.011690 0.000000 0.000002 -0.000002
# 4 -0.005810 0.005811 0.000000 0.029286 0.000000 -0.000001
# 5 -0.000001 -0.000005 0.000002 0.000000 0.029289 -0.011622
# 6 0.000000 0.000003 -0.000002 -0.000001 -0.011622 0.089182
#
#
# Mechanical properties :
#
#
# Convention : Reuss Voigt Hill
#
# Bulk Modulus (GPa) = 19.79390 31.97494 25.88442
# Shear Modulus (GPa) = 17.05573 24.87990 20.96781
#
# Velocity S-wave (km/s) = 2.75113 3.32277 3.05037
# Velocity P-wave (km/s) = 4.34459 5.37684 4.88804
#
# Compressibility (1/GPa) = 0.05052062
#
# Stress axis : x y z
#
# Youngs Moduli (GPa) = 25.69180 25.68881 85.54568
#
# Poissons Ratio (x) = 0.14568 0.59186
# Poissons Ratio (y) = 0.14570 0.59198
# Poissons Ratio (z) = 0.17775 0.17777
#
# Static dielectric constant tensor:
#      x y z
#    x 1.816480 0.000000 -0.000010 
#    y 0.000000 1.816490 0.000000 
#    z -0.000010 0.000000 1.911220 
# 
# From -- ./inp_files/650.got.cif
#   From: 2010.05.17/outbox.cif.g08.bks.cpg/sg167_1_cif.got.tgz:650.got - 2010.05.20 11:09:15.
