data_PCOD9579437
_publ_section_title
;
Structure prediction by ZEFSAII (Michael W. Deem and Ramdas Pophale) SiO2 
 PCOD9579437
Probable space group: R -3 C 
;
_chemical_formula_sum "Si O2"
_cell_formula_units_Z 144
_cell_length_a 22.131268
_cell_length_b 22.131268
_cell_length_c 17.461850
_cell_angle_alpha 90.000000
_cell_angle_beta 90.000000
_cell_angle_gamma 120.000000
_cell_volume 7406.848806
_symmetry_space_group_name_H-M "R -3 C "
_symmetry_group_IT_number 167
_symmetry_cell_setting 'hexagonal'
loop_
_space_group_symop_operation_xyz
x,y,z
-y,x-y,z
-x+y,-x,z
x-y,-y,1/2-z
-x,-x+y,1/2-z
y,x,1/2-z
-x,-y,-z
y,-x+y,-z
x-y,x,-z
-x+y,y,1/2+z
x,x-y,1/2+z
-y,-x,1/2+z
2/3+x,1/3+y,1/3+z
2/3-y,1/3+x-y,1/3+z
2/3-x+y,1/3-x,1/3+z
2/3+x-y,1/3-y,5/6-z
2/3-x,1/3-x+y,5/6-z
2/3+y,1/3+x,5/6-z
2/3-x,1/3-y,1/3-z
2/3+y,1/3-x+y,1/3-z
2/3+x-y,1/3+x,1/3-z
2/3-x+y,1/3+y,5/6+z
2/3+x,1/3+x-y,5/6+z
2/3-y,1/3-x,5/6+z
1/3+x,2/3+y,2/3+z
1/3-y,2/3+x-y,2/3+z
1/3-x+y,2/3-x,2/3+z
1/3+x-y,2/3-y,1/6-z
1/3-x,2/3-x+y,1/6-z
1/3+y,2/3+x,1/6-z
1/3-x,2/3-y,2/3-z
1/3+y,2/3-x+y,2/3-z
1/3+x-y,2/3+x,2/3-z
1/3-x+y,2/3+y,1/6+z
1/3+x,2/3+x-y,1/6+z
1/3-y,2/3-x,1/6+z
loop_
_atom_site_type_symbol
_atom_site_label
_atom_site_fract_x
_atom_site_fract_y
_atom_site_fract_z
Si Si1 0.413076 0.922867 0.944097
Si Si2 0.586415 0.502972 0.926388
Si Si3 0.379341 0.538840 0.848817
Si Si4 0.148961 0.101039 0.967390
O O1 0.333334 0.874736 0.916667
O O2 0.461658 0.905406 0.889781
O O3 0.437524 0.003814 0.935299
O O4 0.435204 0.910601 0.028900
O O5 0.597155 0.487275 0.838821
O O6 0.658443 0.522043 0.969507
O O7 0.333334 0.545304 0.916667
O O8 0.413765 0.599477 0.786725
O O9 0.094361 0.125609 0.984088
#
# Coordination Sequence:
#
# PCOD9579437 Si02
#       4
#    36  36  36  36
#     4  10  19  36  59  80 110 151 193 242 293 357
#     4   9  20  36  53  82 115 148 188 245 296 346
#     4   9  19  36  57  80 114 153 191 245 302 351
#     4  10  19  34  54  80 113 151 191 244 296 355
#
# _framework density 19.441466999999999
#
# number of rings (size 3 to 8) (size 9 to 14) (size 15 to 20)
#    0.000    2.500    0.000    1.750    0.000    1.000 
#    9.000    0.000    5.500   13.500    0.000    0.000 
#    0.000    0.000    0.000    0.000    0.000    0.000 
#
# Total GULP energy -267425.996528 kJ/mol
# GULP energy per Si atom -5571.374928 kJ/mol
# Density = 1.939722 g / cm^3
# Si number density = 19.441467 Si / 1000 Ang^3
#
#
#
# Elastic Constant Matrix: (Units=GPa)
#
#
# Indices 1 2 3 4 5 6 
#
# 1 56.1059 14.4413 5.8360 2.9172 -0.0005 0.0000
# 2 14.4413 56.1059 5.8360 -2.9172 0.0005 0.0000
# 3 5.8360 5.8360 90.2575 0.0000 0.0000 0.0000
# 4 2.9172 -2.9172 0.0000 3.2491 0.0000 0.0005
# 5 -0.0005 0.0005 0.0000 0.0000 3.2491 2.9172
# 6 0.0000 0.0000 0.0000 0.0005 2.9172 20.8323
#
#
#
# Elastic Compliance Matrix: (Units=1/GPa)
#
#
# Indices 1 2 3 4 5 6 
#
# 1 0.020890 -0.006562 -0.000926 -0.024648 0.000004 0.000000
# 2 -0.006562 0.020890 -0.000926 0.024648 -0.000004 0.000000
# 3 -0.000926 -0.000926 0.011199 0.000000 0.000000 0.000000
# 4 -0.024648 0.024648 0.000000 0.352043 0.000000 -0.000008
# 5 0.000004 -0.000004 0.000000 0.000000 0.352043 -0.049297
# 6 0.000000 0.000000 0.000000 -0.000008 -0.049297 0.054905
#
#
# Mechanical properties :
#
#
# Convention : Reuss Voigt Hill
#
# Bulk Modulus (GPa) = 27.66270 28.29956 27.98113
# Shear Modulus (GPa) = 5.94636 17.22316 11.58476
#
# Velocity S-wave (km/s) = 1.75078 2.97963 2.44371
# Velocity P-wave (km/s) = 4.28329 5.14057 4.73139
#
# Compressibility (1/GPa) = 0.03614977
#
# Stress axis : x y z
#
# Youngs Moduli (GPa) = 47.86875 47.86875 89.29194
#
# Poissons Ratio (x) = 0.31413 0.08272
# Poissons Ratio (y) = 0.31413 0.08272
# Poissons Ratio (z) = 0.04435 0.04435
#
# Static dielectric constant tensor:
#      x y z
#    x 1.663770 0.000000 0.000000 
#    y 0.000000 1.663770 0.000000 
#    z 0.000000 0.000000 1.750920 
# 
# From -- ./inp_files/3282.got.cif
#   From: 2010.05.17/outbox.cif.g08.bks.cpg/sg167_2_cif.got.tgz:3282.got - 2010.05.20 11:09:15.
