data_PCOD9579487
_publ_section_title
;
Structure prediction by ZEFSAII (Michael W. Deem and Ramdas Pophale) SiO2 
 PCOD9579487
Probable space group: R -3 C 
;
_chemical_formula_sum "Si O2"
_cell_formula_units_Z 162
_cell_length_a 20.216600
_cell_length_b 20.216600
_cell_length_c 21.403013
_cell_angle_alpha 90.000000
_cell_angle_beta 90.000000
_cell_angle_gamma 120.000000
_cell_volume 7575.682827
_symmetry_space_group_name_H-M "R -3 C "
_symmetry_group_IT_number 167
_symmetry_cell_setting 'hexagonal'
loop_
_space_group_symop_operation_xyz
x,y,z
-y,x-y,z
-x+y,-x,z
x-y,-y,1/2-z
-x,-x+y,1/2-z
y,x,1/2-z
-x,-y,-z
y,-x+y,-z
x-y,x,-z
-x+y,y,1/2+z
x,x-y,1/2+z
-y,-x,1/2+z
2/3+x,1/3+y,1/3+z
2/3-y,1/3+x-y,1/3+z
2/3-x+y,1/3-x,1/3+z
2/3+x-y,1/3-y,5/6-z
2/3-x,1/3-x+y,5/6-z
2/3+y,1/3+x,5/6-z
2/3-x,1/3-y,1/3-z
2/3+y,1/3-x+y,1/3-z
2/3+x-y,1/3+x,1/3-z
2/3-x+y,1/3+y,5/6+z
2/3+x,1/3+x-y,5/6+z
2/3-y,1/3-x,5/6+z
1/3+x,2/3+y,2/3+z
1/3-y,2/3+x-y,2/3+z
1/3-x+y,2/3-x,2/3+z
1/3+x-y,2/3-y,1/6-z
1/3-x,2/3-x+y,1/6-z
1/3+y,2/3+x,1/6-z
1/3-x,2/3-y,2/3-z
1/3+y,2/3-x+y,2/3-z
1/3+x-y,2/3+x,2/3-z
1/3-x+y,2/3+y,1/6+z
1/3+x,2/3+x-y,1/6+z
1/3-y,2/3-x,1/6+z
loop_
_atom_site_type_symbol
_atom_site_label
_atom_site_fract_x
_atom_site_fract_y
_atom_site_fract_z
Si Si1 0.171497 0.131130 0.061872
Si Si2 0.446413 0.257726 0.049423
Si Si3 0.752808 0.648388 0.196053
Si Si4 0.424050 0.090717 0.083334
Si Si5 0.795873 0.292770 0.409942
O O1 0.230839 0.190530 0.109534
O O2 0.091577 0.129171 0.068159
O O3 0.158039 0.048713 0.079510
O O4 0.206256 0.155109 0.992117
O O5 0.516585 0.333334 0.083334
O O6 0.373265 0.256771 0.080021
O O7 0.439279 0.175575 0.064320
O O8 0.451974 0.269419 0.974881
O O9 0.833334 0.666667 0.166667
O O10 0.699349 0.640011 0.137827
#
# Coordination Sequence:
#
# PCOD9579487 Si02
#       5
#    36  36  36  18  36
#     4  10  20  38  63  92 134 174 212 276 344 399
#     4  11  23  39  63 100 129 166 225 274 331 405
#     4  10  21  39  61  87 129 178 215 267 334 399
#     4  10  20  42  66  86 128 178 214 270 342 394
#     4  10  20  36  63  97 130 170 221 275 334 408
#
# _framework density 21.384211000000001
#
# number of rings (size 3 to 8) (size 9 to 14) (size 15 to 20)
#    0.000    1.778    2.222    3.111    0.000    2.667 
#    0.667   11.111    0.000    0.000    0.000    0.000 
#    0.000    0.000    0.000    0.000    0.000    0.000 
#
# Total GULP energy -300766.005095 kJ/mol
# GULP energy per Si atom -5569.740835 kJ/mol
# Density = 2.133554 g / cm^3
# Si number density = 21.384211 Si / 1000 Ang^3
#
#
#
# Elastic Constant Matrix: (Units=GPa)
#
#
# Indices 1 2 3 4 5 6 
#
# 1 40.0933 18.0345 37.4579 -6.5839 -0.0002 0.0000
# 2 18.0345 40.0933 37.4579 6.5839 0.0002 0.0000
# 3 37.4579 37.4579 180.2291 0.0000 0.0000 0.0000
# 4 -6.5839 6.5839 0.0000 34.0597 0.0000 0.0002
# 5 -0.0002 0.0002 0.0000 0.0000 34.0597 -6.5839
# 6 0.0000 0.0000 0.0000 0.0002 -6.5839 11.0294
#
#
#
# Elastic Compliance Matrix: (Units=1/GPa)
#
#
# Indices 1 2 3 4 5 6 
#
# 1 0.037372 -0.013875 -0.004884 0.009906 0.000000 0.000000
# 2 -0.013875 0.037372 -0.004884 -0.009906 0.000000 0.000000
# 3 -0.004884 -0.004884 0.007578 0.000000 0.000000 0.000000
# 4 0.009906 -0.009906 0.000000 0.033190 0.000000 -0.000001
# 5 0.000000 0.000000 0.000000 0.000000 0.033190 0.019813
# 6 0.000000 0.000000 0.000000 -0.000001 0.019813 0.102494
#
#
# Mechanical properties :
#
#
# Convention : Reuss Voigt Hill
#
# Bulk Modulus (GPa) = 28.53952 49.59070 39.06511
# Shear Modulus (GPa) = 16.12070 26.99411 21.55741
#
# Velocity S-wave (km/s) = 2.74863 3.55679 3.17850
# Velocity P-wave (km/s) = 4.84235 6.33312 5.63723
#
# Compressibility (1/GPa) = 0.03503914
#
# Stress axis : x y z
#
# Youngs Moduli (GPa) = 26.75786 26.75786 131.95278
#
# Poissons Ratio (x) = 0.37126 0.64441
# Poissons Ratio (y) = 0.37126 0.64441
# Poissons Ratio (z) = 0.13068 0.13068
#
# Static dielectric constant tensor:
#      x y z
#    x 1.786020 0.000000 0.000000 
#    y 0.000000 1.786020 0.000000 
#    z 0.000000 0.000000 1.779280 
# 
# From -- ./inp_files/4438.got.cif
#   From: 2010.05.17/outbox.cif.g08.bks.cpg/sg167_3_cif.got.tgz:4438.got - 2010.05.20 11:09:15.
