data_PCOD9579813
_publ_section_title
;
Structure prediction by ZEFSAII (Michael W. Deem and Ramdas Pophale) SiO2 
 PCOD9579813
Probable space group: P 61
;
_chemical_formula_sum "Si O2"
_cell_formula_units_Z 48
_cell_length_a 11.282474
_cell_length_b 11.282474
_cell_length_c 22.288070
_cell_angle_alpha 90.000000
_cell_angle_beta 90.000000
_cell_angle_gamma 120.000000
_cell_volume 2457.037459
_symmetry_space_group_name_H-M "P 61"
_symmetry_group_IT_number 169
_symmetry_cell_setting 'hexagonal'
loop_
_space_group_symop_operation_xyz
x,y,z
x-y,x,1/6+z
-y,x-y,1/3+z
-x,-y,1/2+z
-x+y,-x,2/3+z
y,-x+y,5/6+z
loop_
_atom_site_type_symbol
_atom_site_label
_atom_site_fract_x
_atom_site_fract_y
_atom_site_fract_z
Si Si1 0.034025 0.412957 0.334400
Si Si2 0.119600 0.658286 0.144786
Si Si3 0.143677 0.423659 0.968889
Si Si4 0.418803 0.316727 0.387652
Si Si5 0.602052 0.256384 0.573194
Si Si6 0.441886 0.149067 0.692144
Si Si7 0.486380 0.088130 0.873015
Si Si8 0.693149 0.570913 0.785706
O O1 0.117822 0.556898 0.370463
O O2 0.158779 0.394294 0.309458
O O3 0.950213 0.406737 0.275895
O O4 0.929750 0.311631 0.384678
O O5 0.181505 0.760734 0.201203
O O6 0.241695 0.685646 0.098131
O O7 0.999699 0.665735 0.108152
O O8 0.046528 0.506529 0.171516
O O9 0.425912 0.641080 0.034859
O O10 0.249690 0.406788 0.010737
O O11 0.999072 0.336709 0.000430
O O12 0.169778 0.579420 0.961031
O O13 0.576007 0.438686 0.394664
O O14 0.363813 0.353480 0.327771
O O15 0.517156 0.233074 0.633528
O O16 0.383072 0.218526 0.735698
#
# Coordination Sequence:
#
# PCOD9579813 Si02
#       8
#     6   6   6   6   6   6   6   6
#     4  12  24  38  63  98 133 172 209 272 325 391
#     4  11  22  38  63  93 128 164 210 263 329 374
#     4  11  21  38  61  94 132 170 212 267 333 387
#     4  10  18  37  60  91 122 168 201 261 323 380
#     4  11  22  42  62  96 132 163 217 264 334 379
#     4  10  21  36  65  87 128 169 206 263 326 385
#     4  12  27  33  62  98 131 166 218 273 322 394
#     4  11  21  42  64  95 134 170 213 265 336 386
#
# _framework density 19.535722
#
# number of rings (size 3 to 8) (size 9 to 14) (size 15 to 20)
#    0.000    1.000    7.500    1.500    7.000    0.000 
#    0.000    0.000    0.000    0.000   19.500    0.000 
#    0.000    0.000    0.000    0.000    0.000    0.000 
#
# Total GULP energy -267751.542172 kJ/mol
# GULP energy per Si atom -5578.157129 kJ/mol
# Density = 1.949126 g / cm^3
# Si number density = 19.535722 Si / 1000 Ang^3
#
#
#
# Elastic Constant Matrix: (Units=GPa)
#
#
# Indices 1 2 3 4 5 6 
#
# 1 75.7059 28.9952 24.7663 0.0000 0.0000 0.0000
# 2 28.9952 75.7059 24.7663 0.0000 0.0000 0.0000
# 3 24.7663 24.7663 97.9862 0.0000 0.0000 0.0000
# 4 0.0000 0.0000 0.0000 31.5842 0.0000 0.0000
# 5 0.0000 0.0000 0.0000 0.0000 31.5842 0.0000
# 6 0.0000 0.0000 0.0000 0.0000 0.0000 23.3554
#
#
#
# Elastic Compliance Matrix: (Units=1/GPa)
#
#
# Indices 1 2 3 4 5 6 
#
# 1 0.016128 -0.005280 -0.002742 0.000000 0.000000 0.000000
# 2 -0.005280 0.016128 -0.002742 0.000000 0.000000 0.000000
# 3 -0.002742 -0.002742 0.011592 0.000000 0.000000 0.000000
# 4 0.000000 0.000000 0.000000 0.031661 0.000000 0.000000
# 5 0.000000 0.000000 0.000000 0.000000 0.031661 0.000000
# 6 0.000000 0.000000 0.000000 0.000000 0.000000 0.042817
#
#
# Mechanical properties :
#
#
# Convention : Reuss Voigt Hill
#
# Bulk Modulus (GPa) = 44.80235 45.16152 44.98194
# Shear Modulus (GPa) = 27.93992 28.69611 28.31802
#
# Velocity S-wave (km/s) = 3.78590 3.83679 3.81143
# Velocity P-wave (km/s) = 6.48799 6.54183 6.51496
#
# Compressibility (1/GPa) = 0.02232026
#
# Stress axis : x y z
#
# Youngs Moduli (GPa) = 62.00302 62.00302 86.26961
#
# Poissons Ratio (x) = 0.32738 0.23654
# Poissons Ratio (y) = 0.32738 0.23654
# Poissons Ratio (z) = 0.17001 0.17001
#
# Static dielectric constant tensor:
#      x y z
#    x 1.699090 0.000000 0.000000 
#    y 0.000000 1.699090 0.000000 
#    z 0.000000 0.000000 1.747270 
# 
# From -- ./inp_files/1566.got.cif
#   From: 2010.05.17/outbox.cif.g08.bks.cpg/sg169_cif.got.tgz:1566.got - 2010.05.20 11:12:54.
