data_PCOD9579250
_publ_section_title
;
Structure prediction by ZEFSAII (Michael W. Deem and Ramdas Pophale) SiO2 
 PCOD9579250
Probable space group: R -3 M
;
_chemical_formula_sum "Si O2"
_cell_formula_units_Z 234
_cell_length_a 26.819425
_cell_length_b 26.819425
_cell_length_c 20.386426
_cell_angle_alpha 90.000000
_cell_angle_beta 90.000000
_cell_angle_gamma 120.000000
_cell_volume 12699.033000
_symmetry_space_group_name_H-M "R -3 M"
_symmetry_group_IT_number 166
_symmetry_cell_setting 'hexagonal'
loop_
_space_group_symop_operation_xyz
x,y,z
-y,x-y,z
-x+y,-x,z
x-y,-y,-z
-x,-x+y,-z
y,x,-z
-x,-y,-z
y,-x+y,-z
x-y,x,-z
-x+y,y,z
x,x-y,z
-y,-x,z
2/3+x,1/3+y,1/3+z
2/3-y,1/3+x-y,1/3+z
2/3-x+y,1/3-x,1/3+z
2/3+x-y,1/3-y,1/3-z
2/3-x,1/3-x+y,1/3-z
2/3+y,1/3+x,1/3-z
2/3-x,1/3-y,1/3-z
2/3+y,1/3-x+y,1/3-z
2/3+x-y,1/3+x,1/3-z
2/3-x+y,1/3+y,1/3+z
2/3+x,1/3+x-y,1/3+z
2/3-y,1/3-x,1/3+z
1/3+x,2/3+y,2/3+z
1/3-y,2/3+x-y,2/3+z
1/3-x+y,2/3-x,2/3+z
1/3+x-y,2/3-y,2/3-z
1/3-x,2/3-x+y,2/3-z
1/3+y,2/3+x,2/3-z
1/3-x,2/3-y,2/3-z
1/3+y,2/3-x+y,2/3-z
1/3+x-y,2/3+x,2/3-z
1/3-x+y,2/3+y,2/3+z
1/3+x,2/3+x-y,2/3+z
1/3-y,2/3-x,2/3+z
loop_
_atom_site_type_symbol
_atom_site_label
_atom_site_fract_x
_atom_site_fract_y
_atom_site_fract_z
Si Si1 0.354472 0.119894 0.276948
Si Si2 0.666667 0.447704 0.833334
Si Si3 0.901767 0.571449 0.056785
Si Si4 0.719930 0.165290 0.738954
Si Si5 0.777501 0.103814 0.804234
Si Si6 0.543732 0.829783 0.816590
Si Si7 0.912428 0.514988 0.256962
O O1 0.333588 0.166794 0.284458
O O2 0.302505 0.055885 0.281879
O O3 0.390411 0.134990 0.209763
O O4 0.399136 0.132217 0.336124
O O5 0.720423 0.440845 0.853452
O O6 0.687423 0.494146 0.775527
O O7 0.956108 0.569449 0.086663
O O8 0.850124 0.541147 0.110027
O O9 0.888953 0.539865 0.987603
O O10 0.781867 0.218134 0.715601
O O11 0.735226 0.128684 0.790189
O O12 0.841844 0.158157 0.794701
O O13 0.778047 0.077147 0.875001
O O14 0.525670 0.762835 0.811488
O O15 0.513989 0.855562 0.769385
O O16 0.902678 0.451339 0.250651
#
# Coordination Sequence:
#
# PCOD9579250 Si02
#       7
#    36  18  36  36  36  36  36
#     4  10  21  36  53  77 111 145 183 230 276 328
#     4  10  23  42  62  82 108 144 189 244 300 352
#     4  11  21  33  54  81 111 152 186 223 271 328
#     4  10  22  38  57  82 112 145 186 232 281 336
#     4   9  19  36  54  78 113 148 181 221 273 332
#     4  10  21  37  54  76 110 149 185 224 273 332
#     4   9  19  35  57  81 106 142 184 227 274 329
#
# _framework density 18.426600000000001
#
# number of rings (size 3 to 8) (size 9 to 14) (size 15 to 20)
#    0.000    2.154    0.000    2.385    2.154    6.769 
#    2.769    0.000    0.000    0.308    0.000    1.077 
#    0.000    3.692    0.000    0.000    0.000    0.000 
#
# Total GULP energy -435250.852532 kJ/mol
# GULP energy per Si atom -5580.139135 kJ/mol
# Density = 1.838466 g / cm^3
# Si number density = 18.426600 Si / 1000 Ang^3
#
#
#
# Elastic Constant Matrix: (Units=GPa)
#
#
# Indices 1 2 3 4 5 6 
#
# 1 72.1843 26.8750 15.7705 0.3514 -0.0002 0.0000
# 2 26.8750 72.1843 15.7705 -0.3514 0.0002 0.0000
# 3 15.7705 15.7705 47.8554 0.0000 0.0000 0.0000
# 4 0.3514 -0.3514 0.0000 21.2936 0.0000 0.0002
# 5 -0.0002 0.0002 0.0000 0.0000 21.2936 0.3514
# 6 0.0000 0.0000 0.0000 0.0002 0.3514 22.6546
#
#
#
# Elastic Compliance Matrix: (Units=1/GPa)
#
#
# Indices 1 2 3 4 5 6 
#
# 1 0.016677 -0.005399 -0.003717 -0.000364 0.000000 0.000000
# 2 -0.005399 0.016677 -0.003717 0.000364 0.000000 0.000000
# 3 -0.003717 -0.003717 0.023346 0.000000 0.000000 0.000000
# 4 -0.000364 0.000364 0.000000 0.046974 0.000000 0.000000
# 5 0.000000 0.000000 0.000000 0.000000 0.046974 -0.000729
# 6 0.000000 0.000000 0.000000 0.000000 -0.000729 0.044152
#
#
# Mechanical properties :
#
#
# Convention : Reuss Voigt Hill
#
# Bulk Modulus (GPa) = 32.22085 34.33954 33.28020
# Shear Modulus (GPa) = 21.66266 21.96890 21.81578
#
# Velocity S-wave (km/s) = 3.43245 3.45663 3.44456
# Velocity P-wave (km/s) = 5.76480 5.88280 5.82410
#
# Compressibility (1/GPa) = 0.03103580
#
# Stress axis : x y z
#
# Youngs Moduli (GPa) = 59.96174 59.96174 42.83394
#
# Poissons Ratio (x) = 0.32373 0.15920
# Poissons Ratio (y) = 0.32373 0.15920
# Poissons Ratio (z) = 0.22286 0.22286
#
# Static dielectric constant tensor:
#      x y z
#    x 1.633350 0.000000 0.000000 
#    y 0.000000 1.633350 0.000000 
#    z 0.000000 0.000000 1.653000 
# 
# From -- ./inp_files/7245.got.cif
#   From: 2010.05.17/outbox.cif.g08.bks.cpg/sg166_4_cif.got.tgz:7245.got - 2010.05.20 11:04:41.
