data_PCOD9579750
_publ_section_title
;
Structure prediction by ZEFSAII (Michael W. Deem and Ramdas Pophale) SiO2 
 PCOD9579750
Probable space group: P 6
;
_chemical_formula_sum "Si O2"
_cell_formula_units_Z 48
_cell_length_a 18.319102
_cell_length_b 18.319102
_cell_length_c 10.581564
_cell_angle_alpha 90.000000
_cell_angle_beta 90.000000
_cell_angle_gamma 120.000000
_cell_volume 3075.309687
_symmetry_space_group_name_H-M "P 6"
_symmetry_group_IT_number 168
_symmetry_cell_setting 'hexagonal'
loop_
_space_group_symop_operation_xyz
x,y,z
x-y,x,z
-y,x-y,z
-x,-y,z
-x+y,-x,z
y,-x+y,z
loop_
_atom_site_type_symbol
_atom_site_label
_atom_site_fract_x
_atom_site_fract_y
_atom_site_fract_z
Si Si1 0.532338 0.634719 0.725680
Si Si2 0.165891 0.497172 0.177113
Si Si3 0.897619 0.365282 0.725682
Si Si4 0.096499 0.636670 0.449373
Si Si5 0.638001 0.902086 0.961088
Si Si6 0.097914 0.361999 0.961086
Si Si7 0.363330 0.903502 0.449371
Si Si8 0.834108 0.331280 0.177116
O O1 0.580263 0.580263 0.717924
O O2 0.434168 0.565833 0.748832
O O3 0.576550 0.698305 0.839661
O O4 0.544609 0.675685 0.586970
O O5 0.145516 0.466456 0.322066
O O6 0.148550 0.574275 0.159894
O O7 0.263080 0.526160 0.151399
O O8 0.111517 0.421005 0.082202
O O9 0.868923 0.324315 0.586973
O O10 0.878246 0.301697 0.839665
O O11 0.094024 0.547012 0.455815
O O12 0.145519 0.679061 0.322069
O O13 0.000001 0.614332 0.436223
O O14 0.669695 0.834848 0.970148
O O15 0.291530 0.000000 0.951303
O O16 0.578997 0.888483 0.082207
#
# Coordination Sequence:
#
# PCOD9579750 Si02
#       8
#     6   6   6   6   6   6   6   6
#     4   8  14  26  44  65  88 114 145 178 210 246
#     4  10  19  29  42  62  90 122 153 183 214 248
#     4   8  14  26  44  65  88 114 145 178 210 246
#     4   8  14  25  41  60  83 114 151 185 212 241
#     4  10  20  32  47  66  86 110 141 180 223 265
#     4  10  20  32  47  66  86 110 141 180 223 265
#     4   8  14  25  41  60  83 114 151 185 212 241
#     4  10  19  29  42  62  90 122 153 183 214 248
#
# _framework density 15.608183
#
# number of rings (size 3 to 8) (size 9 to 14) (size 15 to 20)
#    0.000    3.000    0.000    3.250    0.000    3.500 
#    0.000    0.000    0.000    0.750    0.000    0.000 
#    0.000    0.000    0.000    0.000    0.000   32.500 
#
# Total GULP energy -267206.406870 kJ/mol
# GULP energy per Si atom -5566.800143 kJ/mol
# Density = 1.557266 g / cm^3
# Si number density = 15.608183 Si / 1000 Ang^3
#
#
#
# Elastic Constant Matrix: (Units=GPa)
#
#
# Indices 1 2 3 4 5 6 
#
# 1 60.1377 37.1404 28.0819 0.0000 0.0000 0.0000
# 2 37.1404 60.1377 28.0819 0.0000 0.0000 0.0000
# 3 28.0819 28.0819 105.0765 0.0000 0.0000 0.0000
# 4 0.0000 0.0000 0.0000 4.7209 0.0000 0.0000
# 5 0.0000 0.0000 0.0000 0.0000 4.7209 0.0000
# 6 0.0000 0.0000 0.0000 0.0000 0.0000 11.4986
#
#
#
# Elastic Compliance Matrix: (Units=1/GPa)
#
#
# Indices 1 2 3 4 5 6 
#
# 1 0.027819 -0.015664 -0.003249 0.000000 0.000000 0.000000
# 2 -0.015664 0.027819 -0.003249 0.000000 0.000000 0.000000
# 3 -0.003249 -0.003249 0.011253 0.000000 0.000000 0.000000
# 4 0.000000 0.000000 0.000000 0.211824 0.000000 0.000000
# 5 0.000000 0.000000 0.000000 0.000000 0.211824 0.000000
# 6 0.000000 0.000000 0.000000 0.000000 0.000000 0.086967
#
#
# Mechanical properties :
#
#
# Convention : Reuss Voigt Hill
#
# Bulk Modulus (GPa) = 44.30702 45.77336 45.04019
# Shear Modulus (GPa) = 7.94467 12.99126 10.46797
#
# Velocity S-wave (km/s) = 2.25857 2.88815 2.59254
# Velocity P-wave (km/s) = 5.93718 6.36491 6.15476
#
# Compressibility (1/GPa) = 0.02256979
#
# Stress axis : x y z
#
# Youngs Moduli (GPa) = 35.94609 35.94609 88.86334
#
# Poissons Ratio (x) = 0.56306 0.28868
# Poissons Ratio (y) = 0.56306 0.28868
# Poissons Ratio (z) = 0.11677 0.11677
#
# Static dielectric constant tensor:
#      x y z
#    x 1.509900 0.000000 0.000000 
#    y 0.000000 1.509900 0.000000 
#    z 0.000000 0.000000 1.561200 
# 
# From -- ./inp_files/429.got.cif
#   From: 2010.05.17/outbox.cif.g08.bks.cpg/sg168_cif.got.tgz:429.got - 2010.05.20 11:12:33.
