data_PCOD9579676
_publ_section_title
;
Structure prediction by ZEFSAII (Michael W. Deem and Ramdas Pophale) SiO2 
 PCOD9579676
Probable space group: R -3 C 
;
_chemical_formula_sum "Si O2"
_cell_formula_units_Z 108
_cell_length_a 23.440149
_cell_length_b 23.440149
_cell_length_c 9.881356
_cell_angle_alpha 90.000000
_cell_angle_beta 90.000000
_cell_angle_gamma 120.000000
_cell_volume 4701.840730
_symmetry_space_group_name_H-M "R -3 C "
_symmetry_group_IT_number 167
_symmetry_cell_setting 'hexagonal'
loop_
_space_group_symop_operation_xyz
x,y,z
-y,x-y,z
-x+y,-x,z
x-y,-y,1/2-z
-x,-x+y,1/2-z
y,x,1/2-z
-x,-y,-z
y,-x+y,-z
x-y,x,-z
-x+y,y,1/2+z
x,x-y,1/2+z
-y,-x,1/2+z
2/3+x,1/3+y,1/3+z
2/3-y,1/3+x-y,1/3+z
2/3-x+y,1/3-x,1/3+z
2/3+x-y,1/3-y,5/6-z
2/3-x,1/3-x+y,5/6-z
2/3+y,1/3+x,5/6-z
2/3-x,1/3-y,1/3-z
2/3+y,1/3-x+y,1/3-z
2/3+x-y,1/3+x,1/3-z
2/3-x+y,1/3+y,5/6+z
2/3+x,1/3+x-y,5/6+z
2/3-y,1/3-x,5/6+z
1/3+x,2/3+y,2/3+z
1/3-y,2/3+x-y,2/3+z
1/3-x+y,2/3-x,2/3+z
1/3+x-y,2/3-y,1/6-z
1/3-x,2/3-x+y,1/6-z
1/3+y,2/3+x,1/6-z
1/3-x,2/3-y,2/3-z
1/3+y,2/3-x+y,2/3-z
1/3+x-y,2/3+x,2/3-z
1/3-x+y,2/3+y,1/6+z
1/3+x,2/3+x-y,1/6+z
1/3-y,2/3-x,1/6+z
loop_
_atom_site_type_symbol
_atom_site_label
_atom_site_fract_x
_atom_site_fract_y
_atom_site_fract_z
Si Si1 0.000000 0.398448 0.250000
Si Si2 0.666666 0.464771 0.333333
Si Si3 0.544493 0.666667 0.916667
Si Si4 0.601551 0.000000 0.250000
Si Si5 0.455507 0.333334 0.583334
O O1 0.952516 0.333333 0.333333
O O2 0.947382 0.395030 0.139741
O O3 0.728653 0.457306 0.373378
O O4 0.646958 0.494534 0.459234
O O5 0.686375 0.514242 0.207433
O O6 0.552351 0.604970 0.860259
#
# Coordination Sequence:
#
# PCOD9579676 Si02
#       5
#    18  36  18  18  18
#     4   9  18  38  71 101 143 184 207 258 361 420
#     4  12  27  48  70  96 136 188 247 300 340 386
#     4  11  22  42  73 107 136 184 224 284 347 430
#     4   9  18  38  71 101 143 184 207 258 361 420
#     4  11  22  42  73 107 136 184 224 284 347 430
#
# _framework density 22.969728
#
# number of rings (size 3 to 8) (size 9 to 14) (size 15 to 20)
#    0.000    1.333    3.333    2.333    0.000    0.000 
#    0.000   13.333    0.000    0.000    0.000    0.000 
#    0.000    0.000    0.000    0.000    0.000    0.000 
#
# Total GULP energy -200470.852349 kJ/mol
# GULP energy per Si atom -5568.634787 kJ/mol
# Density = 2.291745 g / cm^3
# Si number density = 22.969728 Si / 1000 Ang^3
#
#
#
# Elastic Constant Matrix: (Units=GPa)
#
#
# Indices 1 2 3 4 5 6 
#
# 1 73.2383 85.7793 40.1134 -8.7116 -0.0012 0.0001
# 2 85.7793 73.2404 40.1198 8.7111 0.0023 0.0005
# 3 40.1134 40.1198 141.3509 -0.0024 0.0027 0.0014
# 4 -8.7116 8.7111 -0.0024 19.7204 -0.0017 -0.0008
# 5 -0.0012 0.0023 0.0027 -0.0017 19.7233 -8.7102
# 6 0.0001 0.0005 0.0014 -0.0008 -8.7102 -6.2704
#
#
#
# Elastic Compliance Matrix: (Units=1/GPa)
#
#
# Indices 1 2 3 4 5 6 
#
# 1 -0.021038 0.028378 -0.002085 -0.021829 -0.000003 0.000008
# 2 0.028378 -0.021039 -0.002081 0.021829 0.000003 -0.000008
# 3 -0.002085 -0.002081 0.008257 0.000000 0.000000 0.000002
# 4 -0.021829 0.021829 0.000000 0.031423 -0.000001 -0.000001
# 5 -0.000003 0.000003 0.000000 -0.000001 0.031424 -0.043651
# 6 0.000008 -0.000008 0.000002 -0.000001 -0.043651 -0.098843
#
#
# Mechanical properties :
#
#
# Convention : Reuss Voigt Hill
#
# Bulk Modulus (GPa) = 68.47455 68.87273 68.67364
# Shear Modulus (GPa) = -44.10311 14.75579 -14.67366
#
# Velocity S-wave (km/s) = -4.38660 2.53731 -2.53024
# Velocity P-wave (km/s) = 2.05407 6.21556 4.62884
#
# Compressibility (1/GPa) = 0.01460396
#
# Stress axis : x y z
#
# Youngs Moduli (GPa) = -47.53351 -47.53160 121.11003
#
# Poissons Ratio (x) = 1.34884 0.25247
# Poissons Ratio (y) = 1.34890 0.25208
# Poissons Ratio (z) = -0.09909 -0.09893
#
# Static dielectric constant tensor:
#      x y z
#    x 1.852260 0.000000 0.000000 
#    y 0.000000 1.852260 0.000000 
#    z 0.000000 0.000000 2.137310 
# 
# From -- ./inp_files/1314.got.cif
#   From: 2010.05.17/outbox.cif.g08.bks.cpg/sg167_1_cif.got.tgz:1314.got - 2010.05.20 11:09:15.
