data_PCOD9579702
_publ_section_title
;
Structure prediction by ZEFSAII (Michael W. Deem and Ramdas Pophale) SiO2 
 PCOD9579702
Probable space group: R -3 C 
;
_chemical_formula_sum "Si O2"
_cell_formula_units_Z 126
_cell_length_a 20.040951
_cell_length_b 20.040951
_cell_length_c 16.973924
_cell_angle_alpha 90.000000
_cell_angle_beta 90.000000
_cell_angle_gamma 120.000000
_cell_volume 5904.043347
_symmetry_space_group_name_H-M "R -3 C "
_symmetry_group_IT_number 167
_symmetry_cell_setting 'hexagonal'
loop_
_space_group_symop_operation_xyz
x,y,z
-y,x-y,z
-x+y,-x,z
x-y,-y,1/2-z
-x,-x+y,1/2-z
y,x,1/2-z
-x,-y,-z
y,-x+y,-z
x-y,x,-z
-x+y,y,1/2+z
x,x-y,1/2+z
-y,-x,1/2+z
2/3+x,1/3+y,1/3+z
2/3-y,1/3+x-y,1/3+z
2/3-x+y,1/3-x,1/3+z
2/3+x-y,1/3-y,5/6-z
2/3-x,1/3-x+y,5/6-z
2/3+y,1/3+x,5/6-z
2/3-x,1/3-y,1/3-z
2/3+y,1/3-x+y,1/3-z
2/3+x-y,1/3+x,1/3-z
2/3-x+y,1/3+y,5/6+z
2/3+x,1/3+x-y,5/6+z
2/3-y,1/3-x,5/6+z
1/3+x,2/3+y,2/3+z
1/3-y,2/3+x-y,2/3+z
1/3-x+y,2/3-x,2/3+z
1/3+x-y,2/3-y,1/6-z
1/3-x,2/3-x+y,1/6-z
1/3+y,2/3+x,1/6-z
1/3-x,2/3-y,2/3-z
1/3+y,2/3-x+y,2/3-z
1/3+x-y,2/3+x,2/3-z
1/3-x+y,2/3+y,1/6+z
1/3+x,2/3+x-y,1/6+z
1/3-y,2/3-x,1/6+z
loop_
_atom_site_type_symbol
_atom_site_label
_atom_site_fract_x
_atom_site_fract_y
_atom_site_fract_z
Si Si1 0.520640 0.345028 0.817717
Si Si2 0.030300 0.752040 0.887250
Si Si3 0.333334 0.851765 0.916667
Si Si4 0.560169 0.728795 0.348208
O O1 0.606946 0.416553 0.807819
O O2 0.475884 0.373954 0.874925
O O3 0.475928 0.311402 0.735391
O O4 0.109931 0.762778 0.851113
O O5 0.986828 0.666667 0.916667
O O6 0.974339 0.756258 0.822096
O O7 0.258343 0.782021 0.875267
O O8 0.530710 0.666667 0.416667
#
# Coordination Sequence:
#
# PCOD9579702 Si02
#       4
#    36  36  18  36
#     4  12  26  48  72 106 146 196 245 297 364 434
#     4  11  25  43  74 107 146 185 237 301 362 434
#     4  12  22  46  72 102 142 186 240 296 358 426
#     4  11  26  46  69 110 142 193 241 294 369 432
#
# _framework density 21.341305999999999
#
# number of rings (size 3 to 8) (size 9 to 14) (size 15 to 20)
#    0.000    0.571    2.857    4.571    4.000    3.429 
#    0.857    0.000    0.000    0.000    0.000    0.000 
#    0.000    0.000    0.000    0.000    0.000    0.000 
#
# Total GULP energy -234117.342599 kJ/mol
# GULP energy per Si atom -5574.222443 kJ/mol
# Density = 2.129273 g / cm^3
# Si number density = 21.341306 Si / 1000 Ang^3
#
#
#
# Elastic Constant Matrix: (Units=GPa)
#
#
# Indices 1 2 3 4 5 6 
#
# 1 75.4490 26.0849 32.2257 9.8955 0.0004 0.0000
# 2 26.0849 75.4490 32.2257 -9.8955 -0.0004 0.0000
# 3 32.2257 32.2257 139.6449 0.0000 0.0000 0.0000
# 4 9.8955 -9.8955 0.0000 44.9663 0.0000 -0.0004
# 5 0.0004 -0.0004 0.0000 0.0000 44.9663 9.8955
# 6 0.0000 0.0000 0.0000 -0.0004 9.8955 24.6821
#
#
#
# Elastic Compliance Matrix: (Units=1/GPa)
#
#
# Indices 1 2 3 4 5 6 
#
# 1 0.016879 -0.005339 -0.002663 -0.004889 0.000000 0.000000
# 2 -0.005339 0.016879 -0.002663 0.004889 0.000000 0.000000
# 3 -0.002663 -0.002663 0.008390 0.000000 0.000000 0.000000
# 4 -0.004889 0.004889 0.000000 0.024391 0.000000 0.000000
# 5 0.000000 0.000000 0.000000 0.000000 0.024391 -0.009779
# 6 0.000000 0.000000 0.000000 0.000000 -0.009779 0.044436
#
#
# Mechanical properties :
#
#
# Convention : Reuss Voigt Hill
#
# Bulk Modulus (GPa) = 48.03769 52.40171 50.21970
# Shear Modulus (GPa) = 30.55604 36.25670 33.40637
#
# Velocity S-wave (km/s) = 3.78799 4.12624 3.96073
# Velocity P-wave (km/s) = 6.45678 6.87812 6.67078
#
# Compressibility (1/GPa) = 0.02081699
#
# Stress axis : x y z
#
# Youngs Moduli (GPa) = 59.24674 59.24674 119.18883
#
# Poissons Ratio (x) = 0.31634 0.31739
# Poissons Ratio (y) = 0.31634 0.31739
# Poissons Ratio (z) = 0.15777 0.15777
#
# Static dielectric constant tensor:
#      x y z
#    x 1.822580 0.000000 0.000000 
#    y 0.000000 1.822580 0.000000 
#    z 0.000000 0.000000 1.767810 
# 
# From -- ./inp_files/3089.got.cif
#   From: 2010.05.17/outbox.cif.g08.bks.cpg/sg167_2_cif.got.tgz:3089.got - 2010.05.20 11:09:15.
