data_PCOD9579431
_publ_section_title
;
Structure prediction by ZEFSAII (Michael W. Deem and Ramdas Pophale) SiO2 
 PCOD9579431
Probable space group: R -3 C 
;
_chemical_formula_sum "Si O2"
_cell_formula_units_Z 216
_cell_length_a 29.423904
_cell_length_b 29.423904
_cell_length_c 19.793222
_cell_angle_alpha 90.000000
_cell_angle_beta 90.000000
_cell_angle_gamma 120.000000
_cell_volume 14840.472118
_symmetry_space_group_name_H-M "R -3 C "
_symmetry_group_IT_number 167
_symmetry_cell_setting 'hexagonal'
loop_
_space_group_symop_operation_xyz
x,y,z
-y,x-y,z
-x+y,-x,z
x-y,-y,1/2-z
-x,-x+y,1/2-z
y,x,1/2-z
-x,-y,-z
y,-x+y,-z
x-y,x,-z
-x+y,y,1/2+z
x,x-y,1/2+z
-y,-x,1/2+z
2/3+x,1/3+y,1/3+z
2/3-y,1/3+x-y,1/3+z
2/3-x+y,1/3-x,1/3+z
2/3+x-y,1/3-y,5/6-z
2/3-x,1/3-x+y,5/6-z
2/3+y,1/3+x,5/6-z
2/3-x,1/3-y,1/3-z
2/3+y,1/3-x+y,1/3-z
2/3+x-y,1/3+x,1/3-z
2/3-x+y,1/3+y,5/6+z
2/3+x,1/3+x-y,5/6+z
2/3-y,1/3-x,5/6+z
1/3+x,2/3+y,2/3+z
1/3-y,2/3+x-y,2/3+z
1/3-x+y,2/3-x,2/3+z
1/3+x-y,2/3-y,1/6-z
1/3-x,2/3-x+y,1/6-z
1/3+y,2/3+x,1/6-z
1/3-x,2/3-y,2/3-z
1/3+y,2/3-x+y,2/3-z
1/3+x-y,2/3+x,2/3-z
1/3-x+y,2/3+y,1/6+z
1/3+x,2/3+x-y,1/6+z
1/3-y,2/3-x,1/6+z
loop_
_atom_site_type_symbol
_atom_site_label
_atom_site_fract_x
_atom_site_fract_y
_atom_site_fract_z
Si Si1 0.233755 0.263125 0.935241
Si Si2 0.263094 0.132621 0.613633
Si Si3 0.285689 0.242320 0.808258
Si Si4 0.367047 0.270958 0.484771
Si Si5 0.967294 0.742063 0.063909
Si Si6 0.806717 0.614421 0.067718
O O1 0.176733 0.248996 0.907412
O O2 0.267578 0.254451 0.878803
O O3 0.265646 0.323647 0.961049
O O4 0.225718 0.229050 0.001644
O O5 0.241996 0.076237 0.579429
O O6 0.324563 0.161434 0.591616
O O7 0.253273 0.122266 0.693391
O O8 0.259263 0.259263 0.750000
O O9 0.348098 0.274056 0.794062
O O10 0.268850 0.181578 0.800922
O O11 0.333334 0.243233 0.416667
O O12 0.410111 0.329069 0.460994
O O13 0.392126 0.238692 0.517506
#
# Coordination Sequence:
#
# PCOD9579431 Si02
#       6
#    36  36  36  36  36  36
#     4  10  19  32  47  65  91 118 155 203 224 266
#     4   9  18  33  44  63  90 122 150 188 240 274
#     4  11  19  30  46  68  87 119 163 192 225 265
#     4   9  19  34  43  66  91 117 155 198 231 263
#     4  10  21  31  46  68  89 121 161 194 229 268
#     4   9  18  31  47  60  90 123 150 190 235 275
#
# _framework density 14.554793
#
# number of rings (size 3 to 8) (size 9 to 14) (size 15 to 20)
#    0.000    2.333    1.667    2.000    2.333    6.000 
#    3.000    0.000    0.000    0.000    0.000    0.000 
#    0.000    0.000    0.000    9.000    7.333    0.000 
#
# Total GULP energy -401027.937645 kJ/mol
# GULP energy per Si atom -5569.832467 kJ/mol
# Density = 1.452167 g / cm^3
# Si number density = 14.554793 Si / 1000 Ang^3
#
#
#
# Elastic Constant Matrix: (Units=GPa)
#
#
# Indices 1 2 3 4 5 6 
#
# 1 57.6035 30.5957 32.3203 0.2165 -0.0003 0.0000
# 2 30.5957 57.6035 32.3203 -0.2165 0.0003 0.0000
# 3 32.3203 32.3203 68.1134 0.0000 0.0000 0.0000
# 4 0.2165 -0.2165 0.0000 17.8710 0.0000 0.0003
# 5 -0.0003 0.0003 0.0000 0.0000 17.8710 0.2165
# 6 0.0000 0.0000 0.0000 0.0003 0.2165 13.5039
#
#
#
# Elastic Compliance Matrix: (Units=1/GPa)
#
#
# Indices 1 2 3 4 5 6 
#
# 1 0.027208 -0.009825 -0.008248 -0.000449 0.000001 0.000000
# 2 -0.009825 0.027208 -0.008248 0.000449 -0.000001 0.000000
# 3 -0.008248 -0.008248 0.022509 0.000000 0.000000 0.000000
# 4 -0.000449 0.000449 0.000000 0.055967 0.000000 -0.000001
# 5 0.000001 -0.000001 0.000000 0.000000 0.055967 -0.000897
# 6 0.000000 0.000000 0.000000 -0.000001 -0.000897 0.074067
#
#
# Mechanical properties :
#
#
# Convention : Reuss Voigt Hill
#
# Bulk Modulus (GPa) = 41.18296 41.53256 41.35776
# Shear Modulus (GPa) = 15.44803 15.72147 15.58475
#
# Velocity S-wave (km/s) = 3.26140 3.29014 3.27580
# Velocity P-wave (km/s) = 6.52218 6.55977 6.54101
#
# Compressibility (1/GPa) = 0.02428189
#
# Stress axis : x y z
#
# Youngs Moduli (GPa) = 36.75341 36.75341 44.42612
#
# Poissons Ratio (x) = 0.36111 0.36645
# Poissons Ratio (y) = 0.36111 0.36645
# Poissons Ratio (z) = 0.30316 0.30316
#
# Static dielectric constant tensor:
#      x y z
#    x 1.485070 0.000000 0.000000 
#    y 0.000000 1.485070 0.000000 
#    z 0.000000 0.000000 1.512970 
# 
# From -- ./inp_files/4644.got.cif
#   From: 2010.05.17/outbox.cif.g08.bks.cpg/sg167_3_cif.got.tgz:4644.got - 2010.05.20 11:09:15.
