data_PCOD9579817
_publ_section_title
;
Structure prediction by ZEFSAII (Michael W. Deem and Ramdas Pophale) SiO2 
 PCOD9579817
Probable space group: P 61
;
_chemical_formula_sum "Si O2"
_cell_formula_units_Z 42
_cell_length_a 15.888706
_cell_length_b 15.888706
_cell_length_c 11.338999
_cell_angle_alpha 90.000000
_cell_angle_beta 90.000000
_cell_angle_gamma 120.000000
_cell_volume 2479.033564
_symmetry_space_group_name_H-M "P 61"
_symmetry_group_IT_number 169
_symmetry_cell_setting 'hexagonal'
loop_
_space_group_symop_operation_xyz
x,y,z
x-y,x,1/6+z
-y,x-y,1/3+z
-x,-y,1/2+z
-x+y,-x,2/3+z
y,-x+y,5/6+z
loop_
_atom_site_type_symbol
_atom_site_label
_atom_site_fract_x
_atom_site_fract_y
_atom_site_fract_z
Si Si1 0.586695 0.393404 0.433420
Si Si2 0.605457 0.838247 0.276554
Si Si3 0.135728 0.385409 0.690634
Si Si4 0.637296 0.674254 0.359904
Si Si5 0.938461 0.307228 0.767373
Si Si6 0.430074 0.862128 0.802875
Si Si7 0.678115 0.263513 0.511909
O O1 0.671938 0.500639 0.464067
O O2 0.481891 0.350031 0.491416
O O3 0.623106 0.322128 0.481548
O O4 0.572718 0.374562 0.293048
O O5 0.599167 0.788621 0.149381
O O6 0.634982 0.774448 0.357128
O O7 0.676890 0.953590 0.270697
O O8 0.205657 0.367616 0.605829
O O9 0.024095 0.302739 0.697569
O O10 0.657815 0.643980 0.230777
O O11 0.529878 0.593825 0.402242
O O12 0.912254 0.384123 0.712214
O O13 0.439760 0.786284 0.715545
O O14 0.341434 0.800595 0.895084
#
# Coordination Sequence:
#
# PCOD9579817 Si02
#       7
#     6   6   6   6   6   6   6
#     4  11  16  31  48  69 105 148 172 207 258 307
#     4  10  19  32  49  75  99 138 173 218 261 314
#     4  10  19  31  50  72 104 136 173 221 260 317
#     4  10  21  34  51  73 107 137 180 220 267 320
#     4  10  20  33  51  75 105 137 179 222 270 317
#     4  11  20  35  49  81 109 144 185 211 261 331
#     4  10  19  28  52  69 111 144 176 209 249 310
#
# _framework density 16.942086
#
# number of rings (size 3 to 8) (size 9 to 14) (size 15 to 20)
#    0.000    1.714    5.714    1.714    0.000    0.000 
#    2.571    0.000    0.000    0.000    0.000    0.000 
#   47.143    0.000    0.000    0.000    0.000    0.000 
#
# Total GULP energy -233930.123936 kJ/mol
# GULP energy per Si atom -5569.764856 kJ/mol
# Density = 1.690352 g / cm^3
# Si number density = 16.942086 Si / 1000 Ang^3
#
#
#
# Elastic Constant Matrix: (Units=GPa)
#
#
# Indices 1 2 3 4 5 6 
#
# 1 81.9542 50.4344 18.1452 0.0000 0.0000 0.0000
# 2 50.4344 81.9542 18.1452 0.0000 0.0000 0.0000
# 3 18.1452 18.1452 26.0398 0.0000 0.0000 0.0000
# 4 0.0000 0.0000 0.0000 17.0707 0.0000 0.0000
# 5 0.0000 0.0000 0.0000 0.0000 17.0707 0.0000
# 6 0.0000 0.0000 0.0000 0.0000 0.0000 15.7599
#
#
#
# Elastic Compliance Matrix: (Units=1/GPa)
#
#
# Indices 1 2 3 4 5 6 
#
# 1 0.020532 -0.011195 -0.006506 0.000000 0.000000 0.000000
# 2 -0.011195 0.020532 -0.006506 0.000000 0.000000 0.000000
# 3 -0.006506 -0.006506 0.047470 0.000000 0.000000 0.000000
# 4 0.000000 0.000000 0.000000 0.058580 0.000000 0.000000
# 5 0.000000 0.000000 0.000000 0.000000 0.058580 0.000000
# 6 0.000000 0.000000 0.000000 0.000000 0.000000 0.063452
#
#
# Mechanical properties :
#
#
# Convention : Reuss Voigt Hill
#
# Bulk Modulus (GPa) = 24.92574 40.37753 32.65163
# Shear Modulus (GPa) = 15.10881 16.86182 15.98532
#
# Velocity S-wave (km/s) = 2.98953 3.15820 3.07502
# Velocity P-wave (km/s) = 5.16339 6.09782 5.64996
#
# Compressibility (1/GPa) = 0.04011918
#
# Stress axis : x y z
#
# Youngs Moduli (GPa) = 48.70551 48.70552 21.06580
#
# Poissons Ratio (x) = 0.54523 0.13706
# Poissons Ratio (y) = 0.54523 0.13706
# Poissons Ratio (z) = 0.31689 0.31689
#
# Static dielectric constant tensor:
#      x y z
#    x 1.589340 0.000000 0.000000 
#    y 0.000000 1.589340 0.000000 
#    z 0.000000 0.000000 1.633390 
# 
# From -- ./inp_files/979.got.cif
#   From: 2010.05.17/outbox.cif.g08.bks.cpg/sg169_cif.got.tgz:979.got - 2010.05.20 11:12:54.
