data_PCOD9579625
_publ_section_title
;
Structure prediction by ZEFSAII (Michael W. Deem and Ramdas Pophale) SiO2 
 PCOD9579625
Probable space group: R -3 C 
;
_chemical_formula_sum "Si O2"
_cell_formula_units_Z 108
_cell_length_a 15.874973
_cell_length_b 15.874973
_cell_length_c 20.186475
_cell_angle_alpha 90.000000
_cell_angle_beta 90.000000
_cell_angle_gamma 120.000000
_cell_volume 4405.722211
_symmetry_space_group_name_H-M "R -3 C "
_symmetry_group_IT_number 167
_symmetry_cell_setting 'hexagonal'
loop_
_space_group_symop_operation_xyz
x,y,z
-y,x-y,z
-x+y,-x,z
x-y,-y,1/2-z
-x,-x+y,1/2-z
y,x,1/2-z
-x,-y,-z
y,-x+y,-z
x-y,x,-z
-x+y,y,1/2+z
x,x-y,1/2+z
-y,-x,1/2+z
2/3+x,1/3+y,1/3+z
2/3-y,1/3+x-y,1/3+z
2/3-x+y,1/3-x,1/3+z
2/3+x-y,1/3-y,5/6-z
2/3-x,1/3-x+y,5/6-z
2/3+y,1/3+x,5/6-z
2/3-x,1/3-y,1/3-z
2/3+y,1/3-x+y,1/3-z
2/3+x-y,1/3+x,1/3-z
2/3-x+y,1/3+y,5/6+z
2/3+x,1/3+x-y,5/6+z
2/3-y,1/3-x,5/6+z
1/3+x,2/3+y,2/3+z
1/3-y,2/3+x-y,2/3+z
1/3-x+y,2/3-x,2/3+z
1/3+x-y,2/3-y,1/6-z
1/3-x,2/3-x+y,1/6-z
1/3+y,2/3+x,1/6-z
1/3-x,2/3-y,2/3-z
1/3+y,2/3-x+y,2/3-z
1/3+x-y,2/3+x,2/3-z
1/3-x+y,2/3+y,1/6+z
1/3+x,2/3+x-y,1/6+z
1/3-y,2/3-x,1/6+z
loop_
_atom_site_type_symbol
_atom_site_label
_atom_site_fract_x
_atom_site_fract_y
_atom_site_fract_z
Si Si1 0.135740 0.824963 0.450268
Si Si2 0.579823 0.579823 0.250000
Si Si3 0.000000 0.850873 0.750000
Si Si4 0.420694 0.781607 0.565525
O O1 0.187362 0.845689 0.521368
O O2 0.179755 0.765966 0.414241
O O3 0.152063 0.927354 0.422159
O O4 0.020699 0.751174 0.439733
O O5 0.990807 0.891326 0.679737
O O6 0.308544 0.741811 0.589051
#
# Coordination Sequence:
#
# PCOD9579625 Si02
#       4
#    36  18  18  36
#     4  11  26  46  72 111 152 214 259 340 397 497
#     4  11  28  48  76 105 160 202 276 321 420 478
#     4  11  22  44  70 111 152 202 256 333 416 484
#     4  10  23  42  75 111 149 197 262 333 406 485
#
# _framework density 24.513573999999998
#
# number of rings (size 3 to 8) (size 9 to 14) (size 15 to 20)
#    0.667    0.667    0.000    4.000    9.333    0.000 
#    0.000    1.667    0.000    0.000    0.000    0.000 
#    0.000    0.000    0.000    0.000    0.000    0.000 
#
# Total GULP energy -200501.656047 kJ/mol
# GULP energy per Si atom -5569.490446 kJ/mol
# Density = 2.445778 g / cm^3
# Si number density = 24.513574 Si / 1000 Ang^3
#
#
#
# Elastic Constant Matrix: (Units=GPa)
#
#
# Indices 1 2 3 4 5 6 
#
# 1 83.0507 35.4999 18.1486 4.1654 0.0000 0.0000
# 2 35.4999 83.0507 18.1486 -4.1654 0.0000 0.0000
# 3 18.1486 18.1486 75.0289 0.0000 0.0000 0.0000
# 4 4.1654 -4.1654 0.0000 31.0384 0.0000 0.0000
# 5 0.0000 0.0000 0.0000 0.0000 31.0384 4.1654
# 6 0.0000 0.0000 0.0000 0.0000 4.1654 23.7754
#
#
#
# Elastic Compliance Matrix: (Units=1/GPa)
#
#
# Indices 1 2 3 4 5 6 
#
# 1 0.015323 -0.006213 -0.002204 -0.002890 0.000000 0.000000
# 2 -0.006213 0.015323 -0.002204 0.002890 0.000000 0.000000
# 3 -0.002204 -0.002204 0.014394 0.000000 0.000000 0.000000
# 4 -0.002890 0.002890 0.000000 0.032994 0.000000 0.000000
# 5 0.000000 0.000000 0.000000 0.000000 0.032994 -0.005780
# 6 0.000000 0.000000 0.000000 0.000000 -0.005780 0.043073
#
#
# Mechanical properties :
#
#
# Convention : Reuss Voigt Hill
#
# Bulk Modulus (GPa) = 42.01730 42.74717 42.38224
# Shear Modulus (GPa) = 27.28132 28.45933 27.87032
#
# Velocity S-wave (km/s) = 3.33964 3.41099 3.37550
# Velocity P-wave (km/s) = 5.66115 5.74362 5.70253
#
# Compressibility (1/GPa) = 0.02379972
#
# Stress axis : x y z
#
# Youngs Moduli (GPa) = 65.26049 65.26049 69.47222
#
# Poissons Ratio (x) = 0.40548 0.15309
# Poissons Ratio (y) = 0.40548 0.15309
# Poissons Ratio (z) = 0.14381 0.14381
#
# Static dielectric constant tensor:
#      x y z
#    x 1.987270 0.000000 0.000000 
#    y 0.000000 1.987270 0.000000 
#    z 0.000000 0.000000 1.996980 
# 
# From -- ./inp_files/4130.got.cif
#   From: 2010.05.17/outbox.cif.g08.bks.cpg/sg167_3_cif.got.tgz:4130.got - 2010.05.20 11:09:15.
