data_PCOD9579308
_publ_section_title
;
Structure prediction by ZEFSAII (Michael W. Deem and Ramdas Pophale) SiO2 
 PCOD9579308
Probable space group: R -3 M
;
_chemical_formula_sum "Si O2"
_cell_formula_units_Z 180
_cell_length_a 20.111544
_cell_length_b 20.111544
_cell_length_c 28.877511
_cell_angle_alpha 90.000000
_cell_angle_beta 90.000000
_cell_angle_gamma 120.000000
_cell_volume 10115.357039
_symmetry_space_group_name_H-M "R -3 M"
_symmetry_group_IT_number 166
_symmetry_cell_setting 'hexagonal'
loop_
_space_group_symop_operation_xyz
x,y,z
-y,x-y,z
-x+y,-x,z
x-y,-y,-z
-x,-x+y,-z
y,x,-z
-x,-y,-z
y,-x+y,-z
x-y,x,-z
-x+y,y,z
x,x-y,z
-y,-x,z
2/3+x,1/3+y,1/3+z
2/3-y,1/3+x-y,1/3+z
2/3-x+y,1/3-x,1/3+z
2/3+x-y,1/3-y,1/3-z
2/3-x,1/3-x+y,1/3-z
2/3+y,1/3+x,1/3-z
2/3-x,1/3-y,1/3-z
2/3+y,1/3-x+y,1/3-z
2/3+x-y,1/3+x,1/3-z
2/3-x+y,1/3+y,1/3+z
2/3+x,1/3+x-y,1/3+z
2/3-y,1/3-x,1/3+z
1/3+x,2/3+y,2/3+z
1/3-y,2/3+x-y,2/3+z
1/3-x+y,2/3-x,2/3+z
1/3+x-y,2/3-y,2/3-z
1/3-x,2/3-x+y,2/3-z
1/3+y,2/3+x,2/3-z
1/3-x,2/3-y,2/3-z
1/3+y,2/3-x+y,2/3-z
1/3+x-y,2/3+x,2/3-z
1/3-x+y,2/3+y,2/3+z
1/3+x,2/3+x-y,2/3+z
1/3-y,2/3-x,2/3+z
loop_
_atom_site_type_symbol
_atom_site_label
_atom_site_fract_x
_atom_site_fract_y
_atom_site_fract_z
Si Si1 0.478161 0.521840 0.754957
Si Si2 0.875527 0.124474 0.342374
Si Si3 0.245045 0.490090 0.659922
Si Si4 0.748771 0.741327 0.140798
Si Si5 0.183081 0.366163 0.740406
Si Si6 0.289102 0.421313 0.346087
Si Si7 0.333100 0.823578 0.892905
O O1 0.512241 0.487760 0.717866
O O2 0.440318 0.559683 0.723471
O O3 0.543819 0.591261 0.784089
O O4 0.854531 0.145470 0.291871
O O5 0.968154 0.176392 0.344567
O O6 0.333334 0.539635 0.666667
O O7 0.214511 0.429022 0.700651
O O8 0.684376 0.666667 0.166667
O O9 0.790378 0.711392 0.105115
O O10 0.810604 0.795588 0.179004
O O11 0.212672 0.425343 0.334460
O O12 0.267590 0.333334 0.333334
O O13 0.307567 0.444656 0.400358
O O14 0.404847 0.809693 0.887144
O O15 0.256935 0.743066 0.904931
#
# Coordination Sequence:
#
# PCOD9579308 Si02
#       7
#    18  18  18  36  18  36  36
#     4  11  26  41  59  88 122 161 212 258 298 377
#     4  11  24  39  67  92 125 162 213 260 317 374
#     4  11  21  37  59  84 123 167 214 250 298 350
#     4  12  24  39  59  87 124 164 211 251 308 364
#     4  11  23  37  61  88 123 172 210 250 299 377
#     4  10  23  42  64  92 124 163 208 264 329 385
#     4  11  22  39  61  90 124 164 204 252 313 373
#
# _framework density 17.794725
#
# number of rings (size 3 to 8) (size 9 to 14) (size 15 to 20)
#    0.000    1.000    5.000    1.800    5.600    0.000 
#    0.600    0.000    0.000    0.000    0.000    0.000 
#    0.000    0.800    0.000    0.000    0.000    0.000 
#
# Total GULP energy -334730.399737 kJ/mol
# GULP energy per Si atom -5578.839996 kJ/mol
# Density = 1.775422 g / cm^3
# Si number density = 17.794725 Si / 1000 Ang^3
#
#
#
# Elastic Constant Matrix: (Units=GPa)
#
#
# Indices 1 2 3 4 5 6 
#
# 1 126.5288 61.4502 52.7991 -4.6274 0.0015 0.0000
# 2 61.4502 126.5288 52.7991 4.6274 -0.0015 0.0000
# 3 52.7991 52.7991 74.9293 0.0000 0.0000 0.0000
# 4 -4.6274 4.6274 0.0000 19.0532 0.0000 -0.0015
# 5 0.0015 -0.0015 0.0000 0.0000 19.0532 -4.6274
# 6 0.0000 0.0000 0.0000 -0.0015 -4.6274 32.5393
#
#
#
# Elastic Compliance Matrix: (Units=1/GPa)
#
#
# Indices 1 2 3 4 5 6 
#
# 1 0.012360 -0.003555 -0.006205 0.003865 -0.000001 0.000000
# 2 -0.003555 0.012360 -0.006205 -0.003865 0.000001 0.000000
# 3 -0.006205 -0.006205 0.022090 0.000000 0.000000 0.000000
# 4 0.003865 -0.003865 0.000000 0.054362 0.000000 0.000002
# 5 -0.000001 0.000001 0.000000 0.000000 0.054362 0.007731
# 6 0.000000 0.000000 0.000000 0.000002 0.007731 0.031831
#
#
# Mechanical properties :
#
#
# Convention : Reuss Voigt Hill
#
# Bulk Modulus (GPa) = 67.19493 73.56488 70.37991
# Shear Modulus (GPa) = 22.29591 24.85838 23.57715
#
# Velocity S-wave (km/s) = 3.54354 3.74164 3.64394
# Velocity P-wave (km/s) = 7.38819 7.75223 7.57240
#
# Compressibility (1/GPa) = 0.01488207
#
# Stress axis : x y z
#
# Youngs Moduli (GPa) = 80.90304 80.90304 45.26908
#
# Poissons Ratio (x) = 0.28763 0.28088
# Poissons Ratio (y) = 0.28763 0.28088
# Poissons Ratio (z) = 0.50197 0.50197
#
# Static dielectric constant tensor:
#      x y z
#    x 1.621780 0.000000 0.000000 
#    y 0.000000 1.621780 0.000000 
#    z 0.000000 0.000000 1.610960 
# 
# From -- ./inp_files/10623.got.cif
#   From: 2010.05.17/outbox.cif.g08.bks.cpg/sg166_6_cif.got.tgz:10623.got - 2010.05.20 11:04:41.
