data_PCOD9579340
_publ_section_title
;
Structure prediction by ZEFSAII (Michael W. Deem and Ramdas Pophale) SiO2 
 PCOD9579340
Probable space group: R -3 M
;
_chemical_formula_sum "Si O2"
_cell_formula_units_Z 144
_cell_length_a 28.470721
_cell_length_b 28.470721
_cell_length_c 10.410806
_cell_angle_alpha 90.000000
_cell_angle_beta 90.000000
_cell_angle_gamma 120.000000
_cell_volume 7308.225113
_symmetry_space_group_name_H-M "R -3 M"
_symmetry_group_IT_number 166
_symmetry_cell_setting 'hexagonal'
loop_
_space_group_symop_operation_xyz
x,y,z
-y,x-y,z
-x+y,-x,z
x-y,-y,-z
-x,-x+y,-z
y,x,-z
-x,-y,-z
y,-x+y,-z
x-y,x,-z
-x+y,y,z
x,x-y,z
-y,-x,z
2/3+x,1/3+y,1/3+z
2/3-y,1/3+x-y,1/3+z
2/3-x+y,1/3-x,1/3+z
2/3+x-y,1/3-y,1/3-z
2/3-x,1/3-x+y,1/3-z
2/3+y,1/3+x,1/3-z
2/3-x,1/3-y,1/3-z
2/3+y,1/3-x+y,1/3-z
2/3+x-y,1/3+x,1/3-z
2/3-x+y,1/3+y,1/3+z
2/3+x,1/3+x-y,1/3+z
2/3-y,1/3-x,1/3+z
1/3+x,2/3+y,2/3+z
1/3-y,2/3+x-y,2/3+z
1/3-x+y,2/3-x,2/3+z
1/3+x-y,2/3-y,2/3-z
1/3-x,2/3-x+y,2/3-z
1/3+y,2/3+x,2/3-z
1/3-x,2/3-y,2/3-z
1/3+y,2/3-x+y,2/3-z
1/3+x-y,2/3+x,2/3-z
1/3-x+y,2/3+y,2/3+z
1/3+x,2/3+x-y,2/3+z
1/3-y,2/3-x,2/3+z
loop_
_atom_site_type_symbol
_atom_site_label
_atom_site_fract_x
_atom_site_fract_y
_atom_site_fract_z
Si Si1 0.968876 0.427474 0.875845
Si Si2 0.700491 0.511953 0.215016
Si Si3 0.033827 0.855199 0.381697
Si Si4 0.760806 0.125267 0.290808
O O1 0.973771 0.486886 0.872968
O O2 0.905549 0.387009 0.896691
O O3 0.000008 0.425316 0.750002
O O4 0.000000 0.425127 0.000000
O O5 0.754408 0.508816 0.187670
O O6 0.666667 0.473351 0.333334
O O7 0.720346 0.572210 0.269956
O O8 0.666662 0.499864 0.083332
O O9 0.087749 0.912252 0.354376
O O10 0.000000 0.859980 0.500000
O O11 0.820220 0.179781 0.293685
O O12 0.758456 0.091789 0.166667
#
# Coordination Sequence:
#
# PCOD9579340 Si02
#       4
#    36  36  36  36
#     4   9  17  31  53  80 107 136 176 228 286 352
#     4  11  22  37  59  86 117 156 204 254 299 346
#     4  11  22  37  59  86 117 156 204 254 299 346
#     4   9  17  31  53  80 107 136 176 228 286 352
#
# _framework density 19.703825999999999
#
# number of rings (size 3 to 8) (size 9 to 14) (size 15 to 20)
#    0.000    2.000    0.000    4.500    0.000    8.000 
#    0.000    0.000    0.000   25.000    0.000    0.000 
#    0.000    0.000    0.000    0.000    0.000    0.500 
#
# Total GULP energy -267771.200722 kJ/mol
# GULP energy per Si atom -5578.566682 kJ/mol
# Density = 1.965898 g / cm^3
# Si number density = 19.703826 Si / 1000 Ang^3
#
#
#
# Elastic Constant Matrix: (Units=GPa)
#
#
# Indices 1 2 3 4 5 6 
#
# 1 75.9251 46.3046 61.5898 9.4048 0.0011 -0.0030
# 2 46.3046 75.9250 61.6069 -9.4043 0.0027 0.0030
# 3 61.5898 61.6069 207.5880 0.0094 0.0108 0.0072
# 4 9.4048 -9.4043 0.0094 27.9951 0.0028 0.0022
# 5 0.0011 0.0027 0.0108 0.0028 27.9973 9.4115
# 6 -0.0030 0.0030 0.0072 0.0022 9.4115 14.8067
#
#
#
# Elastic Compliance Matrix: (Units=1/GPa)
#
#
# Indices 1 2 3 4 5 6 
#
# 1 0.027290 -0.015621 -0.003460 -0.014414 -0.000001 0.000013
# 2 -0.015621 0.027297 -0.003467 0.014419 0.000001 -0.000010
# 3 -0.003460 -0.003467 0.006873 -0.000005 -0.000001 -0.000002
# 4 -0.014414 0.014419 -0.000005 0.045407 -0.000001 -0.000012
# 5 -0.000001 0.000001 -0.000001 -0.000001 0.045423 -0.028872
# 6 0.000013 -0.000010 -0.000002 -0.000012 -0.028872 0.085889
#
#
# Mechanical properties :
#
#
# Convention : Reuss Voigt Hill
#
# Bulk Modulus (GPa) = 61.11325 77.60454 69.35889
# Shear Modulus (GPa) = 17.31722 26.82229 22.06976
#
# Velocity S-wave (km/s) = 2.96780 3.69355 3.35038
# Velocity P-wave (km/s) = 6.54424 7.59347 7.08829
#
# Compressibility (1/GPa) = 0.01636306
#
# Stress axis : x y z
#
# Youngs Moduli (GPa) = 36.64309 36.63391 145.50230
#
# Poissons Ratio (x) = 0.57227 0.50346
# Poissons Ratio (y) = 0.57242 0.50445
# Poissons Ratio (z) = 0.12679 0.12701
#
# Static dielectric constant tensor:
#      x y z
#    x 1.672420 0.000000 0.000000 
#    y 0.000000 1.672480 0.000010 
#    z 0.000000 0.000010 1.682060 
# 
# From -- ./inp_files/1784.got.cif
#   From: 2010.05.17/outbox.cif.g08.bks.cpg/sg166_1_cif.got.tgz:1784.got - 2010.05.20 11:04:41.
