data_PCOD9579781
_publ_section_title
;
Structure prediction by ZEFSAII (Michael W. Deem and Ramdas Pophale) SiO2 
 PCOD9579781
Probable space group: P 61
;
_chemical_formula_sum "Si O2"
_cell_formula_units_Z 36
_cell_length_a 22.957646
_cell_length_b 22.957646
_cell_length_c 5.410666
_cell_angle_alpha 90.000000
_cell_angle_beta 90.000000
_cell_angle_gamma 120.000000
_cell_volume 2469.653742
_symmetry_space_group_name_H-M "P 61"
_symmetry_group_IT_number 169
_symmetry_cell_setting 'hexagonal'
loop_
_space_group_symop_operation_xyz
x,y,z
x-y,x,1/6+z
-y,x-y,1/3+z
-x,-y,1/2+z
-x+y,-x,2/3+z
y,-x+y,5/6+z
loop_
_atom_site_type_symbol
_atom_site_label
_atom_site_fract_x
_atom_site_fract_y
_atom_site_fract_z
Si Si1 0.485298 0.851681 0.608770
Si Si2 0.485831 0.926234 0.112319
Si Si3 0.080190 0.421038 0.447835
Si Si4 0.789974 0.454391 0.434075
Si Si5 0.737794 0.234200 0.599633
Si Si6 0.572363 0.624904 0.275331
O O1 0.500107 0.892849 0.352735
O O2 0.406922 0.794805 0.573870
O O3 0.524319 0.812554 0.682891
O O4 0.489526 0.893490 0.854199
O O5 0.411537 0.917640 0.124317
O O6 0.545073 0.003390 0.109131
O O7 0.156551 0.437016 0.444064
O O8 0.041541 0.385674 0.695129
O O9 0.043411 0.388893 0.194912
O O10 0.764278 0.457443 0.705215
O O11 0.868683 0.514736 0.433453
O O12 0.754219 0.468020 0.201790
#
# Coordination Sequence:
#
# PCOD9579781 Si02
#       6
#     6   6   6   6   6   6
#     4  12  21  31  43  58  79  94 121 153 174 221
#     4  12  19  30  45  67  74  88 115 159 200 215
#     4  10  17  31  43  58  75  96 117 140 183 228
#     4  10  19  35  43  58  72  97 128 145 184 216
#     4  10  20  33  41  50  76 101 119 140 164 218
#     4  10  18  28  49  61  78  86 110 159 197 228
#
# _framework density 14.576943
#
# number of rings (size 3 to 8) (size 9 to 14) (size 15 to 20)
#    0.000    1.333    6.667    3.000    0.000    0.000 
#    3.000    0.000    0.000    0.000    0.000    0.000 
#    0.000    0.000    0.000    0.000    0.000    0.000 
#
# Total GULP energy -200540.838192 kJ/mol
# GULP energy per Si atom -5570.578839 kJ/mol
# Density = 1.454377 g / cm^3
# Si number density = 14.576943 Si / 1000 Ang^3
#
#
#
# Elastic Constant Matrix: (Units=GPa)
#
#
# Indices 1 2 3 4 5 6 
#
# 1 31.6060 8.9618 15.0428 0.0000 0.0000 0.0000
# 2 8.9618 31.6060 15.0428 0.0000 0.0000 0.0000
# 3 15.0428 15.0428 143.1423 0.0000 0.0000 0.0000
# 4 0.0000 0.0000 0.0000 13.2487 0.0000 0.0000
# 5 0.0000 0.0000 0.0000 0.0000 13.2487 0.0000
# 6 0.0000 0.0000 0.0000 0.0000 0.0000 11.3221
#
#
#
# Elastic Compliance Matrix: (Units=1/GPa)
#
#
# Indices 1 2 3 4 5 6 
#
# 1 0.035447 -0.008714 -0.002809 0.000000 0.000000 0.000000
# 2 -0.008714 0.035447 -0.002809 0.000000 0.000000 0.000000
# 3 -0.002809 -0.002809 0.007577 0.000000 0.000000 0.000000
# 4 0.000000 0.000000 0.000000 0.075479 0.000000 0.000000
# 5 0.000000 0.000000 0.000000 0.000000 0.075479 0.000000
# 6 0.000000 0.000000 0.000000 0.000000 0.000000 0.088323
#
#
# Mechanical properties :
#
#
# Convention : Reuss Voigt Hill
#
# Bulk Modulus (GPa) = 20.07789 31.60544 25.84167
# Shear Modulus (GPa) = 13.77335 18.71770 16.24552
#
# Velocity S-wave (km/s) = 3.07721 3.58727 3.34199
# Velocity P-wave (km/s) = 5.14094 6.23593 5.71472
#
# Compressibility (1/GPa) = 0.04980602
#
# Stress axis : x y z
#
# Youngs Moduli (GPa) = 28.21074 28.21074 131.98638
#
# Poissons Ratio (x) = 0.24583 0.37081
# Poissons Ratio (y) = 0.24583 0.37081
# Poissons Ratio (z) = 0.07926 0.07926
#
# Static dielectric constant tensor:
#      x y z
#    x 1.490870 0.000000 0.000000 
#    y 0.000000 1.490870 0.000000 
#    z 0.000000 0.000000 1.618600 
# 
# From -- ./inp_files/232.got.cif
#   From: 2010.05.17/outbox.cif.g08.bks.cpg/sg169_cif.got.tgz:232.got - 2010.05.20 11:12:54.
