data_PCOD9579645
_publ_section_title
;
Structure prediction by ZEFSAII (Michael W. Deem and Ramdas Pophale) SiO2 
 PCOD9579645
Probable space group: R -3 C 
;
_chemical_formula_sum "Si O2"
_cell_formula_units_Z 162
_cell_length_a 21.755329
_cell_length_b 21.755329
_cell_length_c 16.320509
_cell_angle_alpha 90.000000
_cell_angle_beta 90.000000
_cell_angle_gamma 120.000000
_cell_volume 6689.530556
_symmetry_space_group_name_H-M "R -3 C "
_symmetry_group_IT_number 167
_symmetry_cell_setting 'hexagonal'
loop_
_space_group_symop_operation_xyz
x,y,z
-y,x-y,z
-x+y,-x,z
x-y,-y,1/2-z
-x,-x+y,1/2-z
y,x,1/2-z
-x,-y,-z
y,-x+y,-z
x-y,x,-z
-x+y,y,1/2+z
x,x-y,1/2+z
-y,-x,1/2+z
2/3+x,1/3+y,1/3+z
2/3-y,1/3+x-y,1/3+z
2/3-x+y,1/3-x,1/3+z
2/3+x-y,1/3-y,5/6-z
2/3-x,1/3-x+y,5/6-z
2/3+y,1/3+x,5/6-z
2/3-x,1/3-y,1/3-z
2/3+y,1/3-x+y,1/3-z
2/3+x-y,1/3+x,1/3-z
2/3-x+y,1/3+y,5/6+z
2/3+x,1/3+x-y,5/6+z
2/3-y,1/3-x,5/6+z
1/3+x,2/3+y,2/3+z
1/3-y,2/3+x-y,2/3+z
1/3-x+y,2/3-x,2/3+z
1/3+x-y,2/3-y,1/6-z
1/3-x,2/3-x+y,1/6-z
1/3+y,2/3+x,1/6-z
1/3-x,2/3-y,2/3-z
1/3+y,2/3-x+y,2/3-z
1/3+x-y,2/3+x,2/3-z
1/3-x+y,2/3+y,1/6+z
1/3+x,2/3+x-y,1/6+z
1/3-y,2/3-x,1/6+z
loop_
_atom_site_type_symbol
_atom_site_label
_atom_site_fract_x
_atom_site_fract_y
_atom_site_fract_z
Si Si1 0.751913 0.745216 0.945343
Si Si2 0.994420 0.121813 0.468728
Si Si3 0.091404 0.805303 0.293546
Si Si4 0.685492 0.018825 0.916667
Si Si5 0.818212 0.410755 0.124862
O O1 0.735645 0.666667 0.916667
O O2 0.754644 0.788589 0.865019
O O3 0.816507 0.799368 0.001979
O O4 0.682301 0.728360 0.999970
O O5 0.946150 0.092994 0.387540
O O6 0.066142 0.119167 0.460819
O O7 0.166667 0.833334 0.333334
O O8 0.065566 0.727387 0.258035
O O9 0.092118 0.862629 0.232125
O O10 0.765209 0.333334 0.083334
O O11 0.799548 0.466215 0.083334
#
# Coordination Sequence:
#
# PCOD9579645 Si02
#       5
#    36  36  36  18  36
#     4  10  25  47  72 109 155 201 266 326 401 472
#     4  12  27  48  78 115 156 205 266 324 400 482
#     4  11  25  45  73 105 154 195 259 324 392 472
#     4  10  24  46  72 106 152 204 258 326 398 478
#     4  12  26  47  74 110 153 202 253 319 395 471
#
# _framework density 24.216946
#
# number of rings (size 3 to 8) (size 9 to 14) (size 15 to 20)
#    0.000    0.889    1.111    4.444   12.444    0.889 
#    2.000    0.000    0.000    0.000    0.000    0.000 
#    0.000    0.000    0.000    0.000    0.000    0.000 
#
# Total GULP energy -301787.853441 kJ/mol
# GULP energy per Si atom -5588.663953 kJ/mol
# Density = 2.416183 g / cm^3
# Si number density = 24.216946 Si / 1000 Ang^3
#
#
#
# Elastic Constant Matrix: (Units=GPa)
#
#
# Indices 1 2 3 4 5 6 
#
# 1 118.4386 76.3027 41.9705 16.6411 -0.0002 0.0000
# 2 76.3027 118.4386 41.9705 -16.6411 0.0002 0.0000
# 3 41.9705 41.9705 125.7062 0.0000 0.0000 0.0000
# 4 16.6411 -16.6411 0.0000 38.2099 0.0000 0.0002
# 5 -0.0002 0.0002 0.0000 0.0000 38.2099 16.6411
# 6 0.0000 0.0000 0.0000 0.0002 16.6411 21.0680
#
#
#
# Elastic Compliance Matrix: (Units=1/GPa)
#
#
# Indices 1 2 3 4 5 6 
#
# 1 0.021088 -0.015090 -0.002003 -0.015756 0.000000 0.000000
# 2 -0.015090 0.021088 -0.002003 0.015756 0.000000 0.000000
# 3 -0.002003 -0.002003 0.009292 0.000000 0.000000 0.000000
# 4 -0.015756 0.015756 0.000000 0.039896 0.000000 0.000000
# 5 0.000000 0.000000 0.000000 0.000000 0.039896 -0.031513
# 6 0.000000 0.000000 0.000000 0.000000 -0.031513 0.072357
#
#
# Mechanical properties :
#
#
# Convention : Reuss Voigt Hill
#
# Bulk Modulus (GPa) = 75.31180 75.89676 75.60428
# Shear Modulus (GPa) = 20.30594 32.98688 26.64641
#
# Velocity S-wave (km/s) = 2.89883 3.69472 3.32071
# Velocity P-wave (km/s) = 6.50927 7.04341 6.78160
#
# Compressibility (1/GPa) = 0.01327813
#
# Stress axis : x y z
#
# Youngs Moduli (GPa) = 47.41976 47.41976 107.61524
#
# Poissons Ratio (x) = 0.71556 0.21552
# Poissons Ratio (y) = 0.71556 0.21552
# Poissons Ratio (z) = 0.09497 0.09497
#
# Static dielectric constant tensor:
#      x y z
#    x -1.551650 0.000000 0.000000 
#    y 0.000000 -1.551650 0.000000 
#    z 0.000000 0.000000 2.109220 
# 
# From -- ./inp_files/4429.got.cif
#   From: 2010.05.17/outbox.cif.g08.bks.cpg/sg167_3_cif.got.tgz:4429.got - 2010.05.20 11:09:15.
