data_PCOD9579582
_publ_section_title
;
Structure prediction by ZEFSAII (Michael W. Deem and Ramdas Pophale) SiO2 
 PCOD9579582
Probable space group: R -3 C 
;
_chemical_formula_sum "Si O2"
_cell_formula_units_Z 120
_cell_length_a 17.164693
_cell_length_b 17.164693
_cell_length_c 22.137826
_cell_angle_alpha 90.000000
_cell_angle_beta 90.000000
_cell_angle_gamma 120.000000
_cell_volume 5648.559161
_symmetry_space_group_name_H-M "R -3 C "
_symmetry_group_IT_number 167
_symmetry_cell_setting 'hexagonal'
loop_
_space_group_symop_operation_xyz
x,y,z
-y,x-y,z
-x+y,-x,z
x-y,-y,1/2-z
-x,-x+y,1/2-z
y,x,1/2-z
-x,-y,-z
y,-x+y,-z
x-y,x,-z
-x+y,y,1/2+z
x,x-y,1/2+z
-y,-x,1/2+z
2/3+x,1/3+y,1/3+z
2/3-y,1/3+x-y,1/3+z
2/3-x+y,1/3-x,1/3+z
2/3+x-y,1/3-y,5/6-z
2/3-x,1/3-x+y,5/6-z
2/3+y,1/3+x,5/6-z
2/3-x,1/3-y,1/3-z
2/3+y,1/3-x+y,1/3-z
2/3+x-y,1/3+x,1/3-z
2/3-x+y,1/3+y,5/6+z
2/3+x,1/3+x-y,5/6+z
2/3-y,1/3-x,5/6+z
1/3+x,2/3+y,2/3+z
1/3-y,2/3+x-y,2/3+z
1/3-x+y,2/3-x,2/3+z
1/3+x-y,2/3-y,1/6-z
1/3-x,2/3-x+y,1/6-z
1/3+y,2/3+x,1/6-z
1/3-x,2/3-y,2/3-z
1/3+y,2/3-x+y,2/3-z
1/3+x-y,2/3+x,2/3-z
1/3-x+y,2/3+y,1/6+z
1/3+x,2/3+x-y,1/6+z
1/3-y,2/3-x,1/6+z
loop_
_atom_site_type_symbol
_atom_site_label
_atom_site_fract_x
_atom_site_fract_y
_atom_site_fract_z
Si Si1 0.315051 0.348072 0.682445
Si Si2 0.458408 0.258492 0.159495
Si Si3 0.333334 0.666668 0.345219
Si Si4 0.813297 0.154034 0.270866
O O1 0.355941 0.355941 0.750000
O O2 0.255709 0.241206 0.671879
O O3 0.233835 0.369086 0.681292
O O4 0.392455 0.407193 0.635110
O O5 0.564362 0.305940 0.170773
O O6 0.407671 0.196607 0.216268
O O7 0.423679 0.205865 0.095374
O O8 0.333334 0.666668 0.416667
#
# Coordination Sequence:
#
# PCOD9579582 Si02
#       4
#    36  36  12  36
#     4  10  22  39  63  91 122 164 208 256 313 374
#     4  10  24  41  63  92 121 162 208 258 314 376
#     4  12  24  39  63  94 128 160 207 264 322 374
#     4  10  22  41  63  91 125 161 207 255 311 378
#
# _framework density 21.244356
#
# number of rings (size 3 to 8) (size 9 to 14) (size 15 to 20)
#    0.000    1.800    0.000    3.600    0.000   21.600 
#    0.000    0.000    0.000    2.400    0.000    0.000 
#    0.000    0.000    0.000    0.000    0.000    0.000 
#
# Total GULP energy -222804.485261 kJ/mol
# GULP energy per Si atom -5570.112132 kJ/mol
# Density = 2.119600 g / cm^3
# Si number density = 21.244356 Si / 1000 Ang^3
#
#
#
# Elastic Constant Matrix: (Units=GPa)
#
#
# Indices 1 2 3 4 5 6 
#
# 1 126.1976 71.3844 41.1072 0.6252 0.0002 -0.0001
# 2 71.3844 126.1987 41.1068 -0.6253 0.0000 0.0000
# 3 41.1072 41.1068 52.4983 -0.0002 0.0002 -0.0001
# 4 0.6252 -0.6253 -0.0002 23.8452 0.0002 -0.0002
# 5 0.0002 0.0000 0.0002 0.0002 23.8444 0.6249
# 6 -0.0001 0.0000 -0.0001 -0.0002 0.6249 27.4079
#
#
#
# Elastic Compliance Matrix: (Units=1/GPa)
#
#
# Indices 1 2 3 4 5 6 
#
# 1 0.012881 -0.005374 -0.005878 -0.000479 0.000000 0.000000
# 2 -0.005374 0.012881 -0.005878 0.000479 0.000000 0.000000
# 3 -0.005878 -0.005878 0.028254 0.000000 0.000000 0.000000
# 4 -0.000479 0.000479 0.000000 0.041962 0.000000 0.000000
# 5 0.000000 0.000000 0.000000 0.000000 0.041964 -0.000957
# 6 0.000000 0.000000 0.000000 0.000000 -0.000957 0.036508
#
#
# Mechanical properties :
#
#
# Convention : Reuss Voigt Hill
#
# Bulk Modulus (GPa) = 50.61977 68.01016 59.31496
# Shear Modulus (GPa) = 23.22409 25.10593 24.16501
#
# Velocity S-wave (km/s) = 3.30993 3.44142 3.37631
# Velocity P-wave (km/s) = 6.20376 6.91910 6.57117
#
# Compressibility (1/GPa) = 0.01975513
#
# Stress axis : x y z
#
# Youngs Moduli (GPa) = 77.63424 77.63570 35.39375
#
# Poissons Ratio (x) = 0.41719 0.20806
# Poissons Ratio (y) = 0.41719 0.20804
# Poissons Ratio (z) = 0.45636 0.45634
#
# Static dielectric constant tensor:
#      x y z
#    x 1.902920 0.000000 0.000000 
#    y 0.000000 1.902920 0.000000 
#    z 0.000000 0.000000 1.868140 
# 
# From -- ./inp_files/5119.got.cif
#   From: 2010.05.17/outbox.cif.g08.bks.cpg/sg167_3_cif.got.tgz:5119.got - 2010.05.20 11:09:15.
