data_PCOD9579035
_publ_section_title
;
Structure prediction by ZEFSAII (Michael W. Deem and Ramdas Pophale) SiO2 
 PCOD9579035
Probable space group: R -3 M
;
_chemical_formula_sum "Si O2"
_cell_formula_units_Z 216
_cell_length_a 23.912384
_cell_length_b 23.912384
_cell_length_c 24.724208
_cell_angle_alpha 90.000000
_cell_angle_beta 90.000000
_cell_angle_gamma 120.000000
_cell_volume 12243.307937
_symmetry_space_group_name_H-M "R -3 M"
_symmetry_group_IT_number 166
_symmetry_cell_setting 'hexagonal'
loop_
_space_group_symop_operation_xyz
x,y,z
-y,x-y,z
-x+y,-x,z
x-y,-y,-z
-x,-x+y,-z
y,x,-z
-x,-y,-z
y,-x+y,-z
x-y,x,-z
-x+y,y,z
x,x-y,z
-y,-x,z
2/3+x,1/3+y,1/3+z
2/3-y,1/3+x-y,1/3+z
2/3-x+y,1/3-x,1/3+z
2/3+x-y,1/3-y,1/3-z
2/3-x,1/3-x+y,1/3-z
2/3+y,1/3+x,1/3-z
2/3-x,1/3-y,1/3-z
2/3+y,1/3-x+y,1/3-z
2/3+x-y,1/3+x,1/3-z
2/3-x+y,1/3+y,1/3+z
2/3+x,1/3+x-y,1/3+z
2/3-y,1/3-x,1/3+z
1/3+x,2/3+y,2/3+z
1/3-y,2/3+x-y,2/3+z
1/3-x+y,2/3-x,2/3+z
1/3+x-y,2/3-y,2/3-z
1/3-x,2/3-x+y,2/3-z
1/3+y,2/3+x,2/3-z
1/3-x,2/3-y,2/3-z
1/3+y,2/3-x+y,2/3-z
1/3+x-y,2/3+x,2/3-z
1/3-x+y,2/3+y,2/3+z
1/3+x,2/3+x-y,2/3+z
1/3-y,2/3-x,2/3+z
loop_
_atom_site_type_symbol
_atom_site_label
_atom_site_fract_x
_atom_site_fract_y
_atom_site_fract_z
Si Si1 0.693465 0.654477 0.575469
Si Si2 0.237920 0.261024 0.134928
Si Si3 0.742617 0.976147 0.655656
Si Si4 0.000180 0.125423 0.689929
Si Si5 0.528037 0.593397 0.687838
Si Si6 0.131120 0.130536 0.180243
O O1 0.719670 0.637180 0.522229
O O2 0.624755 0.648234 0.557656
O O3 0.734689 0.725206 0.601633
O O4 0.682436 0.606964 0.624876
O O5 0.197696 0.267107 0.086181
O O6 0.196852 0.187215 0.154220
O O7 0.807826 0.974551 0.658747
O O8 0.675972 0.908754 0.660793
O O9 0.049990 0.099979 0.681383
O O10 0.000608 0.137364 0.754525
O O11 0.928324 0.071676 0.674315
O O12 0.456135 0.543865 0.668701
O O13 0.558723 0.666667 0.666667
O O14 0.120538 0.060269 0.165968
O O15 0.068322 0.136644 0.165413
#
# Coordination Sequence:
#
# PCOD9579035 Si02
#       6
#    36  36  36  36  36  36
#     4   9  18  32  56  77 110 134 172 228 270 331
#     4  10  18  35  53  77 106 141 173 226 282 328
#     4  10  17  37  56  81 107 141 179 221 275 330
#     4  10  20  34  53  79 110 144 182 222 267 322
#     4  11  22  37  57  79 110 147 187 234 280 327
#     4  10  20  33  49  71 102 141 184 225 267 319
#
# _framework density 17.642289999999999
#
# number of rings (size 3 to 8) (size 9 to 14) (size 15 to 20)
#    0.000    2.000    5.000    1.333    0.000    2.000 
#    0.000    5.000    0.000    0.167    0.000    0.000 
#    0.000    0.000    0.000   26.167    0.000    0.000 
#
# Total GULP energy -400848.109852 kJ/mol
# GULP energy per Si atom -5567.334859 kJ/mol
# Density = 1.760214 g / cm^3
# Si number density = 17.642290 Si / 1000 Ang^3
#
#
#
# Elastic Constant Matrix: (Units=GPa)
#
#
# Indices 1 2 3 4 5 6 
#
# 1 78.4498 45.3284 22.6166 3.6477 0.0000 0.0000
# 2 45.3284 78.4498 22.6166 -3.6477 0.0000 0.0000
# 3 22.6166 22.6166 76.3967 0.0000 0.0000 0.0000
# 4 3.6477 -3.6477 0.0000 15.9392 0.0000 0.0000
# 5 0.0000 0.0000 0.0000 0.0000 15.9392 3.6477
# 6 0.0000 0.0000 0.0000 0.0000 3.6477 16.5607
#
#
#
# Elastic Compliance Matrix: (Units=1/GPa)
#
#
# Indices 1 2 3 4 5 6 
#
# 1 0.020427 -0.011368 -0.002682 -0.007276 0.000000 0.000000
# 2 -0.011368 0.020427 -0.002682 0.007276 0.000000 0.000000
# 3 -0.002682 -0.002682 0.014677 0.000000 0.000000 0.000000
# 4 -0.007276 0.007276 0.000000 0.066069 0.000000 0.000000
# 5 0.000000 0.000000 0.000000 0.000000 0.066069 -0.014553
# 6 0.000000 0.000000 0.000000 0.000000 -0.014553 0.063589
#
#
# Mechanical properties :
#
#
# Convention : Reuss Voigt Hill
#
# Bulk Modulus (GPa) = 45.31427 46.04659 45.68043
# Shear Modulus (GPa) = 17.11874 19.20344 18.16109
#
# Velocity S-wave (km/s) = 3.11838 3.30281 3.21192
# Velocity P-wave (km/s) = 6.22146 6.37977 6.30111
#
# Compressibility (1/GPa) = 0.02206810
#
# Stress axis : x y z
#
# Youngs Moduli (GPa) = 48.95514 48.95514 68.13178
#
# Poissons Ratio (x) = 0.55651 0.18272
# Poissons Ratio (y) = 0.55651 0.18272
# Poissons Ratio (z) = 0.13129 0.13129
#
# Static dielectric constant tensor:
#      x y z
#    x 1.616470 0.000000 0.000000 
#    y 0.000000 1.616470 0.000000 
#    z 0.000000 0.000000 1.616280 
# 
# From -- ./inp_files/9688.got.cif
#   From: 2010.05.17/outbox.cif.g08.bks.cpg/sg166_5_cif.got.tgz:9688.got - 2010.05.20 11:04:41.
