data_PCOD9579770
_publ_section_title
;
Structure prediction by ZEFSAII (Michael W. Deem and Ramdas Pophale) SiO2 
 PCOD9579770
Probable space group: P 6
;
_chemical_formula_sum "Si O2"
_cell_formula_units_Z 31
_cell_length_a 15.088988
_cell_length_b 15.088988
_cell_length_c 7.600613
_cell_angle_alpha 90.000000
_cell_angle_beta 90.000000
_cell_angle_gamma 120.000000
_cell_volume 1498.647447
_symmetry_space_group_name_H-M "P 6"
_symmetry_group_IT_number 168
_symmetry_cell_setting 'hexagonal'
loop_
_space_group_symop_operation_xyz
x,y,z
x-y,x,z
-y,x-y,z
-x,-y,z
-x+y,-x,z
y,-x+y,z
loop_
_atom_site_type_symbol
_atom_site_label
_atom_site_fract_x
_atom_site_fract_y
_atom_site_fract_z
Si Si1 0.093820 0.227960 0.620780
Si Si2 0.548249 0.712454 0.742134
Si Si3 0.164042 0.711326 0.087082
Si Si4 0.666668 0.333334 0.698091
Si Si5 0.910085 0.137914 0.207120
Si Si6 0.500000 0.000000 0.910599
Si Si7 0.333334 0.666668 0.135295
O O1 0.164923 0.185689 0.696914
O O2 0.129204 0.346200 0.645065
O O3 0.108633 0.213186 0.414031
O O4 0.446376 0.694574 0.644323
O O5 0.529266 0.601137 0.796779
O O6 0.555204 0.776188 0.917110
O O7 0.124013 0.778137 0.183085
O O8 0.247073 0.693288 0.188369
O O9 0.074219 0.600260 0.024708
O O10 0.666668 0.333334 0.916630
O O11 0.024660 0.187594 0.131464
#
# Coordination Sequence:
#
# PCOD9579770 Si02
#       7
#     6   6   6   2   6   3   2
#     4  10  22  40  61  85 119 158 200 244 298 357
#     4  11  20  37  60  89 116 156 196 243 291 359
#     4  11  20  37  60  89 116 156 196 243 291 359
#     4   9  18  36  55  77 118 153 187 224 289 348
#     4  10  22  40  61  85 119 158 200 244 298 357
#     4  12  20  32  64  90 118 160 200 246 302 356
#     4   9  18  36  55  77 118 153 187 224 289 348
#
# _framework density 20.685317999999999
#
# number of rings (size 3 to 8) (size 9 to 14) (size 15 to 20)
#    0.000    1.548    5.806    2.710    0.000    1.548 
#    0.000    1.935    0.000    2.323    0.000    0.000 
#    0.000    0.000    0.000    0.000    0.000    0.000 
#
# Total GULP energy -172927.175418 kJ/mol
# GULP energy per Si atom -5578.295981 kJ/mol
# Density = 2.063824 g / cm^3
# Si number density = 20.685318 Si / 1000 Ang^3
#
#
#
# Elastic Constant Matrix: (Units=GPa)
#
#
# Indices 1 2 3 4 5 6 
#
# 1 142.9015 33.7358 -6.2275 0.0000 0.0000 -0.0015
# 2 33.7358 142.9247 -6.2236 0.0000 0.0000 -0.0012
# 3 -6.2275 -6.2236 19.6632 0.0000 0.0000 -0.0002
# 4 0.0000 0.0000 0.0000 15.9881 0.0003 0.0000
# 5 0.0000 0.0000 0.0000 0.0003 15.9886 0.0000
# 6 -0.0015 -0.0012 -0.0002 0.0000 0.0000 54.5883
#
#
#
# Elastic Compliance Matrix: (Units=1/GPa)
#
#
# Indices 1 2 3 4 5 6 
#
# 1 0.007475 -0.001685 0.001834 0.000000 0.000000 0.000000
# 2 -0.001685 0.007474 0.001832 0.000000 0.000000 0.000000
# 3 0.001834 0.001832 0.052017 0.000000 0.000000 0.000000
# 4 0.000000 0.000000 0.000000 0.062547 -0.000001 0.000000
# 5 0.000000 0.000000 0.000000 -0.000001 0.062544 0.000000
# 6 0.000000 0.000000 0.000000 0.000000 0.000000 0.018319
#
#
# Mechanical properties :
#
#
# Convention : Reuss Voigt Hill
#
# Bulk Modulus (GPa) = 14.09829 38.67321 26.38575
# Shear Modulus (GPa) = 21.73376 36.25996 28.99686
#
# Velocity S-wave (km/s) = 3.24494 4.19135 3.74814
# Velocity P-wave (km/s) = 4.56836 6.49305 5.61381
#
# Compressibility (1/GPa) = 0.07093057
#
# Stress axis : x y z
#
# Youngs Moduli (GPa) = 133.77085 133.79521 19.22434
#
# Poissons Ratio (x) = 0.22540 -0.03526
# Poissons Ratio (y) = 0.22535 -0.03522
# Poissons Ratio (z) = -0.24538 -0.24513
#
# Static dielectric constant tensor:
#      x y z
#    x 1.754160 0.000000 0.000000 
#    y 0.000000 1.754160 0.000000 
#    z 0.000000 0.000000 1.931800 
# 
# From -- ./inp_files/277.got.cif
#   From: 2010.05.17/outbox.cif.g08.bks.cpg/sg168_cif.got.tgz:277.got - 2010.05.20 11:12:33.
