data_PCOD9579385
_publ_section_title
;
Structure prediction by ZEFSAII (Michael W. Deem and Ramdas Pophale) SiO2 
 PCOD9579385
Probable space group: R -3 M
;
_chemical_formula_sum "Si O2"
_cell_formula_units_Z 54
_cell_length_a 21.000000
_cell_length_b 21.000000
_cell_length_c 21.000000
_cell_angle_alpha 90.000000
_cell_angle_beta 90.000000
_cell_angle_gamma 120.000000
_cell_volume 8020.261264
_symmetry_space_group_name_H-M "R -3 M"
_symmetry_group_IT_number 166
_symmetry_cell_setting 'hexagonal'
loop_
_space_group_symop_operation_xyz
x,y,z
-y,x-y,z
-x+y,-x,z
x-y,-y,-z
-x,-x+y,-z
y,x,-z
-x,-y,-z
y,-x+y,-z
x-y,x,-z
-x+y,y,z
x,x-y,z
-y,-x,z
2/3+x,1/3+y,1/3+z
2/3-y,1/3+x-y,1/3+z
2/3-x+y,1/3-x,1/3+z
2/3+x-y,1/3-y,1/3-z
2/3-x,1/3-x+y,1/3-z
2/3+y,1/3+x,1/3-z
2/3-x,1/3-y,1/3-z
2/3+y,1/3-x+y,1/3-z
2/3+x-y,1/3+x,1/3-z
2/3-x+y,1/3+y,1/3+z
2/3+x,1/3+x-y,1/3+z
2/3-y,1/3-x,1/3+z
1/3+x,2/3+y,2/3+z
1/3-y,2/3+x-y,2/3+z
1/3-x+y,2/3-x,2/3+z
1/3+x-y,2/3-y,2/3-z
1/3-x,2/3-x+y,2/3-z
1/3+y,2/3+x,2/3-z
1/3-x,2/3-y,2/3-z
1/3+y,2/3-x+y,2/3-z
1/3+x-y,2/3+x,2/3-z
1/3-x+y,2/3+y,2/3+z
1/3+x,2/3+x-y,2/3+z
1/3-y,2/3-x,2/3+z
loop_
_atom_site_type_symbol
_atom_site_label
_atom_site_fract_x
_atom_site_fract_y
_atom_site_fract_z
Si Si1 0.520097 0.332036 0.202385
Si Si2 0.073657 0.380994 0.459995
Si Si3 0.485935 0.114087 0.897071
Si Si4 0.333334 0.884407 0.666667
Si Si5 0.119213 0.736137 0.996402
O O1 0.512261 0.256131 0.177845
O O2 0.604402 0.395599 0.205854
O O3 0.475468 0.360472 0.160360
O O4 0.484091 0.317989 0.272257
O O5 0.075844 0.306063 0.453544
O O6 0.063801 0.408610 0.391910
O O7 0.000000 0.359168 0.500000
O O8 0.564610 0.129219 0.920637
O O9 0.491701 0.158368 0.833334
O O10 0.438063 0.129767 0.946984
O O11 0.264969 0.896355 0.650503
O O12 0.196967 0.803034 0.974187
#
# Coordination Sequence:
#
# PCOD9579385 Si02
#       5
#    36  36  36  18  36
#     4  12  25  40  59  85 122 165 206 249 302 373
#     4  11  22  40  63  95 123 163 209 263 322 373
#     4  11  23  42  66  96 129 163 213 270 327 382
#     4  12  22  40  62  90 120 160 208 258 312 352
#     4  12  23  40  65  96 130 163 207 260 319 382
#
# _framework density 6.7329480000000004
#
# number of rings (size 3 to 8) (size 9 to 14) (size 15 to 20)
#    0.000    0.444    4.444    5.556    0.000    3.556 
#    0.000    1.111    0.000    4.000    0.000    0.000 
#    0.000    0.000    0.000    0.000    0.000    0.000 
#
# Total GULP energy -302097.452086 kJ/mol
# GULP energy per Si atom -5594.397261 kJ/mol
# Density = 0.671762 g / cm^3
# Si number density = 6.732948 Si / 1000 Ang^3
#
#
#
# Elastic Constant Matrix: (Units=GPa)
#
#
# Indices 1 2 3 4 5 6 
#
# 1 31.6274 41.8955 -14.2687 -9.1025 0.0003 0.0000
# 2 41.8955 31.6274 -14.2687 9.1025 -0.0003 0.0000
# 3 -14.2687 -14.2687 42.4154 0.0000 0.0000 0.0000
# 4 -9.1025 9.1025 0.0000 1.8956 0.0000 -0.0003
# 5 0.0003 -0.0003 0.0000 0.0000 1.8956 -9.1025
# 6 0.0000 0.0000 0.0000 -0.0003 -9.1025 -5.1341
#
#
#
# Elastic Compliance Matrix: (Units=1/GPa)
#
#
# Indices 1 2 3 4 5 6 
#
# 1 0.002704 0.012940 0.005263 -0.049156 0.000002 0.000000
# 2 0.012940 0.002704 0.005263 0.049156 -0.000002 0.000000
# 3 0.005263 0.005263 0.027117 0.000000 0.000000 0.000000
# 4 -0.049156 0.049156 0.000000 0.055451 0.000000 -0.000004
# 5 0.000002 -0.000002 0.000000 0.000000 0.055451 -0.098312
# 6 0.000000 0.000000 0.000000 -0.000004 -0.098312 -0.020474
#
#
# Mechanical properties :
#
#
# Convention : Reuss Voigt Hill
#
# Bulk Modulus (GPa) = 12.58570 14.70962 13.64766
# Shear Modulus (GPa) = 48.77712 5.88555 27.33134
#
# Velocity S-wave (km/s) = 4.91944 1.70884 3.68246
# Velocity P-wave (km/s) = 6.20583 3.34540 4.98518
#
# Compressibility (1/GPa) = 0.07945527
#
# Stress axis : x y z
#
# Youngs Moduli (GPa) = 369.88442 369.88442 36.87718
#
# Poissons Ratio (x) = -4.78642 -0.19407
# Poissons Ratio (y) = -4.78642 -0.19407
# Poissons Ratio (z) = -1.94657 -1.94657
#
# Static dielectric constant tensor:
#      x y z
#    x 1.712580 0.000000 0.000000 
#    y 0.000000 1.712580 0.000000 
#    z 0.000000 0.000000 1.720270 
# 
# From -- ./inp_files/6738.got.cif
#   From: 2010.05.17/outbox.ucp.g08.bks.cvg/sg166_4_cif.got.tgz:6738.got - 2010.06.11 15:16:39.
