data_PCOD9579006
_publ_section_title
;
Structure prediction by ZEFSAII (Michael W. Deem and Ramdas Pophale) SiO2 
 PCOD9579006
Probable space group: P -3 C 1
;
_chemical_formula_sum "Si O2"
_cell_formula_units_Z 56
_cell_length_a 14.273161
_cell_length_b 14.273161
_cell_length_c 14.695669
_cell_angle_alpha 90.000000
_cell_angle_beta 90.000000
_cell_angle_gamma 120.000000
_cell_volume 2592.748087
_symmetry_space_group_name_H-M "P -3 C 1"
_symmetry_group_IT_number 165
_symmetry_cell_setting 'hexagonal'
loop_
_space_group_symop_operation_xyz
x,y,z
-y,x-y,z
-x+y,-x,z
x-y,-y,1/2-z
-x,-x+y,1/2-z
y,x,1/2-z
-x,-y,-z
y,-x+y,-z
x-y,x,-z
-x+y,y,1/2+z
x,x-y,1/2+z
-y,-x,1/2+z
loop_
_atom_site_type_symbol
_atom_site_label
_atom_site_fract_x
_atom_site_fract_y
_atom_site_fract_z
Si Si1 0.879304 0.540974 0.643049
Si Si2 0.245041 0.123224 0.109718
Si Si3 0.661671 0.540975 0.356953
Si Si4 0.666667 0.333334 0.362367
Si Si5 0.121816 0.876776 0.109718
Si Si6 0.333334 0.666668 0.862359
O O1 0.848465 0.635209 0.636636
O O2 0.887788 0.523040 0.750001
O O3 0.782662 0.429656 0.606504
O O4 0.999999 0.590432 0.602255
O O5 0.203720 0.203720 0.140586
O O6 0.164350 1.000000 0.140738
O O7 0.242241 0.121120 0.000000
O O8 0.646997 0.429659 0.393502
O O9 0.786744 0.635209 0.363366
O O10 0.666668 0.333334 0.250004
#
# Coordination Sequence:
#
# PCOD9579006 Si02
#       6
#    12  12  12   4  12   4
#     4   9  18  32  49  70  94 120 156 198 233 273
#     4   9  17  30  48  70  97 128 159 192 234 282
#     4   9  18  32  49  70  94 120 156 198 233 273
#     4   9  18  33  52  71  94 126 157 188 235 288
#     4   9  17  30  48  70  97 128 159 192 234 282
#     4   9  18  33  52  71  94 126 157 188 235 288
#
# _framework density 21.598704999999999
#
# number of rings (size 3 to 8) (size 9 to 14) (size 15 to 20)
#    0.000    3.000    0.000    0.429    0.000    4.286 
#    0.000    6.429    0.000   10.286    0.000    0.000 
#    0.000    0.000    0.000    0.000    0.000    0.000 
#
# Total GULP energy -312466.475370 kJ/mol
# GULP energy per Si atom -5579.758489 kJ/mol
# Density = 2.154955 g / cm^3
# Si number density = 21.598705 Si / 1000 Ang^3
#
#
#
# Elastic Constant Matrix: (Units=GPa)
#
#
# Indices 1 2 3 4 5 6 
#
# 1 124.6642 114.4669 5.9075 0.0013 0.0000 0.0000
# 2 114.4669 124.6638 5.9074 0.0000 0.0000 0.0000
# 3 5.9075 5.9074 50.2144 -0.0001 0.0000 0.0000
# 4 0.0013 0.0000 -0.0001 10.6242 0.0000 0.0000
# 5 0.0000 0.0000 0.0000 0.0000 10.6240 0.0006
# 6 0.0000 0.0000 0.0000 0.0000 0.0006 5.0980
#
#
#
# Elastic Compliance Matrix: (Units=1/GPa)
#
#
# Indices 1 2 3 4 5 6 
#
# 1 0.051136 -0.046930 -0.000495 -0.000006 0.000000 0.000000
# 2 -0.046930 0.051136 -0.000495 0.000006 0.000000 0.000000
# 3 -0.000495 -0.000495 0.020031 0.000000 0.000000 0.000000
# 4 -0.000006 0.000006 0.000000 0.094125 0.000000 0.000000
# 5 0.000000 0.000000 0.000000 0.000000 0.094127 -0.000011
# 6 0.000000 0.000000 0.000000 0.000000 -0.000011 0.196155
#
#
# Mechanical properties :
#
#
# Convention : Reuss Voigt Hill
#
# Bulk Modulus (GPa) = 37.78695 61.34512 49.56603
# Shear Modulus (GPa) = 8.17833 16.81994 12.49914
#
# Velocity S-wave (km/s) = 1.94800 2.79363 2.40822
# Velocity P-wave (km/s) = 4.75317 6.23456 5.54357
#
# Compressibility (1/GPa) = 0.02646417
#
# Stress axis : x y z
#
# Youngs Moduli (GPa) = 19.55557 19.55552 49.92256
#
# Poissons Ratio (x) = 0.91774 0.02471
# Poissons Ratio (y) = 0.91775 0.02470
# Poissons Ratio (z) = 0.00968 0.00967
#
# Static dielectric constant tensor:
#      x y z
#    x 1.769590 0.000000 0.000000 
#    y 0.000000 1.769590 0.000000 
#    z 0.000000 0.000000 1.830870 
# 
# From -- ./inp_files/2889.got.cif
#   From: 2010.05.17/outbox.cif.g08.bks.cpg/sg165_2_cif.got.tgz:2889.got - 2010.05.20 11:02:39.
