data_PCOD9579930
_publ_section_title
;
Structure prediction by ZEFSAII (Michael W. Deem and Ramdas Pophale) SiO2 
 PCOD9579930
Probable space group: P 61
;
_chemical_formula_sum "Si O2"
_cell_formula_units_Z 48
_cell_length_a 13.140094
_cell_length_b 13.140094
_cell_length_c 17.175346
_cell_angle_alpha 90.000000
_cell_angle_beta 90.000000
_cell_angle_gamma 120.000000
_cell_volume 2568.225008
_symmetry_space_group_name_H-M "P 61"
_symmetry_group_IT_number 169
_symmetry_cell_setting 'hexagonal'
loop_
_space_group_symop_operation_xyz
x,y,z
x-y,x,1/6+z
-y,x-y,1/3+z
-x,-y,1/2+z
-x+y,-x,2/3+z
y,-x+y,5/6+z
loop_
_atom_site_type_symbol
_atom_site_label
_atom_site_fract_x
_atom_site_fract_y
_atom_site_fract_z
Si Si1 0.870107 0.276573 0.152180
Si Si2 0.272137 0.848615 0.805900
Si Si3 0.137096 0.502758 0.413737
Si Si4 0.627326 0.126918 0.759932
Si Si5 0.873082 0.372675 0.396042
Si Si6 0.276572 0.870106 0.503795
Si Si7 0.365663 0.502759 0.408904
Si Si8 0.423521 0.151384 0.516742
O O1 0.812993 0.204479 0.230883
O O2 0.846905 0.387045 0.144320
O O3 0.807515 0.192485 0.077988
O O4 0.012090 0.335811 0.149035
O O5 0.205517 0.763700 0.877590
O O6 0.381687 0.828362 0.791016
O O7 0.135004 0.537200 0.503649
O O8 0.230166 0.460331 0.411320
O O9 0.171637 0.618313 0.364959
O O10 0.008292 0.408810 0.385622
O O11 0.763700 0.205516 0.778386
O O12 0.591190 0.991708 0.770352
O O13 0.846905 0.459860 0.344988
O O14 0.864997 0.402199 0.485659
O O15 0.204478 0.812992 0.425093
O O16 0.335810 0.012090 0.506940
#
# Coordination Sequence:
#
# PCOD9579930 Si02
#       8
#     6   6   6   6   6   6   6   6
#     4  11  21  39  60  85 119 152 198 245 293 343
#     4  11  23  36  61  89 114 154 196 240 289 357
#     4  10  21  37  58  83 120 152 182 241 295 348
#     4  10  22  37  56  87 117 151 193 234 298 351
#     4  10  22  37  56  87 117 151 193 234 298 351
#     4  11  21  39  60  85 119 152 198 245 293 343
#     4  10  21  37  58  83 120 152 182 241 295 348
#     4  11  23  36  61  89 114 154 196 240 289 357
#
# _framework density 18.689952000000002
#
# number of rings (size 3 to 8) (size 9 to 14) (size 15 to 20)
#    0.000    1.500    2.500    3.000    3.500    0.000 
#    0.000    0.000    0.000    4.500    0.000    0.000 
#    0.000    0.000    0.000    0.000    0.000    0.000 
#
# Total GULP energy -268009.138241 kJ/mol
# GULP energy per Si atom -5583.523713 kJ/mol
# Density = 1.864741 g / cm^3
# Si number density = 18.689952 Si / 1000 Ang^3
#
#
#
# Elastic Constant Matrix: (Units=GPa)
#
#
# Indices 1 2 3 4 5 6 
#
# 1 80.0294 35.7708 -8.3052 0.0000 0.0000 0.0000
# 2 35.7708 80.0294 -8.3052 0.0000 0.0000 0.0000
# 3 -8.3052 -8.3052 11.4561 0.0000 0.0000 0.0000
# 4 0.0000 0.0000 0.0000 26.0171 0.0000 0.0000
# 5 0.0000 0.0000 0.0000 0.0000 26.0171 0.0000
# 6 0.0000 0.0000 0.0000 0.0000 0.0000 22.1293
#
#
#
# Elastic Compliance Matrix: (Units=1/GPa)
#
#
# Indices 1 2 3 4 5 6 
#
# 1 0.016116 -0.006478 0.006987 0.000000 0.000000 0.000000
# 2 -0.006478 0.016116 0.006987 0.000000 0.000000 0.000000
# 3 0.006987 0.006987 0.097420 0.000000 0.000000 0.000000
# 4 0.000000 0.000000 0.000000 0.038436 0.000000 0.000000
# 5 0.000000 0.000000 0.000000 0.000000 0.038436 0.000000
# 6 0.000000 0.000000 0.000000 0.000000 0.000000 0.045189
#
#
# Mechanical properties :
#
#
# Convention : Reuss Voigt Hill
#
# Bulk Modulus (GPa) = 6.91354 23.31505 15.11430
# Shear Modulus (GPa) = 17.54773 24.98967 21.26870
#
# Velocity S-wave (km/s) = 3.06745 3.66056 3.37705
# Velocity P-wave (km/s) = 4.03147 5.51071 4.82808
#
# Compressibility (1/GPa) = 0.14464374
#
# Stress axis : x y z
#
# Youngs Moduli (GPa) = 62.04962 62.04962 10.26481
#
# Poissons Ratio (x) = 0.40198 -0.07172
# Poissons Ratio (y) = 0.40198 -0.07172
# Poissons Ratio (z) = -0.43354 -0.43354
#
# Static dielectric constant tensor:
#      x y z
#    x 1.639030 0.000000 0.000000 
#    y 0.000000 1.639030 0.000000 
#    z 0.000000 0.000000 1.708790 
# 
# From -- ./inp_files/1433.got.cif
#   From: 2010.05.17/outbox.cif.g08.bks.cpg/sg169_cif.got.tgz:1433.got - 2010.05.20 11:12:54.
