data_PCOD9579691
_publ_section_title
;
Structure prediction by ZEFSAII (Michael W. Deem and Ramdas Pophale) SiO2 
 PCOD9579691
Probable space group: R -3 C 
;
_chemical_formula_sum "Si O2"
_cell_formula_units_Z 144
_cell_length_a 19.672646
_cell_length_b 19.672646
_cell_length_c 19.169515
_cell_angle_alpha 90.000000
_cell_angle_beta 90.000000
_cell_angle_gamma 120.000000
_cell_volume 6424.913884
_symmetry_space_group_name_H-M "R -3 C "
_symmetry_group_IT_number 167
_symmetry_cell_setting 'hexagonal'
loop_
_space_group_symop_operation_xyz
x,y,z
-y,x-y,z
-x+y,-x,z
x-y,-y,1/2-z
-x,-x+y,1/2-z
y,x,1/2-z
-x,-y,-z
y,-x+y,-z
x-y,x,-z
-x+y,y,1/2+z
x,x-y,1/2+z
-y,-x,1/2+z
2/3+x,1/3+y,1/3+z
2/3-y,1/3+x-y,1/3+z
2/3-x+y,1/3-x,1/3+z
2/3+x-y,1/3-y,5/6-z
2/3-x,1/3-x+y,5/6-z
2/3+y,1/3+x,5/6-z
2/3-x,1/3-y,1/3-z
2/3+y,1/3-x+y,1/3-z
2/3+x-y,1/3+x,1/3-z
2/3-x+y,1/3+y,5/6+z
2/3+x,1/3+x-y,5/6+z
2/3-y,1/3-x,5/6+z
1/3+x,2/3+y,2/3+z
1/3-y,2/3+x-y,2/3+z
1/3-x+y,2/3-x,2/3+z
1/3+x-y,2/3-y,1/6-z
1/3-x,2/3-x+y,1/6-z
1/3+y,2/3+x,1/6-z
1/3-x,2/3-y,2/3-z
1/3+y,2/3-x+y,2/3-z
1/3+x-y,2/3+x,2/3-z
1/3-x+y,2/3+y,1/6+z
1/3+x,2/3+x-y,1/6+z
1/3-y,2/3-x,1/6+z
loop_
_atom_site_type_symbol
_atom_site_label
_atom_site_fract_x
_atom_site_fract_y
_atom_site_fract_z
Si Si1 0.376599 0.958122 0.635196
Si Si2 0.042089 0.885293 0.533438
Si Si3 0.512082 0.132824 0.652756
Si Si4 0.032954 0.264646 0.672775
O O1 0.409984 0.913622 0.679902
O O2 0.287676 0.929959 0.659304
O O3 0.366945 0.931003 0.554539
O O4 0.429840 0.050561 0.648895
O O5 0.008832 0.859361 0.611087
O O6 0.974564 0.868076 0.477780
O O7 0.512810 0.179477 0.583334
O O8 0.576325 0.104673 0.661185
O O9 0.000000 0.250045 0.750000
#
# Coordination Sequence:
#
# PCOD9579691 Si02
#       4
#    36  36  36  36
#     4  11  24  45  69 104 138 182 236 291 365 428
#     4  12  26  46  70  99 141 193 239 288 356 426
#     4  12  26  43  73 105 140 188 240 294 355 431
#     4  11  24  44  67 105 146 183 232 301 364 419
#
# _framework density 22.412752000000001
#
# number of rings (size 3 to 8) (size 9 to 14) (size 15 to 20)
#    0.000    0.500    5.000    4.000    7.000    1.000 
#    0.000    0.000    0.000    0.500    0.000    0.000 
#    0.000    0.000    0.000    0.000    0.000    0.000 
#
# Total GULP energy -268058.739790 kJ/mol
# GULP energy per Si atom -5584.557079 kJ/mol
# Density = 2.236174 g / cm^3
# Si number density = 22.412752 Si / 1000 Ang^3
#
#
#
# Elastic Constant Matrix: (Units=GPa)
#
#
# Indices 1 2 3 4 5 6 
#
# 1 48.4340 13.1251 34.0861 7.7227 -0.0003 0.0000
# 2 13.1251 48.4340 34.0861 -7.7227 0.0003 0.0000
# 3 34.0861 34.0861 159.5500 0.0000 0.0000 0.0000
# 4 7.7227 -7.7227 0.0000 16.3563 0.0000 0.0003
# 5 -0.0003 0.0003 0.0000 0.0000 16.3563 7.7227
# 6 0.0000 0.0000 0.0000 0.0003 7.7227 17.6544
#
#
#
# Elastic Compliance Matrix: (Units=1/GPa)
#
#
# Indices 1 2 3 4 5 6 
#
# 1 0.028486 -0.007207 -0.004546 -0.016853 0.000001 0.000000
# 2 -0.007207 0.028486 -0.004546 0.016853 -0.000001 0.000000
# 3 -0.004546 -0.004546 0.008210 0.000000 0.000000 0.000000
# 4 -0.016853 0.016853 0.000000 0.077053 0.000000 -0.000001
# 5 0.000001 -0.000001 0.000000 0.000000 0.077053 -0.033706
# 6 0.000000 0.000000 0.000000 -0.000001 -0.033706 0.071387
#
#
# Mechanical properties :
#
#
# Convention : Reuss Voigt Hill
#
# Bulk Modulus (GPa) = 30.69006 46.55696 38.62351
# Shear Modulus (GPa) = 14.96400 21.74811 18.35606
#
# Velocity S-wave (km/s) = 2.58671 3.11842 2.86492
# Velocity P-wave (km/s) = 4.75860 5.81237 5.31168
#
# Compressibility (1/GPa) = 0.03258384
#
# Stress axis : x y z
#
# Youngs Moduli (GPa) = 35.10467 35.10467 121.80213
#
# Poissons Ratio (x) = 0.25301 0.55371
# Poissons Ratio (y) = 0.25301 0.55371
# Poissons Ratio (z) = 0.15959 0.15959
#
# Static dielectric constant tensor:
#      x y z
#    x 1.847820 0.000000 0.000000 
#    y 0.000000 1.847820 0.000000 
#    z 0.000000 0.000000 1.875690 
# 
# From -- ./inp_files/4294.got.cif
#   From: 2010.05.17/outbox.cif.g08.bks.cpg/sg167_3_cif.got.tgz:4294.got - 2010.05.20 11:09:15.
