data_PCOD9579379
_publ_section_title
;
Structure prediction by ZEFSAII (Michael W. Deem and Ramdas Pophale) SiO2 
 PCOD9579379
Probable space group: R -3 M
;
_chemical_formula_sum "Si O2"
_cell_formula_units_Z 54
_cell_length_a 21.000000
_cell_length_b 21.000000
_cell_length_c 21.000000
_cell_angle_alpha 90.000000
_cell_angle_beta 90.000000
_cell_angle_gamma 120.000000
_cell_volume 8020.261264
_symmetry_space_group_name_H-M "R -3 M"
_symmetry_group_IT_number 166
_symmetry_cell_setting 'hexagonal'
loop_
_space_group_symop_operation_xyz
x,y,z
-y,x-y,z
-x+y,-x,z
x-y,-y,-z
-x,-x+y,-z
y,x,-z
-x,-y,-z
y,-x+y,-z
x-y,x,-z
-x+y,y,z
x,x-y,z
-y,-x,z
2/3+x,1/3+y,1/3+z
2/3-y,1/3+x-y,1/3+z
2/3-x+y,1/3-x,1/3+z
2/3+x-y,1/3-y,1/3-z
2/3-x,1/3-x+y,1/3-z
2/3+y,1/3+x,1/3-z
2/3-x,1/3-y,1/3-z
2/3+y,1/3-x+y,1/3-z
2/3+x-y,1/3+x,1/3-z
2/3-x+y,1/3+y,1/3+z
2/3+x,1/3+x-y,1/3+z
2/3-y,1/3-x,1/3+z
1/3+x,2/3+y,2/3+z
1/3-y,2/3+x-y,2/3+z
1/3-x+y,2/3-x,2/3+z
1/3+x-y,2/3-y,2/3-z
1/3-x,2/3-x+y,2/3-z
1/3+y,2/3+x,2/3-z
1/3-x,2/3-y,2/3-z
1/3+y,2/3-x+y,2/3-z
1/3+x-y,2/3+x,2/3-z
1/3-x+y,2/3+y,2/3+z
1/3+x,2/3+x-y,2/3+z
1/3-y,2/3-x,2/3+z
loop_
_atom_site_type_symbol
_atom_site_label
_atom_site_fract_x
_atom_site_fract_y
_atom_site_fract_z
Si Si1 0.288745 0.862819 0.028596
Si Si2 0.457127 0.394087 0.374025
Si Si3 0.330870 0.523122 0.417100
Si Si4 0.917259 0.583925 0.833334
Si Si5 0.059883 0.796379 0.142010
O O1 0.216045 0.783956 0.031030
O O2 0.320772 0.878592 0.098903
O O3 0.260345 0.916112 0.999867
O O4 0.341857 0.858204 0.977306
O O5 0.532609 0.467392 0.388453
O O6 0.465578 0.333334 0.333334
O O7 0.417623 0.344454 0.434564
O O8 0.278566 0.557131 0.408765
O O9 0.414208 0.585793 0.425993
O O10 0.303718 0.470294 0.476957
O O11 0.918235 0.660499 0.824449
O O12 0.134813 0.865188 0.111239
#
# Coordination Sequence:
#
# PCOD9579379 Si02
#       5
#    36  36  36  18  36
#     4  10  23  40  61  88 117 153 198 243 297 354
#     4  11  21  38  62  86 119 157 192 237 285 343
#     4  10  22  40  60  85 116 154 198 243 292 348
#     4  12  22  38  59  84 121 154 192 246 300 350
#     4  11  23  37  59  90 120 155 196 238 292 350
#
# _framework density 6.7329480000000004
#
# number of rings (size 3 to 8) (size 9 to 14) (size 15 to 20)
#    0.000    1.333    2.222    3.556    0.000    1.778 
#    0.000    6.667    0.000    5.333    0.000    3.889 
#    0.000    0.000    0.000    0.000    0.000    0.000 
#
# Total GULP energy -300625.125916 kJ/mol
# GULP energy per Si atom -5567.131961 kJ/mol
# Density = 0.671762 g / cm^3
# Si number density = 6.732948 Si / 1000 Ang^3
#
#
#
# Elastic Constant Matrix: (Units=GPa)
#
#
# Indices 1 2 3 4 5 6 
#
# 1 20.7252 -30.0702 5.4323 2.1064 -0.0001 0.0000
# 2 -30.0702 20.7252 5.4323 -2.1064 0.0001 0.0000
# 3 5.4323 5.4323 71.8606 0.0000 0.0000 0.0000
# 4 2.1064 -2.1064 0.0000 25.2330 0.0000 0.0001
# 5 -0.0001 0.0001 0.0000 0.0000 25.2330 2.1064
# 6 0.0000 0.0000 0.0000 0.0001 2.1064 25.3977
#
#
#
# Elastic Compliance Matrix: (Units=1/GPa)
#
#
# Indices 1 2 3 4 5 6 
#
# 1 -0.039270 -0.059094 0.007436 -0.001655 0.000000 0.000000
# 2 -0.059094 -0.039270 0.007436 0.001655 0.000000 0.000000
# 3 0.007436 0.007436 0.012792 0.000000 0.000000 0.000000
# 4 -0.001655 0.001655 0.000000 0.039907 0.000000 0.000000
# 5 0.000000 0.000000 0.000000 0.000000 0.039907 -0.003310
# 6 0.000000 0.000000 0.000000 0.000000 -0.003310 0.039648
#
#
# Mechanical properties :
#
#
# Convention : Reuss Voigt Hill
#
# Bulk Modulus (GPa) = -6.48543 8.32218 0.91838
# Shear Modulus (GPa) = 55.08956 24.00719 39.54837
#
# Velocity S-wave (km/s) = 5.22808 3.45126 4.42968
# Velocity P-wave (km/s) = 5.76420 4.47333 5.15930
#
# Compressibility (1/GPa) = -0.15419178
#
# Stress axis : x y z
#
# Youngs Moduli (GPa) = -25.46499 -25.46499 78.17620
#
# Poissons Ratio (x) = -1.50482 -0.58130
# Poissons Ratio (y) = -1.50482 -0.58130
# Poissons Ratio (z) = 0.18935 0.18935
#
# Static dielectric constant tensor:
#      x y z
#    x 1.727340 0.000000 0.000000 
#    y 0.000000 1.727340 0.000000 
#    z 0.000000 0.000000 1.864750 
# 
# From -- ./inp_files/6782.got.cif
#   From: 2010.05.17/outbox.ucp.g08.bks.cvg/sg166_4_cif.got.tgz:6782.got - 2010.06.11 15:16:39.
