data_PCOD9579004
_publ_section_title
;
Structure prediction by ZEFSAII (Michael W. Deem and Ramdas Pophale) SiO2 
 PCOD9579004
Probable space group: P -3 C 1
;
_chemical_formula_sum "Si O2"
_cell_formula_units_Z 36
_cell_length_a 13.952508
_cell_length_b 13.952508
_cell_length_c 7.934419
_cell_angle_alpha 90.000000
_cell_angle_beta 90.000000
_cell_angle_gamma 120.000000
_cell_volume 1337.674114
_symmetry_space_group_name_H-M "P -3 C 1"
_symmetry_group_IT_number 165
_symmetry_cell_setting 'hexagonal'
loop_
_space_group_symop_operation_xyz
x,y,z
-y,x-y,z
-x+y,-x,z
x-y,-y,1/2-z
-x,-x+y,1/2-z
y,x,1/2-z
-x,-y,-z
y,-x+y,-z
x-y,x,-z
-x+y,y,1/2+z
x,x-y,1/2+z
-y,-x,1/2+z
loop_
_atom_site_type_symbol
_atom_site_label
_atom_site_fract_x
_atom_site_fract_y
_atom_site_fract_z
Si Si1 0.477066 0.881924 0.172223
Si Si2 0.731357 0.543996 0.171858
Si Si3 0.792917 0.909081 0.390767
O O1 0.356333 0.870774 0.175944
O O2 0.468808 0.786234 0.294502
O O3 0.561420 0.000000 0.250000
O O4 0.519333 0.860411 0.996695
O O5 0.835668 0.666810 0.165603
O O6 0.826229 0.819531 0.452263
O O7 0.865318 0.000000 0.250000
#
# Coordination Sequence:
#
# PCOD9579004 Si02
#       3
#    12  12  12
#     4  12  27  49  78 116 156 207 268 336 409 491
#     4  12  26  49  78 115 160 211 270 341 413 495
#     4  12  27  50  81 121 165 218 276 343 418 502
#
# _framework density 26.912383999999999
#
# number of rings (size 3 to 8) (size 9 to 14) (size 15 to 20)
#    0.000    0.000    0.000   10.000    0.000    5.333 
#    0.000    0.000    0.000    0.000    0.000    0.000 
#    0.000    0.000    0.000    0.000    0.000    0.000 
#
# Total GULP energy -201746.297025 kJ/mol
# GULP energy per Si atom -5604.063806 kJ/mol
# Density = 2.685113 g / cm^3
# Si number density = 26.912384 Si / 1000 Ang^3
#
#
#
# Elastic Constant Matrix: (Units=GPa)
#
#
# Indices 1 2 3 4 5 6 
#
# 1 148.5427 27.6954 24.4343 -2.7661 0.0000 0.0000
# 2 27.6954 148.5427 24.4343 2.7661 0.0000 0.0000
# 3 24.4343 24.4343 110.2153 0.0000 0.0000 0.0000
# 4 -2.7661 2.7661 0.0000 49.8002 0.0000 0.0000
# 5 0.0000 0.0000 0.0000 0.0000 49.8002 -2.7661
# 6 0.0000 0.0000 0.0000 0.0000 -2.7661 60.4237
#
#
#
# Elastic Compliance Matrix: (Units=1/GPa)
#
#
# Indices 1 2 3 4 5 6 
#
# 1 0.007171 -0.001125 -0.001340 0.000461 0.000000 0.000000
# 2 -0.001125 0.007171 -0.001340 -0.000461 0.000000 0.000000
# 3 -0.001340 -0.001340 0.009667 0.000000 0.000000 0.000000
# 4 0.000461 -0.000461 0.000000 0.020131 0.000000 0.000000
# 5 0.000000 0.000000 0.000000 0.000000 0.020131 0.000922
# 6 0.000000 0.000000 0.000000 0.000000 0.000922 0.016592
#
#
# Mechanical properties :
#
#
# Convention : Reuss Voigt Hill
#
# Bulk Modulus (GPa) = 60.98411 62.26987 61.62699
# Shear Modulus (GPa) = 53.22458 54.05391 53.63924
#
# Velocity S-wave (km/s) = 4.45196 4.48651 4.46927
# Velocity P-wave (km/s) = 7.00971 7.07295 7.04140
#
# Compressibility (1/GPa) = 0.01639772
#
# Stress axis : x y z
#
# Youngs Moduli (GPa) = 139.45254 139.45254 103.43995
#
# Poissons Ratio (x) = 0.15690 0.13864
# Poissons Ratio (y) = 0.15690 0.13864
# Poissons Ratio (z) = 0.18691 0.18691
#
# Static dielectric constant tensor:
#      x y z
#    x 2.057610 0.000000 0.000000 
#    y 0.000000 2.057610 0.000000 
#    z 0.000000 0.000000 2.263290 
# 
# From -- ./inp_files/400.got.cif
#   From: 2010.05.17/outbox.cif.g08.bks.cpg/sg165_1_cif.got.tgz:400.got - 2010.05.20 11:02:39.
