data_PCOD9579838
_publ_section_title
;
Structure prediction by ZEFSAII (Michael W. Deem and Ramdas Pophale) SiO2 
 PCOD9579838
Probable space group: P 61
;
_chemical_formula_sum "Si O2"
_cell_formula_units_Z 42
_cell_length_a 14.642987
_cell_length_b 14.642987
_cell_length_c 11.481635
_cell_angle_alpha 90.000000
_cell_angle_beta 90.000000
_cell_angle_gamma 120.000000
_cell_volume 2132.032015
_symmetry_space_group_name_H-M "P 61"
_symmetry_group_IT_number 169
_symmetry_cell_setting 'hexagonal'
loop_
_space_group_symop_operation_xyz
x,y,z
x-y,x,1/6+z
-y,x-y,1/3+z
-x,-y,1/2+z
-x+y,-x,2/3+z
y,-x+y,5/6+z
loop_
_atom_site_type_symbol
_atom_site_label
_atom_site_fract_x
_atom_site_fract_y
_atom_site_fract_z
Si Si1 0.281227 0.691584 0.364940
Si Si2 0.570743 0.123411 0.722383
Si Si3 0.360408 0.347632 0.996455
Si Si4 0.275269 0.752059 0.845995
Si Si5 0.859514 0.822642 0.820192
Si Si6 0.038002 0.658806 0.927198
Si Si7 0.156711 0.163056 0.937594
O O1 0.320833 0.798901 0.291701
O O2 0.199545 0.651182 0.471768
O O3 0.233350 0.593296 0.277047
O O4 0.392613 0.711363 0.415737
O O5 0.470821 0.058182 0.804848
O O6 0.581407 0.035661 0.649943
O O7 0.249023 0.282961 0.931657
O O8 0.436135 0.301293 0.964057
O O9 0.340833 0.332311 0.134014
O O10 0.159425 0.692378 0.903894
O O11 0.846931 0.918092 0.769081
O O12 0.749361 0.716270 0.833788
O O13 0.919468 0.805698 0.709284
O O14 0.148349 0.100063 0.821042
#
# Coordination Sequence:
#
# PCOD9579838 Si02
#       7
#     6   6   6   6   6   6   6
#     4  10  23  40  59  90 127 162 203 264 306 376
#     4  11  25  40  64  90 132 166 209 255 322 368
#     4  12  20  38  63  93 118 162 209 255 302 377
#     4  11  20  38  63  90 117 162 210 253 316 362
#     4  10  19  35  62  88 117 149 202 252 292 355
#     4  12  20  38  63  93 118 162 209 255 302 377
#     4  10  19  35  62  88 117 149 202 252 292 355
#
# _framework density 19.699517
#
# number of rings (size 3 to 8) (size 9 to 14) (size 15 to 20)
#    0.000    1.143    7.143    0.857    0.000    0.000 
#    0.000    0.000   15.714    0.000    0.000    0.000 
#    0.000    0.000    0.000    0.000    0.000    0.000 
#
# Total GULP energy -234381.287789 kJ/mol
# GULP energy per Si atom -5580.506852 kJ/mol
# Density = 1.965468 g / cm^3
# Si number density = 19.699517 Si / 1000 Ang^3
#
#
#
# Elastic Constant Matrix: (Units=GPa)
#
#
# Indices 1 2 3 4 5 6 
#
# 1 57.4388 12.0006 2.7676 0.0000 0.0000 0.0000
# 2 12.0006 57.4388 2.7676 0.0000 0.0000 0.0000
# 3 2.7676 2.7676 26.5714 0.0000 0.0000 0.0000
# 4 0.0000 0.0000 0.0000 11.7592 0.0000 0.0000
# 5 0.0000 0.0000 0.0000 0.0000 11.7592 0.0000
# 6 0.0000 0.0000 0.0000 0.0000 0.0000 22.7191
#
#
#
# Elastic Compliance Matrix: (Units=1/GPa)
#
#
# Indices 1 2 3 4 5 6 
#
# 1 0.018265 -0.003743 -0.001513 0.000000 0.000000 0.000000
# 2 -0.003743 0.018265 -0.001513 0.000000 0.000000 0.000000
# 3 -0.001513 -0.001513 0.037949 0.000000 0.000000 0.000000
# 4 0.000000 0.000000 0.000000 0.085040 0.000000 0.000000
# 5 0.000000 0.000000 0.000000 0.000000 0.085040 0.000000
# 6 0.000000 0.000000 0.000000 0.000000 0.000000 0.044016
#
#
# Mechanical properties :
#
#
# Convention : Reuss Voigt Hill
#
# Bulk Modulus (GPa) = 16.40886 19.61338 18.01112
# Shear Modulus (GPa) = 15.50749 17.50840 16.50794
#
# Velocity S-wave (km/s) = 2.80875 2.98446 2.89794
# Velocity P-wave (km/s) = 4.34355 4.67482 4.51223
#
# Compressibility (1/GPa) = 0.06094267
#
# Stress axis : x y z
#
# Youngs Moduli (GPa) = 54.75026 54.75026 26.35084
#
# Poissons Ratio (x) = 0.20494 0.03986
# Poissons Ratio (y) = 0.20494 0.03986
# Poissons Ratio (z) = 0.08281 0.08281
#
# Static dielectric constant tensor:
#      x y z
#    x 1.706170 0.000000 0.000000 
#    y 0.000000 1.706170 0.000000 
#    z 0.000000 0.000000 1.702570 
# 
# From -- ./inp_files/956.got.cif
#   From: 2010.05.17/outbox.cif.g08.bks.cpg/sg169_cif.got.tgz:956.got - 2010.05.20 11:12:54.
