data_PCOD9579864
_publ_section_title
;
Structure prediction by ZEFSAII (Michael W. Deem and Ramdas Pophale) SiO2 
 PCOD9579864
Probable space group: P 61
;
_chemical_formula_sum "Si O2"
_cell_formula_units_Z 48
_cell_length_a 13.588464
_cell_length_b 13.588464
_cell_length_c 16.353618
_cell_angle_alpha 90.000000
_cell_angle_beta 90.000000
_cell_angle_gamma 120.000000
_cell_volume 2615.081431
_symmetry_space_group_name_H-M "P 61"
_symmetry_group_IT_number 169
_symmetry_cell_setting 'hexagonal'
loop_
_space_group_symop_operation_xyz
x,y,z
x-y,x,1/6+z
-y,x-y,1/3+z
-x,-y,1/2+z
-x+y,-x,2/3+z
y,-x+y,5/6+z
loop_
_atom_site_type_symbol
_atom_site_label
_atom_site_fract_x
_atom_site_fract_y
_atom_site_fract_z
Si Si1 0.939975 0.627833 0.578070
Si Si2 0.147227 0.519154 0.921800
Si Si3 0.399515 0.492449 0.485804
Si Si4 0.117356 0.392994 0.338180
Si Si5 0.264684 0.656412 0.288882
Si Si6 0.901843 0.279802 0.221172
Si Si7 0.328926 0.376515 0.308883
Si Si8 0.855679 0.480759 0.239550
O O1 0.922581 0.584847 0.484009
O O2 0.899700 0.509244 0.624739
O O3 0.847331 0.666768 0.584526
O O4 0.056809 0.708774 0.626282
O O5 0.151372 0.483089 0.830480
O O6 0.277466 0.613243 0.943269
O O7 0.082962 0.591526 0.925023
O O8 0.330828 0.537675 0.539239
O O9 0.356514 0.417874 0.403292
O O10 0.439534 0.422358 0.541376
O O11 0.184577 0.530062 0.326358
O O12 0.199944 0.348401 0.305992
O O13 0.011656 0.338206 0.277555
O O14 0.068862 0.356049 0.430723
O O15 0.283924 0.756621 0.349492
O O16 0.841230 0.354488 0.236068
#
# Coordination Sequence:
#
# PCOD9579864 Si02
#       8
#     6   6   6   6   6   6   6   6
#     4  10  20  36  55  81 115 157 192 256 290 363
#     4  10  20  33  51  81 113 152 199 231 297 354
#     4  10  22  37  51  78 118 159 203 239 292 359
#     4  11  21  36  56  83 117 156 193 255 291 361
#     4  11  21  32  55  78 115 164 202 241 293 354
#     4  11  19  37  55  78 121 150 198 247 307 348
#     4  10  22  35  56  80 118 150 199 245 299 356
#     4  11  21  34  53  77 117 162 198 240 287 361
#
# _framework density 18.355069
#
# number of rings (size 3 to 8) (size 9 to 14) (size 15 to 20)
#    0.000    1.500    5.000    1.500    5.250    0.000 
#    4.500    0.000    0.000    0.000    0.000    0.000 
#   18.750    0.000    0.000    0.000    0.000    0.000 
#
# Total GULP energy -267371.987181 kJ/mol
# GULP energy per Si atom -5570.249733 kJ/mol
# Density = 1.831329 g / cm^3
# Si number density = 18.355069 Si / 1000 Ang^3
#
#
#
# Elastic Constant Matrix: (Units=GPa)
#
#
# Indices 1 2 3 4 5 6 
#
# 1 36.3644 11.0723 19.6156 0.0000 0.0000 0.0000
# 2 11.0723 36.3644 19.6156 0.0000 0.0000 0.0000
# 3 19.6156 19.6156 111.0034 0.0000 0.0000 0.0000
# 4 0.0000 0.0000 0.0000 23.3400 0.0000 0.0000
# 5 0.0000 0.0000 0.0000 0.0000 23.3400 0.0000
# 6 0.0000 0.0000 0.0000 0.0000 0.0000 12.6461
#
#
#
# Elastic Compliance Matrix: (Units=1/GPa)
#
#
# Indices 1 2 3 4 5 6 
#
# 1 0.032113 -0.007425 -0.004363 0.000000 0.000000 0.000000
# 2 -0.007425 0.032113 -0.004363 0.000000 0.000000 0.000000
# 3 -0.004363 -0.004363 0.010551 0.000000 0.000000 0.000000
# 4 0.000000 0.000000 0.000000 0.042845 0.000000 0.000000
# 5 0.000000 0.000000 0.000000 0.000000 0.042845 0.000000
# 6 0.000000 0.000000 0.000000 0.000000 0.000000 0.079076
#
#
# Mechanical properties :
#
#
# Convention : Reuss Voigt Hill
#
# Bulk Modulus (GPa) = 23.54208 31.59324 27.56766
# Shear Modulus (GPa) = 17.48237 20.76047 19.12142
#
# Velocity S-wave (km/s) = 3.08953 3.36675 3.23112
# Velocity P-wave (km/s) = 5.05774 5.68885 5.38255
#
# Compressibility (1/GPa) = 0.04247713
#
# Stress axis : x y z
#
# Youngs Moduli (GPa) = 31.13967 31.13967 94.78093
#
# Poissons Ratio (x) = 0.23120 0.41351
# Poissons Ratio (y) = 0.23120 0.41351
# Poissons Ratio (z) = 0.13586 0.13586
#
# Static dielectric constant tensor:
#      x y z
#    x 1.652470 0.000000 0.000000 
#    y 0.000000 1.652470 0.000000 
#    z 0.000000 0.000000 1.728760 
# 
# From -- ./inp_files/1235.got.cif
#   From: 2010.05.17/outbox.cif.g08.bks.cpg/sg169_cif.got.tgz:1235.got - 2010.05.20 11:12:54.
