data_PCOD9579069
_publ_section_title
;
Structure prediction by ZEFSAII (Michael W. Deem and Ramdas Pophale) SiO2 
 PCOD9579069
Probable space group: R -3 M
;
_chemical_formula_sum "Si O2"
_cell_formula_units_Z 108
_cell_length_a 19.671122
_cell_length_b 19.671122
_cell_length_c 18.639582
_cell_angle_alpha 90.000000
_cell_angle_beta 90.000000
_cell_angle_gamma 120.000000
_cell_volume 6246.332008
_symmetry_space_group_name_H-M "R -3 M"
_symmetry_group_IT_number 166
_symmetry_cell_setting 'hexagonal'
loop_
_space_group_symop_operation_xyz
x,y,z
-y,x-y,z
-x+y,-x,z
x-y,-y,-z
-x,-x+y,-z
y,x,-z
-x,-y,-z
y,-x+y,-z
x-y,x,-z
-x+y,y,z
x,x-y,z
-y,-x,z
2/3+x,1/3+y,1/3+z
2/3-y,1/3+x-y,1/3+z
2/3-x+y,1/3-x,1/3+z
2/3+x-y,1/3-y,1/3-z
2/3-x,1/3-x+y,1/3-z
2/3+y,1/3+x,1/3-z
2/3-x,1/3-y,1/3-z
2/3+y,1/3-x+y,1/3-z
2/3+x-y,1/3+x,1/3-z
2/3-x+y,1/3+y,1/3+z
2/3+x,1/3+x-y,1/3+z
2/3-y,1/3-x,1/3+z
1/3+x,2/3+y,2/3+z
1/3-y,2/3+x-y,2/3+z
1/3-x+y,2/3-x,2/3+z
1/3+x-y,2/3-y,2/3-z
1/3-x,2/3-x+y,2/3-z
1/3+y,2/3+x,2/3-z
1/3-x,2/3-y,2/3-z
1/3+y,2/3-x+y,2/3-z
1/3+x-y,2/3+x,2/3-z
1/3-x+y,2/3+y,2/3+z
1/3+x,2/3+x-y,2/3+z
1/3-y,2/3-x,2/3+z
loop_
_atom_site_type_symbol
_atom_site_label
_atom_site_fract_x
_atom_site_fract_y
_atom_site_fract_z
Si Si1 0.908631 0.310421 0.981096
Si Si2 0.865691 0.731381 0.604890
Si Si3 0.319012 0.159506 0.250772
Si Si4 0.239714 0.760287 0.654270
Si Si5 0.173661 0.826340 0.549603
O O1 0.888177 0.374502 0.950983
O O2 0.887042 0.244525 0.920929
O O3 0.865859 0.262398 0.052639
O O4 0.000000 0.353873 0.000000
O O5 0.833334 0.666667 0.666667
O O6 0.840781 0.681561 0.531627
O O7 0.333334 0.166667 0.166667
O O8 0.403882 0.201941 0.291648
O O9 0.196913 0.666667 0.666667
O O10 0.219003 0.780998 0.575303
#
# Coordination Sequence:
#
# PCOD9579069 Si02
#       5
#    36  18  18  18  18
#     4   9  19  33  50  75 102 133 169 211 260 309
#     4  10  20  30  49  75 101 130 166 214 261 303
#     4  10  20  35  55  77 104 138 173 213 259 314
#     4  10  21  36  54  77 105 141 179 217 260 311
#     4  10  18  33  52  73 103 137 172 214 260 316
#
# _framework density 17.290147000000001
#
# number of rings (size 3 to 8) (size 9 to 14) (size 15 to 20)
#    0.000    2.667    0.000    5.167    0.000   10.667 
#    0.000    0.000    0.000    5.333    0.000    9.333 
#    0.000    0.000    0.000    0.000    0.000    0.000 
#
# Total GULP energy -200425.987121 kJ/mol
# GULP energy per Si atom -5567.388531 kJ/mol
# Density = 1.725079 g / cm^3
# Si number density = 17.290147 Si / 1000 Ang^3
#
#
#
# Elastic Constant Matrix: (Units=GPa)
#
#
# Indices 1 2 3 4 5 6 
#
# 1 116.1153 55.3850 36.7770 8.3117 -0.0001 0.0000
# 2 55.3850 116.1153 36.7770 -8.3117 0.0001 0.0000
# 3 36.7770 36.7770 150.9565 0.0000 0.0000 0.0000
# 4 8.3117 -8.3117 0.0000 14.0856 0.0000 0.0001
# 5 -0.0001 0.0001 0.0000 0.0000 14.0856 8.3117
# 6 0.0000 0.0000 0.0000 0.0001 8.3117 30.3651
#
#
#
# Elastic Compliance Matrix: (Units=1/GPa)
#
#
# Indices 1 2 3 4 5 6 
#
# 1 0.013075 -0.006564 -0.001586 -0.011588 0.000000 0.000000
# 2 -0.006564 0.013075 -0.001586 0.011588 0.000000 0.000000
# 3 -0.001586 -0.001586 0.007397 0.000000 0.000000 0.000000
# 4 -0.011588 0.011588 0.000000 0.084671 0.000000 0.000000
# 5 0.000000 0.000000 0.000000 0.000000 0.084671 -0.023176
# 6 0.000000 0.000000 0.000000 0.000000 -0.023176 0.039276
#
#
# Mechanical properties :
#
#
# Convention : Reuss Voigt Hill
#
# Bulk Modulus (GPa) = 71.04998 71.22944 71.13971
# Shear Modulus (GPa) = 18.77381 28.65714 23.71548
#
# Velocity S-wave (km/s) = 3.29874 4.07557 3.70755
# Velocity P-wave (km/s) = 7.46263 7.96448 7.71764
#
# Compressibility (1/GPa) = 0.01407460
#
# Stress axis : x y z
#
# Youngs Moduli (GPa) = 76.48336 76.48336 135.18343
#
# Poissons Ratio (x) = 0.50200 0.21444
# Poissons Ratio (y) = 0.50200 0.21444
# Poissons Ratio (z) = 0.12133 0.12133
#
# Static dielectric constant tensor:
#      x y z
#    x 1.625140 0.000000 0.000000 
#    y 0.000000 1.625140 0.000000 
#    z 0.000000 0.000000 1.606150 
# 
# From -- ./inp_files/6394.got.cif
#   From: 2010.05.17/outbox.cif.g08.bks.cpg/sg166_4_cif.got.tgz:6394.got - 2010.05.20 11:04:41.
