data_PCOD9579448
_publ_section_title
;
Structure prediction by ZEFSAII (Michael W. Deem and Ramdas Pophale) SiO2 
 PCOD9579448
Probable space group: R -3 C 
;
_chemical_formula_sum "Si O2"
_cell_formula_units_Z 216
_cell_length_a 24.570155
_cell_length_b 24.570155
_cell_length_c 21.801657
_cell_angle_alpha 90.000000
_cell_angle_beta 90.000000
_cell_angle_gamma 120.000000
_cell_volume 11398.190912
_symmetry_space_group_name_H-M "R -3 C "
_symmetry_group_IT_number 167
_symmetry_cell_setting 'hexagonal'
loop_
_space_group_symop_operation_xyz
x,y,z
-y,x-y,z
-x+y,-x,z
x-y,-y,1/2-z
-x,-x+y,1/2-z
y,x,1/2-z
-x,-y,-z
y,-x+y,-z
x-y,x,-z
-x+y,y,1/2+z
x,x-y,1/2+z
-y,-x,1/2+z
2/3+x,1/3+y,1/3+z
2/3-y,1/3+x-y,1/3+z
2/3-x+y,1/3-x,1/3+z
2/3+x-y,1/3-y,5/6-z
2/3-x,1/3-x+y,5/6-z
2/3+y,1/3+x,5/6-z
2/3-x,1/3-y,1/3-z
2/3+y,1/3-x+y,1/3-z
2/3+x-y,1/3+x,1/3-z
2/3-x+y,1/3+y,5/6+z
2/3+x,1/3+x-y,5/6+z
2/3-y,1/3-x,5/6+z
1/3+x,2/3+y,2/3+z
1/3-y,2/3+x-y,2/3+z
1/3-x+y,2/3-x,2/3+z
1/3+x-y,2/3-y,1/6-z
1/3-x,2/3-x+y,1/6-z
1/3+y,2/3+x,1/6-z
1/3-x,2/3-y,2/3-z
1/3+y,2/3-x+y,2/3-z
1/3+x-y,2/3+x,2/3-z
1/3-x+y,2/3+y,1/6+z
1/3+x,2/3+x-y,1/6+z
1/3-y,2/3-x,1/6+z
loop_
_atom_site_type_symbol
_atom_site_label
_atom_site_fract_x
_atom_site_fract_y
_atom_site_fract_z
Si Si1 0.288413 0.112955 0.743501
Si Si2 0.707208 0.021113 0.820901
Si Si3 0.452218 0.293388 0.140178
Si Si4 0.144632 0.917461 0.430852
Si Si5 0.906259 0.323561 0.995677
Si Si6 0.797708 0.771796 0.525357
O O1 0.267016 0.162693 0.725293
O O2 0.363964 0.149418 0.749142
O O3 0.256072 0.071127 0.804281
O O4 0.259090 0.058124 0.691610
O O5 0.726952 0.092545 0.829478
O O6 0.697984 0.000000 0.750000
O O7 0.755530 0.998758 0.839209
O O8 0.636328 0.981312 0.844868
O O9 0.495281 0.333334 0.083334
O O10 0.476108 0.273440 0.199338
O O11 0.079537 0.867882 0.461673
O O12 0.184730 0.974285 0.476734
O O13 0.894608 0.326706 0.923863
#
# Coordination Sequence:
#
# PCOD9579448 Si02
#       6
#    36  36  36  36  36  36
#     4  11  20  35  61  89 120 164 203 244 296 359
#     4   9  17  33  54  81 116 160 197 233 282 352
#     4  11  22  36  58  86 119 160 209 246 293 359
#     4  12  23  39  59  87 122 164 203 249 304 361
#     4  10  19  35  59  85 122 162 200 240 294 351
#     4  11  24  39  60  87 126 165 201 247 299 366
#
# _framework density 18.950375000000001
#
# number of rings (size 3 to 8) (size 9 to 14) (size 15 to 20)
#    0.000    1.333    5.000    3.500    0.000    2.000 
#    0.000    1.667    0.000    0.333    0.000    0.000 
#    6.667    0.000    0.000    0.000    0.000    0.000 
#
# Total GULP energy -401395.212318 kJ/mol
# GULP energy per Si atom -5574.933504 kJ/mol
# Density = 1.890724 g / cm^3
# Si number density = 18.950375 Si / 1000 Ang^3
#
#
#
# Elastic Constant Matrix: (Units=GPa)
#
#
# Indices 1 2 3 4 5 6 
#
# 1 67.2590 19.4498 32.3781 -3.3431 0.0000 0.0000
# 2 19.4498 67.2590 32.3781 3.3431 0.0000 0.0000
# 3 32.3781 32.3781 89.3212 0.0000 0.0000 0.0000
# 4 -3.3431 3.3431 0.0000 25.6414 0.0000 0.0000
# 5 0.0000 0.0000 0.0000 0.0000 25.6414 -3.3431
# 6 0.0000 0.0000 0.0000 0.0000 -3.3431 23.9046
#
#
#
# Elastic Compliance Matrix: (Units=1/GPa)
#
#
# Indices 1 2 3 4 5 6 
#
# 1 0.018559 -0.002746 -0.005732 0.002778 0.000000 0.000000
# 2 -0.002746 0.018559 -0.005732 -0.002778 0.000000 0.000000
# 3 -0.005732 -0.005732 0.015351 0.000000 0.000000 0.000000
# 4 0.002778 -0.002778 0.000000 0.039724 0.000000 0.000000
# 5 0.000000 0.000000 0.000000 0.000000 0.039724 0.005555
# 6 0.000000 0.000000 0.000000 0.000000 0.005555 0.042610
#
#
# Mechanical properties :
#
#
# Convention : Reuss Voigt Hill
#
# Bulk Modulus (GPa) = 41.58054 43.58346 42.58200
# Shear Modulus (GPa) = 23.70063 24.34638 24.02350
#
# Velocity S-wave (km/s) = 3.54032 3.58822 3.56435
# Velocity P-wave (km/s) = 6.22103 6.34159 6.28160
#
# Compressibility (1/GPa) = 0.02404971
#
# Stress axis : x y z
#
# Youngs Moduli (GPa) = 53.88091 53.88091 65.14050
#
# Poissons Ratio (x) = 0.14793 0.37341
# Poissons Ratio (y) = 0.14793 0.37341
# Poissons Ratio (z) = 0.30887 0.30887
#
# Static dielectric constant tensor:
#      x y z
#    x 1.685490 0.000000 0.000000 
#    y 0.000000 1.685490 0.000000 
#    z 0.000000 0.000000 1.733680 
# 
# From -- ./inp_files/5495.got.cif
#   From: 2010.05.17/outbox.cif.g08.bks.cpg/sg167_3_cif.got.tgz:5495.got - 2010.05.20 11:09:15.
