data_PCOD9579539
_publ_section_title
;
Structure prediction by ZEFSAII (Michael W. Deem and Ramdas Pophale) SiO2 
 PCOD9579539
Probable space group: R -3 C 
;
_chemical_formula_sum "Si O2"
_cell_formula_units_Z 162
_cell_length_a 22.201579
_cell_length_b 22.201579
_cell_length_c 17.916342
_cell_angle_alpha 90.000000
_cell_angle_beta 90.000000
_cell_angle_gamma 120.000000
_cell_volume 7647.996874
_symmetry_space_group_name_H-M "R -3 C "
_symmetry_group_IT_number 167
_symmetry_cell_setting 'hexagonal'
loop_
_space_group_symop_operation_xyz
x,y,z
-y,x-y,z
-x+y,-x,z
x-y,-y,1/2-z
-x,-x+y,1/2-z
y,x,1/2-z
-x,-y,-z
y,-x+y,-z
x-y,x,-z
-x+y,y,1/2+z
x,x-y,1/2+z
-y,-x,1/2+z
2/3+x,1/3+y,1/3+z
2/3-y,1/3+x-y,1/3+z
2/3-x+y,1/3-x,1/3+z
2/3+x-y,1/3-y,5/6-z
2/3-x,1/3-x+y,5/6-z
2/3+y,1/3+x,5/6-z
2/3-x,1/3-y,1/3-z
2/3+y,1/3-x+y,1/3-z
2/3+x-y,1/3+x,1/3-z
2/3-x+y,1/3+y,5/6+z
2/3+x,1/3+x-y,5/6+z
2/3-y,1/3-x,5/6+z
1/3+x,2/3+y,2/3+z
1/3-y,2/3+x-y,2/3+z
1/3-x+y,2/3-x,2/3+z
1/3+x-y,2/3-y,1/6-z
1/3-x,2/3-x+y,1/6-z
1/3+y,2/3+x,1/6-z
1/3-x,2/3-y,2/3-z
1/3+y,2/3-x+y,2/3-z
1/3+x-y,2/3+x,2/3-z
1/3-x+y,2/3+y,1/6+z
1/3+x,2/3+x-y,1/6+z
1/3-y,2/3-x,1/6+z
loop_
_atom_site_type_symbol
_atom_site_label
_atom_site_fract_x
_atom_site_fract_y
_atom_site_fract_z
Si Si1 0.939695 0.840255 0.992077
Si Si2 0.224354 0.440637 0.304379
Si Si3 0.018822 0.432923 0.416214
Si Si4 0.333334 0.848047 0.916667
Si Si5 0.824882 0.219878 0.468940
O O1 0.909541 0.793722 0.918820
O O2 0.895880 0.876429 0.014781
O O3 0.930412 0.794927 0.065189
O O4 0.157676 0.398774 0.356133
O O5 0.255167 0.392524 0.273609
O O6 0.285438 0.497281 0.357352
O O7 0.041273 0.374606 0.416667
O O8 0.036013 0.477894 0.340030
O O9 0.390226 0.913844 0.868880
O O10 0.879733 0.213066 0.416667
#
# Coordination Sequence:
#
# PCOD9579539 Si02
#       5
#    36  36  36  18  36
#     4  12  24  43  68  96 129 171 227 282 333 403
#     4  10  21  40  62  90 130 172 213 276 325 395
#     4  10  21  39  61  94 132 174 218 264 328 405
#     4  10  22  42  64  90 136 178 212 280 344 392
#     4  11  22  41  69  96 135 183 220 273 345 399
#
# _framework density 21.182016999999998
#
# number of rings (size 3 to 8) (size 9 to 14) (size 15 to 20)
#    0.000    1.333    4.444    1.556    0.000    0.889 
#    2.000    0.000    0.000    0.000    0.000    0.000 
#    0.000    0.000    0.000    0.000    0.000    0.000 
#
# Total GULP energy -301375.271900 kJ/mol
# GULP energy per Si atom -5581.023554 kJ/mol
# Density = 2.113381 g / cm^3
# Si number density = 21.182017 Si / 1000 Ang^3
#
#
#
# Elastic Constant Matrix: (Units=GPa)
#
#
# Indices 1 2 3 4 5 6 
#
# 1 40.4992 2.0572 11.4998 2.7536 0.0000 0.0000
# 2 2.0572 40.4992 11.4998 -2.7536 0.0000 0.0000
# 3 11.4998 11.4998 118.0322 0.0000 0.0000 0.0000
# 4 2.7536 -2.7536 0.0000 30.7174 0.0000 0.0000
# 5 0.0000 0.0000 0.0000 0.0000 30.7174 2.7536
# 6 0.0000 0.0000 0.0000 0.0000 2.7536 19.2210
#
#
#
# Elastic Compliance Matrix: (Units=1/GPa)
#
#
# Indices 1 2 3 4 5 6 
#
# 1 0.025578 -0.000774 -0.002417 -0.002362 0.000000 0.000000
# 2 -0.000774 0.025578 -0.002417 0.002362 0.000000 0.000000
# 3 -0.002417 -0.002417 0.008943 0.000000 0.000000 0.000000
# 4 -0.002362 0.002362 0.000000 0.032978 0.000000 0.000000
# 5 0.000000 0.000000 0.000000 0.000000 0.032978 -0.004725
# 6 0.000000 0.000000 0.000000 0.000000 -0.004725 0.052703
#
#
# Mechanical properties :
#
#
# Convention : Reuss Voigt Hill
#
# Bulk Modulus (GPa) = 20.45610 27.68268 24.06939
# Shear Modulus (GPa) = 24.24031 27.72943 25.98487
#
# Velocity S-wave (km/s) = 3.38654 3.62208 3.50629
# Velocity P-wave (km/s) = 4.99698 5.53082 5.27066
#
# Compressibility (1/GPa) = 0.04888518
#
# Stress axis : x y z
#
# Youngs Moduli (GPa) = 39.09613 39.09613 111.81719
#
# Poissons Ratio (x) = 0.03025 0.27022
# Poissons Ratio (y) = 0.03025 0.27022
# Poissons Ratio (z) = 0.09448 0.09448
#
# Static dielectric constant tensor:
#      x y z
#    x 1.791600 0.000000 0.000000 
#    y 0.000000 1.791600 0.000000 
#    z 0.000000 0.000000 1.871460 
# 
# From -- ./inp_files/3402.got.cif
#   From: 2010.05.17/outbox.cif.g08.bks.cpg/sg167_2_cif.got.tgz:3402.got - 2010.05.20 11:09:15.
