data_PCOD9579427
_publ_section_title
;
Structure prediction by ZEFSAII (Michael W. Deem and Ramdas Pophale) SiO2 
 PCOD9579427
Probable space group: R -3 C 
;
_chemical_formula_sum "Si O2"
_cell_formula_units_Z 162
_cell_length_a 30.272557
_cell_length_b 30.272557
_cell_length_c 14.806131
_cell_angle_alpha 90.000000
_cell_angle_beta 90.000000
_cell_angle_gamma 120.000000
_cell_volume 11750.881060
_symmetry_space_group_name_H-M "R -3 C "
_symmetry_group_IT_number 167
_symmetry_cell_setting 'hexagonal'
loop_
_space_group_symop_operation_xyz
x,y,z
-y,x-y,z
-x+y,-x,z
x-y,-y,1/2-z
-x,-x+y,1/2-z
y,x,1/2-z
-x,-y,-z
y,-x+y,-z
x-y,x,-z
-x+y,y,1/2+z
x,x-y,1/2+z
-y,-x,1/2+z
2/3+x,1/3+y,1/3+z
2/3-y,1/3+x-y,1/3+z
2/3-x+y,1/3-x,1/3+z
2/3+x-y,1/3-y,5/6-z
2/3-x,1/3-x+y,5/6-z
2/3+y,1/3+x,5/6-z
2/3-x,1/3-y,1/3-z
2/3+y,1/3-x+y,1/3-z
2/3+x-y,1/3+x,1/3-z
2/3-x+y,1/3+y,5/6+z
2/3+x,1/3+x-y,5/6+z
2/3-y,1/3-x,5/6+z
1/3+x,2/3+y,2/3+z
1/3-y,2/3+x-y,2/3+z
1/3-x+y,2/3-x,2/3+z
1/3+x-y,2/3-y,1/6-z
1/3-x,2/3-x+y,1/6-z
1/3+y,2/3+x,1/6-z
1/3-x,2/3-y,2/3-z
1/3+y,2/3-x+y,2/3-z
1/3+x-y,2/3+x,2/3-z
1/3-x+y,2/3+y,1/6+z
1/3+x,2/3+x-y,1/6+z
1/3-y,2/3-x,1/6+z
loop_
_atom_site_type_symbol
_atom_site_label
_atom_site_fract_x
_atom_site_fract_y
_atom_site_fract_z
Si Si1 0.798483 0.028411 0.838396
Si Si2 0.946573 0.543311 0.894406
Si Si3 0.507362 0.451775 0.296436
Si Si4 0.631550 0.631550 0.250000
Si Si5 0.588289 0.584467 0.927589
O O1 0.841233 0.078503 0.890781
O O2 0.761365 0.049434 0.803803
O O3 0.804906 0.000000 0.750000
O O4 0.768510 0.982744 0.907907
O O5 0.930993 0.490702 0.844716
O O6 0.979239 0.590262 0.828580
O O7 0.980637 0.552846 0.984437
O O8 0.486594 0.486594 0.250000
O O9 0.464731 0.420701 0.372597
O O10 0.640448 0.686023 0.283269
#
# Coordination Sequence:
#
# PCOD9579427 Si02
#       5
#    36  36  36  18  36
#     4   9  18  31  48  58  79 119 153 184 228 277
#     4  11  19  29  43  64  84 114 151 198 234 268
#     4  10  19  30  41  64  87 108 151 203 231 266
#     4  12  18  28  44  64  82 116 158 190 230 270
#     4  10  19  29  45  58  84 118 156 190 229 272
#
# _framework density 13.786201
#
# number of rings (size 3 to 8) (size 9 to 14) (size 15 to 20)
#    0.000    1.778    6.667    1.333    0.000    0.000 
#    0.000    0.000    0.000    0.000    0.000    0.000 
#    0.000    0.000    0.000    0.667    0.000    2.667 
#
# Total GULP energy -300606.874007 kJ/mol
# GULP energy per Si atom -5566.793963 kJ/mol
# Density = 1.375482 g / cm^3
# Si number density = 13.786201 Si / 1000 Ang^3
#
#
#
# Elastic Constant Matrix: (Units=GPa)
#
#
# Indices 1 2 3 4 5 6 
#
# 1 52.5790 27.8657 39.5535 -1.5085 0.0000 0.0000
# 2 27.8657 52.5790 39.5534 1.5085 0.0000 0.0000
# 3 39.5535 39.5534 67.2722 0.0001 0.0001 0.0000
# 4 -1.5085 1.5085 0.0001 18.8821 0.0000 0.0000
# 5 0.0000 0.0000 0.0001 0.0000 18.8821 -1.5085
# 6 0.0000 0.0000 0.0000 0.0000 -1.5085 12.3566
#
#
#
# Elastic Compliance Matrix: (Units=1/GPa)
#
#
# Indices 1 2 3 4 5 6 
#
# 1 0.035166 -0.005696 -0.017327 0.003265 0.000000 0.000000
# 2 -0.005696 0.035166 -0.017327 -0.003264 0.000000 0.000000
# 3 -0.017327 -0.017327 0.035240 0.000000 0.000000 0.000000
# 4 0.003265 -0.003264 0.000000 0.053482 0.000000 0.000000
# 5 0.000000 0.000000 0.000000 0.000000 0.053482 0.006529
# 6 0.000000 0.000000 0.000000 0.000000 0.006529 0.081725
#
#
# Mechanical properties :
#
#
# Convention : Reuss Voigt Hill
#
# Bulk Modulus (GPa) = 40.20660 42.93061 41.56860
# Shear Modulus (GPa) = 13.04618 14.38801 13.71710
#
# Velocity S-wave (km/s) = 3.07957 3.23407 3.15776
# Velocity P-wave (km/s) = 6.47091 6.71963 6.59644
#
# Compressibility (1/GPa) = 0.02487154
#
# Stress axis : x y z
#
# Youngs Moduli (GPa) = 28.43624 28.43639 28.37647
#
# Poissons Ratio (x) = 0.16198 0.49169
# Poissons Ratio (y) = 0.16198 0.49168
# Poissons Ratio (z) = 0.49272 0.49272
#
# Static dielectric constant tensor:
#      x y z
#    x 1.438740 0.000000 0.000000 
#    y 0.000000 1.438740 0.000000 
#    z 0.000000 0.000000 1.509730 
# 
# From -- ./inp_files/2397.got.cif
#   From: 2010.05.17/outbox.cif.g08.bks.cpg/sg167_2_cif.got.tgz:2397.got - 2010.05.20 11:09:15.
