data_PCOD9579516
_publ_section_title
;
Structure prediction by ZEFSAII (Michael W. Deem and Ramdas Pophale) SiO2 
 PCOD9579516
Probable space group: R -3 C 
;
_chemical_formula_sum "Si O2"
_cell_formula_units_Z 162
_cell_length_a 22.997474
_cell_length_b 22.997474
_cell_length_c 16.527997
_cell_angle_alpha 90.000000
_cell_angle_beta 90.000000
_cell_angle_gamma 120.000000
_cell_volume 7570.265832
_symmetry_space_group_name_H-M "R -3 C "
_symmetry_group_IT_number 167
_symmetry_cell_setting 'hexagonal'
loop_
_space_group_symop_operation_xyz
x,y,z
-y,x-y,z
-x+y,-x,z
x-y,-y,1/2-z
-x,-x+y,1/2-z
y,x,1/2-z
-x,-y,-z
y,-x+y,-z
x-y,x,-z
-x+y,y,1/2+z
x,x-y,1/2+z
-y,-x,1/2+z
2/3+x,1/3+y,1/3+z
2/3-y,1/3+x-y,1/3+z
2/3-x+y,1/3-x,1/3+z
2/3+x-y,1/3-y,5/6-z
2/3-x,1/3-x+y,5/6-z
2/3+y,1/3+x,5/6-z
2/3-x,1/3-y,1/3-z
2/3+y,1/3-x+y,1/3-z
2/3+x-y,1/3+x,1/3-z
2/3-x+y,1/3+y,5/6+z
2/3+x,1/3+x-y,5/6+z
2/3-y,1/3-x,5/6+z
1/3+x,2/3+y,2/3+z
1/3-y,2/3+x-y,2/3+z
1/3-x+y,2/3-x,2/3+z
1/3+x-y,2/3-y,1/6-z
1/3-x,2/3-x+y,1/6-z
1/3+y,2/3+x,1/6-z
1/3-x,2/3-y,2/3-z
1/3+y,2/3-x+y,2/3-z
1/3+x-y,2/3+x,2/3-z
1/3-x+y,2/3+y,1/6+z
1/3+x,2/3+x-y,1/6+z
1/3-y,2/3-x,1/6+z
loop_
_atom_site_type_symbol
_atom_site_label
_atom_site_fract_x
_atom_site_fract_y
_atom_site_fract_z
Si Si1 0.698800 0.194715 0.722742
Si Si2 0.520358 0.742949 0.096547
Si Si3 0.666667 0.865721 0.583334
Si Si4 0.062665 0.743888 0.410586
Si Si5 0.215417 0.045091 0.171425
O O1 0.728362 0.228791 0.810221
O O2 0.626075 0.187788 0.716344
O O3 0.699013 0.124724 0.724530
O O4 0.757700 0.238708 0.660647
O O5 0.597614 0.801219 0.088397
O O6 0.518980 0.675752 0.065486
O O7 0.667139 0.902390 0.499407
O O8 0.006262 0.666667 0.416667
O O9 0.117871 0.747608 0.345027
O O10 0.192352 0.000000 0.250000
#
# Coordination Sequence:
#
# PCOD9579516 Si02
#       5
#    36  36  18  36  36
#     4  11  24  40  70 100 133 184 223 276 340 416
#     4  11  22  42  67  97 134 174 231 273 336 404
#     4  10  20  40  66  92 136 174 210 282 342 386
#     4  10  21  41  67 100 134 174 219 280 343 401
#     4  11  22  45  66  93 139 173 221 290 330 388
#
# _framework density 21.399512999999999
#
# number of rings (size 3 to 8) (size 9 to 14) (size 15 to 20)
#    0.000    1.333    6.667    0.667    1.556    0.889 
#    1.333    3.333    0.000    0.000    0.000    0.000 
#    0.000    0.000    0.000    0.000    0.000    0.000 
#
# Total GULP energy -301072.221636 kJ/mol
# GULP energy per Si atom -5575.411512 kJ/mol
# Density = 2.135081 g / cm^3
# Si number density = 21.399513 Si / 1000 Ang^3
#
#
#
# Elastic Constant Matrix: (Units=GPa)
#
#
# Indices 1 2 3 4 5 6 
#
# 1 76.0978 31.1595 -0.6993 -10.3299 0.0001 0.0000
# 2 31.1595 76.0978 -0.6993 10.3299 -0.0001 0.0000
# 3 -0.6993 -0.6993 27.9637 0.0000 0.0000 0.0000
# 4 -10.3299 10.3299 0.0000 21.2441 0.0000 -0.0001
# 5 0.0001 -0.0001 0.0000 0.0000 21.2441 -10.3299
# 6 0.0000 0.0000 0.0000 -0.0001 -10.3299 22.4692
#
#
#
# Elastic Compliance Matrix: (Units=1/GPa)
#
#
# Indices 1 2 3 4 5 6 
#
# 1 0.018993 -0.009666 0.000233 0.013935 0.000000 0.000000
# 2 -0.009666 0.018993 0.000233 -0.013935 0.000000 0.000000
# 3 0.000233 0.000233 0.035772 0.000000 0.000000 0.000000
# 4 0.013935 -0.013935 0.000000 0.060624 0.000000 0.000000
# 5 0.000000 0.000000 0.000000 0.000000 0.060624 0.027871
# 6 0.000000 0.000000 0.000000 0.000000 0.027871 0.057319
#
#
# Mechanical properties :
#
#
# Convention : Reuss Voigt Hill
#
# Bulk Modulus (GPa) = 18.06422 26.63125 22.34773
# Shear Modulus (GPa) = 17.29041 23.01803 20.15422
#
# Velocity S-wave (km/s) = 2.84559 3.28324 3.07222
# Velocity P-wave (km/s) = 4.38819 5.18119 4.80109
#
# Compressibility (1/GPa) = 0.05535805
#
# Stress axis : x y z
#
# Youngs Moduli (GPa) = 52.65131 52.65131 27.95456
#
# Poissons Ratio (x) = 0.50895 -0.00652
# Poissons Ratio (y) = 0.50895 -0.00652
# Poissons Ratio (z) = -0.01228 -0.01228
#
# Static dielectric constant tensor:
#      x y z
#    x 1.841950 0.000000 0.000000 
#    y 0.000000 1.841950 0.000000 
#    z 0.000000 0.000000 1.850030 
# 
# From -- ./inp_files/3414.got.cif
#   From: 2010.05.17/outbox.cif.g08.bks.cpg/sg167_2_cif.got.tgz:3414.got - 2010.05.20 11:09:15.
