data_PCOD9579018
_publ_section_title
;
Structure prediction by ZEFSAII (Michael W. Deem and Ramdas Pophale) SiO2 
 PCOD9579018
Probable space group: R -3 M
;
_chemical_formula_sum "Si O2"
_cell_formula_units_Z 216
_cell_length_a 24.606215
_cell_length_b 24.606215
_cell_length_c 26.548905
_cell_angle_alpha 90.000000
_cell_angle_beta 90.000000
_cell_angle_gamma 120.000000
_cell_volume 13920.885903
_symmetry_space_group_name_H-M "R -3 M"
_symmetry_group_IT_number 166
_symmetry_cell_setting 'hexagonal'
loop_
_space_group_symop_operation_xyz
x,y,z
-y,x-y,z
-x+y,-x,z
x-y,-y,-z
-x,-x+y,-z
y,x,-z
-x,-y,-z
y,-x+y,-z
x-y,x,-z
-x+y,y,z
x,x-y,z
-y,-x,z
2/3+x,1/3+y,1/3+z
2/3-y,1/3+x-y,1/3+z
2/3-x+y,1/3-x,1/3+z
2/3+x-y,1/3-y,1/3-z
2/3-x,1/3-x+y,1/3-z
2/3+y,1/3+x,1/3-z
2/3-x,1/3-y,1/3-z
2/3+y,1/3-x+y,1/3-z
2/3+x-y,1/3+x,1/3-z
2/3-x+y,1/3+y,1/3+z
2/3+x,1/3+x-y,1/3+z
2/3-y,1/3-x,1/3+z
1/3+x,2/3+y,2/3+z
1/3-y,2/3+x-y,2/3+z
1/3-x+y,2/3-x,2/3+z
1/3+x-y,2/3-y,2/3-z
1/3-x,2/3-x+y,2/3-z
1/3+y,2/3+x,2/3-z
1/3-x,2/3-y,2/3-z
1/3+y,2/3-x+y,2/3-z
1/3+x-y,2/3+x,2/3-z
1/3-x+y,2/3+y,2/3+z
1/3+x,2/3+x-y,2/3+z
1/3-y,2/3-x,2/3+z
loop_
_atom_site_type_symbol
_atom_site_label
_atom_site_fract_x
_atom_site_fract_y
_atom_site_fract_z
Si Si1 0.930511 0.737648 0.821329
Si Si2 0.786394 0.093208 0.037894
Si Si3 0.848601 0.568539 0.656185
Si Si4 0.173615 0.221406 0.752502
Si Si5 0.378067 0.961867 0.738385
Si Si6 0.688327 0.743733 0.411047
O O1 0.878401 0.756801 0.809380
O O2 0.932705 0.726798 0.880382
O O3 0.908467 0.670183 0.795097
O O4 0.997907 0.788198 0.797119
O O5 0.859190 0.140811 0.046130
O O6 0.748876 0.121570 0.067565
O O7 0.761538 0.023369 0.056515
O O8 0.771718 0.087613 0.978149
O O9 0.783242 0.566484 0.649123
O O10 0.849790 0.510804 0.629308
O O11 0.902650 0.628083 0.625104
O O12 0.869725 0.585621 0.714064
O O13 0.103435 0.206869 0.764832
O O14 0.366221 0.019064 0.751572
#
# Coordination Sequence:
#
# PCOD9579018 Si02
#       6
#    36  36  36  36  36  36
#     4  11  22  33  48  72 100 132 165 197 240 293
#     4  10  19  32  49  69  93 129 166 195 238 285
#     4  10  16  28  49  70  96 128 162 197 232 285
#     4  10  19  32  49  69  94 124 162 204 241 280
#     4  11  19  33  48  69 103 130 160 200 240 280
#     4  10  16  28  44  71  97 128 156 191 233 284
#
# _framework density 15.516254
#
# number of rings (size 3 to 8) (size 9 to 14) (size 15 to 20)
#    0.000    1.667    5.000    5.500    0.000    0.667 
#    0.000    1.667    0.000    2.667    0.000    0.000 
#    0.000    0.000    0.000    8.500    0.000    6.167 
#
# Total GULP energy -400844.206655 kJ/mol
# GULP energy per Si atom -5567.280648 kJ/mol
# Density = 1.548094 g / cm^3
# Si number density = 15.516254 Si / 1000 Ang^3
#
#
#
# Elastic Constant Matrix: (Units=GPa)
#
#
# Indices 1 2 3 4 5 6 
#
# 1 43.7840 15.0784 8.7310 -5.6943 0.0000 0.0000
# 2 15.0784 43.7840 8.7310 5.6943 0.0000 0.0000
# 3 8.7310 8.7310 71.1001 0.0000 0.0000 0.0000
# 4 -5.6943 5.6943 0.0000 34.7049 0.0000 0.0000
# 5 0.0000 0.0000 0.0000 0.0000 34.7049 -5.6943
# 6 0.0000 0.0000 0.0000 0.0000 -5.6943 14.3528
#
#
#
# Elastic Compliance Matrix: (Units=1/GPa)
#
#
# Indices 1 2 3 4 5 6 
#
# 1 0.027447 -0.009815 -0.002165 0.006114 0.000000 0.000000
# 2 -0.009815 0.027447 -0.002165 -0.006114 0.000000 0.000000
# 3 -0.002165 -0.002165 0.014596 0.000000 0.000000 0.000000
# 4 0.006114 -0.006114 0.000000 0.030821 0.000000 0.000000
# 5 0.000000 0.000000 0.000000 0.000000 0.030821 0.012228
# 6 0.000000 0.000000 0.000000 0.000000 0.012228 0.074524
#
#
# Mechanical properties :
#
#
# Convention : Reuss Voigt Hill
#
# Bulk Modulus (GPa) = 24.27288 24.86099 24.56694
# Shear Modulus (GPa) = 20.18745 25.16104 22.67424
#
# Velocity S-wave (km/s) = 3.61092 4.03127 3.82687
# Velocity P-wave (km/s) = 5.75000 6.14211 5.94929
#
# Compressibility (1/GPa) = 0.04119824
#
# Stress axis : x y z
#
# Youngs Moduli (GPa) = 36.43450 36.43450 68.50994
#
# Poissons Ratio (x) = 0.35762 0.14833
# Poissons Ratio (y) = 0.35762 0.14833
# Poissons Ratio (z) = 0.07888 0.07888
#
# Static dielectric constant tensor:
#      x y z
#    x 1.517590 0.000000 0.000000 
#    y 0.000000 1.517590 0.000000 
#    z 0.000000 0.000000 1.587030 
# 
# From -- ./inp_files/9727.got.cif
#   From: 2010.05.17/outbox.cif.g08.bks.cpg/sg166_5_cif.got.tgz:9727.got - 2010.05.20 11:04:41.
