data_PCOD9579263
_publ_section_title
;
Structure prediction by ZEFSAII (Michael W. Deem and Ramdas Pophale) SiO2 
 PCOD9579263
Probable space group: R -3 M
;
_chemical_formula_sum "Si O2"
_cell_formula_units_Z 144
_cell_length_a 22.018967
_cell_length_b 22.018967
_cell_length_c 20.095110
_cell_angle_alpha 90.000000
_cell_angle_beta 90.000000
_cell_angle_gamma 120.000000
_cell_volume 8437.521660
_symmetry_space_group_name_H-M "R -3 M"
_symmetry_group_IT_number 166
_symmetry_cell_setting 'hexagonal'
loop_
_space_group_symop_operation_xyz
x,y,z
-y,x-y,z
-x+y,-x,z
x-y,-y,-z
-x,-x+y,-z
y,x,-z
-x,-y,-z
y,-x+y,-z
x-y,x,-z
-x+y,y,z
x,x-y,z
-y,-x,z
2/3+x,1/3+y,1/3+z
2/3-y,1/3+x-y,1/3+z
2/3-x+y,1/3-x,1/3+z
2/3+x-y,1/3-y,1/3-z
2/3-x,1/3-x+y,1/3-z
2/3+y,1/3+x,1/3-z
2/3-x,1/3-y,1/3-z
2/3+y,1/3-x+y,1/3-z
2/3+x-y,1/3+x,1/3-z
2/3-x+y,1/3+y,1/3+z
2/3+x,1/3+x-y,1/3+z
2/3-y,1/3-x,1/3+z
1/3+x,2/3+y,2/3+z
1/3-y,2/3+x-y,2/3+z
1/3-x+y,2/3-x,2/3+z
1/3+x-y,2/3-y,2/3-z
1/3-x,2/3-x+y,2/3-z
1/3+y,2/3+x,2/3-z
1/3-x,2/3-y,2/3-z
1/3+y,2/3-x+y,2/3-z
1/3+x-y,2/3+x,2/3-z
1/3-x+y,2/3+y,2/3+z
1/3+x,2/3+x-y,2/3+z
1/3-y,2/3-x,2/3+z
loop_
_atom_site_type_symbol
_atom_site_label
_atom_site_fract_x
_atom_site_fract_y
_atom_site_fract_z
Si Si1 0.196300 0.249861 0.059160
Si Si2 0.275046 0.993265 0.422438
Si Si3 0.284657 0.859933 0.373180
Si Si4 0.526395 0.193356 0.155461
O O1 0.130656 0.261312 0.045688
O O2 0.267702 0.322701 0.069501
O O3 0.177979 0.202637 0.125079
O O4 0.208558 0.208558 0.000000
O O5 0.287707 0.927678 0.408481
O O6 0.214800 0.977936 0.368725
O O7 0.261453 0.000000 0.500000
O O8 0.204948 0.795053 0.374394
O O9 0.329805 0.836208 0.416717
O O10 0.608319 0.216638 0.157602
O O11 0.514833 0.257417 0.171107
#
# Coordination Sequence:
#
# PCOD9579263 Si02
#       4
#    36  36  36  36
#     4  11  22  36  54  82 116 149 186 229 277 334
#     4  11  20  35  56  83 110 145 183 225 283 334
#     4  10  21  38  58  80 112 149 188 229 282 342
#     4  10  21  38  58  81 109 148 192 233 277 331
#
# _framework density 17.066621999999999
#
# number of rings (size 3 to 8) (size 9 to 14) (size 15 to 20)
#    0.000    1.500    5.000    2.500    0.000    2.000 
#    0.000    1.250    0.000    4.000    0.000    0.000 
#    0.000    5.000    0.000    0.000    0.000    0.000 
#
# Total GULP energy -267774.538462 kJ/mol
# GULP energy per Si atom -5578.636218 kJ/mol
# Density = 1.702778 g / cm^3
# Si number density = 17.066622 Si / 1000 Ang^3
#
#
#
# Elastic Constant Matrix: (Units=GPa)
#
#
# Indices 1 2 3 4 5 6 
#
# 1 80.5594 65.6476 25.3495 -3.3056 0.0000 0.0000
# 2 65.6476 80.5594 25.3495 3.3056 0.0000 0.0000
# 3 25.3495 25.3495 112.2943 0.0000 0.0000 0.0000
# 4 -3.3056 3.3056 0.0000 21.4695 0.0000 0.0000
# 5 0.0000 0.0000 0.0000 0.0000 21.4695 -3.3056
# 6 0.0000 0.0000 0.0000 0.0000 -3.3056 7.4559
#
#
#
# Elastic Compliance Matrix: (Units=1/GPa)
#
#
# Indices 1 2 3 4 5 6 
#
# 1 0.039697 -0.032277 -0.001675 0.011082 0.000000 0.000000
# 2 -0.032277 0.039697 -0.001675 -0.011082 0.000000 0.000000
# 3 -0.001675 -0.001675 0.009661 0.000000 0.000000 0.000000
# 4 0.011082 -0.011082 0.000000 0.049990 0.000000 0.000000
# 5 0.000000 0.000000 0.000000 0.000000 0.049990 0.022163
# 6 0.000000 0.000000 0.000000 0.000000 0.022163 0.143948
#
#
# Mechanical properties :
#
#
# Convention : Reuss Voigt Hill
#
# Bulk Modulus (GPa) = 56.17357 56.23405 56.20381
# Shear Modulus (GPa) = 12.19001 20.55007 16.37004
#
# Velocity S-wave (km/s) = 2.67546 3.47379 3.10043
# Velocity P-wave (km/s) = 6.52149 7.00792 6.76908
#
# Compressibility (1/GPa) = 0.01780197
#
# Stress axis : x y z
#
# Youngs Moduli (GPa) = 25.19068 25.19068 103.50409
#
# Poissons Ratio (x) = 0.81307 0.17338
# Poissons Ratio (y) = 0.81307 0.17338
# Poissons Ratio (z) = 0.04220 0.04220
#
# Static dielectric constant tensor:
#      x y z
#    x 1.558350 0.000000 0.000000 
#    y 0.000000 1.558350 0.000000 
#    z 0.000000 0.000000 1.598470 
# 
# From -- ./inp_files/6609.got.cif
#   From: 2010.05.17/outbox.cif.g08.bks.cpg/sg166_4_cif.got.tgz:6609.got - 2010.05.20 11:04:41.
