data_PCOD9579024
_publ_section_title
;
Structure prediction by ZEFSAII (Michael W. Deem and Ramdas Pophale) SiO2 
 PCOD9579024
Probable space group: R -3 M
;
_chemical_formula_sum "Si O2"
_cell_formula_units_Z 162
_cell_length_a 26.101506
_cell_length_b 26.101506
_cell_length_c 19.938093
_cell_angle_alpha 90.000000
_cell_angle_beta 90.000000
_cell_angle_gamma 120.000000
_cell_volume 11763.739016
_symmetry_space_group_name_H-M "R -3 M"
_symmetry_group_IT_number 166
_symmetry_cell_setting 'hexagonal'
loop_
_space_group_symop_operation_xyz
x,y,z
-y,x-y,z
-x+y,-x,z
x-y,-y,-z
-x,-x+y,-z
y,x,-z
-x,-y,-z
y,-x+y,-z
x-y,x,-z
-x+y,y,z
x,x-y,z
-y,-x,z
2/3+x,1/3+y,1/3+z
2/3-y,1/3+x-y,1/3+z
2/3-x+y,1/3-x,1/3+z
2/3+x-y,1/3-y,1/3-z
2/3-x,1/3-x+y,1/3-z
2/3+y,1/3+x,1/3-z
2/3-x,1/3-y,1/3-z
2/3+y,1/3-x+y,1/3-z
2/3+x-y,1/3+x,1/3-z
2/3-x+y,1/3+y,1/3+z
2/3+x,1/3+x-y,1/3+z
2/3-y,1/3-x,1/3+z
1/3+x,2/3+y,2/3+z
1/3-y,2/3+x-y,2/3+z
1/3-x+y,2/3-x,2/3+z
1/3+x-y,2/3-y,2/3-z
1/3-x,2/3-x+y,2/3-z
1/3+y,2/3+x,2/3-z
1/3-x,2/3-y,2/3-z
1/3+y,2/3-x+y,2/3-z
1/3+x-y,2/3+x,2/3-z
1/3-x+y,2/3+y,2/3+z
1/3+x,2/3+x-y,2/3+z
1/3-y,2/3-x,2/3+z
loop_
_atom_site_type_symbol
_atom_site_label
_atom_site_fract_x
_atom_site_fract_y
_atom_site_fract_z
Si Si1 0.171613 0.710895 0.603773
Si Si2 0.388505 0.411005 0.407460
Si Si3 0.567896 0.015142 0.738399
Si Si4 0.304129 0.000000 0.500000
Si Si5 0.273405 0.844548 0.808594
O O1 0.239471 0.760530 0.608522
O O2 0.151132 0.666667 0.666667
O O3 0.134111 0.744410 0.598531
O O4 0.152916 0.668656 0.539403
O O5 0.393316 0.427298 0.329883
O O6 0.332001 0.353774 0.440236
O O7 0.397256 0.466164 0.451558
O O8 0.442790 0.400073 0.426283
O O9 0.516550 0.033099 0.739891
O O10 0.612723 0.034133 0.801269
O O11 0.219601 0.780400 0.794947
#
# Coordination Sequence:
#
# PCOD9579024 Si02
#       5
#    36  36  36  18  36
#     4  11  19  28  41  61  87 120 156 188 226 272
#     4  10  17  28  44  69  88 114 146 191 231 268
#     4  11  19  30  47  66  91 124 155 185 230 279
#     4  10  18  30  45  66 102 122 149 188 234 266
#     4  10  17  27  42  63  86 110 145 193 232 261
#
# _framework density 13.771131
#
# number of rings (size 3 to 8) (size 9 to 14) (size 15 to 20)
#    0.000    1.778    6.667    4.000    0.000    0.000 
#    0.000    0.000    0.000    8.000    0.000    0.000 
#    0.000    0.000    0.000    0.333    0.000    0.000 
#
# Total GULP energy -300734.505522 kJ/mol
# GULP energy per Si atom -5569.157510 kJ/mol
# Density = 1.373979 g / cm^3
# Si number density = 13.771131 Si / 1000 Ang^3
#
#
#
# Elastic Constant Matrix: (Units=GPa)
#
#
# Indices 1 2 3 4 5 6 
#
# 1 52.9013 30.5882 37.5804 0.1427 -0.0001 0.0000
# 2 30.5882 52.9013 37.5804 -0.1427 0.0001 0.0000
# 3 37.5804 37.5804 72.2242 0.0000 0.0000 0.0000
# 4 0.1427 -0.1427 0.0000 9.7711 0.0000 0.0001
# 5 -0.0001 0.0001 0.0000 0.0000 9.7711 0.1427
# 6 0.0000 0.0000 0.0000 0.0001 0.1427 11.1565
#
#
#
# Elastic Compliance Matrix: (Units=1/GPa)
#
#
# Indices 1 2 3 4 5 6 
#
# 1 0.033679 -0.011146 -0.011724 -0.000655 0.000000 0.000000
# 2 -0.011146 0.033679 -0.011724 0.000655 0.000000 0.000000
# 3 -0.011724 -0.011724 0.026047 0.000000 0.000000 0.000000
# 4 -0.000655 0.000655 0.000000 0.102362 0.000000 -0.000001
# 5 0.000000 0.000000 0.000000 0.000000 0.102362 -0.001309
# 6 0.000000 0.000000 0.000000 -0.000001 -0.001309 0.089650
#
#
# Mechanical properties :
#
#
# Convention : Reuss Voigt Hill
#
# Bulk Modulus (GPa) = 41.29786 43.28052 42.28919
# Shear Modulus (GPa) = 10.75178 10.95825 10.85502
#
# Velocity S-wave (km/s) = 2.79722 2.82395 2.81062
# Velocity P-wave (km/s) = 6.36289 6.49073 6.42713
#
# Compressibility (1/GPa) = 0.02421433
#
# Stress axis : x y z
#
# Youngs Moduli (GPa) = 29.69239 29.69239 38.39266
#
# Poissons Ratio (x) = 0.33097 0.45012
# Poissons Ratio (y) = 0.33097 0.45012
# Poissons Ratio (z) = 0.34812 0.34812
#
# Static dielectric constant tensor:
#      x y z
#    x 1.459440 0.000000 0.000000 
#    y 0.000000 1.459440 0.000000 
#    z 0.000000 0.000000 1.491270 
# 
# From -- ./inp_files/7065.got.cif
#   From: 2010.05.17/outbox.cif.g08.bks.cpg/sg166_4_cif.got.tgz:7065.got - 2010.05.20 11:04:41.
