data_PCOD9579314
_publ_section_title
;
Structure prediction by ZEFSAII (Michael W. Deem and Ramdas Pophale) SiO2 
 PCOD9579314
Probable space group: R -3 M
;
_chemical_formula_sum "Si O2"
_cell_formula_units_Z 144
_cell_length_a 30.456025
_cell_length_b 30.456025
_cell_length_c 9.557488
_cell_angle_alpha 90.000000
_cell_angle_beta 90.000000
_cell_angle_gamma 120.000000
_cell_volume 7677.517830
_symmetry_space_group_name_H-M "R -3 M"
_symmetry_group_IT_number 166
_symmetry_cell_setting 'hexagonal'
loop_
_space_group_symop_operation_xyz
x,y,z
-y,x-y,z
-x+y,-x,z
x-y,-y,-z
-x,-x+y,-z
y,x,-z
-x,-y,-z
y,-x+y,-z
x-y,x,-z
-x+y,y,z
x,x-y,z
-y,-x,z
2/3+x,1/3+y,1/3+z
2/3-y,1/3+x-y,1/3+z
2/3-x+y,1/3-x,1/3+z
2/3+x-y,1/3-y,1/3-z
2/3-x,1/3-x+y,1/3-z
2/3+y,1/3+x,1/3-z
2/3-x,1/3-y,1/3-z
2/3+y,1/3-x+y,1/3-z
2/3+x-y,1/3+x,1/3-z
2/3-x+y,1/3+y,1/3+z
2/3+x,1/3+x-y,1/3+z
2/3-y,1/3-x,1/3+z
1/3+x,2/3+y,2/3+z
1/3-y,2/3+x-y,2/3+z
1/3-x+y,2/3-x,2/3+z
1/3+x-y,2/3-y,2/3-z
1/3-x,2/3-x+y,2/3-z
1/3+y,2/3+x,2/3-z
1/3-x,2/3-y,2/3-z
1/3+y,2/3-x+y,2/3-z
1/3+x-y,2/3+x,2/3-z
1/3-x+y,2/3+y,2/3+z
1/3+x,2/3+x-y,2/3+z
1/3-y,2/3-x,2/3+z
loop_
_atom_site_type_symbol
_atom_site_label
_atom_site_fract_x
_atom_site_fract_y
_atom_site_fract_z
Si Si1 0.138919 0.277838 0.269537
Si Si2 0.940632 0.371873 0.462514
Si Si3 0.123033 0.477557 0.009527
Si Si4 0.283050 0.141525 0.066868
Si Si5 0.666841 0.434365 0.004169
O O1 0.166667 0.333334 0.333334
O O2 0.081133 0.246353 0.323384
O O3 0.143336 0.286672 0.101888
O O4 0.926108 0.333334 0.333334
O O5 0.907446 0.339737 0.591805
O O6 0.925865 0.415454 0.433669
O O7 0.000000 0.399617 0.500000
O O8 0.132304 0.465637 0.166667
O O9 0.178488 0.519072 0.952082
O O10 0.333334 0.166667 0.166667
O O11 0.719730 0.439459 0.049486
O O12 0.618804 0.381197 0.048728
O O13 0.666667 0.434155 0.833334
#
# Coordination Sequence:
#
# PCOD9579314 Si02
#       5
#    18  36  36  18  36
#     4  12  26  44  68  98 134 180 228 283 342 406
#     4  11  25  44  66  91 127 170 218 277 338 407
#     4  11  25  40  64  97 136 171 222 278 338 404
#     4  10  24  46  68  94 127 168 223 275 349 407
#     4   9  17  32  55  88 127 166 208 258 320 387
#
# _framework density 18.756060999999999
#
# number of rings (size 3 to 8) (size 9 to 14) (size 15 to 20)
#    0.000    1.500    3.750    0.250   10.500    3.000 
#    0.000    0.000    0.000    0.000    0.000    0.000 
#    0.000    4.000    0.000    0.000    0.000    0.000 
#
# Total GULP energy -267748.992931 kJ/mol
# GULP energy per Si atom -5578.104019 kJ/mol
# Density = 1.871337 g / cm^3
# Si number density = 18.756061 Si / 1000 Ang^3
#
#
#
# Elastic Constant Matrix: (Units=GPa)
#
#
# Indices 1 2 3 4 5 6 
#
# 1 -52.4400 292.8033 42.5825 -150.4285 -0.5583 -0.5643
# 2 292.8033 -51.8256 44.2109 150.2263 0.1766 0.0600
# 3 42.5825 44.2109 81.3380 -0.5483 -0.6378 -0.8208
# 4 -150.4285 150.2263 -0.5483 -78.0231 -0.1145 -0.0313
# 5 -0.5583 0.1766 -0.6378 -0.1145 -61.2349 -126.2374
# 6 -0.5643 0.0600 -0.8208 -0.0313 -126.2374 -137.9518
#
#
#
# Elastic Compliance Matrix: (Units=1/GPa)
#
#
# Indices 1 2 3 4 5 6 
#
# 1 0.004710 0.000439 -0.002760 -0.008217 -0.000005 0.000003
# 2 0.000439 0.004702 -0.002730 0.008227 0.000009 0.000007
# 3 -0.002760 -0.002730 0.015222 -0.000043 -0.000028 -0.000055
# 4 -0.008217 0.008227 -0.000043 0.018866 0.000005 0.000028
# 5 -0.000005 0.000009 -0.000028 0.000005 0.018422 -0.016858
# 6 0.000003 0.000007 -0.000055 0.000028 -0.016858 0.008177
#
#
# Mechanical properties :
#
#
# Convention : Reuss Voigt Hill
#
# Bulk Modulus (GPa) = 68.81171 81.80731 75.30951
# Shear Modulus (GPa) = 58.79187 -82.27692 -11.74252
#
# Velocity S-wave (km/s) = 5.60478 -6.63039 -2.50484
# Velocity P-wave (km/s) = 8.86860 3.86069 5.64567
#
# Compressibility (1/GPa) = 0.01453241
#
# Stress axis : x y z
#
# Youngs Moduli (GPa) = 212.31151 212.66196 65.69439
#
# Poissons Ratio (x) = -0.09331 0.18130
# Poissons Ratio (y) = -0.09316 0.17935
# Poissons Ratio (z) = 0.58592 0.58058
#
# Static dielectric constant tensor:
#      x y z
#    x 1.606220 0.000040 0.000080 
#    y 0.000040 1.606240 -0.000050 
#    z 0.000080 -0.000050 1.653350 
# 
# From -- ./inp_files/1853.got.cif
#   From: 2010.05.17/outbox.cif.g08.bks.cpg/sg166_1_cif.got.tgz:1853.got - 2010.05.20 11:04:41.
