data_PCOD9579802
_publ_section_title
;
Structure prediction by ZEFSAII (Michael W. Deem and Ramdas Pophale) SiO2 
 PCOD9579802
Probable space group: P 61
;
_chemical_formula_sum "Si O2"
_cell_formula_units_Z 48
_cell_length_a 17.389195
_cell_length_b 17.389195
_cell_length_c 9.219260
_cell_angle_alpha 90.000000
_cell_angle_beta 90.000000
_cell_angle_gamma 120.000000
_cell_volume 2414.268956
_symmetry_space_group_name_H-M "P 61"
_symmetry_group_IT_number 169
_symmetry_cell_setting 'hexagonal'
loop_
_space_group_symop_operation_xyz
x,y,z
x-y,x,1/6+z
-y,x-y,1/3+z
-x,-y,1/2+z
-x+y,-x,2/3+z
y,-x+y,5/6+z
loop_
_atom_site_type_symbol
_atom_site_label
_atom_site_fract_x
_atom_site_fract_y
_atom_site_fract_z
Si Si1 0.832886 0.660292 0.872040
Si Si2 0.484668 0.354184 0.156724
Si Si3 0.649107 0.797278 0.028693
Si Si4 0.088679 0.183901 0.894801
Si Si5 0.650547 0.531263 0.164425
Si Si6 0.243619 0.281566 0.120714
Si Si7 0.596050 0.580816 0.446160
Si Si8 0.975594 0.572051 0.111194
O O1 0.807646 0.556734 0.859969
O O2 0.775731 0.687528 0.773255
O O3 0.932907 0.710522 0.809466
O O4 0.842724 0.687129 0.039507
O O5 0.588337 0.424844 0.173102
O O6 0.453677 0.366639 0.998067
O O7 0.437521 0.389289 0.273121
O O8 0.727951 0.833278 0.143509
O O9 0.571040 0.820396 0.050018
O O10 0.606163 0.692787 0.009635
O O11 0.122810 0.133149 0.788779
O O12 0.153819 0.221927 0.032787
O O13 0.611079 0.574606 0.276769
O O14 0.636308 0.561793 0.005548
O O15 0.309276 0.367138 0.024617
O O16 0.526754 0.479569 0.491842
#
# Coordination Sequence:
#
# PCOD9579802 Si02
#       8
#     6   6   6   6   6   6   6   6
#     4  10  23  37  60  87 119 156 208 253 310 370
#     4   8  18  35  56  81 110 147 186 236 286 356
#     4  11  23  36  62  92 120 158 202 260 305 375
#     4  12  26  46  62  90 123 165 221 274 333 377
#     4  10  18  33  58  85 116 147 188 239 298 350
#     4  11  21  40  64  85 118 160 206 259 313 376
#     4   9  18  34  58  84 110 148 184 238 291 363
#     4   9  19  35  56  86 116 145 193 239 300 353
#
# _framework density 19.881795
#
# number of rings (size 3 to 8) (size 9 to 14) (size 15 to 20)
#    0.000    2.000    2.500    0.750    7.000    0.000 
#    2.250    0.000    8.250    0.000    0.000    0.000 
#    0.000    0.000    0.000    0.000    0.000    0.000 
#
# Total GULP energy -267529.878535 kJ/mol
# GULP energy per Si atom -5573.539136 kJ/mol
# Density = 1.983654 g / cm^3
# Si number density = 19.881795 Si / 1000 Ang^3
#
#
#
# Elastic Constant Matrix: (Units=GPa)
#
#
# Indices 1 2 3 4 5 6 
#
# 1 59.1074 23.0053 0.6580 0.0000 0.0000 0.0000
# 2 23.0053 59.1074 0.6580 0.0000 0.0000 0.0000
# 3 0.6580 0.6580 44.9824 0.0000 0.0000 0.0000
# 4 0.0000 0.0000 0.0000 29.3462 0.0000 0.0000
# 5 0.0000 0.0000 0.0000 0.0000 29.3462 0.0000
# 6 0.0000 0.0000 0.0000 0.0000 0.0000 18.0510
#
#
#
# Elastic Compliance Matrix: (Units=1/GPa)
#
#
# Indices 1 2 3 4 5 6 
#
# 1 0.019940 -0.007759 -0.000178 0.000000 0.000000 0.000000
# 2 -0.007759 0.019940 -0.000178 0.000000 0.000000 0.000000
# 3 -0.000178 -0.000178 0.022236 0.000000 0.000000 0.000000
# 4 0.000000 0.000000 0.000000 0.034076 0.000000 0.000000
# 5 0.000000 0.000000 0.000000 0.000000 0.034076 0.000000
# 6 0.000000 0.000000 0.000000 0.000000 0.000000 0.055398
#
#
# Mechanical properties :
#
#
# Convention : Reuss Voigt Hill
#
# Bulk Modulus (GPa) = 21.79316 23.53771 22.66544
# Shear Modulus (GPa) = 23.02100 24.60708 23.81404
#
# Velocity S-wave (km/s) = 3.40648 3.52187 3.46465
# Velocity P-wave (km/s) = 5.14366 5.32941 5.23736
#
# Compressibility (1/GPa) = 0.04588596
#
# Stress axis : x y z
#
# Youngs Moduli (GPa) = 50.14985 50.14985 44.97181
#
# Poissons Ratio (x) = 0.38911 0.00801
# Poissons Ratio (y) = 0.38911 0.00801
# Poissons Ratio (z) = 0.00894 0.00894
#
# Static dielectric constant tensor:
#      x y z
#    x 1.721570 0.000000 0.000000 
#    y 0.000000 1.721570 0.000000 
#    z 0.000000 0.000000 1.742360 
# 
# From -- ./inp_files/753.got.cif
#   From: 2010.05.17/outbox.cif.g08.bks.cpg/sg169_cif.got.tgz:753.got - 2010.05.20 11:12:54.
