data_PCOD9579445
_publ_section_title
;
Structure prediction by ZEFSAII (Michael W. Deem and Ramdas Pophale) SiO2 
 PCOD9579445
Probable space group: R -3 C 
;
_chemical_formula_sum "Si O2"
_cell_formula_units_Z 216
_cell_length_a 24.969329
_cell_length_b 24.969329
_cell_length_c 22.624992
_cell_angle_alpha 90.000000
_cell_angle_beta 90.000000
_cell_angle_gamma 120.000000
_cell_volume 12216.106478
_symmetry_space_group_name_H-M "R -3 C "
_symmetry_group_IT_number 167
_symmetry_cell_setting 'hexagonal'
loop_
_space_group_symop_operation_xyz
x,y,z
-y,x-y,z
-x+y,-x,z
x-y,-y,1/2-z
-x,-x+y,1/2-z
y,x,1/2-z
-x,-y,-z
y,-x+y,-z
x-y,x,-z
-x+y,y,1/2+z
x,x-y,1/2+z
-y,-x,1/2+z
2/3+x,1/3+y,1/3+z
2/3-y,1/3+x-y,1/3+z
2/3-x+y,1/3-x,1/3+z
2/3+x-y,1/3-y,5/6-z
2/3-x,1/3-x+y,5/6-z
2/3+y,1/3+x,5/6-z
2/3-x,1/3-y,1/3-z
2/3+y,1/3-x+y,1/3-z
2/3+x-y,1/3+x,1/3-z
2/3-x+y,1/3+y,5/6+z
2/3+x,1/3+x-y,5/6+z
2/3-y,1/3-x,5/6+z
1/3+x,2/3+y,2/3+z
1/3-y,2/3+x-y,2/3+z
1/3-x+y,2/3-x,2/3+z
1/3+x-y,2/3-y,1/6-z
1/3-x,2/3-x+y,1/6-z
1/3+y,2/3+x,1/6-z
1/3-x,2/3-y,2/3-z
1/3+y,2/3-x+y,2/3-z
1/3+x-y,2/3+x,2/3-z
1/3-x+y,2/3+y,1/6+z
1/3+x,2/3+x-y,1/6+z
1/3-y,2/3-x,1/6+z
loop_
_atom_site_type_symbol
_atom_site_label
_atom_site_fract_x
_atom_site_fract_y
_atom_site_fract_z
Si Si1 0.671689 0.681842 0.486324
Si Si2 0.126994 0.886690 0.622860
Si Si3 0.343882 0.443885 0.349608
Si Si4 0.010457 0.212283 0.820525
Si Si5 0.875993 0.144570 0.133993
Si Si6 0.621443 0.845673 0.166379
O O1 0.668948 0.666667 0.416667
O O2 0.694367 0.638610 0.516494
O O3 0.601028 0.661215 0.504352
O O4 0.711224 0.755447 0.497237
O O5 0.061389 0.836443 0.648075
O O6 0.174198 0.865440 0.648155
O O7 0.135135 0.889940 0.552334
O O8 0.153208 0.954893 0.648473
O O9 0.333334 0.456505 0.416667
O O10 0.278932 0.418245 0.317240
O O11 0.076506 0.223915 0.840876
O O12 0.000000 0.205197 0.750000
O O13 0.833334 0.166667 0.166667
O O14 0.872386 0.147451 0.063418
#
# Coordination Sequence:
#
# PCOD9579445 Si02
#       6
#    36  36  36  36  36  36
#     4  10  19  35  54  80 117 154 192 239 300 369
#     4  10  24  37  51  82 121 154 192 247 303 366
#     4  12  24  35  58  88 121 155 206 253 307 371
#     4  10  20  38  57  76 111 149 194 243 295 359
#     4  12  21  37  60  85 107 153 208 250 305 379
#     4  10  22  36  54  83 119 158 197 235 306 369
#
# _framework density 17.681574999999999
#
# number of rings (size 3 to 8) (size 9 to 14) (size 15 to 20)
#    0.000    1.333    3.333    4.000    7.000    1.333 
#    0.000    0.000    0.000    0.667    0.000    2.333 
#    0.000    2.667    0.000    0.000    0.000    0.000 
#
# Total GULP energy -402208.588611 kJ/mol
# GULP energy per Si atom -5586.230397 kJ/mol
# Density = 1.764133 g / cm^3
# Si number density = 17.681575 Si / 1000 Ang^3
#
#
#
# Elastic Constant Matrix: (Units=GPa)
#
#
# Indices 1 2 3 4 5 6 
#
# 1 92.4756 41.5642 43.4569 -1.9699 0.0001 0.0000
# 2 41.5642 92.4756 43.4569 1.9699 -0.0001 0.0000
# 3 43.4569 43.4569 147.5339 0.0000 0.0000 0.0000
# 4 -1.9699 1.9699 0.0000 19.7408 0.0000 -0.0001
# 5 0.0001 -0.0001 0.0000 0.0000 19.7408 -1.9699
# 6 0.0000 0.0000 0.0000 -0.0001 -1.9699 25.4557
#
#
#
# Elastic Compliance Matrix: (Units=1/GPa)
#
#
# Indices 1 2 3 4 5 6 
#
# 1 0.014508 -0.005287 -0.002716 0.001975 0.000000 0.000000
# 2 -0.005287 0.014508 -0.002716 -0.001975 0.000000 0.000000
# 3 -0.002716 -0.002716 0.008378 0.000000 0.000000 0.000000
# 4 0.001975 -0.001975 0.000000 0.051051 0.000000 0.000000
# 5 0.000000 0.000000 0.000000 0.000000 0.051051 0.003951
# 6 0.000000 0.000000 0.000000 0.000000 0.003951 0.039590
#
#
# Mechanical properties :
#
#
# Convention : Reuss Voigt Hill
#
# Bulk Modulus (GPa) = 62.67004 65.49344 64.08174
# Shear Modulus (GPa) = 24.29032 26.58792 25.43912
#
# Velocity S-wave (km/s) = 3.71045 3.88197 3.79718
# Velocity P-wave (km/s) = 7.34011 7.56399 7.45289
#
# Compressibility (1/GPa) = 0.01595659
#
# Stress axis : x y z
#
# Youngs Moduli (GPa) = 68.92601 68.92601 119.35564
#
# Poissons Ratio (x) = 0.36438 0.32421
# Poissons Ratio (y) = 0.36438 0.32421
# Poissons Ratio (z) = 0.18723 0.18723
#
# Static dielectric constant tensor:
#      x y z
#    x 1.600870 0.000000 0.000000 
#    y 0.000000 1.600870 0.000000 
#    z 0.000000 0.000000 1.682040 
# 
# From -- ./inp_files/5515.got.cif
#   From: 2010.05.17/outbox.cif.g08.bks.cpg/sg167_3_cif.got.tgz:5515.got - 2010.05.20 11:09:15.
