data_PCOD9579515
_publ_section_title
;
Structure prediction by ZEFSAII (Michael W. Deem and Ramdas Pophale) SiO2 
 PCOD9579515
Probable space group: R -3 C 
;
_chemical_formula_sum "Si O2"
_cell_formula_units_Z 162
_cell_length_a 19.323246
_cell_length_b 19.323246
_cell_length_c 20.864009
_cell_angle_alpha 90.000000
_cell_angle_beta 90.000000
_cell_angle_gamma 120.000000
_cell_volume 6746.655874
_symmetry_space_group_name_H-M "R -3 C "
_symmetry_group_IT_number 167
_symmetry_cell_setting 'hexagonal'
loop_
_space_group_symop_operation_xyz
x,y,z
-y,x-y,z
-x+y,-x,z
x-y,-y,1/2-z
-x,-x+y,1/2-z
y,x,1/2-z
-x,-y,-z
y,-x+y,-z
x-y,x,-z
-x+y,y,1/2+z
x,x-y,1/2+z
-y,-x,1/2+z
2/3+x,1/3+y,1/3+z
2/3-y,1/3+x-y,1/3+z
2/3-x+y,1/3-x,1/3+z
2/3+x-y,1/3-y,5/6-z
2/3-x,1/3-x+y,5/6-z
2/3+y,1/3+x,5/6-z
2/3-x,1/3-y,1/3-z
2/3+y,1/3-x+y,1/3-z
2/3+x-y,1/3+x,1/3-z
2/3-x+y,1/3+y,5/6+z
2/3+x,1/3+x-y,5/6+z
2/3-y,1/3-x,5/6+z
1/3+x,2/3+y,2/3+z
1/3-y,2/3+x-y,2/3+z
1/3-x+y,2/3-x,2/3+z
1/3+x-y,2/3-y,1/6-z
1/3-x,2/3-x+y,1/6-z
1/3+y,2/3+x,1/6-z
1/3-x,2/3-y,2/3-z
1/3+y,2/3-x+y,2/3-z
1/3+x-y,2/3+x,2/3-z
1/3-x+y,2/3+y,1/6+z
1/3+x,2/3+x-y,1/6+z
1/3-y,2/3-x,1/6+z
loop_
_atom_site_type_symbol
_atom_site_label
_atom_site_fract_x
_atom_site_fract_y
_atom_site_fract_z
Si Si1 0.205233 0.121580 0.656606
Si Si2 0.797769 0.672020 0.839789
Si Si3 0.976348 0.138698 0.029098
Si Si4 0.087241 0.339304 0.256271
Si Si5 0.333334 0.482949 0.916667
O O1 0.152977 0.135673 0.605664
O O2 0.272363 0.201127 0.690235
O O3 0.250145 0.082371 0.617085
O O4 0.164526 0.060345 0.712975
O O5 0.803305 0.666667 0.916667
O O6 0.719898 0.588020 0.819327
O O7 0.877011 0.676475 0.808177
O O8 0.794429 0.743133 0.800154
O O9 0.055996 0.152038 0.996922
O O10 0.000000 0.329894 0.250000
#
# Coordination Sequence:
#
# PCOD9579515 Si02
#       5
#    36  36  36  36  18
#     4   9  20  38  58  87 126 163 208 258 323 375
#     4  10  22  39  64 100 128 169 220 262 320 403
#     4  11  24  42  62  88 123 169 218 267 316 379
#     4   9  19  36  58  90 129 171 201 256 323 382
#     4  10  20  40  64  90 140 162 196 280 326 384
#
# _framework density 24.011894999999999
#
# number of rings (size 3 to 8) (size 9 to 14) (size 15 to 20)
#    0.000    2.222    0.000    2.889    3.111    4.444 
#    4.000    0.000    0.000    0.000    0.000    0.000 
#    0.000    0.000    0.000    0.000    0.000    0.000 
#
# Total GULP energy -301604.557974 kJ/mol
# GULP energy per Si atom -5585.269592 kJ/mol
# Density = 2.395724 g / cm^3
# Si number density = 24.011895 Si / 1000 Ang^3
#
#
#
# Elastic Constant Matrix: (Units=GPa)
#
#
# Indices 1 2 3 4 5 6 
#
# 1 52.2735 20.3085 23.2499 -1.1893 0.0000 0.0000
# 2 20.3085 52.2735 23.2499 1.1893 0.0000 0.0000
# 3 23.2499 23.2499 160.9790 0.0000 0.0000 0.0000
# 4 -1.1893 1.1893 0.0000 20.4958 0.0000 0.0000
# 5 0.0000 0.0000 0.0000 0.0000 20.4958 -1.1893
# 6 0.0000 0.0000 0.0000 0.0000 -1.1893 15.9825
#
#
#
# Elastic Compliance Matrix: (Units=1/GPa)
#
#
# Indices 1 2 3 4 5 6 
#
# 1 0.023301 -0.008119 -0.002193 0.001823 0.000000 0.000000
# 2 -0.008119 0.023301 -0.002193 -0.001823 0.000000 0.000000
# 3 -0.002193 -0.002193 0.006845 0.000000 0.000000 0.000000
# 4 0.001823 -0.001823 0.000000 0.049002 0.000000 0.000000
# 5 0.000000 0.000000 0.000000 0.000000 0.049002 0.003646
# 6 0.000000 0.000000 0.000000 0.000000 0.003646 0.062840
#
#
# Mechanical properties :
#
#
# Convention : Reuss Voigt Hill
#
# Bulk Modulus (GPa) = 35.16298 44.34916 39.75607
# Shear Modulus (GPa) = 20.09812 24.64268 22.37040
#
# Velocity S-wave (km/s) = 2.89625 3.20702 3.05559
# Velocity P-wave (km/s) = 5.08528 5.67654 5.38902
#
# Compressibility (1/GPa) = 0.02843900
#
# Stress axis : x y z
#
# Youngs Moduli (GPa) = 42.91647 42.91647 146.08389
#
# Poissons Ratio (x) = 0.34843 0.32033
# Poissons Ratio (y) = 0.34843 0.32033
# Poissons Ratio (z) = 0.09411 0.09411
#
# Static dielectric constant tensor:
#      x y z
#    x 1.949480 0.000000 0.000000 
#    y 0.000000 1.949480 0.000000 
#    z 0.000000 0.000000 2.014510 
# 
# From -- ./inp_files/4448.got.cif
#   From: 2010.05.17/outbox.cif.g08.bks.cpg/sg167_3_cif.got.tgz:4448.got - 2010.05.20 11:09:15.
