data_PCOD9579578
_publ_section_title
;
Structure prediction by ZEFSAII (Michael W. Deem and Ramdas Pophale) SiO2 
 PCOD9579578
Probable space group: R -3 C 
;
_chemical_formula_sum "Si O2"
_cell_formula_units_Z 126
_cell_length_a 31.255893
_cell_length_b 31.255893
_cell_length_c 8.605016
_cell_angle_alpha 90.000000
_cell_angle_beta 90.000000
_cell_angle_gamma 120.000000
_cell_volume 7280.247382
_symmetry_space_group_name_H-M "R -3 C "
_symmetry_group_IT_number 167
_symmetry_cell_setting 'hexagonal'
loop_
_space_group_symop_operation_xyz
x,y,z
-y,x-y,z
-x+y,-x,z
x-y,-y,1/2-z
-x,-x+y,1/2-z
y,x,1/2-z
-x,-y,-z
y,-x+y,-z
x-y,x,-z
-x+y,y,1/2+z
x,x-y,1/2+z
-y,-x,1/2+z
2/3+x,1/3+y,1/3+z
2/3-y,1/3+x-y,1/3+z
2/3-x+y,1/3-x,1/3+z
2/3+x-y,1/3-y,5/6-z
2/3-x,1/3-x+y,5/6-z
2/3+y,1/3+x,5/6-z
2/3-x,1/3-y,1/3-z
2/3+y,1/3-x+y,1/3-z
2/3+x-y,1/3+x,1/3-z
2/3-x+y,1/3+y,5/6+z
2/3+x,1/3+x-y,5/6+z
2/3-y,1/3-x,5/6+z
1/3+x,2/3+y,2/3+z
1/3-y,2/3+x-y,2/3+z
1/3-x+y,2/3-x,2/3+z
1/3+x-y,2/3-y,1/6-z
1/3-x,2/3-x+y,1/6-z
1/3+y,2/3+x,1/6-z
1/3-x,2/3-y,2/3-z
1/3+y,2/3-x+y,2/3-z
1/3+x-y,2/3+x,2/3-z
1/3-x+y,2/3+y,1/6+z
1/3+x,2/3+x-y,1/6+z
1/3-y,2/3-x,1/6+z
loop_
_atom_site_type_symbol
_atom_site_label
_atom_site_fract_x
_atom_site_fract_y
_atom_site_fract_z
Si Si1 0.968814 0.635481 0.083334
Si Si2 0.867630 0.746033 0.427532
Si Si3 0.056758 0.236131 0.801412
Si Si4 0.899407 0.210749 0.166986
O O1 0.916941 0.627970 0.138050
O O2 0.000000 0.653061 0.250000
O O3 0.845976 0.774093 0.529366
O O4 0.914580 0.779488 0.320592
O O5 0.823929 0.707402 0.317739
O O6 0.886680 0.716262 0.533862
O O7 0.087900 0.296591 0.804309
O O8 0.000000 0.213864 0.750000
#
# Coordination Sequence:
#
# PCOD9579578 Si02
#       4
#    18  36  36  36
#     4  12  28  40  56  86 116 146 200 258 294 328
#     4  10  22  39  55  78 111 147 194 240 291 347
#     4  11  21  35  57  76 106 151 190 230 287 341
#     4  11  22  37  55  79 108 148 194 245 290 337
#
# _framework density 17.307103000000001
#
# number of rings (size 3 to 8) (size 9 to 14) (size 15 to 20)
#    0.000    1.143    0.000    9.429   12.000    0.000 
#    0.000    0.000    0.000    0.000    0.000    0.000 
#    0.000    0.000    0.000    8.571    0.000    0.000 
#
# Total GULP energy -233860.862858 kJ/mol
# GULP energy per Si atom -5568.115782 kJ/mol
# Density = 1.726771 g / cm^3
# Si number density = 17.307103 Si / 1000 Ang^3
#
#
#
# Elastic Constant Matrix: (Units=GPa)
#
#
# Indices 1 2 3 4 5 6 
#
# 1 92.6998 40.8353 37.6990 14.2547 -0.0226 0.0046
# 2 40.8353 92.7187 37.7330 -14.2328 -0.0103 0.0053
# 3 37.6990 37.7330 127.3771 -0.0733 -0.0212 -0.0133
# 4 14.2547 -14.2328 -0.0733 12.4408 -0.0210 0.0108
# 5 -0.0226 -0.0103 -0.0212 -0.0210 12.3765 14.2420
# 6 0.0046 0.0053 -0.0133 0.0108 14.2420 25.9343
#
#
#
# Elastic Compliance Matrix: (Units=1/GPa)
#
#
# Indices 1 2 3 4 5 6 
#
# 1 0.030494 -0.021468 -0.002700 -0.059516 -0.000254 0.000162
# 2 -0.021468 0.030425 -0.002625 0.059390 0.000313 -0.000200
# 3 -0.002700 -0.002625 0.009428 0.000146 0.000007 0.000002
# 4 -0.059516 0.059390 0.000146 0.216522 0.001124 -0.000709
# 5 -0.000254 0.000313 0.000007 0.001124 0.219530 -0.120557
# 6 0.000162 -0.000200 0.000002 -0.000709 -0.120557 0.104765
#
#
# Mechanical properties :
#
#
# Convention : Reuss Voigt Hill
#
# Bulk Modulus (GPa) = 59.66060 60.59223 60.12641
# Shear Modulus (GPa) = 7.45894 23.25220 15.35557
#
# Velocity S-wave (km/s) = 2.07825 3.66936 2.98189
# Velocity P-wave (km/s) = 6.34865 7.28274 6.83168
#
# Compressibility (1/GPa) = 0.01676148
#
# Stress axis : x y z
#
# Youngs Moduli (GPa) = 32.79316 32.86763 106.07234
#
# Poissons Ratio (x) = 0.70559 0.28641
# Poissons Ratio (y) = 0.70399 0.27844
# Poissons Ratio (z) = 0.08854 0.08628
#
# Static dielectric constant tensor:
#      x y z
#    x 1.608820 0.000010 -0.000130 
#    y 0.000010 1.608800 0.000050 
#    z -0.000130 0.000050 1.742260 
# 
# From -- ./inp_files/670.got.cif
#   From: 2010.05.17/outbox.cif.g08.bks.cpg/sg167_1_cif.got.tgz:670.got - 2010.05.20 11:09:15.
