data_PCOD9579218
_publ_section_title
;
Structure prediction by ZEFSAII (Michael W. Deem and Ramdas Pophale) SiO2 
 PCOD9579218
Probable space group: R -3 M
;
_chemical_formula_sum "Si O2"
_cell_formula_units_Z 162
_cell_length_a 21.610376
_cell_length_b 21.610376
_cell_length_c 22.923147
_cell_angle_alpha 90.000000
_cell_angle_beta 90.000000
_cell_angle_gamma 120.000000
_cell_volume 9271.062688
_symmetry_space_group_name_H-M "R -3 M"
_symmetry_group_IT_number 166
_symmetry_cell_setting 'hexagonal'
loop_
_space_group_symop_operation_xyz
x,y,z
-y,x-y,z
-x+y,-x,z
x-y,-y,-z
-x,-x+y,-z
y,x,-z
-x,-y,-z
y,-x+y,-z
x-y,x,-z
-x+y,y,z
x,x-y,z
-y,-x,z
2/3+x,1/3+y,1/3+z
2/3-y,1/3+x-y,1/3+z
2/3-x+y,1/3-x,1/3+z
2/3+x-y,1/3-y,1/3-z
2/3-x,1/3-x+y,1/3-z
2/3+y,1/3+x,1/3-z
2/3-x,1/3-y,1/3-z
2/3+y,1/3-x+y,1/3-z
2/3+x-y,1/3+x,1/3-z
2/3-x+y,1/3+y,1/3+z
2/3+x,1/3+x-y,1/3+z
2/3-y,1/3-x,1/3+z
1/3+x,2/3+y,2/3+z
1/3-y,2/3+x-y,2/3+z
1/3-x+y,2/3-x,2/3+z
1/3+x-y,2/3-y,2/3-z
1/3-x,2/3-x+y,2/3-z
1/3+y,2/3+x,2/3-z
1/3-x,2/3-y,2/3-z
1/3+y,2/3-x+y,2/3-z
1/3+x-y,2/3+x,2/3-z
1/3-x+y,2/3+y,2/3+z
1/3+x,2/3+x-y,2/3+z
1/3-y,2/3-x,2/3+z
loop_
_atom_site_type_symbol
_atom_site_label
_atom_site_fract_x
_atom_site_fract_y
_atom_site_fract_z
Si Si1 0.615253 0.533667 0.230207
Si Si2 0.919822 0.385506 0.097277
Si Si3 0.667647 0.593469 0.902857
Si Si4 0.814337 0.481004 0.333334
Si Si5 0.333790 0.518542 0.325834
O O1 0.540071 0.459930 0.230194
O O2 0.643108 0.546837 0.163652
O O3 0.599721 0.596322 0.247843
O O4 0.664551 0.523470 0.276409
O O5 0.924505 0.462253 0.097102
O O6 0.997944 0.398840 0.081770
O O7 0.859461 0.338136 0.050839
O O8 0.666667 0.580287 0.833334
O O9 0.667887 0.530728 0.939187
O O10 0.737041 0.474081 0.333296
O O11 0.262462 0.524924 0.323238
O O12 0.404448 0.595553 0.325788
#
# Coordination Sequence:
#
# PCOD9579218 Si02
#       5
#    36  36  36  18  36
#     4   9  19  35  54  80 111 141 179 228 274 324
#     4   9  19  36  56  78 107 143 185 228 271 323
#     4  10  20  36  58  82 109 142 181 228 282 334
#     4  10  21  36  56  80 111 148 186 224 270 328
#     4  11  23  37  55  80 112 149 189 230 275 329
#
# _framework density 17.473725000000002
#
# number of rings (size 3 to 8) (size 9 to 14) (size 15 to 20)
#    0.000    2.222    0.000    2.333    3.111    5.333 
#    0.000    0.000    0.000    8.000    0.000    0.000 
#    0.000    0.000    0.000    0.000    0.000    0.000 
#
# Total GULP energy -301340.434310 kJ/mol
# GULP energy per Si atom -5580.378413 kJ/mol
# Density = 1.743395 g / cm^3
# Si number density = 17.473725 Si / 1000 Ang^3
#
#
#
# Elastic Constant Matrix: (Units=GPa)
#
#
# Indices 1 2 3 4 5 6 
#
# 1 91.4193 63.6756 67.5913 -3.9857 0.0000 0.0000
# 2 63.6756 91.4193 67.5913 3.9857 0.0000 0.0000
# 3 67.5913 67.5913 95.1003 0.0000 0.0000 0.0000
# 4 -3.9857 3.9857 0.0000 27.6184 0.0000 0.0000
# 5 0.0000 0.0000 0.0000 0.0000 27.6184 -3.9857
# 6 0.0000 0.0000 0.0000 0.0000 -3.9857 13.8718
#
#
#
# Elastic Compliance Matrix: (Units=1/GPa)
#
#
# Indices 1 2 3 4 5 6 
#
# 1 0.027274 -0.010329 -0.012043 0.005427 0.000000 0.000000
# 2 -0.010329 0.027274 -0.012043 -0.005427 0.000000 0.000000
# 3 -0.012043 -0.012043 0.027634 0.000000 0.000000 0.000000
# 4 0.005427 -0.005427 0.000000 0.037774 0.000000 0.000000
# 5 0.000000 0.000000 0.000000 0.000000 0.037774 0.010853
# 6 0.000000 0.000000 0.000000 0.000000 0.010853 0.075207
#
#
# Mechanical properties :
#
#
# Convention : Reuss Voigt Hill
#
# Bulk Modulus (GPa) = 74.90166 75.07281 74.98723
# Shear Modulus (GPa) = 16.32815 19.09374 17.71094
#
# Velocity S-wave (km/s) = 3.06018 3.30920 3.18712
# Velocity P-wave (km/s) = 7.44611 7.59326 7.52005
#
# Compressibility (1/GPa) = 0.01335084
#
# Stress axis : x y z
#
# Youngs Moduli (GPa) = 36.66483 36.66483 36.18684
#
# Poissons Ratio (x) = 0.37873 0.43581
# Poissons Ratio (y) = 0.37873 0.43581
# Poissons Ratio (z) = 0.44156 0.44156
#
# Static dielectric constant tensor:
#      x y z
#    x 1.564270 0.000000 0.000000 
#    y 0.000000 1.564270 0.000000 
#    z 0.000000 0.000000 1.618290 
# 
# From -- ./inp_files/6760.got.cif
#   From: 2010.05.17/outbox.cif.g08.bks.cpg/sg166_4_cif.got.tgz:6760.got - 2010.05.20 11:04:41.
