data_PCOD9579688
_publ_section_title
;
Structure prediction by ZEFSAII (Michael W. Deem and Ramdas Pophale) SiO2 
 PCOD9579688
Probable space group: R -3 C 
;
_chemical_formula_sum "Si O2"
_cell_formula_units_Z 126
_cell_length_a 24.839797
_cell_length_b 24.839797
_cell_length_c 8.752359
_cell_angle_alpha 90.000000
_cell_angle_beta 90.000000
_cell_angle_gamma 120.000000
_cell_volume 4676.832751
_symmetry_space_group_name_H-M "R -3 C "
_symmetry_group_IT_number 167
_symmetry_cell_setting 'hexagonal'
loop_
_space_group_symop_operation_xyz
x,y,z
-y,x-y,z
-x+y,-x,z
x-y,-y,1/2-z
-x,-x+y,1/2-z
y,x,1/2-z
-x,-y,-z
y,-x+y,-z
x-y,x,-z
-x+y,y,1/2+z
x,x-y,1/2+z
-y,-x,1/2+z
2/3+x,1/3+y,1/3+z
2/3-y,1/3+x-y,1/3+z
2/3-x+y,1/3-x,1/3+z
2/3+x-y,1/3-y,5/6-z
2/3-x,1/3-x+y,5/6-z
2/3+y,1/3+x,5/6-z
2/3-x,1/3-y,1/3-z
2/3+y,1/3-x+y,1/3-z
2/3+x-y,1/3+x,1/3-z
2/3-x+y,1/3+y,5/6+z
2/3+x,1/3+x-y,5/6+z
2/3-y,1/3-x,5/6+z
1/3+x,2/3+y,2/3+z
1/3-y,2/3+x-y,2/3+z
1/3-x+y,2/3-x,2/3+z
1/3+x-y,2/3-y,1/6-z
1/3-x,2/3-x+y,1/6-z
1/3+y,2/3+x,1/6-z
1/3-x,2/3-y,2/3-z
1/3+y,2/3-x+y,2/3-z
1/3+x-y,2/3+x,2/3-z
1/3-x+y,2/3+y,1/6+z
1/3+x,2/3+x-y,1/6+z
1/3-y,2/3-x,1/6+z
loop_
_atom_site_type_symbol
_atom_site_label
_atom_site_fract_x
_atom_site_fract_y
_atom_site_fract_z
Si Si1 0.545054 0.227926 0.254877
Si Si2 0.768515 0.000000 0.750000
Si Si3 0.441252 0.090510 0.246577
Si Si4 0.619786 0.821267 0.470488
O O1 0.546689 0.289448 0.312273
O O2 0.477162 0.165946 0.253355
O O3 0.569722 0.236389 0.083334
O O4 0.768964 0.935621 0.738681
O O5 0.745930 0.009596 0.582528
O O6 0.492838 0.070227 0.218687
O O7 0.405950 0.072617 0.083334
O O8 0.666667 0.875378 0.583334
O O9 0.666667 0.833334 0.333334
#
# Coordination Sequence:
#
# PCOD9579688 Si02
#       4
#    36  18  36  36
#     4  11  24  39  61  94 140 191 244 300 367 445
#     4  12  26  46  80 110 156 204 262 324 406 496
#     4  11  26  45  74 112 148 200 261 320 401 488
#     4  12  25  50  79 115 159 210 270 347 422 503
#
# _framework density 26.941310999999999
#
# number of rings (size 3 to 8) (size 9 to 14) (size 15 to 20)
#    0.000    0.571    2.857    4.571   12.000    0.000 
#    0.000    4.286    0.000    0.000    0.000    0.000 
#    0.000    0.000    0.000    0.000    0.000    0.000 
#
# Total GULP energy -234993.831297 kJ/mol
# GULP energy per Si atom -5595.091221 kJ/mol
# Density = 2.687999 g / cm^3
# Si number density = 26.941311 Si / 1000 Ang^3
#
#
#
# Elastic Constant Matrix: (Units=GPa)
#
#
# Indices 1 2 3 4 5 6 
#
# 1 108.0681 23.1494 40.6206 1.0208 -0.0225 -0.0079
# 2 23.1494 108.0828 40.6235 -1.0333 -0.0066 -0.0001
# 3 40.6206 40.6235 287.0773 -0.0115 -0.0135 -0.0137
# 4 1.0208 -1.0333 -0.0115 19.3442 -0.0192 -0.0056
# 5 -0.0225 -0.0066 -0.0135 -0.0192 19.3156 1.0164
# 6 -0.0079 -0.0001 -0.0137 -0.0056 1.0164 42.4615
#
#
#
# Elastic Compliance Matrix: (Units=1/GPa)
#
#
# Indices 1 2 3 4 5 6 
#
# 1 0.010072 -0.001719 -0.001182 -0.000624 0.000010 0.000001
# 2 -0.001719 0.010071 -0.001182 0.000628 0.000001 -0.000001
# 3 -0.001182 -0.001182 0.003818 0.000002 0.000001 0.000001
# 4 -0.000624 0.000628 0.000002 0.051762 0.000051 0.000005
# 5 0.000010 0.000001 0.000001 0.000051 0.051837 -0.001241
# 6 0.000001 -0.000001 0.000001 0.000005 -0.001241 0.023580
#
#
# Mechanical properties :
#
#
# Convention : Reuss Voigt Hill
#
# Bulk Modulus (GPa) = 63.31169 79.11279 71.21224
# Shear Modulus (GPa) = 30.38232 42.81324 36.59778
#
# Velocity S-wave (km/s) = 3.36180 3.99071 3.68968
# Velocity P-wave (km/s) = 6.21448 7.11780 6.68142
#
# Compressibility (1/GPa) = 0.01579487
#
# Stress axis : x y z
#
# Youngs Moduli (GPa) = 99.28714 99.29969 261.92731
#
# Poissons Ratio (x) = 0.17069 0.30957
# Poissons Ratio (y) = 0.17067 0.30955
# Poissons Ratio (z) = 0.11735 0.11735
#
# Static dielectric constant tensor:
#      x y z
#    x 2.071050 0.000000 -0.000010 
#    y 0.000000 2.071060 0.000000 
#    z -0.000010 0.000000 2.143870 
# 
# From -- ./inp_files/641.got.cif
#   From: 2010.05.17/outbox.cif.g08.bks.cpg/sg167_1_cif.got.tgz:641.got - 2010.05.20 11:09:15.
