data_PCOD9579495
_publ_section_title
;
Structure prediction by ZEFSAII (Michael W. Deem and Ramdas Pophale) SiO2 
 PCOD9579495
Probable space group: R -3 C 
;
_chemical_formula_sum "Si O2"
_cell_formula_units_Z 120
_cell_length_a 20.758417
_cell_length_b 20.758417
_cell_length_c 13.142805
_cell_angle_alpha 90.000000
_cell_angle_beta 90.000000
_cell_angle_gamma 120.000000
_cell_volume 4904.640272
_symmetry_space_group_name_H-M "R -3 C "
_symmetry_group_IT_number 167
_symmetry_cell_setting 'hexagonal'
loop_
_space_group_symop_operation_xyz
x,y,z
-y,x-y,z
-x+y,-x,z
x-y,-y,1/2-z
-x,-x+y,1/2-z
y,x,1/2-z
-x,-y,-z
y,-x+y,-z
x-y,x,-z
-x+y,y,1/2+z
x,x-y,1/2+z
-y,-x,1/2+z
2/3+x,1/3+y,1/3+z
2/3-y,1/3+x-y,1/3+z
2/3-x+y,1/3-x,1/3+z
2/3+x-y,1/3-y,5/6-z
2/3-x,1/3-x+y,5/6-z
2/3+y,1/3+x,5/6-z
2/3-x,1/3-y,1/3-z
2/3+y,1/3-x+y,1/3-z
2/3+x-y,1/3+x,1/3-z
2/3-x+y,1/3+y,5/6+z
2/3+x,1/3+x-y,5/6+z
2/3-y,1/3-x,5/6+z
1/3+x,2/3+y,2/3+z
1/3-y,2/3+x-y,2/3+z
1/3-x+y,2/3-x,2/3+z
1/3+x-y,2/3-y,1/6-z
1/3-x,2/3-x+y,1/6-z
1/3+y,2/3+x,1/6-z
1/3-x,2/3-y,2/3-z
1/3+y,2/3-x+y,2/3-z
1/3+x-y,2/3+x,2/3-z
1/3-x+y,2/3+y,1/6+z
1/3+x,2/3+x-y,1/6+z
1/3-y,2/3-x,1/6+z
loop_
_atom_site_type_symbol
_atom_site_label
_atom_site_fract_x
_atom_site_fract_y
_atom_site_fract_z
Si Si1 0.819703 0.482493 0.262705
Si Si2 0.194898 0.813992 0.492157
Si Si3 0.170380 0.746251 0.784011
Si Si4 0.333334 0.666667 0.038466
O O1 0.884656 0.478112 0.204383
O O2 0.805570 0.546759 0.223242
O O3 0.847218 0.499892 0.380671
O O4 0.743203 0.405489 0.241154
O O5 0.202837 0.869503 0.583334
O O6 0.255453 0.845709 0.402978
O O7 0.116927 0.795793 0.439813
O O8 0.333334 0.666668 0.916667
#
# Coordination Sequence:
#
# PCOD9579495 Si02
#       4
#    36  36  36  12
#     4  11  22  38  62  96 135 176 227 284 356 428
#     4   9  20  39  63  88 122 171 224 283 342 408
#     4  10  20  37  64  92 125 170 224 286 352 424
#     4  12  24  37  62 100 148 197 232 286 365 445
#
# _framework density 24.466626000000002
#
# number of rings (size 3 to 8) (size 9 to 14) (size 15 to 20)
#    0.000    1.800    0.000    4.500    0.000    1.200 
#    0.000    7.500    0.000  135.000    0.000    0.000 
#    0.000    0.000    0.000    0.000    0.000    0.000 
#
# Total GULP energy -223668.358654 kJ/mol
# GULP energy per Si atom -5591.708966 kJ/mol
# Density = 2.441094 g / cm^3
# Si number density = 24.466626 Si / 1000 Ang^3
#
#
#
# Elastic Constant Matrix: (Units=GPa)
#
#
# Indices 1 2 3 4 5 6 
#
# 1 113.6907 63.0757 29.3645 6.9474 0.0000 0.0000
# 2 63.0757 113.6911 29.3641 -6.9468 0.0000 0.0000
# 3 29.3645 29.3641 195.9333 -0.0003 -0.0001 0.0000
# 4 6.9474 -6.9468 -0.0003 26.9608 -0.0001 0.0002
# 5 0.0000 0.0000 -0.0001 -0.0001 26.9613 6.9469
# 6 0.0000 0.0000 0.0000 0.0002 6.9469 25.3076
#
#
#
# Elastic Compliance Matrix: (Units=1/GPa)
#
#
# Indices 1 2 3 4 5 6 
#
# 1 0.013607 -0.007654 -0.000892 -0.005478 0.000000 0.000000
# 2 -0.007654 0.013607 -0.000892 0.005478 0.000000 0.000000
# 3 -0.000892 -0.000892 0.005371 0.000000 0.000000 0.000000
# 4 -0.005478 0.005478 0.000000 0.039914 0.000000 0.000000
# 5 0.000000 0.000000 0.000000 0.000000 0.039913 -0.010956
# 6 0.000000 0.000000 0.000000 0.000000 -0.010956 0.042521
#
#
# Mechanical properties :
#
#
# Convention : Reuss Voigt Hill
#
# Bulk Modulus (GPa) = 72.94258 74.10264 73.52261
# Shear Modulus (GPa) = 28.03002 35.94666 31.98834
#
# Velocity S-wave (km/s) = 3.38841 3.83719 3.61976
# Velocity P-wave (km/s) = 6.72207 7.07001 6.89823
#
# Compressibility (1/GPa) = 0.01370941
#
# Stress axis : x y z
#
# Youngs Moduli (GPa) = 73.49023 73.49076 186.17732
#
# Poissons Ratio (x) = 0.56247 0.16613
# Poissons Ratio (y) = 0.56246 0.16611
# Poissons Ratio (z) = 0.06558 0.06557
#
# Static dielectric constant tensor:
#      x y z
#    x 1.908320 0.000000 0.000000 
#    y 0.000000 1.908330 0.000000 
#    z 0.000000 0.000000 2.045850 
# 
# From -- ./inp_files/2293.got.cif
#   From: 2010.05.17/outbox.cif.g08.bks.cpg/sg167_2_cif.got.tgz:2293.got - 2010.05.20 11:09:15.
