data_PCOD9579732
_publ_section_title
;
Structure prediction by ZEFSAII (Michael W. Deem and Ramdas Pophale) SiO2 
 PCOD9579732
Probable space group: R -3 C 
;
_chemical_formula_sum "Si O2"
_cell_formula_units_Z 108
_cell_length_a 14.554605
_cell_length_b 14.554605
_cell_length_c 24.198485
_cell_angle_alpha 90.000000
_cell_angle_beta 90.000000
_cell_angle_gamma 120.000000
_cell_volume 4439.352753
_symmetry_space_group_name_H-M "R -3 C "
_symmetry_group_IT_number 167
_symmetry_cell_setting 'hexagonal'
loop_
_space_group_symop_operation_xyz
x,y,z
-y,x-y,z
-x+y,-x,z
x-y,-y,1/2-z
-x,-x+y,1/2-z
y,x,1/2-z
-x,-y,-z
y,-x+y,-z
x-y,x,-z
-x+y,y,1/2+z
x,x-y,1/2+z
-y,-x,1/2+z
2/3+x,1/3+y,1/3+z
2/3-y,1/3+x-y,1/3+z
2/3-x+y,1/3-x,1/3+z
2/3+x-y,1/3-y,5/6-z
2/3-x,1/3-x+y,5/6-z
2/3+y,1/3+x,5/6-z
2/3-x,1/3-y,1/3-z
2/3+y,1/3-x+y,1/3-z
2/3+x-y,1/3+x,1/3-z
2/3-x+y,1/3+y,5/6+z
2/3+x,1/3+x-y,5/6+z
2/3-y,1/3-x,5/6+z
1/3+x,2/3+y,2/3+z
1/3-y,2/3+x-y,2/3+z
1/3-x+y,2/3-x,2/3+z
1/3+x-y,2/3-y,1/6-z
1/3-x,2/3-x+y,1/6-z
1/3+y,2/3+x,1/6-z
1/3-x,2/3-y,2/3-z
1/3+y,2/3-x+y,2/3-z
1/3+x-y,2/3+x,2/3-z
1/3-x+y,2/3+y,1/6+z
1/3+x,2/3+x-y,1/6+z
1/3-y,2/3-x,1/6+z
loop_
_atom_site_type_symbol
_atom_site_label
_atom_site_fract_x
_atom_site_fract_y
_atom_site_fract_z
Si Si1 0.619086 0.511112 0.854480
Si Si2 0.204417 0.146315 0.809656
Si Si3 0.819589 0.266065 0.185027
O O1 0.725509 0.532816 0.824958
O O2 0.572582 0.586888 0.838359
O O3 0.635731 0.527004 0.920191
O O4 0.172365 0.172365 0.750000
O O5 0.142704 0.116403 0.649723
O O6 0.202936 0.035571 0.812618
O O7 0.833334 0.166667 0.166667
#
# Coordination Sequence:
#
# PCOD9579732 Si02
#       3
#    36  36  36
#     4  12  28  49  77 110 159 206 258 320 399 471
#     4  12  26  46  78 111 152 200 263 327 390 462
#     4  12  26  47  75 114 154 201 262 323 394 467
#
# _framework density 24.327870999999998
#
# number of rings (size 3 to 8) (size 9 to 14) (size 15 to 20)
#    0.000    0.000    3.333    6.000    0.000    6.667 
#    0.000    0.000    0.000    0.000    0.000    0.000 
#    0.000    0.000    0.000    0.000    0.000    0.000 
#
# Total GULP energy -201698.409256 kJ/mol
# GULP energy per Si atom -5602.733590 kJ/mol
# Density = 2.427250 g / cm^3
# Si number density = 24.327871 Si / 1000 Ang^3
#
#
#
# Elastic Constant Matrix: (Units=GPa)
#
#
# Indices 1 2 3 4 5 6 
#
# 1 138.4873 41.4002 19.7736 5.3418 0.0000 0.0000
# 2 41.4002 138.4873 19.7736 -5.3418 0.0000 0.0000
# 3 19.7736 19.7736 73.3151 0.0000 0.0000 0.0000
# 4 5.3418 -5.3418 0.0000 27.5612 0.0000 0.0000
# 5 0.0000 0.0000 0.0000 0.0000 27.5612 5.3418
# 6 0.0000 0.0000 0.0000 0.0000 5.3418 48.5436
#
#
#
# Elastic Compliance Matrix: (Units=1/GPa)
#
#
# Indices 1 2 3 4 5 6 
#
# 1 0.008217 -0.002308 -0.001594 -0.002040 0.000000 0.000000
# 2 -0.002308 0.008217 -0.001594 0.002040 0.000000 0.000000
# 3 -0.001594 -0.001594 0.014499 0.000000 0.000000 0.000000
# 4 -0.002040 0.002040 0.000000 0.037074 0.000000 0.000000
# 5 0.000000 0.000000 0.000000 0.000000 0.037074 -0.004080
# 6 0.000000 0.000000 0.000000 0.000000 -0.004080 0.021049
#
#
# Mechanical properties :
#
#
# Convention : Reuss Voigt Hill
#
# Bulk Modulus (GPa) = 50.14271 56.90938 53.52604
# Shear Modulus (GPa) = 34.77838 38.68935 36.73387
#
# Velocity S-wave (km/s) = 3.78507 3.99222 3.89002
# Velocity P-wave (km/s) = 6.30542 6.68535 6.49816
#
# Compressibility (1/GPa) = 0.01994308
#
# Stress axis : x y z
#
# Youngs Moduli (GPa) = 121.69959 121.69959 68.96795
#
# Poissons Ratio (x) = 0.28083 0.10992
# Poissons Ratio (y) = 0.28083 0.10992
# Poissons Ratio (z) = 0.19397 0.19397
#
# Static dielectric constant tensor:
#      x y z
#    x 1.949370 0.000000 0.000000 
#    y 0.000000 1.949370 0.000000 
#    z 0.000000 0.000000 1.924860 
# 
# From -- ./inp_files/5011.got.cif
#   From: 2010.05.17/outbox.cif.g08.bks.cpg/sg167_3_cif.got.tgz:5011.got - 2010.05.20 11:09:15.
