data_PCOD9579325
_publ_section_title
;
Structure prediction by ZEFSAII (Michael W. Deem and Ramdas Pophale) SiO2 
 PCOD9579325
Probable space group: R -3 M
;
_chemical_formula_sum "Si O2"
_cell_formula_units_Z 180
_cell_length_a 26.103231
_cell_length_b 26.103231
_cell_length_c 18.218494
_cell_angle_alpha 90.000000
_cell_angle_beta 90.000000
_cell_angle_gamma 120.000000
_cell_volume 10750.573654
_symmetry_space_group_name_H-M "R -3 M"
_symmetry_group_IT_number 166
_symmetry_cell_setting 'hexagonal'
loop_
_space_group_symop_operation_xyz
x,y,z
-y,x-y,z
-x+y,-x,z
x-y,-y,-z
-x,-x+y,-z
y,x,-z
-x,-y,-z
y,-x+y,-z
x-y,x,-z
-x+y,y,z
x,x-y,z
-y,-x,z
2/3+x,1/3+y,1/3+z
2/3-y,1/3+x-y,1/3+z
2/3-x+y,1/3-x,1/3+z
2/3+x-y,1/3-y,1/3-z
2/3-x,1/3-x+y,1/3-z
2/3+y,1/3+x,1/3-z
2/3-x,1/3-y,1/3-z
2/3+y,1/3-x+y,1/3-z
2/3+x-y,1/3+x,1/3-z
2/3-x+y,1/3+y,1/3+z
2/3+x,1/3+x-y,1/3+z
2/3-y,1/3-x,1/3+z
1/3+x,2/3+y,2/3+z
1/3-y,2/3+x-y,2/3+z
1/3-x+y,2/3-x,2/3+z
1/3+x-y,2/3-y,2/3-z
1/3-x,2/3-x+y,2/3-z
1/3+y,2/3+x,2/3-z
1/3-x,2/3-y,2/3-z
1/3+y,2/3-x+y,2/3-z
1/3+x-y,2/3+x,2/3-z
1/3-x+y,2/3+y,2/3+z
1/3+x,2/3+x-y,2/3+z
1/3-y,2/3-x,2/3+z
loop_
_atom_site_type_symbol
_atom_site_label
_atom_site_fract_x
_atom_site_fract_y
_atom_site_fract_z
Si Si1 0.117994 0.660039 0.370247
Si Si2 0.590237 0.601694 0.698543
Si Si3 0.812534 0.625067 0.274405
Si Si4 0.949461 0.168254 0.561007
Si Si5 0.453048 0.906096 0.452924
Si Si6 0.761095 0.116223 0.531811
O O1 0.166583 0.691903 0.307321
O O2 0.123562 0.612925 0.421072
O O3 0.114628 0.709418 0.419368
O O4 0.057130 0.621884 0.324526
O O5 0.630227 0.666667 0.666667
O O6 0.527510 0.572797 0.657367
O O7 0.578169 0.597135 0.785143
O O8 0.789903 0.579805 0.207103
O O9 0.846114 0.692227 0.242252
O O10 0.894975 0.105026 0.539324
O O11 0.922534 0.212303 0.566364
O O12 0.000000 0.192538 0.500000
O O13 0.817094 0.182907 0.524678
#
# Coordination Sequence:
#
# PCOD9579325 Si02
#       6
#    36  36  18  36  18  36
#     4  11  22  35  55  81 110 151 192 232 278 338
#     4  11  20  31  53  75 109 146 186 221 268 334
#     4   9  18  34  46  76 104 143 174 223 268 321
#     4  11  23  37  58  82 113 149 194 239 290 346
#     4   9  20  34  54  74 112 140 187 228 273 326
#     4  11  22  37  54  81 116 150 185 240 288 339
#
# _framework density 16.743292
#
# number of rings (size 3 to 8) (size 9 to 14) (size 15 to 20)
#    0.000    1.400    3.000    3.600    1.400    3.200 
#    0.000    0.000    0.000    0.200    0.000    0.000 
#    1.000    0.000    0.000    1.200    0.000    0.000 
#
# Total GULP energy -335038.338824 kJ/mol
# GULP energy per Si atom -5583.972314 kJ/mol
# Density = 1.670518 g / cm^3
# Si number density = 16.743292 Si / 1000 Ang^3
#
#
#
# Elastic Constant Matrix: (Units=GPa)
#
#
# Indices 1 2 3 4 5 6 
#
# 1 65.2066 23.9995 17.3016 3.1637 0.0002 0.0000
# 2 23.9995 65.2066 17.3016 -3.1637 -0.0002 0.0000
# 3 17.3016 17.3016 84.7681 0.0000 0.0000 0.0000
# 4 3.1637 -3.1637 0.0000 19.8076 0.0000 -0.0002
# 5 0.0002 -0.0002 0.0000 0.0000 19.8076 3.1637
# 6 0.0000 0.0000 0.0000 -0.0002 3.1637 20.6035
#
#
#
# Elastic Compliance Matrix: (Units=1/GPa)
#
#
# Indices 1 2 3 4 5 6 
#
# 1 0.018526 -0.006352 -0.002485 -0.003974 0.000000 0.000000
# 2 -0.006352 0.018526 -0.002485 0.003974 0.000000 0.000000
# 3 -0.002485 -0.002485 0.012811 0.000000 0.000000 0.000000
# 4 -0.003974 0.003974 0.000000 0.051755 0.000000 0.000000
# 5 0.000000 0.000000 0.000000 0.000000 0.051755 -0.007947
# 6 0.000000 0.000000 0.000000 0.000000 -0.007947 0.049756
#
#
# Mechanical properties :
#
#
# Convention : Reuss Voigt Hill
#
# Bulk Modulus (GPa) = 36.73784 36.93185 36.83485
# Shear Modulus (GPa) = 21.29065 22.48231 21.88648
#
# Velocity S-wave (km/s) = 3.56981 3.66835 3.61942
# Velocity P-wave (km/s) = 6.24346 6.32835 6.28605
#
# Compressibility (1/GPa) = 0.02721989
#
# Stress axis : x y z
#
# Youngs Moduli (GPa) = 53.97868 53.97868 78.05683
#
# Poissons Ratio (x) = 0.34287 0.19395
# Poissons Ratio (y) = 0.34287 0.19395
# Poissons Ratio (z) = 0.13412 0.13412
#
# Static dielectric constant tensor:
#      x y z
#    x 1.559350 0.000000 0.000000 
#    y 0.000000 1.559350 0.000000 
#    z 0.000000 0.000000 1.572640 
# 
# From -- ./inp_files/5637.got.cif
#   From: 2010.05.17/outbox.cif.g08.bks.cpg/sg166_3_cif.got.tgz:5637.got - 2010.05.20 11:04:41.
