data_PCOD9579998
_publ_section_title
;
Structure prediction by ZEFSAII (Michael W. Deem and Ramdas Pophale) SiO2 
 PCOD9579998
Probable space group: P 61
;
_chemical_formula_sum "Si O2"
_cell_formula_units_Z 36
_cell_length_a 18.894505
_cell_length_b 18.894505
_cell_length_c 5.170566
_cell_angle_alpha 90.000000
_cell_angle_beta 90.000000
_cell_angle_gamma 120.000000
_cell_volume 1598.599803
_symmetry_space_group_name_H-M "P 61"
_symmetry_group_IT_number 169
_symmetry_cell_setting 'hexagonal'
loop_
_space_group_symop_operation_xyz
x,y,z
x-y,x,1/6+z
-y,x-y,1/3+z
-x,-y,1/2+z
-x+y,-x,2/3+z
y,-x+y,5/6+z
loop_
_atom_site_type_symbol
_atom_site_label
_atom_site_fract_x
_atom_site_fract_y
_atom_site_fract_z
Si Si1 0.949880 0.685441 0.033070
Si Si2 0.063913 0.408096 0.021756
Si Si3 0.662484 0.864448 0.624947
Si Si4 0.594934 0.177643 0.023201
Si Si5 0.889317 0.330661 0.071853
Si Si6 0.519470 0.252995 0.343872
O O1 0.913632 0.640288 0.307108
O O2 0.950990 0.625397 0.812387
O O3 0.891923 0.713176 0.885089
O O4 0.044459 0.753028 0.075560
O O5 0.973733 0.385197 0.923753
O O6 0.131923 0.501662 0.026999
O O7 0.635811 0.882160 0.342756
O O8 0.571012 0.794836 0.716630
O O9 0.584904 0.247698 0.161190
O O10 0.501116 0.112084 0.960718
O O11 0.657191 0.209583 0.784252
O O12 0.807756 0.308558 0.918288
#
# Coordination Sequence:
#
# PCOD9579998 Si02
#       6
#     6   6   6   6   6   6
#     4  11  23  41  72  97 133 168 218 268 339 392
#     4  11  24  42  68  96 125 173 217 287 327 386
#     4  10  22  42  65  99 131 170 217 278 332 412
#     4  11  26  39  65  84 133 174 234 284 345 394
#     4  10  24  39  63  93 127 168 231 275 340 400
#     4  11  23  43  59  89 125 177 229 282 337 400
#
# _framework density 22.519707
#
# number of rings (size 3 to 8) (size 9 to 14) (size 15 to 20)
#    0.000    1.333    3.333    1.000    4.667    4.000 
#    0.000    0.000    0.000    0.000    0.000    2.333 
#    0.000    0.000    0.000    0.000    0.000    0.000 
#
# Total GULP energy -200780.198785 kJ/mol
# GULP energy per Si atom -5577.227744 kJ/mol
# Density = 2.246845 g / cm^3
# Si number density = 22.519707 Si / 1000 Ang^3
#
#
#
# Elastic Constant Matrix: (Units=GPa)
#
#
# Indices 1 2 3 4 5 6 
#
# 1 92.9238 46.3646 8.9903 0.0000 0.0000 0.0000
# 2 46.3646 92.9238 8.9903 0.0000 0.0000 0.0000
# 3 8.9903 8.9903 52.3255 0.0000 0.0000 0.0000
# 4 0.0000 0.0000 0.0000 30.7105 0.0000 0.0000
# 5 0.0000 0.0000 0.0000 0.0000 30.7105 0.0000
# 6 0.0000 0.0000 0.0000 0.0000 0.0000 23.2796
#
#
#
# Elastic Compliance Matrix: (Units=1/GPa)
#
#
# Indices 1 2 3 4 5 6 
#
# 1 0.014410 -0.007068 -0.001262 0.000000 0.000000 0.000000
# 2 -0.007068 0.014410 -0.001262 0.000000 0.000000 0.000000
# 3 -0.001262 -0.001262 0.019545 0.000000 0.000000 0.000000
# 4 0.000000 0.000000 0.000000 0.032562 0.000000 0.000000
# 5 0.000000 0.000000 0.000000 0.000000 0.032562 0.000000
# 6 0.000000 0.000000 0.000000 0.000000 0.000000 0.042956
#
#
# Mechanical properties :
#
#
# Convention : Reuss Voigt Hill
#
# Bulk Modulus (GPa) = 34.26651 40.76261 37.51456
# Shear Modulus (GPa) = 26.97530 28.52864 27.75197
#
# Velocity S-wave (km/s) = 3.46476 3.56312 3.51428
# Velocity P-wave (km/s) = 5.59065 5.92182 5.75861
#
# Compressibility (1/GPa) = 0.02918301
#
# Stress axis : x y z
#
# Youngs Moduli (GPa) = 69.39572 69.39572 51.16493
#
# Poissons Ratio (x) = 0.49048 0.06454
# Poissons Ratio (y) = 0.49048 0.06454
# Poissons Ratio (z) = 0.08754 0.08754
#
# Static dielectric constant tensor:
#      x y z
#    x 1.870510 0.000000 0.000000 
#    y 0.000000 1.870510 0.000000 
#    z 0.000000 0.000000 1.990850 
# 
# From -- ./inp_files/217.got.cif
#   From: 2010.05.17/outbox.cif.g08.bks.cpg/sg169_cif.got.tgz:217.got - 2010.05.20 11:12:54.
