data_PCOD9579426
_publ_section_title
;
Structure prediction by ZEFSAII (Michael W. Deem and Ramdas Pophale) SiO2 
 PCOD9579426
Probable space group: R -3 C 
;
_chemical_formula_sum "Si O2"
_cell_formula_units_Z 162
_cell_length_a 20.534408
_cell_length_b 20.534408
_cell_length_c 22.172322
_cell_angle_alpha 90.000000
_cell_angle_beta 90.000000
_cell_angle_gamma 120.000000
_cell_volume 8096.665218
_symmetry_space_group_name_H-M "R -3 C "
_symmetry_group_IT_number 167
_symmetry_cell_setting 'hexagonal'
loop_
_space_group_symop_operation_xyz
x,y,z
-y,x-y,z
-x+y,-x,z
x-y,-y,1/2-z
-x,-x+y,1/2-z
y,x,1/2-z
-x,-y,-z
y,-x+y,-z
x-y,x,-z
-x+y,y,1/2+z
x,x-y,1/2+z
-y,-x,1/2+z
2/3+x,1/3+y,1/3+z
2/3-y,1/3+x-y,1/3+z
2/3-x+y,1/3-x,1/3+z
2/3+x-y,1/3-y,5/6-z
2/3-x,1/3-x+y,5/6-z
2/3+y,1/3+x,5/6-z
2/3-x,1/3-y,1/3-z
2/3+y,1/3-x+y,1/3-z
2/3+x-y,1/3+x,1/3-z
2/3-x+y,1/3+y,5/6+z
2/3+x,1/3+x-y,5/6+z
2/3-y,1/3-x,5/6+z
1/3+x,2/3+y,2/3+z
1/3-y,2/3+x-y,2/3+z
1/3-x+y,2/3-x,2/3+z
1/3+x-y,2/3-y,1/6-z
1/3-x,2/3-x+y,1/6-z
1/3+y,2/3+x,1/6-z
1/3-x,2/3-y,2/3-z
1/3+y,2/3-x+y,2/3-z
1/3+x-y,2/3+x,2/3-z
1/3-x+y,2/3+y,1/6+z
1/3+x,2/3+x-y,1/6+z
1/3-y,2/3-x,1/6+z
loop_
_atom_site_type_symbol
_atom_site_label
_atom_site_fract_x
_atom_site_fract_y
_atom_site_fract_z
Si Si1 0.148309 0.960167 0.189362
Si Si2 0.718536 0.123391 0.668730
Si Si3 0.077596 0.586689 0.570297
Si Si4 0.876355 0.876355 0.750000
Si Si5 0.653687 0.787785 0.515760
O O1 0.062491 0.939874 0.206495
O O2 0.145771 0.881409 0.180606
O O3 0.194389 0.000000 0.250000
O O4 0.184340 0.012299 0.130330
O O5 0.758754 0.086572 0.631631
O O6 0.768363 0.173836 0.723260
O O7 0.713327 0.184059 0.625757
O O8 0.635705 0.060846 0.685870
O O9 0.059569 0.583702 0.641062
O O10 0.666667 0.817178 0.583334
#
# Coordination Sequence:
#
# PCOD9579426 Si02
#       5
#    36  36  36  18  36
#     4  11  21  38  65  94 124 166 225 271 339 403
#     4  10  19  38  61  85 128 160 206 275 326 379
#     4  11  20  36  65  92 120 174 219 262 328 406
#     4  10  18  40  56  90 130 154 202 292 328 388
#     4  11  25  41  57  93 142 175 214 281 332 399
#
# _framework density 20.008237999999999
#
# number of rings (size 3 to 8) (size 9 to 14) (size 15 to 20)
#    0.000    1.333    6.667    1.333    0.000    6.222 
#    0.667    0.000    0.000    0.000    0.000    1.556 
#    0.000    0.000    0.000    0.000    0.000    0.000 
#
# Total GULP energy -301070.798833 kJ/mol
# GULP energy per Si atom -5575.385164 kJ/mol
# Density = 1.996270 g / cm^3
# Si number density = 20.008238 Si / 1000 Ang^3
#
#
#
# Elastic Constant Matrix: (Units=GPa)
#
#
# Indices 1 2 3 4 5 6 
#
# 1 60.1012 38.3242 39.6984 7.4029 0.0010 0.0000
# 2 38.3242 60.1012 39.6984 -7.4029 -0.0010 0.0000
# 3 39.6984 39.6984 104.1002 0.0000 0.0000 0.0000
# 4 7.4029 -7.4029 0.0000 0.1241 0.0000 -0.0010
# 5 0.0010 -0.0010 0.0000 0.0000 0.1241 7.4029
# 6 0.0000 0.0000 0.0000 -0.0010 7.4029 10.8885
#
#
#
# Elastic Compliance Matrix: (Units=1/GPa)
#
#
# Indices 1 2 3 4 5 6 
#
# 1 0.006757 0.007918 -0.005596 0.069249 0.000009 0.000000
# 2 0.007918 0.006757 -0.005596 -0.069249 -0.000009 0.000000
# 3 -0.005596 -0.005596 0.013874 0.000000 0.000000 0.000000
# 4 0.069249 -0.069249 0.000000 -0.203708 0.000000 -0.000018
# 5 0.000009 -0.000009 0.000000 0.000000 -0.203708 0.138498
# 6 0.000000 0.000000 0.000000 -0.000018 0.138498 -0.002322
#
#
# Mechanical properties :
#
#
# Convention : Reuss Voigt Hill
#
# Bulk Modulus (GPa) = 47.98802 51.08272 49.53537
# Shear Modulus (GPa) = -13.55539 9.33278 -2.11131
#
# Velocity S-wave (km/s) = -2.60569 2.16208 -1.02835
# Velocity P-wave (km/s) = 3.87084 5.64084 4.83748
#
# Compressibility (1/GPa) = 0.02083853
#
# Stress axis : x y z
#
# Youngs Moduli (GPa) = 148.00497 148.00497 72.07672
#
# Poissons Ratio (x) = -1.17183 0.40334
# Poissons Ratio (y) = -1.17183 0.40334
# Poissons Ratio (z) = 0.82822 0.82822
#
# Static dielectric constant tensor:
#      x y z
#    x 1.760130 0.000000 0.000000 
#    y 0.000000 1.760130 0.000000 
#    z 0.000000 0.000000 1.760310 
# 
# From -- ./inp_files/4469.got.cif
#   From: 2010.05.17/outbox.cif.g08.bks.cpg/sg167_3_cif.got.tgz:4469.got - 2010.05.20 11:09:15.
