data_PCOD9579739
_publ_section_title
;
Structure prediction by ZEFSAII (Michael W. Deem and Ramdas Pophale) SiO2 
 PCOD9579739
Probable space group: R -3 C 
;
_chemical_formula_sum "Si O2"
_cell_formula_units_Z 90
_cell_length_a 9.500772
_cell_length_b 9.500772
_cell_length_c 43.738856
_cell_angle_alpha 90.000000
_cell_angle_beta 90.000000
_cell_angle_gamma 120.000000
_cell_volume 3419.131810
_symmetry_space_group_name_H-M "R -3 C "
_symmetry_group_IT_number 167
_symmetry_cell_setting 'hexagonal'
loop_
_space_group_symop_operation_xyz
x,y,z
-y,x-y,z
-x+y,-x,z
x-y,-y,1/2-z
-x,-x+y,1/2-z
y,x,1/2-z
-x,-y,-z
y,-x+y,-z
x-y,x,-z
-x+y,y,1/2+z
x,x-y,1/2+z
-y,-x,1/2+z
2/3+x,1/3+y,1/3+z
2/3-y,1/3+x-y,1/3+z
2/3-x+y,1/3-x,1/3+z
2/3+x-y,1/3-y,5/6-z
2/3-x,1/3-x+y,5/6-z
2/3+y,1/3+x,5/6-z
2/3-x,1/3-y,1/3-z
2/3+y,1/3-x+y,1/3-z
2/3+x-y,1/3+x,1/3-z
2/3-x+y,1/3+y,5/6+z
2/3+x,1/3+x-y,5/6+z
2/3-y,1/3-x,5/6+z
1/3+x,2/3+y,2/3+z
1/3-y,2/3+x-y,2/3+z
1/3-x+y,2/3-x,2/3+z
1/3+x-y,2/3-y,1/6-z
1/3-x,2/3-x+y,1/6-z
1/3+y,2/3+x,1/6-z
1/3-x,2/3-y,2/3-z
1/3+y,2/3-x+y,2/3-z
1/3+x-y,2/3+x,2/3-z
1/3-x+y,2/3+y,1/6+z
1/3+x,2/3+x-y,1/6+z
1/3-y,2/3-x,1/6+z
loop_
_atom_site_type_symbol
_atom_site_label
_atom_site_fract_x
_atom_site_fract_y
_atom_site_fract_z
Si Si1 0.356171 0.095798 0.532316
Si Si2 0.463045 0.333334 0.583334
Si Si3 0.691734 0.930844 0.632838
O O1 0.472308 0.210833 0.558882
O O2 0.440752 0.119871 0.499414
O O3 0.246588 0.909166 0.541067
O O4 0.244701 0.180177 0.528354
O O5 0.396035 0.427093 0.560826
#
# Coordination Sequence:
#
# PCOD9579739 Si02
#       3
#    36  18  36
#     4   8  13  22  36  55  74  94 120 154 197 235
#     4   8  16  20  34  64  72  96 128 146 204 236
#     4   8  13  22  36  55  74  94 120 154 197 235
#
# _framework density 26.322474
#
# number of rings (size 3 to 8) (size 9 to 14) (size 15 to 20)
#    2.400    1.600    0.000    0.800    0.000    3.200 
#    0.000    0.000    0.000    2.400    0.000    0.000 
#    0.000    0.000    0.000    4.800    0.000    0.000 
#
# Total GULP energy -167178.137333 kJ/mol
# GULP energy per Si atom -5572.604578 kJ/mol
# Density = 2.626256 g / cm^3
# Si number density = 26.322474 Si / 1000 Ang^3
#
#
#
# Elastic Constant Matrix: (Units=GPa)
#
#
# Indices 1 2 3 4 5 6 
#
# 1 122.0310 45.9689 55.4474 9.1906 -0.0007 0.0000
# 2 45.9689 122.0310 55.4474 -9.1906 0.0007 0.0000
# 3 55.4474 55.4474 214.7576 0.0000 0.0000 0.0000
# 4 9.1906 -9.1906 0.0000 35.2303 0.0000 0.0007
# 5 -0.0007 0.0007 0.0000 0.0000 35.2303 9.1906
# 6 0.0000 0.0000 0.0000 0.0007 9.1906 38.0311
#
#
#
# Elastic Compliance Matrix: (Units=1/GPa)
#
#
# Indices 1 2 3 4 5 6 
#
# 1 0.010603 -0.003428 -0.001853 -0.003660 0.000000 0.000000
# 2 -0.003428 0.010603 -0.001853 0.003660 0.000000 0.000000
# 3 -0.001853 -0.001853 0.005613 0.000000 0.000000 0.000000
# 4 -0.003660 0.003660 0.000000 0.030294 0.000000 -0.000001
# 5 0.000000 0.000000 0.000000 0.000000 0.030294 -0.007321
# 6 0.000000 0.000000 0.000000 -0.000001 -0.007321 0.028063
#
#
# Mechanical properties :
#
#
# Convention : Reuss Voigt Hill
#
# Bulk Modulus (GPa) = 79.66037 85.83857 82.74947
# Shear Modulus (GPa) = 37.33474 41.82874 39.58174
#
# Velocity S-wave (km/s) = 3.77020 3.99066 3.88200
# Velocity P-wave (km/s) = 7.02008 7.34268 7.18319
#
# Compressibility (1/GPa) = 0.01255329
#
# Stress axis : x y z
#
# Youngs Moduli (GPa) = 94.30861 94.30861 178.15738
#
# Poissons Ratio (x) = 0.32331 0.33004
# Poissons Ratio (y) = 0.32331 0.33004
# Poissons Ratio (z) = 0.17471 0.17471
#
# Static dielectric constant tensor:
#      x y z
#    x 2.092680 0.000000 0.000000 
#    y 0.000000 2.092680 0.000000 
#    z 0.000000 0.000000 2.225700 
# 
# From -- ./inp_files/6765.got.cif
#   From: 2010.05.17/outbox.cif.g08.bks.cpg/sg167_4_cif.got.tgz:6765.got - 2010.05.20 11:09:15.
