data_PCOD9579644
_publ_section_title
;
Structure prediction by ZEFSAII (Michael W. Deem and Ramdas Pophale) SiO2 
 PCOD9579644
Probable space group: R -3 C 
;
_chemical_formula_sum "Si O2"
_cell_formula_units_Z 66
_cell_length_a 13.201805
_cell_length_b 13.201805
_cell_length_c 17.901617
_cell_angle_alpha 90.000000
_cell_angle_beta 90.000000
_cell_angle_gamma 120.000000
_cell_volume 2702.025979
_symmetry_space_group_name_H-M "R -3 C "
_symmetry_group_IT_number 167
_symmetry_cell_setting 'hexagonal'
loop_
_space_group_symop_operation_xyz
x,y,z
-y,x-y,z
-x+y,-x,z
x-y,-y,1/2-z
-x,-x+y,1/2-z
y,x,1/2-z
-x,-y,-z
y,-x+y,-z
x-y,x,-z
-x+y,y,1/2+z
x,x-y,1/2+z
-y,-x,1/2+z
2/3+x,1/3+y,1/3+z
2/3-y,1/3+x-y,1/3+z
2/3-x+y,1/3-x,1/3+z
2/3+x-y,1/3-y,5/6-z
2/3-x,1/3-x+y,5/6-z
2/3+y,1/3+x,5/6-z
2/3-x,1/3-y,1/3-z
2/3+y,1/3-x+y,1/3-z
2/3+x-y,1/3+x,1/3-z
2/3-x+y,1/3+y,5/6+z
2/3+x,1/3+x-y,5/6+z
2/3-y,1/3-x,5/6+z
1/3+x,2/3+y,2/3+z
1/3-y,2/3+x-y,2/3+z
1/3-x+y,2/3-x,2/3+z
1/3+x-y,2/3-y,1/6-z
1/3-x,2/3-x+y,1/6-z
1/3+y,2/3+x,1/6-z
1/3-x,2/3-y,2/3-z
1/3+y,2/3-x+y,2/3-z
1/3+x-y,2/3+x,2/3-z
1/3-x+y,2/3+y,1/6+z
1/3+x,2/3+x-y,1/6+z
1/3-y,2/3-x,1/6+z
loop_
_atom_site_type_symbol
_atom_site_label
_atom_site_fract_x
_atom_site_fract_y
_atom_site_fract_z
Si Si1 0.000000 0.000000 0.411874
Si Si2 0.666667 0.083933 0.083334
Si Si3 0.484240 0.395835 0.686326
O O1 0.002781 0.886591 0.383797
O O2 0.000000 0.000000 0.500000
O O3 0.557883 0.091593 0.114938
O O4 0.625084 0.986896 0.017693
O O5 0.484942 0.484942 0.750000
#
# Coordination Sequence:
#
# PCOD9579644 Si02
#       3
#    12  18  36
#     4  12  24  46  71 100 150 198 244 302 376 435
#     4  10  24  46  70 108 140 192 242 300 364 438
#     4  10  25  43  74 103 143 191 246 299 369 438
#
# _framework density 24.426117000000001
#
# number of rings (size 3 to 8) (size 9 to 14) (size 15 to 20)
#    1.636    0.000    0.000    3.273    7.636    4.364 
#    0.000    0.000    0.000    0.000    0.000    0.000 
#    0.000    0.000    0.000    0.000    0.000    0.000 
#
# Total GULP energy -122989.373083 kJ/mol
# GULP energy per Si atom -5590.426049 kJ/mol
# Density = 2.437052 g / cm^3
# Si number density = 24.426117 Si / 1000 Ang^3
#
#
#
# Elastic Constant Matrix: (Units=GPa)
#
#
# Indices 1 2 3 4 5 6 
#
# 1 88.2339 11.4104 21.3508 -4.9650 0.0002 0.0000
# 2 11.4104 88.2339 21.3508 4.9650 -0.0002 0.0000
# 3 21.3508 21.3508 91.5252 0.0000 0.0000 0.0000
# 4 -4.9650 4.9650 0.0000 34.9866 0.0000 -0.0002
# 5 0.0002 -0.0002 0.0000 0.0000 34.9866 -4.9650
# 6 0.0000 0.0000 0.0000 -0.0002 -4.9650 38.4117
#
#
#
# Elastic Compliance Matrix: (Units=1/GPa)
#
#
# Indices 1 2 3 4 5 6 
#
# 1 0.012205 -0.001055 -0.002601 0.001882 0.000000 0.000000
# 2 -0.001055 0.012205 -0.002601 -0.001882 0.000000 0.000000
# 3 -0.002601 -0.002601 0.012140 0.000000 0.000000 0.000000
# 4 0.001882 -0.001882 0.000000 0.029116 0.000000 0.000000
# 5 0.000000 0.000000 0.000000 0.000000 0.029116 0.003764
# 6 0.000000 0.000000 0.000000 0.000000 0.003764 0.026520
#
#
# Mechanical properties :
#
#
# Convention : Reuss Voigt Hill
#
# Bulk Modulus (GPa) = 41.60469 41.80189 41.70329
# Shear Modulus (GPa) = 35.25368 35.93574 35.59471
#
# Velocity S-wave (km/s) = 3.80317 3.83979 3.82152
# Velocity P-wave (km/s) = 6.02954 6.06707 6.04833
#
# Compressibility (1/GPa) = 0.02403575
#
# Stress axis : x y z
#
# Youngs Moduli (GPa) = 81.93207 81.93207 82.37554
#
# Poissons Ratio (x) = 0.08643 0.21427
# Poissons Ratio (y) = 0.08643 0.21427
# Poissons Ratio (z) = 0.21312 0.21312
#
# Static dielectric constant tensor:
#      x y z
#    x 1.984200 0.000000 0.000000 
#    y 0.000000 1.984200 0.000000 
#    z 0.000000 0.000000 2.004010 
# 
# From -- ./inp_files/2704.got.cif
#   From: 2010.05.17/outbox.cif.g08.bks.cpg/sg167_2_cif.got.tgz:2704.got - 2010.05.20 11:09:15.
