data_PCOD9579972
_publ_section_title
;
Structure prediction by ZEFSAII (Michael W. Deem and Ramdas Pophale) SiO2 
 PCOD9579972
Probable space group: P 61
;
_chemical_formula_sum "Si O2"
_cell_formula_units_Z 48
_cell_length_a 16.166627
_cell_length_b 16.166627
_cell_length_c 11.306454
_cell_angle_alpha 90.000000
_cell_angle_beta 90.000000
_cell_angle_gamma 120.000000
_cell_volume 2559.150863
_symmetry_space_group_name_H-M "P 61"
_symmetry_group_IT_number 169
_symmetry_cell_setting 'hexagonal'
loop_
_space_group_symop_operation_xyz
x,y,z
x-y,x,1/6+z
-y,x-y,1/3+z
-x,-y,1/2+z
-x+y,-x,2/3+z
y,-x+y,5/6+z
loop_
_atom_site_type_symbol
_atom_site_label
_atom_site_fract_x
_atom_site_fract_y
_atom_site_fract_z
Si Si1 0.238374 0.706971 0.698250
Si Si2 0.749941 0.139293 0.027162
Si Si3 0.920109 0.463469 0.803725
Si Si4 0.039177 0.361030 0.450832
Si Si5 0.713162 0.439720 0.800568
Si Si6 0.592853 0.090625 0.831720
Si Si7 0.720921 0.642743 0.197603
Si Si8 0.370763 0.144183 0.259857
O O1 0.240905 0.798776 0.641806
O O2 0.226018 0.699991 0.838982
O O3 0.337759 0.711837 0.667179
O O4 0.155992 0.609013 0.642981
O O5 0.660823 0.127772 0.947255
O O6 0.844702 0.198812 0.949056
O O7 0.723468 0.031158 0.052175
O O8 0.811675 0.437993 0.790444
O O9 0.919259 0.377861 0.877557
O O10 0.981609 0.470881 0.688306
O O11 0.974216 0.568990 0.861593
O O12 0.091955 0.432904 0.560377
O O13 0.114593 0.331582 0.405010
O O14 0.943807 0.274393 0.503008
O O15 0.725252 0.516596 0.898549
O O16 0.752868 0.646975 0.060698
#
# Coordination Sequence:
#
# PCOD9579972 Si02
#       8
#     6   6   6   6   6   6   6   6
#     4  12  24  37  53  83 120 160 210 239 291 354
#     4  11  23  37  61  85 119 162 198 252 303 356
#     4  10  22  34  55  82 114 161 195 239 293 348
#     4  11  22  35  60  82 118 154 193 256 289 362
#     4  11  25  35  58  82 118 163 200 247 289 353
#     4  11  21  37  52  80 116 155 198 236 293 346
#     4  11  20  40  58  86 119 155 202 251 303 356
#     4  11  21  39  59  86 118 150 206 244 313 351
#
# _framework density 18.756222999999999
#
# number of rings (size 3 to 8) (size 9 to 14) (size 15 to 20)
#    0.000    1.000    5.000    3.000    5.250    1.000 
#    0.000    0.000    0.000    0.000    0.000    0.000 
#   60.000    0.000    0.000    0.000    0.000    0.000 
#
# Total GULP energy -268236.462958 kJ/mol
# GULP energy per Si atom -5588.259645 kJ/mol
# Density = 1.871353 g / cm^3
# Si number density = 18.756223 Si / 1000 Ang^3
#
#
#
# Elastic Constant Matrix: (Units=GPa)
#
#
# Indices 1 2 3 4 5 6 
#
# 1 103.7691 58.3577 8.1718 0.0000 0.0000 0.0000
# 2 58.3577 103.7691 8.1718 0.0000 0.0000 0.0000
# 3 8.1718 8.1718 33.9410 0.0000 0.0000 0.0000
# 4 0.0000 0.0000 0.0000 25.7376 0.0000 0.0000
# 5 0.0000 0.0000 0.0000 0.0000 25.7376 0.0000
# 6 0.0000 0.0000 0.0000 0.0000 0.0000 22.7057
#
#
#
# Elastic Compliance Matrix: (Units=1/GPa)
#
#
# Indices 1 2 3 4 5 6 
#
# 1 0.014171 -0.007850 -0.001522 0.000000 0.000000 0.000000
# 2 -0.007850 0.014171 -0.001522 0.000000 0.000000 0.000000
# 3 -0.001522 -0.001522 0.030196 0.000000 0.000000 0.000000
# 4 0.000000 0.000000 0.000000 0.038854 0.000000 0.000000
# 5 0.000000 0.000000 0.000000 0.000000 0.038854 0.000000
# 6 0.000000 0.000000 0.000000 0.000000 0.000000 0.044042
#
#
# Mechanical properties :
#
#
# Convention : Reuss Voigt Hill
#
# Bulk Modulus (GPa) = 27.21035 43.43131 35.32083
# Shear Modulus (GPa) = 23.32908 25.95472 24.64190
#
# Velocity S-wave (km/s) = 3.53059 3.72397 3.62857
# Velocity P-wave (km/s) = 5.58202 6.45729 6.03554
#
# Compressibility (1/GPa) = 0.03675072
#
# Stress axis : x y z
#
# Youngs Moduli (GPa) = 70.56582 70.56582 33.11725
#
# Poissons Ratio (x) = 0.55392 0.05040
# Poissons Ratio (y) = 0.55392 0.05040
# Poissons Ratio (z) = 0.10740 0.10740
#
# Static dielectric constant tensor:
#      x y z
#    x 1.655800 0.000000 0.000000 
#    y 0.000000 1.655800 0.000000 
#    z 0.000000 0.000000 1.693320 
# 
# From -- ./inp_files/1027.got.cif
#   From: 2010.05.17/outbox.cif.g08.bks.cpg/sg169_cif.got.tgz:1027.got - 2010.05.20 11:12:54.
