data_PCOD9579767
_publ_section_title
;
Structure prediction by ZEFSAII (Michael W. Deem and Ramdas Pophale) SiO2 
 PCOD9579767
Probable space group: P 6
;
_chemical_formula_sum "Si O2"
_cell_formula_units_Z 40
_cell_length_a 19.146300
_cell_length_b 19.146300
_cell_length_c 7.496270
_cell_angle_alpha 90.000000
_cell_angle_beta 90.000000
_cell_angle_gamma 120.000000
_cell_volume 2379.828007
_symmetry_space_group_name_H-M "P 6"
_symmetry_group_IT_number 168
_symmetry_cell_setting 'hexagonal'
loop_
_space_group_symop_operation_xyz
x,y,z
x-y,x,z
-y,x-y,z
-x,-y,z
-x+y,-x,z
y,-x+y,z
loop_
_atom_site_type_symbol
_atom_site_label
_atom_site_fract_x
_atom_site_fract_y
_atom_site_fract_z
Si Si1 0.271627 0.785153 0.879050
Si Si2 0.592133 0.032062 0.297169
Si Si3 0.592133 0.032063 0.879565
Si Si4 0.691213 0.688620 0.588367
Si Si5 0.821406 0.644521 0.588368
Si Si6 0.785154 0.513527 0.297686
Si Si7 0.666668 0.333334 0.871153
Si Si8 0.666668 0.333335 0.305592
O O1 0.354484 0.870936 0.861799
O O2 0.206803 0.792044 0.759083
O O3 0.288667 0.715060 0.816942
O O4 0.249490 0.773456 0.088368
O O5 0.645516 0.129063 0.314937
O O6 0.500000 0.000000 0.351324
O O7 0.636506 0.997646 0.418957
O O8 0.592090 0.011934 0.088367
O O9 0.500000 0.000000 0.825409
O O10 0.636507 0.997648 0.757777
O O11 0.778127 0.696936 0.588369
O O12 0.690521 0.772255 0.588367
O O13 0.792044 0.585241 0.417652
O O14 0.715064 0.426394 0.359801
O O15 0.666668 0.333334 0.088373
#
# Coordination Sequence:
#
# PCOD9579767 Si02
#       8
#     6   6   6   6   6   6   2   2
#     4   9  19  33  47  71 100 132 172 205 242 287
#     4   9  18  32  51  72  98 132 167 205 246 289
#     4   9  18  32  51  72  98 132 167 205 246 289
#     4  10  21  36  52  75  98 126 166 208 256 309
#     4  10  22  36  54  73  98 128 161 210 256 308
#     4   9  19  33  47  71 100 132 172 205 242 287
#     4   9  18  31  47  67 100 137 172 208 236 271
#     4   9  18  31  47  67 100 137 172 208 236 271
#
# _framework density 16.807936999999999
#
# number of rings (size 3 to 8) (size 9 to 14) (size 15 to 20)
#    0.000    2.700    0.000    0.450    4.200    2.400 
#    0.000    0.000    0.000    0.300    0.000    0.000 
#    0.000    0.000    0.000   15.000    0.000    0.000 
#
# Total GULP energy -223199.614179 kJ/mol
# GULP energy per Si atom -5579.990354 kJ/mol
# Density = 1.676968 g / cm^3
# Si number density = 16.807937 Si / 1000 Ang^3
#
#
#
# Elastic Constant Matrix: (Units=GPa)
#
#
# Indices 1 2 3 4 5 6 
#
# 1 83.6816 63.6016 32.2423 0.0000 0.0000 -0.0008
# 2 63.6016 83.6828 32.2424 0.0000 0.0000 -0.0005
# 3 32.2423 32.2424 64.3402 0.0000 0.0000 -0.0003
# 4 0.0000 0.0000 0.0000 -38.5043 -0.0029 0.0000
# 5 0.0000 0.0000 0.0000 -0.0029 -38.5406 0.0000
# 6 -0.0008 -0.0005 -0.0003 0.0000 0.0000 10.0406
#
#
#
# Elastic Compliance Matrix: (Units=1/GPa)
#
#
# Indices 1 2 3 4 5 6 
#
# 1 0.029249 -0.020551 -0.004359 0.000000 0.000000 0.000001
# 2 -0.020551 0.029248 -0.004359 0.000000 0.000000 0.000000
# 3 -0.004359 -0.004359 0.019911 0.000000 0.000000 0.000000
# 4 0.000000 0.000000 0.000000 -0.025971 0.000002 0.000000
# 5 0.000000 0.000000 0.000000 0.000002 -0.025947 0.000000
# 6 0.000001 0.000000 0.000000 0.000000 0.000000 0.099595
#
#
# Mechanical properties :
#
#
# Convention : Reuss Voigt Hill
#
# Bulk Modulus (GPa) = 50.32239 54.20857 52.26548
# Shear Modulus (GPa) = 26.14434 -6.49298 9.82568
#
# Velocity S-wave (km/s) = 3.94823 -1.96759 2.42044
# Velocity P-wave (km/s) = 7.12667 5.21151 6.24297
#
# Compressibility (1/GPa) = 0.01987187
#
# Stress axis : x y z
#
# Youngs Moduli (GPa) = 34.18936 34.18993 50.22363
#
# Poissons Ratio (x) = 0.70262 0.21892
# Poissons Ratio (y) = 0.70261 0.21891
# Poissons Ratio (z) = 0.14903 0.14902
#
# Static dielectric constant tensor:
#      x y z
#    x 1.549700 0.000000 0.000000 
#    y 0.000000 1.549700 0.000000 
#    z 0.000000 0.000000 1.602090 
# 
# From -- ./inp_files/326.got.cif
#   From: 2010.05.17/outbox.cif.g08.bks.cpg/sg168_cif.got.tgz:326.got - 2010.05.20 11:12:33.
