data_PCOD9579936
_publ_section_title
;
Structure prediction by ZEFSAII (Michael W. Deem and Ramdas Pophale) SiO2 
 PCOD9579936
Probable space group: P 61
;
_chemical_formula_sum "Si O2"
_cell_formula_units_Z 42
_cell_length_a 14.517366
_cell_length_b 14.517366
_cell_length_c 9.496143
_cell_angle_alpha 90.000000
_cell_angle_beta 90.000000
_cell_angle_gamma 120.000000
_cell_volume 1733.219353
_symmetry_space_group_name_H-M "P 61"
_symmetry_group_IT_number 169
_symmetry_cell_setting 'hexagonal'
loop_
_space_group_symop_operation_xyz
x,y,z
x-y,x,1/6+z
-y,x-y,1/3+z
-x,-y,1/2+z
-x+y,-x,2/3+z
y,-x+y,5/6+z
loop_
_atom_site_type_symbol
_atom_site_label
_atom_site_fract_x
_atom_site_fract_y
_atom_site_fract_z
Si Si1 0.806155 0.456433 0.781830
Si Si2 0.384232 0.875751 0.428321
Si Si3 0.381199 0.021846 0.045075
Si Si4 0.403773 0.088428 0.359392
Si Si5 0.791380 0.899952 0.906424
Si Si6 0.191079 0.020328 0.946838
Si Si7 0.429934 0.716938 0.325974
O O1 0.894106 0.558304 0.867303
O O2 0.776747 0.490164 0.632672
O O3 0.689474 0.383491 0.846269
O O4 0.853951 0.379401 0.743296
O O5 0.357091 0.964469 0.392559
O O6 0.412530 0.816862 0.306997
O O7 0.299621 0.784334 0.526305
O O8 0.495739 0.932222 0.510794
O O9 0.386064 0.079935 0.191272
O O10 0.312895 0.048144 0.935142
O O11 0.328890 0.126873 0.428386
O O12 0.796122 0.843544 0.760787
O O13 0.862884 0.024082 0.864944
O O14 0.173638 0.118429 0.987650
#
# Coordination Sequence:
#
# PCOD9579936 Si02
#       7
#     6   6   6   6   6   6   6
#     4  10  24  36  63  93 127 172 209 260 310 382
#     4  10  24  40  59  90 133 161 211 258 309 390
#     4  11  22  39  64  93 127 163 214 264 310 384
#     4  11  22  39  63  95 125 166 212 261 317 379
#     4  10  21  37  65  92 119 152 209 265 312 380
#     4  10  21  37  66  92 116 155 208 265 314 376
#     4  10  22  40  62  89 129 167 207 253 316 383
#
# _framework density 24.232361000000001
#
# number of rings (size 3 to 8) (size 9 to 14) (size 15 to 20)
#    0.000    1.714    4.286    0.000   12.000    0.000 
#    0.000    0.000   15.714    0.000    0.000    0.000 
#    0.000    0.000    0.000    0.000    0.000    0.000 
#
# Total GULP energy -234763.113982 kJ/mol
# GULP energy per Si atom -5589.597952 kJ/mol
# Density = 2.417721 g / cm^3
# Si number density = 24.232361 Si / 1000 Ang^3
#
#
#
# Elastic Constant Matrix: (Units=GPa)
#
#
# Indices 1 2 3 4 5 6 
#
# 1 83.1198 2.0831 13.6600 0.0000 0.0000 0.0000
# 2 2.0831 83.1198 13.6600 0.0000 0.0000 0.0000
# 3 13.6600 13.6600 26.5460 0.0000 0.0000 0.0000
# 4 0.0000 0.0000 0.0000 25.0271 0.0000 0.0000
# 5 0.0000 0.0000 0.0000 0.0000 25.0271 0.0000
# 6 0.0000 0.0000 0.0000 0.0000 0.0000 40.5184
#
#
#
# Elastic Compliance Matrix: (Units=1/GPa)
#
#
# Indices 1 2 3 4 5 6 
#
# 1 0.013198 0.000858 -0.007233 0.000000 0.000000 0.000000
# 2 0.000858 0.013198 -0.007233 0.000000 0.000000 0.000000
# 3 -0.007233 -0.007233 0.045114 0.000000 0.000000 0.000000
# 4 0.000000 0.000000 0.000000 0.039957 0.000000 0.000000
# 5 0.000000 0.000000 0.000000 0.000000 0.039957 0.000000
# 6 0.000000 0.000000 0.000000 0.000000 0.000000 0.024680
#
#
# Mechanical properties :
#
#
# Convention : Reuss Voigt Hill
#
# Bulk Modulus (GPa) = 22.57615 27.95466 25.26540
# Shear Modulus (GPa) = 22.92690 29.00668 25.96679
#
# Velocity S-wave (km/s) = 3.07926 3.46355 3.27704
# Velocity P-wave (km/s) = 4.68820 5.24939 4.97671
#
# Compressibility (1/GPa) = 0.04429453
#
# Stress axis : x y z
#
# Youngs Moduli (GPa) = 75.76914 75.76914 22.16593
#
# Poissons Ratio (x) = -0.06500 0.16032
# Poissons Ratio (y) = -0.06500 0.16032
# Poissons Ratio (z) = 0.54803 0.54803
#
# Static dielectric constant tensor:
#      x y z
#    x 1.973500 0.000000 0.000000 
#    y 0.000000 1.973500 0.000000 
#    z 0.000000 0.000000 1.994240 
# 
# From -- ./inp_files/947.got.cif
#   From: 2010.05.17/outbox.cif.g08.bks.cpg/sg169_cif.got.tgz:947.got - 2010.05.20 11:12:54.
