data_PCOD9579270
_publ_section_title
;
Structure prediction by ZEFSAII (Michael W. Deem and Ramdas Pophale) SiO2 
 PCOD9579270
Probable space group: R -3 M
;
_chemical_formula_sum "Si O2"
_cell_formula_units_Z 144
_cell_length_a 30.020178
_cell_length_b 30.020178
_cell_length_c 9.042852
_cell_angle_alpha 90.000000
_cell_angle_beta 90.000000
_cell_angle_gamma 120.000000
_cell_volume 7057.690034
_symmetry_space_group_name_H-M "R -3 M"
_symmetry_group_IT_number 166
_symmetry_cell_setting 'hexagonal'
loop_
_space_group_symop_operation_xyz
x,y,z
-y,x-y,z
-x+y,-x,z
x-y,-y,-z
-x,-x+y,-z
y,x,-z
-x,-y,-z
y,-x+y,-z
x-y,x,-z
-x+y,y,z
x,x-y,z
-y,-x,z
2/3+x,1/3+y,1/3+z
2/3-y,1/3+x-y,1/3+z
2/3-x+y,1/3-x,1/3+z
2/3+x-y,1/3-y,1/3-z
2/3-x,1/3-x+y,1/3-z
2/3+y,1/3+x,1/3-z
2/3-x,1/3-y,1/3-z
2/3+y,1/3-x+y,1/3-z
2/3+x-y,1/3+x,1/3-z
2/3-x+y,1/3+y,1/3+z
2/3+x,1/3+x-y,1/3+z
2/3-y,1/3-x,1/3+z
1/3+x,2/3+y,2/3+z
1/3-y,2/3+x-y,2/3+z
1/3-x+y,2/3-x,2/3+z
1/3+x-y,2/3-y,2/3-z
1/3-x,2/3-x+y,2/3-z
1/3+y,2/3+x,2/3-z
1/3-x,2/3-y,2/3-z
1/3+y,2/3-x+y,2/3-z
1/3+x-y,2/3+x,2/3-z
1/3-x+y,2/3+y,2/3+z
1/3+x,2/3+x-y,2/3+z
1/3-y,2/3-x,2/3+z
loop_
_atom_site_type_symbol
_atom_site_label
_atom_site_fract_x
_atom_site_fract_y
_atom_site_fract_z
Si Si1 0.135799 0.760342 0.450848
Si Si2 0.527440 0.667727 0.339699
Si Si3 0.811049 0.086057 0.113704
Si Si4 0.771208 0.333062 0.166964
O O1 0.180785 0.819216 0.472978
O O2 0.096310 0.762976 0.333334
O O3 0.157131 0.725772 0.382989
O O4 0.121289 0.737028 0.615329
O O5 0.533873 0.626497 0.439867
O O6 0.471275 0.657454 0.380651
O O7 0.536334 0.666667 0.166667
O O8 0.873024 0.126977 0.106582
O O9 0.784886 0.118219 0.166667
O O10 0.774130 0.387065 0.143895
O O11 0.712808 0.287193 0.165944
O O12 0.792101 0.333334 0.333334
#
# Coordination Sequence:
#
# PCOD9579270 Si02
#       4
#    36  36  36  36
#     4  10  21  39  62  86 114 149 190 238 294 355
#     4  12  24  37  57  87 120 156 198 242 289 351
#     4  10  21  39  62  86 114 149 190 239 294 351
#     4  10  21  38  60  86 118 158 204 253 304 357
#
# _framework density 20.403275000000001
#
# number of rings (size 3 to 8) (size 9 to 14) (size 15 to 20)
#    0.000    1.500    0.000    5.500    0.000   11.000 
#    0.000    3.750    0.000    1.500    0.000    0.000 
#    0.000    0.000    0.000    0.000    0.000    0.000 
#
# Total GULP energy -267690.622065 kJ/mol
# GULP energy per Si atom -5576.887960 kJ/mol
# Density = 2.035684 g / cm^3
# Si number density = 20.403275 Si / 1000 Ang^3
#
#
#
# Elastic Constant Matrix: (Units=GPa)
#
#
# Indices 1 2 3 4 5 6 
#
# 1 53.0311 8.4844 29.7033 -1.4105 -0.0376 -0.0031
# 2 8.4844 53.1021 29.7751 1.4089 -0.0014 0.0068
# 3 29.7033 29.7751 163.7223 0.0008 -0.0251 0.0092
# 4 -1.4105 1.4089 0.0008 21.6433 -0.0041 0.0042
# 5 -0.0376 -0.0014 -0.0251 -0.0041 21.6040 -1.4003
# 6 -0.0031 0.0068 0.0092 0.0042 -1.4003 22.2997
#
#
#
# Elastic Compliance Matrix: (Units=1/GPa)
#
#
# Indices 1 2 3 4 5 6 
#
# 1 0.021124 -0.001409 -0.003576 0.001469 0.000033 0.000007
# 2 -0.001409 0.021104 -0.003582 -0.001465 -0.000006 -0.000005
# 3 -0.003576 -0.003582 0.007408 0.000000 0.000002 -0.000002
# 4 0.001469 -0.001465 0.000000 0.046395 0.000011 -0.000007
# 5 0.000033 -0.000006 0.000002 0.000011 0.046477 0.002918
# 6 0.000007 -0.000005 -0.000002 -0.000007 0.002918 0.045027
#
#
# Mechanical properties :
#
#
# Convention : Reuss Voigt Hill
#
# Bulk Modulus (GPa) = 30.76755 45.08680 37.92717
# Shear Modulus (GPa) = 23.20134 26.56893 24.88514
#
# Velocity S-wave (km/s) = 3.37581 3.61250 3.49616
# Velocity P-wave (km/s) = 5.50520 6.28856 5.90987
#
# Compressibility (1/GPa) = 0.03250178
#
# Stress axis : x y z
#
# Youngs Moduli (GPa) = 47.33853 47.38353 134.98462
#
# Poissons Ratio (x) = 0.06676 0.48274
# Poissons Ratio (y) = 0.06669 0.48358
# Poissons Ratio (z) = 0.16930 0.16975
#
# Static dielectric constant tensor:
#      x y z
#    x 1.721790 0.000010 -0.000050 
#    y 0.000010 1.721800 0.000010 
#    z -0.000050 0.000010 1.879620 
# 
# From -- ./inp_files/1769.got.cif
#   From: 2010.05.17/outbox.cif.g08.bks.cpg/sg166_1_cif.got.tgz:1769.got - 2010.05.20 11:04:41.
