data_PCOD9579827
_publ_section_title
;
Structure prediction by ZEFSAII (Michael W. Deem and Ramdas Pophale) SiO2 
 PCOD9579827
Probable space group: P 61
;
_chemical_formula_sum "Si O2"
_cell_formula_units_Z 42
_cell_length_a 13.558531
_cell_length_b 13.558531
_cell_length_c 12.767738
_cell_angle_alpha 90.000000
_cell_angle_beta 90.000000
_cell_angle_gamma 120.000000
_cell_volume 2032.684009
_symmetry_space_group_name_H-M "P 61"
_symmetry_group_IT_number 169
_symmetry_cell_setting 'hexagonal'
loop_
_space_group_symop_operation_xyz
x,y,z
x-y,x,1/6+z
-y,x-y,1/3+z
-x,-y,1/2+z
-x+y,-x,2/3+z
y,-x+y,5/6+z
loop_
_atom_site_type_symbol
_atom_site_label
_atom_site_fract_x
_atom_site_fract_y
_atom_site_fract_z
Si Si1 0.261819 0.561933 0.959400
Si Si2 0.193960 0.103634 0.836299
Si Si3 0.874708 0.276559 0.291433
Si Si4 0.632587 0.662382 0.222915
Si Si5 0.716078 0.204015 0.475397
Si Si6 0.425221 0.894748 0.174744
Si Si7 0.029846 0.538879 0.214668
O O1 0.155642 0.478216 0.887781
O O2 0.254704 0.668837 0.996693
O O3 0.379010 0.599192 0.899671
O O4 0.250463 0.485825 0.058036
O O5 0.281907 0.075808 0.898434
O O6 0.267485 0.223149 0.772944
O O7 0.124135 0.004546 0.754186
O O8 0.825074 0.224183 0.406165
O O9 0.952212 0.412270 0.270104
O O10 0.603758 0.551234 0.291158
O O11 0.637325 0.617581 0.108423
O O12 0.669553 0.133915 0.584709
O O13 0.603681 0.149303 0.401180
O O14 0.448465 0.985731 0.265280
#
# Coordination Sequence:
#
# PCOD9579827 Si02
#       7
#     6   6   6   6   6   6   6
#     4  10  19  34  53  83 118 163 206 250 311 383
#     4  11  23  42  72 100 122 164 223 280 327 382
#     4  10  19  36  61  90 127 163 218 267 322 383
#     4  10  19  36  59  87 126 161 207 266 318 385
#     4  11  20  32  55  84 121 170 210 256 323 383
#     4  10  22  33  51  87 121 164 215 256 315 382
#     4  10  20  35  53  85 129 167 207 265 320 390
#
# _framework density 20.662334999999999
#
# number of rings (size 3 to 8) (size 9 to 14) (size 15 to 20)
#    0.000    1.714    1.429    6.000    2.000    0.000 
#    0.000    0.000    0.000    5.143    0.000    0.000 
#    0.000    0.000    0.000    0.000    0.000    0.000 
#
# Total GULP energy -234103.621717 kJ/mol
# GULP energy per Si atom -5573.895755 kJ/mol
# Density = 2.061531 g / cm^3
# Si number density = 20.662335 Si / 1000 Ang^3
#
#
#
# Elastic Constant Matrix: (Units=GPa)
#
#
# Indices 1 2 3 4 5 6 
#
# 1 41.3713 13.8860 22.9322 0.0000 0.0000 0.0000
# 2 13.8860 41.3713 22.9322 0.0000 0.0000 0.0000
# 3 22.9322 22.9322 120.2426 0.0000 0.0000 0.0000
# 4 0.0000 0.0000 0.0000 23.8637 0.0000 0.0000
# 5 0.0000 0.0000 0.0000 0.0000 23.8637 0.0000
# 6 0.0000 0.0000 0.0000 0.0000 0.0000 13.7427
#
#
#
# Elastic Compliance Matrix: (Units=1/GPa)
#
#
# Indices 1 2 3 4 5 6 
#
# 1 0.028942 -0.007441 -0.004101 0.000000 0.000000 0.000000
# 2 -0.007441 0.028942 -0.004101 0.000000 0.000000 0.000000
# 3 -0.004101 -0.004101 0.009881 0.000000 0.000000 0.000000
# 4 0.000000 0.000000 0.000000 0.041905 0.000000 0.000000
# 5 0.000000 0.000000 0.000000 0.000000 0.041905 0.000000
# 6 0.000000 0.000000 0.000000 0.000000 0.000000 0.072766
#
#
# Mechanical properties :
#
#
# Convention : Reuss Voigt Hill
#
# Bulk Modulus (GPa) = 27.41242 35.83176 31.62209
# Shear Modulus (GPa) = 18.67178 21.84302 20.25740
#
# Velocity S-wave (km/s) = 3.00936 3.25490 3.13453
# Velocity P-wave (km/s) = 5.03693 5.61294 5.33271
#
# Compressibility (1/GPa) = 0.03647982
#
# Stress axis : x y z
#
# Youngs Moduli (GPa) = 34.55209 34.55209 101.20857
#
# Poissons Ratio (x) = 0.25711 0.41501
# Poissons Ratio (y) = 0.25711 0.41501
# Poissons Ratio (z) = 0.14168 0.14168
#
# Static dielectric constant tensor:
#      x y z
#    x 1.750390 0.000000 0.000000 
#    y 0.000000 1.750390 0.000000 
#    z 0.000000 0.000000 1.818610 
# 
# From -- ./inp_files/991.got.cif
#   From: 2010.05.17/outbox.cif.g08.bks.cpg/sg169_cif.got.tgz:991.got - 2010.05.20 11:12:54.
