data_PCOD9579611
_publ_section_title
;
Structure prediction by ZEFSAII (Michael W. Deem and Ramdas Pophale) SiO2 
 PCOD9579611
Probable space group: R -3 C 
;
_chemical_formula_sum "Si O2"
_cell_formula_units_Z 144
_cell_length_a 17.178644
_cell_length_b 17.178644
_cell_length_c 22.928237
_cell_angle_alpha 90.000000
_cell_angle_beta 90.000000
_cell_angle_gamma 120.000000
_cell_volume 5859.749536
_symmetry_space_group_name_H-M "R -3 C "
_symmetry_group_IT_number 167
_symmetry_cell_setting 'hexagonal'
loop_
_space_group_symop_operation_xyz
x,y,z
-y,x-y,z
-x+y,-x,z
x-y,-y,1/2-z
-x,-x+y,1/2-z
y,x,1/2-z
-x,-y,-z
y,-x+y,-z
x-y,x,-z
-x+y,y,1/2+z
x,x-y,1/2+z
-y,-x,1/2+z
2/3+x,1/3+y,1/3+z
2/3-y,1/3+x-y,1/3+z
2/3-x+y,1/3-x,1/3+z
2/3+x-y,1/3-y,5/6-z
2/3-x,1/3-x+y,5/6-z
2/3+y,1/3+x,5/6-z
2/3-x,1/3-y,1/3-z
2/3+y,1/3-x+y,1/3-z
2/3+x-y,1/3+x,1/3-z
2/3-x+y,1/3+y,5/6+z
2/3+x,1/3+x-y,5/6+z
2/3-y,1/3-x,5/6+z
1/3+x,2/3+y,2/3+z
1/3-y,2/3+x-y,2/3+z
1/3-x+y,2/3-x,2/3+z
1/3+x-y,2/3-y,1/6-z
1/3-x,2/3-x+y,1/6-z
1/3+y,2/3+x,1/6-z
1/3-x,2/3-y,2/3-z
1/3+y,2/3-x+y,2/3-z
1/3+x-y,2/3+x,2/3-z
1/3-x+y,2/3+y,1/6+z
1/3+x,2/3+x-y,1/6+z
1/3-y,2/3-x,1/6+z
loop_
_atom_site_type_symbol
_atom_site_label
_atom_site_fract_x
_atom_site_fract_y
_atom_site_fract_z
Si Si1 0.241207 0.211359 0.878982
Si Si2 0.879036 0.076693 0.523590
Si Si3 0.815945 0.000000 0.250000
Si Si4 0.856194 0.522861 0.083334
Si Si5 0.884455 0.619255 0.472352
O O1 0.333334 0.272829 0.916667
O O2 0.239477 0.232638 0.811104
O O3 0.225794 0.110138 0.883069
O O4 0.154729 0.204700 0.910440
O O5 0.719723 0.053057 0.416667
O O6 0.822379 0.121842 0.502661
O O7 0.843249 0.982833 0.489463
O O8 0.821125 0.909411 0.250483
O O9 0.764984 0.000288 0.190707
#
# Coordination Sequence:
#
# PCOD9579611 Si02
#       5
#    36  36  18  18  36
#     4  10  22  47  66 101 147 193 244 308 385 461
#     4  12  25  43  74 107 147 199 256 324 383 462
#     4  10  23  42  74 115 146 200 256 320 387 460
#     4  10  23  42  76 109 148 192 258 322 381 448
#     4  10  22  45  67 100 150 193 238 310 391 461
#
# _framework density 24.57443
#
# number of rings (size 3 to 8) (size 9 to 14) (size 15 to 20)
#    0.000    1.500    5.000    0.500    5.250    0.000 
#    2.250    5.000    0.000    0.000    0.000    0.000 
#    0.000    0.000    0.000    0.000    0.000    0.000 
#
# Total GULP energy -268358.780619 kJ/mol
# GULP energy per Si atom -5590.807930 kJ/mol
# Density = 2.451850 g / cm^3
# Si number density = 24.574430 Si / 1000 Ang^3
#
#
#
# Elastic Constant Matrix: (Units=GPa)
#
#
# Indices 1 2 3 4 5 6 
#
# 1 88.1512 27.8060 56.1468 1.1019 0.0003 0.0000
# 2 27.8060 88.1512 56.1468 -1.1019 -0.0003 0.0000
# 3 56.1468 56.1468 236.8027 0.0000 0.0000 0.0000
# 4 1.1019 -1.1019 0.0000 52.8972 0.0000 -0.0003
# 5 0.0003 -0.0003 0.0000 0.0000 52.8972 1.1019
# 6 0.0000 0.0000 0.0000 -0.0003 1.1019 30.1726
#
#
#
# Elastic Compliance Matrix: (Units=1/GPa)
#
#
# Indices 1 2 3 4 5 6 
#
# 1 0.013889 -0.002695 -0.002654 -0.000345 0.000000 0.000000
# 2 -0.002695 0.013889 -0.002654 0.000345 0.000000 0.000000
# 3 -0.002654 -0.002654 0.005482 0.000000 0.000000 0.000000
# 4 -0.000345 0.000345 0.000000 0.018919 0.000000 0.000000
# 5 0.000000 0.000000 0.000000 0.000000 0.018919 -0.000691
# 6 0.000000 0.000000 0.000000 0.000000 -0.000691 0.033168
#
#
# Mechanical properties :
#
#
# Convention : Reuss Voigt Hill
#
# Bulk Modulus (GPa) = 57.96025 77.03381 67.49703
# Shear Modulus (GPa) = 39.67527 45.39378 42.53452
#
# Velocity S-wave (km/s) = 4.02244 4.30256 4.16486
# Velocity P-wave (km/s) = 6.72385 7.48986 7.11716
#
# Compressibility (1/GPa) = 0.01725321
#
# Stress axis : x y z
#
# Youngs Moduli (GPa) = 71.99907 71.99907 182.42994
#
# Poissons Ratio (x) = 0.19403 0.48420
# Poissons Ratio (y) = 0.19403 0.48420
# Poissons Ratio (z) = 0.19110 0.19110
#
# Static dielectric constant tensor:
#      x y z
#    x 1.923660 0.000000 0.000000 
#    y 0.000000 1.923660 0.000000 
#    z 0.000000 0.000000 2.086770 
# 
# From -- ./inp_files/4349.got.cif
#   From: 2010.05.17/outbox.cif.g08.bks.cpg/sg167_3_cif.got.tgz:4349.got - 2010.05.20 11:09:15.
