data_PCOD9579298
_publ_section_title
;
Structure prediction by ZEFSAII (Michael W. Deem and Ramdas Pophale) SiO2 
 PCOD9579298
Probable space group: R -3 M
;
_chemical_formula_sum "Si O2"
_cell_formula_units_Z 108
_cell_length_a 23.528927
_cell_length_b 23.528927
_cell_length_c 11.534974
_cell_angle_alpha 90.000000
_cell_angle_beta 90.000000
_cell_angle_gamma 120.000000
_cell_volume 5530.335723
_symmetry_space_group_name_H-M "R -3 M"
_symmetry_group_IT_number 166
_symmetry_cell_setting 'hexagonal'
loop_
_space_group_symop_operation_xyz
x,y,z
-y,x-y,z
-x+y,-x,z
x-y,-y,-z
-x,-x+y,-z
y,x,-z
-x,-y,-z
y,-x+y,-z
x-y,x,-z
-x+y,y,z
x,x-y,z
-y,-x,z
2/3+x,1/3+y,1/3+z
2/3-y,1/3+x-y,1/3+z
2/3-x+y,1/3-x,1/3+z
2/3+x-y,1/3-y,1/3-z
2/3-x,1/3-x+y,1/3-z
2/3+y,1/3+x,1/3-z
2/3-x,1/3-y,1/3-z
2/3+y,1/3-x+y,1/3-z
2/3+x-y,1/3+x,1/3-z
2/3-x+y,1/3+y,1/3+z
2/3+x,1/3+x-y,1/3+z
2/3-y,1/3-x,1/3+z
1/3+x,2/3+y,2/3+z
1/3-y,2/3+x-y,2/3+z
1/3-x+y,2/3-x,2/3+z
1/3+x-y,2/3-y,2/3-z
1/3-x,2/3-x+y,2/3-z
1/3+y,2/3+x,2/3-z
1/3-x,2/3-y,2/3-z
1/3+y,2/3-x+y,2/3-z
1/3+x-y,2/3+x,2/3-z
1/3-x+y,2/3+y,2/3+z
1/3+x,2/3+x-y,2/3+z
1/3-y,2/3-x,2/3+z
loop_
_atom_site_type_symbol
_atom_site_label
_atom_site_fract_x
_atom_site_fract_y
_atom_site_fract_z
Si Si1 0.744600 0.489200 0.213793
Si Si2 0.140735 0.859266 0.728889
Si Si3 0.180113 0.590057 0.804453
Si Si4 0.859560 0.719119 0.769313
Si Si5 0.729721 0.667097 0.916287
O O1 0.772262 0.544524 0.118910
O O2 0.667493 0.444296 0.198774
O O3 0.760502 0.521003 0.343079
O O4 0.166667 0.833334 0.833334
O O5 0.204527 0.912435 0.657918
O O6 0.130426 0.565213 0.911887
O O7 0.833334 0.666667 0.666667
O O8 0.794378 0.707530 0.837545
O O9 0.666667 0.625496 0.833334
O O10 0.710471 0.710471 0.000000
#
# Coordination Sequence:
#
# PCOD9579298 Si02
#       5
#    18  18  18  18  36
#     4  10  22  41  63  94 125 168 213 268 329 394
#     4  11  25  41  64  97 132 172 221 266 339 398
#     4  10  23  38  66  92 129 162 214 272 327 389
#     4  11  26  40  63  99 130 174 219 268 334 397
#     4  11  25  42  65  92 136 173 216 272 331 398
#
# _framework density 19.528651
#
# number of rings (size 3 to 8) (size 9 to 14) (size 15 to 20)
#    0.000    1.333    0.000    4.333   18.667    1.333 
#    0.000    0.000    0.000    0.000    0.000    1.167 
#    0.000    0.000    0.000    0.000    0.000    0.000 
#
# Total GULP energy -200917.501296 kJ/mol
# GULP energy per Si atom -5581.041703 kJ/mol
# Density = 1.948420 g / cm^3
# Si number density = 19.528651 Si / 1000 Ang^3
#
#
#
# Elastic Constant Matrix: (Units=GPa)
#
#
# Indices 1 2 3 4 5 6 
#
# 1 116.7832 73.5339 57.5156 5.7812 0.0012 -0.0001
# 2 73.5339 116.7825 57.5147 -5.7813 -0.0008 0.0000
# 3 57.5156 57.5147 81.9961 0.0000 0.0008 -0.0001
# 4 5.7812 -5.7813 0.0000 38.3850 0.0000 -0.0008
# 5 0.0012 -0.0008 0.0008 0.0000 38.3852 5.7812
# 6 -0.0001 0.0000 -0.0001 -0.0008 5.7812 21.6243
#
#
#
# Elastic Compliance Matrix: (Units=1/GPa)
#
#
# Indices 1 2 3 4 5 6 
#
# 1 0.016607 -0.007485 -0.006398 -0.003629 -0.000001 0.000000
# 2 -0.007485 0.016607 -0.006398 0.003629 0.000001 0.000000
# 3 -0.006398 -0.006398 0.021172 0.000000 0.000000 0.000000
# 4 -0.003629 0.003629 0.000000 0.027145 0.000000 0.000001
# 5 -0.000001 0.000001 0.000000 0.000000 0.027145 -0.007257
# 6 0.000000 0.000000 0.000000 0.000001 -0.007257 0.048184
#
#
# Mechanical properties :
#
#
# Convention : Reuss Voigt Hill
#
# Bulk Modulus (GPa) = 72.34902 76.96556 74.65729
# Shear Modulus (GPa) = 24.74882 28.14541 26.44711
#
# Velocity S-wave (km/s) = 3.56379 3.80048 3.68404
# Velocity P-wave (km/s) = 7.35270 7.66521 7.51058
#
# Compressibility (1/GPa) = 0.01382189
#
# Stress axis : x y z
#
# Youngs Moduli (GPa) = 60.21605 60.21654 47.23308
#
# Poissons Ratio (x) = 0.45073 0.30222
# Poissons Ratio (y) = 0.45073 0.30220
# Poissons Ratio (z) = 0.38529 0.38527
#
# Static dielectric constant tensor:
#      x y z
#    x 1.727250 0.000000 0.000000 
#    y 0.000000 1.727250 0.000000 
#    z 0.000000 0.000000 1.756280 
# 
# From -- ./inp_files/2683.got.cif
#   From: 2010.05.17/outbox.cif.g08.bks.cpg/sg166_2_cif.got.tgz:2683.got - 2010.05.20 11:04:41.
