data_PCOD9579792
_publ_section_title
;
Structure prediction by ZEFSAII (Michael W. Deem and Ramdas Pophale) SiO2 
 PCOD9579792
Probable space group: P 61
;
_chemical_formula_sum "Si O2"
_cell_formula_units_Z 42
_cell_length_a 9.225294
_cell_length_b 9.225294
_cell_length_c 26.430566
_cell_angle_alpha 90.000000
_cell_angle_beta 90.000000
_cell_angle_gamma 120.000000
_cell_volume 1948.038457
_symmetry_space_group_name_H-M "P 61"
_symmetry_group_IT_number 169
_symmetry_cell_setting 'hexagonal'
loop_
_space_group_symop_operation_xyz
x,y,z
x-y,x,1/6+z
-y,x-y,1/3+z
-x,-y,1/2+z
-x+y,-x,2/3+z
y,-x+y,5/6+z
loop_
_atom_site_type_symbol
_atom_site_label
_atom_site_fract_x
_atom_site_fract_y
_atom_site_fract_z
Si Si1 0.825944 0.649924 0.449660
Si Si2 0.512787 0.120627 0.591481
Si Si3 0.756224 0.571042 0.748460
Si Si4 0.752566 0.360672 0.520803
Si Si5 0.063287 0.969858 0.956526
Si Si6 0.756150 0.000073 0.723902
Si Si7 0.602191 0.361283 0.370748
O O1 0.807588 0.545944 0.501234
O O2 0.685400 0.515569 0.411245
O O3 0.999375 0.684037 0.424039
O O4 0.849323 0.831067 0.458399
O O5 0.583096 0.270688 0.552204
O O6 0.566966 0.180538 0.648467
O O7 0.588932 0.998644 0.579161
O O8 0.734351 0.473714 0.801439
O O9 0.917286 0.749669 0.752478
O O10 0.735451 0.441602 0.705893
O O11 0.880925 0.328432 0.554565
O O12 0.872031 0.866300 0.936285
O O13 0.053319 0.880099 0.009388
O O14 0.767227 0.177566 0.717241
#
# Coordination Sequence:
#
# PCOD9579792 Si02
#       7
#     6   6   6   6   6   6   6
#     4  10  24  39  68  99 142 169 222 292 331 393
#     4  10  17  39  71  97 124 183 218 276 333 408
#     4   9  20  38  68  98 133 173 219 280 336 397
#     4   9  17  38  69  94 127 180 217 269 345 395
#     4  11  23  42  67  99 136 180 223 280 344 383
#     4  11  20  40  72  89 136 177 224 270 339 407
#     4  10  19  40  69 100 130 176 227 269 344 403
#
# _framework density 21.560151000000001
#
# number of rings (size 3 to 8) (size 9 to 14) (size 15 to 20)
#    0.000    2.286    5.714    0.000    2.000    0.000 
#    5.143    4.286    3.143    0.000    0.000    0.000 
#    0.000    0.000    0.000    0.000    0.000    0.000 
#
# Total GULP energy -234228.682929 kJ/mol
# GULP energy per Si atom -5576.873403 kJ/mol
# Density = 2.151108 g / cm^3
# Si number density = 21.560151 Si / 1000 Ang^3
#
#
#
# Elastic Constant Matrix: (Units=GPa)
#
#
# Indices 1 2 3 4 5 6 
#
# 1 121.3488 58.0274 25.3830 0.0000 0.0000 0.0000
# 2 58.0274 121.3488 25.3830 0.0000 0.0000 0.0000
# 3 25.3830 25.3830 17.2433 0.0000 0.0000 0.0000
# 4 0.0000 0.0000 0.0000 12.5572 0.0000 0.0000
# 5 0.0000 0.0000 0.0000 0.0000 12.5572 0.0000
# 6 0.0000 0.0000 0.0000 0.0000 0.0000 31.6607
#
#
#
# Elastic Compliance Matrix: (Units=1/GPa)
#
#
# Indices 1 2 3 4 5 6 
#
# 1 0.012674 -0.003118 -0.014067 0.000000 0.000000 0.000000
# 2 -0.003118 0.012674 -0.014067 0.000000 0.000000 0.000000
# 3 -0.014067 -0.014067 0.099408 0.000000 0.000000 0.000000
# 4 0.000000 0.000000 0.000000 0.079635 0.000000 0.000000
# 5 0.000000 0.000000 0.000000 0.000000 0.079635 0.000000
# 6 0.000000 0.000000 0.000000 0.000000 0.000000 0.031585
#
#
# Mechanical properties :
#
#
# Convention : Reuss Voigt Hill
#
# Bulk Modulus (GPa) = 16.06363 53.05864 34.56113
# Shear Modulus (GPa) = 12.53548 21.43152 16.98350
#
# Velocity S-wave (km/s) = 2.41388 3.15625 2.80969
# Velocity P-wave (km/s) = 3.90331 6.16000 5.15662
#
# Compressibility (1/GPa) = 0.06225245
#
# Stress axis : x y z
#
# Youngs Moduli (GPa) = 78.90016 78.90016 10.05952
#
# Poissons Ratio (x) = 0.24603 0.14151
# Poissons Ratio (y) = 0.24603 0.14151
# Poissons Ratio (z) = 1.10989 1.10989
#
# Static dielectric constant tensor:
#      x y z
#    x 1.840660 0.000000 0.000000 
#    y 0.000000 1.840660 0.000000 
#    z 0.000000 0.000000 1.808140 
# 
# From -- ./inp_files/1835.got.cif
#   From: 2010.05.17/outbox.cif.g08.bks.cpg/sg169_cif.got.tgz:1835.got - 2010.05.20 11:12:54.
