data_PCOD9579373
_publ_section_title
;
Structure prediction by ZEFSAII (Michael W. Deem and Ramdas Pophale) SiO2 
 PCOD9579373
Probable space group: R -3 M
;
_chemical_formula_sum "Si O2"
_cell_formula_units_Z 42
_cell_length_a 27.000000
_cell_length_b 27.000000
_cell_length_c 12.000000
_cell_angle_alpha 90.000000
_cell_angle_beta 90.000000
_cell_angle_gamma 120.000000
_cell_volume 7575.990232
_symmetry_space_group_name_H-M "R -3 M"
_symmetry_group_IT_number 166
_symmetry_cell_setting 'hexagonal'
loop_
_space_group_symop_operation_xyz
x,y,z
-y,x-y,z
-x+y,-x,z
x-y,-y,-z
-x,-x+y,-z
y,x,-z
-x,-y,-z
y,-x+y,-z
x-y,x,-z
-x+y,y,z
x,x-y,z
-y,-x,z
2/3+x,1/3+y,1/3+z
2/3-y,1/3+x-y,1/3+z
2/3-x+y,1/3-x,1/3+z
2/3+x-y,1/3-y,1/3-z
2/3-x,1/3-x+y,1/3-z
2/3+y,1/3+x,1/3-z
2/3-x,1/3-y,1/3-z
2/3+y,1/3-x+y,1/3-z
2/3+x-y,1/3+x,1/3-z
2/3-x+y,1/3+y,1/3+z
2/3+x,1/3+x-y,1/3+z
2/3-y,1/3-x,1/3+z
1/3+x,2/3+y,2/3+z
1/3-y,2/3+x-y,2/3+z
1/3-x+y,2/3-x,2/3+z
1/3+x-y,2/3-y,2/3-z
1/3-x,2/3-x+y,2/3-z
1/3+y,2/3+x,2/3-z
1/3-x,2/3-y,2/3-z
1/3+y,2/3-x+y,2/3-z
1/3+x-y,2/3+x,2/3-z
1/3-x+y,2/3+y,2/3+z
1/3+x,2/3+x-y,2/3+z
1/3-y,2/3-x,2/3+z
loop_
_atom_site_type_symbol
_atom_site_label
_atom_site_fract_x
_atom_site_fract_y
_atom_site_fract_z
Si Si1 0.667732 0.454770 0.635840
Si Si2 0.130116 0.463449 0.166667
Si Si3 0.442307 0.438581 0.870420
Si Si4 0.831298 0.286664 0.431357
O O1 0.722063 0.444125 0.654979
O O2 0.606378 0.393623 0.632371
O O3 0.667369 0.498023 0.729821
O O4 0.683705 0.494080 0.524291
O O5 0.065234 0.452983 0.172690
O O6 0.503791 0.496210 0.867286
O O7 0.399588 0.457270 0.811456
O O8 0.424703 0.424703 0.000000
O O9 0.773080 0.226921 0.399185
O O10 0.860076 0.333334 0.333334
#
# Coordination Sequence:
#
# PCOD9579373 Si02
#       4
#    36  18  36  36
#     4  11  22  37  59  88 123 159 197 241 294 354
#     4  12  22  36  61  88 115 152 198 246 294 352
#     4  10  20  38  59  81 111 152 196 238 289 347
#     4  10  21  39  61  86 119 155 197 243 292 348
#
# _framework density 5.5438299999999998
#
# number of rings (size 3 to 8) (size 9 to 14) (size 15 to 20)
#    0.000    1.429    2.857    3.714    0.000    1.143 
#    0.000    1.429    0.000    9.714    0.000    0.000 
#    0.000    0.000    0.000    0.000    0.000    0.000 
#
# Total GULP energy -233950.974939 kJ/mol
# GULP energy per Si atom -5570.261308 kJ/mol
# Density = 0.553121 g / cm^3
# Si number density = 5.543830 Si / 1000 Ang^3
#
#
#
# Elastic Constant Matrix: (Units=GPa)
#
#
# Indices 1 2 3 4 5 6 
#
# 1 160.7953 72.6296 65.9488 2.5951 -0.0006 -0.0001
# 2 72.6296 160.7957 65.9496 -2.5952 -0.0003 0.0000
# 3 65.9488 65.9496 105.4366 -0.0004 -0.0013 -0.0001
# 4 2.5951 -2.5952 -0.0004 35.0444 -0.0002 0.0000
# 5 -0.0006 -0.0003 -0.0013 -0.0002 35.0435 2.5951
# 6 -0.0001 0.0000 -0.0001 0.0000 2.5951 44.0830
#
#
#
# Elastic Compliance Matrix: (Units=1/GPa)
#
#
# Indices 1 2 3 4 5 6 
#
# 1 0.009009 -0.002383 -0.004144 -0.000844 0.000000 0.000000
# 2 -0.002383 0.009009 -0.004144 0.000844 0.000000 0.000000
# 3 -0.004144 -0.004144 0.014669 0.000000 0.000000 0.000000
# 4 -0.000844 0.000844 0.000000 0.028660 0.000000 0.000000
# 5 0.000000 0.000000 0.000000 0.000000 0.028661 -0.001687
# 6 0.000000 0.000000 0.000000 0.000000 -0.001687 0.022784
#
#
# Mechanical properties :
#
#
# Convention : Reuss Voigt Hill
#
# Bulk Modulus (GPa) = 88.15967 92.89816 90.52892
# Shear Modulus (GPa) = 36.25395 37.66751 36.96073
#
# Velocity S-wave (km/s) = 4.67394 4.76419 4.71928
# Velocity P-wave (km/s) = 9.06920 9.28662 9.17855
#
# Compressibility (1/GPa) = 0.01134305
#
# Stress axis : x y z
#
# Youngs Moduli (GPa) = 111.00195 111.00141 68.17165
#
# Poissons Ratio (x) = 0.26452 0.28252
# Poissons Ratio (y) = 0.26452 0.28253
# Poissons Ratio (z) = 0.46003 0.46004
#
# Static dielectric constant tensor:
#      x y z
#    x 1.555950 0.000000 0.000000 
#    y 0.000000 1.555950 0.000000 
#    z 0.000000 0.000000 1.592160 
# 
# From -- ./inp_files/2845.got.cif
#   From: 2010.05.17/outbox.ucp.g08.bks.cvg/sg166_2_cif.got.tgz:2845.got - 2010.06.11 15:16:39.
