data_PCOD9579420
_publ_section_title
;
Structure prediction by ZEFSAII (Michael W. Deem and Ramdas Pophale) SiO2 
 PCOD9579420
Probable space group: R -3 C 
;
_chemical_formula_sum "Si O2"
_cell_formula_units_Z 138
_cell_length_a 18.407897
_cell_length_b 18.407897
_cell_length_c 20.581940
_cell_angle_alpha 90.000000
_cell_angle_beta 90.000000
_cell_angle_gamma 120.000000
_cell_volume 6039.838008
_symmetry_space_group_name_H-M "R -3 C "
_symmetry_group_IT_number 167
_symmetry_cell_setting 'hexagonal'
loop_
_space_group_symop_operation_xyz
x,y,z
-y,x-y,z
-x+y,-x,z
x-y,-y,1/2-z
-x,-x+y,1/2-z
y,x,1/2-z
-x,-y,-z
y,-x+y,-z
x-y,x,-z
-x+y,y,1/2+z
x,x-y,1/2+z
-y,-x,1/2+z
2/3+x,1/3+y,1/3+z
2/3-y,1/3+x-y,1/3+z
2/3-x+y,1/3-x,1/3+z
2/3+x-y,1/3-y,5/6-z
2/3-x,1/3-x+y,5/6-z
2/3+y,1/3+x,5/6-z
2/3-x,1/3-y,1/3-z
2/3+y,1/3-x+y,1/3-z
2/3+x-y,1/3+x,1/3-z
2/3-x+y,1/3+y,5/6+z
2/3+x,1/3+x-y,5/6+z
2/3-y,1/3-x,5/6+z
1/3+x,2/3+y,2/3+z
1/3-y,2/3+x-y,2/3+z
1/3-x+y,2/3-x,2/3+z
1/3+x-y,2/3-y,1/6-z
1/3-x,2/3-x+y,1/6-z
1/3+y,2/3+x,1/6-z
1/3-x,2/3-y,2/3-z
1/3+y,2/3-x+y,2/3-z
1/3+x-y,2/3+x,2/3-z
1/3-x+y,2/3+y,1/6+z
1/3+x,2/3+x-y,1/6+z
1/3-y,2/3-x,1/6+z
loop_
_atom_site_type_symbol
_atom_site_label
_atom_site_fract_x
_atom_site_fract_y
_atom_site_fract_z
Si Si1 0.887423 0.113279 0.714694
Si Si2 0.333334 0.085747 0.416667
Si Si3 0.500136 0.722370 0.024153
Si Si4 0.617723 0.981350 0.025622
Si Si5 0.333334 0.666667 0.090054
O O1 0.790365 0.090669 0.724791
O O2 0.949750 0.203779 0.684463
O O3 0.087682 0.184349 0.714285
O O4 0.869978 0.041731 0.662129
O O5 0.417232 0.173705 0.431354
O O6 0.337193 0.032117 0.476875
O O7 0.426657 0.724330 0.062756
O O8 0.666667 0.963994 0.083334
O O9 0.333335 0.666668 0.166667
#
# Coordination Sequence:
#
# PCOD9579420 Si02
#       5
#    36  18  36  36  12
#     4   9  19  38  69 103 139 189 246 309 379 472
#     4  10  20  40  68 100 138 192 246 324 392 468
#     4  10  22  46  70  99 142 198 261 309 396 478
#     4  10  18  35  64 106 146 182 238 318 388 452
#     4  12  30  49  68 106 156 213 253 338 394 474
#
# _framework density 22.848293999999999
#
# number of rings (size 3 to 8) (size 9 to 14) (size 15 to 20)
#    0.000    2.087    5.217    0.000    0.000    8.348 
#    4.696    0.000    2.870    0.000    0.000    0.000 
#    0.000    0.000    0.000    0.000    0.000    0.000 
#
# Total GULP energy -256224.912257 kJ/mol
# GULP energy per Si atom -5570.106788 kJ/mol
# Density = 2.279629 g / cm^3
# Si number density = 22.848294 Si / 1000 Ang^3
#
#
#
# Elastic Constant Matrix: (Units=GPa)
#
#
# Indices 1 2 3 4 5 6 
#
# 1 112.4393 69.7424 62.5017 2.6857 -0.0008 0.0000
# 2 69.7424 112.4394 62.5016 -2.6861 0.0008 0.0000
# 3 62.5017 62.5016 139.8390 -0.0003 0.0000 0.0000
# 4 2.6857 -2.6861 -0.0003 30.0290 0.0000 0.0008
# 5 -0.0008 0.0008 0.0000 0.0000 30.0283 2.6857
# 6 0.0000 0.0000 0.0000 0.0008 2.6857 21.3485
#
#
#
# Elastic Compliance Matrix: (Units=1/GPa)
#
#
# Indices 1 2 3 4 5 6 
#
# 1 0.015802 -0.007885 -0.003539 -0.002119 0.000001 0.000000
# 2 -0.007885 0.015802 -0.003539 0.002119 -0.000001 0.000000
# 3 -0.003539 -0.003539 0.010314 0.000000 0.000000 0.000000
# 4 -0.002119 0.002119 0.000000 0.033680 0.000000 -0.000001
# 5 0.000001 -0.000001 0.000000 0.000000 0.033681 -0.004237
# 6 0.000000 0.000000 0.000000 -0.000001 -0.004237 0.047375
#
#
# Mechanical properties :
#
#
# Convention : Reuss Voigt Hill
#
# Bulk Modulus (GPa) = 83.37474 83.80101 83.58787
# Shear Modulus (GPa) = 26.23614 27.61264 26.92439
#
# Velocity S-wave (km/s) = 3.39230 3.48015 3.43650
# Velocity P-wave (km/s) = 7.20509 7.27361 7.23943
#
# Compressibility (1/GPa) = 0.01199404
#
# Stress axis : x y z
#
# Youngs Moduli (GPa) = 63.28225 63.28245 96.95371
#
# Poissons Ratio (x) = 0.49900 0.34308
# Poissons Ratio (y) = 0.49899 0.34307
# Poissons Ratio (z) = 0.22393 0.22393
#
# Static dielectric constant tensor:
#      x y z
#    x 1.959280 0.000000 0.000000 
#    y 0.000000 1.959290 0.000000 
#    z 0.000000 0.000000 1.834240 
# 
# From -- ./inp_files/6041.got.cif
#   From: 2010.05.17/outbox.cif.g08.bks.cpg/sg167_4_cif.got.tgz:6041.got - 2010.05.20 11:09:15.
