data_PCOD9579102
_publ_section_title
;
Structure prediction by ZEFSAII (Michael W. Deem and Ramdas Pophale) SiO2 
 PCOD9579102
Probable space group: R -3 M
;
_chemical_formula_sum "Si O2"
_cell_formula_units_Z 144
_cell_length_a 25.311550
_cell_length_b 25.311550
_cell_length_c 12.886905
_cell_angle_alpha 90.000000
_cell_angle_beta 90.000000
_cell_angle_gamma 120.000000
_cell_volume 7150.176137
_symmetry_space_group_name_H-M "R -3 M"
_symmetry_group_IT_number 166
_symmetry_cell_setting 'hexagonal'
loop_
_space_group_symop_operation_xyz
x,y,z
-y,x-y,z
-x+y,-x,z
x-y,-y,-z
-x,-x+y,-z
y,x,-z
-x,-y,-z
y,-x+y,-z
x-y,x,-z
-x+y,y,z
x,x-y,z
-y,-x,z
2/3+x,1/3+y,1/3+z
2/3-y,1/3+x-y,1/3+z
2/3-x+y,1/3-x,1/3+z
2/3+x-y,1/3-y,1/3-z
2/3-x,1/3-x+y,1/3-z
2/3+y,1/3+x,1/3-z
2/3-x,1/3-y,1/3-z
2/3+y,1/3-x+y,1/3-z
2/3+x-y,1/3+x,1/3-z
2/3-x+y,1/3+y,1/3+z
2/3+x,1/3+x-y,1/3+z
2/3-y,1/3-x,1/3+z
1/3+x,2/3+y,2/3+z
1/3-y,2/3+x-y,2/3+z
1/3-x+y,2/3-x,2/3+z
1/3+x-y,2/3-y,2/3-z
1/3-x,2/3-x+y,2/3-z
1/3+y,2/3+x,2/3-z
1/3-x,2/3-y,2/3-z
1/3+y,2/3-x+y,2/3-z
1/3+x-y,2/3+x,2/3-z
1/3-x+y,2/3+y,2/3+z
1/3+x,2/3+x-y,2/3+z
1/3-y,2/3-x,2/3+z
loop_
_atom_site_type_symbol
_atom_site_label
_atom_site_fract_x
_atom_site_fract_y
_atom_site_fract_z
Si Si1 0.636282 0.487933 0.226787
Si Si2 0.696711 0.960502 0.183224
Si Si3 0.856218 0.587888 0.728007
Si Si4 0.211217 0.543566 0.992417
O O1 0.567633 0.432368 0.219261
O O2 0.666667 0.485045 0.333334
O O3 0.633826 0.550215 0.223489
O O4 0.669428 0.480708 0.125165
O O5 0.679159 0.012492 0.166667
O O6 0.632465 0.896334 0.179337
O O7 0.723858 0.959132 0.296268
O O8 0.799269 0.598538 0.706604
O O9 0.826531 0.515502 0.729034
O O10 0.267988 0.535975 0.022535
O O11 0.228470 0.614235 0.994464
#
# Coordination Sequence:
#
# PCOD9579102 Si02
#       4
#    36  36  36  36
#     4  10  20  33  52  76 109 145 178 214 258 313
#     4  10  19  31  54  73  99 133 177 216 257 308
#     4   9  18  35  54  72  98 133 173 217 258 305
#     4   9  17  31  52  77 105 137 172 214 262 313
#
# _framework density 20.139364
#
# number of rings (size 3 to 8) (size 9 to 14) (size 15 to 20)
#    0.000    2.500    0.000    5.500    3.500    0.000 
#    0.000    3.750    0.000    7.750    0.000    0.000 
#    0.000    5.000    0.000    0.000    0.000    0.000 
#
# Total GULP energy -267679.709662 kJ/mol
# GULP energy per Si atom -5576.660618 kJ/mol
# Density = 2.009353 g / cm^3
# Si number density = 20.139364 Si / 1000 Ang^3
#
#
#
# Elastic Constant Matrix: (Units=GPa)
#
#
# Indices 1 2 3 4 5 6 
#
# 1 117.4296 54.2629 0.0959 -2.9501 -0.0006 0.0000
# 2 54.2629 117.4296 0.0957 2.9501 0.0006 0.0000
# 3 0.0959 0.0957 45.9509 0.0001 0.0001 0.0001
# 4 -2.9501 2.9501 0.0001 10.9791 0.0000 0.0006
# 5 -0.0006 0.0006 0.0001 0.0000 10.9792 -2.9500
# 6 0.0000 0.0000 0.0001 0.0006 -2.9500 31.5833
#
#
#
# Elastic Compliance Matrix: (Units=1/GPa)
#
#
# Indices 1 2 3 4 5 6 
#
# 1 0.011032 -0.005207 -0.000012 0.004363 0.000001 0.000000
# 2 -0.005207 0.011032 -0.000012 -0.004363 -0.000001 0.000000
# 3 -0.000012 -0.000012 0.021762 0.000000 0.000000 0.000000
# 4 0.004363 -0.004363 0.000000 0.093427 0.000000 -0.000002
# 5 0.000001 -0.000001 0.000000 0.000000 0.093426 0.008726
# 6 0.000000 0.000000 0.000000 -0.000002 0.008726 0.032477
#
#
# Mechanical properties :
#
#
# Convention : Reuss Voigt Hill
#
# Bulk Modulus (GPa) = 29.97368 43.30213 36.63791
# Shear Modulus (GPa) = 17.55991 25.79870 21.67930
#
# Velocity S-wave (km/s) = 2.95603 3.58300 3.28451
# Velocity P-wave (km/s) = 5.15425 6.21813 5.71102
#
# Compressibility (1/GPa) = 0.03336260
#
# Stress axis : x y z
#
# Youngs Moduli (GPa) = 90.64927 90.64926 45.95076
#
# Poissons Ratio (x) = 0.47202 0.00056
# Poissons Ratio (y) = 0.47202 0.00056
# Poissons Ratio (z) = 0.00110 0.00110
#
# Static dielectric constant tensor:
#      x y z
#    x 1.727160 0.000000 0.000000 
#    y 0.000000 1.727160 0.000000 
#    z 0.000000 0.000000 1.778380 
# 
# From -- ./inp_files/5251.got.cif
#   From: 2010.05.17/outbox.cif.g08.bks.cpg/sg166_3_cif.got.tgz:5251.got - 2010.05.20 11:04:41.
