data_PCOD9579128
_publ_section_title
;
Structure prediction by ZEFSAII (Michael W. Deem and Ramdas Pophale) SiO2 
 PCOD9579128
Probable space group: R -3 M
;
_chemical_formula_sum "Si O2"
_cell_formula_units_Z 162
_cell_length_a 21.877605
_cell_length_b 21.877605
_cell_length_c 17.999911
_cell_angle_alpha 90.000000
_cell_angle_beta 90.000000
_cell_angle_gamma 120.000000
_cell_volume 7461.060184
_symmetry_space_group_name_H-M "R -3 M"
_symmetry_group_IT_number 166
_symmetry_cell_setting 'hexagonal'
loop_
_space_group_symop_operation_xyz
x,y,z
-y,x-y,z
-x+y,-x,z
x-y,-y,-z
-x,-x+y,-z
y,x,-z
-x,-y,-z
y,-x+y,-z
x-y,x,-z
-x+y,y,z
x,x-y,z
-y,-x,z
2/3+x,1/3+y,1/3+z
2/3-y,1/3+x-y,1/3+z
2/3-x+y,1/3-x,1/3+z
2/3+x-y,1/3-y,1/3-z
2/3-x,1/3-x+y,1/3-z
2/3+y,1/3+x,1/3-z
2/3-x,1/3-y,1/3-z
2/3+y,1/3-x+y,1/3-z
2/3+x-y,1/3+x,1/3-z
2/3-x+y,1/3+y,1/3+z
2/3+x,1/3+x-y,1/3+z
2/3-y,1/3-x,1/3+z
1/3+x,2/3+y,2/3+z
1/3-y,2/3+x-y,2/3+z
1/3-x+y,2/3-x,2/3+z
1/3+x-y,2/3-y,2/3-z
1/3-x,2/3-x+y,2/3-z
1/3+y,2/3+x,2/3-z
1/3-x,2/3-y,2/3-z
1/3+y,2/3-x+y,2/3-z
1/3+x-y,2/3+x,2/3-z
1/3-x+y,2/3+y,2/3+z
1/3+x,2/3+x-y,2/3+z
1/3-y,2/3-x,2/3+z
loop_
_atom_site_type_symbol
_atom_site_label
_atom_site_fract_x
_atom_site_fract_y
_atom_site_fract_z
Si Si1 0.333271 0.528835 0.078480
Si Si2 0.248842 0.302990 0.595832
Si Si3 0.617710 0.584898 0.576238
Si Si4 0.666667 0.480207 0.333334
Si Si5 0.181289 0.227638 0.151217
O O1 0.267190 0.534380 0.046209
O O2 0.409566 0.590435 0.050147
O O3 0.333334 0.540853 0.166667
O O4 0.314778 0.447564 0.075268
O O5 0.331331 0.327589 0.586606
O O6 0.231941 0.319053 0.678699
O O7 0.244269 0.355501 0.536788
O O8 0.576132 0.576132 0.500000
O O9 0.663189 0.548807 0.554234
O O10 0.737168 0.474335 0.330036
O O11 0.660960 0.517933 0.258462
O O12 0.101135 0.202270 0.166987
#
# Coordination Sequence:
#
# PCOD9579128 Si02
#       5
#    36  36  36  18  36
#     4  10  20  34  52  75 106 146 189 227 262 306
#     4  10  19  32  54  80 108 139 175 218 266 318
#     4   9  18  32  50  75 107 134 163 211 267 323
#     4  10  21  38  60  82 105 136 176 218 262 316
#     4  10  19  33  54  78 104 136 173 217 265 309
#
# _framework density 21.712731999999999
#
# number of rings (size 3 to 8) (size 9 to 14) (size 15 to 20)
#    0.000    2.222    0.000    5.667    0.000    4.444 
#    0.000    4.444    0.000   11.333    0.000    3.111 
#    0.000    0.000    0.000    0.000    0.000    0.000 
#
# Total GULP energy -300822.640612 kJ/mol
# GULP energy per Si atom -5570.789641 kJ/mol
# Density = 2.166331 g / cm^3
# Si number density = 21.712732 Si / 1000 Ang^3
#
#
#
# Elastic Constant Matrix: (Units=GPa)
#
#
# Indices 1 2 3 4 5 6 
#
# 1 63.7233 34.3710 -19.1547 0.9374 -0.0001 0.0000
# 2 34.3710 63.7233 -19.1547 -0.9374 0.0001 0.0000
# 3 -19.1547 -19.1547 65.0224 0.0000 0.0000 0.0000
# 4 0.9374 -0.9374 0.0000 15.6222 0.0000 0.0001
# 5 -0.0001 0.0001 0.0000 0.0000 15.6222 0.9374
# 6 0.0000 0.0000 0.0000 0.0001 0.9374 14.6761
#
#
#
# Elastic Compliance Matrix: (Units=1/GPa)
#
#
# Indices 1 2 3 4 5 6 
#
# 1 0.022860 -0.011340 0.003394 -0.002052 0.000000 0.000000
# 2 -0.011340 0.022860 0.003394 0.002052 0.000000 0.000000
# 3 0.003394 0.003394 0.017379 0.000000 0.000000 0.000000
# 4 -0.002052 0.002052 0.000000 0.064258 0.000000 0.000000
# 5 0.000000 0.000000 0.000000 0.000000 0.064258 -0.004104
# 6 0.000000 0.000000 0.000000 0.000000 -0.004104 0.068400
#
#
# Mechanical properties :
#
#
# Convention : Reuss Voigt Hill
#
# Bulk Modulus (GPa) = 18.52131 20.51022 19.51577
# Shear Modulus (GPa) = 17.41448 22.27793 19.84621
#
# Velocity S-wave (km/s) = 2.83510 3.20665 3.02658
# Velocity P-wave (km/s) = 4.38928 4.81423 4.60666
#
# Compressibility (1/GPa) = 0.05399187
#
# Stress axis : x y z
#
# Youngs Moduli (GPa) = 43.74496 43.74496 57.54174
#
# Poissons Ratio (x) = 0.49608 -0.19527
# Poissons Ratio (y) = 0.49608 -0.19527
# Poissons Ratio (z) = -0.14845 -0.14845
#
# Static dielectric constant tensor:
#      x y z
#    x 1.829810 0.000000 0.000000 
#    y 0.000000 1.829810 0.000000 
#    z 0.000000 0.000000 1.827080 
# 
# From -- ./inp_files/5400.got.cif
#   From: 2010.05.17/outbox.cif.g08.bks.cpg/sg166_3_cif.got.tgz:5400.got - 2010.05.20 11:04:41.
