data_PCOD9579530
_publ_section_title
;
Structure prediction by ZEFSAII (Michael W. Deem and Ramdas Pophale) SiO2 
 PCOD9579530
Probable space group: R -3 C 
;
_chemical_formula_sum "Si O2"
_cell_formula_units_Z 162
_cell_length_a 23.990935
_cell_length_b 23.990935
_cell_length_c 16.472994
_cell_angle_alpha 90.000000
_cell_angle_beta 90.000000
_cell_angle_gamma 120.000000
_cell_volume 8211.027754
_symmetry_space_group_name_H-M "R -3 C "
_symmetry_group_IT_number 167
_symmetry_cell_setting 'hexagonal'
loop_
_space_group_symop_operation_xyz
x,y,z
-y,x-y,z
-x+y,-x,z
x-y,-y,1/2-z
-x,-x+y,1/2-z
y,x,1/2-z
-x,-y,-z
y,-x+y,-z
x-y,x,-z
-x+y,y,1/2+z
x,x-y,1/2+z
-y,-x,1/2+z
2/3+x,1/3+y,1/3+z
2/3-y,1/3+x-y,1/3+z
2/3-x+y,1/3-x,1/3+z
2/3+x-y,1/3-y,5/6-z
2/3-x,1/3-x+y,5/6-z
2/3+y,1/3+x,5/6-z
2/3-x,1/3-y,1/3-z
2/3+y,1/3-x+y,1/3-z
2/3+x-y,1/3+x,1/3-z
2/3-x+y,1/3+y,5/6+z
2/3+x,1/3+x-y,5/6+z
2/3-y,1/3-x,5/6+z
1/3+x,2/3+y,2/3+z
1/3-y,2/3+x-y,2/3+z
1/3-x+y,2/3-x,2/3+z
1/3+x-y,2/3-y,1/6-z
1/3-x,2/3-x+y,1/6-z
1/3+y,2/3+x,1/6-z
1/3-x,2/3-y,2/3-z
1/3+y,2/3-x+y,2/3-z
1/3+x-y,2/3+x,2/3-z
1/3-x+y,2/3+y,1/6+z
1/3+x,2/3+x-y,1/6+z
1/3-y,2/3-x,1/6+z
loop_
_atom_site_type_symbol
_atom_site_label
_atom_site_fract_x
_atom_site_fract_y
_atom_site_fract_z
Si Si1 0.820890 0.200495 0.566244
Si Si2 0.049002 0.666667 0.416667
Si Si3 0.884442 0.217775 0.916667
Si Si4 0.453430 0.558970 0.559649
Si Si5 0.211606 0.004687 0.007399
Si Si6 0.632812 0.632812 0.750000
O O1 0.882947 0.270760 0.568786
O O2 0.794698 0.172713 0.478236
O O3 0.848300 0.152919 0.590162
O O4 0.771123 0.204689 0.628873
O O5 0.022859 0.677389 0.330565
O O6 0.891279 0.279105 0.869105
O O7 0.492136 0.625571 0.608855
O O8 0.381649 0.517965 0.597748
O O9 0.232702 0.960281 0.056362
#
# Coordination Sequence:
#
# PCOD9579530 Si02
#       6
#    36  18  18  36  36  18
#     4  10  21  36  55  85 118 151 195 241 296 367
#     4  12  21  36  59  84 126 158 193 233 300 366
#     4  10  24  36  56  82 118 162 198 247 295 352
#     4  10  22  37  54  83 117 153 200 248 289 360
#     4  11  23  37  58  82 119 158 200 243 300 355
#     4  12  23  36  57  88 114 168 191 234 297 368
#
# _framework density 19.729564
#
# number of rings (size 3 to 8) (size 9 to 14) (size 15 to 20)
#    0.000    1.333    4.444    1.333    3.111    0.889 
#    0.000    0.000    0.000    0.444    0.000    0.000 
#    0.000    0.000    0.000    0.000    0.000    0.000 
#
# Total GULP energy -300741.336745 kJ/mol
# GULP energy per Si atom -5569.284014 kJ/mol
# Density = 1.968466 g / cm^3
# Si number density = 19.729564 Si / 1000 Ang^3
#
#
#
# Elastic Constant Matrix: (Units=GPa)
#
#
# Indices 1 2 3 4 5 6 
#
# 1 73.0587 33.1252 44.0105 -8.8704 0.0002 0.0000
# 2 33.1252 73.0587 44.0105 8.8704 -0.0002 0.0000
# 3 44.0105 44.0105 147.3385 0.0000 0.0000 0.0000
# 4 -8.8704 8.8704 0.0000 25.7524 0.0000 -0.0002
# 5 0.0002 -0.0002 0.0000 0.0000 25.7524 -8.8704
# 6 0.0000 0.0000 0.0000 -0.0002 -8.8704 19.9667
#
#
#
# Elastic Compliance Matrix: (Units=1/GPa)
#
#
# Indices 1 2 3 4 5 6 
#
# 1 0.021041 -0.008525 -0.003739 0.010184 0.000000 0.000000
# 2 -0.008525 0.021041 -0.003739 -0.010184 0.000000 0.000000
# 3 -0.003739 -0.003739 0.009021 0.000000 0.000000 0.000000
# 4 0.010184 -0.010184 0.000000 0.045847 0.000000 0.000000
# 5 0.000000 0.000000 0.000000 0.000000 0.045847 0.020368
# 6 0.000000 0.000000 0.000000 0.000000 0.020368 0.059132
#
#
# Mechanical properties :
#
#
# Convention : Reuss Voigt Hill
#
# Bulk Modulus (GPa) = 52.35827 59.52758 55.94293
# Shear Modulus (GPa) = 20.80723 25.78159 23.29441
#
# Velocity S-wave (km/s) = 3.25102 3.61882 3.43984
# Velocity P-wave (km/s) = 6.37869 6.90640 6.64779
#
# Compressibility (1/GPa) = 0.01909918
#
# Stress axis : x y z
#
# Youngs Moduli (GPa) = 47.52515 47.52515 110.85605
#
# Poissons Ratio (x) = 0.40513 0.41447
# Poissons Ratio (y) = 0.40513 0.41447
# Poissons Ratio (z) = 0.17769 0.17769
#
# Static dielectric constant tensor:
#      x y z
#    x 1.709750 0.000000 0.000000 
#    y 0.000000 1.709750 0.000000 
#    z 0.000000 0.000000 1.925350 
# 
# From -- ./inp_files/3511.got.cif
#   From: 2010.05.17/outbox.cif.g08.bks.cpg/sg167_2_cif.got.tgz:3511.got - 2010.05.20 11:09:15.
