data_PCOD9579798
_publ_section_title
;
Structure prediction by ZEFSAII (Michael W. Deem and Ramdas Pophale) SiO2 
 PCOD9579798
Probable space group: P 61
;
_chemical_formula_sum "Si O2"
_cell_formula_units_Z 42
_cell_length_a 18.273659
_cell_length_b 18.273659
_cell_length_c 6.060493
_cell_angle_alpha 90.000000
_cell_angle_beta 90.000000
_cell_angle_gamma 120.000000
_cell_volume 1752.627486
_symmetry_space_group_name_H-M "P 61"
_symmetry_group_IT_number 169
_symmetry_cell_setting 'hexagonal'
loop_
_space_group_symop_operation_xyz
x,y,z
x-y,x,1/6+z
-y,x-y,1/3+z
-x,-y,1/2+z
-x+y,-x,2/3+z
y,-x+y,5/6+z
loop_
_atom_site_type_symbol
_atom_site_label
_atom_site_fract_x
_atom_site_fract_y
_atom_site_fract_z
Si Si1 0.076041 0.888356 0.360070
Si Si2 0.823510 0.555046 0.183079
Si Si3 0.544668 0.111908 0.761412
Si Si4 0.686298 0.833443 0.667624
Si Si5 0.619851 0.677430 0.356575
Si Si6 0.247094 0.357980 0.944278
Si Si7 0.558900 0.470679 0.926548
O O1 0.090319 0.816336 0.473248
O O2 0.977270 0.854487 0.320717
O O3 0.124426 0.898223 0.129095
O O4 0.824416 0.471306 0.121719
O O5 0.918264 0.621879 0.271741
O O6 0.769739 0.565923 0.380590
O O7 0.811996 0.602625 0.981342
O O8 0.526052 0.124629 0.501223
O O9 0.527999 0.014590 0.761082
O O10 0.515636 0.118890 0.017980
O O11 0.674111 0.760190 0.500284
O O12 0.674757 0.899776 0.524175
O O13 0.658930 0.618020 0.388814
O O14 0.522065 0.624691 0.417689
#
# Coordination Sequence:
#
# PCOD9579798 Si02
#       7
#     6   6   6   6   6   6   6
#     4  11  23  39  48  64  85 118 172 232 284 334
#     4   9  18  30  46  67  97 125 159 195 246 298
#     4   9  16  30  47  73 100 129 157 179 235 290
#     4  10  18  32  51  66  87 124 159 206 264 319
#     4  10  18  31  47  70  95 124 164 201 256 306
#     4  10  20  32  49  68  90 125 163 212 258 319
#     4   9  17  28  50  72 100 129 152 191 227 294
#
# _framework density 23.964017999999999
#
# number of rings (size 3 to 8) (size 9 to 14) (size 15 to 20)
#    0.000    2.286    1.429    3.429    0.000    1.143 
#    5.143    0.000    0.000    0.000    0.000    0.000 
#    0.000    2.286    0.000    0.000    0.000    0.429 
#
# Total GULP energy -233969.461464 kJ/mol
# GULP energy per Si atom -5570.701463 kJ/mol
# Density = 2.390947 g / cm^3
# Si number density = 23.964018 Si / 1000 Ang^3
#
#
#
# Elastic Constant Matrix: (Units=GPa)
#
#
# Indices 1 2 3 4 5 6 
#
# 1 54.1506 0.9822 28.2992 0.0000 0.0000 0.0000
# 2 0.9822 54.1506 28.2992 0.0000 0.0000 0.0000
# 3 28.2992 28.2992 148.8123 0.0000 0.0000 0.0000
# 4 0.0000 0.0000 0.0000 32.1544 0.0000 0.0000
# 5 0.0000 0.0000 0.0000 0.0000 32.1544 0.0000
# 6 0.0000 0.0000 0.0000 0.0000 0.0000 26.5842
#
#
#
# Elastic Compliance Matrix: (Units=1/GPa)
#
#
# Indices 1 2 3 4 5 6 
#
# 1 0.020673 0.001865 -0.004286 0.000000 0.000000 0.000000
# 2 0.001865 0.020673 -0.004286 0.000000 0.000000 0.000000
# 3 -0.004286 -0.004286 0.008350 0.000000 0.000000 0.000000
# 4 0.000000 0.000000 0.000000 0.031100 0.000000 0.000000
# 5 0.000000 0.000000 0.000000 0.000000 0.031100 0.000000
# 6 0.000000 0.000000 0.000000 0.000000 0.000000 0.037616
#
#
# Mechanical properties :
#
#
# Convention : Reuss Voigt Hill
#
# Bulk Modulus (GPa) = 27.56190 41.36386 34.46288
# Shear Modulus (GPa) = 28.56809 31.48078 30.02444
#
# Velocity S-wave (km/s) = 3.45646 3.62839 3.54347
# Velocity P-wave (km/s) = 5.23983 5.90355 5.58156
#
# Compressibility (1/GPa) = 0.03628197
#
# Stress axis : x y z
#
# Youngs Moduli (GPa) = 48.37212 48.37212 119.76069
#
# Poissons Ratio (x) = -0.09021 0.51329
# Poissons Ratio (y) = -0.09021 0.51329
# Poissons Ratio (z) = 0.20732 0.20732
#
# Static dielectric constant tensor:
#      x y z
#    x 2.012250 0.000000 0.000000 
#    y 0.000000 2.012250 0.000000 
#    z 0.000000 0.000000 2.031580 
# 
# From -- ./inp_files/289.got.cif
#   From: 2010.05.17/outbox.cif.g08.bks.cpg/sg169_cif.got.tgz:289.got - 2010.05.20 11:12:54.
