data_PCOD9579309
_publ_section_title
;
Structure prediction by ZEFSAII (Michael W. Deem and Ramdas Pophale) SiO2 
 PCOD9579309
Probable space group: R -3 M
;
_chemical_formula_sum "Si O2"
_cell_formula_units_Z 108
_cell_length_a 20.849232
_cell_length_b 20.849232
_cell_length_c 11.411450
_cell_angle_alpha 90.000000
_cell_angle_beta 90.000000
_cell_angle_gamma 120.000000
_cell_volume 4295.874520
_symmetry_space_group_name_H-M "R -3 M"
_symmetry_group_IT_number 166
_symmetry_cell_setting 'hexagonal'
loop_
_space_group_symop_operation_xyz
x,y,z
-y,x-y,z
-x+y,-x,z
x-y,-y,-z
-x,-x+y,-z
y,x,-z
-x,-y,-z
y,-x+y,-z
x-y,x,-z
-x+y,y,z
x,x-y,z
-y,-x,z
2/3+x,1/3+y,1/3+z
2/3-y,1/3+x-y,1/3+z
2/3-x+y,1/3-x,1/3+z
2/3+x-y,1/3-y,1/3-z
2/3-x,1/3-x+y,1/3-z
2/3+y,1/3+x,1/3-z
2/3-x,1/3-y,1/3-z
2/3+y,1/3-x+y,1/3-z
2/3+x-y,1/3+x,1/3-z
2/3-x+y,1/3+y,1/3+z
2/3+x,1/3+x-y,1/3+z
2/3-y,1/3-x,1/3+z
1/3+x,2/3+y,2/3+z
1/3-y,2/3+x-y,2/3+z
1/3-x+y,2/3-x,2/3+z
1/3+x-y,2/3-y,2/3-z
1/3-x,2/3-x+y,2/3-z
1/3+y,2/3+x,2/3-z
1/3-x,2/3-y,2/3-z
1/3+y,2/3-x+y,2/3-z
1/3+x-y,2/3+x,2/3-z
1/3-x+y,2/3+y,2/3+z
1/3+x,2/3+x-y,2/3+z
1/3-y,2/3-x,2/3+z
loop_
_atom_site_type_symbol
_atom_site_label
_atom_site_fract_x
_atom_site_fract_y
_atom_site_fract_z
Si Si1 0.729033 0.864517 0.638796
Si Si2 0.663440 0.068478 0.087597
Si Si3 0.715043 0.430085 0.522222
Si Si4 0.170398 0.585199 0.112218
Si Si5 0.545911 0.091821 0.233041
O O1 0.757367 0.945531 0.691700
O O2 0.754483 0.877242 0.501235
O O3 0.640459 0.820230 0.659990
O O4 0.710657 0.043991 0.166667
O O5 0.604683 0.077463 0.164201
O O6 0.619094 0.000000 0.000000
O O7 0.626966 0.373035 0.523521
O O8 0.739455 0.478910 0.641030
O O9 0.743490 0.486980 0.414864
O O10 0.210614 0.666667 0.166667
#
# Coordination Sequence:
#
# PCOD9579309 Si02
#       5
#    18  36  18  18  18
#     4  12  29  45  72 112 143 206 240 310 378 446
#     4  12  27  51  75 107 151 197 254 302 372 452
#     4  10  23  43  67 106 144 189 246 310 379 428
#     4  12  22  38  64 100 148 184 243 295 378 442
#     4  12  27  44  74 107 150 189 254 305 370 451
#
# _framework density 25.1404
#
# number of rings (size 3 to 8) (size 9 to 14) (size 15 to 20)
#    0.333    0.000    5.000    3.167   11.667    0.000 
#    0.000    0.000    3.667    0.000    0.000    2.333 
#    0.000    0.000    0.000    0.000    0.000    0.000 
#
# Total GULP energy -201558.113958 kJ/mol
# GULP energy per Si atom -5598.836499 kJ/mol
# Density = 2.508318 g / cm^3
# Si number density = 25.140400 Si / 1000 Ang^3
#
#
#
# Elastic Constant Matrix: (Units=GPa)
#
#
# Indices 1 2 3 4 5 6 
#
# 1 107.1588 24.9096 8.3331 -4.6674 -0.0006 0.0000
# 2 24.9096 107.1588 8.3331 4.6674 0.0005 0.0000
# 3 8.3331 8.3331 29.5725 0.0000 0.0000 0.0000
# 4 -4.6674 4.6674 0.0000 44.5229 0.0000 0.0006
# 5 -0.0006 0.0005 0.0000 0.0000 44.5229 -4.6674
# 6 0.0000 0.0000 0.0000 0.0006 -4.6674 41.1246
#
#
#
# Elastic Compliance Matrix: (Units=1/GPa)
#
#
# Indices 1 2 3 4 5 6 
#
# 1 0.010078 -0.002227 -0.002212 0.001290 0.000000 0.000000
# 2 -0.002227 0.010078 -0.002212 -0.001290 0.000000 0.000000
# 3 -0.002212 -0.002212 0.035062 0.000000 0.000000 0.000000
# 4 0.001290 -0.001290 0.000000 0.022731 0.000000 0.000000
# 5 0.000000 0.000000 0.000000 0.000000 0.022731 0.002580
# 6 0.000000 0.000000 0.000000 0.000000 0.002580 0.024609
#
#
# Mechanical properties :
#
#
# Convention : Reuss Voigt Hill
#
# Bulk Modulus (GPa) = 23.85788 36.33796 30.09792
# Shear Modulus (GPa) = 32.77341 39.52170 36.14756
#
# Velocity S-wave (km/s) = 3.61448 3.96920 3.79598
# Velocity P-wave (km/s) = 5.18939 5.95747 5.58664
#
# Compressibility (1/GPa) = 0.04191487
#
# Stress axis : x y z
#
# Youngs Moduli (GPa) = 99.22810 99.22810 28.52088
#
# Poissons Ratio (x) = 0.22096 0.06310
# Poissons Ratio (y) = 0.22096 0.06310
# Poissons Ratio (z) = 0.21952 0.21952
#
# Static dielectric constant tensor:
#      x y z
#    x 1.946340 0.000000 0.000000 
#    y 0.000000 1.946340 0.000000 
#    z 0.000000 0.000000 2.013020 
# 
# From -- ./inp_files/3741.got.cif
#   From: 2010.05.17/outbox.cif.g08.bks.cpg/sg166_2_cif.got.tgz:3741.got - 2010.05.20 11:04:41.
