data_PCOD9579907
_publ_section_title
;
Structure prediction by ZEFSAII (Michael W. Deem and Ramdas Pophale) SiO2 
 PCOD9579907
Probable space group: P 61
;
_chemical_formula_sum "Si O2"
_cell_formula_units_Z 48
_cell_length_a 15.332145
_cell_length_b 15.332145
_cell_length_c 12.230335
_cell_angle_alpha 90.000000
_cell_angle_beta 90.000000
_cell_angle_gamma 120.000000
_cell_volume 2489.859381
_symmetry_space_group_name_H-M "P 61"
_symmetry_group_IT_number 169
_symmetry_cell_setting 'hexagonal'
loop_
_space_group_symop_operation_xyz
x,y,z
x-y,x,1/6+z
-y,x-y,1/3+z
-x,-y,1/2+z
-x+y,-x,2/3+z
y,-x+y,5/6+z
loop_
_atom_site_type_symbol
_atom_site_label
_atom_site_fract_x
_atom_site_fract_y
_atom_site_fract_z
Si Si1 0.767485 0.438591 0.089510
Si Si2 0.892488 0.058551 0.341864
Si Si3 0.447583 0.378220 0.258083
Si Si4 0.192792 0.535565 0.203531
Si Si5 0.258567 0.763525 0.503250
Si Si6 0.460102 0.396281 0.828248
Si Si7 0.118785 0.745346 0.826156
Si Si8 0.931635 0.242094 0.074139
O O1 0.655199 0.395611 0.043145
O O2 0.783969 0.344412 0.063018
O O3 0.763713 0.464692 0.215742
O O4 0.854595 0.534201 0.024611
O O5 0.861778 0.144155 0.358927
O O6 0.999949 0.113192 0.284408
O O7 0.807296 0.975323 0.261549
O O8 0.491690 0.352869 0.151746
O O9 0.514717 0.495924 0.285983
O O10 0.338382 0.363361 0.228794
O O11 0.109619 0.509745 0.111025
O O12 0.253576 0.477293 0.174362
O O13 0.347794 0.845822 0.576351
O O14 0.169984 0.791157 0.507575
O O15 0.341784 0.325209 0.848589
O O16 0.088428 0.732711 0.698026
#
# Coordination Sequence:
#
# PCOD9579907 Si02
#       8
#     6   6   6   6   6   6   6   6
#     4  12  26  44  59  96 142 178 224 269 335 421
#     4  10  20  40  68  94 122 158 219 278 330 394
#     4  12  27  40  64 100 138 174 226 279 338 406
#     4  12  23  44  66  97 130 181 227 268 338 409
#     4  12  25  42  65  93 134 182 226 271 339 406
#     4  12  23  38  67  93 129 174 220 279 327 388
#     4  11  22  42  70  96 130 169 231 280 332 399
#     4  11  20  42  65  99 123 164 229 282 325 395
#
# _framework density 19.278199000000001
#
# number of rings (size 3 to 8) (size 9 to 14) (size 15 to 20)
#    0.000    0.500    6.250    3.000    5.250    0.000 
#    0.000    1.250    0.000    0.000    0.000    0.000 
#    0.000    0.000    0.000    0.000    0.000    0.000 
#
# Total GULP energy -268215.003783 kJ/mol
# GULP energy per Si atom -5587.812579 kJ/mol
# Density = 1.923432 g / cm^3
# Si number density = 19.278199 Si / 1000 Ang^3
#
#
#
# Elastic Constant Matrix: (Units=GPa)
#
#
# Indices 1 2 3 4 5 6 
#
# 1 67.4121 10.6634 23.9007 0.0000 0.0000 0.0000
# 2 10.6634 67.4121 23.9007 0.0000 0.0000 0.0000
# 3 23.9007 23.9007 89.8058 0.0000 0.0000 0.0000
# 4 0.0000 0.0000 0.0000 61.8428 0.0000 0.0000
# 5 0.0000 0.0000 0.0000 0.0000 61.8428 0.0000
# 6 0.0000 0.0000 0.0000 0.0000 0.0000 28.3743
#
#
#
# Elastic Compliance Matrix: (Units=1/GPa)
#
#
# Indices 1 2 3 4 5 6 
#
# 1 0.016461 -0.001160 -0.004072 0.000000 0.000000 0.000000
# 2 -0.001160 0.016461 -0.004072 0.000000 0.000000 0.000000
# 3 -0.004072 -0.004072 0.013303 0.000000 0.000000 0.000000
# 4 0.000000 0.000000 0.000000 0.016170 0.000000 0.000000
# 5 0.000000 0.000000 0.000000 0.000000 0.016170 0.000000
# 6 0.000000 0.000000 0.000000 0.000000 0.000000 0.035243
#
#
# Mechanical properties :
#
#
# Convention : Reuss Voigt Hill
#
# Bulk Modulus (GPa) = 36.21047 37.95109 37.08078
# Shear Modulus (GPa) = 35.30488 41.48965 38.39727
#
# Velocity S-wave (km/s) = 4.28406 4.64416 4.46774
# Velocity P-wave (km/s) = 6.57987 6.96322 6.77426
#
# Compressibility (1/GPa) = 0.02761632
#
# Stress axis : x y z
#
# Youngs Moduli (GPa) = 60.74802 60.74802 75.17274
#
# Poissons Ratio (x) = 0.07047 0.30612
# Poissons Ratio (y) = 0.07047 0.30612
# Poissons Ratio (z) = 0.24738 0.24738
#
# Static dielectric constant tensor:
#      x y z
#    x 1.690240 0.000000 0.000000 
#    y 0.000000 1.690240 0.000000 
#    z 0.000000 0.000000 1.653600 
# 
# From -- ./inp_files/1023.got.cif
#   From: 2010.05.17/outbox.cif.g08.bks.cpg/sg169_cif.got.tgz:1023.got - 2010.05.20 11:12:54.
