data_PCOD9579285
_publ_section_title
;
Structure prediction by ZEFSAII (Michael W. Deem and Ramdas Pophale) SiO2 
 PCOD9579285
Probable space group: R -3 M
;
_chemical_formula_sum "Si O2"
_cell_formula_units_Z 204
_cell_length_a 20.508100
_cell_length_b 20.508100
_cell_length_c 29.075845
_cell_angle_alpha 90.000000
_cell_angle_beta 90.000000
_cell_angle_gamma 120.000000
_cell_volume 10590.435746
_symmetry_space_group_name_H-M "R -3 M"
_symmetry_group_IT_number 166
_symmetry_cell_setting 'hexagonal'
loop_
_space_group_symop_operation_xyz
x,y,z
-y,x-y,z
-x+y,-x,z
x-y,-y,-z
-x,-x+y,-z
y,x,-z
-x,-y,-z
y,-x+y,-z
x-y,x,-z
-x+y,y,z
x,x-y,z
-y,-x,z
2/3+x,1/3+y,1/3+z
2/3-y,1/3+x-y,1/3+z
2/3-x+y,1/3-x,1/3+z
2/3+x-y,1/3-y,1/3-z
2/3-x,1/3-x+y,1/3-z
2/3+y,1/3+x,1/3-z
2/3-x,1/3-y,1/3-z
2/3+y,1/3-x+y,1/3-z
2/3+x-y,1/3+x,1/3-z
2/3-x+y,1/3+y,1/3+z
2/3+x,1/3+x-y,1/3+z
2/3-y,1/3-x,1/3+z
1/3+x,2/3+y,2/3+z
1/3-y,2/3+x-y,2/3+z
1/3-x+y,2/3-x,2/3+z
1/3+x-y,2/3-y,2/3-z
1/3-x,2/3-x+y,2/3-z
1/3+y,2/3+x,2/3-z
1/3-x,2/3-y,2/3-z
1/3+y,2/3-x+y,2/3-z
1/3+x-y,2/3+x,2/3-z
1/3-x+y,2/3+y,2/3+z
1/3+x,2/3+x-y,2/3+z
1/3-y,2/3-x,2/3+z
loop_
_atom_site_type_symbol
_atom_site_label
_atom_site_fract_x
_atom_site_fract_y
_atom_site_fract_z
Si Si1 0.504270 0.752135 0.239115
Si Si2 0.373275 0.904892 0.377015
Si Si3 0.720743 0.128717 0.425831
Si Si4 0.000000 0.000000 0.443610
Si Si5 0.201550 0.247529 0.538519
Si Si6 0.616754 0.086863 0.513821
Si Si7 0.056250 0.666667 0.666667
Si Si8 0.787874 0.575747 0.662438
O O1 0.415773 0.707887 0.242327
O O2 0.519230 0.831415 0.217957
O O3 0.548601 0.774301 0.285679
O O4 0.448880 0.897760 0.370506
O O5 0.363932 0.911711 0.432149
O O6 0.293897 0.835478 0.360808
O O7 0.381593 0.975888 0.347586
O O8 0.787231 0.212770 0.421623
O O9 0.758596 0.075315 0.427158
O O10 0.680101 0.121561 0.474461
O O11 0.674670 0.104066 0.378976
O O12 0.000000 0.000000 0.500000
O O13 0.264557 0.264557 0.500000
O O14 0.121868 0.243735 0.526676
O O15 0.559905 0.119810 0.510488
O O16 0.569495 0.000000 0.500000
O O17 0.833334 0.666667 0.666667
#
# Coordination Sequence:
#
# PCOD9579285 Si02
#       8
#    18  36  36   6  36  36  18  18
#     4  12  24  38  62  86 132 180 234 271 325 394
#     4  11  25  45  67  94 136 175 226 280 337 406
#     4  11  25  39  64  99 129 158 211 274 340 400
#     4  12  24  42  66  96 132 192 249 276 318 412
#     4  11  22  37  57  88 126 172 218 271 322 377
#     4  10  21  42  71  95 120 170 217 267 326 400
#     4  12  22  41  66  94 135 172 214 270 342 402
#     4  12  28  44  66 100 134 186 230 286 348 397
#
# _framework density 19.262663
#
# number of rings (size 3 to 8) (size 9 to 14) (size 15 to 20)
#    0.000    0.882    4.412    2.647    2.471    2.118 
#    0.529    0.000    0.000    0.353    0.000    0.618 
#    0.000    0.000    0.000    0.000    0.000    0.000 
#
# Total GULP energy -378748.462019 kJ/mol
# GULP energy per Si atom -5569.830324 kJ/mol
# Density = 1.921882 g / cm^3
# Si number density = 19.262663 Si / 1000 Ang^3
#
#
#
# Elastic Constant Matrix: (Units=GPa)
#
#
# Indices 1 2 3 4 5 6 
#
# 1 122.9531 -7.2476 31.9140 -20.2199 -0.0001 0.0000
# 2 -7.2476 122.9531 31.9140 20.2199 0.0001 0.0000
# 3 31.9140 31.9140 80.1706 0.0000 0.0000 0.0000
# 4 -20.2199 20.2199 0.0000 36.2605 0.0000 0.0001
# 5 -0.0001 0.0001 0.0000 0.0000 36.2605 -20.2199
# 6 0.0000 0.0000 0.0000 0.0001 -20.2199 65.1003
#
#
#
# Elastic Compliance Matrix: (Units=1/GPa)
#
#
# Indices 1 2 3 4 5 6 
#
# 1 0.010182 0.000893 -0.004409 0.005180 0.000000 0.000000
# 2 0.000893 0.010182 -0.004409 -0.005180 0.000000 0.000000
# 3 -0.004409 -0.004409 0.015983 0.000000 0.000000 0.000000
# 4 0.005180 -0.005180 0.000000 0.033355 0.000000 0.000000
# 5 0.000000 0.000000 0.000000 0.000000 0.033355 0.010360
# 6 0.000000 0.000000 0.000000 0.000000 0.010360 0.018579
#
#
# Mechanical properties :
#
#
# Convention : Reuss Voigt Hill
#
# Bulk Modulus (GPa) = 48.78456 48.80419 48.79437
# Shear Modulus (GPa) = 34.64572 45.49066 40.06819
#
# Velocity S-wave (km/s) = 4.24558 4.86490 4.56576
# Velocity P-wave (km/s) = 7.02953 7.54636 7.29252
#
# Compressibility (1/GPa) = 0.02049829
#
# Stress axis : x y z
#
# Youngs Moduli (GPa) = 98.21304 98.21304 62.56552
#
# Poissons Ratio (x) = -0.08767 0.27582
# Poissons Ratio (y) = -0.08767 0.27582
# Poissons Ratio (z) = 0.43297 0.43297
#
# Static dielectric constant tensor:
#      x y z
#    x 1.633770 0.000000 0.000000 
#    y 0.000000 1.633770 0.000000 
#    z 0.000000 0.000000 1.803680 
# 
# From -- ./inp_files/9592.got.cif
#   From: 2010.05.17/outbox.cif.g08.bks.cpg/sg166_5_cif.got.tgz:9592.got - 2010.05.20 11:04:41.
