data_PCOD9579542
_publ_section_title
;
Structure prediction by ZEFSAII (Michael W. Deem and Ramdas Pophale) SiO2 
 PCOD9579542
Probable space group: R -3 C 
;
_chemical_formula_sum "Si O2"
_cell_formula_units_Z 84
_cell_length_a 13.201041
_cell_length_b 13.201041
_cell_length_c 20.004096
_cell_angle_alpha 90.000000
_cell_angle_beta 90.000000
_cell_angle_gamma 120.000000
_cell_volume 3019.019524
_symmetry_space_group_name_H-M "R -3 C "
_symmetry_group_IT_number 167
_symmetry_cell_setting 'hexagonal'
loop_
_space_group_symop_operation_xyz
x,y,z
-y,x-y,z
-x+y,-x,z
x-y,-y,1/2-z
-x,-x+y,1/2-z
y,x,1/2-z
-x,-y,-z
y,-x+y,-z
x-y,x,-z
-x+y,y,1/2+z
x,x-y,1/2+z
-y,-x,1/2+z
2/3+x,1/3+y,1/3+z
2/3-y,1/3+x-y,1/3+z
2/3-x+y,1/3-x,1/3+z
2/3+x-y,1/3-y,5/6-z
2/3-x,1/3-x+y,5/6-z
2/3+y,1/3+x,5/6-z
2/3-x,1/3-y,1/3-z
2/3+y,1/3-x+y,1/3-z
2/3+x-y,1/3+x,1/3-z
2/3-x+y,1/3+y,5/6+z
2/3+x,1/3+x-y,5/6+z
2/3-y,1/3-x,5/6+z
1/3+x,2/3+y,2/3+z
1/3-y,2/3+x-y,2/3+z
1/3-x+y,2/3-x,2/3+z
1/3+x-y,2/3-y,1/6-z
1/3-x,2/3-x+y,1/6-z
1/3+y,2/3+x,1/6-z
1/3-x,2/3-y,2/3-z
1/3+y,2/3-x+y,2/3-z
1/3+x-y,2/3+x,2/3-z
1/3-x+y,2/3+y,1/6+z
1/3+x,2/3+x-y,1/6+z
1/3-y,2/3-x,1/6+z
loop_
_atom_site_type_symbol
_atom_site_label
_atom_site_fract_x
_atom_site_fract_y
_atom_site_fract_z
Si Si1 0.000000 0.000000 0.668535
Si Si2 0.866014 0.290197 0.853662
Si Si3 0.786848 0.031454 0.671408
O O1 0.007824 0.886389 0.646213
O O2 0.000000 0.000000 0.750000
O O3 0.889076 0.222409 0.916667
O O4 0.750794 0.209907 0.809817
O O5 0.987650 0.340304 0.815312
O O6 0.833334 0.166667 0.666667
O O7 0.776031 0.000000 0.750000
#
# Coordination Sequence:
#
# PCOD9579542 Si02
#       3
#    12  36  36
#     4   9  18  36  66  99 135 186 253 314 367 447
#     4  11  26  49  79 115 159 208 261 327 406 486
#     4  10  21  39  66 104 145 190 248 317 382 449
#
# _framework density 27.823605000000001
#
# number of rings (size 3 to 8) (size 9 to 14) (size 15 to 20)
#    0.000    1.714    0.000    3.000    0.000   10.286 
#    0.000    8.571    0.000    2.571    0.000    0.000 
#    0.000    0.000    0.000    0.000    0.000    0.000 
#
# Total GULP energy -156033.580959 kJ/mol
# GULP energy per Si atom -5572.627891 kJ/mol
# Density = 2.776028 g / cm^3
# Si number density = 27.823605 Si / 1000 Ang^3
#
#
#
# Elastic Constant Matrix: (Units=GPa)
#
#
# Indices 1 2 3 4 5 6 
#
# 1 223.8741 69.1861 32.1571 18.7273 0.0000 0.0000
# 2 69.1861 223.8741 32.1571 -18.7273 0.0000 0.0000
# 3 32.1571 32.1571 173.3103 0.0000 0.0000 0.0000
# 4 18.7273 -18.7273 0.0000 9.0259 0.0000 0.0000
# 5 0.0000 0.0000 0.0000 0.0000 9.0259 18.7273
# 6 0.0000 0.0000 0.0000 0.0000 18.7273 77.3440
#
#
#
# Elastic Compliance Matrix: (Units=1/GPa)
#
#
# Indices 1 2 3 4 5 6 
#
# 1 0.008274 -0.004717 -0.000660 -0.026955 0.000000 0.000000
# 2 -0.004717 0.008274 -0.000660 0.026955 0.000000 0.000000
# 3 -0.000660 -0.000660 0.006015 0.000000 0.000000 0.000000
# 4 -0.026955 0.026955 0.000000 0.222646 0.000000 0.000000
# 5 0.000000 0.000000 0.000000 0.000000 0.222646 -0.053909
# 6 0.000000 0.000000 0.000000 0.000000 -0.053909 0.025982
#
#
# Mechanical properties :
#
#
# Convention : Reuss Voigt Hill
#
# Bulk Modulus (GPa) = 95.33698 98.67323 97.00511
# Shear Modulus (GPa) = 9.81532 51.58304 30.69918
#
# Velocity S-wave (km/s) = 1.88025 4.31040 3.32528
# Velocity P-wave (km/s) = 6.24924 7.76618 7.04864
#
# Compressibility (1/GPa) = 0.01048911
#
# Stress axis : x y z
#
# Youngs Moduli (GPa) = 120.85862 120.85862 166.25315
#
# Poissons Ratio (x) = 0.57009 0.10973
# Poissons Ratio (y) = 0.57009 0.10973
# Poissons Ratio (z) = 0.07977 0.07977
#
# Static dielectric constant tensor:
#      x y z
#    x 2.321360 0.000000 0.000000 
#    y 0.000000 2.321360 0.000000 
#    z 0.000000 0.000000 2.456520 
# 
# From -- ./inp_files/4912.got.cif
#   From: 2010.05.17/outbox.cif.g08.bks.cpg/sg167_3_cif.got.tgz:4912.got - 2010.05.20 11:09:15.
