data_PCOD9579642
_publ_section_title
;
Structure prediction by ZEFSAII (Michael W. Deem and Ramdas Pophale) SiO2 
 PCOD9579642
Probable space group: R -3 C 
;
_chemical_formula_sum "Si O2"
_cell_formula_units_Z 162
_cell_length_a 20.155986
_cell_length_b 20.155986
_cell_length_c 21.137265
_cell_angle_alpha 90.000000
_cell_angle_beta 90.000000
_cell_angle_gamma 120.000000
_cell_volume 7436.824281
_symmetry_space_group_name_H-M "R -3 C "
_symmetry_group_IT_number 167
_symmetry_cell_setting 'hexagonal'
loop_
_space_group_symop_operation_xyz
x,y,z
-y,x-y,z
-x+y,-x,z
x-y,-y,1/2-z
-x,-x+y,1/2-z
y,x,1/2-z
-x,-y,-z
y,-x+y,-z
x-y,x,-z
-x+y,y,1/2+z
x,x-y,1/2+z
-y,-x,1/2+z
2/3+x,1/3+y,1/3+z
2/3-y,1/3+x-y,1/3+z
2/3-x+y,1/3-x,1/3+z
2/3+x-y,1/3-y,5/6-z
2/3-x,1/3-x+y,5/6-z
2/3+y,1/3+x,5/6-z
2/3-x,1/3-y,1/3-z
2/3+y,1/3-x+y,1/3-z
2/3+x-y,1/3+x,1/3-z
2/3-x+y,1/3+y,5/6+z
2/3+x,1/3+x-y,5/6+z
2/3-y,1/3-x,5/6+z
1/3+x,2/3+y,2/3+z
1/3-y,2/3+x-y,2/3+z
1/3-x+y,2/3-x,2/3+z
1/3+x-y,2/3-y,1/6-z
1/3-x,2/3-x+y,1/6-z
1/3+y,2/3+x,1/6-z
1/3-x,2/3-y,2/3-z
1/3+y,2/3-x+y,2/3-z
1/3+x-y,2/3+x,2/3-z
1/3-x+y,2/3+y,1/6+z
1/3+x,2/3+x-y,1/6+z
1/3-y,2/3-x,1/6+z
loop_
_atom_site_type_symbol
_atom_site_label
_atom_site_fract_x
_atom_site_fract_y
_atom_site_fract_z
Si Si1 0.427671 0.436209 0.677645
Si Si2 0.159370 0.587584 0.645310
Si Si3 0.709428 0.666667 0.416667
Si Si4 0.469312 0.222969 0.062013
Si Si5 0.828768 0.021670 0.653115
O O1 0.412592 0.412592 0.750000
O O2 0.450337 0.525236 0.675234
O O3 0.353934 0.383104 0.635761
O O4 0.493269 0.426941 0.644941
O O5 0.207059 0.672105 0.675211
O O6 0.148063 0.599255 0.571968
O O7 0.770101 0.740921 0.372953
O O8 0.520176 0.186842 0.083334
O O9 0.438186 0.252611 0.120935
O O10 0.515957 0.294151 0.015536
#
# Coordination Sequence:
#
# PCOD9579642 Si02
#       5
#    36  36  18  36  36
#     4  11  25  41  74 104 144 185 243 300 368 437
#     4  11  26  44  68 105 143 193 233 292 357 434
#     4  10  24  46  66 110 136 188 240 306 382 418
#     4  11  25  48  71 106 141 193 243 300 370 439
#     4  10  26  45  73 100 146 189 245 299 361 447
#
# _framework density 21.783491000000001
#
# number of rings (size 3 to 8) (size 9 to 14) (size 15 to 20)
#    0.000    1.333    1.111    1.556   17.111    3.556 
#    5.333    0.000    0.000    0.000    0.000    0.000 
#    0.000    0.000    0.000    0.000    0.000    0.000 
#
# Total GULP energy -301257.599705 kJ/mol
# GULP energy per Si atom -5578.844439 kJ/mol
# Density = 2.173391 g / cm^3
# Si number density = 21.783491 Si / 1000 Ang^3
#
#
#
# Elastic Constant Matrix: (Units=GPa)
#
#
# Indices 1 2 3 4 5 6 
#
# 1 -73.8325 134.5419 19.0953 32.4265 0.0023 0.0000
# 2 134.5419 -73.8325 19.0953 -32.4265 -0.0023 0.0000
# 3 19.0953 19.0953 127.2483 0.0000 0.0000 0.0000
# 4 32.4265 -32.4265 0.0000 17.8359 0.0000 -0.0023
# 5 0.0023 -0.0023 0.0000 0.0000 17.8359 32.4265
# 6 0.0000 0.0000 0.0000 -0.0023 32.4265 -104.1872
#
#
#
# Elastic Compliance Matrix: (Units=1/GPa)
#
#
# Indices 1 2 3 4 5 6 
#
# 1 0.007562 0.010627 -0.002729 0.005572 0.000000 0.000000
# 2 0.010627 0.007562 -0.002729 -0.005572 0.000000 0.000000
# 3 -0.002729 -0.002729 0.008678 0.000000 0.000000 0.000000
# 4 0.005572 -0.005572 0.000000 0.035806 0.000000 -0.000001
# 5 0.000000 0.000000 0.000000 0.000000 0.035806 0.011144
# 6 0.000000 0.000000 0.000000 -0.000001 0.011144 -0.006130
#
#
# Mechanical properties :
#
#
# Convention : Reuss Voigt Hill
#
# Bulk Modulus (GPa) = 29.29307 36.11649 32.70478
# Shear Modulus (GPa) = 55.35379 -26.57967 14.38706
#
# Velocity S-wave (km/s) = 5.04639 -3.49689 2.57272
# Velocity P-wave (km/s) = 6.88704 0.55806 4.88583
#
# Compressibility (1/GPa) = 0.03413777
#
# Stress axis : x y z
#
# Youngs Moduli (GPa) = 132.23926 132.23926 115.23595
#
# Poissons Ratio (x) = -1.40529 0.31454
# Poissons Ratio (y) = -1.40529 0.31454
# Poissons Ratio (z) = 0.36095 0.36095
#
# Static dielectric constant tensor:
#      x y z
#    x 1.806900 0.000000 0.000000 
#    y 0.000000 1.806900 0.000000 
#    z 0.000000 0.000000 1.976560 
# 
# From -- ./inp_files/4423.got.cif
#   From: 2010.05.17/outbox.cif.g08.bks.cpg/sg167_3_cif.got.tgz:4423.got - 2010.05.20 11:09:15.
