data_PCOD9579210
_publ_section_title
;
Structure prediction by ZEFSAII (Michael W. Deem and Ramdas Pophale) SiO2 
 PCOD9579210
Probable space group: R -3 M
;
_chemical_formula_sum "Si O2"
_cell_formula_units_Z 144
_cell_length_a 32.291480
_cell_length_b 32.291480
_cell_length_c 10.192145
_cell_angle_alpha 90.000000
_cell_angle_beta 90.000000
_cell_angle_gamma 120.000000
_cell_volume 9203.904968
_symmetry_space_group_name_H-M "R -3 M"
_symmetry_group_IT_number 166
_symmetry_cell_setting 'hexagonal'
loop_
_space_group_symop_operation_xyz
x,y,z
-y,x-y,z
-x+y,-x,z
x-y,-y,-z
-x,-x+y,-z
y,x,-z
-x,-y,-z
y,-x+y,-z
x-y,x,-z
-x+y,y,z
x,x-y,z
-y,-x,z
2/3+x,1/3+y,1/3+z
2/3-y,1/3+x-y,1/3+z
2/3-x+y,1/3-x,1/3+z
2/3+x-y,1/3-y,1/3-z
2/3-x,1/3-x+y,1/3-z
2/3+y,1/3+x,1/3-z
2/3-x,1/3-y,1/3-z
2/3+y,1/3-x+y,1/3-z
2/3+x-y,1/3+x,1/3-z
2/3-x+y,1/3+y,1/3+z
2/3+x,1/3+x-y,1/3+z
2/3-y,1/3-x,1/3+z
1/3+x,2/3+y,2/3+z
1/3-y,2/3+x-y,2/3+z
1/3-x+y,2/3-x,2/3+z
1/3+x-y,2/3-y,2/3-z
1/3-x,2/3-x+y,2/3-z
1/3+y,2/3+x,2/3-z
1/3-x,2/3-y,2/3-z
1/3+y,2/3-x+y,2/3-z
1/3+x-y,2/3+x,2/3-z
1/3-x+y,2/3+y,2/3+z
1/3+x,2/3+x-y,2/3+z
1/3-y,2/3-x,2/3+z
loop_
_atom_site_type_symbol
_atom_site_label
_atom_site_fract_x
_atom_site_fract_y
_atom_site_fract_z
Si Si1 0.776001 0.722353 0.706160
Si Si2 0.943697 0.212005 0.270334
Si Si3 0.129074 0.517385 0.170251
Si Si4 0.291652 0.195445 0.990318
O O1 0.749406 0.666667 0.666667
O O2 0.740213 0.743551 0.706220
O O3 0.817617 0.755475 0.603839
O O4 0.796612 0.726443 0.851861
O O5 0.938254 0.168284 0.356615
O O6 0.904160 0.224577 0.320617
O O7 0.934955 0.199346 0.117219
O O8 0.143845 0.571923 0.149938
O O9 0.170818 0.504152 0.166667
O O10 0.290506 0.145253 0.991723
#
# Coordination Sequence:
#
# PCOD9579210 Si02
#       4
#    36  36  36  36
#     4  11  22  33  50  74 101 134 168 211 253 297
#     4  10  21  33  47  71  97 130 171 211 252 292
#     4  10  20  36  54  75  99 128 166 206 253 304
#     4  11  21  34  51  68  94 137 175 212 254 298
#
# _framework density 15.645531999999999
#
# number of rings (size 3 to 8) (size 9 to 14) (size 15 to 20)
#    0.000    1.500    2.500    4.500    0.000    5.000 
#    0.000    0.000    0.000    0.250    0.000    0.000 
#    0.000    0.000    0.000    0.000    0.000   52.000 
#
# Total GULP energy -267996.329009 kJ/mol
# GULP energy per Si atom -5583.256854 kJ/mol
# Density = 1.560992 g / cm^3
# Si number density = 15.645532 Si / 1000 Ang^3
#
#
#
# Elastic Constant Matrix: (Units=GPa)
#
#
# Indices 1 2 3 4 5 6 
#
# 1 64.7621 50.6704 18.6807 -1.3545 0.0054 0.0011
# 2 50.6704 64.7972 18.7084 1.3580 0.0068 0.0078
# 3 18.6807 18.7084 86.6017 -0.0010 -0.0275 -0.0276
# 4 -1.3545 1.3580 -0.0010 14.1958 0.0002 -0.0060
# 5 0.0054 0.0068 -0.0275 0.0002 14.1875 -1.3830
# 6 0.0011 0.0078 -0.0276 -0.0060 -1.3830 7.0422
#
#
#
# Elastic Compliance Matrix: (Units=1/GPa)
#
#
# Indices 1 2 3 4 5 6 
#
# 1 0.040765 -0.031444 -0.002000 0.006898 -0.000002 0.000026
# 2 -0.031444 0.040750 -0.002020 -0.006899 -0.000017 -0.000057
# 3 -0.002000 -0.002020 0.012415 0.000003 0.000031 0.000057
# 4 0.006898 -0.006899 0.000003 0.071761 0.000007 0.000069
# 5 -0.000002 -0.000017 0.000031 0.000007 0.071860 0.014113
# 6 0.000026 -0.000057 0.000057 0.000069 0.014113 0.144773
#
#
# Mechanical properties :
#
#
# Convention : Reuss Voigt Hill
#
# Bulk Modulus (GPa) = 43.47952 43.58667 43.53309
# Shear Modulus (GPa) = 10.84785 15.62520 13.23653
#
# Velocity S-wave (km/s) = 2.63601 3.16365 2.91181
# Velocity P-wave (km/s) = 6.09225 6.42373 6.26018
#
# Compressibility (1/GPa) = 0.02299933
#
# Stress axis : x y z
#
# Youngs Moduli (GPa) = 24.53101 24.54009 80.54713
#
# Poissons Ratio (x) = 0.77165 0.16112
# Poissons Ratio (y) = 0.77136 0.16273
# Poissons Ratio (z) = 0.04907 0.04958
#
# Static dielectric constant tensor:
#      x y z
#    x 1.507440 0.000000 -0.000020 
#    y 0.000000 1.507450 -0.000010 
#    z -0.000020 -0.000010 1.543430 
# 
# From -- ./inp_files/1819.got.cif
#   From: 2010.05.17/outbox.cif.g08.bks.cpg/sg166_1_cif.got.tgz:1819.got - 2010.05.20 11:04:41.
