data_PCOD9579105
_publ_section_title
;
Structure prediction by ZEFSAII (Michael W. Deem and Ramdas Pophale) SiO2 
 PCOD9579105
Probable space group: R -3 M
;
_chemical_formula_sum "Si O2"
_cell_formula_units_Z 234
_cell_length_a 26.610545
_cell_length_b 26.610545
_cell_length_c 22.767526
_cell_angle_alpha 90.000000
_cell_angle_beta 90.000000
_cell_angle_gamma 120.000000
_cell_volume 13962.205037
_symmetry_space_group_name_H-M "R -3 M"
_symmetry_group_IT_number 166
_symmetry_cell_setting 'hexagonal'
loop_
_space_group_symop_operation_xyz
x,y,z
-y,x-y,z
-x+y,-x,z
x-y,-y,-z
-x,-x+y,-z
y,x,-z
-x,-y,-z
y,-x+y,-z
x-y,x,-z
-x+y,y,z
x,x-y,z
-y,-x,z
2/3+x,1/3+y,1/3+z
2/3-y,1/3+x-y,1/3+z
2/3-x+y,1/3-x,1/3+z
2/3+x-y,1/3-y,1/3-z
2/3-x,1/3-x+y,1/3-z
2/3+y,1/3+x,1/3-z
2/3-x,1/3-y,1/3-z
2/3+y,1/3-x+y,1/3-z
2/3+x-y,1/3+x,1/3-z
2/3-x+y,1/3+y,1/3+z
2/3+x,1/3+x-y,1/3+z
2/3-y,1/3-x,1/3+z
1/3+x,2/3+y,2/3+z
1/3-y,2/3+x-y,2/3+z
1/3-x+y,2/3-x,2/3+z
1/3+x-y,2/3-y,2/3-z
1/3-x,2/3-x+y,2/3-z
1/3+y,2/3+x,2/3-z
1/3-x,2/3-y,2/3-z
1/3+y,2/3-x+y,2/3-z
1/3+x-y,2/3+x,2/3-z
1/3-x+y,2/3+y,2/3+z
1/3+x,2/3+x-y,2/3+z
1/3-y,2/3-x,2/3+z
loop_
_atom_site_type_symbol
_atom_site_label
_atom_site_fract_x
_atom_site_fract_y
_atom_site_fract_z
Si Si1 0.749958 0.095790 0.445404
Si Si2 0.666667 0.219220 0.833334
Si Si3 0.081280 0.598050 0.661725
Si Si4 0.933269 0.178887 0.639899
Si Si5 0.662956 0.718836 0.768649
Si Si6 0.450644 0.280476 0.928965
Si Si7 0.736758 0.100310 0.577246
O O1 0.753109 0.135511 0.391279
O O2 0.683838 0.043731 0.443196
O O3 0.794117 0.072184 0.434189
O O4 0.755856 0.120799 0.510815
O O5 0.613930 0.227859 0.855431
O O6 0.693942 0.195789 0.881245
O O7 0.099761 0.549881 0.647154
O O8 0.130788 0.666667 0.666667
O O9 0.034334 0.595622 0.613978
O O10 0.885387 0.114614 0.619122
O O11 0.929664 0.226220 0.598142
O O12 0.917213 0.187367 0.705323
O O13 0.999639 0.196110 0.639139
O O14 0.666667 0.745368 0.833334
O O15 0.723889 0.723342 0.752777
O O16 0.446016 0.223008 0.956162
#
# Coordination Sequence:
#
# PCOD9579105 Si02
#       7
#    36  18  36  36  36  36  36
#     4  10  19  32  51  76 102 131 164 204 252 306
#     4  10  21  34  48  66  92 128 173 224 272 310
#     4  10  21  35  54  78 106 139 171 208 250 300
#     4  11  22  33  47  69 100 135 172 218 260 301
#     4   9  18  32  52  76 106 139 165 199 244 304
#     4  11  21  32  49  70  94 130 174 220 262 309
#     4  10  19  32  50  73 102 135 166 201 253 311
#
# _framework density 16.759530999999999
#
# number of rings (size 3 to 8) (size 9 to 14) (size 15 to 20)
#    0.000    1.846    1.538    3.769    5.385    4.000 
#    0.000    0.000    0.000    4.154    0.000    0.000 
#    0.000    0.000    0.000    5.231    0.000    0.000 
#
# Total GULP energy -434610.378558 kJ/mol
# GULP energy per Si atom -5571.927930 kJ/mol
# Density = 1.672139 g / cm^3
# Si number density = 16.759531 Si / 1000 Ang^3
#
#
#
# Elastic Constant Matrix: (Units=GPa)
#
#
# Indices 1 2 3 4 5 6 
#
# 1 70.3061 60.0658 36.3777 -1.6641 0.0000 0.0000
# 2 60.0658 70.3061 36.3777 1.6641 0.0000 0.0000
# 3 36.3777 36.3777 95.8132 0.0000 0.0000 0.0000
# 4 -1.6641 1.6641 0.0000 5.7130 0.0000 0.0000
# 5 0.0000 0.0000 0.0000 0.0000 5.7130 -1.6641
# 6 0.0000 0.0000 0.0000 0.0000 -1.6641 5.1202
#
#
#
# Elastic Compliance Matrix: (Units=1/GPa)
#
#
# Indices 1 2 3 4 5 6 
#
# 1 0.058799 -0.049066 -0.003695 0.031420 -0.000001 0.000000
# 2 -0.049066 0.058799 -0.003695 -0.031420 0.000001 0.000000
# 3 -0.003695 -0.003695 0.013243 0.000000 0.000000 0.000000
# 4 0.031420 -0.031420 0.000000 0.193343 0.000000 0.000001
# 5 -0.000001 0.000001 0.000000 0.000000 0.193343 0.062840
# 6 0.000000 0.000000 0.000000 0.000001 0.062840 0.215730
#
#
# Mechanical properties :
#
#
# Convention : Reuss Voigt Hill
#
# Bulk Modulus (GPa) = 55.78116 55.78532 55.78324
# Shear Modulus (GPa) = 5.86754 10.21620 8.04187
#
# Velocity S-wave (km/s) = 1.87313 2.47164 2.19290
# Velocity P-wave (km/s) = 6.16714 6.44231 6.30623
#
# Compressibility (1/GPa) = 0.01792720
#
# Stress axis : x y z
#
# Youngs Moduli (GPa) = 17.00718 17.00718 75.51225
#
# Poissons Ratio (x) = 0.83448 0.27903
# Poissons Ratio (y) = 0.83448 0.27903
# Poissons Ratio (z) = 0.06284 0.06284
#
# Static dielectric constant tensor:
#      x y z
#    x 1.600330 0.000000 0.000000 
#    y 0.000000 1.600330 0.000000 
#    z 0.000000 0.000000 1.590760 
# 
# From -- ./inp_files/7221.got.cif
#   From: 2010.05.17/outbox.cif.g08.bks.cpg/sg166_4_cif.got.tgz:7221.got - 2010.05.20 11:04:41.
