data_PCOD9579654
_publ_section_title
;
Structure prediction by ZEFSAII (Michael W. Deem and Ramdas Pophale) SiO2 
 PCOD9579654
Probable space group: R -3 C 
;
_chemical_formula_sum "Si O2"
_cell_formula_units_Z 162
_cell_length_a 20.346869
_cell_length_b 20.346869
_cell_length_c 20.749066
_cell_angle_alpha 90.000000
_cell_angle_beta 90.000000
_cell_angle_gamma 120.000000
_cell_volume 7439.167917
_symmetry_space_group_name_H-M "R -3 C "
_symmetry_group_IT_number 167
_symmetry_cell_setting 'hexagonal'
loop_
_space_group_symop_operation_xyz
x,y,z
-y,x-y,z
-x+y,-x,z
x-y,-y,1/2-z
-x,-x+y,1/2-z
y,x,1/2-z
-x,-y,-z
y,-x+y,-z
x-y,x,-z
-x+y,y,1/2+z
x,x-y,1/2+z
-y,-x,1/2+z
2/3+x,1/3+y,1/3+z
2/3-y,1/3+x-y,1/3+z
2/3-x+y,1/3-x,1/3+z
2/3+x-y,1/3-y,5/6-z
2/3-x,1/3-x+y,5/6-z
2/3+y,1/3+x,5/6-z
2/3-x,1/3-y,1/3-z
2/3+y,1/3-x+y,1/3-z
2/3+x-y,1/3+x,1/3-z
2/3-x+y,1/3+y,5/6+z
2/3+x,1/3+x-y,5/6+z
2/3-y,1/3-x,5/6+z
1/3+x,2/3+y,2/3+z
1/3-y,2/3+x-y,2/3+z
1/3-x+y,2/3-x,2/3+z
1/3+x-y,2/3-y,1/6-z
1/3-x,2/3-x+y,1/6-z
1/3+y,2/3+x,1/6-z
1/3-x,2/3-y,2/3-z
1/3+y,2/3-x+y,2/3-z
1/3+x-y,2/3+x,2/3-z
1/3-x+y,2/3+y,1/6+z
1/3+x,2/3+x-y,1/6+z
1/3-y,2/3-x,1/6+z
loop_
_atom_site_type_symbol
_atom_site_label
_atom_site_fract_x
_atom_site_fract_y
_atom_site_fract_z
Si Si1 0.789663 0.646076 0.257976
Si Si2 0.773478 0.266739 0.350008
Si Si3 0.511463 0.395277 0.178384
Si Si4 0.268351 0.323327 0.866235
Si Si5 0.580450 0.333334 0.083334
O O1 0.748524 0.580734 0.310357
O O2 0.845317 0.728127 0.289943
O O3 0.730930 0.646848 0.206097
O O4 0.850310 0.630821 0.222539
O O5 0.689643 0.219823 0.320074
O O6 0.773760 0.241048 0.423516
O O7 0.423066 0.355128 0.196203
O O8 0.536573 0.340010 0.144607
O O9 0.333334 0.376888 0.916667
O O10 0.595748 0.262415 0.083334
#
# Coordination Sequence:
#
# PCOD9579654 Si02
#       5
#    36  36  36  36  18
#     4  11  25  46  72 107 140 190 242 297 367 442
#     4  12  28  46  71 104 147 192 243 299 374 443
#     4  12  24  48  72 105 146 186 245 304 358 441
#     4  11  24  45  74 105 143 185 243 304 364 432
#     4  10  26  44  76 104 146 196 248 294 362 428
#
# _framework density 21.776627999999999
#
# number of rings (size 3 to 8) (size 9 to 14) (size 15 to 20)
#    0.222    0.444    4.444    2.222    6.222    0.889 
#    0.000    0.000    0.000    0.000    0.000    0.000 
#    0.000    0.000    0.000    0.000    0.000    0.000 
#
# Total GULP energy -301443.071126 kJ/mol
# GULP energy per Si atom -5582.279095 kJ/mol
# Density = 2.172706 g / cm^3
# Si number density = 21.776628 Si / 1000 Ang^3
#
#
#
# Elastic Constant Matrix: (Units=GPa)
#
#
# Indices 1 2 3 4 5 6 
#
# 1 73.8080 19.0939 23.3291 7.1778 -0.0002 0.0000
# 2 19.0939 73.8080 23.3291 -7.1778 0.0002 0.0000
# 3 23.3291 23.3291 117.0904 0.0000 0.0000 0.0000
# 4 7.1778 -7.1778 0.0000 30.7993 0.0000 0.0002
# 5 -0.0002 0.0002 0.0000 0.0000 30.7993 7.1778
# 6 0.0000 0.0000 0.0000 0.0002 7.1778 27.3570
#
#
#
# Elastic Compliance Matrix: (Units=1/GPa)
#
#
# Indices 1 2 3 4 5 6 
#
# 1 0.015714 -0.003753 -0.002383 -0.004537 0.000000 0.000000
# 2 -0.003753 0.015714 -0.002383 0.004537 0.000000 0.000000
# 3 -0.002383 -0.002383 0.009490 0.000000 0.000000 0.000000
# 4 -0.004537 0.004537 0.000000 0.034583 0.000000 0.000000
# 5 0.000000 0.000000 0.000000 0.000000 0.034583 -0.009074
# 6 0.000000 0.000000 0.000000 0.000000 -0.009074 0.038934
#
#
# Mechanical properties :
#
#
# Convention : Reuss Voigt Hill
#
# Bulk Modulus (GPa) = 41.87697 44.02340 42.95018
# Shear Modulus (GPa) = 28.73287 31.05474 29.89380
#
# Velocity S-wave (km/s) = 3.63635 3.78042 3.70908
# Velocity P-wave (km/s) = 6.07476 6.27018 6.17324
#
# Compressibility (1/GPa) = 0.02387948
#
# Stress axis : x y z
#
# Youngs Moduli (GPa) = 63.63735 63.63735 105.37383
#
# Poissons Ratio (x) = 0.23884 0.25112
# Poissons Ratio (y) = 0.23884 0.25112
# Poissons Ratio (z) = 0.15165 0.15165
#
# Static dielectric constant tensor:
#      x y z
#    x 1.774620 0.000000 0.000000 
#    y 0.000000 1.774620 0.000000 
#    z 0.000000 0.000000 1.882070 
# 
# From -- ./inp_files/4417.got.cif
#   From: 2010.05.17/outbox.cif.g08.bks.cpg/sg167_3_cif.got.tgz:4417.got - 2010.05.20 11:09:15.
