data_PCOD9579540
_publ_section_title
;
Structure prediction by ZEFSAII (Michael W. Deem and Ramdas Pophale) SiO2 
 PCOD9579540
Probable space group: R -3 C 
;
_chemical_formula_sum "Si O2"
_cell_formula_units_Z 252
_cell_length_a 28.696364
_cell_length_b 28.696364
_cell_length_c 18.107036
_cell_angle_alpha 90.000000
_cell_angle_beta 90.000000
_cell_angle_gamma 120.000000
_cell_volume 12913.136499
_symmetry_space_group_name_H-M "R -3 C "
_symmetry_group_IT_number 167
_symmetry_cell_setting 'hexagonal'
loop_
_space_group_symop_operation_xyz
x,y,z
-y,x-y,z
-x+y,-x,z
x-y,-y,1/2-z
-x,-x+y,1/2-z
y,x,1/2-z
-x,-y,-z
y,-x+y,-z
x-y,x,-z
-x+y,y,1/2+z
x,x-y,1/2+z
-y,-x,1/2+z
2/3+x,1/3+y,1/3+z
2/3-y,1/3+x-y,1/3+z
2/3-x+y,1/3-x,1/3+z
2/3+x-y,1/3-y,5/6-z
2/3-x,1/3-x+y,5/6-z
2/3+y,1/3+x,5/6-z
2/3-x,1/3-y,1/3-z
2/3+y,1/3-x+y,1/3-z
2/3+x-y,1/3+x,1/3-z
2/3-x+y,1/3+y,5/6+z
2/3+x,1/3+x-y,5/6+z
2/3-y,1/3-x,5/6+z
1/3+x,2/3+y,2/3+z
1/3-y,2/3+x-y,2/3+z
1/3-x+y,2/3-x,2/3+z
1/3+x-y,2/3-y,1/6-z
1/3-x,2/3-x+y,1/6-z
1/3+y,2/3+x,1/6-z
1/3-x,2/3-y,2/3-z
1/3+y,2/3-x+y,2/3-z
1/3+x-y,2/3+x,2/3-z
1/3-x+y,2/3+y,1/6+z
1/3+x,2/3+x-y,1/6+z
1/3-y,2/3-x,1/6+z
loop_
_atom_site_type_symbol
_atom_site_label
_atom_site_fract_x
_atom_site_fract_y
_atom_site_fract_z
Si Si1 0.269397 0.952425 0.918706
Si Si2 0.604292 0.093573 0.062332
Si Si3 0.551510 0.777655 0.252553
Si Si4 0.766527 0.231627 0.470157
Si Si5 0.878915 0.930061 0.521894
Si Si6 0.235543 0.383181 0.634466
Si Si7 0.126282 0.660683 0.004706
O O1 0.255977 0.890927 0.905939
O O2 0.243223 0.974947 0.860691
O O3 0.333334 0.989041 0.916667
O O4 0.241225 0.948860 0.997851
O O5 0.666667 0.128535 0.083334
O O6 0.573945 0.114677 0.116107
O O7 0.591637 0.102940 0.979902
O O8 0.507214 0.772325 0.194361
O O9 0.604263 0.790228 0.205278
O O10 0.532105 0.719874 0.292509
O O11 0.737180 0.263066 0.439026
O O12 0.818486 0.252647 0.417378
O O13 0.719261 0.169450 0.462923
O O14 0.917820 0.906422 0.513231
O O15 0.197427 0.333334 0.583334
O O16 0.134966 0.666667 0.916667
#
# Coordination Sequence:
#
# PCOD9579540 Si02
#       7
#    36  36  36  36  36  36  36
#     4  10  24  43  61  94 132 166 217 268 331 381
#     4  11  22  41  66  94 123 170 219 270 326 390
#     4  10  22  39  63  91 127 163 217 266 315 391
#     4  11  22  39  66  90 125 171 216 262 323 389
#     4  11  22  39  62  94 127 164 207 264 325 387
#     4  10  21  39  62  91 126 165 214 264 318 389
#     4  11  22  41  64  91 130 167 211 273 324 383
#
# _framework density 19.515011000000001
#
# number of rings (size 3 to 8) (size 9 to 14) (size 15 to 20)
#    0.000    1.429    4.286    1.000    0.000    4.571 
#    0.000    0.000    0.000    0.000    0.000    0.000 
#    0.000    0.000    0.000    0.000    0.000    0.000 
#
# Total GULP energy -468375.671667 kJ/mol
# GULP energy per Si atom -5575.900853 kJ/mol
# Density = 1.947059 g / cm^3
# Si number density = 19.515011 Si / 1000 Ang^3
#
#
#
# Elastic Constant Matrix: (Units=GPa)
#
#
# Indices 1 2 3 4 5 6 
#
# 1 73.0559 35.0216 21.2619 -1.0111 -0.0004 0.0000
# 2 35.0216 73.0559 21.2619 1.0111 0.0004 0.0000
# 3 21.2619 21.2619 96.7674 0.0000 0.0000 0.0000
# 4 -1.0111 1.0111 0.0000 21.4592 0.0000 0.0004
# 5 -0.0004 0.0004 0.0000 0.0000 21.4592 -1.0111
# 6 0.0000 0.0000 0.0000 0.0004 -1.0111 19.0171
#
#
#
# Elastic Compliance Matrix: (Units=1/GPa)
#
#
# Indices 1 2 3 4 5 6 
#
# 1 0.018243 -0.008115 -0.002225 0.001242 0.000000 0.000000
# 2 -0.008115 0.018243 -0.002225 -0.001242 0.000000 0.000000
# 3 -0.002225 -0.002225 0.011312 0.000000 0.000000 0.000000
# 4 0.001242 -0.001242 0.000000 0.046717 0.000000 -0.000001
# 5 0.000000 0.000000 0.000000 0.000000 0.046717 0.002484
# 6 0.000000 0.000000 0.000000 -0.000001 0.002484 0.052716
#
#
# Mechanical properties :
#
#
# Convention : Reuss Voigt Hill
#
# Bulk Modulus (GPa) = 44.11726 44.21889 44.16807
# Shear Modulus (GPa) = 22.06183 23.40936 22.73559
#
# Velocity S-wave (km/s) = 3.36595 3.46722 3.41696
# Velocity P-wave (km/s) = 6.14508 6.22390 6.18462
#
# Compressibility (1/GPa) = 0.02266686
#
# Stress axis : x y z
#
# Youngs Moduli (GPa) = 54.81505 54.81505 88.40182
#
# Poissons Ratio (x) = 0.44482 0.19673
# Poissons Ratio (y) = 0.44482 0.19673
# Poissons Ratio (z) = 0.12198 0.12198
#
# Static dielectric constant tensor:
#      x y z
#    x 1.683710 0.000000 0.000000 
#    y 0.000000 1.683710 0.000000 
#    z 0.000000 0.000000 1.734100 
# 
# From -- ./inp_files/3710.got.cif
#   From: 2010.05.17/outbox.cif.g08.bks.cpg/sg167_2_cif.got.tgz:3710.got - 2010.05.20 11:09:15.
