data_PCOD9579914
_publ_section_title
;
Structure prediction by ZEFSAII (Michael W. Deem and Ramdas Pophale) SiO2 
 PCOD9579914
Probable space group: P 61
;
_chemical_formula_sum "Si O2"
_cell_formula_units_Z 30
_cell_length_a 13.574007
_cell_length_b 13.574007
_cell_length_c 7.583362
_cell_angle_alpha 90.000000
_cell_angle_beta 90.000000
_cell_angle_gamma 120.000000
_cell_volume 1210.064604
_symmetry_space_group_name_H-M "P 61"
_symmetry_group_IT_number 169
_symmetry_cell_setting 'hexagonal'
loop_
_space_group_symop_operation_xyz
x,y,z
x-y,x,1/6+z
-y,x-y,1/3+z
-x,-y,1/2+z
-x+y,-x,2/3+z
y,-x+y,5/6+z
loop_
_atom_site_type_symbol
_atom_site_label
_atom_site_fract_x
_atom_site_fract_y
_atom_site_fract_z
Si Si1 0.545155 0.887057 0.292120
Si Si2 0.780439 0.954288 0.374883
Si Si3 0.779557 0.819918 0.021612
Si Si4 0.590766 0.569206 0.058850
Si Si5 0.243540 0.601296 0.078632
O O1 0.665239 0.957338 0.390125
O O2 0.503903 0.754725 0.325460
O O3 0.456645 0.918514 0.378748
O O4 0.560738 0.927085 0.088499
O O5 0.804999 0.883982 0.515924
O O6 0.763727 0.877477 0.199632
O O7 0.885874 0.802087 0.050268
O O8 0.672513 0.696450 0.991719
O O9 0.592888 0.469930 0.944528
O O10 0.298437 0.616778 0.273617
#
# Coordination Sequence:
#
# PCOD9579914 Si02
#       5
#     6   6   6   6   6
#     4  12  25  44  75 110 159 207 271 319 399 480
#     4  10  20  41  77 105 148 202 260 326 401 469
#     4  10  22  42  77 104 147 202 257 315 399 465
#     4  12  26  44  76 115 156 206 262 327 395 478
#     4  12  27  47  75 108 156 209 264 323 392 466
#
# _framework density 24.792065000000001
#
# number of rings (size 3 to 8) (size 9 to 14) (size 15 to 20)
#    0.000    0.800    6.000    2.400    5.600    0.000 
#    0.000    0.000   74.800    0.000    0.000    0.000 
#    0.000    0.000    0.000    0.000    0.000    0.000 
#
# Total GULP energy -168119.789335 kJ/mol
# GULP energy per Si atom -5603.992978 kJ/mol
# Density = 2.473564 g / cm^3
# Si number density = 24.792065 Si / 1000 Ang^3
#
#
#
# Elastic Constant Matrix: (Units=GPa)
#
#
# Indices 1 2 3 4 5 6 
#
# 1 154.7005 60.2483 32.0845 0.0000 0.0000 0.0000
# 2 60.2483 154.7005 32.0845 0.0000 0.0000 0.0000
# 3 32.0845 32.0845 108.4693 0.0000 0.0000 0.0000
# 4 0.0000 0.0000 0.0000 19.3961 0.0000 0.0000
# 5 0.0000 0.0000 0.0000 0.0000 19.3961 0.0000
# 6 0.0000 0.0000 0.0000 0.0000 0.0000 47.2261
#
#
#
# Elastic Compliance Matrix: (Units=1/GPa)
#
#
# Indices 1 2 3 4 5 6 
#
# 1 0.007845 -0.002742 -0.001509 0.000000 0.000000 0.000000
# 2 -0.002742 0.007845 -0.001509 0.000000 0.000000 0.000000
# 3 -0.001509 -0.001509 0.010112 0.000000 0.000000 0.000000
# 4 0.000000 0.000000 0.000000 0.051557 0.000000 0.000000
# 5 0.000000 0.000000 0.000000 0.000000 0.051557 0.000000
# 6 0.000000 0.000000 0.000000 0.000000 0.000000 0.021175
#
#
# Mechanical properties :
#
#
# Convention : Reuss Voigt Hill
#
# Bulk Modulus (GPa) = 70.02654 74.07832 72.05243
# Shear Modulus (GPa) = 30.05301 36.76720 33.41010
#
# Velocity S-wave (km/s) = 3.48545 3.85518 3.67497
# Velocity P-wave (km/s) = 6.67118 7.05417 6.86535
#
# Compressibility (1/GPa) = 0.01428030
#
# Stress axis : x y z
#
# Youngs Moduli (GPa) = 127.46778 127.46778 98.89102
#
# Poissons Ratio (x) = 0.34955 0.14927
# Poissons Ratio (y) = 0.34955 0.14927
# Poissons Ratio (z) = 0.19240 0.19240
#
# Static dielectric constant tensor:
#      x y z
#    x 1.920780 0.000000 0.000000 
#    y 0.000000 1.920780 0.000000 
#    z 0.000000 0.000000 2.055620 
# 
# From -- ./inp_files/573.got.cif
#   From: 2010.05.17/outbox.cif.g08.bks.cpg/sg169_cif.got.tgz:573.got - 2010.05.20 11:12:54.
