data_PCOD9579799
_publ_section_title
;
Structure prediction by ZEFSAII (Michael W. Deem and Ramdas Pophale) SiO2 
 PCOD9579799
Probable space group: P 61
;
_chemical_formula_sum "Si O2"
_cell_formula_units_Z 42
_cell_length_a 20.685510
_cell_length_b 20.685510
_cell_length_c 5.640802
_cell_angle_alpha 90.000000
_cell_angle_beta 90.000000
_cell_angle_gamma 120.000000
_cell_volume 2090.277535
_symmetry_space_group_name_H-M "P 61"
_symmetry_group_IT_number 169
_symmetry_cell_setting 'hexagonal'
loop_
_space_group_symop_operation_xyz
x,y,z
x-y,x,1/6+z
-y,x-y,1/3+z
-x,-y,1/2+z
-x+y,-x,2/3+z
y,-x+y,5/6+z
loop_
_atom_site_type_symbol
_atom_site_label
_atom_site_fract_x
_atom_site_fract_y
_atom_site_fract_z
Si Si1 0.067599 0.407082 0.761890
Si Si2 0.941821 0.533011 0.759692
Si Si3 0.536714 0.898116 0.919070
Si Si4 0.327669 0.436210 0.082913
Si Si5 0.718846 0.932632 0.599266
Si Si6 0.165460 0.084179 0.793992
Si Si7 0.101713 0.289162 0.600025
O O1 0.086312 0.451482 0.510688
O O2 0.105608 0.356135 0.754760
O O3 0.975843 0.358220 0.755709
O O4 0.086829 0.451262 0.010725
O O5 0.925790 0.449189 0.756920
O O6 0.030528 0.592762 0.754647
O O7 0.529290 0.856619 0.671607
O O8 0.529837 0.855806 0.163980
O O9 0.261980 0.350907 0.096539
O O10 0.780073 0.915886 0.491770
O O11 0.690331 0.870784 0.810752
O O12 0.759845 0.022848 0.627940
O O13 0.114937 0.115830 0.880079
O O14 0.217210 0.135548 0.586263
#
# Coordination Sequence:
#
# PCOD9579799 Si02
#       7
#     6   6   6   6   6   6   6
#     4  10  20  32  54  82 119 148 198 230 293 374
#     4  10  18  32  56  86 121 153 187 217 279 374
#     4  10  18  32  56  86 121 153 187 217 279 374
#     4  10  20  32  54  82 119 148 198 230 293 374
#     4  12  25  41  59  82 109 161 218 286 352 426
#     4  12  28  42  64  78 104 146 230 310 392 436
#     4  12  25  41  59  82 109 161 218 286 352 426
#
# _framework density 20.093025999999998
#
# number of rings (size 3 to 8) (size 9 to 14) (size 15 to 20)
#    0.000    1.143    5.714    4.286    8.000    1.143 
#    0.000    0.000    0.000    0.000    0.000    0.000 
#    0.000    0.000    0.000    7.714   14.000    0.571 
#
# Total GULP energy -234213.754963 kJ/mol
# GULP energy per Si atom -5576.517975 kJ/mol
# Density = 2.004729 g / cm^3
# Si number density = 20.093026 Si / 1000 Ang^3
#
#
#
# Elastic Constant Matrix: (Units=GPa)
#
#
# Indices 1 2 3 4 5 6 
#
# 1 92.7885 -7.1509 25.1206 0.0000 0.0000 0.0000
# 2 -7.1509 92.7885 25.1206 0.0000 0.0000 0.0000
# 3 25.1206 25.1206 155.2794 0.0000 0.0000 0.0000
# 4 0.0000 0.0000 0.0000 21.2261 0.0000 0.0000
# 5 0.0000 0.0000 0.0000 0.0000 21.2261 0.0000
# 6 0.0000 0.0000 0.0000 0.0000 0.0000 49.9697
#
#
#
# Elastic Compliance Matrix: (Units=1/GPa)
#
#
# Indices 1 2 3 4 5 6 
#
# 1 0.011454 0.001448 -0.002087 0.000000 0.000000 0.000000
# 2 0.001448 0.011454 -0.002087 0.000000 0.000000 0.000000
# 3 -0.002087 -0.002087 0.007115 0.000000 0.000000 0.000000
# 4 0.000000 0.000000 0.000000 0.047112 0.000000 0.000000
# 5 0.000000 0.000000 0.000000 0.000000 0.047112 0.000000
# 6 0.000000 0.000000 0.000000 0.000000 0.000000 0.020012
#
#
# Mechanical properties :
#
#
# Convention : Reuss Voigt Hill
#
# Bulk Modulus (GPa) = 40.70033 47.44854 44.07444
# Shear Modulus (GPa) = 31.66526 38.33546 35.00036
#
# Velocity S-wave (km/s) = 3.97411 4.37269 4.17815
# Velocity P-wave (km/s) = 6.43102 7.01139 6.72746
#
# Compressibility (1/GPa) = 0.02456982
#
# Stress axis : x y z
#
# Youngs Moduli (GPa) = 87.30699 87.30699 140.54189
#
# Poissons Ratio (x) = -0.12640 0.29334
# Poissons Ratio (y) = -0.12640 0.29334
# Poissons Ratio (z) = 0.18223 0.18223
#
# Static dielectric constant tensor:
#      x y z
#    x 1.681440 0.000000 0.000000 
#    y 0.000000 1.681440 0.000000 
#    z 0.000000 0.000000 1.851990 
# 
# From -- ./inp_files/271.got.cif
#   From: 2010.05.17/outbox.cif.g08.bks.cpg/sg169_cif.got.tgz:271.got - 2010.05.20 11:12:54.
