data_PCOD9579054
_publ_section_title
;
Structure prediction by ZEFSAII (Michael W. Deem and Ramdas Pophale) SiO2 
 PCOD9579054
Probable space group: R -3 M
;
_chemical_formula_sum "Si O2"
_cell_formula_units_Z 216
_cell_length_a 28.300459
_cell_length_b 28.300459
_cell_length_c 21.968442
_cell_angle_alpha 90.000000
_cell_angle_beta 90.000000
_cell_angle_gamma 120.000000
_cell_volume 15237.609805
_symmetry_space_group_name_H-M "R -3 M"
_symmetry_group_IT_number 166
_symmetry_cell_setting 'hexagonal'
loop_
_space_group_symop_operation_xyz
x,y,z
-y,x-y,z
-x+y,-x,z
x-y,-y,-z
-x,-x+y,-z
y,x,-z
-x,-y,-z
y,-x+y,-z
x-y,x,-z
-x+y,y,z
x,x-y,z
-y,-x,z
2/3+x,1/3+y,1/3+z
2/3-y,1/3+x-y,1/3+z
2/3-x+y,1/3-x,1/3+z
2/3+x-y,1/3-y,1/3-z
2/3-x,1/3-x+y,1/3-z
2/3+y,1/3+x,1/3-z
2/3-x,1/3-y,1/3-z
2/3+y,1/3-x+y,1/3-z
2/3+x-y,1/3+x,1/3-z
2/3-x+y,1/3+y,1/3+z
2/3+x,1/3+x-y,1/3+z
2/3-y,1/3-x,1/3+z
1/3+x,2/3+y,2/3+z
1/3-y,2/3+x-y,2/3+z
1/3-x+y,2/3-x,2/3+z
1/3+x-y,2/3-y,2/3-z
1/3-x,2/3-x+y,2/3-z
1/3+y,2/3+x,2/3-z
1/3-x,2/3-y,2/3-z
1/3+y,2/3-x+y,2/3-z
1/3+x-y,2/3+x,2/3-z
1/3-x+y,2/3+y,2/3+z
1/3+x,2/3+x-y,2/3+z
1/3-y,2/3-x,2/3+z
loop_
_atom_site_type_symbol
_atom_site_label
_atom_site_fract_x
_atom_site_fract_y
_atom_site_fract_z
Si Si1 0.062187 0.633683 0.377868
Si Si2 0.267421 0.081184 0.165066
Si Si3 0.414469 0.478938 0.012460
Si Si4 0.437494 0.454004 0.256779
Si Si5 0.670714 0.606114 0.264294
Si Si6 0.061020 0.833082 0.483128
O O1 0.080694 0.612265 0.435298
O O2 0.111370 0.691770 0.357313
O O3 0.043683 0.592198 0.320728
O O4 0.006280 0.634028 0.397348
O O5 0.246100 0.123050 0.153327
O O6 0.333334 0.116870 0.166667
O O7 0.254869 0.037146 0.112935
O O8 0.457638 0.542363 0.996585
O O9 0.399505 0.477878 0.083673
O O10 0.447081 0.447081 0.000000
O O11 0.501960 0.498041 0.262224
O O12 0.418643 0.391246 0.242829
O O13 0.414867 0.474638 0.202223
O O14 0.666667 0.586103 0.333334
O O15 0.102550 0.897451 0.482513
O O16 0.000000 0.815969 0.500000
#
# Coordination Sequence:
#
# PCOD9579054 Si02
#       6
#    36  36  36  36  36  36
#     4  10  18  31  47  65  90 123 161 195 223 269
#     4   9  18  31  48  66  87 118 156 194 226 260
#     4  10  20  31  43  63  93 128 160 191 231 275
#     4  10  19  30  45  66  91 121 156 190 226 273
#     4   9  19  30  43  67  90 121 156 186 226 264
#     4  10  20  32  47  65  90 120 154 194 236 277
#
# _framework density 14.175452
#
# number of rings (size 3 to 8) (size 9 to 14) (size 15 to 20)
#    0.000    2.333    1.667    2.000    2.333    4.667 
#    0.000    0.000    0.000    0.167    0.000    0.000 
#    0.000    0.000    0.000    7.833    0.000   15.833 
#
# Total GULP energy -400947.574382 kJ/mol
# GULP energy per Si atom -5568.716311 kJ/mol
# Density = 1.414319 g / cm^3
# Si number density = 14.175452 Si / 1000 Ang^3
#
#
#
# Elastic Constant Matrix: (Units=GPa)
#
#
# Indices 1 2 3 4 5 6 
#
# 1 88.7557 52.2302 48.4307 -0.3048 -0.0001 0.0000
# 2 52.2302 88.7557 48.4307 0.3048 0.0001 0.0000
# 3 48.4307 48.4307 83.1528 0.0000 0.0000 0.0000
# 4 -0.3048 0.3048 0.0000 17.9930 0.0000 0.0001
# 5 -0.0001 0.0001 0.0000 0.0000 17.9930 -0.3048
# 6 0.0000 0.0000 0.0000 0.0001 -0.3048 18.2628
#
#
#
# Elastic Compliance Matrix: (Units=1/GPa)
#
#
# Indices 1 2 3 4 5 6 
#
# 1 0.019605 -0.007781 -0.006887 0.000464 0.000000 0.000000
# 2 -0.007781 0.019605 -0.006887 -0.000464 0.000000 0.000000
# 3 -0.006887 -0.006887 0.020048 0.000000 0.000000 0.000000
# 4 0.000464 -0.000464 0.000000 0.055593 0.000000 0.000000
# 5 0.000000 0.000000 0.000000 0.000000 0.055593 0.000928
# 6 0.000000 0.000000 0.000000 0.000000 0.000928 0.054772
#
#
# Mechanical properties :
#
#
# Convention : Reuss Voigt Hill
#
# Bulk Modulus (GPa) = 61.92116 62.09415 62.00765
# Shear Modulus (GPa) = 18.26765 18.28795 18.27780
#
# Velocity S-wave (km/s) = 3.59372 3.59571 3.59471
# Velocity P-wave (km/s) = 7.81003 7.81908 7.81455
#
# Compressibility (1/GPa) = 0.01614957
#
# Stress axis : x y z
#
# Youngs Moduli (GPa) = 51.00707 51.00707 49.87959
#
# Poissons Ratio (x) = 0.39687 0.34351
# Poissons Ratio (y) = 0.39687 0.34351
# Poissons Ratio (z) = 0.35128 0.35128
#
# Static dielectric constant tensor:
#      x y z
#    x 1.467650 0.000000 0.000000 
#    y 0.000000 1.467650 0.000000 
#    z 0.000000 0.000000 1.479280 
# 
# From -- ./inp_files/7177.got.cif
#   From: 2010.05.17/outbox.cif.g08.bks.cpg/sg166_4_cif.got.tgz:7177.got - 2010.05.20 11:04:41.
