data_PCOD9579439
_publ_section_title
;
Structure prediction by ZEFSAII (Michael W. Deem and Ramdas Pophale) SiO2 
 PCOD9579439
Probable space group: R -3 C 
;
_chemical_formula_sum "Si O2"
_cell_formula_units_Z 216
_cell_length_a 21.044071
_cell_length_b 21.044071
_cell_length_c 25.411997
_cell_angle_alpha 90.000000
_cell_angle_beta 90.000000
_cell_angle_gamma 120.000000
_cell_volume 9746.056929
_symmetry_space_group_name_H-M "R -3 C "
_symmetry_group_IT_number 167
_symmetry_cell_setting 'hexagonal'
loop_
_space_group_symop_operation_xyz
x,y,z
-y,x-y,z
-x+y,-x,z
x-y,-y,1/2-z
-x,-x+y,1/2-z
y,x,1/2-z
-x,-y,-z
y,-x+y,-z
x-y,x,-z
-x+y,y,1/2+z
x,x-y,1/2+z
-y,-x,1/2+z
2/3+x,1/3+y,1/3+z
2/3-y,1/3+x-y,1/3+z
2/3-x+y,1/3-x,1/3+z
2/3+x-y,1/3-y,5/6-z
2/3-x,1/3-x+y,5/6-z
2/3+y,1/3+x,5/6-z
2/3-x,1/3-y,1/3-z
2/3+y,1/3-x+y,1/3-z
2/3+x-y,1/3+x,1/3-z
2/3-x+y,1/3+y,5/6+z
2/3+x,1/3+x-y,5/6+z
2/3-y,1/3-x,5/6+z
1/3+x,2/3+y,2/3+z
1/3-y,2/3+x-y,2/3+z
1/3-x+y,2/3-x,2/3+z
1/3+x-y,2/3-y,1/6-z
1/3-x,2/3-x+y,1/6-z
1/3+y,2/3+x,1/6-z
1/3-x,2/3-y,2/3-z
1/3+y,2/3-x+y,2/3-z
1/3+x-y,2/3+x,2/3-z
1/3-x+y,2/3+y,1/6+z
1/3+x,2/3+x-y,1/6+z
1/3-y,2/3-x,1/6+z
loop_
_atom_site_type_symbol
_atom_site_label
_atom_site_fract_x
_atom_site_fract_y
_atom_site_fract_z
Si Si1 0.590034 0.039134 0.312164
Si Si2 0.302903 0.852067 0.761852
Si Si3 0.328901 0.366363 0.803936
Si Si4 0.810307 0.380869 0.855938
Si Si5 0.369655 0.143685 0.040612
Si Si6 0.915995 0.404787 0.547049
O O1 0.616585 0.079513 0.255062
O O2 0.636607 0.001403 0.330072
O O3 0.618589 0.114130 0.346407
O O4 0.507234 0.990613 0.332145
O O5 0.280085 0.774694 0.733971
O O6 0.250473 0.879599 0.736188
O O7 0.284445 0.834630 0.822680
O O8 0.371825 0.371825 0.750000
O O9 0.367225 0.437298 0.839890
O O10 0.243766 0.334486 0.791231
O O11 0.748423 0.296257 0.858862
O O12 0.418421 0.198452 0.086283
O O13 0.878785 0.333334 0.583334
#
# Coordination Sequence:
#
# PCOD9579439 Si02
#       6
#    36  36  36  36  36  36
#     4   9  17  34  53  83 111 145 192 248 306 365
#     4   9  20  33  56  77 112 154 184 243 305 362
#     4  10  20  35  55  82 119 158 197 255 308 364
#     4   9  17  32  57  88 114 139 188 250 311 362
#     4  10  19  34  55  80 110 152 203 242 301 359
#     4  11  21  37  54  80 119 158 201 248 299 371
#
# _framework density 22.16281
#
# number of rings (size 3 to 8) (size 9 to 14) (size 15 to 20)
#    0.000    2.333    3.333    1.667    0.000    4.000 
#    0.000    0.000    0.000    0.000    0.000    0.000 
#    0.000    0.000    0.000    0.000    0.000    0.000 
#
# Total GULP energy -401796.107445 kJ/mol
# GULP energy per Si atom -5580.501492 kJ/mol
# Density = 2.211237 g / cm^3
# Si number density = 22.162810 Si / 1000 Ang^3
#
#
#
# Elastic Constant Matrix: (Units=GPa)
#
#
# Indices 1 2 3 4 5 6 
#
# 1 39.7973 3.2518 20.4965 -3.1241 0.0000 0.0000
# 2 3.2518 39.7973 20.4965 3.1241 0.0000 0.0000
# 3 20.4965 20.4965 163.2911 0.0000 0.0000 0.0000
# 4 -3.1241 3.1241 0.0000 28.5516 0.0000 0.0000
# 5 0.0000 0.0000 0.0000 0.0000 28.5516 -3.1241
# 6 0.0000 0.0000 0.0000 0.0000 -3.1241 18.2728
#
#
#
# Elastic Compliance Matrix: (Units=1/GPa)
#
#
# Indices 1 2 3 4 5 6 
#
# 1 0.027134 -0.000751 -0.003312 0.003051 0.000000 0.000000
# 2 -0.000751 0.027134 -0.003312 -0.003051 0.000000 0.000000
# 3 -0.003312 -0.003312 0.006955 0.000000 0.000000 0.000000
# 4 0.003051 -0.003051 0.000000 0.035692 0.000000 0.000000
# 5 0.000000 0.000000 0.000000 0.000000 0.035692 0.006102
# 6 0.000000 0.000000 0.000000 0.000000 0.006102 0.055770
#
#
# Mechanical properties :
#
#
# Convention : Reuss Voigt Hill
#
# Bulk Modulus (GPa) = 21.51718 36.81948 29.16833
# Shear Modulus (GPa) = 22.87113 28.31794 25.59453
#
# Velocity S-wave (km/s) = 3.21590 3.57840 3.40198
# Velocity P-wave (km/s) = 4.84965 5.80711 5.34984
#
# Compressibility (1/GPa) = 0.04647449
#
# Stress axis : x y z
#
# Youngs Moduli (GPa) = 36.85447 36.85447 143.77355
#
# Poissons Ratio (x) = 0.02768 0.47612
# Poissons Ratio (y) = 0.02768 0.47612
# Poissons Ratio (z) = 0.12205 0.12205
#
# Static dielectric constant tensor:
#      x y z
#    x 1.835230 0.000000 0.000000 
#    y 0.000000 1.835230 0.000000 
#    z 0.000000 0.000000 1.916390 
# 
# From -- ./inp_files/5501.got.cif
#   From: 2010.05.17/outbox.cif.g08.bks.cpg/sg167_3_cif.got.tgz:5501.got - 2010.05.20 11:09:15.
