data_PCOD9579853
_publ_section_title
;
Structure prediction by ZEFSAII (Michael W. Deem and Ramdas Pophale) SiO2 
 PCOD9579853
Probable space group: P 61
;
_chemical_formula_sum "Si O2"
_cell_formula_units_Z 48
_cell_length_a 12.940676
_cell_length_b 12.940676
_cell_length_c 16.982293
_cell_angle_alpha 90.000000
_cell_angle_beta 90.000000
_cell_angle_gamma 120.000000
_cell_volume 2462.866598
_symmetry_space_group_name_H-M "P 61"
_symmetry_group_IT_number 169
_symmetry_cell_setting 'hexagonal'
loop_
_space_group_symop_operation_xyz
x,y,z
x-y,x,1/6+z
-y,x-y,1/3+z
-x,-y,1/2+z
-x+y,-x,2/3+z
y,-x+y,5/6+z
loop_
_atom_site_type_symbol
_atom_site_label
_atom_site_fract_x
_atom_site_fract_y
_atom_site_fract_z
Si Si1 0.672811 0.292598 0.677740
Si Si2 0.395752 0.038084 0.173940
Si Si3 0.211146 0.836875 0.271820
Si Si4 0.915988 0.510324 0.698811
Si Si5 0.427996 0.248571 0.731915
Si Si6 0.039082 0.364597 0.746287
Si Si7 0.538895 0.690116 0.706716
Si Si8 0.617416 0.633765 0.375562
O O1 0.724772 0.231829 0.736439
O O2 0.787149 0.419327 0.662289
O O3 0.569612 0.301384 0.722356
O O4 0.639142 0.217699 0.596480
O O5 0.429457 0.174633 0.185978
O O6 0.510380 0.019986 0.190855
O O7 0.290266 0.967413 0.236630
O O8 0.337154 0.964688 0.092901
O O9 0.225066 0.850821 0.364742
O O10 0.076283 0.765586 0.244276
O O11 0.895125 0.527438 0.789080
O O12 0.964718 0.615600 0.636398
O O13 0.001009 0.452636 0.704800
O O14 0.396566 0.321734 0.669543
O O15 0.387800 0.270681 0.817115
O O16 0.377812 0.113162 0.701506
#
# Coordination Sequence:
#
# PCOD9579853 Si02
#       8
#     6   6   6   6   6   6   6   6
#     4  10  21  36  62  88 136 168 207 268 319 403
#     4  11  20  42  62  95 133 169 214 274 328 402
#     4  10  19  37  60  89 124 161 207 267 321 379
#     4  11  23  39  61  94 130 172 215 259 330 405
#     4  12  25  39  64  95 138 174 220 276 336 403
#     4  11  22  36  61  92 126 166 219 262 324 393
#     4  11  22  37  66  94 132 168 221 262 332 397
#     4  12  24  42  60  95 137 178 215 274 342 402
#
# _framework density 19.489483
#
# number of rings (size 3 to 8) (size 9 to 14) (size 15 to 20)
#    0.000    1.000    5.000    3.750    3.500    2.000 
#    0.000    0.000    0.000    0.000   32.500    0.000 
#    0.000    0.000    0.000    0.000    0.000    0.000 
#
# Total GULP energy -267547.852371 kJ/mol
# GULP energy per Si atom -5573.913591 kJ/mol
# Density = 1.944512 g / cm^3
# Si number density = 19.489483 Si / 1000 Ang^3
#
#
#
# Elastic Constant Matrix: (Units=GPa)
#
#
# Indices 1 2 3 4 5 6 
#
# 1 88.6579 0.4337 19.9706 0.0000 0.0000 0.0000
# 2 0.4337 88.6579 19.9706 0.0000 0.0000 0.0000
# 3 19.9706 19.9706 129.4722 0.0000 0.0000 0.0000
# 4 0.0000 0.0000 0.0000 18.9160 0.0000 0.0000
# 5 0.0000 0.0000 0.0000 0.0000 18.9160 0.0000
# 6 0.0000 0.0000 0.0000 0.0000 0.0000 44.1121
#
#
#
# Elastic Compliance Matrix: (Units=1/GPa)
#
#
# Indices 1 2 3 4 5 6 
#
# 1 0.011697 0.000362 -0.001860 0.000000 0.000000 0.000000
# 2 0.000362 0.011697 -0.001860 0.000000 0.000000 0.000000
# 3 -0.001860 -0.001860 0.008297 0.000000 0.000000 0.000000
# 4 0.000000 0.000000 0.000000 0.052865 0.000000 0.000000
# 5 0.000000 0.000000 0.000000 0.000000 0.052865 0.000000
# 6 0.000000 0.000000 0.000000 0.000000 0.000000 0.022670
#
#
# Mechanical properties :
#
#
# Convention : Reuss Voigt Hill
#
# Bulk Modulus (GPa) = 40.04136 43.05976 41.55056
# Shear Modulus (GPa) = 28.54994 34.14968 31.34981
#
# Velocity S-wave (km/s) = 3.83154 4.19048 4.01502
# Velocity P-wave (km/s) = 6.33751 6.74947 6.54673
#
# Compressibility (1/GPa) = 0.02497418
#
# Stress axis : x y z
#
# Youngs Moduli (GPa) = 85.49563 85.49563 120.51907
#
# Poissons Ratio (x) = -0.03093 0.22416
# Poissons Ratio (y) = -0.03093 0.22416
# Poissons Ratio (z) = 0.15902 0.15902
#
# Static dielectric constant tensor:
#      x y z
#    x 1.714460 0.000000 0.000000 
#    y 0.000000 1.714460 0.000000 
#    z 0.000000 0.000000 1.748770 
# 
# From -- ./inp_files/1413.got.cif
#   From: 2010.05.17/outbox.cif.g08.bks.cpg/sg169_cif.got.tgz:1413.got - 2010.05.20 11:12:54.
