data_PCOD9579614
_publ_section_title
;
Structure prediction by ZEFSAII (Michael W. Deem and Ramdas Pophale) SiO2 
 PCOD9579614
Probable space group: R -3 C 
;
_chemical_formula_sum "Si O2"
_cell_formula_units_Z 84
_cell_length_a 16.284883
_cell_length_b 16.284883
_cell_length_c 14.204204
_cell_angle_alpha 90.000000
_cell_angle_beta 90.000000
_cell_angle_gamma 120.000000
_cell_volume 3262.246832
_symmetry_space_group_name_H-M "R -3 C "
_symmetry_group_IT_number 167
_symmetry_cell_setting 'hexagonal'
loop_
_space_group_symop_operation_xyz
x,y,z
-y,x-y,z
-x+y,-x,z
x-y,-y,1/2-z
-x,-x+y,1/2-z
y,x,1/2-z
-x,-y,-z
y,-x+y,-z
x-y,x,-z
-x+y,y,1/2+z
x,x-y,1/2+z
-y,-x,1/2+z
2/3+x,1/3+y,1/3+z
2/3-y,1/3+x-y,1/3+z
2/3-x+y,1/3-x,1/3+z
2/3+x-y,1/3-y,5/6-z
2/3-x,1/3-x+y,5/6-z
2/3+y,1/3+x,5/6-z
2/3-x,1/3-y,1/3-z
2/3+y,1/3-x+y,1/3-z
2/3+x-y,1/3+x,1/3-z
2/3-x+y,1/3+y,5/6+z
2/3+x,1/3+x-y,5/6+z
2/3-y,1/3-x,5/6+z
1/3+x,2/3+y,2/3+z
1/3-y,2/3+x-y,2/3+z
1/3-x+y,2/3-x,2/3+z
1/3+x-y,2/3-y,1/6-z
1/3-x,2/3-x+y,1/6-z
1/3+y,2/3+x,1/6-z
1/3-x,2/3-y,2/3-z
1/3+y,2/3-x+y,2/3-z
1/3+x-y,2/3+x,2/3-z
1/3-x+y,2/3+y,1/6+z
1/3+x,2/3+x-y,1/6+z
1/3-y,2/3-x,1/6+z
loop_
_atom_site_type_symbol
_atom_site_label
_atom_site_fract_x
_atom_site_fract_y
_atom_site_fract_z
Si Si1 0.333334 0.666667 0.530502
Si Si2 0.454670 0.878912 0.027074
Si Si3 0.374086 0.224265 0.509159
O O1 0.333334 0.666668 0.416667
O O2 0.384119 0.774139 0.562508
O O3 0.435603 0.949883 0.088446
O O4 0.564181 0.897783 0.026984
O O5 0.438730 0.887967 0.915798
O O6 0.333334 0.160987 0.416667
#
# Coordination Sequence:
#
# PCOD9579614 Si02
#       3
#    12  36  36
#     4  12  21  48  84 106 147 195 268 327 372 460
#     4  10  24  47  73 110 148 204 250 325 390 461
#     4  10  22  46  68 110 152 195 252 309 400 466
#
# _framework density 25.749126
#
# number of rings (size 3 to 8) (size 9 to 14) (size 15 to 20)
#    0.000    1.714    4.286    0.000    0.000    3.429 
#   30.857    6.429    0.000    0.000    0.000    0.000 
#    0.000    0.000    0.000    0.000    0.000    0.000 
#
# Total GULP energy -156150.796983 kJ/mol
# GULP energy per Si atom -5576.814178 kJ/mol
# Density = 2.569052 g / cm^3
# Si number density = 25.749126 Si / 1000 Ang^3
#
#
#
# Elastic Constant Matrix: (Units=GPa)
#
#
# Indices 1 2 3 4 5 6 
#
# 1 130.7305 87.5209 8.6959 -3.6015 -0.0004 0.0000
# 2 87.5209 130.7362 8.6981 3.6025 0.0003 -0.0001
# 3 8.6959 8.6981 150.7372 0.0002 0.0000 -0.0001
# 4 -3.6015 3.6025 0.0002 10.7202 0.0000 0.0004
# 5 -0.0004 0.0003 0.0000 0.0000 10.7198 -3.6013
# 6 0.0000 -0.0001 -0.0001 0.0004 -3.6013 21.6057
#
#
#
# Elastic Compliance Matrix: (Units=1/GPa)
#
#
# Indices 1 2 3 4 5 6 
#
# 1 0.014559 -0.009956 -0.000265 0.008237 0.000001 0.000000
# 2 -0.009956 0.014559 -0.000266 -0.008237 -0.000001 0.000000
# 3 -0.000265 -0.000266 0.006665 0.000000 0.000000 0.000000
# 4 0.008237 -0.008237 0.000000 0.098817 0.000000 -0.000002
# 5 0.000001 -0.000001 0.000000 0.000000 0.098819 0.016471
# 6 0.000000 0.000000 0.000000 -0.000002 0.016471 0.049030
#
#
# Mechanical properties :
#
#
# Convention : Reuss Voigt Hill
#
# Bulk Modulus (GPa) = 67.52945 69.11489 68.32217
# Shear Modulus (GPa) = 16.21495 29.09509 22.65502
#
# Velocity S-wave (km/s) = 2.51216 3.36511 2.96942
# Velocity P-wave (km/s) = 5.89045 6.48063 6.19258
#
# Compressibility (1/GPa) = 0.01480835
#
# Stress axis : x y z
#
# Youngs Moduli (GPa) = 68.68563 68.68817 150.04410
#
# Poissons Ratio (x) = 0.68385 0.03983
# Poissons Ratio (y) = 0.68382 0.03987
# Poissons Ratio (z) = 0.01823 0.01825
#
# Static dielectric constant tensor:
#      x y z
#    x 2.057170 0.000000 0.000000 
#    y 0.000000 2.057160 0.000000 
#    z 0.000000 0.000000 2.071430 
# 
# From -- ./inp_files/1871.got.cif
#   From: 2010.05.17/outbox.cif.g08.bks.cpg/sg167_1_cif.got.tgz:1871.got - 2010.05.20 11:09:15.
