data_PCOD9579710
_publ_section_title
;
Structure prediction by ZEFSAII (Michael W. Deem and Ramdas Pophale) SiO2 
 PCOD9579710
Probable space group: R -3 C 
;
_chemical_formula_sum "Si O2"
_cell_formula_units_Z 90
_cell_length_a 22.538314
_cell_length_b 22.538314
_cell_length_c 9.875520
_cell_angle_alpha 90.000000
_cell_angle_beta 90.000000
_cell_angle_gamma 120.000000
_cell_volume 4344.436510
_symmetry_space_group_name_H-M "R -3 C "
_symmetry_group_IT_number 167
_symmetry_cell_setting 'hexagonal'
loop_
_space_group_symop_operation_xyz
x,y,z
-y,x-y,z
-x+y,-x,z
x-y,-y,1/2-z
-x,-x+y,1/2-z
y,x,1/2-z
-x,-y,-z
y,-x+y,-z
x-y,x,-z
-x+y,y,1/2+z
x,x-y,1/2+z
-y,-x,1/2+z
2/3+x,1/3+y,1/3+z
2/3-y,1/3+x-y,1/3+z
2/3-x+y,1/3-x,1/3+z
2/3+x-y,1/3-y,5/6-z
2/3-x,1/3-x+y,5/6-z
2/3+y,1/3+x,5/6-z
2/3-x,1/3-y,1/3-z
2/3+y,1/3-x+y,1/3-z
2/3+x-y,1/3+x,1/3-z
2/3-x+y,1/3+y,5/6+z
2/3+x,1/3+x-y,5/6+z
2/3-y,1/3-x,5/6+z
1/3+x,2/3+y,2/3+z
1/3-y,2/3+x-y,2/3+z
1/3-x+y,2/3-x,2/3+z
1/3+x-y,2/3-y,1/6-z
1/3-x,2/3-x+y,1/6-z
1/3+y,2/3+x,1/6-z
1/3-x,2/3-y,2/3-z
1/3+y,2/3-x+y,2/3-z
1/3+x-y,2/3+x,2/3-z
1/3-x+y,2/3+y,1/6+z
1/3+x,2/3+x-y,1/6+z
1/3-y,2/3-x,1/6+z
loop_
_atom_site_type_symbol
_atom_site_label
_atom_site_fract_x
_atom_site_fract_y
_atom_site_fract_z
Si Si1 0.336639 0.923137 0.713717
Si Si2 0.784852 0.857547 0.246301
Si Si3 0.666667 0.123449 0.583334
O O1 0.399420 0.913559 0.771057
O O2 0.273600 0.865913 0.804296
O O3 0.325447 0.907583 0.556760
O O4 0.358466 0.000000 0.750000
O O5 0.856403 0.856403 0.250000
O O6 0.793678 0.930718 0.263114
#
# Coordination Sequence:
#
# PCOD9579710 Si02
#       3
#    36  36  18
#     4   9  21  41  60  97 136 175 236 277 337 429
#     4   8  22  39  61 103 138 172 242 277 353 428
#     4  12  18  40  72  94 140 186 216 310 352 400
#
# _framework density 20.716151
#
# number of rings (size 3 to 8) (size 9 to 14) (size 15 to 20)
#    2.400    0.000    0.000    2.400    0.000    1.600 
#   15.600    0.000    0.000    4.800    0.000    0.000 
#    0.000    0.000    0.000    0.000    0.000    0.000 
#
# Total GULP energy -167042.418832 kJ/mol
# GULP energy per Si atom -5568.080628 kJ/mol
# Density = 2.066900 g / cm^3
# Si number density = 20.716151 Si / 1000 Ang^3
#
#
#
# Elastic Constant Matrix: (Units=GPa)
#
#
# Indices 1 2 3 4 5 6 
#
# 1 106.8490 97.8596 62.6292 -6.9777 0.0004 0.0001
# 2 97.8596 106.8499 62.6326 6.9778 -0.0002 -0.0002
# 3 62.6292 62.6326 184.0565 0.0002 -0.0004 -0.0018
# 4 -6.9777 6.9778 0.0002 30.1026 0.0000 -0.0012
# 5 0.0004 -0.0002 -0.0004 0.0000 30.1028 -6.9766
# 6 0.0001 -0.0002 -0.0018 -0.0012 -6.9766 4.4967
#
#
#
# Elastic Compliance Matrix: (Units=1/GPa)
#
#
# Indices 1 2 3 4 5 6 
#
# 1 0.089965 -0.083796 -0.002098 0.040278 -0.000001 0.000002
# 2 -0.083796 0.089966 -0.002101 -0.040278 0.000001 -0.000004
# 3 -0.002098 -0.002101 0.006862 0.000001 0.000001 0.000004
# 4 0.040278 -0.040278 0.000001 0.051892 0.000003 0.000016
# 5 -0.000001 0.000001 0.000001 0.000003 0.051871 0.080477
# 6 0.000002 -0.000004 0.000004 0.000016 0.080477 0.347247
#
#
# Mechanical properties :
#
#
# Convention : Reuss Voigt Hill
#
# Bulk Modulus (GPa) = 92.56260 93.77761 93.17010
# Shear Modulus (GPa) = 6.11700 24.58269 15.34984
#
# Velocity S-wave (km/s) = 1.72023 3.44851 2.72501
# Velocity P-wave (km/s) = 6.98025 7.82447 7.41439
#
# Compressibility (1/GPa) = 0.01080350
#
# Stress axis : x y z
#
# Youngs Moduli (GPa) = 11.11543 11.11525 145.73259
#
# Poissons Ratio (x) = 0.93142 0.30568
# Poissons Ratio (y) = 0.93143 0.30622
# Poissons Ratio (z) = 0.02332 0.02336
#
# Static dielectric constant tensor:
#      x y z
#    x 1.746460 0.000000 0.000000 
#    y 0.000000 1.746460 0.000000 
#    z 0.000000 0.000000 1.772750 
# 
# From -- ./inp_files/515.got.cif
#   From: 2010.05.17/outbox.cif.g08.bks.cpg/sg167_1_cif.got.tgz:515.got - 2010.05.20 11:09:15.
