data_PCOD9579550
_publ_section_title
;
Structure prediction by ZEFSAII (Michael W. Deem and Ramdas Pophale) SiO2 
 PCOD9579550
Probable space group: R -3 C 
;
_chemical_formula_sum "Si O2"
_cell_formula_units_Z 144
_cell_length_a 20.583561
_cell_length_b 20.583561
_cell_length_c 18.707015
_cell_angle_alpha 90.000000
_cell_angle_beta 90.000000
_cell_angle_gamma 120.000000
_cell_volume 6863.982187
_symmetry_space_group_name_H-M "R -3 C "
_symmetry_group_IT_number 167
_symmetry_cell_setting 'hexagonal'
loop_
_space_group_symop_operation_xyz
x,y,z
-y,x-y,z
-x+y,-x,z
x-y,-y,1/2-z
-x,-x+y,1/2-z
y,x,1/2-z
-x,-y,-z
y,-x+y,-z
x-y,x,-z
-x+y,y,1/2+z
x,x-y,1/2+z
-y,-x,1/2+z
2/3+x,1/3+y,1/3+z
2/3-y,1/3+x-y,1/3+z
2/3-x+y,1/3-x,1/3+z
2/3+x-y,1/3-y,5/6-z
2/3-x,1/3-x+y,5/6-z
2/3+y,1/3+x,5/6-z
2/3-x,1/3-y,1/3-z
2/3+y,1/3-x+y,1/3-z
2/3+x-y,1/3+x,1/3-z
2/3-x+y,1/3+y,5/6+z
2/3+x,1/3+x-y,5/6+z
2/3-y,1/3-x,5/6+z
1/3+x,2/3+y,2/3+z
1/3-y,2/3+x-y,2/3+z
1/3-x+y,2/3-x,2/3+z
1/3+x-y,2/3-y,1/6-z
1/3-x,2/3-x+y,1/6-z
1/3+y,2/3+x,1/6-z
1/3-x,2/3-y,2/3-z
1/3+y,2/3-x+y,2/3-z
1/3+x-y,2/3+x,2/3-z
1/3-x+y,2/3+y,1/6+z
1/3+x,2/3+x-y,1/6+z
1/3-y,2/3-x,1/6+z
loop_
_atom_site_type_symbol
_atom_site_label
_atom_site_fract_x
_atom_site_fract_y
_atom_site_fract_z
Si Si1 0.201885 0.449331 0.004618
Si Si2 0.471124 0.804457 0.916667
Si Si3 0.721990 0.000000 0.750000
Si Si4 0.661849 0.562567 0.965896
Si Si5 0.859962 0.024290 0.990990
O O1 0.249900 0.408230 0.020906
O O2 0.176551 0.467589 0.078859
O O3 0.267137 0.525657 0.964853
O O4 0.131358 0.405147 0.954748
O O5 0.538870 0.830938 0.859084
O O6 0.653087 0.957585 0.804572
O O7 0.643191 0.527135 0.886987
O O8 0.944084 0.089413 0.007952
#
# Coordination Sequence:
#
# PCOD9579550 Si02
#       5
#    36  18  18  36  36
#     4   9  23  41  65  96 133 175 226 275 343 396
#     4   8  20  48  57  91 142 166 210 296 338 380
#     4  12  24  40  73  97 120 192 226 262 356 430
#     4   9  23  41  60  95 137 164 223 290 323 400
#     4  10  21  40  64  95 134 179 225 278 341 411
#
# _framework density 20.979074000000001
#
# number of rings (size 3 to 8) (size 9 to 14) (size 15 to 20)
#    1.500    1.000    0.000    0.250    3.500    8.000 
#    0.000    0.000    0.000    2.000    0.000    0.000 
#    0.000    0.000    0.000    0.000    0.000    0.000 
#
# Total GULP energy -267279.944358 kJ/mol
# GULP energy per Si atom -5568.332174 kJ/mol
# Density = 2.093132 g / cm^3
# Si number density = 20.979074 Si / 1000 Ang^3
#
#
#
# Elastic Constant Matrix: (Units=GPa)
#
#
# Indices 1 2 3 4 5 6 
#
# 1 65.1651 27.7189 21.8509 0.2403 0.0002 0.0000
# 2 27.7189 65.1651 21.8509 -0.2403 -0.0002 0.0000
# 3 21.8509 21.8509 106.2732 0.0000 0.0000 0.0000
# 4 0.2403 -0.2403 0.0000 3.7810 0.0000 -0.0002
# 5 0.0002 -0.0002 0.0000 0.0000 3.7810 0.2403
# 6 0.0000 0.0000 0.0000 -0.0002 0.2403 18.7231
#
#
#
# Elastic Compliance Matrix: (Units=1/GPa)
#
#
# Indices 1 2 3 4 5 6 
#
# 1 0.019323 -0.007404 -0.002451 -0.001699 -0.000001 0.000000
# 2 -0.007404 0.019323 -0.002451 0.001699 0.000001 0.000000
# 3 -0.002451 -0.002451 0.010417 0.000000 0.000000 0.000000
# 4 -0.001699 0.001699 0.000000 0.264698 0.000000 0.000003
# 5 -0.000001 0.000001 0.000000 0.000000 0.264698 -0.003398
# 6 0.000000 0.000000 0.000000 0.000003 -0.003398 0.053454
#
#
# Mechanical properties :
#
#
# Convention : Reuss Voigt Hill
#
# Bulk Modulus (GPa) = 40.89477 42.16054 41.52766
# Shear Modulus (GPa) = 7.52247 16.26919 11.89583
#
# Velocity S-wave (km/s) = 1.89565 2.78779 2.38383
# Velocity P-wave (km/s) = 4.93222 5.52291 5.23590
#
# Compressibility (1/GPa) = 0.02445300
#
# Stress axis : x y z
#
# Youngs Moduli (GPa) = 51.75187 51.75187 95.99235
#
# Poissons Ratio (x) = 0.38316 0.23525
# Poissons Ratio (y) = 0.38316 0.23525
# Poissons Ratio (z) = 0.12683 0.12683
#
# Static dielectric constant tensor:
#      x y z
#    x 1.777130 0.000000 0.000000 
#    y 0.000000 1.777130 0.000000 
#    z 0.000000 0.000000 1.786920 
# 
# From -- ./inp_files/4369.got.cif
#   From: 2010.05.17/outbox.cif.g08.bks.cpg/sg167_3_cif.got.tgz:4369.got - 2010.05.20 11:09:15.
