data_PCOD9579260
_publ_section_title
;
Structure prediction by ZEFSAII (Michael W. Deem and Ramdas Pophale) SiO2 
 PCOD9579260
Probable space group: R -3 M
;
_chemical_formula_sum "Si O2"
_cell_formula_units_Z 162
_cell_length_a 21.058813
_cell_length_b 21.058813
_cell_length_c 21.283019
_cell_angle_alpha 90.000000
_cell_angle_beta 90.000000
_cell_angle_gamma 120.000000
_cell_volume 8173.943674
_symmetry_space_group_name_H-M "R -3 M"
_symmetry_group_IT_number 166
_symmetry_cell_setting 'hexagonal'
loop_
_space_group_symop_operation_xyz
x,y,z
-y,x-y,z
-x+y,-x,z
x-y,-y,-z
-x,-x+y,-z
y,x,-z
-x,-y,-z
y,-x+y,-z
x-y,x,-z
-x+y,y,z
x,x-y,z
-y,-x,z
2/3+x,1/3+y,1/3+z
2/3-y,1/3+x-y,1/3+z
2/3-x+y,1/3-x,1/3+z
2/3+x-y,1/3-y,1/3-z
2/3-x,1/3-x+y,1/3-z
2/3+y,1/3+x,1/3-z
2/3-x,1/3-y,1/3-z
2/3+y,1/3-x+y,1/3-z
2/3+x-y,1/3+x,1/3-z
2/3-x+y,1/3+y,1/3+z
2/3+x,1/3+x-y,1/3+z
2/3-y,1/3-x,1/3+z
1/3+x,2/3+y,2/3+z
1/3-y,2/3+x-y,2/3+z
1/3-x+y,2/3-x,2/3+z
1/3+x-y,2/3-y,2/3-z
1/3-x,2/3-x+y,2/3-z
1/3+y,2/3+x,2/3-z
1/3-x,2/3-y,2/3-z
1/3+y,2/3-x+y,2/3-z
1/3+x-y,2/3+x,2/3-z
1/3-x+y,2/3+y,2/3+z
1/3+x,2/3+x-y,2/3+z
1/3-y,2/3-x,2/3+z
loop_
_atom_site_type_symbol
_atom_site_label
_atom_site_fract_x
_atom_site_fract_y
_atom_site_fract_z
Si Si1 0.861492 0.288919 0.027434
Si Si2 0.727070 0.791599 0.904292
Si Si3 0.522843 0.898395 0.101714
Si Si4 0.333334 0.526042 0.666667
Si Si5 0.939829 0.736165 0.802109
O O1 0.779466 0.220535 0.030540
O O2 0.913777 0.257912 0.052934
O O3 0.877635 0.353189 0.076543
O O4 0.878646 0.321254 0.957327
O O5 0.719483 0.859742 0.878867
O O6 0.747306 0.750475 0.851693
O O7 0.797975 0.828853 0.947573
O O8 0.439064 0.878128 0.089579
O O9 0.529469 0.862803 0.166667
O O10 0.568716 0.985982 0.111922
O O11 0.268515 0.537030 0.641255
O O12 0.873688 0.747376 0.827301
#
# Coordination Sequence:
#
# PCOD9579260 Si02
#       5
#    36  36  36  18  36
#     4  11  23  40  63  89 123 162 205 258 313 370
#     4  10  22  38  61  90 121 160 203 250 306 368
#     4  11  24  41  64  92 123 161 205 258 318 374
#     4  10  21  36  56  84 121 162 206 248 298 360
#     4  11  23  38  62  92 125 161 202 251 311 374
#
# _framework density 19.819075000000002
#
# number of rings (size 3 to 8) (size 9 to 14) (size 15 to 20)
#    0.000    1.333    0.000    5.444    6.222    3.556 
#    0.000    0.000    0.000   14.222    0.000    0.000 
#    0.000    0.000    0.000    0.000    0.000    0.000 
#
# Total GULP energy -301766.136743 kJ/mol
# GULP energy per Si atom -5588.261792 kJ/mol
# Density = 1.977397 g / cm^3
# Si number density = 19.819075 Si / 1000 Ang^3
#
#
#
# Elastic Constant Matrix: (Units=GPa)
#
#
# Indices 1 2 3 4 5 6 
#
# 1 100.1736 64.4083 44.8353 17.6346 -0.0011 0.0000
# 2 64.4083 100.1736 44.8353 -17.6346 0.0011 0.0000
# 3 44.8353 44.8353 97.2515 0.0000 0.0000 0.0000
# 4 17.6346 -17.6346 0.0000 21.0458 0.0000 0.0011
# 5 -0.0011 0.0011 0.0000 0.0000 21.0458 17.6346
# 6 0.0000 0.0000 0.0000 0.0011 17.6346 17.8826
#
#
#
# Elastic Compliance Matrix: (Units=1/GPa)
#
#
# Indices 1 2 3 4 5 6 
#
# 1 0.084537 -0.076423 -0.003741 -0.134870 0.000009 0.000000
# 2 -0.076423 0.084537 -0.003741 0.134870 -0.000009 0.000000
# 3 -0.003741 -0.003741 0.013732 0.000000 0.000000 0.000000
# 4 -0.134870 0.134870 0.000000 0.273534 0.000000 -0.000017
# 5 0.000009 -0.000009 0.000000 0.000000 0.273534 -0.269740
# 6 0.000000 0.000000 0.000000 -0.000017 -0.269740 0.321919
#
#
# Mechanical properties :
#
#
# Convention : Reuss Voigt Hill
#
# Bulk Modulus (GPa) = 66.68067 67.30629 66.99348
# Shear Modulus (GPa) = 4.08297 21.56284 12.82290
#
# Velocity S-wave (km/s) = 1.43687 3.30204 2.54638
# Velocity P-wave (km/s) = 6.03908 6.96936 6.52083
#
# Compressibility (1/GPa) = 0.01499685
#
# Stress axis : x y z
#
# Youngs Moduli (GPa) = 11.82918 11.82918 72.82343
#
# Poissons Ratio (x) = 0.90402 0.27242
# Poissons Ratio (y) = 0.90402 0.27242
# Poissons Ratio (z) = 0.04425 0.04425
#
# Static dielectric constant tensor:
#      x y z
#    x 1.699020 0.000000 0.000000 
#    y 0.000000 1.699020 0.000000 
#    z 0.000000 0.000000 1.704980 
# 
# From -- ./inp_files/6788.got.cif
#   From: 2010.05.17/outbox.cif.g08.bks.cpg/sg166_4_cif.got.tgz:6788.got - 2010.05.20 11:04:41.
