data_PCOD9579826
_publ_section_title
;
Structure prediction by ZEFSAII (Michael W. Deem and Ramdas Pophale) SiO2 
 PCOD9579826
Probable space group: P 61
;
_chemical_formula_sum "Si O2"
_cell_formula_units_Z 48
_cell_length_a 9.547476
_cell_length_b 9.547476
_cell_length_c 23.155771
_cell_angle_alpha 90.000000
_cell_angle_beta 90.000000
_cell_angle_gamma 120.000000
_cell_volume 1827.961432
_symmetry_space_group_name_H-M "P 61"
_symmetry_group_IT_number 169
_symmetry_cell_setting 'hexagonal'
loop_
_space_group_symop_operation_xyz
x,y,z
x-y,x,1/6+z
-y,x-y,1/3+z
-x,-y,1/2+z
-x+y,-x,2/3+z
y,-x+y,5/6+z
loop_
_atom_site_type_symbol
_atom_site_label
_atom_site_fract_x
_atom_site_fract_y
_atom_site_fract_z
Si Si1 0.751160 0.263673 0.106640
Si Si2 0.910325 0.163107 0.274142
Si Si3 0.680074 0.019782 0.905326
Si Si4 0.843335 0.257840 0.555631
Si Si5 0.522427 0.167900 0.509605
Si Si6 0.992985 0.616876 0.524715
Si Si7 0.062155 0.178536 0.489729
Si Si8 0.569007 0.641596 0.519848
O O1 0.820928 0.311725 0.042242
O O2 0.910479 0.335896 0.147514
O O3 0.668311 0.362416 0.129428
O O4 0.652837 0.077062 0.126671
O O5 0.801184 0.196115 0.319142
O O6 0.001461 0.079196 0.303783
O O7 0.035827 0.331506 0.245587
O O8 0.793277 0.055251 0.222335
O O9 0.623560 0.967550 0.971116
O O10 0.808362 0.975054 0.879138
O O11 0.514675 0.915591 0.867881
O O12 0.747791 0.204592 0.887351
O O13 0.654865 0.141875 0.542765
O O14 0.888628 0.444073 0.558581
O O15 0.899590 0.187145 0.607440
O O16 0.956748 0.262314 0.504145
#
# Coordination Sequence:
#
# PCOD9579826 Si02
#       8
#     6   6   6   6   6   6   6   6
#     4   8  15  29  54  85 119 162 216 267 322 385
#     4  10  19  33  57  91 125 163 220 274 323 386
#     4  11  22  39  66  98 137 182 227 278 350 412
#     4  11  24  41  67 100 139 179 233 289 343 409
#     4  10  22  41  66  95 133 185 231 278 342 420
#     4   9  17  34  57  88 125 171 220 272 329 399
#     4  12  23  38  65 103 137 175 230 292 341 407
#     4   9  18  33  56  88 125 169 215 268 326 394
#
# _framework density 26.258759000000001
#
# number of rings (size 3 to 8) (size 9 to 14) (size 15 to 20)
#    0.000    2.000    0.000    6.000    0.000    0.000 
#    0.000    1.250    0.000   37.500    0.000   10.500 
#    0.000    0.000    0.000    0.000    0.000    0.000 
#
# Total GULP energy -268246.014731 kJ/mol
# GULP energy per Si atom -5588.458640 kJ/mol
# Density = 2.619899 g / cm^3
# Si number density = 26.258759 Si / 1000 Ang^3
#
#
#
# Elastic Constant Matrix: (Units=GPa)
#
#
# Indices 1 2 3 4 5 6 
#
# 1 70.4562 0.3816 24.9650 0.0000 0.0000 0.0000
# 2 0.3816 70.4562 24.9650 0.0000 0.0000 0.0000
# 3 24.9650 24.9650 59.6194 0.0000 0.0000 0.0000
# 4 0.0000 0.0000 0.0000 45.4993 0.0000 0.0000
# 5 0.0000 0.0000 0.0000 0.0000 45.4993 0.0000
# 6 0.0000 0.0000 0.0000 0.0000 0.0000 35.0373
#
#
#
# Elastic Compliance Matrix: (Units=1/GPa)
#
#
# Indices 1 2 3 4 5 6 
#
# 1 0.017149 0.002879 -0.008386 0.000000 0.000000 0.000000
# 2 0.002879 0.017149 -0.008386 0.000000 0.000000 0.000000
# 3 -0.008386 -0.008386 0.023797 0.000000 0.000000 0.000000
# 4 0.000000 0.000000 0.000000 0.021978 0.000000 0.000000
# 5 0.000000 0.000000 0.000000 0.000000 0.021978 0.000000
# 6 0.000000 0.000000 0.000000 0.000000 0.000000 0.028541
#
#
# Mechanical properties :
#
#
# Convention : Reuss Voigt Hill
#
# Bulk Modulus (GPa) = 32.99619 33.46165 33.22892
# Shear Modulus (GPa) = 29.67651 35.22187 32.44919
#
# Velocity S-wave (km/s) = 3.36543 3.66640 3.51913
# Velocity P-wave (km/s) = 5.26256 5.54022 5.40317
#
# Compressibility (1/GPa) = 0.03030653
#
# Stress axis : x y z
#
# Youngs Moduli (GPa) = 58.31164 58.31164 42.02285
#
# Poissons Ratio (x) = -0.16786 0.35242
# Poissons Ratio (y) = -0.16786 0.35242
# Poissons Ratio (z) = 0.48903 0.48903
#
# Static dielectric constant tensor:
#      x y z
#    x 2.087270 0.000000 0.000000 
#    y 0.000000 2.087270 0.000000 
#    z 0.000000 0.000000 2.161300 
# 
# From -- ./inp_files/1562.got.cif
#   From: 2010.05.17/outbox.cif.g08.bks.cpg/sg169_cif.got.tgz:1562.got - 2010.05.20 11:12:54.
