data_PCOD9579594
_publ_section_title
;
Structure prediction by ZEFSAII (Michael W. Deem and Ramdas Pophale) SiO2 
 PCOD9579594
Probable space group: R -3 C 
;
_chemical_formula_sum "Si O2"
_cell_formula_units_Z 120
_cell_length_a 16.020402
_cell_length_b 16.020402
_cell_length_c 25.772041
_cell_angle_alpha 90.000000
_cell_angle_beta 90.000000
_cell_angle_gamma 120.000000
_cell_volume 5728.306727
_symmetry_space_group_name_H-M "R -3 C "
_symmetry_group_IT_number 167
_symmetry_cell_setting 'hexagonal'
loop_
_space_group_symop_operation_xyz
x,y,z
-y,x-y,z
-x+y,-x,z
x-y,-y,1/2-z
-x,-x+y,1/2-z
y,x,1/2-z
-x,-y,-z
y,-x+y,-z
x-y,x,-z
-x+y,y,1/2+z
x,x-y,1/2+z
-y,-x,1/2+z
2/3+x,1/3+y,1/3+z
2/3-y,1/3+x-y,1/3+z
2/3-x+y,1/3-x,1/3+z
2/3+x-y,1/3-y,5/6-z
2/3-x,1/3-x+y,5/6-z
2/3+y,1/3+x,5/6-z
2/3-x,1/3-y,1/3-z
2/3+y,1/3-x+y,1/3-z
2/3+x-y,1/3+x,1/3-z
2/3-x+y,1/3+y,5/6+z
2/3+x,1/3+x-y,5/6+z
2/3-y,1/3-x,5/6+z
1/3+x,2/3+y,2/3+z
1/3-y,2/3+x-y,2/3+z
1/3-x+y,2/3-x,2/3+z
1/3+x-y,2/3-y,1/6-z
1/3-x,2/3-x+y,1/6-z
1/3+y,2/3+x,1/6-z
1/3-x,2/3-y,2/3-z
1/3+y,2/3-x+y,2/3-z
1/3+x-y,2/3+x,2/3-z
1/3-x+y,2/3+y,1/6+z
1/3+x,2/3+x-y,1/6+z
1/3-y,2/3-x,1/6+z
loop_
_atom_site_type_symbol
_atom_site_label
_atom_site_fract_x
_atom_site_fract_y
_atom_site_fract_z
Si Si1 0.333334 0.666667 0.354600
Si Si2 0.392720 0.049354 0.021088
Si Si3 0.456927 0.273919 0.313357
Si Si4 0.137329 0.606531 0.522934
O O1 0.333334 0.666668 0.416667
O O2 0.236527 0.659535 0.332011
O O3 0.394803 0.061470 0.083334
O O4 0.314581 0.077630 0.002912
O O5 0.359192 0.938240 0.007489
O O6 0.500888 0.104845 0.999899
O O7 0.534226 0.383488 0.327025
O O8 0.463476 0.264464 0.251533
#
# Coordination Sequence:
#
# PCOD9579594 Si02
#       4
#    12  36  36  36
#     4  12  24  36  67  95 130 168 213 258 331 377
#     4   9  21  42  65  89 126 169 215 263 320 377
#     4  11  23  40  65  94 128 166 212 261 322 384
#     4  10  22  42  61  92 130 165 212 270 311 377
#
# _framework density 20.948598
#
# number of rings (size 3 to 8) (size 9 to 14) (size 15 to 20)
#    0.000    1.800    0.000    3.000    4.200    1.200 
#    5.400    0.000    0.000    0.000    0.000    0.000 
#    0.000    0.000    0.000    0.000    0.000    0.000 
#
# Total GULP energy -223514.031219 kJ/mol
# GULP energy per Si atom -5587.850780 kJ/mol
# Density = 2.090092 g / cm^3
# Si number density = 20.948598 Si / 1000 Ang^3
#
#
#
# Elastic Constant Matrix: (Units=GPa)
#
#
# Indices 1 2 3 4 5 6 
#
# 1 -25.9997 107.5434 18.3156 24.1710 -0.0328 0.0307
# 2 107.5434 -25.9873 18.3176 -24.1694 0.0323 -0.0288
# 3 18.3156 18.3176 33.6296 0.0001 0.0001 -0.0004
# 4 24.1710 -24.1694 0.0001 20.1018 0.0032 0.0131
# 5 -0.0328 0.0323 0.0001 0.0032 20.0747 24.2523
# 6 0.0307 -0.0288 -0.0004 0.0131 24.2523 -67.0181
#
#
#
# Elastic Compliance Matrix: (Units=1/GPa)
#
#
# Indices 1 2 3 4 5 6 
#
# 1 0.005508 0.010726 -0.008842 0.006274 -0.000006 -0.000003
# 2 0.010726 0.005509 -0.008842 -0.006273 0.000006 0.000003
# 3 -0.008842 -0.008842 0.039368 0.000000 0.000000 0.000000
# 4 0.006274 -0.006273 0.000000 0.034660 0.000000 0.000012
# 5 -0.000006 0.000006 0.000000 0.000000 0.034661 0.012543
# 6 -0.000003 0.000003 0.000000 0.000012 0.012543 -0.010382
#
#
# Mechanical properties :
#
#
# Convention : Reuss Voigt Hill
#
# Bulk Modulus (GPa) = 27.42150 29.99953 28.71051
# Shear Modulus (GPa) = 36.92875 -16.20390 10.36243
#
# Velocity S-wave (km/s) = 4.20316 -2.78422 2.22651
# Velocity P-wave (km/s) = 6.05588 2.00395 4.51052
#
# Compressibility (1/GPa) = 0.03646773
#
# Stress axis : x y z
#
# Youngs Moduli (GPa) = 181.55873 181.51999 25.40160
#
# Poissons Ratio (x) = -1.94698 0.22460
# Poissons Ratio (y) = -1.94740 0.22461
# Poissons Ratio (z) = 1.60535 1.60506
#
# Static dielectric constant tensor:
#      x y z
#    x 1.811850 -0.000010 0.000000 
#    y -0.000010 1.811880 0.000000 
#    z 0.000000 0.000000 1.707190 
# 
# From -- ./inp_files/5989.got.cif
#   From: 2010.05.17/outbox.cif.g08.bks.cpg/sg167_3_cif.got.tgz:5989.got - 2010.05.20 11:09:15.
