data_PCOD9579577
_publ_section_title
;
Structure prediction by ZEFSAII (Michael W. Deem and Ramdas Pophale) SiO2 
 PCOD9579577
Probable space group: R -3 C 
;
_chemical_formula_sum "Si O2"
_cell_formula_units_Z 162
_cell_length_a 17.624462
_cell_length_b 17.624462
_cell_length_c 28.016671
_cell_angle_alpha 90.000000
_cell_angle_beta 90.000000
_cell_angle_gamma 120.000000
_cell_volume 7536.659581
_symmetry_space_group_name_H-M "R -3 C "
_symmetry_group_IT_number 167
_symmetry_cell_setting 'hexagonal'
loop_
_space_group_symop_operation_xyz
x,y,z
-y,x-y,z
-x+y,-x,z
x-y,-y,1/2-z
-x,-x+y,1/2-z
y,x,1/2-z
-x,-y,-z
y,-x+y,-z
x-y,x,-z
-x+y,y,1/2+z
x,x-y,1/2+z
-y,-x,1/2+z
2/3+x,1/3+y,1/3+z
2/3-y,1/3+x-y,1/3+z
2/3-x+y,1/3-x,1/3+z
2/3+x-y,1/3-y,5/6-z
2/3-x,1/3-x+y,5/6-z
2/3+y,1/3+x,5/6-z
2/3-x,1/3-y,1/3-z
2/3+y,1/3-x+y,1/3-z
2/3+x-y,1/3+x,1/3-z
2/3-x+y,1/3+y,5/6+z
2/3+x,1/3+x-y,5/6+z
2/3-y,1/3-x,5/6+z
1/3+x,2/3+y,2/3+z
1/3-y,2/3+x-y,2/3+z
1/3-x+y,2/3-x,2/3+z
1/3+x-y,2/3-y,1/6-z
1/3-x,2/3-x+y,1/6-z
1/3+y,2/3+x,1/6-z
1/3-x,2/3-y,2/3-z
1/3+y,2/3-x+y,2/3-z
1/3+x-y,2/3+x,2/3-z
1/3-x+y,2/3+y,1/6+z
1/3+x,2/3+x-y,1/6+z
1/3-y,2/3-x,1/6+z
loop_
_atom_site_type_symbol
_atom_site_label
_atom_site_fract_x
_atom_site_fract_y
_atom_site_fract_z
Si Si1 0.333334 0.882089 0.916667
Si Si2 0.001279 0.208847 0.146593
Si Si3 0.298197 0.940372 0.469229
Si Si4 0.270392 0.431452 0.063175
Si Si5 0.603687 0.818740 0.743079
O O1 0.337785 0.843056 0.866116
O O2 0.245345 0.888127 0.915601
O O3 0.072146 0.205104 0.112978
O O4 0.019275 0.309192 0.148613
O O5 0.906797 0.154811 0.123502
O O6 0.333334 0.932831 0.416667
O O7 0.306929 0.884155 0.511323
O O8 0.194223 0.901845 0.462236
O O9 0.220536 0.333334 0.083334
O O10 0.352409 0.492372 0.096541
#
# Coordination Sequence:
#
# PCOD9579577 Si02
#       5
#    18  36  36  36  36
#     4  12  20  38  66  96 124 164 212 270 316 388
#     4  11  24  41  63  97 131 168 215 271 325 384
#     4  10  22  38  62  92 127 167 216 267 320 390
#     4  12  23  39  65  95 128 174 217 271 328 387
#     4  11  22  40  63  91 130 167 213 266 326 384
#
# _framework density 21.494935000000002
#
# number of rings (size 3 to 8) (size 9 to 14) (size 15 to 20)
#    0.000    0.889    5.556    2.667    3.111    0.000 
#    1.333    0.000    0.000    0.000    2.889    3.111 
#    0.000    0.000    0.000    0.000    0.000    0.000 
#
# Total GULP energy -301570.213488 kJ/mol
# GULP energy per Si atom -5584.633583 kJ/mol
# Density = 2.144601 g / cm^3
# Si number density = 21.494935 Si / 1000 Ang^3
#
#
#
# Elastic Constant Matrix: (Units=GPa)
#
#
# Indices 1 2 3 4 5 6 
#
# 1 96.5230 27.9488 13.7333 13.6063 -0.0002 0.0000
# 2 27.9488 96.5230 13.7333 -13.6063 0.0002 0.0000
# 3 13.7333 13.7333 63.7404 0.0000 0.0000 0.0000
# 4 13.6063 -13.6063 0.0000 19.1233 0.0000 0.0002
# 5 -0.0002 0.0002 0.0000 0.0000 19.1233 13.6063
# 6 0.0000 0.0000 0.0000 0.0002 13.6063 34.2871
#
#
#
# Elastic Compliance Matrix: (Units=1/GPa)
#
#
# Indices 1 2 3 4 5 6 
#
# 1 0.014378 -0.005943 -0.001817 -0.014458 0.000000 0.000000
# 2 -0.005943 0.014378 -0.001817 0.014458 0.000000 0.000000
# 3 -0.001817 -0.001817 0.016472 0.000000 0.000000 0.000000
# 4 -0.014458 0.014458 0.000000 0.072866 0.000000 0.000000
# 5 0.000000 0.000000 0.000000 0.000000 0.072866 -0.028916
# 6 0.000000 0.000000 0.000000 0.000000 -0.028916 0.040640
#
#
# Mechanical properties :
#
#
# Convention : Reuss Voigt Hill
#
# Bulk Modulus (GPa) = 38.35495 40.84634 39.60065
# Shear Modulus (GPa) = 19.27194 27.93148 23.60171
#
# Velocity S-wave (km/s) = 2.99754 3.60869 3.31722
# Velocity P-wave (km/s) = 5.46469 6.03387 5.75632
#
# Compressibility (1/GPa) = 0.02607225
#
# Stress axis : x y z
#
# Youngs Moduli (GPa) = 69.55278 69.55278 60.70993
#
# Poissons Ratio (x) = 0.41332 0.11033
# Poissons Ratio (y) = 0.41332 0.11033
# Poissons Ratio (z) = 0.12640 0.12640
#
# Static dielectric constant tensor:
#      x y z
#    x 1.791910 0.000000 0.000000 
#    y 0.000000 1.791910 0.000000 
#    z 0.000000 0.000000 1.834110 
# 
# From -- ./inp_files/6267.got.cif
#   From: 2010.05.17/outbox.cif.g08.bks.cpg/sg167_4_cif.got.tgz:6267.got - 2010.05.20 11:09:15.
