data_PCOD9579183
_publ_section_title
;
Structure prediction by ZEFSAII (Michael W. Deem and Ramdas Pophale) SiO2 
 PCOD9579183
Probable space group: R -3 M
;
_chemical_formula_sum "Si O2"
_cell_formula_units_Z 108
_cell_length_a 12.859162
_cell_length_b 12.859162
_cell_length_c 46.731453
_cell_angle_alpha 90.000000
_cell_angle_beta 90.000000
_cell_angle_gamma 120.000000
_cell_volume 6692.143600
_symmetry_space_group_name_H-M "R -3 M"
_symmetry_group_IT_number 166
_symmetry_cell_setting 'hexagonal'
loop_
_space_group_symop_operation_xyz
x,y,z
-y,x-y,z
-x+y,-x,z
x-y,-y,-z
-x,-x+y,-z
y,x,-z
-x,-y,-z
y,-x+y,-z
x-y,x,-z
-x+y,y,z
x,x-y,z
-y,-x,z
2/3+x,1/3+y,1/3+z
2/3-y,1/3+x-y,1/3+z
2/3-x+y,1/3-x,1/3+z
2/3+x-y,1/3-y,1/3-z
2/3-x,1/3-x+y,1/3-z
2/3+y,1/3+x,1/3-z
2/3-x,1/3-y,1/3-z
2/3+y,1/3-x+y,1/3-z
2/3+x-y,1/3+x,1/3-z
2/3-x+y,1/3+y,1/3+z
2/3+x,1/3+x-y,1/3+z
2/3-y,1/3-x,1/3+z
1/3+x,2/3+y,2/3+z
1/3-y,2/3+x-y,2/3+z
1/3-x+y,2/3-x,2/3+z
1/3+x-y,2/3-y,2/3-z
1/3-x,2/3-x+y,2/3-z
1/3+y,2/3+x,2/3-z
1/3-x,2/3-y,2/3-z
1/3+y,2/3-x+y,2/3-z
1/3+x-y,2/3+x,2/3-z
1/3-x+y,2/3+y,2/3+z
1/3+x,2/3+x-y,2/3+z
1/3-y,2/3-x,2/3+z
loop_
_atom_site_type_symbol
_atom_site_label
_atom_site_fract_x
_atom_site_fract_y
_atom_site_fract_z
Si Si1 0.419437 0.333213 0.639445
Si Si2 0.246804 0.246416 0.081369
Si Si3 0.666507 0.578722 0.865998
O O1 0.434060 0.217030 0.635324
O O2 0.547994 0.452007 0.644140
O O3 0.333334 0.307111 0.666667
O O4 0.360407 0.356504 0.611612
O O5 0.121850 0.243699 0.076382
O O6 0.303844 0.320618 0.110397
O O7 0.225901 0.112951 0.083780
O O8 0.773692 0.547383 0.867395
O O9 0.539748 0.460253 0.871637
O O10 0.666667 0.619422 0.833334
#
# Coordination Sequence:
#
# PCOD9579183 Si02
#       3
#    36  36  36
#     4  10  20  34  52  73  97 124 155 192 234 279
#     4  10  20  33  49  69  95 127 161 195 231 274
#     4   9  17  30  49  72  96 122 154 194 239 283
#
# _framework density 16.138325999999999
#
# number of rings (size 3 to 8) (size 9 to 14) (size 15 to 20)
#    0.000    2.333    0.000    3.000    0.000    2.000 
#    0.000    0.000    0.000   16.667    0.000    0.000 
#    0.000    0.000    0.000    0.000    0.000    0.000 
#
# Total GULP energy -200817.322737 kJ/mol
# GULP energy per Si atom -5578.258965 kJ/mol
# Density = 1.610159 g / cm^3
# Si number density = 16.138326 Si / 1000 Ang^3
#
#
#
# Elastic Constant Matrix: (Units=GPa)
#
#
# Indices 1 2 3 4 5 6 
#
# 1 121.8047 82.5510 91.2429 4.3921 0.0001 0.0000
# 2 82.5510 121.8047 91.2429 -4.3921 -0.0001 0.0000
# 3 91.2429 91.2429 130.5467 0.0000 0.0000 0.0000
# 4 4.3921 -4.3921 0.0000 26.5561 0.0000 -0.0001
# 5 0.0001 -0.0001 0.0000 0.0000 26.5561 4.3921
# 6 0.0000 0.0000 0.0000 -0.0001 4.3921 19.6268
#
#
#
# Elastic Compliance Matrix: (Units=1/GPa)
#
#
# Indices 1 2 3 4 5 6 
#
# 1 0.019737 -0.006718 -0.009099 -0.004375 0.000000 0.000000
# 2 -0.006718 0.019737 -0.009099 0.004375 0.000000 0.000000
# 3 -0.009099 -0.009099 0.020380 0.000000 0.000000 0.000000
# 4 -0.004375 0.004375 0.000000 0.039103 0.000000 0.000000
# 5 0.000000 0.000000 0.000000 0.000000 0.039103 -0.008751
# 6 0.000000 0.000000 0.000000 0.000000 -0.008751 0.052909
#
#
# Mechanical properties :
#
#
# Convention : Reuss Voigt Hill
#
# Bulk Modulus (GPa) = 99.79777 100.46999 100.13388
# Shear Modulus (GPa) = 20.47992 21.82243 21.15117
#
# Velocity S-wave (km/s) = 3.56620 3.68123 3.62417
# Velocity P-wave (km/s) = 8.88427 8.96991 8.92719
#
# Compressibility (1/GPa) = 0.01002026
#
# Stress axis : x y z
#
# Youngs Moduli (GPa) = 50.66700 50.66700 49.06850
#
# Poissons Ratio (x) = 0.34037 0.44649
# Poissons Ratio (y) = 0.34037 0.44649
# Poissons Ratio (z) = 0.46104 0.46104
#
# Static dielectric constant tensor:
#      x y z
#    x 1.511400 0.000000 0.000000 
#    y 0.000000 1.511400 0.000000 
#    z 0.000000 0.000000 1.526340 
# 
# From -- ./inp_files/10096.got.cif
#   From: 2010.05.17/outbox.cif.g08.bks.cpg/sg166_6_cif.got.tgz:10096.got - 2010.05.20 11:04:41.
