data_PCOD9579979
_publ_section_title
;
Structure prediction by ZEFSAII (Michael W. Deem and Ramdas Pophale) SiO2 
 PCOD9579979
Probable space group: P 61
;
_chemical_formula_sum "Si O2"
_cell_formula_units_Z 36
_cell_length_a 15.569271
_cell_length_b 15.569271
_cell_length_c 8.005640
_cell_angle_alpha 90.000000
_cell_angle_beta 90.000000
_cell_angle_gamma 120.000000
_cell_volume 1680.595687
_symmetry_space_group_name_H-M "P 61"
_symmetry_group_IT_number 169
_symmetry_cell_setting 'hexagonal'
loop_
_space_group_symop_operation_xyz
x,y,z
x-y,x,1/6+z
-y,x-y,1/3+z
-x,-y,1/2+z
-x+y,-x,2/3+z
y,-x+y,5/6+z
loop_
_atom_site_type_symbol
_atom_site_label
_atom_site_fract_x
_atom_site_fract_y
_atom_site_fract_z
Si Si1 0.964234 0.489125 0.958580
Si Si2 0.151333 0.572502 0.125339
Si Si3 0.213674 0.470748 0.544627
Si Si4 0.789881 0.172153 0.366903
Si Si5 0.008770 0.186642 0.071468
Si Si6 0.115277 0.731199 0.521346
O O1 0.928484 0.451546 0.771599
O O2 0.884815 0.519770 0.027160
O O3 0.940925 0.386083 0.040498
O O4 0.082378 0.563693 0.968489
O O5 0.246760 0.679499 0.162783
O O6 0.171975 0.482432 0.144702
O O7 0.207214 0.399351 0.391755
O O8 0.229034 0.436879 0.726883
O O9 0.789556 0.068800 0.363429
O O10 0.857700 0.228532 0.209109
O O11 0.922723 0.087703 0.151918
O O12 0.956423 0.230217 0.951020
#
# Coordination Sequence:
#
# PCOD9579979 Si02
#       6
#     6   6   6   6   6   6
#     4  10  22  38  61  92 129 168 213 257 314 382
#     4  10  22  38  61  92 129 168 213 257 314 382
#     4  10  24  38  60 100 130 164 222 262 308 388
#     4  10  22  40  65  90 127 173 206 263 324 382
#     4  10  22  44  66  92 126 166 218 270 332 390
#     4  10  22  40  65  90 127 173 206 263 324 382
#
# _framework density 21.420978999999999
#
# number of rings (size 3 to 8) (size 9 to 14) (size 15 to 20)
#    0.000    2.000    1.667    0.000    4.667    6.667 
#    3.000    0.000    0.000    0.000    0.000    0.000 
#    0.000    0.000    0.000    0.000    0.000    0.000 
#
# Total GULP energy -200415.937419 kJ/mol
# GULP energy per Si atom -5567.109373 kJ/mol
# Density = 2.137222 g / cm^3
# Si number density = 21.420979 Si / 1000 Ang^3
#
#
#
# Elastic Constant Matrix: (Units=GPa)
#
#
# Indices 1 2 3 4 5 6 
#
# 1 80.3570 16.4887 4.1606 0.0000 0.0000 0.0000
# 2 16.4887 80.3570 4.1606 0.0000 0.0000 0.0000
# 3 4.1606 4.1606 58.5605 0.0000 0.0000 0.0000
# 4 0.0000 0.0000 0.0000 23.9302 0.0000 0.0000
# 5 0.0000 0.0000 0.0000 0.0000 23.9302 0.0000
# 6 0.0000 0.0000 0.0000 0.0000 0.0000 31.9342
#
#
#
# Elastic Compliance Matrix: (Units=1/GPa)
#
#
# Indices 1 2 3 4 5 6 
#
# 1 0.013023 -0.002634 -0.000738 0.000000 0.000000 0.000000
# 2 -0.002634 0.013023 -0.000738 0.000000 0.000000 0.000000
# 3 -0.000738 -0.000738 0.017181 0.000000 0.000000 0.000000
# 4 0.000000 0.000000 0.000000 0.041788 0.000000 0.000000
# 5 0.000000 0.000000 0.000000 0.000000 0.041788 0.000000
# 6 0.000000 0.000000 0.000000 0.000000 0.000000 0.031314
#
#
# Mechanical properties :
#
#
# Convention : Reuss Voigt Hill
#
# Bulk Modulus (GPa) = 28.56574 29.87716 29.22145
# Shear Modulus (GPa) = 28.08865 28.92324 28.50594
#
# Velocity S-wave (km/s) = 3.62507 3.67853 3.65190
# Velocity P-wave (km/s) = 5.55751 5.65863 5.60829
#
# Compressibility (1/GPa) = 0.03500697
#
# Stress axis : x y z
#
# Youngs Moduli (GPa) = 76.78627 76.78627 58.20297
#
# Poissons Ratio (x) = 0.20226 0.04296
# Poissons Ratio (y) = 0.20226 0.04296
# Poissons Ratio (z) = 0.05668 0.05668
#
# Static dielectric constant tensor:
#      x y z
#    x 1.845430 0.000000 0.000000 
#    y 0.000000 1.845430 0.000000 
#    z 0.000000 0.000000 1.891220 
# 
# From -- ./inp_files/606.got.cif
#   From: 2010.05.17/outbox.cif.g08.bks.cpg/sg169_cif.got.tgz:606.got - 2010.05.20 11:12:54.
