data_PCOD9579898
_publ_section_title
;
Structure prediction by ZEFSAII (Michael W. Deem and Ramdas Pophale) SiO2 
 PCOD9579898
Probable space group: P 61
;
_chemical_formula_sum "Si O2"
_cell_formula_units_Z 36
_cell_length_a 14.085514
_cell_length_b 14.085514
_cell_length_c 9.048255
_cell_angle_alpha 90.000000
_cell_angle_beta 90.000000
_cell_angle_gamma 120.000000
_cell_volume 1554.679466
_symmetry_space_group_name_H-M "P 61"
_symmetry_group_IT_number 169
_symmetry_cell_setting 'hexagonal'
loop_
_space_group_symop_operation_xyz
x,y,z
x-y,x,1/6+z
-y,x-y,1/3+z
-x,-y,1/2+z
-x+y,-x,2/3+z
y,-x+y,5/6+z
loop_
_atom_site_type_symbol
_atom_site_label
_atom_site_fract_x
_atom_site_fract_y
_atom_site_fract_z
Si Si1 0.228131 0.639256 0.054110
Si Si2 0.825124 0.619320 0.709687
Si Si3 0.410905 0.057645 0.806547
Si Si4 0.540723 0.353860 0.598198
Si Si5 0.127835 0.701129 0.306378
Si Si6 0.941233 0.159469 0.627527
O O1 0.349315 0.658209 0.083571
O O2 0.157690 0.629068 0.198265
O O3 0.231137 0.741571 0.968556
O O4 0.172478 0.538044 0.940684
O O5 0.758335 0.619327 0.564646
O O6 0.851565 0.720856 0.816287
O O7 0.937592 0.622089 0.679396
O O8 0.533348 0.095694 0.862246
O O9 0.422415 0.077722 0.631803
O O10 0.447119 0.249144 0.515698
O O11 0.055709 0.740623 0.218418
O O12 0.055384 0.177189 0.567857
#
# Coordination Sequence:
#
# PCOD9579898 Si02
#       6
#     6   6   6   6   6   6
#     4  10  20  38  66  98 141 188 225 285 352 423
#     4  10  23  43  70  99 141 181 234 297 358 429
#     4  11  23  43  68 104 141 189 239 292 366 436
#     4  11  20  41  69  99 142 191 230 283 359 430
#     4  11  23  40  69 105 141 178 237 300 351 435
#     4  11  25  51  72 101 138 185 237 305 378 433
#
# _framework density 23.155898000000001
#
# number of rings (size 3 to 8) (size 9 to 14) (size 15 to 20)
#    0.000    1.333    5.000    0.000    2.333    0.000 
#    6.000    3.333    0.000    0.000    0.000    0.000 
#    0.000    0.000    0.000    0.000    0.000    0.000 
#
# Total GULP energy -201469.158371 kJ/mol
# GULP energy per Si atom -5596.365510 kJ/mol
# Density = 2.310319 g / cm^3
# Si number density = 23.155898 Si / 1000 Ang^3
#
#
#
# Elastic Constant Matrix: (Units=GPa)
#
#
# Indices 1 2 3 4 5 6 
#
# 1 91.9084 26.3195 27.2825 0.0000 0.0000 0.0000
# 2 26.3195 91.9084 27.2825 0.0000 0.0000 0.0000
# 3 27.2825 27.2825 153.1701 0.0000 0.0000 0.0000
# 4 0.0000 0.0000 0.0000 35.5556 0.0000 0.0000
# 5 0.0000 0.0000 0.0000 0.0000 35.5556 0.0000
# 6 0.0000 0.0000 0.0000 0.0000 0.0000 32.7944
#
#
#
# Elastic Compliance Matrix: (Units=1/GPa)
#
#
# Indices 1 2 3 4 5 6 
#
# 1 0.012231 -0.003015 -0.001642 0.000000 0.000000 0.000000
# 2 -0.003015 0.012231 -0.001642 0.000000 0.000000 0.000000
# 3 -0.001642 -0.001642 0.007113 0.000000 0.000000 0.000000
# 4 0.000000 0.000000 0.000000 0.028125 0.000000 0.000000
# 5 0.000000 0.000000 0.000000 0.000000 0.028125 0.000000
# 6 0.000000 0.000000 0.000000 0.000000 0.000000 0.030493
#
#
# Mechanical properties :
#
#
# Convention : Reuss Voigt Hill
#
# Bulk Modulus (GPa) = 52.68963 55.41735 54.05349
# Shear Modulus (GPa) = 36.43203 37.85459 37.14331
#
# Velocity S-wave (km/s) = 3.97083 4.04762 4.00941
# Velocity P-wave (km/s) = 6.62020 6.76968 6.69536
#
# Compressibility (1/GPa) = 0.01897907
#
# Stress axis : x y z
#
# Youngs Moduli (GPa) = 81.75835 81.75835 140.57857
#
# Poissons Ratio (x) = 0.24653 0.23076
# Poissons Ratio (y) = 0.24653 0.23076
# Poissons Ratio (z) = 0.13421 0.13421
#
# Static dielectric constant tensor:
#      x y z
#    x 1.873550 0.000000 0.000000 
#    y 0.000000 1.873550 0.000000 
#    z 0.000000 0.000000 1.908250 
# 
# From -- ./inp_files/607.got.cif
#   From: 2010.05.17/outbox.cif.g08.bks.cpg/sg169_cif.got.tgz:607.got - 2010.05.20 11:12:54.
