data_PCOD9579878
_publ_section_title
;
Structure prediction by ZEFSAII (Michael W. Deem and Ramdas Pophale) SiO2 
 PCOD9579878
Probable space group: P 61
;
_chemical_formula_sum "Si O2"
_cell_formula_units_Z 36
_cell_length_a 12.669503
_cell_length_b 12.669503
_cell_length_c 9.961901
_cell_angle_alpha 90.000000
_cell_angle_beta 90.000000
_cell_angle_gamma 120.000000
_cell_volume 1384.815802
_symmetry_space_group_name_H-M "P 61"
_symmetry_group_IT_number 169
_symmetry_cell_setting 'hexagonal'
loop_
_space_group_symop_operation_xyz
x,y,z
x-y,x,1/6+z
-y,x-y,1/3+z
-x,-y,1/2+z
-x+y,-x,2/3+z
y,-x+y,5/6+z
loop_
_atom_site_type_symbol
_atom_site_label
_atom_site_fract_x
_atom_site_fract_y
_atom_site_fract_z
Si Si1 0.663436 0.301061 0.750000
Si Si2 0.613116 0.549601 0.151223
Si Si3 0.297062 0.926939 0.239669
Si Si4 0.054656 0.828998 0.416196
Si Si5 0.993754 0.359848 0.288718
Si Si6 0.469659 0.276108 0.894961
O O1 0.801057 0.365482 0.820472
O O2 0.652653 0.167802 0.741754
O O3 0.523867 0.282399 0.748359
O O4 0.713492 0.390346 0.615615
O O5 0.644710 0.607183 0.000516
O O6 0.691017 0.660149 0.253363
O O7 0.470469 0.493768 0.176352
O O8 0.167313 0.881870 0.310386
O O9 0.282131 0.951378 0.085119
O O10 0.112331 0.927299 0.534267
O O11 0.079609 0.415749 0.160288
O O12 0.865776 0.247039 0.253404
#
# Coordination Sequence:
#
# PCOD9579878 Si02
#       6
#     6   6   6   6   6   6
#     4  10  20  36  59  92 131 169 213 271 338 414
#     4   9  19  37  61  94 126 167 216 273 342 406
#     4  10  20  37  61  94 130 166 219 279 341 408
#     4   9  19  35  64  92 121 168 226 271 325 396
#     4  11  24  37  61  94 136 172 219 279 346 418
#     4  11  24  38  60  94 134 178 221 275 346 416
#
# _framework density 25.996236
#
# number of rings (size 3 to 8) (size 9 to 14) (size 15 to 20)
#    0.000    2.000    1.667    2.000   11.667    0.000 
#    0.000    0.000    0.000    4.000    0.000    0.000 
#    0.000    0.000    0.000    0.000    0.000    0.000 
#
# Total GULP energy -200570.164221 kJ/mol
# GULP energy per Si atom -5571.393451 kJ/mol
# Density = 2.593707 g / cm^3
# Si number density = 25.996236 Si / 1000 Ang^3
#
#
#
# Elastic Constant Matrix: (Units=GPa)
#
#
# Indices 1 2 3 4 5 6 
#
# 1 90.1088 21.4072 21.6781 0.0000 0.0000 0.0000
# 2 21.4072 90.1088 21.6781 0.0000 0.0000 0.0000
# 3 21.6781 21.6781 43.2179 0.0000 0.0000 0.0000
# 4 0.0000 0.0000 0.0000 32.8592 0.0000 0.0000
# 5 0.0000 0.0000 0.0000 0.0000 32.8592 0.0000
# 6 0.0000 0.0000 0.0000 0.0000 0.0000 34.3508
#
#
#
# Elastic Compliance Matrix: (Units=1/GPa)
#
#
# Indices 1 2 3 4 5 6 
#
# 1 0.012848 -0.001708 -0.005588 0.000000 0.000000 0.000000
# 2 -0.001708 0.012848 -0.005588 0.000000 0.000000 0.000000
# 3 -0.005588 -0.005588 0.028744 0.000000 0.000000 0.000000
# 4 0.000000 0.000000 0.000000 0.030433 0.000000 0.000000
# 5 0.000000 0.000000 0.000000 0.000000 0.030433 0.000000
# 6 0.000000 0.000000 0.000000 0.000000 0.000000 0.029111
#
#
# Mechanical properties :
#
#
# Convention : Reuss Voigt Hill
#
# Bulk Modulus (GPa) = 34.87620 39.21803 37.04712
# Shear Modulus (GPa) = 27.81779 30.59198 29.20489
#
# Velocity S-wave (km/s) = 3.27474 3.43415 3.35539
# Velocity P-wave (km/s) = 5.26722 5.55368 5.41234
#
# Compressibility (1/GPa) = 0.02867285
#
# Stress axis : x y z
#
# Youngs Moduli (GPa) = 77.83479 77.83479 34.78970
#
# Poissons Ratio (x) = 0.13294 0.19439
# Poissons Ratio (y) = 0.13294 0.19439
# Poissons Ratio (z) = 0.43492 0.43492
#
# Static dielectric constant tensor:
#      x y z
#    x 2.019510 0.000000 0.000000 
#    y 0.000000 2.019510 0.000000 
#    z 0.000000 0.000000 2.685380 
# 
# From -- ./inp_files/897.got.cif
#   From: 2010.05.17/outbox.cif.g08.bks.cpg/sg169_cif.got.tgz:897.got - 2010.05.20 11:12:54.
