data_PCOD9579580
_publ_section_title
;
Structure prediction by ZEFSAII (Michael W. Deem and Ramdas Pophale) SiO2 
 PCOD9579580
Probable space group: R -3 C 
;
_chemical_formula_sum "Si O2"
_cell_formula_units_Z 210
_cell_length_a 28.132576
_cell_length_b 28.132576
_cell_length_c 16.058698
_cell_angle_alpha 90.000000
_cell_angle_beta 90.000000
_cell_angle_gamma 120.000000
_cell_volume 11006.771841
_symmetry_space_group_name_H-M "R -3 C "
_symmetry_group_IT_number 167
_symmetry_cell_setting 'hexagonal'
loop_
_space_group_symop_operation_xyz
x,y,z
-y,x-y,z
-x+y,-x,z
x-y,-y,1/2-z
-x,-x+y,1/2-z
y,x,1/2-z
-x,-y,-z
y,-x+y,-z
x-y,x,-z
-x+y,y,1/2+z
x,x-y,1/2+z
-y,-x,1/2+z
2/3+x,1/3+y,1/3+z
2/3-y,1/3+x-y,1/3+z
2/3-x+y,1/3-x,1/3+z
2/3+x-y,1/3-y,5/6-z
2/3-x,1/3-x+y,5/6-z
2/3+y,1/3+x,5/6-z
2/3-x,1/3-y,1/3-z
2/3+y,1/3-x+y,1/3-z
2/3+x-y,1/3+x,1/3-z
2/3-x+y,1/3+y,5/6+z
2/3+x,1/3+x-y,5/6+z
2/3-y,1/3-x,5/6+z
1/3+x,2/3+y,2/3+z
1/3-y,2/3+x-y,2/3+z
1/3-x+y,2/3-x,2/3+z
1/3+x-y,2/3-y,1/6-z
1/3-x,2/3-x+y,1/6-z
1/3+y,2/3+x,1/6-z
1/3-x,2/3-y,2/3-z
1/3+y,2/3-x+y,2/3-z
1/3+x-y,2/3+x,2/3-z
1/3-x+y,2/3+y,1/6+z
1/3+x,2/3+x-y,1/6+z
1/3-y,2/3-x,1/6+z
loop_
_atom_site_type_symbol
_atom_site_label
_atom_site_fract_x
_atom_site_fract_y
_atom_site_fract_z
Si Si1 0.539127 0.938366 0.906867
Si Si2 0.055079 0.109060 0.551754
Si Si3 0.000000 0.000000 0.654007
Si Si4 0.676505 0.747077 0.905780
Si Si5 0.428751 0.886966 0.813823
Si Si6 0.333334 0.057316 0.916667
Si Si7 0.126519 0.793186 0.583334
Si Si8 0.443341 0.110007 0.583334
O O1 0.570600 0.903933 0.916667
O O2 0.476436 0.900222 0.880257
O O3 0.571911 0.983936 0.833641
O O4 0.542876 0.962949 0.998528
O O5 0.095708 0.095922 0.497686
O O6 0.086371 0.168086 0.592196
O O7 0.032623 0.061388 0.620179
O O8 0.000000 0.000000 0.750000
O O9 0.711810 0.717131 0.923329
O O10 0.614885 0.706048 0.871337
O O11 0.669297 0.766633 0.995920
O O12 0.373248 0.878690 0.858456
O O13 0.456029 0.941579 0.757177
#
# Coordination Sequence:
#
# PCOD9579580 Si02
#       8
#    36  36  12  36  36  18  18  18
#     4  10  22  39  61  91 125 164 211 271 314 374
#     4   9  21  43  64  91 126 163 214 266 327 395
#     4   9  19  38  70  93 118 167 211 264 325 398
#     4   9  20  39  62  88 123 169 217 252 316 383
#     4  11  23  42  58  94 129 162 215 265 327 386
#     4   9  19  34  64  90 120 168 214 254 306 378
#     4  10  23  38  61  90 126 172 207 264 315 388
#     4   9  22  38  59  86 124 162 205 260 313 390
#
# _framework density 19.079163000000001
#
# number of rings (size 3 to 8) (size 9 to 14) (size 15 to 20)
#    0.000    2.400    0.000    1.200    9.600    6.171 
#    9.257    0.000    0.000    0.000    0.000    0.000 
#    0.000    0.000    0.000    0.000    0.000    0.000 
#
# Total GULP energy -389821.466685 kJ/mol
# GULP energy per Si atom -5568.878096 kJ/mol
# Density = 1.903574 g / cm^3
# Si number density = 19.079163 Si / 1000 Ang^3
#
#
#
# Elastic Constant Matrix: (Units=GPa)
#
#
# Indices 1 2 3 4 5 6 
#
# 1 71.1196 82.0755 60.9142 -36.0513 -0.0001 0.0000
# 2 82.0755 71.1196 60.9142 36.0513 0.0001 0.0000
# 3 60.9142 60.9142 130.6771 0.0000 0.0000 0.0000
# 4 -36.0513 36.0513 0.0000 -18.4006 0.0000 0.0001
# 5 -0.0001 0.0001 0.0000 0.0000 -18.4005 -36.0513
# 6 0.0000 0.0000 0.0000 0.0001 -36.0513 -5.4779
#
#
#
# Elastic Compliance Matrix: (Units=1/GPa)
#
#
# Indices 1 2 3 4 5 6 
#
# 1 0.009023 0.001349 -0.004835 -0.015035 0.000000 0.000000
# 2 0.001349 0.009023 -0.004835 0.015035 0.000000 0.000000
# 3 -0.004835 -0.004835 0.012160 0.000000 0.000000 0.000000
# 4 -0.015035 0.015035 0.000000 0.004569 0.000000 0.000000
# 5 0.000000 0.000000 0.000000 0.000000 0.004569 -0.030070
# 6 0.000000 0.000000 0.000000 0.000000 -0.030070 0.015348
#
#
# Mechanical properties :
#
#
# Convention : Reuss Voigt Hill
#
# Bulk Modulus (GPa) = 73.71892 75.63601 74.67746
# Shear Modulus (GPa) = 65.91363 -3.85498 31.02933
#
# Velocity S-wave (km/s) = 5.88408 -1.42299 4.03717
# Velocity P-wave (km/s) = 9.21334 6.08518 7.80753
#
# Compressibility (1/GPa) = 0.01356504
#
# Stress axis : x y z
#
# Youngs Moduli (GPa) = 110.82310 110.82312 82.23501
#
# Poissons Ratio (x) = -0.14955 0.39763
# Poissons Ratio (y) = -0.14955 0.39763
# Poissons Ratio (z) = 0.53586 0.53586
#
# Static dielectric constant tensor:
#      x y z
#    x 1.700630 0.000000 0.000000 
#    y 0.000000 1.700630 0.000000 
#    z 0.000000 0.000000 1.665110 
# 
# From -- ./inp_files/2546.got.cif
#   From: 2010.05.17/outbox.cif.g08.bks.cpg/sg167_2_cif.got.tgz:2546.got - 2010.05.20 11:09:15.
