data_PCOD9579828
_publ_section_title
;
Structure prediction by ZEFSAII (Michael W. Deem and Ramdas Pophale) SiO2 
 PCOD9579828
Probable space group: P 61
;
_chemical_formula_sum "Si O2"
_cell_formula_units_Z 42
_cell_length_a 11.197089
_cell_length_b 11.197089
_cell_length_c 22.117708
_cell_angle_alpha 90.000000
_cell_angle_beta 90.000000
_cell_angle_gamma 120.000000
_cell_volume 2401.491270
_symmetry_space_group_name_H-M "P 61"
_symmetry_group_IT_number 169
_symmetry_cell_setting 'hexagonal'
loop_
_space_group_symop_operation_xyz
x,y,z
x-y,x,1/6+z
-y,x-y,1/3+z
-x,-y,1/2+z
-x+y,-x,2/3+z
y,-x+y,5/6+z
loop_
_atom_site_type_symbol
_atom_site_label
_atom_site_fract_x
_atom_site_fract_y
_atom_site_fract_z
Si Si1 0.037487 0.375215 0.587020
Si Si2 0.507579 0.997336 0.491964
Si Si3 0.673434 0.577304 0.043073
Si Si4 0.288922 0.523345 0.351886
Si Si5 0.554932 0.883057 0.211588
Si Si6 0.563803 0.663588 0.278098
Si Si7 0.308500 0.685245 0.808675
O O1 0.170835 0.374476 0.562610
O O2 0.070866 0.532982 0.582241
O O3 0.000457 0.328824 0.655889
O O4 0.902896 0.294096 0.544753
O O5 0.431126 0.016869 0.434559
O O6 0.654558 0.136197 0.497734
O O7 0.427665 0.986218 0.554349
O O8 0.498346 0.849348 0.482188
O O9 0.610194 0.423668 0.013933
O O10 0.404273 0.595466 0.300074
O O11 0.340918 0.632768 0.407377
O O12 0.618919 0.817565 0.255439
O O13 0.448321 0.756969 0.169245
O O14 0.652099 0.005570 0.167529
#
# Coordination Sequence:
#
# PCOD9579828 Si02
#       7
#     6   6   6   6   6   6   6
#     4   9  20  35  55  79 113 142 182 229 281 322
#     4  11  20  30  55  80 111 142 181 222 271 330
#     4  10  21  35  53  84 114 143 180 229 278 333
#     4  10  19  34  54  77 118 141 177 233 276 326
#     4   9  17  33  50  78 111 144 178 224 277 324
#     4  10  20  31  53  80 116 144 179 227 280 331
#     4   9  19  34  50  82 113 142 183 220 281 324
#
# _framework density 17.489132000000001
#
# number of rings (size 3 to 8) (size 9 to 14) (size 15 to 20)
#    0.000    2.286    1.429    2.571    6.000    0.000 
#    0.000    0.000    0.000    0.000    0.000   42.000 
#    0.000    0.000    0.000    0.000    0.000    0.000 
#
# Total GULP energy -234187.829402 kJ/mol
# GULP energy per Si atom -5575.900700 kJ/mol
# Density = 1.744933 g / cm^3
# Si number density = 17.489132 Si / 1000 Ang^3
#
#
#
# Elastic Constant Matrix: (Units=GPa)
#
#
# Indices 1 2 3 4 5 6 
#
# 1 68.1845 35.3897 43.8621 0.0000 0.0000 0.0000
# 2 35.3897 68.1845 43.8621 0.0000 0.0000 0.0000
# 3 43.8621 43.8621 110.9272 0.0000 0.0000 0.0000
# 4 0.0000 0.0000 0.0000 23.6164 0.0000 0.0000
# 5 0.0000 0.0000 0.0000 0.0000 23.6164 0.0000
# 6 0.0000 0.0000 0.0000 0.0000 0.0000 16.3974
#
#
#
# Elastic Compliance Matrix: (Units=1/GPa)
#
#
# Indices 1 2 3 4 5 6 
#
# 1 0.022505 -0.007988 -0.005740 0.000000 0.000000 0.000000
# 2 -0.007988 0.022505 -0.005740 0.000000 0.000000 0.000000
# 3 -0.005740 -0.005740 0.013554 0.000000 0.000000 0.000000
# 4 0.000000 0.000000 0.000000 0.042343 0.000000 0.000000
# 5 0.000000 0.000000 0.000000 0.000000 0.042343 0.000000
# 6 0.000000 0.000000 0.000000 0.000000 0.000000 0.060985
#
#
# Mechanical properties :
#
#
# Convention : Reuss Voigt Hill
#
# Bulk Modulus (GPa) = 50.94960 54.83602 52.89281
# Shear Modulus (GPa) = 20.02288 21.00486 20.51387
#
# Velocity S-wave (km/s) = 3.38727 3.46934 3.42855
# Velocity P-wave (km/s) = 6.67035 6.88991 6.78102
#
# Compressibility (1/GPa) = 0.01962724
#
# Stress axis : x y z
#
# Youngs Moduli (GPa) = 44.43534 44.43534 73.77723
#
# Poissons Ratio (x) = 0.35495 0.42349
# Poissons Ratio (y) = 0.35495 0.42349
# Poissons Ratio (z) = 0.25506 0.25506
#
# Static dielectric constant tensor:
#      x y z
#    x 1.604250 0.000000 0.000000 
#    y 0.000000 1.604250 0.000000 
#    z 0.000000 0.000000 1.614520 
# 
# From -- ./inp_files/1645.got.cif
#   From: 2010.05.17/outbox.cif.g08.bks.cpg/sg169_cif.got.tgz:1645.got - 2010.05.20 11:12:54.
