data_PCOD9579712
_publ_section_title
;
Structure prediction by ZEFSAII (Michael W. Deem and Ramdas Pophale) SiO2 
 PCOD9579712
Probable space group: R -3 C 
;
_chemical_formula_sum "Si O2"
_cell_formula_units_Z 126
_cell_length_a 23.709284
_cell_length_b 23.709284
_cell_length_c 14.192202
_cell_angle_alpha 90.000000
_cell_angle_beta 90.000000
_cell_angle_gamma 120.000000
_cell_volume 6909.033418
_symmetry_space_group_name_H-M "R -3 C "
_symmetry_group_IT_number 167
_symmetry_cell_setting 'hexagonal'
loop_
_space_group_symop_operation_xyz
x,y,z
-y,x-y,z
-x+y,-x,z
x-y,-y,1/2-z
-x,-x+y,1/2-z
y,x,1/2-z
-x,-y,-z
y,-x+y,-z
x-y,x,-z
-x+y,y,1/2+z
x,x-y,1/2+z
-y,-x,1/2+z
2/3+x,1/3+y,1/3+z
2/3-y,1/3+x-y,1/3+z
2/3-x+y,1/3-x,1/3+z
2/3+x-y,1/3-y,5/6-z
2/3-x,1/3-x+y,5/6-z
2/3+y,1/3+x,5/6-z
2/3-x,1/3-y,1/3-z
2/3+y,1/3-x+y,1/3-z
2/3+x-y,1/3+x,1/3-z
2/3-x+y,1/3+y,5/6+z
2/3+x,1/3+x-y,5/6+z
2/3-y,1/3-x,5/6+z
1/3+x,2/3+y,2/3+z
1/3-y,2/3+x-y,2/3+z
1/3-x+y,2/3-x,2/3+z
1/3+x-y,2/3-y,1/6-z
1/3-x,2/3-x+y,1/6-z
1/3+y,2/3+x,1/6-z
1/3-x,2/3-y,2/3-z
1/3+y,2/3-x+y,2/3-z
1/3+x-y,2/3+x,2/3-z
1/3-x+y,2/3+y,1/6+z
1/3+x,2/3+x-y,1/6+z
1/3-y,2/3-x,1/6+z
loop_
_atom_site_type_symbol
_atom_site_label
_atom_site_fract_x
_atom_site_fract_y
_atom_site_fract_z
Si Si1 0.572816 0.521487 0.028860
Si Si2 0.137675 0.882650 0.598796
Si Si3 0.664765 0.664765 0.750000
Si Si4 0.313553 0.874750 0.179415
O O1 0.572242 0.486977 0.126506
O O2 0.611938 0.599109 0.044678
O O3 0.354903 0.392265 0.174511
O O4 0.608121 0.509380 0.941968
O O5 0.171837 0.838504 0.583334
O O6 0.173201 0.728696 0.595258
O O7 0.173677 0.945484 0.531089
O O8 0.166667 0.833334 0.333334
#
# Coordination Sequence:
#
# PCOD9579712 Si02
#       4
#    36  36  18  36
#     4  12  21  35  57  84 119 158 199 238 306 361
#     4  12  22  38  56  84 117 157 202 242 302 358
#     4  12  20  34  58  84 124 160 192 244 300 358
#     4  12  22  38  56  84 121 157 197 250 299 368
#
# _framework density 18.236992999999998
#
# number of rings (size 3 to 8) (size 9 to 14) (size 15 to 20)
#    0.000    0.000   10.000    0.857    0.000    0.000 
#    0.000    1.429    0.000    0.571    0.000    0.000 
#    0.000    0.000    0.000    0.000    0.000    0.000 
#
# Total GULP energy -234583.975981 kJ/mol
# GULP energy per Si atom -5585.332761 kJ/mol
# Density = 1.819549 g / cm^3
# Si number density = 18.236993 Si / 1000 Ang^3
#
#
#
# Elastic Constant Matrix: (Units=GPa)
#
#
# Indices 1 2 3 4 5 6 
#
# 1 90.1282 35.3608 21.6168 13.8030 0.0000 0.0000
# 2 35.3608 90.1282 21.6168 -13.8030 0.0000 0.0000
# 3 21.6168 21.6168 95.5577 0.0000 0.0000 0.0000
# 4 13.8030 -13.8030 0.0000 25.2794 0.0000 0.0000
# 5 0.0000 0.0000 0.0000 0.0000 25.2794 13.8030
# 6 0.0000 0.0000 0.0000 0.0000 13.8030 27.3837
#
#
#
# Elastic Compliance Matrix: (Units=1/GPa)
#
#
# Indices 1 2 3 4 5 6 
#
# 1 0.016917 -0.008275 -0.001955 -0.013756 0.000000 0.000000
# 2 -0.008275 0.016917 -0.001955 0.013756 0.000000 0.000000
# 3 -0.001955 -0.001955 0.011349 0.000000 0.000000 0.000000
# 4 -0.013756 0.013756 0.000000 0.054579 0.000000 0.000000
# 5 0.000000 0.000000 0.000000 0.000000 0.054579 -0.027511
# 6 0.000000 0.000000 0.000000 0.000000 -0.027511 0.050385
#
#
# Mechanical properties :
#
#
# Convention : Reuss Voigt Hill
#
# Bulk Modulus (GPa) = 48.04466 48.11141 48.07803
# Shear Modulus (GPa) = 21.18312 28.73649 24.95980
#
# Velocity S-wave (km/s) = 3.41184 3.97385 3.70352
# Velocity P-wave (km/s) = 6.47478 6.89157 6.68642
#
# Compressibility (1/GPa) = 0.02081397
#
# Stress axis : x y z
#
# Youngs Moduli (GPa) = 59.11040 59.11040 88.11024
#
# Poissons Ratio (x) = 0.48915 0.17226
# Poissons Ratio (y) = 0.48915 0.17226
# Poissons Ratio (z) = 0.11556 0.11556
#
# Static dielectric constant tensor:
#      x y z
#    x 1.616860 0.000000 0.000000 
#    y 0.000000 1.616860 0.000000 
#    z 0.000000 0.000000 1.677180 
# 
# From -- ./inp_files/6118.got.cif
#   From: 2010.05.17/outbox.cif.g08.bks.cpg/sg167_4_cif.got.tgz:6118.got - 2010.05.20 11:09:15.
