data_PCOD9579068
_publ_section_title
;
Structure prediction by ZEFSAII (Michael W. Deem and Ramdas Pophale) SiO2 
 PCOD9579068
Probable space group: R -3 M
;
_chemical_formula_sum "Si O2"
_cell_formula_units_Z 135
_cell_length_a 16.900113
_cell_length_b 16.900113
_cell_length_c 26.011251
_cell_angle_alpha 90.000000
_cell_angle_beta 90.000000
_cell_angle_gamma 120.000000
_cell_volume 6433.852327
_symmetry_space_group_name_H-M "R -3 M"
_symmetry_group_IT_number 166
_symmetry_cell_setting 'hexagonal'
loop_
_space_group_symop_operation_xyz
x,y,z
-y,x-y,z
-x+y,-x,z
x-y,-y,-z
-x,-x+y,-z
y,x,-z
-x,-y,-z
y,-x+y,-z
x-y,x,-z
-x+y,y,z
x,x-y,z
-y,-x,z
2/3+x,1/3+y,1/3+z
2/3-y,1/3+x-y,1/3+z
2/3-x+y,1/3-x,1/3+z
2/3+x-y,1/3-y,1/3-z
2/3-x,1/3-x+y,1/3-z
2/3+y,1/3+x,1/3-z
2/3-x,1/3-y,1/3-z
2/3+y,1/3-x+y,1/3-z
2/3+x-y,1/3+x,1/3-z
2/3-x+y,1/3+y,1/3+z
2/3+x,1/3+x-y,1/3+z
2/3-y,1/3-x,1/3+z
1/3+x,2/3+y,2/3+z
1/3-y,2/3+x-y,2/3+z
1/3-x+y,2/3-x,2/3+z
1/3+x-y,2/3-y,2/3-z
1/3-x,2/3-x+y,2/3-z
1/3+y,2/3+x,2/3-z
1/3-x,2/3-y,2/3-z
1/3+y,2/3-x+y,2/3-z
1/3+x-y,2/3+x,2/3-z
1/3-x+y,2/3+y,2/3+z
1/3+x,2/3+x-y,2/3+z
1/3-y,2/3-x,2/3+z
loop_
_atom_site_type_symbol
_atom_site_label
_atom_site_fract_x
_atom_site_fract_y
_atom_site_fract_z
Si Si1 0.484113 0.334330 0.533429
Si Si2 0.623698 0.657904 0.074913
Si Si3 0.666667 0.833334 0.333334
Si Si4 0.514419 0.847752 0.166667
Si Si5 0.516471 0.666306 0.590594
O O1 0.501301 0.250651 0.545000
O O2 0.569842 0.430159 0.549361
O O3 0.393729 0.315004 0.562852
O O4 0.474574 0.336916 0.471809
O O5 0.582326 0.693131 0.118714
O O6 0.718245 0.741941 0.055352
O O7 0.546511 0.595607 0.034236
O O8 0.419055 0.838110 0.151477
O O9 0.496147 0.748074 0.601486
O O10 0.431320 0.568681 0.606275
#
# Coordination Sequence:
#
# PCOD9579068 Si02
#       5
#    36  36   9  18  36
#     4  10  18  32  58  94 132 170 217 275 340 414
#     4  12  22  41  66  93 132 184 232 293 358 428
#     4  12  28  44  64  98 142 172 232 304 372 396
#     4  12  23  42  71  98 126 176 248 306 353 425
#     4  10  20  36  65 106 140 176 229 291 348 426
#
# _framework density 20.982762999999998
#
# number of rings (size 3 to 8) (size 9 to 14) (size 15 to 20)
#    0.000    1.067    5.333    2.267    0.000    4.267 
#    0.000    5.333    0.000    0.000    0.000    1.867 
#    0.000    0.000    0.000    0.000    0.000    0.000 
#
# Total GULP energy -250843.819159 kJ/mol
# GULP energy per Si atom -5574.307092 kJ/mol
# Density = 2.093500 g / cm^3
# Si number density = 20.982763 Si / 1000 Ang^3
#
#
#
# Elastic Constant Matrix: (Units=GPa)
#
#
# Indices 1 2 3 4 5 6 
#
# 1 65.7586 36.9903 -18.4699 -8.0922 0.0003 0.0000
# 2 36.9903 65.7586 -18.4699 8.0922 -0.0003 0.0000
# 3 -18.4699 -18.4699 24.8389 0.0000 0.0000 0.0000
# 4 -8.0922 8.0922 0.0000 9.0993 0.0000 -0.0003
# 5 0.0003 -0.0003 0.0000 0.0000 9.0993 -8.0922
# 6 0.0000 0.0000 0.0000 -0.0003 -8.0922 14.3842
#
#
#
# Elastic Compliance Matrix: (Units=1/GPa)
#
#
# Indices 1 2 3 4 5 6 
#
# 1 0.041424 -0.028140 0.009878 0.061865 -0.000002 0.000000
# 2 -0.028140 0.041424 0.009878 -0.061865 0.000002 0.000000
# 3 0.009878 0.009878 0.054949 0.000000 0.000000 0.000000
# 4 0.061865 -0.061865 0.000000 0.219933 0.000000 0.000004
# 5 -0.000002 0.000002 0.000000 0.000000 0.219933 0.123730
# 6 0.000000 0.000000 0.000000 0.000004 0.123730 0.139128
#
#
# Mechanical properties :
#
#
# Convention : Reuss Voigt Hill
#
# Bulk Modulus (GPa) = 8.26267 17.38411 12.82339
# Shear Modulus (GPa) = 6.46075 16.93696 11.69885
#
# Velocity S-wave (km/s) = 1.75663 2.84418 2.36380
# Velocity P-wave (km/s) = 2.83914 4.36907 3.68439
#
# Compressibility (1/GPa) = 0.12102625
#
# Stress axis : x y z
#
# Youngs Moduli (GPa) = 24.14066 24.14066 18.19869
#
# Poissons Ratio (x) = 0.67933 -0.17976
# Poissons Ratio (y) = 0.67933 -0.17976
# Poissons Ratio (z) = -0.23845 -0.23845
#
# Static dielectric constant tensor:
#      x y z
#    x 1.730860 0.000000 0.000000 
#    y 0.000000 1.730860 0.000000 
#    z 0.000000 0.000000 1.816070 
# 
# From -- ./inp_files/9259.got.cif
#   From: 2010.05.17/outbox.cif.g08.bks.cpg/sg166_5_cif.got.tgz:9259.got - 2010.05.20 11:04:41.
