data_PCOD9579758
_publ_section_title
;
Structure prediction by ZEFSAII (Michael W. Deem and Ramdas Pophale) SiO2 
 PCOD9579758
Probable space group: P 6
;
_chemical_formula_sum "Si O2"
_cell_formula_units_Z 42
_cell_length_a 14.808408
_cell_length_b 14.808408
_cell_length_c 11.987094
_cell_angle_alpha 90.000000
_cell_angle_beta 90.000000
_cell_angle_gamma 120.000000
_cell_volume 2276.466616
_symmetry_space_group_name_H-M "P 6"
_symmetry_group_IT_number 168
_symmetry_cell_setting 'hexagonal'
loop_
_space_group_symop_operation_xyz
x,y,z
x-y,x,z
-y,x-y,z
-x,-y,z
-x+y,-x,z
y,-x+y,z
loop_
_atom_site_type_symbol
_atom_site_label
_atom_site_fract_x
_atom_site_fract_y
_atom_site_fract_z
Si Si1 0.883680 0.118592 0.693710
Si Si2 0.845352 0.645717 0.892087
Si Si3 0.614166 0.576551 0.825308
Si Si4 0.190318 0.427731 0.543177
Si Si5 0.086995 0.243651 0.112824
Si Si6 0.919560 0.754585 0.372934
Si Si7 0.474448 0.893496 0.577303
O O1 0.879533 0.127718 0.826522
O O2 0.823192 0.172772 0.644140
O O3 0.001000 0.176036 0.655560
O O4 0.718658 0.580936 0.875753
O O5 0.931605 0.621282 0.836164
O O6 0.874831 0.665878 0.021331
O O7 0.500000 0.500000 0.877087
O O8 0.605518 0.533183 0.698051
O O9 0.117224 0.348081 0.448118
O O10 0.166954 0.516780 0.584591
O O11 0.311565 0.483182 0.513230
O O12 0.159013 0.192343 0.095119
O O13 0.094176 0.275270 0.242203
O O14 0.842206 0.801645 0.393644
O O15 0.500000 0.000000 0.517701
#
# Coordination Sequence:
#
# PCOD9579758 Si02
#       7
#     6   6   6   6   6   6   6
#     4  12  21  33  53  86 124 160 187 238 311 396
#     4  12  20  39  61  86 126 160 206 262 318 378
#     4  11  24  39  60  90 122 166 211 263 322 381
#     4  12  23  40  59  82 116 158 207 264 320 370
#     4  10  19  34  61  93 129 163 200 244 304 385
#     4  10  21  37  62  93 127 164 199 246 311 387
#     4  11  23  38  58  85 113 153 208 260 316 377
#
# _framework density 18.449645
#
# number of rings (size 3 to 8) (size 9 to 14) (size 15 to 20)
#    0.000    0.857    4.286    5.000    0.000    1.143 
#    0.857    2.857    3.143    0.000    0.000    0.000 
#    0.000    0.000    0.000    0.000    0.000    0.000 
#
# Total GULP energy -233978.054216 kJ/mol
# GULP energy per Si atom -5570.906053 kJ/mol
# Density = 1.840765 g / cm^3
# Si number density = 18.449645 Si / 1000 Ang^3
#
#
#
# Elastic Constant Matrix: (Units=GPa)
#
#
# Indices 1 2 3 4 5 6 
#
# 1 60.2589 91.5505 17.2553 0.0000 0.0000 0.0000
# 2 91.5505 60.2589 17.2553 0.0000 0.0000 0.0000
# 3 17.2553 17.2553 78.5702 0.0000 0.0000 0.0000
# 4 0.0000 0.0000 0.0000 17.3514 0.0000 0.0000
# 5 0.0000 0.0000 0.0000 0.0000 17.3514 0.0000
# 6 0.0000 0.0000 0.0000 0.0000 0.0000 -15.6458
#
#
#
# Elastic Compliance Matrix: (Units=1/GPa)
#
#
# Indices 1 2 3 4 5 6 
#
# 1 -0.012512 0.019445 -0.001523 0.000000 0.000000 0.000000
# 2 0.019445 -0.012512 -0.001523 0.000000 0.000000 0.000000
# 3 -0.001523 -0.001523 0.013396 0.000000 0.000000 0.000000
# 4 0.000000 0.000000 0.000000 0.057632 0.000000 0.000000
# 5 0.000000 0.000000 0.000000 0.000000 0.057632 0.000000
# 6 0.000000 0.000000 0.000000 0.000000 0.000000 -0.063915
#
#
# Mechanical properties :
#
#
# Convention : Reuss Voigt Hill
#
# Bulk Modulus (GPa) = 47.23159 50.13448 48.68303
# Shear Modulus (GPa) = 357.67354 8.67985 183.17670
#
# Velocity S-wave (km/s) = 13.93864 2.17137 9.97498
# Velocity P-wave (km/s) = 16.87315 5.78957 12.61393
#
# Compressibility (1/GPa) = 0.02117227
#
# Stress axis : x y z
#
# Youngs Moduli (GPa) = -79.92306 -79.92306 74.64760
#
# Poissons Ratio (x) = 1.55414 0.11366
# Poissons Ratio (y) = 1.55414 0.11366
# Poissons Ratio (z) = -0.12170 -0.12170
#
# Static dielectric constant tensor:
#      x y z
#    x 1.675610 0.000000 0.000000 
#    y 0.000000 1.675610 0.000000 
#    z 0.000000 0.000000 1.675960 
# 
# From -- ./inp_files/409.got.cif
#   From: 2010.05.17/outbox.cif.g08.bks.cpg/sg168_cif.got.tgz:409.got - 2010.05.20 11:12:33.
