data_PCOD9579773
_publ_section_title
;
Structure prediction by ZEFSAII (Michael W. Deem and Ramdas Pophale) SiO2 
 PCOD9579773
Probable space group: P 6
;
_chemical_formula_sum "Si O2"
_cell_formula_units_Z 31
_cell_length_a 14.776839
_cell_length_b 14.776839
_cell_length_c 7.422970
_cell_angle_alpha 90.000000
_cell_angle_beta 90.000000
_cell_angle_gamma 120.000000
_cell_volume 1403.690692
_symmetry_space_group_name_H-M "P 6"
_symmetry_group_IT_number 168
_symmetry_cell_setting 'hexagonal'
loop_
_space_group_symop_operation_xyz
x,y,z
x-y,x,z
-y,x-y,z
-x,-y,z
-x+y,-x,z
y,-x+y,z
loop_
_atom_site_type_symbol
_atom_site_label
_atom_site_fract_x
_atom_site_fract_y
_atom_site_fract_z
Si Si1 0.441751 0.235978 0.863620
Si Si2 0.664539 0.988661 0.682297
Si Si3 0.333334 0.666668 0.335232
Si Si4 0.045216 0.819118 0.377529
Si Si5 0.333333 0.666667 0.891869
Si Si6 0.500000 0.500000 0.412994
Si Si7 0.701969 0.536456 0.258805
O O1 0.406116 0.127319 0.760600
O O2 0.367161 0.283156 0.823038
O O3 0.560333 0.323006 0.820211
O O4 0.451219 0.208438 0.069207
O O5 0.757848 0.980734 0.583293
O O6 0.594480 0.015513 0.545546
O O7 0.263421 0.718975 0.381628
O O8 0.333334 0.666667 0.112280
O O9 0.092212 0.747627 0.314245
O O10 0.933781 0.800797 0.319907
O O11 0.576840 0.483589 0.278849
#
# Coordination Sequence:
#
# PCOD9579773 Si02
#       7
#     6   6   2   6   2   3   6
#     4  11  23  42  66 100 134 185 231 295 346 420
#     4  11  23  41  66  95 136 179 234 281 355 421
#     4   9  21  39  58  98 136 180 217 284 349 429
#     4  11  24  45  67  96 132 180 232 295 359 429
#     4   9  21  39  61  92 136 168 223 278 355 408
#     4  10  24  40  64 100 136 190 228 286 350 430
#     4  10  25  40  70  99 142 180 237 289 360 423
#
# _framework density 22.084638999999999
#
# number of rings (size 3 to 8) (size 9 to 14) (size 15 to 20)
#    0.000    1.548    1.935    1.355    8.129    3.871 
#    0.000    3.871    0.000    0.000    0.000    0.000 
#    0.000    0.000    0.000    0.000    0.000    0.000 
#
# Total GULP energy -172628.105274 kJ/mol
# GULP energy per Si atom -5568.648557 kJ/mol
# Density = 2.203437 g / cm^3
# Si number density = 22.084639 Si / 1000 Ang^3
#
#
#
# Elastic Constant Matrix: (Units=GPa)
#
#
# Indices 1 2 3 4 5 6 
#
# 1 100.7216 28.1034 -1.7053 0.0000 0.0000 -0.0004
# 2 28.1034 100.7201 -1.7050 0.0000 0.0000 0.0005
# 3 -1.7053 -1.7050 41.0290 0.0000 0.0000 0.0001
# 4 0.0000 0.0000 0.0000 23.3236 -0.0001 0.0000
# 5 0.0000 0.0000 0.0000 -0.0001 23.3241 0.0000
# 6 -0.0004 0.0005 0.0001 0.0000 0.0000 36.3088
#
#
#
# Elastic Compliance Matrix: (Units=1/GPa)
#
#
# Indices 1 2 3 4 5 6 
#
# 1 0.010771 -0.003000 0.000323 0.000000 0.000000 0.000000
# 2 -0.003000 0.010771 0.000323 0.000000 0.000000 0.000000
# 3 0.000323 0.000323 0.024400 0.000000 0.000000 0.000000
# 4 0.000000 0.000000 0.000000 0.042875 0.000000 0.000000
# 5 0.000000 0.000000 0.000000 0.000000 0.042874 0.000000
# 6 0.000000 0.000000 0.000000 0.000000 0.000000 0.027542
#
#
# Mechanical properties :
#
#
# Convention : Reuss Voigt Hill
#
# Bulk Modulus (GPa) = 24.25195 32.42855 28.34025
# Shear Modulus (GPa) = 28.13971 31.10980 29.62475
#
# Velocity S-wave (km/s) = 3.57343 3.75729 3.66651
# Velocity P-wave (km/s) = 5.29444 5.79125 5.54841
#
# Compressibility (1/GPa) = 0.04123380
#
# Stress axis : x y z
#
# Youngs Moduli (GPa) = 92.84314 92.84186 40.98390
#
# Poissons Ratio (x) = 0.27851 -0.01324
# Poissons Ratio (y) = 0.27852 -0.01323
# Poissons Ratio (z) = -0.02999 -0.02998
#
# Static dielectric constant tensor:
#      x y z
#    x 1.874650 0.000000 0.000000 
#    y 0.000000 1.874650 0.000000 
#    z 0.000000 0.000000 1.916210 
# 
# From -- ./inp_files/275.got.cif
#   From: 2010.05.17/outbox.cif.g08.bks.cpg/sg168_cif.got.tgz:275.got - 2010.05.20 11:12:33.
