data_PCOD9579048
_publ_section_title
;
Structure prediction by ZEFSAII (Michael W. Deem and Ramdas Pophale) SiO2 
 PCOD9579048
Probable space group: R -3 M
;
_chemical_formula_sum "Si O2"
_cell_formula_units_Z 126
_cell_length_a 21.971717
_cell_length_b 21.971717
_cell_length_c 16.663956
_cell_angle_alpha 90.000000
_cell_angle_beta 90.000000
_cell_angle_gamma 120.000000
_cell_volume 6966.854412
_symmetry_space_group_name_H-M "R -3 M"
_symmetry_group_IT_number 166
_symmetry_cell_setting 'hexagonal'
loop_
_space_group_symop_operation_xyz
x,y,z
-y,x-y,z
-x+y,-x,z
x-y,-y,-z
-x,-x+y,-z
y,x,-z
-x,-y,-z
y,-x+y,-z
x-y,x,-z
-x+y,y,z
x,x-y,z
-y,-x,z
2/3+x,1/3+y,1/3+z
2/3-y,1/3+x-y,1/3+z
2/3-x+y,1/3-x,1/3+z
2/3+x-y,1/3-y,1/3-z
2/3-x,1/3-x+y,1/3-z
2/3+y,1/3+x,1/3-z
2/3-x,1/3-y,1/3-z
2/3+y,1/3-x+y,1/3-z
2/3+x-y,1/3+x,1/3-z
2/3-x+y,1/3+y,1/3+z
2/3+x,1/3+x-y,1/3+z
2/3-y,1/3-x,1/3+z
1/3+x,2/3+y,2/3+z
1/3-y,2/3+x-y,2/3+z
1/3-x+y,2/3-x,2/3+z
1/3+x-y,2/3-y,2/3-z
1/3-x,2/3-x+y,2/3-z
1/3+y,2/3+x,2/3-z
1/3-x,2/3-y,2/3-z
1/3+y,2/3-x+y,2/3-z
1/3+x-y,2/3+x,2/3-z
1/3-x+y,2/3+y,2/3+z
1/3+x,2/3+x-y,2/3+z
1/3-y,2/3-x,2/3+z
loop_
_atom_site_type_symbol
_atom_site_label
_atom_site_fract_x
_atom_site_fract_y
_atom_site_fract_z
Si Si1 0.251773 0.014037 0.173233
Si Si2 0.666667 0.580779 0.333334
Si Si3 0.370846 0.116529 0.754604
Si Si4 0.392936 0.465800 0.322272
O O1 0.333334 0.074572 0.166667
O O2 0.217852 0.007567 0.085804
O O3 0.226520 0.031913 0.255639
O O4 0.252911 0.942061 0.189369
O O5 0.598778 0.591062 0.327021
O O6 0.386612 0.193306 0.777161
O O7 0.333334 0.097902 0.666667
O O8 0.438880 0.109142 0.740820
O O9 0.462842 0.537159 0.302798
#
# Coordination Sequence:
#
# PCOD9579048 Si02
#       4
#    36  18  36  36
#     4   9  16  30  43  65  97 127 158 199 236 298
#     4  10  18  30  43  66 100 126 163 190 240 304
#     4   9  16  30  49  68  92 125 166 207 241 285
#     4  10  18  30  48  70  98 130 162 203 250 292
#
# _framework density 18.085637999999999
#
# number of rings (size 3 to 8) (size 9 to 14) (size 15 to 20)
#    0.000    2.571    7.143    0.000    0.000    6.286 
#    0.000    0.000    0.000    0.571    0.000    0.000 
#    0.000    1.143    0.000    1.714    0.000    0.000 
#
# Total GULP energy -233911.710977 kJ/mol
# GULP energy per Si atom -5569.326452 kJ/mol
# Density = 1.804447 g / cm^3
# Si number density = 18.085638 Si / 1000 Ang^3
#
#
#
# Elastic Constant Matrix: (Units=GPa)
#
#
# Indices 1 2 3 4 5 6 
#
# 1 66.5852 34.9435 5.3461 -1.1562 -0.0002 0.0000
# 2 34.9435 66.5852 5.3461 1.1562 0.0002 0.0000
# 3 5.3461 5.3461 138.5532 0.0000 0.0000 0.0000
# 4 -1.1562 1.1562 0.0000 4.1946 0.0000 0.0002
# 5 -0.0002 0.0002 0.0000 0.0000 4.1946 -1.1562
# 6 0.0000 0.0000 0.0000 0.0002 -1.1562 15.8209
#
#
#
# Elastic Compliance Matrix: (Units=1/GPa)
#
#
# Indices 1 2 3 4 5 6 
#
# 1 0.021072 -0.011182 -0.000382 0.008890 0.000001 0.000000
# 2 -0.011182 0.021072 -0.000382 -0.008890 -0.000001 0.000000
# 3 -0.000382 -0.000382 0.007247 0.000000 0.000000 0.000000
# 4 0.008890 -0.008890 0.000000 0.243301 0.000000 -0.000003
# 5 0.000001 -0.000001 0.000000 0.000000 0.243301 0.017781
# 6 0.000000 0.000000 0.000000 -0.000003 0.017781 0.064507
#
#
# Mechanical properties :
#
#
# Convention : Reuss Voigt Hill
#
# Bulk Modulus (GPa) = 39.21605 40.33277 39.77441
# Shear Modulus (GPa) = 7.90028 19.91454 13.90741
#
# Velocity S-wave (km/s) = 2.09231 3.32192 2.77605
# Velocity P-wave (km/s) = 5.25049 6.08793 5.68465
#
# Compressibility (1/GPa) = 0.02549976
#
# Stress axis : x y z
#
# Youngs Moduli (GPa) = 47.45724 47.45724 137.99017
#
# Poissons Ratio (x) = 0.53067 0.05266
# Poissons Ratio (y) = 0.53067 0.05266
# Poissons Ratio (z) = 0.01811 0.01811
#
# Static dielectric constant tensor:
#      x y z
#    x 1.605610 0.000000 0.000000 
#    y 0.000000 1.605610 0.000000 
#    z 0.000000 0.000000 1.760480 
# 
# From -- ./inp_files/4887.got.cif
#   From: 2010.05.17/outbox.cif.g08.bks.cpg/sg166_3_cif.got.tgz:4887.got - 2010.05.20 11:04:41.
