data_PCOD9579235
_publ_section_title
;
Structure prediction by ZEFSAII (Michael W. Deem and Ramdas Pophale) SiO2 
 PCOD9579235
Probable space group: R -3 M
;
_chemical_formula_sum "Si O2"
_cell_formula_units_Z 126
_cell_length_a 20.898184
_cell_length_b 20.898184
_cell_length_c 16.957100
_cell_angle_alpha 90.000000
_cell_angle_beta 90.000000
_cell_angle_gamma 120.000000
_cell_volume 6413.562190
_symmetry_space_group_name_H-M "R -3 M"
_symmetry_group_IT_number 166
_symmetry_cell_setting 'hexagonal'
loop_
_space_group_symop_operation_xyz
x,y,z
-y,x-y,z
-x+y,-x,z
x-y,-y,-z
-x,-x+y,-z
y,x,-z
-x,-y,-z
y,-x+y,-z
x-y,x,-z
-x+y,y,z
x,x-y,z
-y,-x,z
2/3+x,1/3+y,1/3+z
2/3-y,1/3+x-y,1/3+z
2/3-x+y,1/3-x,1/3+z
2/3+x-y,1/3-y,1/3-z
2/3-x,1/3-x+y,1/3-z
2/3+y,1/3+x,1/3-z
2/3-x,1/3-y,1/3-z
2/3+y,1/3-x+y,1/3-z
2/3+x-y,1/3+x,1/3-z
2/3-x+y,1/3+y,1/3+z
2/3+x,1/3+x-y,1/3+z
2/3-y,1/3-x,1/3+z
1/3+x,2/3+y,2/3+z
1/3-y,2/3+x-y,2/3+z
1/3-x+y,2/3-x,2/3+z
1/3+x-y,2/3-y,2/3-z
1/3-x,2/3-x+y,2/3-z
1/3+y,2/3+x,2/3-z
1/3-x,2/3-y,2/3-z
1/3+y,2/3-x+y,2/3-z
1/3+x-y,2/3+x,2/3-z
1/3-x+y,2/3+y,2/3+z
1/3+x,2/3+x-y,2/3+z
1/3-y,2/3-x,2/3+z
loop_
_atom_site_type_symbol
_atom_site_label
_atom_site_fract_x
_atom_site_fract_y
_atom_site_fract_z
Si Si1 0.252416 0.000000 0.000000
Si Si2 0.210968 0.271832 0.569312
Si Si3 0.481409 0.814861 0.369472
Si Si4 0.467444 0.082761 0.494380
O O1 0.325460 0.062927 0.955230
O O2 0.194306 0.965470 0.929463
O O3 0.249683 0.249683 0.500000
O O4 0.142239 0.284478 0.544423
O O5 0.175943 0.203209 0.629371
O O6 0.397014 0.794027 0.386137
O O7 0.485667 0.742834 0.352978
O O8 0.532064 0.859423 0.444484
O O9 0.538205 0.076410 0.519182
O O10 0.398688 0.000000 0.500000
#
# Coordination Sequence:
#
# PCOD9579235 Si02
#       4
#    18  36  36  36
#     4  12  22  38  59  90 119 162 198 248 306 366
#     4  11  24  41  61  89 127 166 208 255 308 371
#     4  10  21  39  63  89 119 157 204 254 304 362
#     4  10  20  38  59  81 114 155 198 242 295 360
#
# _framework density 19.645869999999999
#
# number of rings (size 3 to 8) (size 9 to 14) (size 15 to 20)
#    0.000    1.429    2.857    2.857    0.000    2.286 
#    0.000    1.429    0.000    4.571    0.000    5.000 
#    0.000    0.000    0.000    0.000    0.000    0.000 
#
# Total GULP energy -234267.468566 kJ/mol
# GULP energy per Si atom -5577.796871 kJ/mol
# Density = 1.960115 g / cm^3
# Si number density = 19.645870 Si / 1000 Ang^3
#
#
#
# Elastic Constant Matrix: (Units=GPa)
#
#
# Indices 1 2 3 4 5 6 
#
# 1 69.4729 43.0542 9.0642 -1.1950 0.0000 0.0000
# 2 43.0542 69.4729 9.0642 1.1950 0.0000 0.0000
# 3 9.0642 9.0642 83.0015 0.0000 0.0000 0.0000
# 4 -1.1950 1.1950 0.0000 34.0754 0.0000 0.0000
# 5 0.0000 0.0000 0.0000 0.0000 34.0754 -1.1950
# 6 0.0000 0.0000 0.0000 0.0000 -1.1950 13.2094
#
#
#
# Elastic Compliance Matrix: (Units=1/GPa)
#
#
# Indices 1 2 3 4 5 6 
#
# 1 0.023509 -0.014463 -0.000988 0.001332 0.000000 0.000000
# 2 -0.014463 0.023509 -0.000988 -0.001332 0.000000 0.000000
# 3 -0.000988 -0.000988 0.012264 0.000000 0.000000 0.000000
# 4 0.001332 -0.001332 0.000000 0.029440 0.000000 0.000000
# 5 0.000000 0.000000 0.000000 0.000000 0.029440 0.002663
# 6 0.000000 0.000000 0.000000 0.000000 0.002663 0.075945
#
#
# Mechanical properties :
#
#
# Convention : Reuss Voigt Hill
#
# Bulk Modulus (GPa) = 37.87292 38.25694 38.06493
# Shear Modulus (GPa) = 21.20563 26.98968 24.09766
#
# Velocity S-wave (km/s) = 3.28898 3.71051 3.50609
# Velocity P-wave (km/s) = 5.80886 6.15409 5.98396
#
# Compressibility (1/GPa) = 0.02640409
#
# Stress axis : x y z
#
# Youngs Moduli (GPa) = 42.53661 42.53661 81.54126
#
# Poissons Ratio (x) = 0.61522 0.08055
# Poissons Ratio (y) = 0.61522 0.08055
# Poissons Ratio (z) = 0.04202 0.04202
#
# Static dielectric constant tensor:
#      x y z
#    x 1.709940 0.000000 0.000000 
#    y 0.000000 1.709940 0.000000 
#    z 0.000000 0.000000 1.734220 
# 
# From -- ./inp_files/4918.got.cif
#   From: 2010.05.17/outbox.cif.g08.bks.cpg/sg166_3_cif.got.tgz:4918.got - 2010.05.20 11:04:41.
