data_PCOD9579147
_publ_section_title
;
Structure prediction by ZEFSAII (Michael W. Deem and Ramdas Pophale) SiO2 
 PCOD9579147
Probable space group: R -3 M
;
_chemical_formula_sum "Si O2"
_cell_formula_units_Z 114
_cell_length_a 15.329950
_cell_length_b 15.329950
_cell_length_c 28.495459
_cell_angle_alpha 90.000000
_cell_angle_beta 90.000000
_cell_angle_gamma 120.000000
_cell_volume 5799.462777
_symmetry_space_group_name_H-M "R -3 M"
_symmetry_group_IT_number 166
_symmetry_cell_setting 'hexagonal'
loop_
_space_group_symop_operation_xyz
x,y,z
-y,x-y,z
-x+y,-x,z
x-y,-y,-z
-x,-x+y,-z
y,x,-z
-x,-y,-z
y,-x+y,-z
x-y,x,-z
-x+y,y,z
x,x-y,z
-y,-x,z
2/3+x,1/3+y,1/3+z
2/3-y,1/3+x-y,1/3+z
2/3-x+y,1/3-x,1/3+z
2/3+x-y,1/3-y,1/3-z
2/3-x,1/3-x+y,1/3-z
2/3+y,1/3+x,1/3-z
2/3-x,1/3-y,1/3-z
2/3+y,1/3-x+y,1/3-z
2/3+x-y,1/3+x,1/3-z
2/3-x+y,1/3+y,1/3+z
2/3+x,1/3+x-y,1/3+z
2/3-y,1/3-x,1/3+z
1/3+x,2/3+y,2/3+z
1/3-y,2/3+x-y,2/3+z
1/3-x+y,2/3-x,2/3+z
1/3+x-y,2/3-y,2/3-z
1/3-x,2/3-x+y,2/3-z
1/3+y,2/3+x,2/3-z
1/3-x,2/3-y,2/3-z
1/3+y,2/3-x+y,2/3-z
1/3+x-y,2/3+x,2/3-z
1/3-x+y,2/3+y,2/3+z
1/3+x,2/3+x-y,2/3+z
1/3-y,2/3-x,2/3+z
loop_
_atom_site_type_symbol
_atom_site_label
_atom_site_fract_x
_atom_site_fract_y
_atom_site_fract_z
Si Si1 0.109633 0.890368 0.777670
Si Si2 0.789248 0.578495 0.439995
Si Si3 0.333334 0.666667 0.113061
Si Si4 0.556188 0.112375 0.441596
Si Si5 0.870240 0.435120 0.724643
Si Si6 0.209345 0.418689 0.446060
Si Si7 0.123590 0.247179 0.371351
O O1 0.165767 0.834234 0.758915
O O2 0.109675 0.890326 0.834725
O O3 0.992821 0.822092 0.765218
O O4 0.837532 0.509446 0.427466
O O5 0.842736 0.685472 0.413692
O O6 0.797414 0.594827 0.496996
O O7 0.333335 0.666668 0.166667
O O8 0.447853 0.723927 0.096248
O O9 0.843859 0.513063 0.699140
O O10 0.155075 0.310150 0.420621
O O11 0.166667 0.333334 0.333334
#
# Coordination Sequence:
#
# PCOD9579147 Si02
#       7
#    18  18   6  18  18  18  18
#     4   9  17  30  46  76 110 144 188 220 267 343
#     4  10  19  33  57  87 121 154 189 242 310 359
#     4   9  21  36  57  96 129 153 180 237 324 390
#     4   9  17  29  46  76 117 146 175 225 280 344
#     4  10  23  40  62  89 119 153 199 251 306 371
#     4  10  20  33  56  85 117 158 195 240 295 361
#     4  11  25  43  60  84 116 155 203 249 300 361
#
# _framework density 19.656993
#
# number of rings (size 3 to 8) (size 9 to 14) (size 15 to 20)
#    0.000    2.211    0.000    2.842    4.421    6.316 
#    0.000    1.579    0.000    0.000    0.000    1.105 
#    0.000    0.000    0.000    0.000    0.000    0.000 
#
# Total GULP energy -211885.071778 kJ/mol
# GULP energy per Si atom -5575.922942 kJ/mol
# Density = 1.961225 g / cm^3
# Si number density = 19.656993 Si / 1000 Ang^3
#
#
#
# Elastic Constant Matrix: (Units=GPa)
#
#
# Indices 1 2 3 4 5 6 
#
# 1 203.6061 108.9539 28.1193 -3.2023 0.0000 0.0000
# 2 108.9539 203.6059 28.1194 3.2019 0.0000 0.0000
# 3 28.1193 28.1194 33.3150 0.0002 0.0000 0.0000
# 4 -3.2023 3.2019 0.0002 62.3913 0.0000 0.0000
# 5 0.0000 0.0000 0.0000 0.0000 62.3884 -3.2020
# 6 0.0000 0.0000 0.0000 0.0000 -3.2020 47.3261
#
#
#
# Elastic Compliance Matrix: (Units=1/GPa)
#
#
# Indices 1 2 3 4 5 6 
#
# 1 0.007187 -0.003415 -0.003184 0.000544 0.000000 0.000000
# 2 -0.003415 0.007187 -0.003184 -0.000544 0.000000 0.000000
# 3 -0.003184 -0.003184 0.035391 0.000000 0.000000 0.000000
# 4 0.000544 -0.000544 0.000000 0.016084 0.000000 0.000000
# 5 0.000000 0.000000 0.000000 0.000000 0.016084 0.001088
# 6 0.000000 0.000000 0.000000 0.000000 0.001088 0.021204
#
#
# Mechanical properties :
#
#
# Convention : Reuss Voigt Hill
#
# Bulk Modulus (GPa) = 33.11262 85.65691 59.38476
# Shear Modulus (GPa) = 37.65932 52.77677 45.21805
#
# Velocity S-wave (km/s) = 4.38176 5.18721 4.80140
# Velocity P-wave (km/s) = 6.51779 8.91889 7.81115
#
# Compressibility (1/GPa) = 0.03019997
#
# Stress axis : x y z
#
# Youngs Moduli (GPa) = 139.13926 139.13920 28.25555
#
# Poissons Ratio (x) = 0.47513 0.08996
# Poissons Ratio (y) = 0.47513 0.08996
# Poissons Ratio (z) = 0.44301 0.44301
#
# Static dielectric constant tensor:
#      x y z
#    x 1.630860 0.000000 0.000000 
#    y 0.000000 1.630860 0.000000 
#    z 0.000000 0.000000 1.707620 
# 
# From -- ./inp_files/10235.got.cif
#   From: 2010.05.17/outbox.cif.g08.bks.cpg/sg166_6_cif.got.tgz:10235.got - 2010.05.20 11:04:41.
