data_PCOD9579331
_publ_section_title
;
Structure prediction by ZEFSAII (Michael W. Deem and Ramdas Pophale) SiO2 
 PCOD9579331
Probable space group: R -3 M
;
_chemical_formula_sum "Si O2"
_cell_formula_units_Z 144
_cell_length_a 21.390910
_cell_length_b 21.390910
_cell_length_c 19.824531
_cell_angle_alpha 90.000000
_cell_angle_beta 90.000000
_cell_angle_gamma 120.000000
_cell_volume 7855.829958
_symmetry_space_group_name_H-M "R -3 M"
_symmetry_group_IT_number 166
_symmetry_cell_setting 'hexagonal'
loop_
_space_group_symop_operation_xyz
x,y,z
-y,x-y,z
-x+y,-x,z
x-y,-y,-z
-x,-x+y,-z
y,x,-z
-x,-y,-z
y,-x+y,-z
x-y,x,-z
-x+y,y,z
x,x-y,z
-y,-x,z
2/3+x,1/3+y,1/3+z
2/3-y,1/3+x-y,1/3+z
2/3-x+y,1/3-x,1/3+z
2/3+x-y,1/3-y,1/3-z
2/3-x,1/3-x+y,1/3-z
2/3+y,1/3+x,1/3-z
2/3-x,1/3-y,1/3-z
2/3+y,1/3-x+y,1/3-z
2/3+x-y,1/3+x,1/3-z
2/3-x+y,1/3+y,1/3+z
2/3+x,1/3+x-y,1/3+z
2/3-y,1/3-x,1/3+z
1/3+x,2/3+y,2/3+z
1/3-y,2/3+x-y,2/3+z
1/3-x+y,2/3-x,2/3+z
1/3+x-y,2/3-y,2/3-z
1/3-x,2/3-x+y,2/3-z
1/3+y,2/3+x,2/3-z
1/3-x,2/3-y,2/3-z
1/3+y,2/3-x+y,2/3-z
1/3+x-y,2/3+x,2/3-z
1/3-x+y,2/3+y,2/3+z
1/3+x,2/3+x-y,2/3+z
1/3-y,2/3-x,2/3+z
loop_
_atom_site_type_symbol
_atom_site_label
_atom_site_fract_x
_atom_site_fract_y
_atom_site_fract_z
Si Si1 0.408484 0.348423 0.412239
Si Si2 0.537360 0.927355 0.224738
Si Si3 0.527641 0.613345 0.995215
Si Si4 0.477493 0.100299 0.547932
O O1 0.415785 0.333334 0.333334
O O2 0.338602 0.275877 0.438391
O O3 0.396942 0.417219 0.424063
O O4 0.469670 0.364837 0.467531
O O5 0.466654 0.933308 0.215512
O O6 0.549434 0.882768 0.166667
O O7 0.537162 0.887876 0.293396
O O8 0.453863 0.546138 0.020632
O O9 0.586358 0.586358 0.000000
O O10 0.518279 0.636354 0.920837
O O11 0.556258 0.112515 0.563522
#
# Coordination Sequence:
#
# PCOD9579331 Si02
#       4
#    36  36  36  36
#     4  11  20  35  54  87 119 150 193 234 297 350
#     4  12  22  36  57  85 119 153 196 244 289 348
#     4  11  21  38  60  85 118 153 198 247 292 352
#     4  11  21  37  58  84 122 157 191 242 295 353
#
# _framework density 18.330335999999999
#
# number of rings (size 3 to 8) (size 9 to 14) (size 15 to 20)
#    0.000    0.750    7.500    3.000    0.000    4.000 
#    0.000    0.000    0.000    9.500    0.000    0.000 
#    0.000    1.000    0.000    0.000    0.000    0.500 
#
# Total GULP energy -267678.409495 kJ/mol
# GULP energy per Si atom -5576.633531 kJ/mol
# Density = 1.828861 g / cm^3
# Si number density = 18.330336 Si / 1000 Ang^3
#
#
#
# Elastic Constant Matrix: (Units=GPa)
#
#
# Indices 1 2 3 4 5 6 
#
# 1 69.9508 45.9261 17.9287 3.8071 0.0002 0.0000
# 2 45.9261 69.9508 17.9287 -3.8071 -0.0002 0.0000
# 3 17.9287 17.9287 109.1775 0.0000 0.0000 0.0000
# 4 3.8071 -3.8071 0.0000 15.0319 0.0000 -0.0002
# 5 0.0002 -0.0002 0.0000 0.0000 15.0319 3.8071
# 6 0.0000 0.0000 0.0000 -0.0002 3.8071 12.0124
#
#
#
# Elastic Compliance Matrix: (Units=1/GPa)
#
#
# Indices 1 2 3 4 5 6 
#
# 1 0.027174 -0.018082 -0.001493 -0.011462 -0.000001 0.000000
# 2 -0.018082 0.027174 -0.001493 0.011462 0.000001 0.000000
# 3 -0.001493 -0.001493 0.009650 0.000000 0.000000 0.000000
# 4 -0.011462 0.011462 0.000000 0.072331 0.000000 0.000001
# 5 -0.000001 0.000001 0.000000 0.000000 0.072331 -0.022924
# 6 0.000000 0.000000 0.000000 0.000001 -0.022924 0.090513
#
#
# Mechanical properties :
#
#
# Convention : Reuss Voigt Hill
#
# Bulk Modulus (GPa) = 45.74284 45.84958 45.79621
# Shear Modulus (GPa) = 14.34322 19.56829 16.95576
#
# Velocity S-wave (km/s) = 2.80033 3.27086 3.04470
# Velocity P-wave (km/s) = 5.95522 6.27152 6.11542
#
# Compressibility (1/GPa) = 0.02186134
#
# Stress axis : x y z
#
# Youngs Moduli (GPa) = 36.79966 36.79966 103.62957
#
# Poissons Ratio (x) = 0.66542 0.15472
# Poissons Ratio (y) = 0.66542 0.15472
# Poissons Ratio (z) = 0.05494 0.05494
#
# Static dielectric constant tensor:
#      x y z
#    x 1.630020 0.000000 0.000000 
#    y 0.000000 1.630020 0.000000 
#    z 0.000000 0.000000 1.785890 
# 
# From -- ./inp_files/6627.got.cif
#   From: 2010.05.17/outbox.cif.g08.bks.cpg/sg166_4_cif.got.tgz:6627.got - 2010.05.20 11:04:41.
