data_PCOD9579177
_publ_section_title
;
Structure prediction by ZEFSAII (Michael W. Deem and Ramdas Pophale) SiO2 
 PCOD9579177
Probable space group: R -3 M
;
_chemical_formula_sum "Si O2"
_cell_formula_units_Z 144
_cell_length_a 22.483501
_cell_length_b 22.483501
_cell_length_c 20.553782
_cell_angle_alpha 90.000000
_cell_angle_beta 90.000000
_cell_angle_gamma 120.000000
_cell_volume 8998.088361
_symmetry_space_group_name_H-M "R -3 M"
_symmetry_group_IT_number 166
_symmetry_cell_setting 'hexagonal'
loop_
_space_group_symop_operation_xyz
x,y,z
-y,x-y,z
-x+y,-x,z
x-y,-y,-z
-x,-x+y,-z
y,x,-z
-x,-y,-z
y,-x+y,-z
x-y,x,-z
-x+y,y,z
x,x-y,z
-y,-x,z
2/3+x,1/3+y,1/3+z
2/3-y,1/3+x-y,1/3+z
2/3-x+y,1/3-x,1/3+z
2/3+x-y,1/3-y,1/3-z
2/3-x,1/3-x+y,1/3-z
2/3+y,1/3+x,1/3-z
2/3-x,1/3-y,1/3-z
2/3+y,1/3-x+y,1/3-z
2/3+x-y,1/3+x,1/3-z
2/3-x+y,1/3+y,1/3+z
2/3+x,1/3+x-y,1/3+z
2/3-y,1/3-x,1/3+z
1/3+x,2/3+y,2/3+z
1/3-y,2/3+x-y,2/3+z
1/3-x+y,2/3-x,2/3+z
1/3+x-y,2/3-y,2/3-z
1/3-x,2/3-x+y,2/3-z
1/3+y,2/3+x,2/3-z
1/3-x,2/3-y,2/3-z
1/3+y,2/3-x+y,2/3-z
1/3+x-y,2/3+x,2/3-z
1/3-x+y,2/3+y,2/3+z
1/3+x,2/3+x-y,2/3+z
1/3-y,2/3-x,2/3+z
loop_
_atom_site_type_symbol
_atom_site_label
_atom_site_fract_x
_atom_site_fract_y
_atom_site_fract_z
Si Si1 0.436343 0.150074 0.275135
Si Si2 0.372214 0.115309 0.467790
Si Si3 0.287662 0.212566 0.344925
Si Si4 0.868871 0.264059 0.615964
O O1 0.448669 0.224335 0.256683
O O2 0.485482 0.152149 0.333334
O O3 0.444373 0.105464 0.219354
O O4 0.359207 0.106918 0.304572
O O5 0.383440 0.191720 0.455266
O O6 0.310843 0.067503 0.418072
O O7 0.364326 0.103214 0.544484
O O8 0.266627 0.133314 0.347276
O O9 0.231380 0.224228 0.309300
O O10 0.786503 0.213498 0.613424
O O11 0.898035 0.231369 0.666667
#
# Coordination Sequence:
#
# PCOD9579177 Si02
#       4
#    36  36  36  36
#     4   9  16  27  46  70  94 121 152 183 215 257
#     4   9  18  32  47  64  92 125 151 184 229 267
#     4   9  18  31  47  68  92 119 150 183 223 270
#     4  10  20  32  47  68  92 118 150 188 229 272
#
# _framework density 16.003399000000002
#
# number of rings (size 3 to 8) (size 9 to 14) (size 15 to 20)
#    0.000    2.750    0.000    4.500    0.000    5.000 
#    0.000    2.500    0.000    5.000    0.000    0.000 
#    0.000    0.000    0.000   12.500    0.000    3.000 
#
# Total GULP energy -267297.237252 kJ/mol
# GULP energy per Si atom -5568.692443 kJ/mol
# Density = 1.596697 g / cm^3
# Si number density = 16.003399 Si / 1000 Ang^3
#
#
#
# Elastic Constant Matrix: (Units=GPa)
#
#
# Indices 1 2 3 4 5 6 
#
# 1 63.2299 20.3805 23.2782 -2.4396 0.0001 0.0000
# 2 20.3805 63.2299 23.2782 2.4396 -0.0001 0.0000
# 3 23.2782 23.2782 106.9906 0.0000 0.0000 0.0000
# 4 -2.4396 2.4396 0.0000 19.4034 0.0000 -0.0001
# 5 0.0001 -0.0001 0.0000 0.0000 19.4034 -2.4396
# 6 0.0000 0.0000 0.0000 -0.0001 -2.4396 21.4247
#
#
#
# Elastic Compliance Matrix: (Units=1/GPa)
#
#
# Indices 1 2 3 4 5 6 
#
# 1 0.018643 -0.005034 -0.002961 0.002977 0.000000 0.000000
# 2 -0.005034 0.018643 -0.002961 -0.002977 0.000000 0.000000
# 3 -0.002961 -0.002961 0.010635 0.000000 0.000000 0.000000
# 4 0.002977 -0.002977 0.000000 0.052286 0.000000 0.000000
# 5 0.000000 0.000000 0.000000 0.000000 0.052286 0.005954
# 6 0.000000 0.000000 0.000000 0.000000 0.005954 0.047353
#
#
# Mechanical properties :
#
#
# Convention : Reuss Voigt Hill
#
# Bulk Modulus (GPa) = 38.44787 40.81380 39.63083
# Shear Modulus (GPa) = 21.69891 23.14720 22.42305
#
# Velocity S-wave (km/s) = 3.68624 3.80727 3.74725
# Velocity P-wave (km/s) = 6.49575 6.69968 6.59850
#
# Compressibility (1/GPa) = 0.02600924
#
# Stress axis : x y z
#
# Youngs Moduli (GPa) = 53.64019 53.64019 94.02867
#
# Poissons Ratio (x) = 0.27001 0.27841
# Poissons Ratio (y) = 0.27001 0.27841
# Poissons Ratio (z) = 0.15883 0.15883
#
# Static dielectric constant tensor:
#      x y z
#    x 1.547360 0.000000 0.000000 
#    y 0.000000 1.547360 0.000000 
#    z 0.000000 0.000000 1.566360 
# 
# From -- ./inp_files/5249.got.cif
#   From: 2010.05.17/outbox.cif.g08.bks.cpg/sg166_3_cif.got.tgz:5249.got - 2010.05.20 11:04:41.
