data_PCOD9579317
_publ_section_title
;
Structure prediction by ZEFSAII (Michael W. Deem and Ramdas Pophale) SiO2 
 PCOD9579317
Probable space group: R -3 M
;
_chemical_formula_sum "Si O2"
_cell_formula_units_Z 162
_cell_length_a 28.861311
_cell_length_b 28.861311
_cell_length_c 14.295106
_cell_angle_alpha 90.000000
_cell_angle_beta 90.000000
_cell_angle_gamma 120.000000
_cell_volume 10312.171357
_symmetry_space_group_name_H-M "R -3 M"
_symmetry_group_IT_number 166
_symmetry_cell_setting 'hexagonal'
loop_
_space_group_symop_operation_xyz
x,y,z
-y,x-y,z
-x+y,-x,z
x-y,-y,-z
-x,-x+y,-z
y,x,-z
-x,-y,-z
y,-x+y,-z
x-y,x,-z
-x+y,y,z
x,x-y,z
-y,-x,z
2/3+x,1/3+y,1/3+z
2/3-y,1/3+x-y,1/3+z
2/3-x+y,1/3-x,1/3+z
2/3+x-y,1/3-y,1/3-z
2/3-x,1/3-x+y,1/3-z
2/3+y,1/3+x,1/3-z
2/3-x,1/3-y,1/3-z
2/3+y,1/3-x+y,1/3-z
2/3+x-y,1/3+x,1/3-z
2/3-x+y,1/3+y,1/3+z
2/3+x,1/3+x-y,1/3+z
2/3-y,1/3-x,1/3+z
1/3+x,2/3+y,2/3+z
1/3-y,2/3+x-y,2/3+z
1/3-x+y,2/3-x,2/3+z
1/3+x-y,2/3-y,2/3-z
1/3-x,2/3-x+y,2/3-z
1/3+y,2/3+x,2/3-z
1/3-x,2/3-y,2/3-z
1/3+y,2/3-x+y,2/3-z
1/3+x-y,2/3+x,2/3-z
1/3-x+y,2/3+y,2/3+z
1/3+x,2/3+x-y,2/3+z
1/3-y,2/3-x,2/3+z
loop_
_atom_site_type_symbol
_atom_site_label
_atom_site_fract_x
_atom_site_fract_y
_atom_site_fract_z
Si Si1 0.098929 0.453965 0.908629
Si Si2 0.811981 0.728691 0.137218
Si Si3 0.419876 0.209938 0.652737
Si Si4 0.000000 0.649539 0.000000
Si Si5 0.365481 0.266849 0.399900
Si Si6 0.159810 0.840191 0.495360
O O1 0.137060 0.430045 0.883365
O O2 0.115247 0.508511 0.963969
O O3 0.045616 0.405429 0.955742
O O4 0.080129 0.459416 0.805874
O O5 0.873716 0.747432 0.125322
O O6 0.780841 0.666667 0.166667
O O7 0.785833 0.723360 0.035607
O O8 0.369490 0.184745 0.579037
O O9 0.397109 0.198555 0.758299
O O10 0.031250 0.700946 0.067929
O O11 0.325186 0.206988 0.436843
#
# Coordination Sequence:
#
# PCOD9579317 Si02
#       6
#    36  36  18  18  36  18
#     4  11  20  33  47  67  93 125 168 202 244 291
#     4  11  20  32  47  69  97 126 157 203 253 294
#     4   9  20  34  48  62  90 126 161 208 241 280
#     4  12  20  29  46  70  92 130 166 201 240 292
#     4  11  18  29  45  65  92 128 161 202 236 291
#     4   9  18  32  45  66  90 124 163 201 242 279
#
# _framework density 15.709591
#
# number of rings (size 3 to 8) (size 9 to 14) (size 15 to 20)
#    0.000    1.333    5.556    3.333    0.000    0.000 
#    0.000    0.000    0.000    0.000    0.000    0.000 
#    1.111    0.000    0.000    2.444    0.000    2.667 
#
# Total GULP energy -300614.460926 kJ/mol
# GULP energy per Si atom -5566.934462 kJ/mol
# Density = 1.567384 g / cm^3
# Si number density = 15.709591 Si / 1000 Ang^3
#
#
#
# Elastic Constant Matrix: (Units=GPa)
#
#
# Indices 1 2 3 4 5 6 
#
# 1 56.7051 34.8236 16.5322 4.3022 -0.0001 0.0000
# 2 34.8236 56.7051 16.5322 -4.3022 0.0001 0.0000
# 3 16.5322 16.5322 42.8114 0.0000 -0.0002 0.0000
# 4 4.3022 -4.3022 0.0000 19.5133 0.0000 0.0001
# 5 -0.0001 0.0001 -0.0002 0.0000 19.5133 4.3022
# 6 0.0000 0.0000 0.0000 0.0001 4.3022 10.9407
#
#
#
# Elastic Compliance Matrix: (Units=1/GPa)
#
#
# Indices 1 2 3 4 5 6 
#
# 1 0.031368 -0.018671 -0.004903 -0.011032 0.000000 0.000000
# 2 -0.018671 0.031368 -0.004903 0.011032 0.000000 0.000000
# 3 -0.004903 -0.004903 0.027145 0.000000 0.000000 0.000000
# 4 -0.011032 0.011032 0.000000 0.056112 0.000000 0.000000
# 5 0.000000 0.000000 0.000000 0.000000 0.056112 -0.022065
# 6 0.000000 0.000000 0.000000 0.000000 -0.022065 0.100078
#
#
# Mechanical properties :
#
#
# Convention : Reuss Voigt Hill
#
# Bulk Modulus (GPa) = 30.37076 32.44417 31.40746
# Shear Modulus (GPa) = 13.50942 15.88237 14.69589
#
# Velocity S-wave (km/s) = 2.93567 3.18307 3.06187
# Velocity P-wave (km/s) = 5.55567 5.84863 5.70403
#
# Compressibility (1/GPa) = 0.03292641
#
# Stress axis : x y z
#
# Youngs Moduli (GPa) = 31.87977 31.87978 36.83916
#
# Poissons Ratio (x) = 0.59523 0.18062
# Poissons Ratio (y) = 0.59523 0.18062
# Poissons Ratio (z) = 0.15631 0.15631
#
# Static dielectric constant tensor:
#      x y z
#    x 1.563390 0.000000 0.000000 
#    y 0.000000 1.563390 0.000000 
#    z 0.000000 0.000000 1.563500 
# 
# From -- ./inp_files/4260.got.cif
#   From: 2010.05.17/outbox.cif.g08.bks.cpg/sg166_3_cif.got.tgz:4260.got - 2010.05.20 11:04:41.
