data_PCOD9579041
_publ_section_title
;
Structure prediction by ZEFSAII (Michael W. Deem and Ramdas Pophale) SiO2 
 PCOD9579041
Probable space group: R -3 M
;
_chemical_formula_sum "Si O2"
_cell_formula_units_Z 216
_cell_length_a 27.636184
_cell_length_b 27.636184
_cell_length_c 20.295393
_cell_angle_alpha 90.000000
_cell_angle_beta 90.000000
_cell_angle_gamma 120.000000
_cell_volume 13424.071238
_symmetry_space_group_name_H-M "R -3 M"
_symmetry_group_IT_number 166
_symmetry_cell_setting 'hexagonal'
loop_
_space_group_symop_operation_xyz
x,y,z
-y,x-y,z
-x+y,-x,z
x-y,-y,-z
-x,-x+y,-z
y,x,-z
-x,-y,-z
y,-x+y,-z
x-y,x,-z
-x+y,y,z
x,x-y,z
-y,-x,z
2/3+x,1/3+y,1/3+z
2/3-y,1/3+x-y,1/3+z
2/3-x+y,1/3-x,1/3+z
2/3+x-y,1/3-y,1/3-z
2/3-x,1/3-x+y,1/3-z
2/3+y,1/3+x,1/3-z
2/3-x,1/3-y,1/3-z
2/3+y,1/3-x+y,1/3-z
2/3+x-y,1/3+x,1/3-z
2/3-x+y,1/3+y,1/3+z
2/3+x,1/3+x-y,1/3+z
2/3-y,1/3-x,1/3+z
1/3+x,2/3+y,2/3+z
1/3-y,2/3+x-y,2/3+z
1/3-x+y,2/3-x,2/3+z
1/3+x-y,2/3-y,2/3-z
1/3-x,2/3-x+y,2/3-z
1/3+y,2/3+x,2/3-z
1/3-x,2/3-y,2/3-z
1/3+y,2/3-x+y,2/3-z
1/3+x-y,2/3+x,2/3-z
1/3-x+y,2/3+y,2/3+z
1/3+x,2/3+x-y,2/3+z
1/3-y,2/3-x,2/3+z
loop_
_atom_site_type_symbol
_atom_site_label
_atom_site_fract_x
_atom_site_fract_y
_atom_site_fract_z
Si Si1 0.017222 0.253498 0.218238
Si Si2 0.603128 0.092450 0.740605
Si Si3 0.476720 0.416797 0.462183
Si Si4 0.935567 0.667746 0.017951
Si Si5 0.781376 0.947170 0.345779
Si Si6 0.873343 0.635070 0.794078
O O1 0.043486 0.228283 0.269665
O O2 0.066400 0.312555 0.193143
O O3 0.977482 0.213715 0.160672
O O4 0.976022 0.264869 0.262956
O O5 0.548841 0.097681 0.726366
O O6 0.658820 0.145405 0.712083
O O7 0.602796 0.079816 0.818163
O O8 0.596188 0.036779 0.705113
O O9 0.447120 0.447120 0.500000
O O10 0.542456 0.457545 0.470251
O O11 0.456549 0.414336 0.387634
O O12 0.000000 0.703272 0.000000
O O13 0.797614 0.898807 0.353112
O O14 0.724115 0.925012 0.388138
O O15 0.826667 0.653333 0.799296
#
# Coordination Sequence:
#
# PCOD9579041 Si02
#       6
#    36  36  36  36  36  36
#     4  10  18  28  45  65  89 121 158 196 233 276
#     4  10  20  32  48  68  93 126 162 201 241 285
#     4   9  18  30  43  62  91 126 161 195 230 272
#     4  10  18  28  45  68  95 126 161 196 233 281
#     4  10  20  32  47  66  91 122 155 196 246 294
#     4  10  19  31  46  67  94 120 151 193 241 292
#
# _framework density 16.090499000000001
#
# number of rings (size 3 to 8) (size 9 to 14) (size 15 to 20)
#    0.000    2.167    0.000    5.000    0.000    8.000 
#    0.000    0.000    0.000    0.333    0.000    0.000 
#    0.000    4.000    0.000    0.000    0.000    3.667 
#
# Total GULP energy -401229.287828 kJ/mol
# GULP energy per Si atom -5572.628998 kJ/mol
# Density = 1.605388 g / cm^3
# Si number density = 16.090499 Si / 1000 Ang^3
#
#
#
# Elastic Constant Matrix: (Units=GPa)
#
#
# Indices 1 2 3 4 5 6 
#
# 1 70.1533 31.6594 11.0478 2.8188 0.0000 0.0000
# 2 31.6594 70.1533 11.0478 -2.8188 0.0000 0.0000
# 3 11.0478 11.0478 38.7013 0.0000 0.0000 0.0000
# 4 2.8188 -2.8188 0.0000 15.2660 0.0000 0.0000
# 5 0.0000 0.0000 0.0000 0.0000 15.2660 2.8188
# 6 0.0000 0.0000 0.0000 0.0000 2.8188 19.2470
#
#
#
# Elastic Compliance Matrix: (Units=1/GPa)
#
#
# Indices 1 2 3 4 5 6 
#
# 1 0.018585 -0.008115 -0.002989 -0.004930 0.000000 0.000000
# 2 -0.008115 0.018585 -0.002989 0.004930 0.000000 0.000000
# 3 -0.002989 -0.002989 0.027545 0.000000 0.000000 0.000000
# 4 -0.004930 0.004930 0.000000 0.067326 0.000000 0.000000
# 5 0.000000 0.000000 0.000000 0.000000 0.067326 -0.009860
# 6 0.000000 0.000000 0.000000 0.000000 -0.009860 0.053400
#
#
# Mechanical properties :
#
#
# Convention : Reuss Voigt Hill
#
# Bulk Modulus (GPa) = 27.37419 31.83532 29.60475
# Shear Modulus (GPa) = 17.05727 18.30599 17.68163
#
# Velocity S-wave (km/s) = 3.25942 3.37662 3.31854
# Velocity P-wave (km/s) = 5.58701 5.91864 5.75521
#
# Compressibility (1/GPa) = 0.03653077
#
# Stress axis : x y z
#
# Youngs Moduli (GPa) = 53.80571 53.80571 36.30365
#
# Poissons Ratio (x) = 0.43662 0.10851
# Poissons Ratio (y) = 0.43662 0.10851
# Poissons Ratio (z) = 0.16082 0.16082
#
# Static dielectric constant tensor:
#      x y z
#    x 1.541430 0.000000 0.000000 
#    y 0.000000 1.541430 0.000000 
#    z 0.000000 0.000000 1.595710 
# 
# From -- ./inp_files/7142.got.cif
#   From: 2010.05.17/outbox.cif.g08.bks.cpg/sg166_4_cif.got.tgz:7142.got - 2010.05.20 11:04:41.
