data_PCOD9579223
_publ_section_title
;
Structure prediction by ZEFSAII (Michael W. Deem and Ramdas Pophale) SiO2 
 PCOD9579223
Probable space group: R -3 M
;
_chemical_formula_sum "Si O2"
_cell_formula_units_Z 96
_cell_length_a 20.677639
_cell_length_b 20.677639
_cell_length_c 13.423936
_cell_angle_alpha 90.000000
_cell_angle_beta 90.000000
_cell_angle_gamma 120.000000
_cell_volume 4970.641055
_symmetry_space_group_name_H-M "R -3 M"
_symmetry_group_IT_number 166
_symmetry_cell_setting 'hexagonal'
loop_
_space_group_symop_operation_xyz
x,y,z
-y,x-y,z
-x+y,-x,z
x-y,-y,-z
-x,-x+y,-z
y,x,-z
-x,-y,-z
y,-x+y,-z
x-y,x,-z
-x+y,y,z
x,x-y,z
-y,-x,z
2/3+x,1/3+y,1/3+z
2/3-y,1/3+x-y,1/3+z
2/3-x+y,1/3-x,1/3+z
2/3+x-y,1/3-y,1/3-z
2/3-x,1/3-x+y,1/3-z
2/3+y,1/3+x,1/3-z
2/3-x,1/3-y,1/3-z
2/3+y,1/3-x+y,1/3-z
2/3+x-y,1/3+x,1/3-z
2/3-x+y,1/3+y,1/3+z
2/3+x,1/3+x-y,1/3+z
2/3-y,1/3-x,1/3+z
1/3+x,2/3+y,2/3+z
1/3-y,2/3+x-y,2/3+z
1/3-x+y,2/3-x,2/3+z
1/3+x-y,2/3-y,2/3-z
1/3-x,2/3-x+y,2/3-z
1/3+y,2/3+x,2/3-z
1/3-x,2/3-y,2/3-z
1/3+y,2/3-x+y,2/3-z
1/3+x-y,2/3+x,2/3-z
1/3-x+y,2/3+y,2/3+z
1/3+x,2/3+x-y,2/3+z
1/3-y,2/3-x,2/3+z
loop_
_atom_site_type_symbol
_atom_site_label
_atom_site_fract_x
_atom_site_fract_y
_atom_site_fract_z
Si Si1 0.757579 0.242422 0.431794
Si Si2 0.452414 0.333334 0.833334
Si Si3 0.332888 0.166444 0.549811
Si Si4 0.000000 0.000000 0.624417
Si Si5 0.840027 0.420014 0.456218
Si Si6 0.496621 0.248311 0.991533
O O1 0.792678 0.207323 0.504064
O O2 0.793078 0.330398 0.449669
O O3 0.773699 0.226302 0.318079
O O4 0.455889 0.411524 0.854587
O O5 0.482023 0.305562 0.926469
O O6 0.333334 0.166667 0.666667
O O7 0.918112 0.959056 0.668515
O O8 0.000000 0.000000 0.500000
O O9 0.875589 0.437795 0.566926
#
# Coordination Sequence:
#
# PCOD9579223 Si02
#       6
#    18  18  18   6  18  18
#     4  10  21  38  61  90 124 156 211 248 318 381
#     4  10  22  37  58  85 120 156 214 252 310 374
#     4  11  22  42  63  90 122 170 205 264 316 376
#     4  12  15  24  48  94 119 145 183 243 309 373
#     4  10  20  36  60  88 118 158 192 258 305 376
#     4  11  18  32  55  87 122 155 195 257 309 370
#
# _framework density 19.313404999999999
#
# number of rings (size 3 to 8) (size 9 to 14) (size 15 to 20)
#    0.000    1.500    1.875    4.875    0.000    1.500 
#    6.750    3.750    0.000    0.000    0.000    0.000 
#    0.000    0.000    0.000    0.000    0.000    0.000 
#
# Total GULP energy -178201.549013 kJ/mol
# GULP energy per Si atom -5568.798407 kJ/mol
# Density = 1.926945 g / cm^3
# Si number density = 19.313405 Si / 1000 Ang^3
#
#
#
# Elastic Constant Matrix: (Units=GPa)
#
#
# Indices 1 2 3 4 5 6 
#
# 1 92.8078 47.2316 33.1125 -5.4108 -0.0002 0.0000
# 2 47.2316 92.8078 33.1125 5.4108 0.0002 0.0000
# 3 33.1125 33.1125 160.1013 0.0000 0.0000 0.0000
# 4 -5.4108 5.4108 0.0000 16.5313 0.0000 0.0002
# 5 -0.0002 0.0002 0.0000 0.0000 16.5313 -5.4108
# 6 0.0000 0.0000 0.0000 0.0002 -5.4108 22.7881
#
#
#
# Elastic Compliance Matrix: (Units=1/GPa)
#
#
# Indices 1 2 3 4 5 6 
#
# 1 0.015853 -0.007938 -0.001637 0.007787 0.000000 0.000000
# 2 -0.007938 0.015853 -0.001637 -0.007787 0.000000 0.000000
# 3 -0.001637 -0.001637 0.006923 0.000000 0.000000 0.000000
# 4 0.007787 -0.007787 0.000000 0.065589 0.000000 -0.000001
# 5 0.000000 0.000000 0.000000 0.000000 0.065589 0.015573
# 6 0.000000 0.000000 0.000000 -0.000001 0.015573 0.047580
#
#
# Mechanical properties :
#
#
# Convention : Reuss Voigt Hill
#
# Bulk Modulus (GPa) = 61.70869 63.62558 62.66713
# Shear Modulus (GPa) = 20.39063 26.65415 23.52239
#
# Velocity S-wave (km/s) = 3.25280 3.71898 3.49367
# Velocity P-wave (km/s) = 6.79177 7.17331 6.98515
#
# Compressibility (1/GPa) = 0.01620517
#
# Stress axis : x y z
#
# Youngs Moduli (GPa) = 63.08136 63.08136 144.44225
#
# Poissons Ratio (x) = 0.50071 0.23645
# Poissons Ratio (y) = 0.50071 0.23645
# Poissons Ratio (z) = 0.10326 0.10326
#
# Static dielectric constant tensor:
#      x y z
#    x 1.711670 0.000000 0.000000 
#    y 0.000000 1.711670 0.000000 
#    z 0.000000 0.000000 1.268610 
# 
# From -- ./inp_files/3752.got.cif
#   From: 2010.05.17/outbox.cif.g08.bks.cpg/sg166_2_cif.got.tgz:3752.got - 2010.05.20 11:04:41.
