data_PCOD9579480
_publ_section_title
;
Structure prediction by ZEFSAII (Michael W. Deem and Ramdas Pophale) SiO2 
 PCOD9579480
Probable space group: R -3 C 
;
_chemical_formula_sum "Si O2"
_cell_formula_units_Z 126
_cell_length_a 24.156369
_cell_length_b 24.156369
_cell_length_c 11.893455
_cell_angle_alpha 90.000000
_cell_angle_beta 90.000000
_cell_angle_gamma 120.000000
_cell_volume 6010.380620
_symmetry_space_group_name_H-M "R -3 C "
_symmetry_group_IT_number 167
_symmetry_cell_setting 'hexagonal'
loop_
_space_group_symop_operation_xyz
x,y,z
-y,x-y,z
-x+y,-x,z
x-y,-y,1/2-z
-x,-x+y,1/2-z
y,x,1/2-z
-x,-y,-z
y,-x+y,-z
x-y,x,-z
-x+y,y,1/2+z
x,x-y,1/2+z
-y,-x,1/2+z
2/3+x,1/3+y,1/3+z
2/3-y,1/3+x-y,1/3+z
2/3-x+y,1/3-x,1/3+z
2/3+x-y,1/3-y,5/6-z
2/3-x,1/3-x+y,5/6-z
2/3+y,1/3+x,5/6-z
2/3-x,1/3-y,1/3-z
2/3+y,1/3-x+y,1/3-z
2/3+x-y,1/3+x,1/3-z
2/3-x+y,1/3+y,5/6+z
2/3+x,1/3+x-y,5/6+z
2/3-y,1/3-x,5/6+z
1/3+x,2/3+y,2/3+z
1/3-y,2/3+x-y,2/3+z
1/3-x+y,2/3-x,2/3+z
1/3+x-y,2/3-y,1/6-z
1/3-x,2/3-x+y,1/6-z
1/3+y,2/3+x,1/6-z
1/3-x,2/3-y,2/3-z
1/3+y,2/3-x+y,2/3-z
1/3+x-y,2/3+x,2/3-z
1/3-x+y,2/3+y,1/6+z
1/3+x,2/3+x-y,1/6+z
1/3-y,2/3-x,1/6+z
loop_
_atom_site_type_symbol
_atom_site_label
_atom_site_fract_x
_atom_site_fract_y
_atom_site_fract_z
Si Si1 0.732439 0.662684 0.625871
Si Si2 0.895197 0.500602 0.872706
Si Si3 0.666667 0.814618 0.083334
Si Si4 0.959602 0.803679 0.145890
O O1 0.666667 0.657339 0.583334
O O2 0.713843 0.608524 0.718977
O O3 0.767190 0.649648 0.521822
O O4 0.786934 0.731086 0.669876
O O5 0.940886 0.489564 0.787308
O O6 0.845367 0.510341 0.800615
O O7 0.864291 0.439143 0.953395
O O8 0.000000 0.846135 0.250000
#
# Coordination Sequence:
#
# PCOD9579480 Si02
#       4
#    36  36  18  36
#     4  11  22  34  57  86 121 162 200 243 297 371
#     4  11  22  39  57  86 119 159 205 253 303 365
#     4  10  20  36  50  82 118 154 206 246 296 350
#     4  11  24  38  62  86 124 161 203 250 305 362
#
# _framework density 20.963729000000001
#
# number of rings (size 3 to 8) (size 9 to 14) (size 15 to 20)
#    0.000    1.143    0.000   10.286    8.000    0.000 
#    0.000    0.000    0.000    0.571    0.000    2.000 
#    0.000    0.000    0.000    0.000    0.000    0.000 
#
# Total GULP energy -235154.941457 kJ/mol
# GULP energy per Si atom -5598.927178 kJ/mol
# Density = 2.091601 g / cm^3
# Si number density = 20.963729 Si / 1000 Ang^3
#
#
#
# Elastic Constant Matrix: (Units=GPa)
#
#
# Indices 1 2 3 4 5 6 
#
# 1 47.7842 18.0205 10.2663 -5.0976 0.0003 0.0000
# 2 18.0205 47.7840 10.2661 5.0977 -0.0002 0.0000
# 3 10.2663 10.2661 80.1510 0.0003 0.0002 0.0000
# 4 -5.0976 5.0977 0.0003 31.8370 0.0001 -0.0002
# 5 0.0003 -0.0002 0.0002 0.0001 31.8369 -5.0977
# 6 0.0000 0.0000 0.0000 -0.0002 -5.0977 14.8818
#
#
#
# Elastic Compliance Matrix: (Units=1/GPa)
#
#
# Indices 1 2 3 4 5 6 
#
# 1 0.025688 -0.009859 -0.002028 0.005692 0.000000 0.000000
# 2 -0.009859 0.025688 -0.002027 -0.005692 0.000000 0.000000
# 3 -0.002028 -0.002027 0.012996 0.000000 0.000000 0.000000
# 4 0.005692 -0.005692 0.000000 0.033233 0.000000 0.000000
# 5 0.000000 0.000000 0.000000 0.000000 0.033233 0.011384
# 6 0.000000 0.000000 0.000000 0.000000 0.011384 0.071096
#
#
# Mechanical properties :
#
#
# Convention : Reuss Voigt Hill
#
# Bulk Modulus (GPa) = 27.36415 28.09165 27.72790
# Shear Modulus (GPa) = 20.66596 24.85555 22.76076
#
# Velocity S-wave (km/s) = 3.14315 3.44706 3.29860
# Velocity P-wave (km/s) = 5.12386 5.41037 5.26906
#
# Compressibility (1/GPa) = 0.03654416
#
# Stress axis : x y z
#
# Youngs Moduli (GPa) = 38.92806 38.92802 76.94768
#
# Poissons Ratio (x) = 0.38380 0.15602
# Poissons Ratio (y) = 0.38380 0.15600
# Poissons Ratio (z) = 0.07893 0.07892
#
# Static dielectric constant tensor:
#      x y z
#    x 1.745070 0.000000 0.000000 
#    y 0.000000 1.745070 0.000000 
#    z 0.000000 0.000000 1.783770 
# 
# From -- ./inp_files/1403.got.cif
#   From: 2010.05.17/outbox.cif.g08.bks.cpg/sg167_1_cif.got.tgz:1403.got - 2010.05.20 11:09:15.
