data_PCOD9579229
_publ_section_title
;
Structure prediction by ZEFSAII (Michael W. Deem and Ramdas Pophale) SiO2 
 PCOD9579229
Probable space group: R -3 M
;
_chemical_formula_sum "Si O2"
_cell_formula_units_Z 216
_cell_length_a 23.544757
_cell_length_b 23.544757
_cell_length_c 24.967095
_cell_angle_alpha 90.000000
_cell_angle_beta 90.000000
_cell_angle_gamma 120.000000
_cell_volume 11986.353192
_symmetry_space_group_name_H-M "R -3 M"
_symmetry_group_IT_number 166
_symmetry_cell_setting 'hexagonal'
loop_
_space_group_symop_operation_xyz
x,y,z
-y,x-y,z
-x+y,-x,z
x-y,-y,-z
-x,-x+y,-z
y,x,-z
-x,-y,-z
y,-x+y,-z
x-y,x,-z
-x+y,y,z
x,x-y,z
-y,-x,z
2/3+x,1/3+y,1/3+z
2/3-y,1/3+x-y,1/3+z
2/3-x+y,1/3-x,1/3+z
2/3+x-y,1/3-y,1/3-z
2/3-x,1/3-x+y,1/3-z
2/3+y,1/3+x,1/3-z
2/3-x,1/3-y,1/3-z
2/3+y,1/3-x+y,1/3-z
2/3+x-y,1/3+x,1/3-z
2/3-x+y,1/3+y,1/3+z
2/3+x,1/3+x-y,1/3+z
2/3-y,1/3-x,1/3+z
1/3+x,2/3+y,2/3+z
1/3-y,2/3+x-y,2/3+z
1/3-x+y,2/3-x,2/3+z
1/3+x-y,2/3-y,2/3-z
1/3-x,2/3-x+y,2/3-z
1/3+y,2/3+x,2/3-z
1/3-x,2/3-y,2/3-z
1/3+y,2/3-x+y,2/3-z
1/3+x-y,2/3+x,2/3-z
1/3-x+y,2/3+y,2/3+z
1/3+x,2/3+x-y,2/3+z
1/3-y,2/3-x,2/3+z
loop_
_atom_site_type_symbol
_atom_site_label
_atom_site_fract_x
_atom_site_fract_y
_atom_site_fract_z
Si Si1 0.638835 0.971701 0.774382
Si Si2 0.532053 0.198719 0.833334
Si Si3 0.188187 0.160700 0.893013
Si Si4 0.794808 0.333334 0.333334
Si Si5 0.865578 0.266970 0.048206
Si Si6 0.608471 0.523442 0.745643
Si Si7 0.666847 0.463833 0.110672
O O1 0.563182 0.918189 0.779562
O O2 0.679336 0.951237 0.733421
O O3 0.666667 0.976353 0.833334
O O4 0.636418 0.037103 0.760482
O O5 0.602602 0.205203 0.843938
O O6 0.501703 0.150443 0.781736
O O7 0.205550 0.102775 0.899862
O O8 0.155822 0.169148 0.946734
O O9 0.142792 0.141676 0.840997
O O10 0.785093 0.392547 0.318367
O O11 0.809501 0.190500 0.058547
O O12 0.844155 0.311511 0.082106
O O13 0.858689 0.280234 0.985681
O O14 0.531197 0.468804 0.757108
O O15 0.722941 0.445882 0.098404
O O16 0.595386 0.404615 0.095312
#
# Coordination Sequence:
#
# PCOD9579229 Si02
#       7
#    36  18  36  18  36  36  36
#     4  12  22  39  61  86 115 157 200 242 290 347
#     4  10  21  40  68  96 123 154 194 244 300 364
#     4  10  22  37  54  81 116 150 196 247 291 346
#     4  10  21  36  56  82 114 154 199 250 300 348
#     4  10  23  39  59  88 122 155 194 244 293 348
#     4  10  22  41  62  88 122 155 192 242 298 354
#     4  10  20  37  58  82 112 149 191 237 292 351
#
# _framework density 18.020493999999999
#
# number of rings (size 3 to 8) (size 9 to 14) (size 15 to 20)
#    0.000    1.667    2.500    1.833    2.333    2.333 
#    0.000    2.500    0.000    4.000    0.000    0.000 
#    0.000    0.000    0.000    0.000    0.000    0.000 
#
# Total GULP energy -401086.133601 kJ/mol
# GULP energy per Si atom -5570.640744 kJ/mol
# Density = 1.797948 g / cm^3
# Si number density = 18.020494 Si / 1000 Ang^3
#
#
#
# Elastic Constant Matrix: (Units=GPa)
#
#
# Indices 1 2 3 4 5 6 
#
# 1 105.9637 59.9961 30.6173 2.3996 0.0003 0.0000
# 2 59.9961 105.9637 30.6173 -2.3996 -0.0003 0.0000
# 3 30.6173 30.6173 83.9090 0.0000 0.0000 0.0000
# 4 2.3996 -2.3996 0.0000 23.1175 0.0000 -0.0003
# 5 0.0003 -0.0003 0.0000 0.0000 23.1175 2.3996
# 6 0.0000 0.0000 0.0000 -0.0003 2.3996 22.9838
#
#
#
# Elastic Compliance Matrix: (Units=1/GPa)
#
#
# Indices 1 2 3 4 5 6 
#
# 1 0.014478 -0.007515 -0.002541 -0.002283 0.000000 0.000000
# 2 -0.007515 0.014478 -0.002541 0.002283 0.000000 0.000000
# 3 -0.002541 -0.002541 0.013772 0.000000 0.000000 0.000000
# 4 -0.002283 0.002283 0.000000 0.043731 0.000000 0.000001
# 5 0.000000 0.000000 0.000000 0.000000 0.043731 -0.004566
# 6 0.000000 0.000000 0.000000 0.000001 -0.004566 0.043986
#
#
# Mechanical properties :
#
#
# Convention : Reuss Voigt Hill
#
# Bulk Modulus (GPa) = 57.02883 59.81086 58.41984
# Shear Modulus (GPa) = 24.36492 25.48416 24.92454
#
# Velocity S-wave (km/s) = 3.68104 3.76463 3.72307
# Velocity P-wave (km/s) = 7.05564 7.22213 7.13937
#
# Compressibility (1/GPa) = 0.01753499
#
# Stress axis : x y z
#
# Youngs Moduli (GPa) = 69.07083 69.07083 72.61210
#
# Poissons Ratio (x) = 0.51906 0.18449
# Poissons Ratio (y) = 0.51906 0.18449
# Poissons Ratio (z) = 0.17549 0.17549
#
# Static dielectric constant tensor:
#      x y z
#    x 1.655430 0.000000 0.000000 
#    y 0.000000 1.655430 0.000000 
#    z 0.000000 0.000000 1.645110 
# 
# From -- ./inp_files/8504.got.cif
#   From: 2010.05.17/outbox.cif.g08.bks.cpg/sg166_5_cif.got.tgz:8504.got - 2010.05.20 11:04:41.
