data_PCOD9579663
_publ_section_title
;
Structure prediction by ZEFSAII (Michael W. Deem and Ramdas Pophale) SiO2 
 PCOD9579663
Probable space group: R -3 C 
;
_chemical_formula_sum "Si O2"
_cell_formula_units_Z 126
_cell_length_a 27.907588
_cell_length_b 27.907588
_cell_length_c 9.800736
_cell_angle_alpha 90.000000
_cell_angle_beta 90.000000
_cell_angle_gamma 120.000000
_cell_volume 6610.494196
_symmetry_space_group_name_H-M "R -3 C "
_symmetry_group_IT_number 167
_symmetry_cell_setting 'hexagonal'
loop_
_space_group_symop_operation_xyz
x,y,z
-y,x-y,z
-x+y,-x,z
x-y,-y,1/2-z
-x,-x+y,1/2-z
y,x,1/2-z
-x,-y,-z
y,-x+y,-z
x-y,x,-z
-x+y,y,1/2+z
x,x-y,1/2+z
-y,-x,1/2+z
2/3+x,1/3+y,1/3+z
2/3-y,1/3+x-y,1/3+z
2/3-x+y,1/3-x,1/3+z
2/3+x-y,1/3-y,5/6-z
2/3-x,1/3-x+y,5/6-z
2/3+y,1/3+x,5/6-z
2/3-x,1/3-y,1/3-z
2/3+y,1/3-x+y,1/3-z
2/3+x-y,1/3+x,1/3-z
2/3-x+y,1/3+y,5/6+z
2/3+x,1/3+x-y,5/6+z
2/3-y,1/3-x,5/6+z
1/3+x,2/3+y,2/3+z
1/3-y,2/3+x-y,2/3+z
1/3-x+y,2/3-x,2/3+z
1/3+x-y,2/3-y,1/6-z
1/3-x,2/3-x+y,1/6-z
1/3+y,2/3+x,1/6-z
1/3-x,2/3-y,2/3-z
1/3+y,2/3-x+y,2/3-z
1/3+x-y,2/3+x,2/3-z
1/3-x+y,2/3+y,1/6+z
1/3+x,2/3+x-y,1/6+z
1/3-y,2/3-x,1/6+z
loop_
_atom_site_type_symbol
_atom_site_label
_atom_site_fract_x
_atom_site_fract_y
_atom_site_fract_z
Si Si1 0.781046 0.781046 0.250000
Si Si2 0.380786 0.988823 0.095041
Si Si3 0.598351 0.775340 0.088267
Si Si4 0.239796 0.178076 0.211794
O O1 0.733558 0.768690 0.361003
O O2 0.824772 0.774244 0.342851
O O3 0.399303 0.000000 0.250000
O O4 0.324878 0.991545 0.083334
O O5 0.427775 0.041048 0.014930
O O6 0.666667 0.801582 0.083334
O O7 0.574944 0.761875 0.242799
O O8 0.586959 0.818582 0.007277
O O9 0.190245 0.190245 0.250000
#
# Coordination Sequence:
#
# PCOD9579663 Si02
#       4
#    18  36  36  36
#     4  12  22  36  56  88 124 168 216 268 318 376
#     4  11  20  33  54  80 118 164 220 262 308 368
#     4  12  25  41  62  94 127 176 224 274 322 385
#     4  11  26  42  61  87 128 170 221 273 324 384
#
# _framework density 19.060603
#
# number of rings (size 3 to 8) (size 9 to 14) (size 15 to 20)
#    0.000    0.571    4.286    6.000    8.000    0.000 
#    0.000    0.000    0.000    0.000    0.000    0.000 
#    1.429    2.286    0.000    0.000    0.000    0.000 
#
# Total GULP energy -233882.262392 kJ/mol
# GULP energy per Si atom -5568.625295 kJ/mol
# Density = 1.901722 g / cm^3
# Si number density = 19.060603 Si / 1000 Ang^3
#
#
#
# Elastic Constant Matrix: (Units=GPa)
#
#
# Indices 1 2 3 4 5 6 
#
# 1 69.1028 28.4489 33.3497 -7.5951 0.0033 0.0006
# 2 28.4489 69.0968 33.3492 7.5980 -0.0003 -0.0002
# 3 33.3497 33.3492 144.0069 0.0066 0.0190 0.0037
# 4 -7.5951 7.5980 0.0066 32.1466 0.0041 -0.0003
# 5 0.0033 -0.0003 0.0190 0.0041 32.1533 -7.5961
# 6 0.0006 -0.0002 0.0037 -0.0003 -7.5961 20.3237
#
#
#
# Elastic Compliance Matrix: (Units=1/GPa)
#
#
# Indices 1 2 3 4 5 6 
#
# 1 0.019580 -0.007401 -0.002821 0.006376 -0.000001 -0.000001
# 2 -0.007401 0.019582 -0.002821 -0.006377 0.000004 0.000002
# 3 -0.002821 -0.002821 0.008251 -0.000002 -0.000005 -0.000003
# 4 0.006376 -0.006377 -0.000002 0.034121 -0.000005 -0.000002
# 5 -0.000001 0.000004 -0.000005 -0.000005 0.034113 0.012750
# 6 -0.000001 0.000002 -0.000003 -0.000002 0.012750 0.053969
#
#
# Mechanical properties :
#
#
# Convention : Reuss Voigt Hill
#
# Bulk Modulus (GPa) = 46.88727 52.50025 49.69376
# Shear Modulus (GPa) = 24.65345 29.39529 27.02437
#
# Velocity S-wave (km/s) = 3.60032 3.93135 3.76947
# Velocity P-wave (km/s) = 6.47577 6.94341 6.71366
#
# Compressibility (1/GPa) = 0.02132775
#
# Stress axis : x y z
#
# Youngs Moduli (GPa) = 51.07134 51.06649 121.20418
#
# Poissons Ratio (x) = 0.37797 0.34189
# Poissons Ratio (y) = 0.37800 0.34186
# Poissons Ratio (z) = 0.14406 0.14403
#
# Static dielectric constant tensor:
#      x y z
#    x 1.718650 0.000000 0.000000 
#    y 0.000000 1.718650 0.000000 
#    z 0.000000 0.000000 1.872460 
# 
# From -- ./inp_files/662.got.cif
#   From: 2010.05.17/outbox.cif.g08.bks.cpg/sg167_1_cif.got.tgz:662.got - 2010.05.20 11:09:15.
