data_PCOD9579944
_publ_section_title
;
Structure prediction by ZEFSAII (Michael W. Deem and Ramdas Pophale) SiO2 
 PCOD9579944
Probable space group: P 61
;
_chemical_formula_sum "Si O2"
_cell_formula_units_Z 48
_cell_length_a 16.356596
_cell_length_b 16.356596
_cell_length_c 9.071336
_cell_angle_alpha 90.000000
_cell_angle_beta 90.000000
_cell_angle_gamma 120.000000
_cell_volume 2101.782342
_symmetry_space_group_name_H-M "P 61"
_symmetry_group_IT_number 169
_symmetry_cell_setting 'hexagonal'
loop_
_space_group_symop_operation_xyz
x,y,z
x-y,x,1/6+z
-y,x-y,1/3+z
-x,-y,1/2+z
-x+y,-x,2/3+z
y,-x+y,5/6+z
loop_
_atom_site_type_symbol
_atom_site_label
_atom_site_fract_x
_atom_site_fract_y
_atom_site_fract_z
Si Si1 0.578748 0.756991 0.228230
Si Si2 0.537927 0.883209 0.658098
Si Si3 0.564765 0.000097 0.169562
Si Si4 0.657094 0.294057 0.088022
Si Si5 0.814189 0.954479 0.922697
Si Si6 0.945954 0.285031 0.228672
Si Si7 0.183226 0.134341 0.113141
Si Si8 0.872340 0.269189 0.805570
O O1 0.579612 0.664586 0.278077
O O2 0.473276 0.732239 0.266878
O O3 0.649165 0.855570 0.306892
O O4 0.593039 0.780917 0.055038
O O5 0.510309 0.964984 0.674510
O O6 0.448323 0.795957 0.582429
O O7 0.631086 0.918097 0.562173
O O8 0.557819 0.852285 0.813639
O O9 0.587072 0.973502 0.328704
O O10 0.548115 0.914054 0.065348
O O11 0.660463 0.335858 0.254789
O O12 0.792455 0.897101 0.767926
O O13 0.715596 0.947044 0.967262
O O14 0.899494 0.057888 0.877511
O O15 0.031368 0.264955 0.221202
O O16 0.098344 0.151790 0.160022
#
# Coordination Sequence:
#
# PCOD9579944 Si02
#       8
#     6   6   6   6   6   6   6   6
#     4  10  22  40  60  90 129 165 225 275 338 414
#     4  11  22  39  63  93 128 166 223 278 337 424
#     4  10  23  39  61  90 128 169 216 281 340 408
#     4  11  22  41  65  95 134 175 227 288 349 412
#     4  10  21  40  62  92 132 169 225 283 338 420
#     4  11  21  40  64  89 128 173 215 276 338 407
#     4  10  21  39  62  91 129 166 220 270 332 403
#     4  11  22  40  65  92 130 175 225 275 354 410
#
# _framework density 22.837761
#
# number of rings (size 3 to 8) (size 9 to 14) (size 15 to 20)
#    0.000    1.500    1.250    4.500    0.000    0.000 
#    0.000   21.250    0.000    0.000    0.000    0.000 
#    0.000    0.000    0.000    0.000    0.000    0.000 
#
# Total GULP energy -268106.569757 kJ/mol
# GULP energy per Si atom -5585.553537 kJ/mol
# Density = 2.278578 g / cm^3
# Si number density = 22.837761 Si / 1000 Ang^3
#
#
#
# Elastic Constant Matrix: (Units=GPa)
#
#
# Indices 1 2 3 4 5 6 
#
# 1 54.8162 -0.6893 12.5285 0.0000 0.0000 0.0000
# 2 -0.6893 54.8162 12.5285 0.0000 0.0000 0.0000
# 3 12.5285 12.5285 98.5908 0.0000 0.0000 0.0000
# 4 0.0000 0.0000 0.0000 26.0920 0.0000 0.0000
# 5 0.0000 0.0000 0.0000 0.0000 26.0920 0.0000
# 6 0.0000 0.0000 0.0000 0.0000 0.0000 27.7527
#
#
#
# Elastic Compliance Matrix: (Units=1/GPa)
#
#
# Indices 1 2 3 4 5 6 
#
# 1 0.018823 0.000807 -0.002494 0.000000 0.000000 0.000000
# 2 0.000807 0.018823 -0.002494 0.000000 0.000000 0.000000
# 3 -0.002494 -0.002494 0.010777 0.000000 0.000000 0.000000
# 4 0.000000 0.000000 0.000000 0.038326 0.000000 0.000000
# 5 0.000000 0.000000 0.000000 0.000000 0.038326 0.000000
# 6 0.000000 0.000000 0.000000 0.000000 0.000000 0.036033
#
#
# Mechanical properties :
#
#
# Convention : Reuss Voigt Hill
#
# Bulk Modulus (GPa) = 24.96335 28.55096 26.75715
# Shear Modulus (GPa) = 27.34863 28.24438 27.79650
#
# Velocity S-wave (km/s) = 3.46427 3.52055 3.49252
# Velocity P-wave (km/s) = 5.19192 5.39022 5.29200
#
# Compressibility (1/GPa) = 0.04005873
#
# Stress axis : x y z
#
# Youngs Moduli (GPa) = 53.12630 53.12630 92.79092
#
# Poissons Ratio (x) = -0.04286 0.23147
# Poissons Ratio (y) = -0.04286 0.23147
# Poissons Ratio (z) = 0.13252 0.13252
#
# Static dielectric constant tensor:
#      x y z
#    x 1.847880 0.000000 0.000000 
#    y 0.000000 1.847880 0.000000 
#    z 0.000000 0.000000 1.873350 
# 
# From -- ./inp_files/722.got.cif
#   From: 2010.05.17/outbox.cif.g08.bks.cpg/sg169_cif.got.tgz:722.got - 2010.05.20 11:12:54.
