data_PCOD9579425
_publ_section_title
;
Structure prediction by ZEFSAII (Michael W. Deem and Ramdas Pophale) SiO2 
 PCOD9579425
Probable space group: R -3 C 
;
_chemical_formula_sum "Si O2"
_cell_formula_units_Z 162
_cell_length_a 24.644330
_cell_length_b 24.644330
_cell_length_c 17.168728
_cell_angle_alpha 90.000000
_cell_angle_beta 90.000000
_cell_angle_gamma 120.000000
_cell_volume 9030.312573
_symmetry_space_group_name_H-M "R -3 C "
_symmetry_group_IT_number 167
_symmetry_cell_setting 'hexagonal'
loop_
_space_group_symop_operation_xyz
x,y,z
-y,x-y,z
-x+y,-x,z
x-y,-y,1/2-z
-x,-x+y,1/2-z
y,x,1/2-z
-x,-y,-z
y,-x+y,-z
x-y,x,-z
-x+y,y,1/2+z
x,x-y,1/2+z
-y,-x,1/2+z
2/3+x,1/3+y,1/3+z
2/3-y,1/3+x-y,1/3+z
2/3-x+y,1/3-x,1/3+z
2/3+x-y,1/3-y,5/6-z
2/3-x,1/3-x+y,5/6-z
2/3+y,1/3+x,5/6-z
2/3-x,1/3-y,1/3-z
2/3+y,1/3-x+y,1/3-z
2/3+x-y,1/3+x,1/3-z
2/3-x+y,1/3+y,5/6+z
2/3+x,1/3+x-y,5/6+z
2/3-y,1/3-x,5/6+z
1/3+x,2/3+y,2/3+z
1/3-y,2/3+x-y,2/3+z
1/3-x+y,2/3-x,2/3+z
1/3+x-y,2/3-y,1/6-z
1/3-x,2/3-x+y,1/6-z
1/3+y,2/3+x,1/6-z
1/3-x,2/3-y,2/3-z
1/3+y,2/3-x+y,2/3-z
1/3+x-y,2/3+x,2/3-z
1/3-x+y,2/3+y,1/6+z
1/3+x,2/3+x-y,1/6+z
1/3-y,2/3-x,1/6+z
loop_
_atom_site_type_symbol
_atom_site_label
_atom_site_fract_x
_atom_site_fract_y
_atom_site_fract_z
Si Si1 0.900796 0.860117 0.990391
Si Si2 0.237234 0.420616 0.288193
Si Si3 0.050551 0.458113 0.430683
Si Si4 0.333334 0.827154 0.916667
Si Si5 0.719034 0.214843 0.515426
O O1 0.870823 0.842956 0.904722
O O2 0.887400 0.913091 0.021414
O O3 0.875445 0.802372 0.050155
O O4 0.170059 0.406709 0.324952
O O5 0.233856 0.356232 0.262749
O O6 0.288332 0.451432 0.357682
O O7 0.073864 0.407197 0.416667
O O8 0.088064 0.508201 0.362894
O O9 0.286780 0.767355 0.967453
O O10 0.666667 0.191587 0.583334
#
# Coordination Sequence:
#
# PCOD9579425 Si02
#       5
#    36  36  36  18  36
#     4  12  23  38  58  91 125 159 203 255 302 364
#     4  10  21  38  63  88 123 161 201 257 301 364
#     4   9  19  40  63  87 117 163 202 246 308 363
#     4  10  18  40  56  80 118 162 192 240 306 354
#     4  10  21  37  60  84 119 161 198 240 304 363
#
# _framework density 17.939578999999998
#
# number of rings (size 3 to 8) (size 9 to 14) (size 15 to 20)
#    0.000    1.778    2.222    4.222    0.000    0.889 
#    0.667   11.111    0.000    0.000    0.000    0.000 
#    0.000    0.000    0.000    0.000    0.000    0.000 
#
# Total GULP energy -300642.069206 kJ/mol
# GULP energy per Si atom -5567.445726 kJ/mol
# Density = 1.789875 g / cm^3
# Si number density = 17.939579 Si / 1000 Ang^3
#
#
#
# Elastic Constant Matrix: (Units=GPa)
#
#
# Indices 1 2 3 4 5 6 
#
# 1 113.9785 62.6022 42.0182 -1.0790 -0.0002 0.0000
# 2 62.6022 113.9785 42.0182 1.0790 0.0002 0.0000
# 3 42.0182 42.0182 110.1480 0.0000 0.0000 0.0000
# 4 -1.0790 1.0790 0.0000 18.5417 0.0000 0.0002
# 5 -0.0002 0.0002 0.0000 0.0000 18.5417 -1.0790
# 6 0.0000 0.0000 0.0000 0.0002 -1.0790 25.6881
#
#
#
# Elastic Compliance Matrix: (Units=1/GPa)
#
#
# Indices 1 2 3 4 5 6 
#
# 1 0.013216 -0.006296 -0.002640 0.001135 0.000000 0.000000
# 2 -0.006296 0.013216 -0.002640 -0.001135 0.000000 0.000000
# 3 -0.002640 -0.002640 0.011092 0.000000 0.000000 0.000000
# 4 0.001135 -0.001135 0.000000 0.054065 0.000000 0.000000
# 5 0.000000 0.000000 0.000000 0.000000 0.054065 0.002271
# 6 0.000000 0.000000 0.000000 0.000000 0.002271 0.039024
#
#
# Mechanical properties :
#
#
# Convention : Reuss Voigt Hill
#
# Bulk Modulus (GPa) = 69.57466 70.15358 69.86412
# Shear Modulus (GPa) = 23.51632 25.31875 24.41753
#
# Velocity S-wave (km/s) = 3.62451 3.76085 3.69331
# Velocity P-wave (km/s) = 7.50887 7.61899 7.56413
#
# Compressibility (1/GPa) = 0.01437305
#
# Stress axis : x y z
#
# Youngs Moduli (GPa) = 75.66810 75.66810 90.15114
#
# Poissons Ratio (x) = 0.47643 0.23795
# Poissons Ratio (y) = 0.47643 0.23795
# Poissons Ratio (z) = 0.19973 0.19973
#
# Static dielectric constant tensor:
#      x y z
#    x 1.638440 0.000000 0.000000 
#    y 0.000000 1.638440 0.000000 
#    z 0.000000 0.000000 1.653510 
# 
# From -- ./inp_files/3403.got.cif
#   From: 2010.05.17/outbox.cif.g08.bks.cpg/sg167_2_cif.got.tgz:3403.got - 2010.05.20 11:09:15.
