data_PCOD9579097
_publ_section_title
;
Structure prediction by ZEFSAII (Michael W. Deem and Ramdas Pophale) SiO2 
 PCOD9579097
Probable space group: R -3 M
;
_chemical_formula_sum "Si O2"
_cell_formula_units_Z 216
_cell_length_a 24.299360
_cell_length_b 24.299360
_cell_length_c 25.858173
_cell_angle_alpha 90.000000
_cell_angle_beta 90.000000
_cell_angle_gamma 120.000000
_cell_volume 13222.638931
_symmetry_space_group_name_H-M "R -3 M"
_symmetry_group_IT_number 166
_symmetry_cell_setting 'hexagonal'
loop_
_space_group_symop_operation_xyz
x,y,z
-y,x-y,z
-x+y,-x,z
x-y,-y,-z
-x,-x+y,-z
y,x,-z
-x,-y,-z
y,-x+y,-z
x-y,x,-z
-x+y,y,z
x,x-y,z
-y,-x,z
2/3+x,1/3+y,1/3+z
2/3-y,1/3+x-y,1/3+z
2/3-x+y,1/3-x,1/3+z
2/3+x-y,1/3-y,1/3-z
2/3-x,1/3-x+y,1/3-z
2/3+y,1/3+x,1/3-z
2/3-x,1/3-y,1/3-z
2/3+y,1/3-x+y,1/3-z
2/3+x-y,1/3+x,1/3-z
2/3-x+y,1/3+y,1/3+z
2/3+x,1/3+x-y,1/3+z
2/3-y,1/3-x,1/3+z
1/3+x,2/3+y,2/3+z
1/3-y,2/3+x-y,2/3+z
1/3-x+y,2/3-x,2/3+z
1/3+x-y,2/3-y,2/3-z
1/3-x,2/3-x+y,2/3-z
1/3+y,2/3+x,2/3-z
1/3-x,2/3-y,2/3-z
1/3+y,2/3-x+y,2/3-z
1/3+x-y,2/3+x,2/3-z
1/3-x+y,2/3+y,2/3+z
1/3+x,2/3+x-y,2/3+z
1/3-y,2/3-x,2/3+z
loop_
_atom_site_type_symbol
_atom_site_label
_atom_site_fract_x
_atom_site_fract_y
_atom_site_fract_z
Si Si1 0.242352 0.875383 0.705512
Si Si2 0.860774 0.268863 0.674161
Si Si3 0.188881 0.936282 0.185977
Si Si4 0.490479 0.380112 0.593457
Si Si5 0.361928 0.944509 0.113310
Si Si6 0.240464 0.289484 0.074523
O O1 0.197749 0.802252 0.718133
O O2 0.213326 0.914236 0.733330
O O3 0.241909 0.884298 0.643559
O O4 0.313202 0.902858 0.723581
O O5 0.794902 0.205099 0.663027
O O6 0.916392 0.249725 0.666667
O O7 0.868029 0.326344 0.638509
O O8 0.865874 0.287701 0.734309
O O9 0.119952 0.880049 0.202271
O O10 0.242874 0.922279 0.208746
O O11 0.196185 0.932986 0.124423
O O12 0.203027 0.004123 0.208108
O O13 0.565505 0.434496 0.596601
O O14 0.333334 0.906511 0.166667
O O15 0.306017 0.955638 0.092269
#
# Coordination Sequence:
#
# PCOD9579097 Si02
#       6
#    36  36  36  36  36  36
#     4  10  19  32  50  72 100 138 171 202 260 321
#     4  11  19  33  57  81 106 138 182 231 272 315
#     4  11  21  34  52  76 103 141 184 219 258 308
#     4  11  22  34  50  76 110 145 177 214 266 327
#     4  10  19  31  48  76 111 139 166 216 270 320
#     4  10  19  33  50  72 110 136 168 214 260 313
#
# _framework density 16.335619999999999
#
# number of rings (size 3 to 8) (size 9 to 14) (size 15 to 20)
#    0.000    1.500    5.000    1.500    0.000    0.667 
#    0.000    2.500    0.000    2.667    0.000    0.000 
#    0.000    0.667    0.000    8.500    0.000    0.000 
#
# Total GULP energy -401229.596717 kJ/mol
# GULP energy per Si atom -5572.633288 kJ/mol
# Density = 1.629844 g / cm^3
# Si number density = 16.335620 Si / 1000 Ang^3
#
#
#
# Elastic Constant Matrix: (Units=GPa)
#
#
# Indices 1 2 3 4 5 6 
#
# 1 62.6392 34.0782 14.7348 1.6524 0.0000 0.0000
# 2 34.0782 62.6392 14.7348 -1.6524 0.0000 0.0000
# 3 14.7348 14.7348 64.9841 0.0000 0.0000 0.0000
# 4 1.6524 -1.6524 0.0000 8.2766 0.0000 0.0000
# 5 0.0000 0.0000 0.0000 0.0000 8.2766 1.6524
# 6 0.0000 0.0000 0.0000 0.0000 1.6524 14.2805
#
#
#
# Elastic Compliance Matrix: (Units=1/GPa)
#
#
# Indices 1 2 3 4 5 6 
#
# 1 0.023474 -0.012367 -0.002518 -0.007156 0.000000 0.000000
# 2 -0.012367 0.023474 -0.002518 0.007156 0.000000 0.000000
# 3 -0.002518 -0.002518 0.016530 0.000000 0.000000 0.000000
# 4 -0.007156 0.007156 0.000000 0.123680 0.000000 0.000000
# 5 0.000000 0.000000 0.000000 0.000000 0.123680 -0.014311
# 6 0.000000 0.000000 0.000000 0.000000 -0.014311 0.071681
#
#
# Mechanical properties :
#
#
# Convention : Reuss Voigt Hill
#
# Bulk Modulus (GPa) = 34.87921 35.26200 35.07060
# Shear Modulus (GPa) = 11.71281 14.61441 13.16361
#
# Velocity S-wave (km/s) = 2.68061 2.99429 2.84178
# Velocity P-wave (km/s) = 5.56587 5.79544 5.68182
#
# Compressibility (1/GPa) = 0.02867038
#
# Stress axis : x y z
#
# Youngs Moduli (GPa) = 42.60082 42.60082 60.49443
#
# Poissons Ratio (x) = 0.52684 0.15235
# Poissons Ratio (y) = 0.52684 0.15235
# Poissons Ratio (z) = 0.10729 0.10729
#
# Static dielectric constant tensor:
#      x y z
#    x 1.544370 0.000000 0.000000 
#    y 0.000000 1.544370 0.000000 
#    z 0.000000 0.000000 1.620010 
# 
# From -- ./inp_files/8446.got.cif
#   From: 2010.05.17/outbox.cif.g08.bks.cpg/sg166_5_cif.got.tgz:8446.got - 2010.05.20 11:04:41.
