data_PCOD9579140
_publ_section_title
;
Structure prediction by ZEFSAII (Michael W. Deem and Ramdas Pophale) SiO2 
 PCOD9579140
Probable space group: R -3 M
;
_chemical_formula_sum "Si O2"
_cell_formula_units_Z 252
_cell_length_a 29.887659
_cell_length_b 29.887659
_cell_length_c 18.559527
_cell_angle_alpha 90.000000
_cell_angle_beta 90.000000
_cell_angle_gamma 120.000000
_cell_volume 14357.582966
_symmetry_space_group_name_H-M "R -3 M"
_symmetry_group_IT_number 166
_symmetry_cell_setting 'hexagonal'
loop_
_space_group_symop_operation_xyz
x,y,z
-y,x-y,z
-x+y,-x,z
x-y,-y,-z
-x,-x+y,-z
y,x,-z
-x,-y,-z
y,-x+y,-z
x-y,x,-z
-x+y,y,z
x,x-y,z
-y,-x,z
2/3+x,1/3+y,1/3+z
2/3-y,1/3+x-y,1/3+z
2/3-x+y,1/3-x,1/3+z
2/3+x-y,1/3-y,1/3-z
2/3-x,1/3-x+y,1/3-z
2/3+y,1/3+x,1/3-z
2/3-x,1/3-y,1/3-z
2/3+y,1/3-x+y,1/3-z
2/3+x-y,1/3+x,1/3-z
2/3-x+y,1/3+y,1/3+z
2/3+x,1/3+x-y,1/3+z
2/3-y,1/3-x,1/3+z
1/3+x,2/3+y,2/3+z
1/3-y,2/3+x-y,2/3+z
1/3-x+y,2/3-x,2/3+z
1/3+x-y,2/3-y,2/3-z
1/3-x,2/3-x+y,2/3-z
1/3+y,2/3+x,2/3-z
1/3-x,2/3-y,2/3-z
1/3+y,2/3-x+y,2/3-z
1/3+x-y,2/3+x,2/3-z
1/3-x+y,2/3+y,2/3+z
1/3+x,2/3+x-y,2/3+z
1/3-y,2/3-x,2/3+z
loop_
_atom_site_type_symbol
_atom_site_label
_atom_site_fract_x
_atom_site_fract_y
_atom_site_fract_z
Si Si1 0.031591 0.866759 0.817561
Si Si2 0.381795 0.079535 0.406285
Si Si3 0.519657 0.809666 0.114072
Si Si4 0.720868 0.775194 0.808098
Si Si5 0.292101 0.809531 0.606976
Si Si6 0.436506 0.768862 0.993112
Si Si7 0.622685 0.757976 0.020230
O O1 0.076835 0.923166 0.839427
O O2 0.053246 0.827254 0.826592
O O3 0.981019 0.845419 0.865731
O O4 0.016168 0.870499 0.736169
O O5 0.383501 0.050167 0.333334
O O6 0.397288 0.058500 0.478209
O O7 0.428785 0.137670 0.397508
O O8 0.330635 0.084392 0.401752
O O9 0.521573 0.760787 0.148287
O O10 0.516843 0.850176 0.166667
O O11 0.568327 0.836934 0.061319
O O12 0.467309 0.786349 0.067587
O O13 0.666667 0.768974 0.833334
O O14 0.716999 0.777847 0.721525
O O15 0.236872 0.763128 0.625043
O O16 0.333334 0.816936 0.666667
O O17 0.390267 0.780534 0.988069
O O18 0.415801 0.707901 0.984763
O O19 0.636457 0.818229 0.007892
#
# Coordination Sequence:
#
# PCOD9579140 Si02
#       7
#    36  36  36  36  36  36  36
#     4  10  20  34  52  78 110 144 185 231 279 336
#     4  10  21  37  53  84 117 146 185 233 293 346
#     4  10  21  38  60  86 114 147 189 231 284 340
#     4  11  21  36  58  85 117 149 191 234 292 343
#     4  10  20  34  51  74 104 146 190 231 280 333
#     4  10  19  33  54  81 112 144 181 229 281 337
#     4  11  22  39  61  87 117 152 196 241 289 348
#
# _framework density 17.551701000000001
#
# number of rings (size 3 to 8) (size 9 to 14) (size 15 to 20)
#    0.000    1.714    2.857    2.286    0.000    1.714 
#    0.000    0.000    0.000    5.714    0.000    2.000 
#    0.000    0.000    0.000    0.000    0.000    0.000 
#
# Total GULP energy -467780.647772 kJ/mol
# GULP energy per Si atom -5568.817235 kJ/mol
# Density = 1.751175 g / cm^3
# Si number density = 17.551701 Si / 1000 Ang^3
#
#
#
# Elastic Constant Matrix: (Units=GPa)
#
#
# Indices 1 2 3 4 5 6 
#
# 1 76.7104 38.8350 17.8356 4.6690 0.0004 0.0000
# 2 38.8350 76.7104 17.8356 -4.6690 -0.0004 0.0000
# 3 17.8356 17.8356 55.0905 0.0000 0.0000 0.0000
# 4 4.6690 -4.6690 0.0000 24.3654 0.0000 -0.0004
# 5 0.0004 -0.0004 0.0000 0.0000 24.3654 4.6690
# 6 0.0000 0.0000 0.0000 -0.0004 4.6690 18.9377
#
#
#
# Elastic Compliance Matrix: (Units=1/GPa)
#
#
# Indices 1 2 3 4 5 6 
#
# 1 0.018664 -0.009048 -0.003113 -0.005310 0.000000 0.000000
# 2 -0.009048 0.018664 -0.003113 0.005310 0.000000 0.000000
# 3 -0.003113 -0.003113 0.020168 0.000000 0.000000 0.000000
# 4 -0.005310 0.005310 0.000000 0.043077 0.000000 0.000001
# 5 0.000000 0.000000 0.000000 0.000000 0.043077 -0.010620
# 6 0.000000 0.000000 0.000000 0.000001 -0.010620 0.055423
#
#
# Mechanical properties :
#
#
# Convention : Reuss Voigt Hill
#
# Bulk Modulus (GPa) = 37.11031 39.72487 38.41759
# Shear Modulus (GPa) = 20.95540 22.46739 21.71139
#
# Velocity S-wave (km/s) = 3.45907 3.58169 3.52091
# Velocity P-wave (km/s) = 6.09450 6.30768 6.20200
#
# Compressibility (1/GPa) = 0.02694669
#
# Stress axis : x y z
#
# Youngs Moduli (GPa) = 53.58022 53.58022 49.58431
#
# Poissons Ratio (x) = 0.48479 0.15436
# Poissons Ratio (y) = 0.48479 0.15436
# Poissons Ratio (z) = 0.16680 0.16680
#
# Static dielectric constant tensor:
#      x y z
#    x 1.589870 0.000000 0.000000 
#    y 0.000000 1.589870 0.000000 
#    z 0.000000 0.000000 1.632360 
# 
# From -- ./inp_files/5843.got.cif
#   From: 2010.05.17/outbox.cif.g08.bks.cpg/sg166_3_cif.got.tgz:5843.got - 2010.05.20 11:04:41.
