data_PCOD9579087
_publ_section_title
;
Structure prediction by ZEFSAII (Michael W. Deem and Ramdas Pophale) SiO2 
 PCOD9579087
Probable space group: R -3 M
;
_chemical_formula_sum "Si O2"
_cell_formula_units_Z 252
_cell_length_a 32.617557
_cell_length_b 32.617557
_cell_length_c 14.847088
_cell_angle_alpha 90.000000
_cell_angle_beta 90.000000
_cell_angle_gamma 120.000000
_cell_volume 13679.643336
_symmetry_space_group_name_H-M "R -3 M"
_symmetry_group_IT_number 166
_symmetry_cell_setting 'hexagonal'
loop_
_space_group_symop_operation_xyz
x,y,z
-y,x-y,z
-x+y,-x,z
x-y,-y,-z
-x,-x+y,-z
y,x,-z
-x,-y,-z
y,-x+y,-z
x-y,x,-z
-x+y,y,z
x,x-y,z
-y,-x,z
2/3+x,1/3+y,1/3+z
2/3-y,1/3+x-y,1/3+z
2/3-x+y,1/3-x,1/3+z
2/3+x-y,1/3-y,1/3-z
2/3-x,1/3-x+y,1/3-z
2/3+y,1/3+x,1/3-z
2/3-x,1/3-y,1/3-z
2/3+y,1/3-x+y,1/3-z
2/3+x-y,1/3+x,1/3-z
2/3-x+y,1/3+y,1/3+z
2/3+x,1/3+x-y,1/3+z
2/3-y,1/3-x,1/3+z
1/3+x,2/3+y,2/3+z
1/3-y,2/3+x-y,2/3+z
1/3-x+y,2/3-x,2/3+z
1/3+x-y,2/3-y,2/3-z
1/3-x,2/3-x+y,2/3-z
1/3+y,2/3+x,2/3-z
1/3-x,2/3-y,2/3-z
1/3+y,2/3-x+y,2/3-z
1/3+x-y,2/3+x,2/3-z
1/3-x+y,2/3+y,2/3+z
1/3+x,2/3+x-y,2/3+z
1/3-y,2/3-x,2/3+z
loop_
_atom_site_type_symbol
_atom_site_label
_atom_site_fract_x
_atom_site_fract_y
_atom_site_fract_z
Si Si1 0.279929 0.467731 0.303332
Si Si2 0.704792 0.758651 0.107260
Si Si3 0.239427 0.856265 0.171476
Si Si4 0.201191 0.054050 0.362279
Si Si5 0.186850 0.719652 0.812905
Si Si6 0.186950 0.720751 0.520036
Si Si7 0.293333 0.237702 0.099190
O O1 0.240859 0.481718 0.274614
O O2 0.263515 0.417401 0.256541
O O3 0.333916 0.503702 0.278165
O O4 0.277800 0.463631 0.411122
O O5 0.661408 0.753100 0.165900
O O6 0.748929 0.811802 0.114311
O O7 0.726902 0.725480 0.130339
O O8 0.689322 0.749860 0.002959
O O9 0.183877 0.816124 0.172269
O O10 0.262286 0.844922 0.084723
O O11 0.185791 0.092896 0.382216
O O12 0.207918 0.054512 0.254522
O O13 0.239700 0.760301 0.791105
O O14 0.172218 0.666034 0.788214
O O15 0.147981 0.729489 0.768088
O O16 0.237843 0.762158 0.551095
O O17 0.333334 0.242941 0.166667
#
# Coordination Sequence:
#
# PCOD9579087 Si02
#       7
#    36  36  36  36  36  36  36
#     4   9  18  31  48  71  98 128 163 201 244 294
#     4  10  21  35  51  71  98 130 164 201 241 290
#     4  10  19  30  47  72  97 124 162 204 244 287
#     4   9  17  30  48  70  96 125 160 202 244 287
#     4   9  18  32  51  74  97 125 162 199 239 290
#     4   9  18  34  53  72  98 131 163 200 245 290
#     4  10  21  36  51  71  99 130 164 201 242 286
#
# _framework density 18.421533
#
# number of rings (size 3 to 8) (size 9 to 14) (size 15 to 20)
#    0.000    2.571    0.000    1.714    0.000    3.143 
#    0.000    5.000    0.000    0.571    0.000    4.000 
#    0.000    3.429    0.000    7.429    0.000    7.429 
#
# Total GULP energy -468644.163669 kJ/mol
# GULP energy per Si atom -5579.097187 kJ/mol
# Density = 1.837960 g / cm^3
# Si number density = 18.421533 Si / 1000 Ang^3
#
#
#
# Elastic Constant Matrix: (Units=GPa)
#
#
# Indices 1 2 3 4 5 6 
#
# 1 85.8586 51.8232 3.0085 1.4823 0.0000 -0.0002
# 2 51.8232 85.8589 3.0090 -1.4825 0.0002 -0.0001
# 3 3.0085 3.0090 28.3827 -0.0001 0.0002 -0.0002
# 4 1.4823 -1.4825 -0.0001 17.5759 0.0000 0.0000
# 5 0.0000 0.0002 0.0002 0.0000 17.5762 1.4824
# 6 -0.0002 -0.0001 -0.0002 0.0000 1.4824 17.0178
#
#
#
# Elastic Compliance Matrix: (Units=1/GPa)
#
#
# Indices 1 2 3 4 5 6 
#
# 1 0.018448 -0.011151 -0.000773 -0.002496 0.000000 0.000000
# 2 -0.011151 0.018448 -0.000774 0.002496 0.000000 0.000000
# 3 -0.000773 -0.000774 0.035397 0.000000 0.000000 0.000000
# 4 -0.002496 0.002496 0.000000 0.057317 0.000000 0.000000
# 5 0.000000 0.000000 0.000000 0.000000 0.057316 -0.004993
# 6 0.000000 0.000000 0.000000 0.000000 -0.004993 0.059197
#
#
# Mechanical properties :
#
#
# Convention : Reuss Voigt Hill
#
# Bulk Modulus (GPa) = 21.32352 35.08682 28.20517
# Shear Modulus (GPa) = 17.41248 19.91794 18.66521
#
# Velocity S-wave (km/s) = 3.07778 3.29178 3.18658
# Velocity P-wave (km/s) = 4.92248 5.79100 5.37431
#
# Compressibility (1/GPa) = 0.04689657
#
# Stress axis : x y z
#
# Youngs Moduli (GPa) = 54.20723 54.20739 28.25116
#
# Poissons Ratio (x) = 0.60445 0.02185
# Poissons Ratio (y) = 0.60445 0.02186
# Poissons Ratio (z) = 0.04192 0.04194
#
# Static dielectric constant tensor:
#      x y z
#    x 1.619600 0.000000 0.000000 
#    y 0.000000 1.619600 0.000000 
#    z 0.000000 0.000000 1.673370 
# 
# From -- ./inp_files/5817.got.cif
#   From: 2010.05.17/outbox.cif.g08.bks.cpg/sg166_3_cif.got.tgz:5817.got - 2010.05.20 11:04:41.
