data_PCOD9579978
_publ_section_title
;
Structure prediction by ZEFSAII (Michael W. Deem and Ramdas Pophale) SiO2 
 PCOD9579978
Probable space group: P 61
;
_chemical_formula_sum "Si O2"
_cell_formula_units_Z 30
_cell_length_a 16.045133
_cell_length_b 16.045133
_cell_length_c 7.586482
_cell_angle_alpha 90.000000
_cell_angle_beta 90.000000
_cell_angle_gamma 120.000000
_cell_volume 1691.444321
_symmetry_space_group_name_H-M "P 61"
_symmetry_group_IT_number 169
_symmetry_cell_setting 'hexagonal'
loop_
_space_group_symop_operation_xyz
x,y,z
x-y,x,1/6+z
-y,x-y,1/3+z
-x,-y,1/2+z
-x+y,-x,2/3+z
y,-x+y,5/6+z
loop_
_atom_site_type_symbol
_atom_site_label
_atom_site_fract_x
_atom_site_fract_y
_atom_site_fract_z
Si Si1 0.186654 0.691283 0.618390
Si Si2 0.902207 0.292650 0.456193
Si Si3 0.710343 0.113866 0.577691
Si Si4 0.150535 0.507865 0.773555
Si Si5 0.491763 0.923326 0.940926
O O1 0.111982 0.694694 0.750867
O O2 0.212106 0.620594 0.726777
O O3 0.278506 0.794368 0.587242
O O4 0.135841 0.639508 0.435670
O O5 0.813578 0.189361 0.503908
O O6 0.898545 0.370938 0.591352
O O7 0.010575 0.314197 0.463319
O O8 0.697380 0.154650 0.761790
O O9 0.618006 0.098000 0.459644
O O10 0.038297 0.474367 0.802126
#
# Coordination Sequence:
#
# PCOD9579978 Si02
#       5
#     6   6   6   6   6
#     4  11  23  35  56  83 111 166 190 242 285 346
#     4  11  23  37  63  80 116 159 195 246 287 355
#     4  10  22  41  58  85 116 155 199 239 299 341
#     4  10  22  38  57  82 122 156 200 239 292 341
#     4  10  22  43  54  84 121 156 194 246 283 351
#
# _framework density 17.736321
#
# number of rings (size 3 to 8) (size 9 to 14) (size 15 to 20)
#    0.000    1.600    4.000    0.000    5.600    3.200 
#    0.000    0.000    0.000    0.000    0.000    5.600 
#    0.000    0.000    0.000    0.000    0.000    0.000 
#
# Total GULP energy -167208.423098 kJ/mol
# GULP energy per Si atom -5573.614103 kJ/mol
# Density = 1.769595 g / cm^3
# Si number density = 17.736321 Si / 1000 Ang^3
#
#
#
# Elastic Constant Matrix: (Units=GPa)
#
#
# Indices 1 2 3 4 5 6 
#
# 1 92.8403 50.5470 21.8232 0.0000 0.0000 0.0000
# 2 50.5470 92.8403 21.8232 0.0000 0.0000 0.0000
# 3 21.8232 21.8232 64.1111 0.0000 0.0000 0.0000
# 4 0.0000 0.0000 0.0000 22.7719 0.0000 0.0000
# 5 0.0000 0.0000 0.0000 0.0000 22.7719 0.0000
# 6 0.0000 0.0000 0.0000 0.0000 0.0000 21.1467
#
#
#
# Elastic Compliance Matrix: (Units=1/GPa)
#
#
# Indices 1 2 3 4 5 6 
#
# 1 0.015712 -0.007932 -0.002648 0.000000 0.000000 0.000000
# 2 -0.007932 0.015712 -0.002648 0.000000 0.000000 0.000000
# 3 -0.002648 -0.002648 0.017401 0.000000 0.000000 0.000000
# 4 0.000000 0.000000 0.000000 0.043914 0.000000 0.000000
# 5 0.000000 0.000000 0.000000 0.000000 0.043914 0.000000
# 6 0.000000 0.000000 0.000000 0.000000 0.000000 0.047289
#
#
# Mechanical properties :
#
#
# Convention : Reuss Voigt Hill
#
# Bulk Modulus (GPa) = 44.70680 48.68648 46.69664
# Shear Modulus (GPa) = 22.95097 23.71130 23.33113
#
# Velocity S-wave (km/s) = 3.60114 3.66030 3.63084
# Velocity P-wave (km/s) = 6.52319 6.73598 6.63044
#
# Compressibility (1/GPa) = 0.02236796
#
# Stress axis : x y z
#
# Youngs Moduli (GPa) = 63.64427 63.64427 57.46819
#
# Poissons Ratio (x) = 0.50483 0.15220
# Poissons Ratio (y) = 0.50483 0.15220
# Poissons Ratio (z) = 0.16855 0.16855
#
# Static dielectric constant tensor:
#      x y z
#    x 1.625680 0.000000 0.000000 
#    y 0.000000 1.625680 0.000000 
#    z 0.000000 0.000000 1.639160 
# 
# From -- ./inp_files/551.got.cif
#   From: 2010.05.17/outbox.cif.g08.bks.cpg/sg169_cif.got.tgz:551.got - 2010.05.20 11:12:54.
