data_PCOD9579964
_publ_section_title
;
Structure prediction by ZEFSAII (Michael W. Deem and Ramdas Pophale) SiO2 
 PCOD9579964
Probable space group: P 61
;
_chemical_formula_sum "Si O2"
_cell_formula_units_Z 48
_cell_length_a 16.201109
_cell_length_b 16.201109
_cell_length_c 8.799511
_cell_angle_alpha 90.000000
_cell_angle_beta 90.000000
_cell_angle_gamma 120.000000
_cell_volume 2000.224111
_symmetry_space_group_name_H-M "P 61"
_symmetry_group_IT_number 169
_symmetry_cell_setting 'hexagonal'
loop_
_space_group_symop_operation_xyz
x,y,z
x-y,x,1/6+z
-y,x-y,1/3+z
-x,-y,1/2+z
-x+y,-x,2/3+z
y,-x+y,5/6+z
loop_
_atom_site_type_symbol
_atom_site_label
_atom_site_fract_x
_atom_site_fract_y
_atom_site_fract_z
Si Si1 0.896371 0.431275 0.681040
Si Si2 0.271967 0.397673 0.964714
Si Si3 0.511301 0.599189 0.183833
Si Si4 0.051413 0.300474 0.962280
Si Si5 0.357971 0.224673 0.302141
Si Si6 0.520552 0.255832 0.518097
Si Si7 0.705700 0.620079 0.782575
Si Si8 0.886283 0.818056 0.121772
O O1 0.896697 0.490641 0.532742
O O2 0.796067 0.371094 0.773526
O O3 0.908936 0.351387 0.592645
O O4 0.991442 0.485520 0.786779
O O5 0.159891 0.337499 0.996989
O O6 0.317877 0.439754 0.127433
O O7 0.304453 0.322932 0.918342
O O8 0.284766 0.464338 0.821214
O O9 0.623285 0.682522 0.167905
O O10 0.451820 0.644049 0.102965
O O11 0.001318 0.191009 0.909980
O O12 0.461110 0.266250 0.377728
O O13 0.346396 0.160530 0.157133
O O14 0.322563 0.298706 0.270919
O O15 0.289257 0.147144 0.423898
O O16 0.870505 0.873860 0.988638
#
# Coordination Sequence:
#
# PCOD9579964 Si02
#       8
#     6   6   6   6   6   6   6   6
#     4  11  24  42  72 109 140 182 230 300 361 427
#     4  11  21  35  60  94 130 171 233 276 342 404
#     4  11  23  42  70 114 137 178 242 295 357 438
#     4  11  20  37  63  90 127 178 226 289 332 410
#     4  11  19  38  61  88 132 178 235 272 345 405
#     4  10  21  42  69 101 138 183 224 285 367 433
#     4  11  23  37  60  97 135 179 224 290 344 411
#     4  12  21  37  57  81 127 191 234 277 330 400
#
# _framework density 23.997312000000001
#
# number of rings (size 3 to 8) (size 9 to 14) (size 15 to 20)
#    0.000    1.000    6.250    2.250    1.750    0.000 
#    2.250    0.000    0.000    0.000   35.750    0.000 
#    0.000    0.000    0.000    0.000    0.000    0.000 
#
# Total GULP energy -267574.640758 kJ/mol
# GULP energy per Si atom -5574.471682 kJ/mol
# Density = 2.394269 g / cm^3
# Si number density = 23.997312 Si / 1000 Ang^3
#
#
#
# Elastic Constant Matrix: (Units=GPa)
#
#
# Indices 1 2 3 4 5 6 
#
# 1 63.3608 44.4792 21.2232 0.0000 0.0000 0.0000
# 2 44.4792 63.3608 21.2232 0.0000 0.0000 0.0000
# 3 21.2232 21.2232 90.4163 0.0000 0.0000 0.0000
# 4 0.0000 0.0000 0.0000 18.3823 0.0000 0.0000
# 5 0.0000 0.0000 0.0000 0.0000 18.3823 0.0000
# 6 0.0000 0.0000 0.0000 0.0000 0.0000 9.4408
#
#
#
# Elastic Compliance Matrix: (Units=1/GPa)
#
#
# Indices 1 2 3 4 5 6 
#
# 1 0.031589 -0.021372 -0.002398 0.000000 0.000000 0.000000
# 2 -0.021372 0.031589 -0.002398 0.000000 0.000000 0.000000
# 3 -0.002398 -0.002398 0.012186 0.000000 0.000000 0.000000
# 4 0.000000 0.000000 0.000000 0.054400 0.000000 0.000000
# 5 0.000000 0.000000 0.000000 0.000000 0.054400 0.000000
# 6 0.000000 0.000000 0.000000 0.000000 0.000000 0.105923
#
#
# Mechanical properties :
#
#
# Convention : Reuss Voigt Hill
#
# Bulk Modulus (GPa) = 43.42750 43.44324 43.43537
# Shear Modulus (GPa) = 14.28160 17.92188 16.10174
#
# Velocity S-wave (km/s) = 2.44218 2.73578 2.59314
# Velocity P-wave (km/s) = 5.10768 5.30302 5.20627
#
# Compressibility (1/GPa) = 0.02302689
#
# Stress axis : x y z
#
# Youngs Moduli (GPa) = 31.65637 31.65637 82.06268
#
# Poissons Ratio (x) = 0.67657 0.19680
# Poissons Ratio (y) = 0.67657 0.19680
# Poissons Ratio (z) = 0.07592 0.07592
#
# Static dielectric constant tensor:
#      x y z
#    x 1.977360 0.000000 0.000000 
#    y 0.000000 1.977360 0.000000 
#    z 0.000000 0.000000 1.965740 
# 
# From -- ./inp_files/769.got.cif
#   From: 2010.05.17/outbox.cif.g08.bks.cpg/sg169_cif.got.tgz:769.got - 2010.05.20 11:12:54.
