data_PCOD9579132
_publ_section_title
;
Structure prediction by ZEFSAII (Michael W. Deem and Ramdas Pophale) SiO2 
 PCOD9579132
Probable space group: R -3 M
;
_chemical_formula_sum "Si O2"
_cell_formula_units_Z 126
_cell_length_a 20.317738
_cell_length_b 20.317738
_cell_length_c 18.949729
_cell_angle_alpha 90.000000
_cell_angle_beta 90.000000
_cell_angle_gamma 120.000000
_cell_volume 6774.610746
_symmetry_space_group_name_H-M "R -3 M"
_symmetry_group_IT_number 166
_symmetry_cell_setting 'hexagonal'
loop_
_space_group_symop_operation_xyz
x,y,z
-y,x-y,z
-x+y,-x,z
x-y,-y,-z
-x,-x+y,-z
y,x,-z
-x,-y,-z
y,-x+y,-z
x-y,x,-z
-x+y,y,z
x,x-y,z
-y,-x,z
2/3+x,1/3+y,1/3+z
2/3-y,1/3+x-y,1/3+z
2/3-x+y,1/3-x,1/3+z
2/3+x-y,1/3-y,1/3-z
2/3-x,1/3-x+y,1/3-z
2/3+y,1/3+x,1/3-z
2/3-x,1/3-y,1/3-z
2/3+y,1/3-x+y,1/3-z
2/3+x-y,1/3+x,1/3-z
2/3-x+y,1/3+y,1/3+z
2/3+x,1/3+x-y,1/3+z
2/3-y,1/3-x,1/3+z
1/3+x,2/3+y,2/3+z
1/3-y,2/3+x-y,2/3+z
1/3-x+y,2/3-x,2/3+z
1/3+x-y,2/3-y,2/3-z
1/3-x,2/3-x+y,2/3-z
1/3+y,2/3+x,2/3-z
1/3-x,2/3-y,2/3-z
1/3+y,2/3-x+y,2/3-z
1/3+x-y,2/3+x,2/3-z
1/3-x+y,2/3+y,2/3+z
1/3+x,2/3+x-y,2/3+z
1/3-y,2/3-x,2/3+z
loop_
_atom_site_type_symbol
_atom_site_label
_atom_site_fract_x
_atom_site_fract_y
_atom_site_fract_z
Si Si1 0.085667 0.171334 0.427528
Si Si2 0.067824 0.643677 0.819298
Si Si3 0.174586 0.825415 0.415011
Si Si4 0.494595 0.989189 0.711258
Si Si5 0.166342 0.583171 0.261502
Si Si6 0.797048 0.202953 0.218055
O O1 0.130868 0.261735 0.439015
O O2 0.076233 0.152465 0.510571
O O3 0.130274 0.135649 0.387075
O O4 0.058356 0.592793 0.887673
O O5 0.153467 0.708137 0.800478
O O6 0.017553 0.684220 0.833334
O O7 0.036864 0.582894 0.755357
O O8 0.166667 0.833334 0.333334
O O9 0.540113 0.080226 0.712731
O O10 0.477483 0.954965 0.632710
O O11 0.833334 0.166667 0.166667
#
# Coordination Sequence:
#
# PCOD9579132 Si02
#       6
#    18  36  18  18  18  18
#     4  10  19  33  52  83 118 155 192 231 292 344
#     4  10  21  38  58  84 117 152 195 242 299 357
#     4  11  23  37  59  89 119 153 194 246 298 355
#     4  11  20  35  60  83 115 155 202 252 294 354
#     4  10  19  32  55  81 117 156 194 235 281 352
#     4  10  23  37  55  82 109 151 196 246 300 351
#
# _framework density 18.598852999999998
#
# number of rings (size 3 to 8) (size 9 to 14) (size 15 to 20)
#    0.000    1.714    2.857    2.857    0.000   10.286 
#    0.000    0.000    0.000    4.571    0.000    8.000 
#    0.000    0.000    0.000    0.000    0.000    0.000 
#
# Total GULP energy -233806.204242 kJ/mol
# GULP energy per Si atom -5566.814387 kJ/mol
# Density = 1.855652 g / cm^3
# Si number density = 18.598853 Si / 1000 Ang^3
#
#
#
# Elastic Constant Matrix: (Units=GPa)
#
#
# Indices 1 2 3 4 5 6 
#
# 1 133.5360 71.3217 34.4582 -5.6634 0.0001 0.0000
# 2 71.3217 133.5360 34.4582 5.6634 -0.0001 0.0000
# 3 34.4582 34.4582 119.0592 0.0000 0.0000 0.0000
# 4 -5.6634 5.6634 0.0000 -46.8802 0.0000 -0.0001
# 5 0.0001 -0.0001 0.0000 0.0000 -46.8802 -5.6634
# 6 0.0000 0.0000 0.0000 -0.0001 -5.6634 31.1071
#
#
#
# Elastic Compliance Matrix: (Units=1/GPa)
#
#
# Indices 1 2 3 4 5 6 
#
# 1 0.010568 -0.005160 -0.001565 -0.001900 0.000000 0.000000
# 2 -0.005160 0.010568 -0.001565 0.001900 0.000000 0.000000
# 3 -0.001565 -0.001565 0.009305 0.000000 0.000000 0.000000
# 4 -0.001900 0.001900 0.000000 -0.020872 0.000000 0.000000
# 5 0.000000 0.000000 0.000000 0.000000 -0.020872 -0.003800
# 6 0.000000 0.000000 0.000000 0.000000 -0.003800 0.031455
#
#
# Mechanical properties :
#
#
# Convention : Reuss Voigt Hill
#
# Bulk Modulus (GPa) = 72.14795 74.06751 73.10773
# Shear Modulus (GPa) = 120.91161 3.86221 62.38691
#
# Velocity S-wave (km/s) = 8.07164 1.44260 5.79795
# Velocity P-wave (km/s) = 11.21358 6.53337 9.17685
#
# Compressibility (1/GPa) = 0.01386041
#
# Stress axis : x y z
#
# Youngs Moduli (GPa) = 94.62727 94.62727 107.46702
#
# Poissons Ratio (x) = 0.48826 0.16821
# Poissons Ratio (y) = 0.48826 0.16821
# Poissons Ratio (z) = 0.14811 0.14811
#
# Static dielectric constant tensor:
#      x y z
#    x 1.590220 0.000000 0.000000 
#    y 0.000000 1.590220 0.000000 
#    z 0.000000 0.000000 1.671970 
# 
# From -- ./inp_files/4993.got.cif
#   From: 2010.05.17/outbox.cif.g08.bks.cpg/sg166_3_cif.got.tgz:4993.got - 2010.05.20 11:04:41.
