data_PCOD9579521
_publ_section_title
;
Structure prediction by ZEFSAII (Michael W. Deem and Ramdas Pophale) SiO2 
 PCOD9579521
Probable space group: R -3 C 
;
_chemical_formula_sum "Si O2"
_cell_formula_units_Z 162
_cell_length_a 18.671948
_cell_length_b 18.671948
_cell_length_c 21.808831
_cell_angle_alpha 90.000000
_cell_angle_beta 90.000000
_cell_angle_gamma 120.000000
_cell_volume 6584.795278
_symmetry_space_group_name_H-M "R -3 C "
_symmetry_group_IT_number 167
_symmetry_cell_setting 'hexagonal'
loop_
_space_group_symop_operation_xyz
x,y,z
-y,x-y,z
-x+y,-x,z
x-y,-y,1/2-z
-x,-x+y,1/2-z
y,x,1/2-z
-x,-y,-z
y,-x+y,-z
x-y,x,-z
-x+y,y,1/2+z
x,x-y,1/2+z
-y,-x,1/2+z
2/3+x,1/3+y,1/3+z
2/3-y,1/3+x-y,1/3+z
2/3-x+y,1/3-x,1/3+z
2/3+x-y,1/3-y,5/6-z
2/3-x,1/3-x+y,5/6-z
2/3+y,1/3+x,5/6-z
2/3-x,1/3-y,1/3-z
2/3+y,1/3-x+y,1/3-z
2/3+x-y,1/3+x,1/3-z
2/3-x+y,1/3+y,5/6+z
2/3+x,1/3+x-y,5/6+z
2/3-y,1/3-x,5/6+z
1/3+x,2/3+y,2/3+z
1/3-y,2/3+x-y,2/3+z
1/3-x+y,2/3-x,2/3+z
1/3+x-y,2/3-y,1/6-z
1/3-x,2/3-x+y,1/6-z
1/3+y,2/3+x,1/6-z
1/3-x,2/3-y,2/3-z
1/3+y,2/3-x+y,2/3-z
1/3+x-y,2/3+x,2/3-z
1/3-x+y,2/3+y,1/6+z
1/3+x,2/3+x-y,1/6+z
1/3-y,2/3-x,1/6+z
loop_
_atom_site_type_symbol
_atom_site_label
_atom_site_fract_x
_atom_site_fract_y
_atom_site_fract_z
Si Si1 0.805340 0.138673 0.916667
Si Si2 0.341902 0.428589 0.738701
Si Si3 0.838704 0.428203 0.346929
Si Si4 0.038872 0.241364 0.374917
Si Si5 0.232258 0.167492 0.201096
O O1 0.897016 0.171455 0.948512
O O2 0.723796 0.119320 0.954606
O O3 0.346045 0.346045 0.750000
O O4 0.351614 0.563751 0.698823
O O5 0.277847 0.420188 0.687690
O O6 0.317133 0.448267 0.803757
O O7 0.857742 0.383811 0.402980
O O8 0.080358 0.225976 0.315039
O O9 0.099417 0.339706 0.387293
O O10 0.170983 0.170983 0.250000
#
# Coordination Sequence:
#
# PCOD9579521 Si02
#       5
#    18  36  36  36  36
#     4  10  20  42  66  94 138 180 240 302 366 432
#     4   9  23  40  63  97 134 178 231 296 362 439
#     4  11  23  38  64 101 139 178 229 295 370 435
#     4  10  22  39  63  97 134 188 236 298 366 446
#     4  10  21  40  64  92 137 188 238 295 366 447
#
# _framework density 24.602132000000001
#
# number of rings (size 3 to 8) (size 9 to 14) (size 15 to 20)
#    0.667    1.333    1.111    1.556    3.111    1.778 
#    0.000    1.111    0.000    0.000    0.000    0.000 
#    0.000    0.000    0.000    0.000    0.000    0.000 
#
# Total GULP energy -300626.781262 kJ/mol
# GULP energy per Si atom -5567.162616 kJ/mol
# Density = 2.454614 g / cm^3
# Si number density = 24.602132 Si / 1000 Ang^3
#
#
#
# Elastic Constant Matrix: (Units=GPa)
#
#
# Indices 1 2 3 4 5 6 
#
# 1 161.2052 46.4541 46.5862 -15.0498 0.0009 0.0000
# 2 46.4541 161.2052 46.5862 15.0498 -0.0009 0.0000
# 3 46.5862 46.5862 80.6183 0.0000 0.0000 0.0000
# 4 -15.0498 15.0498 0.0000 24.9440 0.0000 -0.0009
# 5 0.0009 -0.0009 0.0000 0.0000 24.9440 -15.0498
# 6 0.0000 0.0000 0.0000 -0.0009 -15.0498 57.3755
#
#
#
# Elastic Compliance Matrix: (Units=1/GPa)
#
#
# Indices 1 2 3 4 5 6 
#
# 1 0.008427 -0.001926 -0.003757 0.006246 0.000000 0.000000
# 2 -0.001926 0.008427 -0.003757 -0.006246 0.000000 0.000000
# 3 -0.003757 -0.003757 0.016746 0.000000 0.000000 0.000000
# 4 0.006246 -0.006246 0.000000 0.047627 0.000000 0.000001
# 5 0.000000 0.000000 0.000000 0.000000 0.047627 0.012493
# 6 0.000000 0.000000 0.000000 0.000001 0.012493 0.020706
#
#
# Mechanical properties :
#
#
# Convention : Reuss Voigt Hill
#
# Bulk Modulus (GPa) = 67.92945 75.80908 71.86927
# Shear Modulus (GPa) = 28.84398 39.01286 33.92842
#
# Velocity S-wave (km/s) = 3.42777 3.98647 3.71763
# Velocity P-wave (km/s) = 6.58311 7.21597 6.90679
#
# Compressibility (1/GPa) = 0.01472116
#
# Stress axis : x y z
#
# Youngs Moduli (GPa) = 118.66519 118.66519 59.71605
#
# Poissons Ratio (x) = 0.22854 0.22434
# Poissons Ratio (y) = 0.22854 0.22434
# Poissons Ratio (z) = 0.44580 0.44580
#
# Static dielectric constant tensor:
#      x y z
#    x 1.867920 0.000000 0.000000 
#    y 0.000000 1.867920 0.000000 
#    z 0.000000 0.000000 1.737170 
# 
# From -- ./inp_files/5306.got.cif
#   From: 2010.05.17/outbox.cif.g08.bks.cpg/sg167_3_cif.got.tgz:5306.got - 2010.05.20 11:09:15.
