data_PCOD9579494
_publ_section_title
;
Structure prediction by ZEFSAII (Michael W. Deem and Ramdas Pophale) SiO2 
 PCOD9579494
Probable space group: R -3 C 
;
_chemical_formula_sum "Si O2"
_cell_formula_units_Z 210
_cell_length_a 28.532948
_cell_length_b 28.532948
_cell_length_c 14.288000
_cell_angle_alpha 90.000000
_cell_angle_beta 90.000000
_cell_angle_gamma 120.000000
_cell_volume 10073.847290
_symmetry_space_group_name_H-M "R -3 C "
_symmetry_group_IT_number 167
_symmetry_cell_setting 'hexagonal'
loop_
_space_group_symop_operation_xyz
x,y,z
-y,x-y,z
-x+y,-x,z
x-y,-y,1/2-z
-x,-x+y,1/2-z
y,x,1/2-z
-x,-y,-z
y,-x+y,-z
x-y,x,-z
-x+y,y,1/2+z
x,x-y,1/2+z
-y,-x,1/2+z
2/3+x,1/3+y,1/3+z
2/3-y,1/3+x-y,1/3+z
2/3-x+y,1/3-x,1/3+z
2/3+x-y,1/3-y,5/6-z
2/3-x,1/3-x+y,5/6-z
2/3+y,1/3+x,5/6-z
2/3-x,1/3-y,1/3-z
2/3+y,1/3-x+y,1/3-z
2/3+x-y,1/3+x,1/3-z
2/3-x+y,1/3+y,5/6+z
2/3+x,1/3+x-y,5/6+z
2/3-y,1/3-x,5/6+z
1/3+x,2/3+y,2/3+z
1/3-y,2/3+x-y,2/3+z
1/3-x+y,2/3-x,2/3+z
1/3+x-y,2/3-y,1/6-z
1/3-x,2/3-x+y,1/6-z
1/3+y,2/3+x,1/6-z
1/3-x,2/3-y,2/3-z
1/3+y,2/3-x+y,2/3-z
1/3+x-y,2/3+x,2/3-z
1/3-x+y,2/3+y,1/6+z
1/3+x,2/3+x-y,1/6+z
1/3-y,2/3-x,1/6+z
loop_
_atom_site_type_symbol
_atom_site_label
_atom_site_fract_x
_atom_site_fract_y
_atom_site_fract_z
Si Si1 0.375120 0.910674 0.246821
Si Si2 0.780047 0.502883 0.527817
Si Si3 0.622362 0.666667 0.416667
Si Si4 0.666668 0.333334 0.721547
Si Si5 0.411629 0.666667 0.916667
Si Si6 0.169897 0.836564 0.583334
Si Si7 0.826948 0.736118 0.269456
Si Si8 0.091896 0.683427 0.286010
O O1 0.371982 0.853632 0.266387
O O2 0.357629 0.933665 0.336243
O O3 0.343026 0.910517 0.156172
O O4 0.437817 0.951231 0.226857
O O5 0.809139 0.475806 0.583334
O O6 0.715997 0.463146 0.536057
O O7 0.783947 0.558766 0.561437
O O8 0.680130 0.709631 0.371773
O O9 0.666668 0.333335 0.833334
O O10 0.701804 0.310834 0.669354
O O11 0.132695 0.814925 0.675272
O O12 0.807860 0.737445 0.165009
O O13 0.789352 0.753765 0.328685
#
# Coordination Sequence:
#
# PCOD9579494 Si02
#       8
#    36  36  18  12  18  18  36  36
#     4  11  24  43  65 104 138 183 235 281 346 420
#     4  11  22  48  68  91 139 179 227 298 354 413
#     4  12  23  40  75 100 144 186 231 285 346 428
#     4  10  20  37  64 101 118 163 227 277 358 434
#     4  10  20  44  67  89 134 177 221 298 352 418
#     4  10  21  44  62  95 138 181 236 271 344 424
#     4  10  25  41  67  97 138 181 227 292 345 412
#     4  11  24  44  67 106 138 182 233 285 351 423
#
# _framework density 20.846056999999998
#
# number of rings (size 3 to 8) (size 9 to 14) (size 15 to 20)
#    0.000    1.371    4.286    1.543    7.200    0.686 
#   12.343    0.000    0.000    0.000    0.000    0.000 
#    0.000    0.000    0.000    0.000    0.000    0.000 
#
# Total GULP energy -389716.680838 kJ/mol
# GULP energy per Si atom -5567.381155 kJ/mol
# Density = 2.079861 g / cm^3
# Si number density = 20.846057 Si / 1000 Ang^3
#
#
#
# Elastic Constant Matrix: (Units=GPa)
#
#
# Indices 1 2 3 4 5 6 
#
# 1 87.6966 28.4776 28.6425 -1.5235 0.0002 0.0000
# 2 28.4776 87.6972 28.6426 1.5234 -0.0002 0.0000
# 3 28.6425 28.6426 96.9530 -0.0003 -0.0002 -0.0001
# 4 -1.5235 1.5234 -0.0003 26.1776 0.0000 -0.0002
# 5 0.0002 -0.0002 -0.0002 0.0000 26.1775 -1.5236
# 6 0.0000 0.0000 -0.0001 -0.0002 -1.5236 29.6095
#
#
#
# Elastic Compliance Matrix: (Units=1/GPa)
#
#
# Indices 1 2 3 4 5 6 
#
# 1 0.013506 -0.003431 -0.002977 0.000986 0.000000 0.000000
# 2 -0.003431 0.013506 -0.002977 -0.000986 0.000000 0.000000
# 3 -0.002977 -0.002977 0.012073 0.000000 0.000000 0.000000
# 4 0.000986 -0.000986 0.000000 0.038315 0.000000 0.000000
# 5 0.000000 0.000000 0.000000 0.000000 0.038315 0.001972
# 6 0.000000 0.000000 0.000000 0.000000 0.001972 0.033874
#
#
# Mechanical properties :
#
#
# Convention : Reuss Voigt Hill
#
# Bulk Modulus (GPa) = 49.21824 49.31912 49.26868
# Shear Modulus (GPa) = 28.55003 28.83187 28.69095
#
# Velocity S-wave (km/s) = 3.70478 3.72302 3.71391
# Velocity P-wave (km/s) = 6.47782 6.49548 6.48665
#
# Compressibility (1/GPa) = 0.02031767
#
# Stress axis : x y z
#
# Youngs Moduli (GPa) = 74.03935 74.03985 82.82948
#
# Poissons Ratio (x) = 0.25402 0.24655
# Poissons Ratio (y) = 0.25402 0.24655
# Poissons Ratio (z) = 0.22038 0.22038
#
# Static dielectric constant tensor:
#      x y z
#    x 1.802330 0.000000 0.000000 
#    y 0.000000 1.802330 0.000000 
#    z 0.000000 0.000000 1.797280 
# 
# From -- ./inp_files/2536.got.cif
#   From: 2010.05.17/outbox.cif.g08.bks.cpg/sg167_2_cif.got.tgz:2536.got - 2010.05.20 11:09:15.
