data_PCOD9579196
_publ_section_title
;
Structure prediction by ZEFSAII (Michael W. Deem and Ramdas Pophale) SiO2 
 PCOD9579196
Probable space group: R -3 M
;
_chemical_formula_sum "Si O2"
_cell_formula_units_Z 108
_cell_length_a 18.754710
_cell_length_b 18.754710
_cell_length_c 17.210698
_cell_angle_alpha 90.000000
_cell_angle_beta 90.000000
_cell_angle_gamma 120.000000
_cell_volume 5242.637407
_symmetry_space_group_name_H-M "R -3 M"
_symmetry_group_IT_number 166
_symmetry_cell_setting 'hexagonal'
loop_
_space_group_symop_operation_xyz
x,y,z
-y,x-y,z
-x+y,-x,z
x-y,-y,-z
-x,-x+y,-z
y,x,-z
-x,-y,-z
y,-x+y,-z
x-y,x,-z
-x+y,y,z
x,x-y,z
-y,-x,z
2/3+x,1/3+y,1/3+z
2/3-y,1/3+x-y,1/3+z
2/3-x+y,1/3-x,1/3+z
2/3+x-y,1/3-y,1/3-z
2/3-x,1/3-x+y,1/3-z
2/3+y,1/3+x,1/3-z
2/3-x,1/3-y,1/3-z
2/3+y,1/3-x+y,1/3-z
2/3+x-y,1/3+x,1/3-z
2/3-x+y,1/3+y,1/3+z
2/3+x,1/3+x-y,1/3+z
2/3-y,1/3-x,1/3+z
1/3+x,2/3+y,2/3+z
1/3-y,2/3+x-y,2/3+z
1/3-x+y,2/3-x,2/3+z
1/3+x-y,2/3-y,2/3-z
1/3-x,2/3-x+y,2/3-z
1/3+y,2/3+x,2/3-z
1/3-x,2/3-y,2/3-z
1/3+y,2/3-x+y,2/3-z
1/3+x-y,2/3+x,2/3-z
1/3-x+y,2/3+y,2/3+z
1/3+x,2/3+x-y,2/3+z
1/3-y,2/3-x,2/3+z
loop_
_atom_site_type_symbol
_atom_site_label
_atom_site_fract_x
_atom_site_fract_y
_atom_site_fract_z
Si Si1 0.236261 0.038469 0.649028
Si Si2 0.433238 0.409551 0.274038
Si Si3 0.371812 0.901287 0.484285
O O1 0.206137 0.103069 0.628449
O O2 0.333334 0.093808 0.666667
O O3 0.230893 0.968571 0.590721
O O4 0.197435 0.988716 0.728969
O O5 0.512507 0.487494 0.309344
O O6 0.393443 0.333334 0.333334
O O7 0.460328 0.376385 0.200905
O O8 0.435734 0.871468 0.507898
O O9 0.420640 0.000000 0.500000
#
# Coordination Sequence:
#
# PCOD9579196 Si02
#       3
#    36  36  36
#     4  10  20  34  54  81 113 147 187 236 286 338
#     4  11  21  35  58  85 114 151 192 238 286 339
#     4  11  20  35  56  83 117 150 192 241 288 338
#
# _framework density 20.600318999999999
#
# number of rings (size 3 to 8) (size 9 to 14) (size 15 to 20)
#    0.000    1.333    6.667    3.000    0.000    0.000 
#    0.000    0.000    0.000   19.333    0.000    0.000 
#    0.000    1.333    0.000    0.000    0.000    0.000 
#
# Total GULP energy -200672.961628 kJ/mol
# GULP energy per Si atom -5574.248934 kJ/mol
# Density = 2.055343 g / cm^3
# Si number density = 20.600319 Si / 1000 Ang^3
#
#
#
# Elastic Constant Matrix: (Units=GPa)
#
#
# Indices 1 2 3 4 5 6 
#
# 1 101.4806 75.8551 21.3288 -4.2974 0.0010 0.0000
# 2 75.8551 101.4806 21.3288 4.2974 -0.0010 0.0000
# 3 21.3288 21.3288 58.6777 0.0000 0.0000 0.0000
# 4 -4.2974 4.2974 0.0000 11.2145 0.0000 -0.0010
# 5 0.0010 -0.0010 0.0000 0.0000 11.2145 -4.2974
# 6 0.0000 0.0000 0.0000 -0.0010 -4.2974 12.8127
#
#
#
# Elastic Compliance Matrix: (Units=1/GPa)
#
#
# Indices 1 2 3 4 5 6 
#
# 1 0.025479 -0.019300 -0.002246 0.017159 -0.000004 0.000000
# 2 -0.019300 0.025479 -0.002246 -0.017159 0.000004 0.000000
# 3 -0.002246 -0.002246 0.018675 0.000000 0.000000 0.000000
# 4 0.017159 -0.017159 0.000000 0.102321 0.000000 0.000008
# 5 -0.000004 0.000004 0.000000 0.000000 0.102321 0.034318
# 6 0.000000 0.000000 0.000000 0.000008 0.034318 0.089558
#
#
# Mechanical properties :
#
#
# Convention : Reuss Voigt Hill
#
# Bulk Modulus (GPa) = 45.35293 55.40712 50.38003
# Shear Modulus (GPa) = 11.93983 16.59010 14.26496
#
# Velocity S-wave (km/s) = 2.41009 2.84092 2.63432
# Velocity P-wave (km/s) = 5.45968 6.14131 5.81050
#
# Compressibility (1/GPa) = 0.02204929
#
# Stress axis : x y z
#
# Youngs Moduli (GPa) = 39.24787 39.24787 53.54707
#
# Poissons Ratio (x) = 0.75747 0.12027
# Poissons Ratio (y) = 0.75747 0.12027
# Poissons Ratio (z) = 0.08816 0.08816
#
# Static dielectric constant tensor:
#      x y z
#    x 1.758180 0.000000 0.000000 
#    y 0.000000 1.758180 0.000000 
#    z 0.000000 0.000000 1.840160 
# 
# From -- ./inp_files/6307.got.cif
#   From: 2010.05.17/outbox.cif.g08.bks.cpg/sg166_4_cif.got.tgz:6307.got - 2010.05.20 11:04:41.
