data_PCOD9579197
_publ_section_title
;
Structure prediction by ZEFSAII (Michael W. Deem and Ramdas Pophale) SiO2 
 PCOD9579197
Probable space group: R -3 M
;
_chemical_formula_sum "Si O2"
_cell_formula_units_Z 108
_cell_length_a 30.399809
_cell_length_b 30.399809
_cell_length_c 6.404148
_cell_angle_alpha 90.000000
_cell_angle_beta 90.000000
_cell_angle_gamma 120.000000
_cell_volume 5125.470067
_symmetry_space_group_name_H-M "R -3 M"
_symmetry_group_IT_number 166
_symmetry_cell_setting 'hexagonal'
loop_
_space_group_symop_operation_xyz
x,y,z
-y,x-y,z
-x+y,-x,z
x-y,-y,-z
-x,-x+y,-z
y,x,-z
-x,-y,-z
y,-x+y,-z
x-y,x,-z
-x+y,y,z
x,x-y,z
-y,-x,z
2/3+x,1/3+y,1/3+z
2/3-y,1/3+x-y,1/3+z
2/3-x+y,1/3-x,1/3+z
2/3+x-y,1/3-y,1/3-z
2/3-x,1/3-x+y,1/3-z
2/3+y,1/3+x,1/3-z
2/3-x,1/3-y,1/3-z
2/3+y,1/3-x+y,1/3-z
2/3+x-y,1/3+x,1/3-z
2/3-x+y,1/3+y,1/3+z
2/3+x,1/3+x-y,1/3+z
2/3-y,1/3-x,1/3+z
1/3+x,2/3+y,2/3+z
1/3-y,2/3+x-y,2/3+z
1/3-x+y,2/3-x,2/3+z
1/3+x-y,2/3-y,2/3-z
1/3-x,2/3-x+y,2/3-z
1/3+y,2/3+x,2/3-z
1/3-x,2/3-y,2/3-z
1/3+y,2/3-x+y,2/3-z
1/3+x-y,2/3+x,2/3-z
1/3-x+y,2/3+y,2/3+z
1/3+x,2/3+x-y,2/3+z
1/3-y,2/3-x,2/3+z
loop_
_atom_site_type_symbol
_atom_site_label
_atom_site_fract_x
_atom_site_fract_y
_atom_site_fract_z
Si Si1 0.000000 0.711653 0.500000
Si Si2 0.900173 0.000000 0.500000
Si Si3 0.240636 0.385247 0.202357
Si Si4 0.479887 0.288858 0.486440
O O1 0.025378 0.692045 0.333334
O O2 0.045921 0.765395 0.586533
O O3 0.879390 0.019002 0.687948
O O4 0.953340 0.046660 0.429142
O O5 0.195447 0.390894 0.093274
O O6 0.213081 0.333334 0.333334
O O7 0.266838 0.430111 0.371383
O O8 0.479992 0.239996 0.384736
O O9 0.487374 0.333334 0.333334
#
# Coordination Sequence:
#
# PCOD9579197 Si02
#       4
#    18  18  36  36
#     4  10  21  38  61  87 114 147 189 234 283 344
#     4  10  20  34  54  83 120 159 196 234 276 326
#     4   9  19  36  56  80 112 144 178 229 287 338
#     4  10  20  35  57  84 116 155 197 239 284 339
#
# _framework density 21.07124
#
# number of rings (size 3 to 8) (size 9 to 14) (size 15 to 20)
#    0.000    2.333    0.000    2.167    0.000    5.333 
#    0.000    2.500    0.000    5.333    0.000    0.000 
#    0.000    0.000    0.000    0.000    0.000    0.000 
#
# Total GULP energy -200794.898830 kJ/mol
# GULP energy per Si atom -5577.636079 kJ/mol
# Density = 2.102328 g / cm^3
# Si number density = 21.071240 Si / 1000 Ang^3
#
#
#
# Elastic Constant Matrix: (Units=GPa)
#
#
# Indices 1 2 3 4 5 6 
#
# 1 146.1336 66.5524 15.6820 0.3478 -0.0072 -0.0355
# 2 66.5524 146.2085 15.8055 -0.4061 -0.0435 -0.0137
# 3 15.6820 15.8055 7.6358 -0.0649 -0.1801 -0.0793
# 4 0.3478 -0.4061 -0.0649 15.4763 0.0123 0.0131
# 5 -0.0072 -0.0435 -0.1801 0.0123 15.5132 0.3732
# 6 -0.0355 -0.0137 -0.0793 0.0131 0.3732 39.8107
#
#
#
# Elastic Compliance Matrix: (Units=1/GPa)
#
#
# Indices 1 2 3 4 5 6 
#
# 1 0.009647 -0.002898 -0.013820 -0.000351 -0.000163 -0.000018
# 2 -0.002898 0.009683 -0.014092 0.000260 -0.000137 -0.000026
# 3 -0.013820 -0.014092 0.188575 0.000730 0.002135 0.000338
# 4 -0.000351 0.000260 0.000730 0.064633 -0.000042 -0.000020
# 5 -0.000163 -0.000137 0.002135 -0.000042 0.064500 -0.000601
# 6 -0.000018 -0.000026 0.000338 -0.000020 -0.000601 0.025125
#
#
# Mechanical properties :
#
#
# Convention : Reuss Voigt Hill
#
# Bulk Modulus (GPa) = 6.83601 55.11750 30.97676
# Shear Modulus (GPa) = 10.58101 27.62257 19.10179
#
# Velocity S-wave (km/s) = 2.24331 3.62458 3.01414
# Velocity P-wave (km/s) = 3.15614 6.61296 5.18134
#
# Compressibility (1/GPa) = 0.14628412
#
# Stress axis : x y z
#
# Youngs Moduli (GPa) = 103.66088 103.27599 5.30293
#
# Poissons Ratio (x) = 0.29931 0.07329
# Poissons Ratio (y) = 0.30042 0.07473
# Poissons Ratio (z) = 1.43262 1.45535
#
# Static dielectric constant tensor:
#      x y z
#    x 1.783310 0.000130 -0.000160 
#    y 0.000130 1.783010 -0.000020 
#    z -0.000160 -0.000020 1.741790 
# 
# From -- ./inp_files/1521.got.cif
#   From: 2010.05.17/outbox.cif.g08.bks.cpg/sg166_1_cif.got.tgz:1521.got - 2010.05.20 11:04:41.
