data_PCOD9579121
_publ_section_title
;
Structure prediction by ZEFSAII (Michael W. Deem and Ramdas Pophale) SiO2 
 PCOD9579121
Probable space group: R -3 M
;
_chemical_formula_sum "Si O2"
_cell_formula_units_Z 162
_cell_length_a 23.201700
_cell_length_b 23.201700
_cell_length_c 18.225792
_cell_angle_alpha 90.000000
_cell_angle_beta 90.000000
_cell_angle_gamma 120.000000
_cell_volume 8496.824643
_symmetry_space_group_name_H-M "R -3 M"
_symmetry_group_IT_number 166
_symmetry_cell_setting 'hexagonal'
loop_
_space_group_symop_operation_xyz
x,y,z
-y,x-y,z
-x+y,-x,z
x-y,-y,-z
-x,-x+y,-z
y,x,-z
-x,-y,-z
y,-x+y,-z
x-y,x,-z
-x+y,y,z
x,x-y,z
-y,-x,z
2/3+x,1/3+y,1/3+z
2/3-y,1/3+x-y,1/3+z
2/3-x+y,1/3-x,1/3+z
2/3+x-y,1/3-y,1/3-z
2/3-x,1/3-x+y,1/3-z
2/3+y,1/3+x,1/3-z
2/3-x,1/3-y,1/3-z
2/3+y,1/3-x+y,1/3-z
2/3+x-y,1/3+x,1/3-z
2/3-x+y,1/3+y,1/3+z
2/3+x,1/3+x-y,1/3+z
2/3-y,1/3-x,1/3+z
1/3+x,2/3+y,2/3+z
1/3-y,2/3+x-y,2/3+z
1/3-x+y,2/3-x,2/3+z
1/3+x-y,2/3-y,2/3-z
1/3-x,2/3-x+y,2/3-z
1/3+y,2/3+x,2/3-z
1/3-x,2/3-y,2/3-z
1/3+y,2/3-x+y,2/3-z
1/3+x-y,2/3+x,2/3-z
1/3-x+y,2/3+y,2/3+z
1/3+x,2/3+x-y,2/3+z
1/3-y,2/3-x,2/3+z
loop_
_atom_site_type_symbol
_atom_site_label
_atom_site_fract_x
_atom_site_fract_y
_atom_site_fract_z
Si Si1 0.271858 0.853632 0.282519
Si Si2 0.363962 0.285503 0.511187
Si Si3 0.132343 0.742479 0.649452
Si Si4 0.129406 0.129406 0.500000
Si Si5 0.806320 0.058247 0.269030
O O1 0.207854 0.792147 0.319290
O O2 0.248109 0.900933 0.242661
O O3 0.298056 0.822013 0.221917
O O4 0.335676 0.888540 0.334366
O O5 0.324692 0.324692 0.500000
O O6 0.363193 0.251628 0.434176
O O7 0.438586 0.342889 0.533062
O O8 0.210554 0.789447 0.655779
O O9 0.105440 0.666667 0.666667
O O10 0.098493 0.769102 0.707559
O O11 0.118422 0.059211 0.468989
O O12 0.884697 0.115304 0.264887
#
# Coordination Sequence:
#
# PCOD9579121 Si02
#       5
#    36  36  36  18  36
#     4  11  21  35  57  83 116 153 186 225 280 341
#     4  12  21  36  57  85 117 148 184 226 286 344
#     4  11  22  38  59  86 117 152 192 238 287 340
#     4  10  19  32  52  78 111 150 192 230 268 320
#     4  11  23  38  58  83 116 151 190 236 283 338
#
# _framework density 19.065946
#
# number of rings (size 3 to 8) (size 9 to 14) (size 15 to 20)
#    0.000    0.889    5.556    2.111    0.000    7.556 
#    0.000    0.000    0.000    0.667    0.000    1.556 
#    0.000    0.000    0.000    0.000    0.000    0.000 
#
# Total GULP energy -300935.342354 kJ/mol
# GULP energy per Si atom -5572.876710 kJ/mol
# Density = 1.902255 g / cm^3
# Si number density = 19.065946 Si / 1000 Ang^3
#
#
#
# Elastic Constant Matrix: (Units=GPa)
#
#
# Indices 1 2 3 4 5 6 
#
# 1 84.7861 53.8414 -3.4000 -8.7398 0.0010 0.0000
# 2 53.8414 84.7861 -3.4000 8.7398 -0.0010 0.0000
# 3 -3.4000 -3.4000 19.7595 0.0000 0.0000 0.0000
# 4 -8.7398 8.7398 0.0000 -8.8642 0.0000 -0.0010
# 5 0.0010 -0.0010 0.0000 0.0000 -8.8642 -8.7398
# 6 0.0000 0.0000 0.0000 -0.0010 -8.7398 15.4723
#
#
#
# Elastic Compliance Matrix: (Units=1/GPa)
#
#
# Indices 1 2 3 4 5 6 
#
# 1 0.014016 -0.006741 0.001252 -0.020465 0.000002 0.000000
# 2 -0.006741 0.014016 0.001252 0.020465 -0.000002 0.000000
# 3 0.001252 0.001252 0.051039 0.000000 0.000000 0.000000
# 4 -0.020465 0.020465 0.000000 -0.072459 0.000000 -0.000005
# 5 0.000002 -0.000002 0.000000 0.000000 -0.072459 -0.040929
# 6 0.000000 0.000000 0.000000 -0.000005 -0.040929 0.041512
#
#
# Mechanical properties :
#
#
# Convention : Reuss Voigt Hill
#
# Bulk Modulus (GPa) = 14.16503 31.49052 22.82778
# Shear Modulus (GPa) = 651.77494 9.03479 330.40486
#
# Velocity S-wave (km/s) = 18.50932 2.17922 13.17847
# Velocity P-wave (km/s) = 21.54621 4.78377 15.60646
#
# Compressibility (1/GPa) = 0.07059641
#
# Stress axis : x y z
#
# Youngs Moduli (GPa) = 71.34952 71.34952 19.59274
#
# Poissons Ratio (x) = 0.48093 -0.02453
# Poissons Ratio (y) = 0.48093 -0.02453
# Poissons Ratio (z) = -0.08931 -0.08931
#
# Static dielectric constant tensor:
#      x y z
#    x 1.677170 0.000000 0.000000 
#    y 0.000000 1.677170 0.000000 
#    z 0.000000 0.000000 1.774540 
# 
# From -- ./inp_files/5377.got.cif
#   From: 2010.05.17/outbox.cif.g08.bks.cpg/sg166_3_cif.got.tgz:5377.got - 2010.05.20 11:04:41.
