data_PCOD9579583
_publ_section_title
;
Structure prediction by ZEFSAII (Michael W. Deem and Ramdas Pophale) SiO2 
 PCOD9579583
Probable space group: R -3 C 
;
_chemical_formula_sum "Si O2"
_cell_formula_units_Z 120
_cell_length_a 16.611362
_cell_length_b 16.611362
_cell_length_c 24.313976
_cell_angle_alpha 90.000000
_cell_angle_beta 90.000000
_cell_angle_gamma 120.000000
_cell_volume 5810.280520
_symmetry_space_group_name_H-M "R -3 C "
_symmetry_group_IT_number 167
_symmetry_cell_setting 'hexagonal'
loop_
_space_group_symop_operation_xyz
x,y,z
-y,x-y,z
-x+y,-x,z
x-y,-y,1/2-z
-x,-x+y,1/2-z
y,x,1/2-z
-x,-y,-z
y,-x+y,-z
x-y,x,-z
-x+y,y,1/2+z
x,x-y,1/2+z
-y,-x,1/2+z
2/3+x,1/3+y,1/3+z
2/3-y,1/3+x-y,1/3+z
2/3-x+y,1/3-x,1/3+z
2/3+x-y,1/3-y,5/6-z
2/3-x,1/3-x+y,5/6-z
2/3+y,1/3+x,5/6-z
2/3-x,1/3-y,1/3-z
2/3+y,1/3-x+y,1/3-z
2/3+x-y,1/3+x,1/3-z
2/3-x+y,1/3+y,5/6+z
2/3+x,1/3+x-y,5/6+z
2/3-y,1/3-x,5/6+z
1/3+x,2/3+y,2/3+z
1/3-y,2/3+x-y,2/3+z
1/3-x+y,2/3-x,2/3+z
1/3+x-y,2/3-y,1/6-z
1/3-x,2/3-x+y,1/6-z
1/3+y,2/3+x,1/6-z
1/3-x,2/3-y,2/3-z
1/3+y,2/3-x+y,2/3-z
1/3+x-y,2/3+x,2/3-z
1/3-x+y,2/3+y,1/6+z
1/3+x,2/3+x-y,1/6+z
1/3-y,2/3-x,1/6+z
loop_
_atom_site_type_symbol
_atom_site_label
_atom_site_fract_x
_atom_site_fract_y
_atom_site_fract_z
Si Si1 0.666668 0.333334 0.148288
Si Si2 0.948506 0.684716 0.474212
Si Si3 0.544540 0.808704 0.843562
Si Si4 0.835440 0.685942 0.570790
O O1 0.666668 0.333334 0.083334
O O2 0.565568 0.249078 0.163815
O O3 0.893252 0.666667 0.416667
O O4 0.923486 0.585125 0.498915
O O5 0.910736 0.720726 0.522605
O O6 0.054335 0.751238 0.454437
O O7 0.582665 0.796674 0.902653
O O8 0.586167 0.782036 0.791471
#
# Coordination Sequence:
#
# PCOD9579583 Si02
#       4
#    12  36  36  36
#     4  12  24  39  63  94 128 160 207 264 319 374
#     4  10  22  39  63  92 122 163 208 255 312 374
#     4  10  24  41  63  92 121 162 208 257 314 376
#     4  10  22  41  63  91 125 161 207 255 311 378
#
# _framework density 20.653047999999998
#
# number of rings (size 3 to 8) (size 9 to 14) (size 15 to 20)
#    0.000    1.800    0.000    2.700    0.000   22.800 
#    0.000    0.000    0.000    7.800    0.000    0.000 
#    0.000    0.000    0.000    0.000    0.000    0.000 
#
# Total GULP energy -222796.728121 kJ/mol
# GULP energy per Si atom -5569.918203 kJ/mol
# Density = 2.060604 g / cm^3
# Si number density = 20.653048 Si / 1000 Ang^3
#
#
#
# Elastic Constant Matrix: (Units=GPa)
#
#
# Indices 1 2 3 4 5 6 
#
# 1 83.7638 53.5856 38.3023 -4.0647 -0.0001 0.0000
# 2 53.5856 83.7612 38.3023 4.0646 0.0001 -0.0001
# 3 38.3023 38.3023 141.4803 0.0000 -0.0001 0.0001
# 4 -4.0647 4.0646 0.0000 37.9021 -0.0001 0.0002
# 5 -0.0001 0.0001 -0.0001 -0.0001 37.9034 -4.0651
# 6 0.0000 -0.0001 0.0001 0.0002 -4.0651 15.0877
#
#
#
# Elastic Compliance Matrix: (Units=1/GPa)
#
#
# Indices 1 2 3 4 5 6 
#
# 1 0.021349 -0.012774 -0.002322 0.003659 0.000000 0.000000
# 2 -0.012774 0.021350 -0.002322 -0.003659 0.000000 0.000000
# 3 -0.002322 -0.002322 0.008325 0.000000 0.000000 0.000000
# 4 0.003659 -0.003659 0.000000 0.027169 0.000000 0.000000
# 5 0.000000 0.000000 0.000000 0.000000 0.027168 0.007320
# 6 0.000000 0.000000 0.000000 0.000000 0.007320 0.068252
#
#
# Mechanical properties :
#
#
# Convention : Reuss Voigt Hill
#
# Bulk Modulus (GPa) = 61.76693 63.26507 62.51600
# Shear Modulus (GPa) = 23.38153 30.09965 26.74059
#
# Velocity S-wave (km/s) = 3.36834 3.82173 3.60217
# Velocity P-wave (km/s) = 6.71561 7.08329 6.90190
#
# Compressibility (1/GPa) = 0.01618989
#
# Stress axis : x y z
#
# Youngs Moduli (GPa) = 46.83992 46.83824 120.11752
#
# Poissons Ratio (x) = 0.59831 0.27886
# Poissons Ratio (y) = 0.59834 0.27888
# Poissons Ratio (z) = 0.10874 0.10875
#
# Static dielectric constant tensor:
#      x y z
#    x 1.850790 0.000000 0.000000 
#    y 0.000000 1.850790 0.000000 
#    z 0.000000 0.000000 1.771030 
# 
# From -- ./inp_files/5104.got.cif
#   From: 2010.05.17/outbox.cif.g08.bks.cpg/sg167_3_cif.got.tgz:5104.got - 2010.05.20 11:09:15.
