data_PCOD9579874
_publ_section_title
;
Structure prediction by ZEFSAII (Michael W. Deem and Ramdas Pophale) SiO2 
 PCOD9579874
Probable space group: P 61
;
_chemical_formula_sum "Si O2"
_cell_formula_units_Z 42
_cell_length_a 9.038192
_cell_length_b 9.038192
_cell_length_c 27.610302
_cell_angle_alpha 90.000000
_cell_angle_beta 90.000000
_cell_angle_gamma 120.000000
_cell_volume 1953.281849
_symmetry_space_group_name_H-M "P 61"
_symmetry_group_IT_number 169
_symmetry_cell_setting 'hexagonal'
loop_
_space_group_symop_operation_xyz
x,y,z
x-y,x,1/6+z
-y,x-y,1/3+z
-x,-y,1/2+z
-x+y,-x,2/3+z
y,-x+y,5/6+z
loop_
_atom_site_type_symbol
_atom_site_label
_atom_site_fract_x
_atom_site_fract_y
_atom_site_fract_z
Si Si1 0.601355 0.082457 0.033180
Si Si2 0.205028 0.489002 0.125980
Si Si3 0.973771 0.399221 0.217667
Si Si4 0.164180 0.415202 0.412964
Si Si5 0.310293 0.713410 0.249746
Si Si6 0.850729 0.635102 0.177138
Si Si7 0.767802 0.065377 0.679255
O O1 0.693069 0.218183 0.076268
O O2 0.422544 0.921039 0.049168
O O3 0.560736 0.183534 0.992022
O O4 0.695918 0.982687 0.017030
O O5 0.232773 0.386602 0.081940
O O6 0.201190 0.651440 0.102551
O O7 0.047589 0.391638 0.164200
O O8 0.877758 0.510786 0.213919
O O9 0.147886 0.523172 0.246157
O O10 0.189032 0.288180 0.378238
O O11 0.034794 0.323084 0.457171
O O12 0.279619 0.800306 0.295589
O O13 0.307814 0.825818 0.204796
O O14 0.031846 0.805254 0.176297
#
# Coordination Sequence:
#
# PCOD9579874 Si02
#       7
#     6   6   6   6   6   6   6
#     4  11  24  36  70 102 136 178 240 296 356 438
#     4  11  21  41  64 105 141 188 240 298 363 441
#     4  10  20  35  66  95 137 183 236 291 355 437
#     4  12  24  40  69 106 138 186 240 294 368 439
#     4  10  20  40  65  98 137 184 235 282 352 429
#     4  11  20  39  68 101 135 186 230 298 350 438
#     4  11  23  43  70  95 140 189 235 287 362 436
#
# _framework density 21.502274
#
# number of rings (size 3 to 8) (size 9 to 14) (size 15 to 20)
#    0.000    1.143    8.571    0.000    2.000    0.000 
#    0.000    0.000   25.143    0.000    0.000    0.000 
#    0.000    0.000    0.000    0.000    0.000    0.000 
#
# Total GULP energy -234313.983807 kJ/mol
# GULP energy per Si atom -5578.904376 kJ/mol
# Density = 2.145333 g / cm^3
# Si number density = 21.502274 Si / 1000 Ang^3
#
#
#
# Elastic Constant Matrix: (Units=GPa)
#
#
# Indices 1 2 3 4 5 6 
#
# 1 67.5359 16.9623 17.9369 0.0000 0.0000 0.0000
# 2 16.9623 67.5359 17.9369 0.0000 0.0000 0.0000
# 3 17.9369 17.9369 77.2425 0.0000 0.0000 0.0000
# 4 0.0000 0.0000 0.0000 34.5770 0.0000 0.0000
# 5 0.0000 0.0000 0.0000 0.0000 34.5770 0.0000
# 6 0.0000 0.0000 0.0000 0.0000 0.0000 25.2868
#
#
#
# Elastic Compliance Matrix: (Units=1/GPa)
#
#
# Indices 1 2 3 4 5 6 
#
# 1 0.016451 -0.003322 -0.003049 0.000000 0.000000 0.000000
# 2 -0.003322 0.016451 -0.003049 0.000000 0.000000 0.000000
# 3 -0.003049 -0.003049 0.014362 0.000000 0.000000 0.000000
# 4 0.000000 0.000000 0.000000 0.028921 0.000000 0.000000
# 5 0.000000 0.000000 0.000000 0.000000 0.028921 0.000000
# 6 0.000000 0.000000 0.000000 0.000000 0.000000 0.039546
#
#
# Mechanical properties :
#
#
# Convention : Reuss Voigt Hill
#
# Bulk Modulus (GPa) = 35.18021 35.33181 35.25601
# Shear Modulus (GPa) = 28.90729 29.52004 29.21367
#
# Velocity S-wave (km/s) = 3.67056 3.70926 3.68996
# Velocity P-wave (km/s) = 5.86180 5.90018 5.88102
#
# Compressibility (1/GPa) = 0.02842507
#
# Stress axis : x y z
#
# Youngs Moduli (GPa) = 60.78643 60.78643 69.62736
#
# Poissons Ratio (x) = 0.20194 0.21228
# Poissons Ratio (y) = 0.20194 0.21228
# Poissons Ratio (z) = 0.18532 0.18532
#
# Static dielectric constant tensor:
#      x y z
#    x 1.790100 0.000000 0.000000 
#    y 0.000000 1.790100 0.000000 
#    z 0.000000 0.000000 1.877190 
# 
# From -- ./inp_files/1900.got.cif
#   From: 2010.05.17/outbox.cif.g08.bks.cpg/sg169_cif.got.tgz:1900.got - 2010.05.20 11:12:54.
