data_PCOD9579451
_publ_section_title
;
Structure prediction by ZEFSAII (Michael W. Deem and Ramdas Pophale) SiO2 
 PCOD9579451
Probable space group: R -3 C 
;
_chemical_formula_sum "Si O2"
_cell_formula_units_Z 162
_cell_length_a 22.018933
_cell_length_b 22.018933
_cell_length_c 21.125944
_cell_angle_alpha 90.000000
_cell_angle_beta 90.000000
_cell_angle_gamma 120.000000
_cell_volume 8870.320172
_symmetry_space_group_name_H-M "R -3 C "
_symmetry_group_IT_number 167
_symmetry_cell_setting 'hexagonal'
loop_
_space_group_symop_operation_xyz
x,y,z
-y,x-y,z
-x+y,-x,z
x-y,-y,1/2-z
-x,-x+y,1/2-z
y,x,1/2-z
-x,-y,-z
y,-x+y,-z
x-y,x,-z
-x+y,y,1/2+z
x,x-y,1/2+z
-y,-x,1/2+z
2/3+x,1/3+y,1/3+z
2/3-y,1/3+x-y,1/3+z
2/3-x+y,1/3-x,1/3+z
2/3+x-y,1/3-y,5/6-z
2/3-x,1/3-x+y,5/6-z
2/3+y,1/3+x,5/6-z
2/3-x,1/3-y,1/3-z
2/3+y,1/3-x+y,1/3-z
2/3+x-y,1/3+x,1/3-z
2/3-x+y,1/3+y,5/6+z
2/3+x,1/3+x-y,5/6+z
2/3-y,1/3-x,5/6+z
1/3+x,2/3+y,2/3+z
1/3-y,2/3+x-y,2/3+z
1/3-x+y,2/3-x,2/3+z
1/3+x-y,2/3-y,1/6-z
1/3-x,2/3-x+y,1/6-z
1/3+y,2/3+x,1/6-z
1/3-x,2/3-y,2/3-z
1/3+y,2/3-x+y,2/3-z
1/3+x-y,2/3+x,2/3-z
1/3-x+y,2/3+y,1/6+z
1/3+x,2/3+x-y,1/6+z
1/3-y,2/3-x,1/6+z
loop_
_atom_site_type_symbol
_atom_site_label
_atom_site_fract_x
_atom_site_fract_y
_atom_site_fract_z
Si Si1 0.810372 0.703045 0.855409
Si Si2 0.242953 0.730752 0.085248
Si Si3 0.816881 0.129565 0.099031
Si Si4 0.000000 0.658722 0.750000
Si Si5 0.824557 0.399191 0.402494
O O1 0.824018 0.666667 0.916667
O O2 0.853032 0.784530 0.874296
O O3 0.832993 0.684589 0.790589
O O4 0.726223 0.671699 0.858991
O O5 0.234536 0.654137 0.081593
O O6 0.320626 0.794939 0.072940
O O7 0.229248 0.733716 0.160257
O O8 0.833334 0.166667 0.166667
O O9 0.737663 0.065972 0.088019
O O10 0.872052 0.102218 0.094576
#
# Coordination Sequence:
#
# PCOD9579451 Si02
#       5
#    36  36  36  18  36
#     4  10  21  41  63  87 121 172 204 258 313 379
#     4  10  19  35  63  89 121 157 206 260 316 376
#     4  12  26  41  62  95 129 170 211 265 319 383
#     4  10  24  48  62  96 132 168 226 258 326 392
#     4  10  19  37  59  93 121 155 207 261 317 373
#
# _framework density 18.263151000000001
#
# number of rings (size 3 to 8) (size 9 to 14) (size 15 to 20)
#    0.667    0.889    4.444    0.444    6.222    2.667 
#    0.000    0.000    0.000    0.000    0.000    3.111 
#    0.000    0.000    0.000    0.000    0.000    0.000 
#
# Total GULP energy -300701.245398 kJ/mol
# GULP energy per Si atom -5568.541581 kJ/mol
# Density = 1.822158 g / cm^3
# Si number density = 18.263151 Si / 1000 Ang^3
#
#
#
# Elastic Constant Matrix: (Units=GPa)
#
#
# Indices 1 2 3 4 5 6 
#
# 1 98.7001 42.4817 43.3731 0.7240 0.0001 0.0000
# 2 42.4817 98.7001 43.3731 -0.7240 -0.0001 0.0000
# 3 43.3731 43.3731 100.1475 0.0000 0.0000 0.0000
# 4 0.7240 -0.7240 0.0000 13.6151 0.0000 -0.0001
# 5 0.0001 -0.0001 0.0000 0.0000 13.6151 0.7240
# 6 0.0000 0.0000 0.0000 -0.0001 0.7240 28.1092
#
#
#
# Elastic Compliance Matrix: (Units=1/GPa)
#
#
# Indices 1 2 3 4 5 6 
#
# 1 0.013732 -0.004080 -0.004180 -0.000947 0.000000 0.000000
# 2 -0.004080 0.013732 -0.004180 0.000947 0.000000 0.000000
# 3 -0.004180 -0.004180 0.013606 0.000000 0.000000 0.000000
# 4 -0.000947 0.000947 0.000000 0.073549 0.000000 0.000000
# 5 0.000000 0.000000 0.000000 0.000000 0.073549 -0.001894
# 6 0.000000 0.000000 0.000000 0.000000 -0.001894 0.035624
#
#
# Mechanical properties :
#
#
# Convention : Reuss Voigt Hill
#
# Bulk Modulus (GPa) = 61.77090 61.77814 61.77452
# Shear Modulus (GPa) = 19.67978 22.28918 20.98448
#
# Velocity S-wave (km/s) = 3.28619 3.49728 3.39338
# Velocity P-wave (km/s) = 6.94945 7.08576 7.01794
#
# Compressibility (1/GPa) = 0.01618885
#
# Stress axis : x y z
#
# Youngs Moduli (GPa) = 72.82390 72.82390 73.49780
#
# Poissons Ratio (x) = 0.29715 0.30721
# Poissons Ratio (y) = 0.29715 0.30721
# Poissons Ratio (z) = 0.30440 0.30440
#
# Static dielectric constant tensor:
#      x y z
#    x 1.690060 0.000000 0.000000 
#    y 0.000000 1.690060 0.000000 
#    z 0.000000 0.000000 1.618280 
# 
# From -- ./inp_files/4430.got.cif
#   From: 2010.05.17/outbox.cif.g08.bks.cpg/sg167_3_cif.got.tgz:4430.got - 2010.05.20 11:09:15.
