data_PCOD9579854
_publ_section_title
;
Structure prediction by ZEFSAII (Michael W. Deem and Ramdas Pophale) SiO2 
 PCOD9579854
Probable space group: P 61
;
_chemical_formula_sum "Si O2"
_cell_formula_units_Z 42
_cell_length_a 14.321019
_cell_length_b 14.321019
_cell_length_c 11.746003
_cell_angle_alpha 90.000000
_cell_angle_beta 90.000000
_cell_angle_gamma 120.000000
_cell_volume 2086.260719
_symmetry_space_group_name_H-M "P 61"
_symmetry_group_IT_number 169
_symmetry_cell_setting 'hexagonal'
loop_
_space_group_symop_operation_xyz
x,y,z
x-y,x,1/6+z
-y,x-y,1/3+z
-x,-y,1/2+z
-x+y,-x,2/3+z
y,-x+y,5/6+z
loop_
_atom_site_type_symbol
_atom_site_label
_atom_site_fract_x
_atom_site_fract_y
_atom_site_fract_z
Si Si1 0.081422 0.187838 0.364220
Si Si2 0.577587 0.201269 0.742912
Si Si3 0.091376 0.906402 0.666041
Si Si4 0.820107 0.578789 0.563829
Si Si5 0.427329 0.179623 0.149587
Si Si6 0.044621 0.535181 0.119279
Si Si7 0.575903 0.194669 0.487795
O O1 0.139831 0.125878 0.312377
O O2 0.165675 0.313716 0.373380
O O3 0.996450 0.168837 0.262321
O O4 0.514758 0.239940 0.825156
O O5 0.535537 0.192247 0.614531
O O6 0.702974 0.290008 0.753393
O O7 0.554195 0.083405 0.778207
O O8 0.181984 0.873114 0.664448
O O9 0.025808 0.885172 0.550270
O O10 0.766984 0.590378 0.680490
O O11 0.908428 0.544780 0.594177
O O12 0.466830 0.100001 0.196148
O O13 0.517308 0.303592 0.170485
O O14 0.089974 0.582593 0.244361
#
# Coordination Sequence:
#
# PCOD9579854 Si02
#       7
#     6   6   6   6   6   6   6
#     4  10  21  36  67 102 130 167 227 284 330 399
#     4  12  25  41  70  93 143 182 225 287 350 413
#     4  10  19  37  62 100 128 161 223 286 330 402
#     4  11  22  39  64 101 129 178 230 284 334 409
#     4  11  21  40  64  95 132 174 233 275 329 411
#     4  11  26  39  69  98 133 190 226 277 349 415
#     4  11  24  46  60 101 137 178 228 289 346 405
#
# _framework density 20.131712
#
# number of rings (size 3 to 8) (size 9 to 14) (size 15 to 20)
#    0.000    1.143    5.714    1.714    6.000    0.000 
#    0.000    0.000    0.000   34.286    0.000    0.000 
#    0.000    0.000    0.000    0.000    0.000    0.000 
#
# Total GULP energy -234738.449989 kJ/mol
# GULP energy per Si atom -5589.010714 kJ/mol
# Density = 2.008589 g / cm^3
# Si number density = 20.131712 Si / 1000 Ang^3
#
#
#
# Elastic Constant Matrix: (Units=GPa)
#
#
# Indices 1 2 3 4 5 6 
#
# 1 64.4119 8.4295 9.7872 0.0000 0.0000 0.0000
# 2 8.4295 64.4119 9.7872 0.0000 0.0000 0.0000
# 3 9.7872 9.7872 54.8645 0.0000 0.0000 0.0000
# 4 0.0000 0.0000 0.0000 15.9027 0.0000 0.0000
# 5 0.0000 0.0000 0.0000 0.0000 15.9027 0.0000
# 6 0.0000 0.0000 0.0000 0.0000 0.0000 27.9912
#
#
#
# Elastic Compliance Matrix: (Units=1/GPa)
#
#
# Indices 1 2 3 4 5 6 
#
# 1 0.016141 -0.001722 -0.002572 0.000000 0.000000 0.000000
# 2 -0.001722 0.016141 -0.002572 0.000000 0.000000 0.000000
# 3 -0.002572 -0.002572 0.019144 0.000000 0.000000 0.000000
# 4 0.000000 0.000000 0.000000 0.062882 0.000000 0.000000
# 5 0.000000 0.000000 0.000000 0.000000 0.062882 0.000000
# 6 0.000000 0.000000 0.000000 0.000000 0.000000 0.035725
#
#
# Mechanical properties :
#
#
# Convention : Reuss Voigt Hill
#
# Bulk Modulus (GPa) = 26.52897 26.63289 26.58093
# Shear Modulus (GPa) = 20.90179 22.33831 21.62005
#
# Velocity S-wave (km/s) = 3.22569 3.33469 3.28064
# Velocity P-wave (km/s) = 5.20382 5.29952 5.25189
#
# Compressibility (1/GPa) = 0.03769464
#
# Stress axis : x y z
#
# Youngs Moduli (GPa) = 61.95316 61.95316 52.23440
#
# Poissons Ratio (x) = 0.10665 0.13436
# Poissons Ratio (y) = 0.10665 0.13436
# Poissons Ratio (z) = 0.15936 0.15936
#
# Static dielectric constant tensor:
#      x y z
#    x 1.703300 0.000000 0.000000 
#    y 0.000000 1.703300 0.000000 
#    z 0.000000 0.000000 1.744660 
# 
# From -- ./inp_files/944.got.cif
#   From: 2010.05.17/outbox.cif.g08.bks.cpg/sg169_cif.got.tgz:944.got - 2010.05.20 11:12:54.
