data_PCOD9579650
_publ_section_title
;
Structure prediction by ZEFSAII (Michael W. Deem and Ramdas Pophale) SiO2 
 PCOD9579650
Probable space group: R -3 C 
;
_chemical_formula_sum "Si O2"
_cell_formula_units_Z 216
_cell_length_a 22.227934
_cell_length_b 22.227934
_cell_length_c 22.282779
_cell_angle_alpha 90.000000
_cell_angle_beta 90.000000
_cell_angle_gamma 120.000000
_cell_volume 9534.505681
_symmetry_space_group_name_H-M "R -3 C "
_symmetry_group_IT_number 167
_symmetry_cell_setting 'hexagonal'
loop_
_space_group_symop_operation_xyz
x,y,z
-y,x-y,z
-x+y,-x,z
x-y,-y,1/2-z
-x,-x+y,1/2-z
y,x,1/2-z
-x,-y,-z
y,-x+y,-z
x-y,x,-z
-x+y,y,1/2+z
x,x-y,1/2+z
-y,-x,1/2+z
2/3+x,1/3+y,1/3+z
2/3-y,1/3+x-y,1/3+z
2/3-x+y,1/3-x,1/3+z
2/3+x-y,1/3-y,5/6-z
2/3-x,1/3-x+y,5/6-z
2/3+y,1/3+x,5/6-z
2/3-x,1/3-y,1/3-z
2/3+y,1/3-x+y,1/3-z
2/3+x-y,1/3+x,1/3-z
2/3-x+y,1/3+y,5/6+z
2/3+x,1/3+x-y,5/6+z
2/3-y,1/3-x,5/6+z
1/3+x,2/3+y,2/3+z
1/3-y,2/3+x-y,2/3+z
1/3-x+y,2/3-x,2/3+z
1/3+x-y,2/3-y,1/6-z
1/3-x,2/3-x+y,1/6-z
1/3+y,2/3+x,1/6-z
1/3-x,2/3-y,2/3-z
1/3+y,2/3-x+y,2/3-z
1/3+x-y,2/3+x,2/3-z
1/3-x+y,2/3+y,1/6+z
1/3+x,2/3+x-y,1/6+z
1/3-y,2/3-x,1/6+z
loop_
_atom_site_type_symbol
_atom_site_label
_atom_site_fract_x
_atom_site_fract_y
_atom_site_fract_z
Si Si1 0.368966 0.756179 0.814751
Si Si2 0.454481 0.000000 0.750000
Si Si3 0.491246 0.666667 0.916667
Si Si4 0.475416 0.607484 0.250149
Si Si5 0.941287 0.555805 0.639265
Si Si6 0.878349 0.182807 0.226556
Si Si7 0.074095 0.386890 0.193471
O O1 0.288688 0.696154 0.818066
O O2 0.374885 0.804060 0.870117
O O3 0.399964 0.801116 0.755343
O O4 0.530847 0.066185 0.751213
O O5 0.417483 0.012093 0.806157
O O6 0.561025 0.722910 0.883776
O O7 0.512928 0.635037 0.315007
O O8 0.530384 0.657571 0.201281
O O9 0.919747 0.586414 0.583334
O O10 0.966967 0.505326 0.610657
O O11 0.002085 0.617138 0.678704
O O12 0.833334 0.166667 0.166667
O O13 0.910931 0.261543 0.250192
#
# Coordination Sequence:
#
# PCOD9579650 Si02
#       7
#    36  18  18  36  36  36  36
#     4  10  25  44  70 101 141 197 257 309 373 441
#     4  12  24  49  76 109 146 206 260 296 400 474
#     4  12  24  45  70 101 158 200 248 324 384 460
#     4  12  24  49  72 107 153 196 256 320 391 462
#     4  12  25  44  74 105 154 203 249 322 388 473
#     4  12  29  44  72 122 149 199 268 324 398 475
#     4  12  25  47  74 105 155 202 250 319 395 475
#
# _framework density 22.654557
#
# number of rings (size 3 to 8) (size 9 to 14) (size 15 to 20)
#    0.333    0.000    5.833    1.500    9.333    1.333 
#    3.000    0.000    0.000    1.000    0.000    0.000 
#    0.000    0.000    0.000    0.000    0.000    0.000 
#
# Total GULP energy -402129.848266 kJ/mol
# GULP energy per Si atom -5585.136781 kJ/mol
# Density = 2.260299 g / cm^3
# Si number density = 22.654557 Si / 1000 Ang^3
#
#
#
# Elastic Constant Matrix: (Units=GPa)
#
#
# Indices 1 2 3 4 5 6 
#
# 1 87.9552 38.6802 13.8941 2.6071 0.0004 0.0000
# 2 38.6802 87.9552 13.8941 -2.6071 -0.0004 0.0000
# 3 13.8941 13.8941 51.3871 0.0000 0.0000 0.0000
# 4 2.6071 -2.6071 0.0000 19.9727 0.0000 -0.0004
# 5 0.0004 -0.0004 0.0000 0.0000 19.9727 2.6071
# 6 0.0000 0.0000 0.0000 -0.0004 2.6071 24.6375
#
#
#
# Elastic Compliance Matrix: (Units=1/GPa)
#
#
# Indices 1 2 3 4 5 6 
#
# 1 0.014487 -0.006092 -0.002270 -0.002686 0.000000 0.000000
# 2 -0.006092 0.014487 -0.002270 0.002686 0.000000 0.000000
# 3 -0.002270 -0.002270 0.020688 0.000000 0.000000 0.000000
# 4 -0.002686 0.002686 0.000000 0.050770 0.000000 0.000001
# 5 0.000000 0.000000 0.000000 0.000000 0.050770 -0.005372
# 6 0.000000 0.000000 0.000000 0.000001 -0.005372 0.041157
#
#
# Mechanical properties :
#
#
# Convention : Reuss Voigt Hill
#
# Bulk Modulus (GPa) = 35.21383 40.02603 37.61993
# Shear Modulus (GPa) = 22.41291 23.63853 23.02572
#
# Velocity S-wave (km/s) = 3.14878 3.23373 3.19154
# Velocity P-wave (km/s) = 5.36631 5.62574 5.49756
#
# Compressibility (1/GPa) = 0.02839793
#
# Stress axis : x y z
#
# Youngs Moduli (GPa) = 69.02920 69.02920 48.33824
#
# Poissons Ratio (x) = 0.42052 0.10972
# Poissons Ratio (y) = 0.42052 0.10972
# Poissons Ratio (z) = 0.15668 0.15668
#
# Static dielectric constant tensor:
#      x y z
#    x 1.865360 0.000000 0.000000 
#    y 0.000000 1.865360 0.000000 
#    z 0.000000 0.000000 1.869700 
# 
# From -- ./inp_files/5565.got.cif
#   From: 2010.05.17/outbox.cif.g08.bks.cpg/sg167_3_cif.got.tgz:5565.got - 2010.05.20 11:09:15.
