data_PCOD9579743
_publ_section_title
;
Structure prediction by ZEFSAII (Michael W. Deem and Ramdas Pophale) SiO2 
 PCOD9579743
Probable space group: R -3 C 
;
_chemical_formula_sum "Si O2"
_cell_formula_units_Z 54
_cell_length_a 21.000000
_cell_length_b 21.000000
_cell_length_c 21.000000
_cell_angle_alpha 90.000000
_cell_angle_beta 90.000000
_cell_angle_gamma 120.000000
_cell_volume 8020.261264
_symmetry_space_group_name_H-M "R -3 C "
_symmetry_group_IT_number 167
_symmetry_cell_setting 'hexagonal'
loop_
_space_group_symop_operation_xyz
x,y,z
-y,x-y,z
-x+y,-x,z
x-y,-y,1/2-z
-x,-x+y,1/2-z
y,x,1/2-z
-x,-y,-z
y,-x+y,-z
x-y,x,-z
-x+y,y,1/2+z
x,x-y,1/2+z
-y,-x,1/2+z
2/3+x,1/3+y,1/3+z
2/3-y,1/3+x-y,1/3+z
2/3-x+y,1/3-x,1/3+z
2/3+x-y,1/3-y,5/6-z
2/3-x,1/3-x+y,5/6-z
2/3+y,1/3+x,5/6-z
2/3-x,1/3-y,1/3-z
2/3+y,1/3-x+y,1/3-z
2/3+x-y,1/3+x,1/3-z
2/3-x+y,1/3+y,5/6+z
2/3+x,1/3+x-y,5/6+z
2/3-y,1/3-x,5/6+z
1/3+x,2/3+y,2/3+z
1/3-y,2/3+x-y,2/3+z
1/3-x+y,2/3-x,2/3+z
1/3+x-y,2/3-y,1/6-z
1/3-x,2/3-x+y,1/6-z
1/3+y,2/3+x,1/6-z
1/3-x,2/3-y,2/3-z
1/3+y,2/3-x+y,2/3-z
1/3+x-y,2/3+x,2/3-z
1/3-x+y,2/3+y,1/6+z
1/3+x,2/3+x-y,1/6+z
1/3-y,2/3-x,1/6+z
loop_
_atom_site_type_symbol
_atom_site_label
_atom_site_fract_x
_atom_site_fract_y
_atom_site_fract_z
Si Si1 0.415998 0.110751 0.696313
Si Si2 0.791651 0.666667 0.416667
Si Si3 0.191719 0.525052 0.916667
Si Si4 0.601559 0.727044 0.655362
Si Si5 0.666667 0.479769 0.083334
Si Si6 0.076918 0.427449 0.525819
O O1 0.472346 0.164201 0.644470
O O2 0.422465 0.138186 0.770176
O O3 0.433504 0.044224 0.703652
O O4 0.336606 0.081452 0.663012
O O5 0.810344 0.611846 0.377222
O O6 0.266887 0.531014 0.937442
O O7 0.561724 0.662730 0.600826
O O8 0.684439 0.741072 0.657873
O O9 0.687196 0.533081 0.144103
#
# Coordination Sequence:
#
# PCOD9579743 Si02
#       6
#    36  18  18  36  18  36
#     4  12  22  40  62 100 122 169 220 265 331 416
#     4  10  21  35  60  89 137 162 210 264 334 396
#     4  12  29  41  70  93 129 182 236 258 320 386
#     4  10  20  37  58  94 127 172 198 268 329 404
#     4  12  24  50  60  94 134 182 220 278 308 388
#     4  10  20  39  65  90 137 165 200 267 350 375
#
# _framework density 6.7329480000000004
#
# number of rings (size 3 to 8) (size 9 to 14) (size 15 to 20)
#    0.000    1.333    4.444    4.222    0.000    2.667 
#    0.000    0.000    0.000    0.000    0.000    4.667 
#    0.000    0.000    0.000    0.000    0.000    0.000 
#
# Total GULP energy -301320.140011 kJ/mol
# GULP energy per Si atom -5580.002593 kJ/mol
# Density = 0.671762 g / cm^3
# Si number density = 6.732948 Si / 1000 Ang^3
#
#
#
# Elastic Constant Matrix: (Units=GPa)
#
#
# Indices 1 2 3 4 5 6 
#
# 1 133.7698 2.8190 35.6000 -12.3096 -0.0016 0.0000
# 2 2.8190 133.7698 35.6000 12.3096 0.0016 0.0000
# 3 35.6000 35.6000 160.5391 0.0000 0.0000 0.0000
# 4 -12.3096 12.3096 0.0000 18.6905 0.0000 0.0016
# 5 -0.0016 0.0016 0.0000 0.0000 18.6905 -12.3096
# 6 0.0000 0.0000 0.0000 0.0016 -12.3096 65.4754
#
#
#
# Elastic Compliance Matrix: (Units=1/GPa)
#
#
# Indices 1 2 3 4 5 6 
#
# 1 0.008497 -0.000219 -0.001836 0.005740 0.000001 0.000000
# 2 -0.000219 0.008497 -0.001836 -0.005740 -0.000001 0.000000
# 3 -0.001836 -0.001836 0.007043 0.000000 0.000000 0.000000
# 4 0.005740 -0.005740 0.000000 0.061064 0.000000 -0.000001
# 5 0.000001 -0.000001 0.000000 0.000000 0.061064 0.011480
# 6 0.000000 0.000000 0.000000 -0.000001 0.011480 0.017431
#
#
# Mechanical properties :
#
#
# Convention : Reuss Voigt Hill
#
# Bulk Modulus (GPa) = 61.51331 64.01295 62.76313
# Shear Modulus (GPa) = 28.28132 44.17527 36.22829
#
# Velocity S-wave (km/s) = 3.74591 4.68163 4.23967
# Velocity P-wave (km/s) = 7.01635 7.80921 7.42337
#
# Compressibility (1/GPa) = 0.01625664
#
# Stress axis : x y z
#
# Youngs Moduli (GPa) = 117.69021 117.69021 141.98186
#
# Poissons Ratio (x) = 0.02574 0.26064
# Poissons Ratio (y) = 0.02574 0.26064
# Poissons Ratio (z) = 0.21604 0.21604
#
# Static dielectric constant tensor:
#      x y z
#    x 1.741330 0.000000 0.000000 
#    y 0.000000 1.741330 0.000000 
#    z 0.000000 0.000000 1.732320 
# 
# From -- ./inp_files/4493.got.cif
#   From: 2010.05.17/outbox.ucp.g08.bks.cvg/sg167_3_cif.got.tgz:4493.got - 2010.06.11 15:17:31.
