data_PCOD9579707
_publ_section_title
;
Structure prediction by ZEFSAII (Michael W. Deem and Ramdas Pophale) SiO2 
 PCOD9579707
Probable space group: R -3 C 
;
_chemical_formula_sum "Si O2"
_cell_formula_units_Z 72
_cell_length_a 16.114064
_cell_length_b 16.114064
_cell_length_c 13.334173
_cell_angle_alpha 90.000000
_cell_angle_beta 90.000000
_cell_angle_gamma 120.000000
_cell_volume 2998.519555
_symmetry_space_group_name_H-M "R -3 C "
_symmetry_group_IT_number 167
_symmetry_cell_setting 'hexagonal'
loop_
_space_group_symop_operation_xyz
x,y,z
-y,x-y,z
-x+y,-x,z
x-y,-y,1/2-z
-x,-x+y,1/2-z
y,x,1/2-z
-x,-y,-z
y,-x+y,-z
x-y,x,-z
-x+y,y,1/2+z
x,x-y,1/2+z
-y,-x,1/2+z
2/3+x,1/3+y,1/3+z
2/3-y,1/3+x-y,1/3+z
2/3-x+y,1/3-x,1/3+z
2/3+x-y,1/3-y,5/6-z
2/3-x,1/3-x+y,5/6-z
2/3+y,1/3+x,5/6-z
2/3-x,1/3-y,1/3-z
2/3+y,1/3-x+y,1/3-z
2/3+x-y,1/3+x,1/3-z
2/3-x+y,1/3+y,5/6+z
2/3+x,1/3+x-y,5/6+z
2/3-y,1/3-x,5/6+z
1/3+x,2/3+y,2/3+z
1/3-y,2/3+x-y,2/3+z
1/3-x+y,2/3-x,2/3+z
1/3+x-y,2/3-y,1/6-z
1/3-x,2/3-x+y,1/6-z
1/3+y,2/3+x,1/6-z
1/3-x,2/3-y,2/3-z
1/3+y,2/3-x+y,2/3-z
1/3+x-y,2/3+x,2/3-z
1/3-x+y,2/3+y,1/6+z
1/3+x,2/3+x-y,1/6+z
1/3-y,2/3-x,1/6+z
loop_
_atom_site_type_symbol
_atom_site_label
_atom_site_fract_x
_atom_site_fract_y
_atom_site_fract_z
Si Si1 0.693460 0.751879 0.851585
Si Si2 0.438134 0.666941 0.538748
O O1 0.708092 0.708092 0.750000
O O2 0.666667 0.833334 0.833334
O O3 0.797752 0.804994 0.905832
O O4 0.614736 0.666667 0.916667
O O5 0.423185 0.756265 0.566092
O O6 0.443108 0.666667 0.416667
#
# Coordination Sequence:
#
# PCOD9579707 Si02
#       2
#    36  36
#     4  11  26  44  72 107 149 189 243 303 367 434
#     4   7  14  33  65  92 129 181 224 275 359 427
#
# _framework density 24.011849000000002
#
# number of rings (size 3 to 8) (size 9 to 14) (size 15 to 20)
#    1.000    2.000    0.000    0.000   14.000    2.000 
#    0.000    0.000    0.000    3.000    0.000    0.000 
#    0.000    0.000    0.000    0.000    0.000    0.000 
#
# Total GULP energy -133998.938733 kJ/mol
# GULP energy per Si atom -5583.289114 kJ/mol
# Density = 2.395720 g / cm^3
# Si number density = 24.011849 Si / 1000 Ang^3
#
#
#
# Elastic Constant Matrix: (Units=GPa)
#
#
# Indices 1 2 3 4 5 6 
#
# 1 125.9644 26.4004 44.1796 7.0705 0.0001 0.0000
# 2 26.4004 125.9644 44.1796 -7.0705 -0.0001 0.0000
# 3 44.1796 44.1796 76.0427 0.0000 0.0000 0.0000
# 4 7.0705 -7.0705 0.0000 36.8668 0.0000 -0.0001
# 5 0.0001 -0.0001 0.0000 0.0000 36.8668 7.0705
# 6 0.0000 0.0000 0.0000 -0.0001 7.0705 49.7820
#
#
#
# Elastic Compliance Matrix: (Units=1/GPa)
#
#
# Indices 1 2 3 4 5 6 
#
# 1 0.010112 -0.000213 -0.005751 -0.001980 0.000000 0.000000
# 2 -0.000213 0.010112 -0.005751 0.001980 0.000000 0.000000
# 3 -0.005751 -0.005751 0.019833 0.000000 0.000000 0.000000
# 4 -0.001980 0.001980 0.000000 0.027884 0.000000 0.000000
# 5 0.000000 0.000000 0.000000 0.000000 0.027884 -0.003960
# 6 0.000000 0.000000 0.000000 0.000000 -0.003960 0.020650
#
#
# Mechanical properties :
#
#
# Convention : Reuss Voigt Hill
#
# Bulk Modulus (GPa) = 60.14603 61.94344 61.04473
# Shear Modulus (GPa) = 34.37707 38.91725 36.64716
#
# Velocity S-wave (km/s) = 3.78785 4.03022 3.91091
# Velocity P-wave (km/s) = 6.65081 6.89275 6.77286
#
# Compressibility (1/GPa) = 0.01662620
#
# Stress axis : x y z
#
# Youngs Moduli (GPa) = 98.89662 98.89662 50.42210
#
# Poissons Ratio (x) = 0.02111 0.28996
# Poissons Ratio (y) = 0.02111 0.28996
# Poissons Ratio (z) = 0.56872 0.56872
#
# Static dielectric constant tensor:
#      x y z
#    x 1.919410 0.000000 0.000000 
#    y 0.000000 1.919410 0.000000 
#    z 0.000000 0.000000 2.025730 
# 
# From -- ./inp_files/1758.got.cif
#   From: 2010.05.17/outbox.cif.g08.bks.cpg/sg167_1_cif.got.tgz:1758.got - 2010.05.20 11:09:15.
