data_PCOD9579517
_publ_section_title
;
Structure prediction by ZEFSAII (Michael W. Deem and Ramdas Pophale) SiO2 
 PCOD9579517
Probable space group: R -3 C 
;
_chemical_formula_sum "Si O2"
_cell_formula_units_Z 120
_cell_length_a 23.308111
_cell_length_b 23.308111
_cell_length_c 13.324142
_cell_angle_alpha 90.000000
_cell_angle_beta 90.000000
_cell_angle_gamma 120.000000
_cell_volume 6268.794590
_symmetry_space_group_name_H-M "R -3 C "
_symmetry_group_IT_number 167
_symmetry_cell_setting 'hexagonal'
loop_
_space_group_symop_operation_xyz
x,y,z
-y,x-y,z
-x+y,-x,z
x-y,-y,1/2-z
-x,-x+y,1/2-z
y,x,1/2-z
-x,-y,-z
y,-x+y,-z
x-y,x,-z
-x+y,y,1/2+z
x,x-y,1/2+z
-y,-x,1/2+z
2/3+x,1/3+y,1/3+z
2/3-y,1/3+x-y,1/3+z
2/3-x+y,1/3-x,1/3+z
2/3+x-y,1/3-y,5/6-z
2/3-x,1/3-x+y,5/6-z
2/3+y,1/3+x,5/6-z
2/3-x,1/3-y,1/3-z
2/3+y,1/3-x+y,1/3-z
2/3+x-y,1/3+x,1/3-z
2/3-x+y,1/3+y,5/6+z
2/3+x,1/3+x-y,5/6+z
2/3-y,1/3-x,5/6+z
1/3+x,2/3+y,2/3+z
1/3-y,2/3+x-y,2/3+z
1/3-x+y,2/3-x,2/3+z
1/3+x-y,2/3-y,1/6-z
1/3-x,2/3-x+y,1/6-z
1/3+y,2/3+x,1/6-z
1/3-x,2/3-y,2/3-z
1/3+y,2/3-x+y,2/3-z
1/3+x-y,2/3+x,2/3-z
1/3-x+y,2/3+y,1/6+z
1/3+x,2/3+x-y,1/6+z
1/3-y,2/3-x,1/6+z
loop_
_atom_site_type_symbol
_atom_site_label
_atom_site_fract_x
_atom_site_fract_y
_atom_site_fract_z
Si Si1 0.288134 0.257858 0.095684
Si Si2 0.549922 0.549922 0.750000
Si Si3 0.505272 0.578345 0.382433
Si Si4 0.000000 0.109471 0.750000
Si Si5 0.000000 0.000000 0.616541
O O1 0.346973 0.333334 0.083334
O O2 0.223585 0.259678 0.134483
O O3 0.296399 0.215662 0.185350
O O4 0.283404 0.227897 0.986035
O O5 0.530513 0.491819 0.670153
O O6 0.455176 0.604702 0.410788
O O7 0.002747 0.066287 0.841630
O O8 0.000000 0.000000 0.500000
#
# Coordination Sequence:
#
# PCOD9579517 Si02
#       5
#    36  18  36  18  12
#     4  10  21  40  61  86 127 163 199 255 308 363
#     4  12  22  37  66  92 117 168 204 244 312 376
#     4  10  22  40  59  89 128 154 208 255 302 367
#     4   8  20  39  56  88 123 152 196 268 284 356
#     4  10  20  40  67  80 118 166 206 244 319 347
#
# _framework density 19.142436
#
# number of rings (size 3 to 8) (size 9 to 14) (size 15 to 20)
#    0.000    2.400    1.500    2.700    0.000    4.800 
#    5.400    3.000    0.000    0.000    0.000    0.000 
#    0.000    0.000    0.000    0.000    0.000    0.000 
#
# Total GULP energy -222927.791590 kJ/mol
# GULP energy per Si atom -5573.194790 kJ/mol
# Density = 1.909887 g / cm^3
# Si number density = 19.142436 Si / 1000 Ang^3
#
#
#
# Elastic Constant Matrix: (Units=GPa)
#
#
# Indices 1 2 3 4 5 6 
#
# 1 69.3330 36.3845 56.4078 -1.2843 -0.0002 0.0000
# 2 36.3845 69.3330 56.4078 1.2843 0.0002 0.0000
# 3 56.4078 56.4078 163.1386 0.0000 0.0000 0.0000
# 4 -1.2843 1.2843 0.0000 22.1932 0.0000 0.0002
# 5 -0.0002 0.0002 0.0000 0.0000 22.1932 -1.2843
# 6 0.0000 0.0000 0.0000 0.0002 -1.2843 16.4743
#
#
#
# Elastic Compliance Matrix: (Units=1/GPa)
#
#
# Indices 1 2 3 4 5 6 
#
# 1 0.022739 -0.007749 -0.005183 0.001764 0.000000 0.000000
# 2 -0.007749 0.022739 -0.005183 -0.001764 0.000000 0.000000
# 3 -0.005183 -0.005183 0.009714 0.000000 0.000000 0.000000
# 4 0.001764 -0.001764 0.000000 0.045263 0.000000 0.000000
# 5 0.000000 0.000000 0.000000 0.000000 0.045263 0.003529
# 6 0.000000 0.000000 0.000000 0.000000 0.003529 0.060976
#
#
# Mechanical properties :
#
#
# Convention : Reuss Voigt Hill
#
# Bulk Modulus (GPa) = 52.73671 66.68943 59.71307
# Shear Modulus (GPa) = 20.06057 22.34576 21.20316
#
# Velocity S-wave (km/s) = 3.24074 3.42034 3.33175
# Velocity P-wave (km/s) = 6.45078 7.10721 6.78694
#
# Compressibility (1/GPa) = 0.01896212
#
# Stress axis : x y z
#
# Youngs Moduli (GPa) = 43.97709 43.97709 102.94358
#
# Poissons Ratio (x) = 0.34077 0.53357
# Poissons Ratio (y) = 0.34077 0.53357
# Poissons Ratio (z) = 0.22794 0.22794
#
# Static dielectric constant tensor:
#      x y z
#    x 1.677450 0.000000 0.000000 
#    y 0.000000 1.677450 0.000000 
#    z 0.000000 0.000000 1.667240 
# 
# From -- ./inp_files/1440.got.cif
#   From: 2010.05.17/outbox.cif.g08.bks.cpg/sg167_1_cif.got.tgz:1440.got - 2010.05.20 11:09:15.
