data_PCOD9579571
_publ_section_title
;
Structure prediction by ZEFSAII (Michael W. Deem and Ramdas Pophale) SiO2 
 PCOD9579571
Probable space group: R -3 C 
;
_chemical_formula_sum "Si O2"
_cell_formula_units_Z 138
_cell_length_a 18.631752
_cell_length_b 18.631752
_cell_length_c 22.938855
_cell_angle_alpha 90.000000
_cell_angle_beta 90.000000
_cell_angle_gamma 120.000000
_cell_volume 6896.198561
_symmetry_space_group_name_H-M "R -3 C "
_symmetry_group_IT_number 167
_symmetry_cell_setting 'hexagonal'
loop_
_space_group_symop_operation_xyz
x,y,z
-y,x-y,z
-x+y,-x,z
x-y,-y,1/2-z
-x,-x+y,1/2-z
y,x,1/2-z
-x,-y,-z
y,-x+y,-z
x-y,x,-z
-x+y,y,1/2+z
x,x-y,1/2+z
-y,-x,1/2+z
2/3+x,1/3+y,1/3+z
2/3-y,1/3+x-y,1/3+z
2/3-x+y,1/3-x,1/3+z
2/3+x-y,1/3-y,5/6-z
2/3-x,1/3-x+y,5/6-z
2/3+y,1/3+x,5/6-z
2/3-x,1/3-y,1/3-z
2/3+y,1/3-x+y,1/3-z
2/3+x-y,1/3+x,1/3-z
2/3-x+y,1/3+y,5/6+z
2/3+x,1/3+x-y,5/6+z
2/3-y,1/3-x,5/6+z
1/3+x,2/3+y,2/3+z
1/3-y,2/3+x-y,2/3+z
1/3-x+y,2/3-x,2/3+z
1/3+x-y,2/3-y,1/6-z
1/3-x,2/3-x+y,1/6-z
1/3+y,2/3+x,1/6-z
1/3-x,2/3-y,2/3-z
1/3+y,2/3-x+y,2/3-z
1/3+x-y,2/3+x,2/3-z
1/3-x+y,2/3+y,1/6+z
1/3+x,2/3+x-y,1/6+z
1/3-y,2/3-x,1/6+z
loop_
_atom_site_type_symbol
_atom_site_label
_atom_site_fract_x
_atom_site_fract_y
_atom_site_fract_z
Si Si1 0.333334 0.274333 0.916667
Si Si2 0.333333 0.666667 0.593412
Si Si3 0.653891 0.031163 0.476897
Si Si4 0.387294 0.538488 0.076613
Si Si5 0.438707 0.927144 0.185185
O O1 0.295511 0.305580 0.866205
O O2 0.391018 0.247286 0.881754
O O3 0.333335 0.666668 0.666667
O O4 0.239897 0.619514 0.568567
O O5 0.612407 0.088509 0.471673
O O6 0.753444 0.093358 0.481273
O O7 0.647858 0.981191 0.416667
O O8 0.462725 0.561681 0.119461
O O9 0.304430 0.478446 0.113792
#
# Coordination Sequence:
#
# PCOD9579571 Si02
#       5
#    18  12  36  36  36
#     4  12  20  36  60  82 118 162 188 238 300 356
#     4  12  21  30  63  91 113 151 201 267 297 348
#     4  10  22  35  57  85 119 157 189 243 300 358
#     4  11  20  35  55  92 117 146 200 247 301 345
#     4  11  18  32  58  82 117 155 189 241 294 342
#
# _framework density 20.011025
#
# number of rings (size 3 to 8) (size 9 to 14) (size 15 to 20)
#    0.000    1.043   11.739    0.000    0.000    0.000 
#    0.000    1.304    0.000    1.565    0.000    0.000 
#    0.000    0.000    0.000    0.000    0.000    0.000 
#
# Total GULP energy -256517.849682 kJ/mol
# GULP energy per Si atom -5576.474993 kJ/mol
# Density = 1.996548 g / cm^3
# Si number density = 20.011025 Si / 1000 Ang^3
#
#
#
# Elastic Constant Matrix: (Units=GPa)
#
#
# Indices 1 2 3 4 5 6 
#
# 1 57.2246 -6.4979 19.9617 -2.1585 0.0001 0.0000
# 2 -6.4979 57.2248 19.9617 2.1585 -0.0001 0.0000
# 3 19.9617 19.9617 64.0648 0.0000 0.0000 0.0000
# 4 -2.1585 2.1585 0.0000 30.6303 0.0000 -0.0001
# 5 0.0001 -0.0001 0.0000 0.0000 30.6302 -2.1585
# 6 0.0000 0.0000 0.0000 -0.0001 -2.1585 31.8613
#
#
#
# Elastic Compliance Matrix: (Units=1/GPa)
#
#
# Indices 1 2 3 4 5 6 
#
# 1 0.020943 0.005175 -0.008138 0.001111 0.000000 0.000000
# 2 0.005175 0.020943 -0.008138 -0.001111 0.000000 0.000000
# 3 -0.008138 -0.008138 0.020681 0.000000 0.000000 0.000000
# 4 0.001111 -0.001111 0.000000 0.032804 0.000000 0.000000
# 5 0.000000 0.000000 0.000000 0.000000 0.032804 0.002222
# 6 0.000000 0.000000 0.000000 0.000000 0.002222 0.031537
#
#
# Mechanical properties :
#
#
# Convention : Reuss Voigt Hill
#
# Bulk Modulus (GPa) = 24.77398 27.26278 26.01838
# Shear Modulus (GPa) = 25.59252 28.29692 26.94472
#
# Velocity S-wave (km/s) = 3.58008 3.76449 3.67344
# Velocity P-wave (km/s) = 5.43105 5.70514 5.56978
#
# Compressibility (1/GPa) = 0.04036494
#
# Stress axis : x y z
#
# Youngs Moduli (GPa) = 47.74778 47.74796 48.35438
#
# Poissons Ratio (x) = -0.24710 0.39351
# Poissons Ratio (y) = -0.24710 0.39351
# Poissons Ratio (z) = 0.38858 0.38858
#
# Static dielectric constant tensor:
#      x y z
#    x 1.756930 0.000000 0.000000 
#    y 0.000000 1.756930 0.000000 
#    z 0.000000 0.000000 1.729320 
# 
# From -- ./inp_files/6058.got.cif
#   From: 2010.05.17/outbox.cif.g08.bks.cpg/sg167_4_cif.got.tgz:6058.got - 2010.05.20 11:09:15.
