data_PCOD9579665
_publ_section_title
;
Structure prediction by ZEFSAII (Michael W. Deem and Ramdas Pophale) SiO2 
 PCOD9579665
Probable space group: R -3 C 
;
_chemical_formula_sum "Si O2"
_cell_formula_units_Z 192
_cell_length_a 22.452136
_cell_length_b 22.452136
_cell_length_c 18.107197
_cell_angle_alpha 90.000000
_cell_angle_beta 90.000000
_cell_angle_gamma 120.000000
_cell_volume 7904.914678
_symmetry_space_group_name_H-M "R -3 C "
_symmetry_group_IT_number 167
_symmetry_cell_setting 'hexagonal'
loop_
_space_group_symop_operation_xyz
x,y,z
-y,x-y,z
-x+y,-x,z
x-y,-y,1/2-z
-x,-x+y,1/2-z
y,x,1/2-z
-x,-y,-z
y,-x+y,-z
x-y,x,-z
-x+y,y,1/2+z
x,x-y,1/2+z
-y,-x,1/2+z
2/3+x,1/3+y,1/3+z
2/3-y,1/3+x-y,1/3+z
2/3-x+y,1/3-x,1/3+z
2/3+x-y,1/3-y,5/6-z
2/3-x,1/3-x+y,5/6-z
2/3+y,1/3+x,5/6-z
2/3-x,1/3-y,1/3-z
2/3+y,1/3-x+y,1/3-z
2/3+x-y,1/3+x,1/3-z
2/3-x+y,1/3+y,5/6+z
2/3+x,1/3+x-y,5/6+z
2/3-y,1/3-x,5/6+z
1/3+x,2/3+y,2/3+z
1/3-y,2/3+x-y,2/3+z
1/3-x+y,2/3-x,2/3+z
1/3+x-y,2/3-y,1/6-z
1/3-x,2/3-x+y,1/6-z
1/3+y,2/3+x,1/6-z
1/3-x,2/3-y,2/3-z
1/3+y,2/3-x+y,2/3-z
1/3+x-y,2/3+x,2/3-z
1/3-x+y,2/3+y,1/6+z
1/3+x,2/3+x-y,1/6+z
1/3-y,2/3-x,1/6+z
loop_
_atom_site_type_symbol
_atom_site_label
_atom_site_fract_x
_atom_site_fract_y
_atom_site_fract_z
Si Si1 0.448737 0.813892 0.570358
Si Si2 0.534202 0.072889 0.543982
Si Si3 0.666668 0.333334 0.422267
Si Si4 0.404832 0.071499 0.583334
Si Si5 0.917884 0.599187 0.684300
Si Si6 0.201899 0.868566 0.583334
Si Si7 0.067377 0.226729 0.999033
O O1 0.453683 0.862134 0.504199
O O2 0.403921 0.733545 0.552351
O O3 0.409711 0.830908 0.634520
O O4 0.525076 0.842909 0.600793
O O5 0.477199 0.073152 0.599419
O O6 0.610278 0.082424 0.544669
O O7 0.500000 0.000000 0.500000
O O8 0.666668 0.333335 0.333334
O O9 0.347063 0.038636 0.647947
O O10 0.955706 0.555487 0.696097
O O11 0.877664 0.584841 0.763665
O O12 0.138629 0.853657 0.531407
#
# Coordination Sequence:
#
# PCOD9579665 Si02
#       7
#    36  36  12  18  36  18  36
#     4  11  21  36  61  90 126 154 197 249 317 365
#     4   9  20  38  62  82 117 166 203 247 299 357
#     4  12  21  36  63  97 125 151 189 258 309 370
#     4   9  18  38  60  80 112 158 205 240 292 352
#     4   9  20  37  56  84 119 154 195 245 299 361
#     4  11  22  34  56  84 124 158 191 244 304 358
#     4  11  20  35  55  88 125 152 193 247 305 373
#
# _framework density 24.288686999999999
#
# number of rings (size 3 to 8) (size 9 to 14) (size 15 to 20)
#    0.000    1.875    3.750    0.000    5.250    0.000 
#    0.000    0.000    0.000   11.250    0.000    0.000 
#    0.000    0.000    0.000    0.000    0.000    0.000 
#
# Total GULP energy -356982.672830 kJ/mol
# GULP energy per Si atom -5577.854263 kJ/mol
# Density = 2.423340 g / cm^3
# Si number density = 24.288687 Si / 1000 Ang^3
#
#
#
# Elastic Constant Matrix: (Units=GPa)
#
#
# Indices 1 2 3 4 5 6 
#
# 1 127.2951 37.1627 30.7837 30.8327 0.0000 0.0000
# 2 37.1627 127.2955 30.7839 -30.8322 0.0000 0.0000
# 3 30.7837 30.7839 54.2011 0.0001 0.0000 0.0000
# 4 30.8327 -30.8322 0.0001 -7.1241 0.0000 0.0000
# 5 0.0000 0.0000 0.0000 0.0000 -7.1239 30.8325
# 6 0.0000 0.0000 0.0000 0.0000 30.8325 45.0659
#
#
#
# Elastic Compliance Matrix: (Units=1/GPa)
#
#
# Indices 1 2 3 4 5 6 
#
# 1 0.005262 0.002461 -0.004386 0.012123 0.000000 0.000000
# 2 0.002461 0.005262 -0.004386 -0.012123 0.000000 0.000000
# 3 -0.004386 -0.004386 0.023432 0.000000 0.000000 0.000000
# 4 0.012123 -0.012123 0.000000 -0.035438 0.000000 0.000000
# 5 0.000000 0.000000 0.000000 0.000000 -0.035438 0.024245
# 6 0.000000 0.000000 0.000000 0.000000 0.024245 0.005602
#
#
# Mechanical properties :
#
#
# Convention : Reuss Voigt Hill
#
# Bulk Modulus (GPa) = 46.87609 56.25025 51.56317
# Shear Modulus (GPa) = -431.60116 20.16769 -205.71674
#
# Velocity S-wave (km/s) = -13.34474 2.88468 -9.21306
# Velocity P-wave (km/s) = 14.76826 5.85700 9.58637
#
# Compressibility (1/GPa) = 0.02133284
#
# Stress axis : x y z
#
# Youngs Moduli (GPa) = 190.05003 190.04800 42.67671
#
# Poissons Ratio (x) = -0.46767 0.18718
# Poissons Ratio (y) = -0.46767 0.18718
# Poissons Ratio (z) = 0.83358 0.83356
#
# Static dielectric constant tensor:
#      x y z
#    x 2.075830 0.000000 0.000000 
#    y 0.000000 2.075840 0.000000 
#    z 0.000000 0.000000 1.978110 
# 
# From -- ./inp_files/5484.got.cif
#   From: 2010.05.17/outbox.cif.g08.bks.cpg/sg167_3_cif.got.tgz:5484.got - 2010.05.20 11:09:15.
