data_PCOD9579597
_publ_section_title
;
Structure prediction by ZEFSAII (Michael W. Deem and Ramdas Pophale) SiO2 
 PCOD9579597
Probable space group: R -3 C 
;
_chemical_formula_sum "Si O2"
_cell_formula_units_Z 270
_cell_length_a 22.436634
_cell_length_b 22.436634
_cell_length_c 28.113669
_cell_angle_alpha 90.000000
_cell_angle_beta 90.000000
_cell_angle_gamma 120.000000
_cell_volume 12256.418059
_symmetry_space_group_name_H-M "R -3 C "
_symmetry_group_IT_number 167
_symmetry_cell_setting 'hexagonal'
loop_
_space_group_symop_operation_xyz
x,y,z
-y,x-y,z
-x+y,-x,z
x-y,-y,1/2-z
-x,-x+y,1/2-z
y,x,1/2-z
-x,-y,-z
y,-x+y,-z
x-y,x,-z
-x+y,y,1/2+z
x,x-y,1/2+z
-y,-x,1/2+z
2/3+x,1/3+y,1/3+z
2/3-y,1/3+x-y,1/3+z
2/3-x+y,1/3-x,1/3+z
2/3+x-y,1/3-y,5/6-z
2/3-x,1/3-x+y,5/6-z
2/3+y,1/3+x,5/6-z
2/3-x,1/3-y,1/3-z
2/3+y,1/3-x+y,1/3-z
2/3+x-y,1/3+x,1/3-z
2/3-x+y,1/3+y,5/6+z
2/3+x,1/3+x-y,5/6+z
2/3-y,1/3-x,5/6+z
1/3+x,2/3+y,2/3+z
1/3-y,2/3+x-y,2/3+z
1/3-x+y,2/3-x,2/3+z
1/3+x-y,2/3-y,1/6-z
1/3-x,2/3-x+y,1/6-z
1/3+y,2/3+x,1/6-z
1/3-x,2/3-y,2/3-z
1/3+y,2/3-x+y,2/3-z
1/3+x-y,2/3+x,2/3-z
1/3-x+y,2/3+y,1/6+z
1/3+x,2/3+x-y,1/6+z
1/3-y,2/3-x,1/6+z
loop_
_atom_site_type_symbol
_atom_site_label
_atom_site_fract_x
_atom_site_fract_y
_atom_site_fract_z
Si Si1 0.616127 0.949461 0.916667
Si Si2 0.816867 0.999500 0.542598
Si Si3 0.518897 0.096611 0.698829
Si Si4 0.782142 0.298893 0.273341
Si Si5 0.458593 0.460113 0.638946
Si Si6 0.732200 0.108320 0.753001
Si Si7 0.712028 0.005047 0.675872
Si Si8 0.579859 0.295303 0.466959
O O1 0.551284 0.945600 0.890373
O O2 0.672795 0.975345 0.875398
O O3 0.889812 0.050862 0.567024
O O4 0.788770 0.050886 0.527602
O O5 0.770933 0.939322 0.580168
O O6 0.832805 0.971429 0.494625
O O7 0.532279 0.033885 0.686772
O O8 0.454702 0.086613 0.666889
O O9 0.583875 0.169093 0.683336
O O10 0.848222 0.306105 0.244807
O O11 0.763587 0.355436 0.255186
O O12 0.505063 0.528711 0.609287
O O13 0.743926 0.073611 0.707168
O O14 0.695411 0.048375 0.792273
O O15 0.625371 0.260190 0.480546
#
# Coordination Sequence:
#
# PCOD9579597 Si02
#       8
#    18  36  36  36  36  36  36  36
#     4  12  22  40  66 102 136 170 234 286 350 434
#     4  11  21  42  64 101 137 183 228 288 362 443
#     4  11  22  45  66  94 141 184 233 295 358 433
#     4  11  22  39  65  95 139 174 227 282 353 442
#     4  10  24  41  64 101 134 181 236 284 365 432
#     4   9  22  43  64  99 127 177 230 279 353 430
#     4  10  22  42  70  89 138 180 224 297 351 416
#     4  10  22  42  63  97 132 183 234 291 349 427
#
# _framework density 22.029275999999999
#
# number of rings (size 3 to 8) (size 9 to 14) (size 15 to 20)
#    0.267    1.333    2.667    1.600    1.867    0.533 
#    4.800    1.333    0.000    0.000    0.000    3.733 
#    0.000    0.000    0.000    0.000    0.000    0.000 
#
# Total GULP energy -501617.165015 kJ/mol
# GULP energy per Si atom -5573.524056 kJ/mol
# Density = 2.197914 g / cm^3
# Si number density = 22.029276 Si / 1000 Ang^3
#
#
#
# Elastic Constant Matrix: (Units=GPa)
#
#
# Indices 1 2 3 4 5 6 
#
# 1 67.3711 39.8794 26.7227 4.7298 0.0004 0.0000
# 2 39.8794 67.3711 26.7227 -4.7298 -0.0004 0.0000
# 3 26.7227 26.7227 81.7424 0.0000 0.0000 0.0000
# 4 4.7298 -4.7298 0.0000 32.5063 0.0000 -0.0004
# 5 0.0004 -0.0004 0.0000 0.0000 32.5063 4.7298
# 6 0.0000 0.0000 0.0000 -0.0004 4.7298 13.7458
#
#
#
# Elastic Compliance Matrix: (Units=1/GPa)
#
#
# Indices 1 2 3 4 5 6 
#
# 1 0.024715 -0.013577 -0.003641 -0.005572 -0.000001 0.000000
# 2 -0.013577 0.024715 -0.003641 0.005572 0.000001 0.000000
# 3 -0.003641 -0.003641 0.014614 0.000000 0.000000 0.000000
# 4 -0.005572 0.005572 0.000000 0.032385 0.000000 0.000001
# 5 -0.000001 0.000001 0.000000 0.000000 0.032385 -0.011143
# 6 0.000000 0.000000 0.000000 0.000001 -0.011143 0.076584
#
#
# Mechanical properties :
#
#
# Convention : Reuss Voigt Hill
#
# Bulk Modulus (GPa) = 44.79070 44.79270 44.79170
# Shear Modulus (GPa) = 19.64184 23.96232 21.80208
#
# Velocity S-wave (km/s) = 2.98925 3.30168 3.14934
# Velocity P-wave (km/s) = 5.68248 5.90865 5.79667
#
# Compressibility (1/GPa) = 0.02232606
#
# Stress axis : x y z
#
# Youngs Moduli (GPa) = 40.46094 40.46094 68.42583
#
# Poissons Ratio (x) = 0.54932 0.24916
# Poissons Ratio (y) = 0.54932 0.24916
# Poissons Ratio (z) = 0.14733 0.14733
#
# Static dielectric constant tensor:
#      x y z
#    x 1.885650 0.000000 0.000000 
#    y 0.000000 1.885650 0.000000 
#    z 0.000000 0.000000 1.808770 
# 
# From -- ./inp_files/7253.got.cif
#   From: 2010.05.17/outbox.cif.g08.bks.cpg/sg167_4_cif.got.tgz:7253.got - 2010.05.20 11:09:15.
