data_PCOD9579137
_publ_section_title
;
Structure prediction by ZEFSAII (Michael W. Deem and Ramdas Pophale) SiO2 
 PCOD9579137
Probable space group: R -3 M
;
_chemical_formula_sum "Si O2"
_cell_formula_units_Z 126
_cell_length_a 31.460568
_cell_length_b 31.460568
_cell_length_c 7.054662
_cell_angle_alpha 90.000000
_cell_angle_beta 90.000000
_cell_angle_gamma 120.000000
_cell_volume 6046.999895
_symmetry_space_group_name_H-M "R -3 M"
_symmetry_group_IT_number 166
_symmetry_cell_setting 'hexagonal'
loop_
_space_group_symop_operation_xyz
x,y,z
-y,x-y,z
-x+y,-x,z
x-y,-y,-z
-x,-x+y,-z
y,x,-z
-x,-y,-z
y,-x+y,-z
x-y,x,-z
-x+y,y,z
x,x-y,z
-y,-x,z
2/3+x,1/3+y,1/3+z
2/3-y,1/3+x-y,1/3+z
2/3-x+y,1/3-x,1/3+z
2/3+x-y,1/3-y,1/3-z
2/3-x,1/3-x+y,1/3-z
2/3+y,1/3+x,1/3-z
2/3-x,1/3-y,1/3-z
2/3+y,1/3-x+y,1/3-z
2/3+x-y,1/3+x,1/3-z
2/3-x+y,1/3+y,1/3+z
2/3+x,1/3+x-y,1/3+z
2/3-y,1/3-x,1/3+z
1/3+x,2/3+y,2/3+z
1/3-y,2/3+x-y,2/3+z
1/3-x+y,2/3-x,2/3+z
1/3+x-y,2/3-y,2/3-z
1/3-x,2/3-x+y,2/3-z
1/3+y,2/3+x,2/3-z
1/3-x,2/3-y,2/3-z
1/3+y,2/3-x+y,2/3-z
1/3+x-y,2/3+x,2/3-z
1/3-x+y,2/3+y,2/3+z
1/3+x,2/3+x-y,2/3+z
1/3-y,2/3-x,2/3+z
loop_
_atom_site_type_symbol
_atom_site_label
_atom_site_fract_x
_atom_site_fract_y
_atom_site_fract_z
Si Si1 0.961810 0.531717 0.274298
Si Si2 0.296104 0.496403 0.300251
Si Si3 0.666667 0.533888 0.333334
Si Si4 0.730161 0.787213 0.491613
O O1 0.956062 0.478031 0.301374
O O2 0.919981 0.538793 0.375655
O O3 0.018952 0.573245 0.293129
O O4 0.951360 0.539101 0.054235
O O5 0.249902 0.499803 0.362078
O O6 0.333334 0.540150 0.166667
O O7 0.319965 0.487744 0.485933
O O8 0.278552 0.448904 0.161769
O O9 0.743662 0.743662 0.500000
#
# Coordination Sequence:
#
# PCOD9579137 Si02
#       4
#    36  36  18  36
#     4  10  19  33  53  76 111 157 197 237 291 347
#     4  10  21  38  60  86 115 148 190 238 292 353
#     4  10  20  34  56  84 115 152 197 244 288 344
#     4   9  17  31  52  78 112 152 192 237 283 334
#
# _framework density 20.836777999999999
#
# number of rings (size 3 to 8) (size 9 to 14) (size 15 to 20)
#    0.000    2.286    0.000    6.000    0.000    4.571 
#    0.000   11.429    0.000   17.429    0.000    1.000 
#    0.000    0.000    0.000    0.000    0.000    0.000 
#
# Total GULP energy -234161.726997 kJ/mol
# GULP energy per Si atom -5575.279214 kJ/mol
# Density = 2.078935 g / cm^3
# Si number density = 20.836778 Si / 1000 Ang^3
#
#
#
# Elastic Constant Matrix: (Units=GPa)
#
#
# Indices 1 2 3 4 5 6 
#
# 1 132.7501 75.6722 47.6808 -5.8808 -0.0432 0.0065
# 2 75.6722 132.6864 47.5684 6.1206 -0.0427 0.0343
# 3 47.6808 47.5684 81.0394 0.2222 -0.0100 0.0261
# 4 -5.8808 6.1206 0.2222 10.6982 0.2526 0.0428
# 5 -0.0432 -0.0427 -0.0100 0.2526 10.7850 -6.0509
# 6 0.0065 0.0343 0.0261 0.0428 -6.0509 28.5124
#
#
#
# Elastic Compliance Matrix: (Units=1/GPa)
#
#
# Indices 1 2 3 4 5 6 
#
# 1 0.013225 -0.006658 -0.003904 0.011167 -0.000276 -0.000067
# 2 -0.006658 0.013213 -0.003808 -0.011148 0.000325 0.000075
# 3 -0.003904 -0.003808 0.016872 -0.000317 -0.000015 -0.000013
# 4 0.011167 -0.011148 -0.000317 0.106069 -0.002914 -0.000766
# 5 -0.000276 0.000325 -0.000015 -0.002914 0.105334 0.022358
# 6 -0.000067 0.000075 -0.000013 -0.000766 0.022358 0.039818
#
#
# Mechanical properties :
#
#
# Convention : Reuss Voigt Hill
#
# Bulk Modulus (GPa) = 68.62721 76.47985 72.55353
# Shear Modulus (GPa) = 15.23796 21.70275 18.47036
#
# Velocity S-wave (km/s) = 2.70719 3.23082 2.98053
# Velocity P-wave (km/s) = 6.54056 7.12050 6.83668
#
# Compressibility (1/GPa) = 0.01457148
#
# Stress axis : x y z
#
# Youngs Moduli (GPa) = 75.61453 75.68190 59.26814
#
# Poissons Ratio (x) = 0.50389 0.23136
# Poissons Ratio (y) = 0.50344 0.22569
# Poissons Ratio (z) = 0.29517 0.28819
#
# Static dielectric constant tensor:
#      x y z
#    x 1.808070 0.000040 -0.000380 
#    y 0.000040 1.808400 -0.000140 
#    z -0.000380 -0.000140 1.748180 
# 
# From -- ./inp_files/1614.got.cif
#   From: 2010.05.17/outbox.cif.g08.bks.cpg/sg166_1_cif.got.tgz:1614.got - 2010.05.20 11:04:41.
