data_PCOD9579958
_publ_section_title
;
Structure prediction by ZEFSAII (Michael W. Deem and Ramdas Pophale) SiO2 
 PCOD9579958
Probable space group: P 61
;
_chemical_formula_sum "Si O2"
_cell_formula_units_Z 36
_cell_length_a 11.880300
_cell_length_b 11.880300
_cell_length_c 12.661872
_cell_angle_alpha 90.000000
_cell_angle_beta 90.000000
_cell_angle_gamma 120.000000
_cell_volume 1547.687823
_symmetry_space_group_name_H-M "P 61"
_symmetry_group_IT_number 169
_symmetry_cell_setting 'hexagonal'
loop_
_space_group_symop_operation_xyz
x,y,z
x-y,x,1/6+z
-y,x-y,1/3+z
-x,-y,1/2+z
-x+y,-x,2/3+z
y,-x+y,5/6+z
loop_
_atom_site_type_symbol
_atom_site_label
_atom_site_fract_x
_atom_site_fract_y
_atom_site_fract_z
Si Si1 0.714486 0.500217 0.146650
Si Si2 0.359579 0.076471 0.922164
Si Si3 0.366936 0.429610 0.859006
Si Si4 0.605719 0.972511 0.781327
Si Si5 0.213879 0.463131 0.291508
Si Si6 0.179829 0.140699 0.816128
O O1 0.682566 0.514315 0.267748
O O2 0.871567 0.577917 0.128095
O O3 0.619322 0.344165 0.130878
O O4 0.659123 0.564733 0.062928
O O5 0.432613 0.114388 0.810240
O O6 0.217274 0.052957 0.888969
O O7 0.427302 0.182844 0.010731
O O8 0.342936 0.941735 0.962557
O O9 0.518697 0.494938 0.876623
O O10 0.304625 0.280664 0.826014
O O11 0.616247 0.863363 0.711886
O O12 0.151076 0.087458 0.699750
#
# Coordination Sequence:
#
# PCOD9579958 Si02
#       6
#     6   6   6   6   6   6
#     4  12  28  51  75 120 160 205 268 335 409 485
#     4  11  21  44  79 108 146 203 261 314 385 481
#     4  11  25  46  74 109 149 200 255 323 390 482
#     4  12  28  50  78 116 156 210 255 335 410 472
#     4  12  25  50  78 113 156 204 260 329 399 484
#     4  10  21  41  68 106 139 192 249 300 373 454
#
# _framework density 23.260504999999998
#
# number of rings (size 3 to 8) (size 9 to 14) (size 15 to 20)
#    0.000    0.667    5.000    3.000    4.667    5.333 
#    3.000    0.000    0.000    0.000    0.000    0.000 
#    0.000    0.000    0.000    0.000    0.000    0.000 
#
# Total GULP energy -200865.587215 kJ/mol
# GULP energy per Si atom -5579.599645 kJ/mol
# Density = 2.320756 g / cm^3
# Si number density = 23.260505 Si / 1000 Ang^3
#
#
#
# Elastic Constant Matrix: (Units=GPa)
#
#
# Indices 1 2 3 4 5 6 
#
# 1 88.8659 40.2455 29.5226 0.0000 0.0000 0.0000
# 2 40.2455 88.8659 29.5226 0.0000 0.0000 0.0000
# 3 29.5226 29.5226 106.8180 0.0000 0.0000 0.0000
# 4 0.0000 0.0000 0.0000 23.3528 0.0000 0.0000
# 5 0.0000 0.0000 0.0000 0.0000 23.3528 0.0000
# 6 0.0000 0.0000 0.0000 0.0000 0.0000 24.3102
#
#
#
# Elastic Compliance Matrix: (Units=1/GPa)
#
#
# Indices 1 2 3 4 5 6 
#
# 1 0.014717 -0.005851 -0.002450 0.000000 0.000000 0.000000
# 2 -0.005851 0.014717 -0.002450 0.000000 0.000000 0.000000
# 3 -0.002450 -0.002450 0.010716 0.000000 0.000000 0.000000
# 4 0.000000 0.000000 0.000000 0.042821 0.000000 0.000000
# 5 0.000000 0.000000 0.000000 0.000000 0.042821 0.000000
# 6 0.000000 0.000000 0.000000 0.000000 0.000000 0.041135
#
#
# Mechanical properties :
#
#
# Convention : Reuss Voigt Hill
#
# Bulk Modulus (GPa) = 53.62954 53.68123 53.65539
# Shear Modulus (GPa) = 25.68768 26.55378 26.12073
#
# Velocity S-wave (km/s) = 3.32678 3.38240 3.35470
# Velocity P-wave (km/s) = 6.15327 6.19536 6.17435
#
# Compressibility (1/GPa) = 0.01864644
#
# Stress axis : x y z
#
# Youngs Moduli (GPa) = 67.95013 67.95013 93.31676
#
# Poissons Ratio (x) = 0.39756 0.22866
# Poissons Ratio (y) = 0.39756 0.22866
# Poissons Ratio (z) = 0.16650 0.16650
#
# Static dielectric constant tensor:
#      x y z
#    x 2.013290 0.000000 0.000000 
#    y 0.000000 2.013290 0.000000 
#    z 0.000000 0.000000 1.863850 
# 
# From -- ./inp_files/1180.got.cif
#   From: 2010.05.17/outbox.cif.g08.bks.cpg/sg169_cif.got.tgz:1180.got - 2010.05.20 11:12:54.
