data_PCOD9579268
_publ_section_title
;
Structure prediction by ZEFSAII (Michael W. Deem and Ramdas Pophale) SiO2 
 PCOD9579268
Probable space group: R -3 M
;
_chemical_formula_sum "Si O2"
_cell_formula_units_Z 162
_cell_length_a 21.187377
_cell_length_b 21.187377
_cell_length_c 23.133177
_cell_angle_alpha 90.000000
_cell_angle_beta 90.000000
_cell_angle_gamma 120.000000
_cell_volume 8993.325268
_symmetry_space_group_name_H-M "R -3 M"
_symmetry_group_IT_number 166
_symmetry_cell_setting 'hexagonal'
loop_
_space_group_symop_operation_xyz
x,y,z
-y,x-y,z
-x+y,-x,z
x-y,-y,-z
-x,-x+y,-z
y,x,-z
-x,-y,-z
y,-x+y,-z
x-y,x,-z
-x+y,y,z
x,x-y,z
-y,-x,z
2/3+x,1/3+y,1/3+z
2/3-y,1/3+x-y,1/3+z
2/3-x+y,1/3-x,1/3+z
2/3+x-y,1/3-y,1/3-z
2/3-x,1/3-x+y,1/3-z
2/3+y,1/3+x,1/3-z
2/3-x,1/3-y,1/3-z
2/3+y,1/3-x+y,1/3-z
2/3+x-y,1/3+x,1/3-z
2/3-x+y,1/3+y,1/3+z
2/3+x,1/3+x-y,1/3+z
2/3-y,1/3-x,1/3+z
1/3+x,2/3+y,2/3+z
1/3-y,2/3+x-y,2/3+z
1/3-x+y,2/3-x,2/3+z
1/3+x-y,2/3-y,2/3-z
1/3-x,2/3-x+y,2/3-z
1/3+y,2/3+x,2/3-z
1/3-x,2/3-y,2/3-z
1/3+y,2/3-x+y,2/3-z
1/3+x-y,2/3+x,2/3-z
1/3-x+y,2/3+y,2/3+z
1/3+x,2/3+x-y,2/3+z
1/3-y,2/3-x,2/3+z
loop_
_atom_site_type_symbol
_atom_site_label
_atom_site_fract_x
_atom_site_fract_y
_atom_site_fract_z
Si Si1 0.665312 0.080332 0.599658
Si Si2 0.465679 0.079737 0.388454
Si Si3 0.516155 0.333226 0.168157
Si Si4 0.816706 0.333334 0.833334
Si Si5 0.201840 0.948885 0.391553
O O1 0.667705 0.137345 0.553684
O O2 0.734204 0.068001 0.592311
O O3 0.672911 0.108911 0.665333
O O4 0.592547 0.002607 0.593745
O O5 0.542267 0.084533 0.374444
O O6 0.434780 0.101447 0.333334
O O7 0.479735 0.134015 0.441604
O O8 0.527960 0.263980 0.163892
O O9 0.592245 0.407756 0.171896
O O10 0.809755 0.404878 0.827921
O O11 0.854928 0.323383 0.776909
O O12 0.127572 0.872429 0.381862
#
# Coordination Sequence:
#
# PCOD9579268 Si02
#       5
#    36  36  36  18  36
#     4  11  21  39  60  91 120 155 194 247 304 351
#     4  11  23  40  61  89 122 156 199 246 299 355
#     4  11  24  41  62  87 119 159 202 246 296 355
#     4  10  23  40  60  88 123 164 204 242 288 346
#     4  10  21  38  59  88 124 159 197 240 293 352
#
# _framework density 18.013359999999999
#
# number of rings (size 3 to 8) (size 9 to 14) (size 15 to 20)
#    0.000    1.333    2.222    5.000    3.111    3.556 
#    0.000    0.000    0.000    6.222    0.000    0.000 
#    0.000    0.000    0.000    0.000    0.000    0.000 
#
# Total GULP energy -301868.502688 kJ/mol
# GULP energy per Si atom -5590.157457 kJ/mol
# Density = 1.797236 g / cm^3
# Si number density = 18.013360 Si / 1000 Ang^3
#
#
#
# Elastic Constant Matrix: (Units=GPa)
#
#
# Indices 1 2 3 4 5 6 
#
# 1 102.9997 48.7237 68.3397 0.7473 -0.0002 0.0000
# 2 48.7237 102.9997 68.3397 -0.7473 0.0002 0.0000
# 3 68.3397 68.3397 103.1672 0.0000 0.0000 0.0000
# 4 0.7473 -0.7473 0.0000 23.3694 0.0000 0.0002
# 5 -0.0002 0.0002 0.0000 0.0000 23.3694 0.7473
# 6 0.0000 0.0000 0.0000 0.0002 0.7473 27.1380
#
#
#
# Elastic Compliance Matrix: (Units=1/GPa)
#
#
# Indices 1 2 3 4 5 6 
#
# 1 0.017392 -0.001048 -0.010827 -0.000590 0.000000 0.000000
# 2 -0.001048 0.017392 -0.010827 0.000590 0.000000 0.000000
# 3 -0.010827 -0.010827 0.024036 0.000000 0.000000 0.000000
# 4 -0.000590 0.000590 0.000000 0.042829 0.000000 0.000000
# 5 0.000000 0.000000 0.000000 0.000000 0.042829 -0.001179
# 6 0.000000 0.000000 0.000000 0.000000 -0.001179 0.036881
#
#
# Mechanical properties :
#
#
# Convention : Reuss Voigt Hill
#
# Bulk Modulus (GPa) = 74.52569 75.55256 75.03912
# Shear Modulus (GPa) = 21.62301 23.02625 22.32463
#
# Velocity S-wave (km/s) = 3.46842 3.57919 3.52424
# Velocity P-wave (km/s) = 7.58302 7.68859 7.63599
#
# Compressibility (1/GPa) = 0.01341819
#
# Stress axis : x y z
#
# Youngs Moduli (GPa) = 57.49678 57.49678 41.60361
#
# Poissons Ratio (x) = 0.06027 0.45042
# Poissons Ratio (y) = 0.06027 0.45042
# Poissons Ratio (z) = 0.62249 0.62249
#
# Static dielectric constant tensor:
#      x y z
#    x 1.590540 0.000000 0.000000 
#    y 0.000000 1.590540 0.000000 
#    z 0.000000 0.000000 1.591600 
# 
# From -- ./inp_files/6816.got.cif
#   From: 2010.05.17/outbox.cif.g08.bks.cpg/sg166_4_cif.got.tgz:6816.got - 2010.05.20 11:04:41.
