data_PCOD9579499
_publ_section_title
;
Structure prediction by ZEFSAII (Michael W. Deem and Ramdas Pophale) SiO2 
 PCOD9579499
Probable space group: R -3 C 
;
_chemical_formula_sum "Si O2"
_cell_formula_units_Z 252
_cell_length_a 28.060685
_cell_length_b 28.060685
_cell_length_c 16.301833
_cell_angle_alpha 90.000000
_cell_angle_beta 90.000000
_cell_angle_gamma 120.000000
_cell_volume 11116.385744
_symmetry_space_group_name_H-M "R -3 C "
_symmetry_group_IT_number 167
_symmetry_cell_setting 'hexagonal'
loop_
_space_group_symop_operation_xyz
x,y,z
-y,x-y,z
-x+y,-x,z
x-y,-y,1/2-z
-x,-x+y,1/2-z
y,x,1/2-z
-x,-y,-z
y,-x+y,-z
x-y,x,-z
-x+y,y,1/2+z
x,x-y,1/2+z
-y,-x,1/2+z
2/3+x,1/3+y,1/3+z
2/3-y,1/3+x-y,1/3+z
2/3-x+y,1/3-x,1/3+z
2/3+x-y,1/3-y,5/6-z
2/3-x,1/3-x+y,5/6-z
2/3+y,1/3+x,5/6-z
2/3-x,1/3-y,1/3-z
2/3+y,1/3-x+y,1/3-z
2/3+x-y,1/3+x,1/3-z
2/3-x+y,1/3+y,5/6+z
2/3+x,1/3+x-y,5/6+z
2/3-y,1/3-x,5/6+z
1/3+x,2/3+y,2/3+z
1/3-y,2/3+x-y,2/3+z
1/3-x+y,2/3-x,2/3+z
1/3+x-y,2/3-y,1/6-z
1/3-x,2/3-x+y,1/6-z
1/3+y,2/3+x,1/6-z
1/3-x,2/3-y,2/3-z
1/3+y,2/3-x+y,2/3-z
1/3+x-y,2/3+x,2/3-z
1/3-x+y,2/3+y,1/6+z
1/3+x,2/3+x-y,1/6+z
1/3-y,2/3-x,1/6+z
loop_
_atom_site_type_symbol
_atom_site_label
_atom_site_fract_x
_atom_site_fract_y
_atom_site_fract_z
Si Si1 0.549840 0.869200 0.332326
Si Si2 0.876459 0.598770 0.741818
Si Si3 0.519572 0.095815 0.772830
Si Si4 0.774917 0.252359 0.143915
Si Si5 0.516654 0.604959 0.325245
Si Si6 0.005375 0.392812 0.064007
Si Si7 0.926122 0.049999 0.031544
O O1 0.569384 0.902718 0.416667
O O2 0.504520 0.880054 0.293155
O O3 0.526763 0.806508 0.357973
O O4 0.599783 0.891017 0.268205
O O5 0.863113 0.608446 0.832632
O O6 0.820158 0.577262 0.691267
O O7 0.887942 0.547891 0.729760
O O8 0.923869 0.648764 0.693290
O O9 0.551879 0.069863 0.729706
O O10 0.563278 0.149071 0.824160
O O11 0.758018 0.287410 0.205267
O O12 0.806226 0.273907 0.056316
O O13 0.564503 0.602355 0.376097
O O14 0.998071 0.333334 0.083334
O O15 0.990721 0.087100 0.011058
#
# Coordination Sequence:
#
# PCOD9579499 Si02
#       7
#    36  36  36  36  36  36  36
#     4  12  24  40  63  94 133 175 213 273 340 391
#     4   9  21  38  68  93 124 166 224 271 325 391
#     4  11  21  38  65  95 133 168 220 271 331 390
#     4  10  20  38  61  91 127 169 214 269 318 390
#     4  10  20  41  68  97 124 178 224 267 334 402
#     4   9  22  45  69  92 128 173 219 274 343 400
#     4  11  22  38  64  95 135 176 219 274 327 387
#
# _framework density 22.669239000000001
#
# number of rings (size 3 to 8) (size 9 to 14) (size 15 to 20)
#    0.000    1.714    2.857    3.143    2.000    3.429 
#    0.000    2.143    6.286    0.000    0.000    4.000 
#    0.000    0.000    0.000    0.000    0.000    0.000 
#
# Total GULP energy -469085.748036 kJ/mol
# GULP energy per Si atom -5584.354143 kJ/mol
# Density = 2.261764 g / cm^3
# Si number density = 22.669239 Si / 1000 Ang^3
#
#
#
# Elastic Constant Matrix: (Units=GPa)
#
#
# Indices 1 2 3 4 5 6 
#
# 1 56.0504 26.2007 17.3508 -6.7337 0.0001 0.0000
# 2 26.2007 56.0504 17.3508 6.7337 -0.0001 0.0000
# 3 17.3508 17.3508 94.2400 0.0000 0.0000 0.0000
# 4 -6.7337 6.7337 0.0000 9.3784 0.0000 -0.0001
# 5 0.0001 -0.0001 0.0000 0.0000 9.3784 -6.7337
# 6 0.0000 0.0000 0.0000 -0.0001 -6.7337 14.9248
#
#
#
# Elastic Compliance Matrix: (Units=1/GPa)
#
#
# Indices 1 2 3 4 5 6 
#
# 1 0.031368 -0.018186 -0.002427 0.035580 -0.000001 0.000000
# 2 -0.018186 0.031368 -0.002427 -0.035580 0.000001 0.000000
# 3 -0.002427 -0.002427 0.011505 0.000000 0.000000 0.000000
# 4 0.035580 -0.035580 0.000000 0.157721 0.000000 0.000002
# 5 -0.000001 0.000001 0.000000 0.000000 0.157721 0.071160
# 6 0.000000 0.000000 0.000000 0.000002 0.071160 0.099108
#
#
# Mechanical properties :
#
#
# Convention : Reuss Voigt Hill
#
# Bulk Modulus (GPa) = 35.51045 36.46061 35.98553
# Shear Modulus (GPa) = 9.18683 16.43222 12.80953
#
# Velocity S-wave (km/s) = 2.01528 2.69526 2.37968
# Velocity P-wave (km/s) = 4.59497 5.07982 4.84346
#
# Compressibility (1/GPa) = 0.02816072
#
# Stress axis : x y z
#
# Youngs Moduli (GPa) = 31.87967 31.87967 86.91974
#
# Poissons Ratio (x) = 0.57977 0.21095
# Poissons Ratio (y) = 0.57977 0.21095
# Poissons Ratio (z) = 0.07737 0.07737
#
# Static dielectric constant tensor:
#      x y z
#    x 1.836090 0.000000 0.000000 
#    y 0.000000 1.836090 0.000000 
#    z 0.000000 0.000000 1.925570 
# 
# From -- ./inp_files/3682.got.cif
#   From: 2010.05.17/outbox.cif.g08.bks.cpg/sg167_2_cif.got.tgz:3682.got - 2010.05.20 11:09:15.
