data_PCOD9579204
_publ_section_title
;
Structure prediction by ZEFSAII (Michael W. Deem and Ramdas Pophale) SiO2 
 PCOD9579204
Probable space group: R -3 M
;
_chemical_formula_sum "Si O2"
_cell_formula_units_Z 216
_cell_length_a 22.223018
_cell_length_b 22.223018
_cell_length_c 27.080938
_cell_angle_alpha 90.000000
_cell_angle_beta 90.000000
_cell_angle_gamma 120.000000
_cell_volume 11582.449375
_symmetry_space_group_name_H-M "R -3 M"
_symmetry_group_IT_number 166
_symmetry_cell_setting 'hexagonal'
loop_
_space_group_symop_operation_xyz
x,y,z
-y,x-y,z
-x+y,-x,z
x-y,-y,-z
-x,-x+y,-z
y,x,-z
-x,-y,-z
y,-x+y,-z
x-y,x,-z
-x+y,y,z
x,x-y,z
-y,-x,z
2/3+x,1/3+y,1/3+z
2/3-y,1/3+x-y,1/3+z
2/3-x+y,1/3-x,1/3+z
2/3+x-y,1/3-y,1/3-z
2/3-x,1/3-x+y,1/3-z
2/3+y,1/3+x,1/3-z
2/3-x,1/3-y,1/3-z
2/3+y,1/3-x+y,1/3-z
2/3+x-y,1/3+x,1/3-z
2/3-x+y,1/3+y,1/3+z
2/3+x,1/3+x-y,1/3+z
2/3-y,1/3-x,1/3+z
1/3+x,2/3+y,2/3+z
1/3-y,2/3+x-y,2/3+z
1/3-x+y,2/3-x,2/3+z
1/3+x-y,2/3-y,2/3-z
1/3-x,2/3-x+y,2/3-z
1/3+y,2/3+x,2/3-z
1/3-x,2/3-y,2/3-z
1/3+y,2/3-x+y,2/3-z
1/3+x-y,2/3+x,2/3-z
1/3-x+y,2/3+y,2/3+z
1/3+x,2/3+x-y,2/3+z
1/3-y,2/3-x,2/3+z
loop_
_atom_site_type_symbol
_atom_site_label
_atom_site_fract_x
_atom_site_fract_y
_atom_site_fract_z
Si Si1 0.143231 0.143437 0.271233
Si Si2 0.906944 0.382781 0.154620
Si Si3 0.876210 0.260589 0.213300
Si Si4 0.463220 0.066336 0.870162
Si Si5 0.744108 0.115582 0.325169
Si Si6 0.411257 0.314725 0.686165
O O1 0.147241 0.073621 0.276101
O O2 0.178660 0.183666 0.220350
O O3 0.184039 0.197700 0.315046
O O4 0.063995 0.127989 0.270774
O O5 0.902529 0.451265 0.163569
O O6 0.893355 0.338035 0.203519
O O7 0.984165 0.408081 0.134875
O O8 0.794503 0.205498 0.211832
O O9 0.908959 0.242293 0.166667
O O10 0.900736 0.251863 0.266989
O O11 0.538109 0.076218 0.857713
O O12 0.440718 0.107385 0.833334
O O13 0.461697 0.086934 0.926538
O O14 0.807735 0.192266 0.335255
O O15 0.666667 0.102228 0.333334
O O16 0.750356 0.056779 0.355136
O O17 0.333334 0.261528 0.666667
#
# Coordination Sequence:
#
# PCOD9579204 Si02
#       6
#    36  36  36  36  36  36
#     4  11  22  37  59  88 122 159 202 249 302 366
#     4  10  21  35  57  87 118 155 197 241 294 356
#     4  10  20  35  56  81 114 152 190 234 291 351
#     4  11  25  42  62  89 121 157 200 250 302 356
#     4  10  23  38  57  89 122 157 199 250 305 359
#     4  11  22  39  62  86 120 158 202 252 309 367
#
# _framework density 18.648904999999999
#
# number of rings (size 3 to 8) (size 9 to 14) (size 15 to 20)
#    0.000    1.500    1.667    3.167    7.000    4.000 
#    0.000    0.000    0.000    0.667    0.000    0.000 
#    0.000    0.000    0.000    0.000    0.000    0.000 
#
# Total GULP energy -402369.352608 kJ/mol
# GULP energy per Si atom -5588.463231 kJ/mol
# Density = 1.860646 g / cm^3
# Si number density = 18.648905 Si / 1000 Ang^3
#
#
#
# Elastic Constant Matrix: (Units=GPa)
#
#
# Indices 1 2 3 4 5 6 
#
# 1 93.7263 49.0345 25.5001 -1.0371 0.0001 0.0000
# 2 49.0345 93.7263 25.5001 1.0371 -0.0001 0.0000
# 3 25.5001 25.5001 38.0595 0.0000 0.0000 0.0000
# 4 -1.0371 1.0371 0.0000 29.5469 0.0000 -0.0001
# 5 0.0001 -0.0001 0.0000 0.0000 29.5469 -1.0371
# 6 0.0000 0.0000 0.0000 -0.0001 -1.0371 22.3459
#
#
#
# Elastic Compliance Matrix: (Units=1/GPa)
#
#
# Indices 1 2 3 4 5 6 
#
# 1 0.015810 -0.006602 -0.006170 0.000787 0.000000 0.000000
# 2 -0.006602 0.015810 -0.006170 -0.000787 0.000000 0.000000
# 3 -0.006170 -0.006170 0.034543 0.000000 0.000000 0.000000
# 4 0.000787 -0.000787 0.000000 0.033900 0.000000 0.000000
# 5 0.000000 0.000000 0.000000 0.000000 0.033900 0.001573
# 6 0.000000 0.000000 0.000000 0.000000 0.001573 0.044824
#
#
# Mechanical properties :
#
#
# Convention : Reuss Voigt Hill
#
# Bulk Modulus (GPa) = 35.36032 47.28683 41.32358
# Shear Modulus (GPa) = 22.11442 24.65311 23.38377
#
# Velocity S-wave (km/s) = 3.44732 3.63982 3.54488
# Velocity P-wave (km/s) = 5.90319 6.56322 6.24193
#
# Compressibility (1/GPa) = 0.02828028
#
# Stress axis : x y z
#
# Youngs Moduli (GPa) = 63.24929 63.24929 28.94976
#
# Poissons Ratio (x) = 0.41754 0.17862
# Poissons Ratio (y) = 0.41754 0.17862
# Poissons Ratio (z) = 0.39025 0.39025
#
# Static dielectric constant tensor:
#      x y z
#    x 1.642750 0.000000 0.000000 
#    y 0.000000 1.642750 0.000000 
#    z 0.000000 0.000000 1.645200 
# 
# From -- ./inp_files/8480.got.cif
#   From: 2010.05.17/outbox.cif.g08.bks.cpg/sg166_5_cif.got.tgz:8480.got - 2010.05.20 11:04:41.
