data_PCOD9579646
_publ_section_title
;
Structure prediction by ZEFSAII (Michael W. Deem and Ramdas Pophale) SiO2 
 PCOD9579646
Probable space group: R -3 C 
;
_chemical_formula_sum "Si O2"
_cell_formula_units_Z 126
_cell_length_a 17.792949
_cell_length_b 17.792949
_cell_length_c 16.858633
_cell_angle_alpha 90.000000
_cell_angle_beta 90.000000
_cell_angle_gamma 120.000000
_cell_volume 4622.201307
_symmetry_space_group_name_H-M "R -3 C "
_symmetry_group_IT_number 167
_symmetry_cell_setting 'hexagonal'
loop_
_space_group_symop_operation_xyz
x,y,z
-y,x-y,z
-x+y,-x,z
x-y,-y,1/2-z
-x,-x+y,1/2-z
y,x,1/2-z
-x,-y,-z
y,-x+y,-z
x-y,x,-z
-x+y,y,1/2+z
x,x-y,1/2+z
-y,-x,1/2+z
2/3+x,1/3+y,1/3+z
2/3-y,1/3+x-y,1/3+z
2/3-x+y,1/3-x,1/3+z
2/3+x-y,1/3-y,5/6-z
2/3-x,1/3-x+y,5/6-z
2/3+y,1/3+x,5/6-z
2/3-x,1/3-y,1/3-z
2/3+y,1/3-x+y,1/3-z
2/3+x-y,1/3+x,1/3-z
2/3-x+y,1/3+y,5/6+z
2/3+x,1/3+x-y,5/6+z
2/3-y,1/3-x,5/6+z
1/3+x,2/3+y,2/3+z
1/3-y,2/3+x-y,2/3+z
1/3-x+y,2/3-x,2/3+z
1/3+x-y,2/3-y,1/6-z
1/3-x,2/3-x+y,1/6-z
1/3+y,2/3+x,1/6-z
1/3-x,2/3-y,2/3-z
1/3+y,2/3-x+y,2/3-z
1/3+x-y,2/3+x,2/3-z
1/3-x+y,2/3+y,1/6+z
1/3+x,2/3+x-y,1/6+z
1/3-y,2/3-x,1/6+z
loop_
_atom_site_type_symbol
_atom_site_label
_atom_site_fract_x
_atom_site_fract_y
_atom_site_fract_z
Si Si1 0.331917 0.391738 0.007306
Si Si2 0.333334 0.177591 0.916667
Si Si3 0.913012 0.077212 0.697997
Si Si4 0.177450 0.635418 0.211147
O O1 0.331046 0.333334 0.083334
O O2 0.234393 0.377736 0.019725
O O3 0.333334 0.364186 0.916667
O O4 0.404196 0.495612 0.001604
O O5 0.409825 0.264619 0.882107
O O6 0.000000 0.106929 0.750000
O O7 0.834119 0.000000 0.750000
O O8 0.897339 0.020542 0.619838
O O9 0.218578 0.700452 0.139236
#
# Coordination Sequence:
#
# PCOD9579646 Si02
#       4
#    36  18  36  36
#     4   9  20  42  78 121 176 236 295 383 489 584
#     4  10  24  46  72 110 178 220 288 380 498 556
#     4  11  22  42  82 130 163 213 303 406 462 546
#     4  12  25  46  81 124 161 223 304 386 467 566
#
# _framework density 27.259739
#
# number of rings (size 3 to 8) (size 9 to 14) (size 15 to 20)
#    0.857    0.571    0.000    7.429    0.000    2.286 
#    2.571    0.000   15.714   25.714    0.000    0.000 
#    0.000    0.000    0.000    0.000    0.000    0.000 
#
# Total GULP energy -234297.384225 kJ/mol
# GULP energy per Si atom -5578.509148 kJ/mol
# Density = 2.719769 g / cm^3
# Si number density = 27.259739 Si / 1000 Ang^3
#
#
#
# Elastic Constant Matrix: (Units=GPa)
#
#
# Indices 1 2 3 4 5 6 
#
# 1 178.8311 90.1268 81.8920 6.1758 0.0001 0.0000
# 2 90.1268 178.8311 81.8920 -6.1758 -0.0001 0.0000
# 3 81.8920 81.8920 213.6614 0.0000 0.0000 0.0000
# 4 6.1758 -6.1758 0.0000 47.8367 0.0000 -0.0001
# 5 0.0001 -0.0001 0.0000 0.0000 47.8367 6.1758
# 6 0.0000 0.0000 0.0000 -0.0001 6.1758 44.3522
#
#
#
# Elastic Compliance Matrix: (Units=1/GPa)
#
#
# Indices 1 2 3 4 5 6 
#
# 1 0.008165 -0.003315 -0.001859 -0.001482 0.000000 0.000000
# 2 -0.003315 0.008165 -0.001859 0.001482 0.000000 0.000000
# 3 -0.001859 -0.001859 0.006105 0.000000 0.000000 0.000000
# 4 -0.001482 0.001482 0.000000 0.021287 0.000000 0.000000
# 5 0.000000 0.000000 0.000000 0.000000 0.021287 -0.002964
# 6 0.000000 0.000000 0.000000 0.000000 -0.002964 0.022960
#
#
# Mechanical properties :
#
#
# Convention : Reuss Voigt Hill
#
# Bulk Modulus (GPa) = 119.47872 119.90502 119.69187
# Shear Modulus (GPa) = 47.69890 49.16598 48.43244
#
# Velocity S-wave (km/s) = 4.18759 4.25150 4.21967
# Velocity P-wave (km/s) = 8.20403 8.25724 8.23068
#
# Compressibility (1/GPa) = 0.00836969
#
# Stress axis : x y z
#
# Youngs Moduli (GPa) = 122.47520 122.47520 163.79269
#
# Poissons Ratio (x) = 0.40599 0.30448
# Poissons Ratio (y) = 0.40599 0.30448
# Poissons Ratio (z) = 0.22767 0.22767
#
# Static dielectric constant tensor:
#      x y z
#    x 2.225490 0.000000 0.000000 
#    y 0.000000 2.225490 0.000000 
#    z 0.000000 0.000000 2.027040 
# 
# From -- ./inp_files/3021.got.cif
#   From: 2010.05.17/outbox.cif.g08.bks.cpg/sg167_2_cif.got.tgz:3021.got - 2010.05.20 11:09:15.
