data_PCOD9579855
_publ_section_title
;
Structure prediction by ZEFSAII (Michael W. Deem and Ramdas Pophale) SiO2 
 PCOD9579855
Probable space group: P 61
;
_chemical_formula_sum "Si O2"
_cell_formula_units_Z 36
_cell_length_a 9.150246
_cell_length_b 9.150246
_cell_length_c 19.558610
_cell_angle_alpha 90.000000
_cell_angle_beta 90.000000
_cell_angle_gamma 120.000000
_cell_volume 1418.189151
_symmetry_space_group_name_H-M "P 61"
_symmetry_group_IT_number 169
_symmetry_cell_setting 'hexagonal'
loop_
_space_group_symop_operation_xyz
x,y,z
x-y,x,1/6+z
-y,x-y,1/3+z
-x,-y,1/2+z
-x+y,-x,2/3+z
y,-x+y,5/6+z
loop_
_atom_site_type_symbol
_atom_site_label
_atom_site_fract_x
_atom_site_fract_y
_atom_site_fract_z
Si Si1 0.499542 0.769712 0.294970
Si Si2 0.083479 0.145407 0.495296
Si Si3 0.948658 0.863845 0.428939
Si Si4 0.470461 0.081778 0.297821
Si Si5 0.837515 0.247275 0.287932
Si Si6 0.199020 0.425590 0.328732
O O1 0.532078 0.817026 0.375936
O O2 0.339183 0.587993 0.290317
O O3 0.666762 0.773699 0.267223
O O4 0.466739 0.916147 0.265797
O O5 0.970342 0.273040 0.674529
O O6 0.945251 0.200472 0.475590
O O7 0.058658 0.941016 0.507857
O O8 0.020377 0.097400 0.580226
O O9 0.776423 0.858442 0.453500
O O10 0.660837 0.189471 0.324979
O O11 0.458397 0.197766 0.239731
O O12 0.011330 0.392067 0.317857
#
# Coordination Sequence:
#
# PCOD9579855 Si02
#       6
#     6   6   6   6   6   6
#     4  10  21  41  63  96 135 171 223 283 337 405
#     4  11  20  38  63  93 127 168 220 268 328 408
#     4  10  19  37  67  90 124 175 219 259 332 406
#     4  10  22  39  62  93 132 170 221 277 326 403
#     4   9  20  39  66  89 128 180 221 265 341 411
#     4  10  22  40  65  93 128 176 226 272 336 415
#
# _framework density 25.384485999999999
#
# number of rings (size 3 to 8) (size 9 to 14) (size 15 to 20)
#    0.000    2.000    3.333    0.000    0.000    1.333 
#    6.000    0.000    0.000    0.000    0.000    0.000 
#    0.000    0.000    0.000    0.000    0.000    0.000 
#
# Total GULP energy -200600.671825 kJ/mol
# GULP energy per Si atom -5572.240884 kJ/mol
# Density = 2.532671 g / cm^3
# Si number density = 25.384486 Si / 1000 Ang^3
#
#
#
# Elastic Constant Matrix: (Units=GPa)
#
#
# Indices 1 2 3 4 5 6 
#
# 1 191.5113 87.2363 54.2711 0.0000 0.0000 0.0000
# 2 87.2363 191.5113 54.2711 0.0000 0.0000 0.0000
# 3 54.2711 54.2711 119.7742 0.0000 0.0000 0.0000
# 4 0.0000 0.0000 0.0000 31.1912 0.0000 0.0000
# 5 0.0000 0.0000 0.0000 0.0000 31.1912 0.0000
# 6 0.0000 0.0000 0.0000 0.0000 0.0000 52.1375
#
#
#
# Elastic Compliance Matrix: (Units=1/GPa)
#
#
# Indices 1 2 3 4 5 6 
#
# 1 0.006973 -0.002617 -0.001974 0.000000 0.000000 0.000000
# 2 -0.002617 0.006973 -0.001974 0.000000 0.000000 0.000000
# 3 -0.001974 -0.001974 0.010138 0.000000 0.000000 0.000000
# 4 0.000000 0.000000 0.000000 0.032060 0.000000 0.000000
# 5 0.000000 0.000000 0.000000 0.000000 0.032060 0.000000
# 6 0.000000 0.000000 0.000000 0.000000 0.000000 0.019180
#
#
# Mechanical properties :
#
#
# Convention : Reuss Voigt Hill
#
# Bulk Modulus (GPa) = 91.28488 99.37264 95.32876
# Shear Modulus (GPa) = 40.26897 43.37188 41.82043
#
# Velocity S-wave (km/s) = 3.98724 4.13800 4.06332
# Velocity P-wave (km/s) = 7.56547 7.87799 7.72331
#
# Compressibility (1/GPa) = 0.01095472
#
# Stress axis : x y z
#
# Youngs Moduli (GPa) = 143.40951 143.40951 98.64149
#
# Poissons Ratio (x) = 0.37530 0.19470
# Poissons Ratio (y) = 0.37530 0.19470
# Poissons Ratio (z) = 0.28306 0.28306
#
# Static dielectric constant tensor:
#      x y z
#    x 2.012340 0.000000 0.000000 
#    y 0.000000 2.012340 0.000000 
#    z 0.000000 0.000000 2.154420 
# 
# From -- ./inp_files/1818.got.cif
#   From: 2010.05.17/outbox.cif.g08.bks.cpg/sg169_cif.got.tgz:1818.got - 2010.05.20 11:12:54.
