data_PCOD9579648
_publ_section_title
;
Structure prediction by ZEFSAII (Michael W. Deem and Ramdas Pophale) SiO2 
 PCOD9579648
Probable space group: R -3 C 
;
_chemical_formula_sum "Si O2"
_cell_formula_units_Z 108
_cell_length_a 14.424026
_cell_length_b 14.424026
_cell_length_c 23.909862
_cell_angle_alpha 90.000000
_cell_angle_beta 90.000000
_cell_angle_gamma 120.000000
_cell_volume 4308.049595
_symmetry_space_group_name_H-M "R -3 C "
_symmetry_group_IT_number 167
_symmetry_cell_setting 'hexagonal'
loop_
_space_group_symop_operation_xyz
x,y,z
-y,x-y,z
-x+y,-x,z
x-y,-y,1/2-z
-x,-x+y,1/2-z
y,x,1/2-z
-x,-y,-z
y,-x+y,-z
x-y,x,-z
-x+y,y,1/2+z
x,x-y,1/2+z
-y,-x,1/2+z
2/3+x,1/3+y,1/3+z
2/3-y,1/3+x-y,1/3+z
2/3-x+y,1/3-x,1/3+z
2/3+x-y,1/3-y,5/6-z
2/3-x,1/3-x+y,5/6-z
2/3+y,1/3+x,5/6-z
2/3-x,1/3-y,1/3-z
2/3+y,1/3-x+y,1/3-z
2/3+x-y,1/3+x,1/3-z
2/3-x+y,1/3+y,5/6+z
2/3+x,1/3+x-y,5/6+z
2/3-y,1/3-x,5/6+z
1/3+x,2/3+y,2/3+z
1/3-y,2/3+x-y,2/3+z
1/3-x+y,2/3-x,2/3+z
1/3+x-y,2/3-y,1/6-z
1/3-x,2/3-x+y,1/6-z
1/3+y,2/3+x,1/6-z
1/3-x,2/3-y,2/3-z
1/3+y,2/3-x+y,2/3-z
1/3+x-y,2/3+x,2/3-z
1/3-x+y,2/3+y,1/6+z
1/3+x,2/3+x-y,1/6+z
1/3-y,2/3-x,1/6+z
loop_
_atom_site_type_symbol
_atom_site_label
_atom_site_fract_x
_atom_site_fract_y
_atom_site_fract_z
Si Si1 0.868903 0.968274 0.425754
Si Si2 0.075562 0.352580 0.975183
Si Si3 0.985618 0.792673 0.313894
O O1 0.837603 0.954319 0.360129
O O2 0.973969 0.083697 0.437608
O O3 0.767415 0.956272 0.457466
O O4 0.075090 0.408423 0.916667
O O5 0.194858 0.405673 0.997624
O O6 0.984151 0.353114 0.012887
O O7 0.000000 0.828967 0.250000
#
# Coordination Sequence:
#
# PCOD9579648 Si02
#       3
#    36  36  36
#     4   9  23  42  69  96 131 171 229 266 331 396
#     4  10  25  42  64  95 131 174 219 267 331 395
#     4  11  26  40  68  96 135 175 219 279 332 398
#
# _framework density 25.06935
#
# number of rings (size 3 to 8) (size 9 to 14) (size 15 to 20)
#    0.667    1.333    0.000    0.000   14.000    4.000 
#    0.000    1.667    0.000    0.000    0.000    0.000 
#    0.000    0.000    0.000    0.000    0.000    0.000 
#
# Total GULP energy -201653.370681 kJ/mol
# GULP energy per Si atom -5601.482519 kJ/mol
# Density = 2.501229 g / cm^3
# Si number density = 25.069350 Si / 1000 Ang^3
#
#
#
# Elastic Constant Matrix: (Units=GPa)
#
#
# Indices 1 2 3 4 5 6 
#
# 1 89.9733 29.9363 -6.7871 -2.2205 0.0003 0.0000
# 2 29.9363 89.9733 -6.7871 2.2205 -0.0003 0.0000
# 3 -6.7871 -6.7871 87.8401 0.0000 0.0000 0.0000
# 4 -2.2205 2.2205 0.0000 29.3113 0.0000 -0.0003
# 5 0.0003 -0.0003 0.0000 0.0000 29.3113 -2.2205
# 6 0.0000 0.0000 0.0000 -0.0003 -2.2205 30.0185
#
#
#
# Elastic Compliance Matrix: (Units=1/GPa)
#
#
# Indices 1 2 3 4 5 6 
#
# 1 0.012582 -0.004169 0.000650 0.001269 0.000000 0.000000
# 2 -0.004169 0.012582 0.000650 -0.001269 0.000000 0.000000
# 3 0.000650 0.000650 0.011485 0.000000 0.000000 0.000000
# 4 0.001269 -0.001269 0.000000 0.034309 0.000000 0.000000
# 5 0.000000 0.000000 0.000000 0.000000 0.034309 0.002538
# 6 0.000000 0.000000 0.000000 0.000000 0.002538 0.033501
#
#
# Mechanical properties :
#
#
# Convention : Reuss Voigt Hill
#
# Bulk Modulus (GPa) = 32.35048 33.39009 32.87028
# Shear Modulus (GPa) = 32.29826 34.48984 33.39405
#
# Velocity S-wave (km/s) = 3.59326 3.71317 3.65371
# Velocity P-wave (km/s) = 5.49070 5.63307 5.56234
#
# Compressibility (1/GPa) = 0.03091144
#
# Stress axis : x y z
#
# Youngs Moduli (GPa) = 79.48031 79.48031 87.07172
#
# Poissons Ratio (x) = 0.33132 -0.05660
# Poissons Ratio (y) = 0.33132 -0.05660
# Poissons Ratio (z) = -0.05167 -0.05167
#
# Static dielectric constant tensor:
#      x y z
#    x 1.944120 0.000000 0.000000 
#    y 0.000000 1.944120 0.000000 
#    z 0.000000 0.000000 1.993030 
# 
# From -- ./inp_files/4061.got.cif
#   From: 2010.05.17/outbox.cif.g08.bks.cpg/sg167_3_cif.got.tgz:4061.got - 2010.05.20 11:09:15.
