data_PCOD9579047
_publ_section_title
;
Structure prediction by ZEFSAII (Michael W. Deem and Ramdas Pophale) SiO2 
 PCOD9579047
Probable space group: R -3 M
;
_chemical_formula_sum "Si O2"
_cell_formula_units_Z 144
_cell_length_a 30.253370
_cell_length_b 30.253370
_cell_length_c 7.790065
_cell_angle_alpha 90.000000
_cell_angle_beta 90.000000
_cell_angle_gamma 120.000000
_cell_volume 6174.747896
_symmetry_space_group_name_H-M "R -3 M"
_symmetry_group_IT_number 166
_symmetry_cell_setting 'hexagonal'
loop_
_space_group_symop_operation_xyz
x,y,z
-y,x-y,z
-x+y,-x,z
x-y,-y,-z
-x,-x+y,-z
y,x,-z
-x,-y,-z
y,-x+y,-z
x-y,x,-z
-x+y,y,z
x,x-y,z
-y,-x,z
2/3+x,1/3+y,1/3+z
2/3-y,1/3+x-y,1/3+z
2/3-x+y,1/3-x,1/3+z
2/3+x-y,1/3-y,1/3-z
2/3-x,1/3-x+y,1/3-z
2/3+y,1/3+x,1/3-z
2/3-x,1/3-y,1/3-z
2/3+y,1/3-x+y,1/3-z
2/3+x-y,1/3+x,1/3-z
2/3-x+y,1/3+y,1/3+z
2/3+x,1/3+x-y,1/3+z
2/3-y,1/3-x,1/3+z
1/3+x,2/3+y,2/3+z
1/3-y,2/3+x-y,2/3+z
1/3-x+y,2/3-x,2/3+z
1/3+x-y,2/3-y,2/3-z
1/3-x,2/3-x+y,2/3-z
1/3+y,2/3+x,2/3-z
1/3-x,2/3-y,2/3-z
1/3+y,2/3-x+y,2/3-z
1/3+x-y,2/3+x,2/3-z
1/3-x+y,2/3+y,2/3+z
1/3+x,2/3+x-y,2/3+z
1/3-y,2/3-x,2/3+z
loop_
_atom_site_type_symbol
_atom_site_label
_atom_site_fract_x
_atom_site_fract_y
_atom_site_fract_z
Si Si1 0.901449 0.699070 0.992140
Si Si2 0.896915 0.000015 0.293086
Si Si3 0.921062 0.180244 0.440564
Si Si4 0.352613 0.876356 0.887946
O O1 0.856232 0.712463 0.996883
O O2 0.894984 0.666667 0.166667
O O3 0.885009 0.652196 0.861764
O O4 0.952005 0.748856 0.927765
O O5 0.946158 0.053843 0.251803
O O6 0.887189 0.000000 0.500000
O O7 0.907104 0.953552 0.261920
O O8 0.847079 0.991129 0.193077
O O9 0.873570 0.126431 0.380353
O O10 0.941623 0.172289 0.618694
O O11 0.966867 0.202332 0.303032
#
# Coordination Sequence:
#
# PCOD9579047 Si02
#       4
#    36  36  36  36
#     4  10  22  39  59  84 121 170 221 278 344 412
#     4  10  18  29  49  87 137 183 227 282 345 407
#     4  10  20  36  60  90 123 163 216 280 346 411
#     4  11  20  33  62  89 127 171 228 278 341 416
#
# _framework density 23.320789000000001
#
# number of rings (size 3 to 8) (size 9 to 14) (size 15 to 20)
#    0.000    1.750    2.500    4.000    0.000    4.000 
#    0.000    0.000   16.500    0.000    0.000    3.500 
#    0.000    0.000    0.000   34.000    0.000    0.250 
#
# Total GULP energy -268303.487697 kJ/mol
# GULP energy per Si atom -5589.655994 kJ/mol
# Density = 2.326771 g / cm^3
# Si number density = 23.320789 Si / 1000 Ang^3
#
#
#
# Elastic Constant Matrix: (Units=GPa)
#
#
# Indices 1 2 3 4 5 6 
#
# 1 185.6650 106.7106 59.4212 13.4078 -0.0232 0.0987
# 2 106.7106 185.6312 59.3802 -13.3515 0.0714 -0.0070
# 3 59.4212 59.3802 121.7338 0.1422 0.1986 0.0829
# 4 13.4078 -13.3515 0.1422 10.4996 0.1206 -0.0346
# 5 -0.0232 0.0714 0.1986 0.1206 10.6289 13.3673
# 6 0.0987 -0.0070 0.0829 -0.0346 13.3673 39.4979
#
#
#
# Elastic Compliance Matrix: (Units=1/GPa)
#
#
# Indices 1 2 3 4 5 6 
#
# 1 0.013280 -0.009023 -0.002049 -0.028416 0.000905 -0.000362
# 2 -0.009023 0.013298 -0.002115 0.028471 -0.000802 0.000326
# 3 -0.002049 -0.002115 0.010247 -0.000208 -0.000275 0.000076
# 4 -0.028416 0.028471 -0.000208 0.167789 -0.004238 0.001658
# 5 0.000905 -0.000802 -0.000275 -0.004238 0.163918 -0.055481
# 6 -0.000362 0.000326 0.000076 0.001658 -0.055481 0.044096
#
#
# Mechanical properties :
#
#
# Convention : Reuss Voigt Hill
#
# Bulk Modulus (GPa) = 95.67361 104.89487 100.28424
# Shear Modulus (GPa) = 11.29980 29.95982 20.62981
#
# Velocity S-wave (km/s) = 2.20361 3.58814 2.97747
# Velocity P-wave (km/s) = 6.89845 7.88943 7.41052
#
# Compressibility (1/GPa) = 0.01045220
#
# Stress axis : x y z
#
# Youngs Moduli (GPa) = 75.30140 75.19765 97.58894
#
# Poissons Ratio (x) = 0.67848 0.19998
# Poissons Ratio (y) = 0.67942 0.20637
# Poissons Ratio (z) = 0.15431 0.15902
#
# Static dielectric constant tensor:
#      x y z
#    x 1.863820 -0.000030 -0.000230 
#    y -0.000030 1.863820 0.000030 
#    z -0.000230 0.000030 2.034810 
# 
# From -- ./inp_files/1811.got.cif
#   From: 2010.05.17/outbox.cif.g08.bks.cpg/sg166_1_cif.got.tgz:1811.got - 2010.05.20 11:04:41.
