data_PCOD9579131
_publ_section_title
;
Structure prediction by ZEFSAII (Michael W. Deem and Ramdas Pophale) SiO2 
 PCOD9579131
Probable space group: R -3 M
;
_chemical_formula_sum "Si O2"
_cell_formula_units_Z 270
_cell_length_a 26.838487
_cell_length_b 26.838487
_cell_length_c 24.989738
_cell_angle_alpha 90.000000
_cell_angle_beta 90.000000
_cell_angle_gamma 120.000000
_cell_volume 15588.645930
_symmetry_space_group_name_H-M "R -3 M"
_symmetry_group_IT_number 166
_symmetry_cell_setting 'hexagonal'
loop_
_space_group_symop_operation_xyz
x,y,z
-y,x-y,z
-x+y,-x,z
x-y,-y,-z
-x,-x+y,-z
y,x,-z
-x,-y,-z
y,-x+y,-z
x-y,x,-z
-x+y,y,z
x,x-y,z
-y,-x,z
2/3+x,1/3+y,1/3+z
2/3-y,1/3+x-y,1/3+z
2/3-x+y,1/3-x,1/3+z
2/3+x-y,1/3-y,1/3-z
2/3-x,1/3-x+y,1/3-z
2/3+y,1/3+x,1/3-z
2/3-x,1/3-y,1/3-z
2/3+y,1/3-x+y,1/3-z
2/3+x-y,1/3+x,1/3-z
2/3-x+y,1/3+y,1/3+z
2/3+x,1/3+x-y,1/3+z
2/3-y,1/3-x,1/3+z
1/3+x,2/3+y,2/3+z
1/3-y,2/3+x-y,2/3+z
1/3-x+y,2/3-x,2/3+z
1/3+x-y,2/3-y,2/3-z
1/3-x,2/3-x+y,2/3-z
1/3+y,2/3+x,2/3-z
1/3-x,2/3-y,2/3-z
1/3+y,2/3-x+y,2/3-z
1/3+x-y,2/3+x,2/3-z
1/3-x+y,2/3+y,2/3+z
1/3+x,2/3+x-y,2/3+z
1/3-y,2/3-x,2/3+z
loop_
_atom_site_type_symbol
_atom_site_label
_atom_site_fract_x
_atom_site_fract_y
_atom_site_fract_z
Si Si1 0.000000 0.881333 0.000000
Si Si2 0.297800 0.816847 0.448393
Si Si3 0.118794 0.999875 0.559240
Si Si4 0.551023 0.559287 0.883864
Si Si5 0.844350 0.035847 0.666346
Si Si6 0.560372 0.554377 0.241662
Si Si7 0.323825 0.941693 0.294644
Si Si8 0.139196 0.630372 0.768067
O O1 0.998613 0.846729 0.947064
O O2 0.943415 0.886830 0.999620
O O3 0.250468 0.749533 0.451084
O O4 0.262555 0.851523 0.445932
O O5 0.326913 0.824791 0.390422
O O6 0.326506 0.833617 0.506893
O O7 0.059214 0.940787 0.564137
O O8 0.144204 0.000000 0.500000
O O9 0.108135 0.054068 0.558552
O O10 0.156601 0.008296 0.611698
O O11 0.504858 0.495143 0.904655
O O12 0.561390 0.553396 0.821480
O O13 0.610854 0.591190 0.914136
O O14 0.899515 0.100486 0.669091
O O15 0.784016 0.033139 0.660513
O O16 0.500717 0.499284 0.260514
O O17 0.577903 0.612459 0.272709
O O18 0.610487 0.537547 0.244111
O O19 0.320847 0.987514 0.333334
O O20 0.138638 0.569319 0.771562
#
# Coordination Sequence:
#
# PCOD9579131 Si02
#       8
#    18  36  36  36  36  36  36  36
#     4  10  19  32  54  84 110 128 151 198 262 320
#     4   8  14  29  49  68  94 130 168 200 239 299
#     4   9  18  33  52  73  99 138 187 231 265 302
#     4   9  17  32  52  72  99 134 170 212 260 309
#     4  10  20  32  48  71 102 137 172 214 265 315
#     4   9  20  36  51  69  98 137 175 212 253 301
#     4  12  22  30  48  78 105 131 169 216 264 310
#     4   8  16  32  54  73  94 129 167 200 242 302
#
# _framework density 17.320298000000001
#
# number of rings (size 3 to 8) (size 9 to 14) (size 15 to 20)
#    0.000    2.667    1.333    2.600    0.933    2.667 
#    0.000    3.333    0.000    0.000    0.000    1.867 
#    0.000    6.667    0.000    0.000    0.000    0.000 
#
# Total GULP energy -501059.882787 kJ/mol
# GULP energy per Si atom -5567.332031 kJ/mol
# Density = 1.728088 g / cm^3
# Si number density = 17.320298 Si / 1000 Ang^3
#
#
#
# Elastic Constant Matrix: (Units=GPa)
#
#
# Indices 1 2 3 4 5 6 
#
# 1 43.3850 16.0446 36.6440 -2.0513 0.0000 0.0000
# 2 16.0446 43.3850 36.6440 2.0513 0.0000 0.0000
# 3 36.6440 36.6440 136.5040 0.0000 0.0000 0.0000
# 4 -2.0513 2.0513 0.0000 21.4703 0.0000 0.0000
# 5 0.0000 0.0000 0.0000 0.0000 21.4703 -2.0513
# 6 0.0000 0.0000 0.0000 0.0000 -2.0513 13.6702
#
#
#
# Elastic Compliance Matrix: (Units=1/GPa)
#
#
# Indices 1 2 3 4 5 6 
#
# 1 0.031131 -0.005977 -0.006752 0.003545 0.000000 0.000000
# 2 -0.005977 0.031131 -0.006752 -0.003545 0.000000 0.000000
# 3 -0.006752 -0.006752 0.010951 0.000000 0.000000 0.000000
# 4 0.003545 -0.003545 0.000000 0.047253 0.000000 0.000000
# 5 0.000000 0.000000 0.000000 0.000000 0.047253 0.007091
# 6 0.000000 0.000000 0.000000 0.000000 0.007091 0.074216
#
#
# Mechanical properties :
#
#
# Convention : Reuss Voigt Hill
#
# Bulk Modulus (GPa) = 29.19813 44.65992 36.92902
# Shear Modulus (GPa) = 17.10479 20.25158 18.67818
#
# Velocity S-wave (km/s) = 3.14595 3.42312 3.28746
# Velocity P-wave (km/s) = 5.48547 6.43929 5.98142
#
# Compressibility (1/GPa) = 0.03424877
#
# Stress axis : x y z
#
# Youngs Moduli (GPa) = 32.12250 32.12250 91.31493
#
# Poissons Ratio (x) = 0.19200 0.61660
# Poissons Ratio (y) = 0.19200 0.61660
# Poissons Ratio (z) = 0.21690 0.21690
#
# Static dielectric constant tensor:
#      x y z
#    x 1.576520 0.000000 0.000000 
#    y 0.000000 1.576520 0.000000 
#    z 0.000000 0.000000 1.643070 
# 
# From -- ./inp_files/8724.got.cif
#   From: 2010.05.17/outbox.cif.g08.bks.cpg/sg166_5_cif.got.tgz:8724.got - 2010.05.20 11:04:41.
