data_PCOD9579760
_publ_section_title
;
Structure prediction by ZEFSAII (Michael W. Deem and Ramdas Pophale) SiO2 
 PCOD9579760
Probable space group: P 6
;
_chemical_formula_sum "Si O2"
_cell_formula_units_Z 48
_cell_length_a 16.522926
_cell_length_b 16.522926
_cell_length_c 9.775532
_cell_angle_alpha 90.000000
_cell_angle_beta 90.000000
_cell_angle_gamma 120.000000
_cell_volume 2311.239489
_symmetry_space_group_name_H-M "P 6"
_symmetry_group_IT_number 168
_symmetry_cell_setting 'hexagonal'
loop_
_space_group_symop_operation_xyz
x,y,z
x-y,x,z
-y,x-y,z
-x,-y,z
-x+y,-x,z
y,-x+y,z
loop_
_atom_site_type_symbol
_atom_site_label
_atom_site_fract_x
_atom_site_fract_y
_atom_site_fract_z
Si Si1 0.456166 0.348581 0.131040
Si Si2 0.884061 0.598678 0.831709
Si Si3 0.115424 0.637393 0.131039
Si Si4 0.909087 0.261850 0.376636
Si Si5 0.658211 0.222480 0.631043
Si Si6 0.791113 0.956456 0.131039
Si Si7 0.598677 0.714617 0.430373
Si Si8 0.738151 0.647238 0.885443
O O1 0.417594 0.420350 0.131040
O O2 0.567405 0.411965 0.131037
O O3 0.417078 0.291074 0.267678
O O4 0.417074 0.291071 0.994405
O O5 0.838194 0.498558 0.757891
O O6 0.818173 0.642503 0.798393
O O7 0.995618 0.663672 0.808473
O O8 0.133381 0.689047 0.277302
O O9 0.133380 0.689048 0.984778
O O10 0.942716 0.212926 0.265172
O O11 0.824330 0.181827 0.463685
O O12 0.004382 0.336328 0.453606
O O13 0.750538 0.327250 0.631043
O O14 0.660364 0.161805 0.504196
O O15 0.820573 0.878885 0.131041
O O16 0.729792 0.942716 0.996904
#
# Coordination Sequence:
#
# PCOD9579760 Si02
#       8
#     6   6   6   6   6   6   6   6
#     4   9  18  34  59  89 120 157 208 258 314 384
#     4  11  22  42  64  92 129 171 214 268 319 396
#     4   8  17  28  52  91 119 152 205 257 307 370
#     4  10  20  34  62  92 128 172 217 261 321 384
#     4  10  28  50  64  89 128 157 212 281 343 393
#     4  11  18  32  55 101 146 178 214 274 324 378
#     4  11  22  42  64  92 129 171 214 268 319 396
#     4  10  20  34  62  92 128 172 217 261 321 384
#
# _framework density 20.768077999999999
#
# number of rings (size 3 to 8) (size 9 to 14) (size 15 to 20)
#    0.250    1.750    2.500    2.375    3.500    1.000 
#    0.000    1.250    0.000    0.000    0.000    0.000 
#    0.000    4.000    0.000    0.000    0.000    0.000 
#
# Total GULP energy -267581.132297 kJ/mol
# GULP energy per Si atom -5574.606923 kJ/mol
# Density = 2.072081 g / cm^3
# Si number density = 20.768078 Si / 1000 Ang^3
#
#
#
# Elastic Constant Matrix: (Units=GPa)
#
#
# Indices 1 2 3 4 5 6 
#
# 1 75.5452 8.1849 -2.5832 0.0000 0.0000 0.0000
# 2 8.1849 75.5452 -2.5832 0.0000 0.0000 0.0000
# 3 -2.5832 -2.5832 67.5494 0.0000 0.0000 0.0000
# 4 0.0000 0.0000 0.0000 -23.2540 0.0000 0.0000
# 5 0.0000 0.0000 0.0000 0.0000 -23.2540 0.0000
# 6 0.0000 0.0000 0.0000 0.0000 0.0000 33.6801
#
#
#
# Elastic Compliance Matrix: (Units=1/GPa)
#
#
# Indices 1 2 3 4 5 6 
#
# 1 0.013408 -0.001437 0.000458 0.000000 0.000000 0.000000
# 2 -0.001437 0.013408 0.000458 0.000000 0.000000 0.000000
# 3 0.000458 0.000458 0.014839 0.000000 0.000000 0.000000
# 4 0.000000 0.000000 0.000000 -0.043003 0.000000 0.000000
# 5 0.000000 0.000000 0.000000 0.000000 -0.043003 0.000000
# 6 0.000000 0.000000 0.000000 0.000000 0.000000 0.029691
#
#
# Mechanical properties :
#
#
# Convention : Reuss Voigt Hill
#
# Bulk Modulus (GPa) = 24.62265 24.96407 24.79336
# Shear Modulus (GPa) = -63233.77230 11.80917 -31610.98156
#
# Velocity S-wave (km/s) = -174.68165 2.38717 -123.50705
# Velocity P-wave (km/s) = 201.67554 4.43222 142.57170
#
# Compressibility (1/GPa) = 0.04061302
#
# Stress axis : x y z
#
# Youngs Moduli (GPa) = 74.57972 74.57972 67.39002
#
# Poissons Ratio (x) = 0.10718 -0.03085
# Poissons Ratio (y) = 0.10718 -0.03085
# Poissons Ratio (z) = -0.03414 -0.03414
#
# Static dielectric constant tensor:
#      x y z
#    x 1.781500 0.000000 0.000000 
#    y 0.000000 1.781500 0.000000 
#    z 0.000000 0.000000 1.754750 
# 
# From -- ./inp_files/360.got.cif
#   From: 2010.05.17/outbox.cif.g08.bks.cpg/sg168_cif.got.tgz:360.got - 2010.05.20 11:12:33.
