data_PCOD9579700
_publ_section_title
;
Structure prediction by ZEFSAII (Michael W. Deem and Ramdas Pophale) SiO2 
 PCOD9579700
Probable space group: R -3 C 
;
_chemical_formula_sum "Si O2"
_cell_formula_units_Z 138
_cell_length_a 15.898042
_cell_length_b 15.898042
_cell_length_c 27.939747
_cell_angle_alpha 90.000000
_cell_angle_beta 90.000000
_cell_angle_gamma 120.000000
_cell_volume 6115.618431
_symmetry_space_group_name_H-M "R -3 C "
_symmetry_group_IT_number 167
_symmetry_cell_setting 'hexagonal'
loop_
_space_group_symop_operation_xyz
x,y,z
-y,x-y,z
-x+y,-x,z
x-y,-y,1/2-z
-x,-x+y,1/2-z
y,x,1/2-z
-x,-y,-z
y,-x+y,-z
x-y,x,-z
-x+y,y,1/2+z
x,x-y,1/2+z
-y,-x,1/2+z
2/3+x,1/3+y,1/3+z
2/3-y,1/3+x-y,1/3+z
2/3-x+y,1/3-x,1/3+z
2/3+x-y,1/3-y,5/6-z
2/3-x,1/3-x+y,5/6-z
2/3+y,1/3+x,5/6-z
2/3-x,1/3-y,1/3-z
2/3+y,1/3-x+y,1/3-z
2/3+x-y,1/3+x,1/3-z
2/3-x+y,1/3+y,5/6+z
2/3+x,1/3+x-y,5/6+z
2/3-y,1/3-x,5/6+z
1/3+x,2/3+y,2/3+z
1/3-y,2/3+x-y,2/3+z
1/3-x+y,2/3-x,2/3+z
1/3+x-y,2/3-y,1/6-z
1/3-x,2/3-x+y,1/6-z
1/3+y,2/3+x,1/6-z
1/3-x,2/3-y,2/3-z
1/3+y,2/3-x+y,2/3-z
1/3+x-y,2/3+x,2/3-z
1/3-x+y,2/3+y,1/6+z
1/3+x,2/3+x-y,1/6+z
1/3-y,2/3-x,1/6+z
loop_
_atom_site_type_symbol
_atom_site_label
_atom_site_fract_x
_atom_site_fract_y
_atom_site_fract_z
Si Si1 0.438125 0.415577 0.930538
Si Si2 0.902882 0.236215 0.916667
Si Si3 0.104629 0.559753 0.663444
Si Si4 0.666668 0.333334 0.141951
Si Si5 0.713180 0.534147 0.181044
O O1 0.333334 0.327466 0.916667
O O2 0.493835 0.461398 0.880860
O O3 0.521092 0.407454 0.959449
O O4 0.411191 0.477940 0.966524
O O5 0.820683 0.199695 0.877897
O O6 0.905909 0.325916 0.948192
O O7 0.173843 0.674234 0.669908
O O8 0.666668 0.333334 0.083334
O O9 0.657452 0.423490 0.163126
#
# Coordination Sequence:
#
# PCOD9579700 Si02
#       5
#    36  18  36  12  36
#     4  11  24  50  74 110 146 204 258 316 382 469
#     4  12  26  46  76 112 144 206 244 320 392 462
#     4  12  28  47  75 109 152 201 258 324 394 473
#     4  12  30  54  78 118 158 208 261 333 396 466
#     4  11  27  50  78 113 156 199 265 323 396 471
#
# _framework density 22.565176000000001
#
# number of rings (size 3 to 8) (size 9 to 14) (size 15 to 20)
#    0.000    0.522    5.217    1.043    5.478    0.000 
#   18.783    0.000    0.000    0.000    0.000    0.000 
#    0.000    0.000    0.000    0.000    0.000    0.000 
#
# Total GULP energy -256441.519385 kJ/mol
# GULP energy per Si atom -5574.815639 kJ/mol
# Density = 2.251382 g / cm^3
# Si number density = 22.565176 Si / 1000 Ang^3
#
#
#
# Elastic Constant Matrix: (Units=GPa)
#
#
# Indices 1 2 3 4 5 6 
#
# 1 98.6365 46.4067 66.0064 2.5650 -0.0009 0.0000
# 2 46.4067 98.6356 66.0060 -2.5650 0.0010 0.0000
# 3 66.0064 66.0060 201.0537 0.0002 0.0000 0.0000
# 4 2.5650 -2.5650 0.0002 46.3484 -0.0001 0.0009
# 5 -0.0009 0.0010 0.0000 -0.0001 46.3490 2.5653
# 6 0.0000 0.0000 0.0000 0.0009 2.5653 26.1146
#
#
#
# Elastic Compliance Matrix: (Units=1/GPa)
#
#
# Indices 1 2 3 4 5 6 
#
# 1 0.014542 -0.004709 -0.003228 -0.001065 0.000000 0.000000
# 2 -0.004709 0.014542 -0.003228 0.001065 0.000000 0.000000
# 3 -0.003228 -0.003228 0.007093 0.000000 0.000000 0.000000
# 4 -0.001065 0.001065 0.000000 0.021694 0.000000 -0.000001
# 5 0.000000 0.000000 0.000000 0.000000 0.021693 -0.002131
# 6 0.000000 0.000000 0.000000 -0.000001 -0.002131 0.038502
#
#
# Mechanical properties :
#
#
# Convention : Reuss Voigt Hill
#
# Bulk Modulus (GPa) = 72.22153 83.90711 78.06432
# Shear Modulus (GPa) = 34.47991 38.42284 36.45137
#
# Velocity S-wave (km/s) = 3.91322 4.13092 4.02354
# Velocity P-wave (km/s) = 7.24520 7.74711 7.50036
#
# Compressibility (1/GPa) = 0.01384629
#
# Stress axis : x y z
#
# Youngs Moduli (GPa) = 68.76780 68.76715 140.97739
#
# Poissons Ratio (x) = 0.32384 0.45508
# Poissons Ratio (y) = 0.32384 0.45508
# Poissons Ratio (z) = 0.22198 0.22198
#
# Static dielectric constant tensor:
#      x y z
#    x 2.029990 0.000000 0.000000 
#    y 0.000000 2.030000 0.000000 
#    z 0.000000 0.000000 1.812820 
# 
# From -- ./inp_files/6095.got.cif
#   From: 2010.05.17/outbox.cif.g08.bks.cpg/sg167_4_cif.got.tgz:6095.got - 2010.05.20 11:09:15.
