data_PCOD9579733
_publ_section_title
;
Structure prediction by ZEFSAII (Michael W. Deem and Ramdas Pophale) SiO2 
 PCOD9579733
Probable space group: R -3 C 
;
_chemical_formula_sum "Si O2"
_cell_formula_units_Z 72
_cell_length_a 18.347520
_cell_length_b 18.347520
_cell_length_c 9.667082
_cell_angle_alpha 90.000000
_cell_angle_beta 90.000000
_cell_angle_gamma 120.000000
_cell_volume 2818.258164
_symmetry_space_group_name_H-M "R -3 C "
_symmetry_group_IT_number 167
_symmetry_cell_setting 'hexagonal'
loop_
_space_group_symop_operation_xyz
x,y,z
-y,x-y,z
-x+y,-x,z
x-y,-y,1/2-z
-x,-x+y,1/2-z
y,x,1/2-z
-x,-y,-z
y,-x+y,-z
x-y,x,-z
-x+y,y,1/2+z
x,x-y,1/2+z
-y,-x,1/2+z
2/3+x,1/3+y,1/3+z
2/3-y,1/3+x-y,1/3+z
2/3-x+y,1/3-x,1/3+z
2/3+x-y,1/3-y,5/6-z
2/3-x,1/3-x+y,5/6-z
2/3+y,1/3+x,5/6-z
2/3-x,1/3-y,1/3-z
2/3+y,1/3-x+y,1/3-z
2/3+x-y,1/3+x,1/3-z
2/3-x+y,1/3+y,5/6+z
2/3+x,1/3+x-y,5/6+z
2/3-y,1/3-x,5/6+z
1/3+x,2/3+y,2/3+z
1/3-y,2/3+x-y,2/3+z
1/3-x+y,2/3-x,2/3+z
1/3+x-y,2/3-y,1/6-z
1/3-x,2/3-x+y,1/6-z
1/3+y,2/3+x,1/6-z
1/3-x,2/3-y,2/3-z
1/3+y,2/3-x+y,2/3-z
1/3+x-y,2/3+x,2/3-z
1/3-x+y,2/3+y,1/6+z
1/3+x,2/3+x-y,1/6+z
1/3-y,2/3-x,1/6+z
loop_
_atom_site_type_symbol
_atom_site_label
_atom_site_fract_x
_atom_site_fract_y
_atom_site_fract_z
Si Si1 0.763992 0.093823 0.572176
Si Si2 0.333204 0.520320 0.255803
O O1 0.789275 0.122609 0.416667
O O2 0.833334 0.166667 0.666667
O O3 0.772586 0.011484 0.594046
O O4 0.666667 0.068684 0.583334
O O5 0.333334 0.546182 0.416667
O O6 0.253368 0.509669 0.168871
#
# Coordination Sequence:
#
# PCOD9579733 Si02
#       2
#    36  36
#     4  12  27  51  80 116 157 206 265 335 405 481
#     4  12  26  47  74 110 156 210 264 327 397 477
#
# _framework density 25.547694
#
# number of rings (size 3 to 8) (size 9 to 14) (size 15 to 20)
#    0.000    0.000    0.000    9.500    0.000    4.000 
#    0.000    0.000    0.000    0.000    0.000    0.000 
#    0.000    0.000    0.000    0.000    0.000    0.000 
#
# Total GULP energy -134533.557557 kJ/mol
# GULP energy per Si atom -5605.564898 kJ/mol
# Density = 2.548955 g / cm^3
# Si number density = 25.547694 Si / 1000 Ang^3
#
#
#
# Elastic Constant Matrix: (Units=GPa)
#
#
# Indices 1 2 3 4 5 6 
#
# 1 149.5740 52.5366 69.4084 1.6171 0.0001 0.0000
# 2 52.5366 149.5740 69.4084 -1.6171 -0.0001 0.0000
# 3 69.4084 69.4084 295.9849 0.0000 0.0001 0.0000
# 4 1.6171 -1.6171 0.0000 36.3923 0.0000 -0.0001
# 5 0.0001 -0.0001 0.0001 0.0000 36.3923 1.6171
# 6 0.0000 0.0000 0.0000 -0.0001 1.6171 48.5187
#
#
#
# Elastic Compliance Matrix: (Units=1/GPa)
#
#
# Indices 1 2 3 4 5 6 
#
# 1 0.008109 -0.002211 -0.001383 -0.000459 0.000000 0.000000
# 2 -0.002211 0.008109 -0.001383 0.000459 0.000000 0.000000
# 3 -0.001383 -0.001383 0.004027 0.000000 0.000000 0.000000
# 4 -0.000459 0.000459 0.000000 0.027519 0.000000 0.000000
# 5 0.000000 0.000000 0.000000 0.000000 0.027519 -0.000917
# 6 0.000000 0.000000 0.000000 0.000000 -0.000917 0.020641
#
#
# Mechanical properties :
#
#
# Convention : Reuss Voigt Hill
#
# Bulk Modulus (GPa) = 97.17678 108.64886 102.91282
# Shear Modulus (GPa) = 45.74152 51.17930 48.46041
#
# Velocity S-wave (km/s) = 4.23595 4.48066 4.36002
# Velocity P-wave (km/s) = 7.87682 8.32998 8.10657
#
# Compressibility (1/GPa) = 0.01029052
#
# Stress axis : x y z
#
# Youngs Moduli (GPa) = 123.31769 123.31770 248.31267
#
# Poissons Ratio (x) = 0.27271 0.34342
# Poissons Ratio (y) = 0.27271 0.34342
# Poissons Ratio (z) = 0.17055 0.17055
#
# Static dielectric constant tensor:
#      x y z
#    x 2.110280 0.000000 0.000000 
#    y 0.000000 2.110280 0.000000 
#    z 0.000000 0.000000 1.957710 
# 
# From -- ./inp_files/321.got.cif
#   From: 2010.05.17/outbox.cif.g08.bks.cpg/sg167_1_cif.got.tgz:321.got - 2010.05.20 11:09:15.
