data_PCOD9579355
_publ_section_title
;
Structure prediction by ZEFSAII (Michael W. Deem and Ramdas Pophale) SiO2 
 PCOD9579355
Probable space group: R -3 M
;
_chemical_formula_sum "Si O2"
_cell_formula_units_Z 90
_cell_length_a 14.814780
_cell_length_b 14.814780
_cell_length_c 23.589046
_cell_angle_alpha 90.000000
_cell_angle_beta 90.000000
_cell_angle_gamma 120.000000
_cell_volume 4483.647094
_symmetry_space_group_name_H-M "R -3 M"
_symmetry_group_IT_number 166
_symmetry_cell_setting 'hexagonal'
loop_
_space_group_symop_operation_xyz
x,y,z
-y,x-y,z
-x+y,-x,z
x-y,-y,-z
-x,-x+y,-z
y,x,-z
-x,-y,-z
y,-x+y,-z
x-y,x,-z
-x+y,y,z
x,x-y,z
-y,-x,z
2/3+x,1/3+y,1/3+z
2/3-y,1/3+x-y,1/3+z
2/3-x+y,1/3-x,1/3+z
2/3+x-y,1/3-y,1/3-z
2/3-x,1/3-x+y,1/3-z
2/3+y,1/3+x,1/3-z
2/3-x,1/3-y,1/3-z
2/3+y,1/3-x+y,1/3-z
2/3+x-y,1/3+x,1/3-z
2/3-x+y,1/3+y,1/3+z
2/3+x,1/3+x-y,1/3+z
2/3-y,1/3-x,1/3+z
1/3+x,2/3+y,2/3+z
1/3-y,2/3+x-y,2/3+z
1/3-x+y,2/3-x,2/3+z
1/3+x-y,2/3-y,2/3-z
1/3-x,2/3-x+y,2/3-z
1/3+y,2/3+x,2/3-z
1/3-x,2/3-y,2/3-z
1/3+y,2/3-x+y,2/3-z
1/3+x-y,2/3+x,2/3-z
1/3-x+y,2/3+y,2/3+z
1/3+x,2/3+x-y,2/3+z
1/3-y,2/3-x,2/3+z
loop_
_atom_site_type_symbol
_atom_site_label
_atom_site_fract_x
_atom_site_fract_y
_atom_site_fract_z
Si Si1 0.782308 0.217693 0.810336
Si Si2 0.226355 0.773646 0.321648
Si Si3 0.735717 0.867859 0.669982
Si Si4 0.791897 0.583794 0.442887
Si Si5 0.539791 0.460209 0.445633
O O1 0.846147 0.333334 0.833334
O O2 0.768335 0.231665 0.745288
O O3 0.841235 0.158766 0.832429
O O4 0.166667 0.833334 0.333334
O O5 0.149778 0.657294 0.342065
O O6 0.666770 0.833385 0.610931
O O7 0.655862 0.827931 0.721879
O O8 0.666033 0.514809 0.443307
O O9 0.500000 0.500000 0.500000
#
# Coordination Sequence:
#
# PCOD9579355 Si02
#       5
#    18  18  18  18  18
#     4  12  23  42  73 106 138 182 230 293 361 434
#     4  12  25  44  70 104 145 181 235 294 355 421
#     4  12  27  46  73 105 144 191 234 290 361 425
#     4  12  25  48  71 102 143 186 243 284 357 425
#     4  12  29  46  75 105 144 191 243 299 358 421
#
# _framework density 20.072944
#
# number of rings (size 3 to 8) (size 9 to 14) (size 15 to 20)
#    0.000    0.000    4.000    5.800    5.600    0.000 
#    0.000    2.000    0.000    0.000    0.000    0.000 
#    0.000    0.000    0.000    0.000    0.000    0.000 
#
# Total GULP energy -167529.264871 kJ/mol
# GULP energy per Si atom -5584.308829 kJ/mol
# Density = 2.002726 g / cm^3
# Si number density = 20.072944 Si / 1000 Ang^3
#
#
#
# Elastic Constant Matrix: (Units=GPa)
#
#
# Indices 1 2 3 4 5 6 
#
# 1 180.4015 104.2893 6.1223 -6.2636 -0.0008 0.0000
# 2 104.2893 180.4015 6.1223 6.2636 0.0008 0.0000
# 3 6.1223 6.1223 25.6536 0.0000 0.0000 0.0000
# 4 -6.2636 6.2636 0.0000 34.3932 0.0000 0.0008
# 5 -0.0008 0.0008 0.0000 0.0000 34.3932 -6.2636
# 6 0.0000 0.0000 0.0000 0.0008 -6.2636 38.0561
#
#
#
# Elastic Compliance Matrix: (Units=1/GPa)
#
#
# Indices 1 2 3 4 5 6 
#
# 1 0.008547 -0.004998 -0.000847 0.002467 0.000000 0.000000
# 2 -0.004998 0.008547 -0.000847 -0.002467 0.000000 0.000000
# 3 -0.000847 -0.000847 0.039385 0.000000 0.000000 0.000000
# 4 0.002467 -0.002467 0.000000 0.029974 0.000000 -0.000001
# 5 0.000000 0.000000 0.000000 0.000000 0.029974 0.004933
# 6 0.000000 0.000000 0.000000 -0.000001 0.004933 0.027089
#
#
# Mechanical properties :
#
#
# Convention : Reuss Voigt Hill
#
# Bulk Modulus (GPa) = 23.20440 68.83605 46.02022
# Shear Modulus (GPa) = 29.19468 39.36334 34.27901
#
# Velocity S-wave (km/s) = 3.81784 4.43314 4.13694
# Velocity P-wave (km/s) = 5.56953 7.78274 6.76722
#
# Compressibility (1/GPa) = 0.04309528
#
# Stress axis : x y z
#
# Youngs Moduli (GPa) = 117.00364 117.00364 25.39026
#
# Poissons Ratio (x) = 0.58475 0.02151
# Poissons Ratio (y) = 0.58475 0.02151
# Poissons Ratio (z) = 0.09910 0.09910
#
# Static dielectric constant tensor:
#      x y z
#    x 1.694850 0.000000 0.000000 
#    y 0.000000 1.694850 0.000000 
#    z 0.000000 0.000000 1.686620 
# 
# From -- ./inp_files/9057.got.cif
#   From: 2010.05.17/outbox.cif.g08.bks.cpg/sg166_5_cif.got.tgz:9057.got - 2010.05.20 11:04:41.
