data_PCOD9579191
_publ_section_title
;
Structure prediction by ZEFSAII (Michael W. Deem and Ramdas Pophale) SiO2 
 PCOD9579191
Probable space group: R -3 M
;
_chemical_formula_sum "Si O2"
_cell_formula_units_Z 216
_cell_length_a 25.517057
_cell_length_b 25.517057
_cell_length_c 22.326956
_cell_angle_alpha 90.000000
_cell_angle_beta 90.000000
_cell_angle_gamma 120.000000
_cell_volume 12589.872029
_symmetry_space_group_name_H-M "R -3 M"
_symmetry_group_IT_number 166
_symmetry_cell_setting 'hexagonal'
loop_
_space_group_symop_operation_xyz
x,y,z
-y,x-y,z
-x+y,-x,z
x-y,-y,-z
-x,-x+y,-z
y,x,-z
-x,-y,-z
y,-x+y,-z
x-y,x,-z
-x+y,y,z
x,x-y,z
-y,-x,z
2/3+x,1/3+y,1/3+z
2/3-y,1/3+x-y,1/3+z
2/3-x+y,1/3-x,1/3+z
2/3+x-y,1/3-y,1/3-z
2/3-x,1/3-x+y,1/3-z
2/3+y,1/3+x,1/3-z
2/3-x,1/3-y,1/3-z
2/3+y,1/3-x+y,1/3-z
2/3+x-y,1/3+x,1/3-z
2/3-x+y,1/3+y,1/3+z
2/3+x,1/3+x-y,1/3+z
2/3-y,1/3-x,1/3+z
1/3+x,2/3+y,2/3+z
1/3-y,2/3+x-y,2/3+z
1/3-x+y,2/3-x,2/3+z
1/3+x-y,2/3-y,2/3-z
1/3-x,2/3-x+y,2/3-z
1/3+y,2/3+x,2/3-z
1/3-x,2/3-y,2/3-z
1/3+y,2/3-x+y,2/3-z
1/3+x-y,2/3+x,2/3-z
1/3-x+y,2/3+y,2/3+z
1/3+x,2/3+x-y,2/3+z
1/3-y,2/3-x,2/3+z
loop_
_atom_site_type_symbol
_atom_site_label
_atom_site_fract_x
_atom_site_fract_y
_atom_site_fract_z
Si Si1 0.898156 0.225813 0.877237
Si Si2 0.585374 0.851847 0.660291
Si Si3 0.146874 0.732875 0.301036
Si Si4 0.651184 0.884227 0.903530
Si Si5 0.290676 0.916059 0.417783
Si Si6 0.369769 0.861797 0.225660
O O1 0.841016 0.158985 0.868815
O O2 0.941686 0.239611 0.821020
O O3 0.869295 0.269147 0.879386
O O4 0.928742 0.225519 0.939974
O O5 0.566550 0.783275 0.646941
O O6 0.530964 0.864297 0.666667
O O7 0.623171 0.870810 0.721497
O O8 0.202082 0.797919 0.280676
O O9 0.140339 0.732922 0.372469
O O10 0.083194 0.721844 0.273054
O O11 0.156167 0.678989 0.278048
O O12 0.622754 0.811377 0.914246
O O13 0.666667 0.894880 0.833334
O O14 0.616055 0.919650 0.921217
O O15 0.426296 0.852591 0.238645
O O16 0.333334 0.826620 0.166667
#
# Coordination Sequence:
#
# PCOD9579191 Si02
#       6
#    36  36  36  36  36  36
#     4  10  20  34  52  79 108 138 183 227 273 331
#     4  10  21  34  52  75 106 142 178 220 263 319
#     4  11  23  37  54  81 110 141 187 240 282 331
#     4  10  22  36  51  78 113 146 182 217 260 332
#     4  11  21  33  56  77 107 145 177 221 275 327
#     4  11  22  36  55  79 109 147 187 236 291 341
#
# _framework density 17.156647
#
# number of rings (size 3 to 8) (size 9 to 14) (size 15 to 20)
#    0.000    1.500    1.667    4.500    7.000    2.000 
#    0.000    0.000    0.000    3.167    0.000    0.000 
#    0.000    0.000    0.000    1.833    0.000    0.000 
#
# Total GULP energy -401505.567535 kJ/mol
# GULP energy per Si atom -5576.466216 kJ/mol
# Density = 1.711760 g / cm^3
# Si number density = 17.156647 Si / 1000 Ang^3
#
#
#
# Elastic Constant Matrix: (Units=GPa)
#
#
# Indices 1 2 3 4 5 6 
#
# 1 91.6522 52.9920 19.6669 2.2950 0.0003 0.0000
# 2 52.9920 91.6522 19.6669 -2.2950 -0.0003 0.0000
# 3 19.6669 19.6669 89.7710 0.0000 0.0000 0.0000
# 4 2.2950 -2.2950 0.0000 20.6771 0.0000 -0.0003
# 5 0.0003 -0.0003 0.0000 0.0000 20.6771 2.2950
# 6 0.0000 0.0000 0.0000 -0.0003 2.2950 19.3301
#
#
#
# Elastic Compliance Matrix: (Units=1/GPa)
#
#
# Indices 1 2 3 4 5 6 
#
# 1 0.016782 -0.009430 -0.001611 -0.002909 0.000000 0.000000
# 2 -0.009430 0.016782 -0.001611 0.002909 0.000000 0.000000
# 3 -0.001611 -0.001611 0.011845 0.000000 0.000000 0.000000
# 4 -0.002909 0.002909 0.000000 0.049008 0.000000 0.000001
# 5 0.000000 0.000000 0.000000 0.000000 0.049008 -0.005819
# 6 0.000000 0.000000 0.000000 0.000001 -0.005819 0.052424
#
#
# Mechanical properties :
#
#
# Convention : Reuss Voigt Hill
#
# Bulk Modulus (GPa) = 49.73668 50.85855 50.29761
# Shear Modulus (GPa) = 21.94391 24.18683 23.06537
#
# Velocity S-wave (km/s) = 3.58024 3.75876 3.67058
# Velocity P-wave (km/s) = 6.79290 6.96747 6.88074
#
# Compressibility (1/GPa) = 0.02010589
#
# Stress axis : x y z
#
# Youngs Moduli (GPa) = 59.58883 59.58883 84.42287
#
# Poissons Ratio (x) = 0.56193 0.13597
# Poissons Ratio (y) = 0.56193 0.13597
# Poissons Ratio (z) = 0.09597 0.09597
#
# Static dielectric constant tensor:
#      x y z
#    x 1.590740 0.000000 0.000000 
#    y 0.000000 1.590740 0.000000 
#    z 0.000000 0.000000 1.612100 
# 
# From -- ./inp_files/8426.got.cif
#   From: 2010.05.17/outbox.cif.g08.bks.cpg/sg166_5_cif.got.tgz:8426.got - 2010.05.20 11:04:41.
