data_PCOD9579722
_publ_section_title
;
Structure prediction by ZEFSAII (Michael W. Deem and Ramdas Pophale) SiO2 
 PCOD9579722
Probable space group: R -3 C 
;
_chemical_formula_sum "Si O2"
_cell_formula_units_Z 138
_cell_length_a 18.124381
_cell_length_b 18.124381
_cell_length_c 21.792552
_cell_angle_alpha 90.000000
_cell_angle_beta 90.000000
_cell_angle_gamma 120.000000
_cell_volume 6199.620259
_symmetry_space_group_name_H-M "R -3 C "
_symmetry_group_IT_number 167
_symmetry_cell_setting 'hexagonal'
loop_
_space_group_symop_operation_xyz
x,y,z
-y,x-y,z
-x+y,-x,z
x-y,-y,1/2-z
-x,-x+y,1/2-z
y,x,1/2-z
-x,-y,-z
y,-x+y,-z
x-y,x,-z
-x+y,y,1/2+z
x,x-y,1/2+z
-y,-x,1/2+z
2/3+x,1/3+y,1/3+z
2/3-y,1/3+x-y,1/3+z
2/3-x+y,1/3-x,1/3+z
2/3+x-y,1/3-y,5/6-z
2/3-x,1/3-x+y,5/6-z
2/3+y,1/3+x,5/6-z
2/3-x,1/3-y,1/3-z
2/3+y,1/3-x+y,1/3-z
2/3+x-y,1/3+x,1/3-z
2/3-x+y,1/3+y,5/6+z
2/3+x,1/3+x-y,5/6+z
2/3-y,1/3-x,5/6+z
1/3+x,2/3+y,2/3+z
1/3-y,2/3+x-y,2/3+z
1/3-x+y,2/3-x,2/3+z
1/3+x-y,2/3-y,1/6-z
1/3-x,2/3-x+y,1/6-z
1/3+y,2/3+x,1/6-z
1/3-x,2/3-y,2/3-z
1/3+y,2/3-x+y,2/3-z
1/3+x-y,2/3+x,2/3-z
1/3-x+y,2/3+y,1/6+z
1/3+x,2/3+x-y,1/6+z
1/3-y,2/3-x,1/6+z
loop_
_atom_site_type_symbol
_atom_site_label
_atom_site_fract_x
_atom_site_fract_y
_atom_site_fract_z
Si Si1 0.333334 0.666667 0.593210
Si Si2 0.503663 0.426455 0.108878
Si Si3 0.228031 0.468668 0.079857
Si Si4 0.672090 0.080218 0.822289
Si Si5 0.666667 0.070467 0.583334
O O1 0.333335 0.666668 0.666667
O O2 0.275885 0.569083 0.573773
O O3 0.476096 0.333334 0.083334
O O4 0.530419 0.431250 0.179548
O O5 0.419503 0.434629 0.113358
O O6 0.582493 0.504229 0.074563
O O7 0.149486 0.451596 0.123403
O O8 0.271681 0.422301 0.113981
O O9 0.637912 0.991129 0.857901
#
# Coordination Sequence:
#
# PCOD9579722 Si02
#       5
#    12  36  36  36  18
#     4  12  24  42  76 110 148 207 267 319 383 466
#     4  12  31  50  75 112 160 208 255 326 407 479
#     4  12  25  48  75 115 157 204 268 326 388 475
#     4  12  24  47  81 113 152 205 264 327 393 466
#     4  12  28  50  76 112 154 204 260 324 406 470
#
# _framework density 22.259428
#
# number of rings (size 3 to 8) (size 9 to 14) (size 15 to 20)
#    0.000    0.000    7.826    0.000    7.304    1.043 
#    0.783    0.000    0.000    0.000    0.000    0.000 
#    0.000    0.000    0.000    0.000    0.000    0.000 
#
# Total GULP energy -257892.653059 kJ/mol
# GULP energy per Si atom -5606.362023 kJ/mol
# Density = 2.220876 g / cm^3
# Si number density = 22.259428 Si / 1000 Ang^3
#
#
#
# Elastic Constant Matrix: (Units=GPa)
#
#
# Indices 1 2 3 4 5 6 
#
# 1 142.0608 52.4714 51.0650 -6.1084 0.0000 0.0000
# 2 52.4714 142.0590 51.0651 6.1083 0.0000 0.0000
# 3 51.0650 51.0651 112.4936 -0.0001 0.0000 0.0000
# 4 -6.1084 6.1083 -0.0001 31.6991 0.0000 0.0000
# 5 0.0000 0.0000 0.0000 0.0000 31.6990 -6.1085
# 6 0.0000 0.0000 0.0000 0.0000 -6.1085 44.7944
#
#
#
# Elastic Compliance Matrix: (Units=1/GPa)
#
#
# Indices 1 2 3 4 5 6 
#
# 1 0.009106 -0.002357 -0.003064 0.002209 0.000000 0.000000
# 2 -0.002357 0.009106 -0.003064 -0.002209 0.000000 0.000000
# 3 -0.003064 -0.003064 0.011671 0.000000 0.000000 0.000000
# 4 0.002209 -0.002209 0.000000 0.032398 0.000000 0.000000
# 5 0.000000 0.000000 0.000000 0.000000 0.032398 0.004418
# 6 0.000000 0.000000 0.000000 0.000000 0.004418 0.022927
#
#
# Mechanical properties :
#
#
# Convention : Reuss Voigt Hill
#
# Bulk Modulus (GPa) = 77.43371 78.42405 77.92888
# Shear Modulus (GPa) = 36.00244 37.77263 36.88754
#
# Velocity S-wave (km/s) = 4.02606 4.12385 4.07525
# Velocity P-wave (km/s) = 7.51496 7.61467 7.56498
#
# Compressibility (1/GPa) = 0.01291427
#
# Stress axis : x y z
#
# Youngs Moduli (GPa) = 109.81642 109.81470 85.68405
#
# Poissons Ratio (x) = 0.25885 0.26250
# Poissons Ratio (y) = 0.25886 0.26251
# Poissons Ratio (z) = 0.33643 0.33643
#
# Static dielectric constant tensor:
#      x y z
#    x 1.908430 0.000000 0.000000 
#    y 0.000000 1.908340 -0.000030 
#    z 0.000000 -0.000030 1.828660 
# 
# From -- ./inp_files/6084.got.cif
#   From: 2010.05.17/outbox.cif.g08.bks.cpg/sg167_4_cif.got.tgz:6084.got - 2010.05.20 11:09:15.
