data_PCOD9579146
_publ_section_title
;
Structure prediction by ZEFSAII (Michael W. Deem and Ramdas Pophale) SiO2 
 PCOD9579146
Probable space group: R -3 M
;
_chemical_formula_sum "Si O2"
_cell_formula_units_Z 126
_cell_length_a 19.842857
_cell_length_b 19.842857
_cell_length_c 17.746115
_cell_angle_alpha 90.000000
_cell_angle_beta 90.000000
_cell_angle_gamma 120.000000
_cell_volume 6051.211443
_symmetry_space_group_name_H-M "R -3 M"
_symmetry_group_IT_number 166
_symmetry_cell_setting 'hexagonal'
loop_
_space_group_symop_operation_xyz
x,y,z
-y,x-y,z
-x+y,-x,z
x-y,-y,-z
-x,-x+y,-z
y,x,-z
-x,-y,-z
y,-x+y,-z
x-y,x,-z
-x+y,y,z
x,x-y,z
-y,-x,z
2/3+x,1/3+y,1/3+z
2/3-y,1/3+x-y,1/3+z
2/3-x+y,1/3-x,1/3+z
2/3+x-y,1/3-y,1/3-z
2/3-x,1/3-x+y,1/3-z
2/3+y,1/3+x,1/3-z
2/3-x,1/3-y,1/3-z
2/3+y,1/3-x+y,1/3-z
2/3+x-y,1/3+x,1/3-z
2/3-x+y,1/3+y,1/3+z
2/3+x,1/3+x-y,1/3+z
2/3-y,1/3-x,1/3+z
1/3+x,2/3+y,2/3+z
1/3-y,2/3+x-y,2/3+z
1/3-x+y,2/3-x,2/3+z
1/3+x-y,2/3-y,2/3-z
1/3-x,2/3-x+y,2/3-z
1/3+y,2/3+x,2/3-z
1/3-x,2/3-y,2/3-z
1/3+y,2/3-x+y,2/3-z
1/3+x-y,2/3+x,2/3-z
1/3-x+y,2/3+y,2/3+z
1/3+x,2/3+x-y,2/3+z
1/3-y,2/3-x,2/3+z
loop_
_atom_site_type_symbol
_atom_site_label
_atom_site_fract_x
_atom_site_fract_y
_atom_site_fract_z
Si Si1 0.503279 0.333334 0.833334
Si Si2 0.159274 0.003081 0.810961
Si Si3 0.469235 0.100516 0.674393
Si Si4 0.278844 0.397621 0.729338
O O1 0.511375 0.255688 0.833475
O O2 0.457741 0.333178 0.757495
O O3 0.159338 0.079669 0.838148
O O4 0.180875 0.011088 0.723084
O O5 0.219478 0.986876 0.858272
O O6 0.073801 0.926200 0.818925
O O7 0.547995 0.095989 0.681053
O O8 0.407519 0.018914 0.636879
O O9 0.196141 0.392282 0.735487
O O10 0.333334 0.458735 0.666667
#
# Coordination Sequence:
#
# PCOD9579146 Si02
#       4
#    18  36  36  36
#     4  10  19  34  58  86 119 154 192 238 288 340
#     4  10  19  33  56  86 117 147 185 236 292 348
#     4   9  19  35  54  79 115 153 188 227 277 339
#     4  10  20  36  57  80 110 151 194 239 289 339
#
# _framework density 20.822277
#
# number of rings (size 3 to 8) (size 9 to 14) (size 15 to 20)
#    0.000    2.286    0.000    3.000    0.000    3.429 
#    5.143    2.857    0.000    6.286    0.000    0.000 
#    0.000    0.000    0.000    0.000    0.000    0.000 
#
# Total GULP energy -233975.240544 kJ/mol
# GULP energy per Si atom -5570.839061 kJ/mol
# Density = 2.077488 g / cm^3
# Si number density = 20.822277 Si / 1000 Ang^3
#
#
#
# Elastic Constant Matrix: (Units=GPa)
#
#
# Indices 1 2 3 4 5 6 
#
# 1 165.6656 -46.2857 48.5473 18.4709 -0.0007 0.0000
# 2 -46.2857 165.6656 48.5473 -18.4709 0.0007 0.0000
# 3 48.5473 48.5473 173.9315 0.0000 0.0000 0.0000
# 4 18.4709 -18.4709 0.0000 29.7386 0.0000 0.0007
# 5 -0.0007 0.0007 0.0000 0.0000 29.7386 18.4709
# 6 0.0000 0.0000 0.0000 0.0007 18.4709 105.9756
#
#
#
# Elastic Compliance Matrix: (Units=1/GPa)
#
#
# Indices 1 2 3 4 5 6 
#
# 1 0.008064 0.002773 -0.003025 -0.003286 0.000000 0.000000
# 2 0.002773 0.008064 -0.003025 0.003286 0.000000 0.000000
# 3 -0.003025 -0.003025 0.007438 0.000000 0.000000 0.000000
# 4 -0.003286 0.003286 0.000000 0.037708 0.000000 0.000000
# 5 0.000000 0.000000 0.000000 0.000000 0.037708 -0.006572
# 6 0.000000 0.000000 0.000000 0.000000 -0.006572 0.010582
#
#
# Mechanical properties :
#
#
# Convention : Reuss Voigt Hill
#
# Bulk Modulus (GPa) = 58.78053 67.43116 63.10584
# Shear Modulus (GPa) = 41.05507 63.38750 52.22129
#
# Velocity S-wave (km/s) = 4.44519 5.52343 5.01338
# Velocity P-wave (km/s) = 7.39170 8.55173 7.99279
#
# Compressibility (1/GPa) = 0.01701244
#
# Stress axis : x y z
#
# Youngs Moduli (GPa) = 124.01169 124.01169 134.44684
#
# Poissons Ratio (x) = -0.34388 0.40666
# Poissons Ratio (y) = -0.34388 0.40666
# Poissons Ratio (z) = 0.37510 0.37510
#
# Static dielectric constant tensor:
#      x y z
#    x 1.754260 0.000000 0.000000 
#    y 0.000000 1.754260 0.000000 
#    z 0.000000 0.000000 1.780390 
# 
# From -- ./inp_files/4907.got.cif
#   From: 2010.05.17/outbox.cif.g08.bks.cpg/sg166_3_cif.got.tgz:4907.got - 2010.05.20 11:04:41.
