data_PCOD9579565
_publ_section_title
;
Structure prediction by ZEFSAII (Michael W. Deem and Ramdas Pophale) SiO2 
 PCOD9579565
Probable space group: R -3 C 
;
_chemical_formula_sum "Si O2"
_cell_formula_units_Z 162
_cell_length_a 19.337390
_cell_length_b 19.337390
_cell_length_c 21.112510
_cell_angle_alpha 90.000000
_cell_angle_beta 90.000000
_cell_angle_gamma 120.000000
_cell_volume 6837.009958
_symmetry_space_group_name_H-M "R -3 C "
_symmetry_group_IT_number 167
_symmetry_cell_setting 'hexagonal'
loop_
_space_group_symop_operation_xyz
x,y,z
-y,x-y,z
-x+y,-x,z
x-y,-y,1/2-z
-x,-x+y,1/2-z
y,x,1/2-z
-x,-y,-z
y,-x+y,-z
x-y,x,-z
-x+y,y,1/2+z
x,x-y,1/2+z
-y,-x,1/2+z
2/3+x,1/3+y,1/3+z
2/3-y,1/3+x-y,1/3+z
2/3-x+y,1/3-x,1/3+z
2/3+x-y,1/3-y,5/6-z
2/3-x,1/3-x+y,5/6-z
2/3+y,1/3+x,5/6-z
2/3-x,1/3-y,1/3-z
2/3+y,1/3-x+y,1/3-z
2/3+x-y,1/3+x,1/3-z
2/3-x+y,1/3+y,5/6+z
2/3+x,1/3+x-y,5/6+z
2/3-y,1/3-x,5/6+z
1/3+x,2/3+y,2/3+z
1/3-y,2/3+x-y,2/3+z
1/3-x+y,2/3-x,2/3+z
1/3+x-y,2/3-y,1/6-z
1/3-x,2/3-x+y,1/6-z
1/3+y,2/3+x,1/6-z
1/3-x,2/3-y,2/3-z
1/3+y,2/3-x+y,2/3-z
1/3+x-y,2/3+x,2/3-z
1/3-x+y,2/3+y,1/6+z
1/3+x,2/3+x-y,1/6+z
1/3-y,2/3-x,1/6+z
loop_
_atom_site_type_symbol
_atom_site_label
_atom_site_fract_x
_atom_site_fract_y
_atom_site_fract_z
Si Si1 0.227016 0.968275 0.312728
Si Si2 0.789689 0.911136 0.148241
Si Si3 0.577133 0.333334 0.583334
Si Si4 0.200386 0.865571 0.419965
Si Si5 0.854009 0.433380 0.829949
O O1 0.251591 0.940237 0.375208
O O2 0.156353 0.882265 0.286292
O O3 0.281269 0.000000 0.250000
O O4 0.209432 0.038383 0.333885
O O5 0.715854 0.908109 0.184059
O O6 0.780865 0.912306 0.073761
O O7 0.863684 0.985504 0.184176
O O8 0.592217 0.258884 0.583334
O O9 0.126121 0.872577 0.448107
O O10 0.803098 0.338702 0.821614
#
# Coordination Sequence:
#
# PCOD9579565 Si02
#       5
#    36  36  18  36  36
#     4   9  19  39  73  96 135 185 236 296 363 419
#     4  11  23  44  71 106 148 186 250 300 363 450
#     4  10  24  38  70 110 146 186 236 296 366 432
#     4  10  21  43  70  96 137 193 238 304 359 432
#     4  12  27  44  69 103 148 193 242 305 381 452
#
# _framework density 23.694569000000001
#
# number of rings (size 3 to 8) (size 9 to 14) (size 15 to 20)
#    0.222    1.333    2.222    2.889    3.111    5.333 
#    0.000   11.111    0.000    0.000    0.000    0.000 
#    0.000    0.000    0.000    0.000    0.000    0.000 
#
# Total GULP energy -301053.777307 kJ/mol
# GULP energy per Si atom -5575.069950 kJ/mol
# Density = 2.364064 g / cm^3
# Si number density = 23.694569 Si / 1000 Ang^3
#
#
#
# Elastic Constant Matrix: (Units=GPa)
#
#
# Indices 1 2 3 4 5 6 
#
# 1 57.8075 52.6815 36.5483 0.0450 -0.0002 0.0000
# 2 52.6815 57.8075 36.5483 -0.0450 0.0002 0.0000
# 3 36.5483 36.5483 165.1534 0.0000 0.0000 0.0000
# 4 0.0450 -0.0450 0.0000 35.7103 0.0000 0.0002
# 5 -0.0002 0.0002 0.0000 0.0000 35.7103 0.0450
# 6 0.0000 0.0000 0.0000 0.0002 0.0450 2.5630
#
#
#
# Elastic Compliance Matrix: (Units=1/GPa)
#
#
# Indices 1 2 3 4 5 6 
#
# 1 0.102845 -0.092242 -0.002346 -0.000246 0.000001 0.000000
# 2 -0.092242 0.102845 -0.002346 0.000246 -0.000001 0.000000
# 3 -0.002346 -0.002346 0.007094 0.000000 0.000000 0.000000
# 4 -0.000246 0.000246 0.000000 0.028004 0.000000 -0.000002
# 5 0.000001 -0.000001 0.000000 0.000000 0.028004 -0.000491
# 6 0.000000 0.000000 0.000000 -0.000002 -0.000491 0.390175
#
#
# Mechanical properties :
#
#
# Convention : Reuss Voigt Hill
#
# Bulk Modulus (GPa) = 52.87149 59.14717 56.00933
# Shear Modulus (GPa) = 5.81977 25.12940 15.47459
#
# Velocity S-wave (km/s) = 1.56891 3.26015 2.55833
# Velocity P-wave (km/s) = 5.06401 6.26003 5.69351
#
# Compressibility (1/GPa) = 0.01891378
#
# Stress axis : x y z
#
# Youngs Moduli (GPa) = 9.72336 9.72336 140.97403
#
# Poissons Ratio (x) = 0.89690 0.33079
# Poissons Ratio (y) = 0.89690 0.33079
# Poissons Ratio (z) = 0.02282 0.02282
#
# Static dielectric constant tensor:
#      x y z
#    x 1.934990 0.000000 0.000000 
#    y 0.000000 1.934990 0.000000 
#    z 0.000000 0.000000 1.974810 
# 
# From -- ./inp_files/4424.got.cif
#   From: 2010.05.17/outbox.cif.g08.bks.cpg/sg167_3_cif.got.tgz:4424.got - 2010.05.20 11:09:15.
