data_PCOD9579061
_publ_section_title
;
Structure prediction by ZEFSAII (Michael W. Deem and Ramdas Pophale) SiO2 
 PCOD9579061
Probable space group: R -3 M
;
_chemical_formula_sum "Si O2"
_cell_formula_units_Z 216
_cell_length_a 27.153517
_cell_length_b 27.153517
_cell_length_c 18.766019
_cell_angle_alpha 90.000000
_cell_angle_beta 90.000000
_cell_angle_gamma 120.000000
_cell_volume 11982.707566
_symmetry_space_group_name_H-M "R -3 M"
_symmetry_group_IT_number 166
_symmetry_cell_setting 'hexagonal'
loop_
_space_group_symop_operation_xyz
x,y,z
-y,x-y,z
-x+y,-x,z
x-y,-y,-z
-x,-x+y,-z
y,x,-z
-x,-y,-z
y,-x+y,-z
x-y,x,-z
-x+y,y,z
x,x-y,z
-y,-x,z
2/3+x,1/3+y,1/3+z
2/3-y,1/3+x-y,1/3+z
2/3-x+y,1/3-x,1/3+z
2/3+x-y,1/3-y,1/3-z
2/3-x,1/3-x+y,1/3-z
2/3+y,1/3+x,1/3-z
2/3-x,1/3-y,1/3-z
2/3+y,1/3-x+y,1/3-z
2/3+x-y,1/3+x,1/3-z
2/3-x+y,1/3+y,1/3+z
2/3+x,1/3+x-y,1/3+z
2/3-y,1/3-x,1/3+z
1/3+x,2/3+y,2/3+z
1/3-y,2/3+x-y,2/3+z
1/3-x+y,2/3-x,2/3+z
1/3+x-y,2/3-y,2/3-z
1/3-x,2/3-x+y,2/3-z
1/3+y,2/3+x,2/3-z
1/3-x,2/3-y,2/3-z
1/3+y,2/3-x+y,2/3-z
1/3+x-y,2/3+x,2/3-z
1/3-x+y,2/3+y,2/3+z
1/3+x,2/3+x-y,2/3+z
1/3-y,2/3-x,2/3+z
loop_
_atom_site_type_symbol
_atom_site_label
_atom_site_fract_x
_atom_site_fract_y
_atom_site_fract_z
Si Si1 0.580817 0.849257 0.581782
Si Si2 0.551096 0.984902 0.887211
Si Si3 0.211555 0.162449 0.138380
Si Si4 0.062225 0.241515 0.362618
Si Si5 0.445441 0.280167 0.030566
Si Si6 0.217845 0.318241 0.943399
O O1 0.575336 0.787668 0.576348
O O2 0.621350 0.887958 0.517195
O O3 0.520244 0.844475 0.570752
O O4 0.611520 0.875616 0.655836
O O5 0.496062 0.992124 0.877065
O O6 0.599987 0.047277 0.910460
O O7 0.535361 0.942831 0.954584
O O8 0.204028 0.102014 0.114257
O O9 0.197970 0.157833 0.221872
O O10 0.278168 0.209009 0.124022
O O11 0.114805 0.229610 0.371303
O O12 0.000373 0.187188 0.353789
O O13 0.444743 0.222372 0.007590
O O14 0.380896 0.268407 0.039690
O O15 0.163870 0.327740 0.938542
#
# Coordination Sequence:
#
# PCOD9579061 Si02
#       6
#    36  36  36  36  36  36
#     4  10  18  32  51  71  95 123 160 204 247 285
#     4   8  15  28  47  69  92 119 151 195 241 283
#     4  10  19  32  48  67  94 131 166 193 234 290
#     4   9  16  30  50  71  96 122 156 198 239 287
#     4  10  19  32  49  68  94 130 164 195 235 285
#     4   9  19  33  46  63  93 126 158 201 243 282
#
# _framework density 18.025977000000001
#
# number of rings (size 3 to 8) (size 9 to 14) (size 15 to 20)
#    0.000    2.667    1.667    2.000    0.000    2.000 
#    6.000    0.833    0.000    0.667    0.000    0.000 
#    0.000    4.000    0.000    0.000    0.000   19.667 
#
# Total GULP energy -400970.389263 kJ/mol
# GULP energy per Si atom -5569.033184 kJ/mol
# Density = 1.798495 g / cm^3
# Si number density = 18.025977 Si / 1000 Ang^3
#
#
#
# Elastic Constant Matrix: (Units=GPa)
#
#
# Indices 1 2 3 4 5 6 
#
# 1 75.3198 28.5354 12.7001 0.4405 0.0000 0.0000
# 2 28.5354 75.3198 12.7001 -0.4405 0.0000 0.0000
# 3 12.7001 12.7001 27.1015 0.0000 0.0000 0.0000
# 4 0.4405 -0.4405 0.0000 17.8553 0.0000 0.0000
# 5 0.0000 0.0000 0.0000 0.0000 17.8553 0.4405
# 6 0.0000 0.0000 0.0000 0.0000 0.4405 23.3922
#
#
#
# Elastic Compliance Matrix: (Units=1/GPa)
#
#
# Indices 1 2 3 4 5 6 
#
# 1 0.016130 -0.005255 -0.005096 -0.000528 0.000000 0.000000
# 2 -0.005255 0.016130 -0.005096 0.000528 0.000000 0.000000
# 3 -0.005096 -0.005096 0.041675 0.000000 0.000000 0.000000
# 4 -0.000528 0.000528 0.000000 0.056032 0.000000 0.000000
# 5 0.000000 0.000000 0.000000 0.000000 0.056032 -0.001055
# 6 0.000000 0.000000 0.000000 0.000000 -0.001055 0.042769
#
#
# Mechanical properties :
#
#
# Convention : Reuss Voigt Hill
#
# Bulk Modulus (GPa) = 23.23418 31.73473 27.48446
# Shear Modulus (GPa) = 18.24760 20.07424 19.16092
#
# Velocity S-wave (km/s) = 3.18511 3.34073 3.26385
# Velocity P-wave (km/s) = 5.14236 5.70297 5.42990
#
# Compressibility (1/GPa) = 0.04304003
#
# Stress axis : x y z
#
# Youngs Moduli (GPa) = 61.99672 61.99672 23.99535
#
# Poissons Ratio (x) = 0.32577 0.12229
# Poissons Ratio (y) = 0.32577 0.12229
# Poissons Ratio (z) = 0.31595 0.31595
#
# Static dielectric constant tensor:
#      x y z
#    x 1.645220 0.000000 0.000000 
#    y 0.000000 1.645220 0.000000 
#    z 0.000000 0.000000 1.651590 
# 
# From -- ./inp_files/7116.got.cif
#   From: 2010.05.17/outbox.cif.g08.bks.cpg/sg166_4_cif.got.tgz:7116.got - 2010.05.20 11:04:41.
