data_PCOD9580635
_publ_section_title
;
Structure prediction by ZEFSAII (Michael W. Deem and Ramdas Pophale) SiO2 
 PCOD9580635
Probable space group: P 62
;
_chemical_formula_sum "Si O2"
_cell_formula_units_Z 33
_cell_length_a 20.157214
_cell_length_b 20.157214
_cell_length_c 5.124910
_cell_angle_alpha 90.000000
_cell_angle_beta 90.000000
_cell_angle_gamma 120.000000
_cell_volume 1803.341129
_symmetry_space_group_name_H-M "P 62"
_symmetry_group_IT_number 171
_symmetry_cell_setting 'hexagonal'
loop_
_space_group_symop_operation_xyz
x,y,z
x-y,x,1/3+z
-y,x-y,2/3+z
-x,-y,z
-x+y,-x,1/3+z
y,-x+y,2/3+z
loop_
_atom_site_type_symbol
_atom_site_label
_atom_site_fract_x
_atom_site_fract_y
_atom_site_fract_z
Si Si1 0.119337 0.716431 0.242440
Si Si2 0.151809 0.418589 0.759427
Si Si3 0.263399 0.598935 0.874242
Si Si4 0.141610 0.640962 0.730332
Si Si5 0.000000 0.500000 0.466215
Si Si6 0.389856 0.337407 0.918597
O O1 0.176174 0.801673 0.144696
O O2 0.149197 0.702679 0.517147
O O3 0.029793 0.686806 0.281777
O O4 0.127040 0.664298 0.015572
O O5 0.212222 0.508018 0.831304
O O6 0.115500 0.404761 0.472604
O O7 0.084446 0.392927 0.966827
O O8 0.351498 0.627609 0.800717
O O9 0.215072 0.630307 0.715485
O O10 0.067421 0.562873 0.642755
O O11 0.033993 0.458106 0.293961
#
# Coordination Sequence:
#
# PCOD9580635 Si02
#       6
#     6   6   6   6   3   6
#     4  11  24  42  58  82 114 143 192 248 292 345
#     4  12  25  41  60  83 113 152 198 242 298 355
#     4  12  26  37  53  78 112 154 197 252 311 348
#     4  11  23  37  55  80 106 150 187 250 296 340
#     4  10  22  38  60  80 110 142 200 240 282 352
#     4  11  25  38  62  84 108 152 192 240 297 346
#
# _framework density 18.299368000000001
#
# number of rings (size 3 to 8) (size 9 to 14) (size 15 to 20)
#    0.000    0.727    3.636    4.364    7.636    1.455 
#    0.000    0.000    0.000    0.000    0.000    0.000 
#    0.000    0.000    0.000    8.182    0.000    0.364 
#
# Total GULP energy -184291.934869 kJ/mol
# GULP energy per Si atom -5584.604087 kJ/mol
# Density = 1.825772 g / cm^3
# Si number density = 18.299368 Si / 1000 Ang^3
#
#
#
# Elastic Constant Matrix: (Units=GPa)
#
#
# Indices 1 2 3 4 5 6 
#
# 1 54.6264 14.3401 -3.3617 0.0000 0.0000 0.0000
# 2 14.3401 54.6264 -3.3617 0.0000 0.0000 0.0000
# 3 -3.3617 -3.3617 50.5951 0.0000 0.0000 0.0000
# 4 0.0000 0.0000 0.0000 23.3921 0.0000 0.0000
# 5 0.0000 0.0000 0.0000 0.0000 23.3921 0.0000
# 6 0.0000 0.0000 0.0000 0.0000 0.0000 20.1431
#
#
#
# Elastic Compliance Matrix: (Units=1/GPa)
#
#
# Indices 1 2 3 4 5 6 
#
# 1 0.019708 -0.005114 0.000970 0.000000 0.000000 0.000000
# 2 -0.005114 0.019708 0.000970 0.000000 0.000000 0.000000
# 3 0.000970 0.000970 0.019894 0.000000 0.000000 0.000000
# 4 0.000000 0.000000 0.000000 0.042749 0.000000 0.000000
# 5 0.000000 0.000000 0.000000 0.000000 0.042749 0.000000
# 6 0.000000 0.000000 0.000000 0.000000 0.000000 0.049645
#
#
# Mechanical properties :
#
#
# Convention : Reuss Voigt Hill
#
# Bulk Modulus (GPa) = 18.88178 19.45346 19.16762
# Shear Modulus (GPa) = 22.88781 23.53421 23.21101
#
# Velocity S-wave (km/s) = 3.54042 3.59007 3.56533
# Velocity P-wave (km/s) = 5.20129 5.27622 5.23889
#
# Compressibility (1/GPa) = 0.05296110
#
# Stress axis : x y z
#
# Youngs Moduli (GPa) = 50.73994 50.73994 50.26734
#
# Poissons Ratio (x) = 0.25948 -0.04874
# Poissons Ratio (y) = 0.25948 -0.04874
# Poissons Ratio (z) = -0.04920 -0.04920
#
# Static dielectric constant tensor:
#      x y z
#    x 1.672970 0.000000 0.000000 
#    y 0.000000 1.672970 0.000000 
#    z 0.000000 0.000000 1.697060 
# 
# From -- ./inp_files/368.got.cif
#   From: 2010.05.17/outbox.cif.g08.bks.cpg/sg171_1_cif.got.tgz:368.got - 2010.05.20 11:16:09.
