data_PCOD9580504
_publ_section_title
;
Structure prediction by ZEFSAII (Michael W. Deem and Ramdas Pophale) SiO2 
 PCOD9580504
Probable space group: P 62
;
_chemical_formula_sum "Si O2"
_cell_formula_units_Z 36
_cell_length_a 8.509516
_cell_length_b 8.509516
_cell_length_c 28.986832
_cell_angle_alpha 90.000000
_cell_angle_beta 90.000000
_cell_angle_gamma 120.000000
_cell_volume 1817.779091
_symmetry_space_group_name_H-M "P 62"
_symmetry_group_IT_number 171
_symmetry_cell_setting 'hexagonal'
loop_
_space_group_symop_operation_xyz
x,y,z
x-y,x,1/3+z
-y,x-y,2/3+z
-x,-y,z
-x+y,-x,1/3+z
y,-x+y,2/3+z
loop_
_atom_site_type_symbol
_atom_site_label
_atom_site_fract_x
_atom_site_fract_y
_atom_site_fract_z
Si Si1 0.987105 0.813474 0.673560
Si Si2 0.557424 0.350635 0.004859
Si Si3 0.682914 0.192129 0.425871
Si Si4 0.692848 0.192999 0.937701
Si Si5 0.181968 0.124402 0.105597
Si Si6 0.478481 0.678823 0.166279
O O1 0.164191 0.794940 0.668587
O O2 0.839106 0.654334 0.641716
O O3 0.992546 0.830933 0.729348
O O4 0.000000 0.000000 0.657517
O O5 0.500000 0.500000 0.005527
O O6 0.674754 0.376487 0.050533
O O7 0.665049 0.349012 0.960171
O O8 0.873448 0.186888 0.425032
O O9 0.678932 0.287762 0.473768
O O10 0.500000 0.000000 0.420599
O O11 0.751078 0.242178 0.884943
O O12 0.500000 0.000000 0.936101
O O13 0.362920 0.180542 0.133297
O O14 0.000000 0.000000 0.134444
O O15 0.500000 0.500000 0.167155
#
# Coordination Sequence:
#
# PCOD9580504 Si02
#       6
#     6   6   6   6   6   6
#     4  10  20  36  57  89 116 154 203 245 299 361
#     4  11  20  37  57  87 116 155 200 250 296 356
#     4  11  22  36  61  87 114 156 203 253 302 359
#     4   9  21  35  59  88 119 160 193 243 306 370
#     4  10  20  36  61  85 114 153 199 242 298 360
#     4   9  18  40  59  83 123 156 195 241 307 369
#
# _framework density 19.804389
#
# number of rings (size 3 to 8) (size 9 to 14) (size 15 to 20)
#    0.000    2.000    3.333    0.500    4.667    1.333 
#    0.000    0.833    0.000    2.000    0.000    0.000 
#    0.000    0.000    0.000    0.000    0.000    0.000 
#
# Total GULP energy -200409.583621 kJ/mol
# GULP energy per Si atom -5566.932878 kJ/mol
# Density = 1.975931 g / cm^3
# Si number density = 19.804389 Si / 1000 Ang^3
#
#
#
# Elastic Constant Matrix: (Units=GPa)
#
#
# Indices 1 2 3 4 5 6 
#
# 1 70.4752 30.4746 49.0880 0.0000 0.0000 0.0000
# 2 30.4746 70.4752 49.0880 0.0000 0.0000 0.0000
# 3 49.0880 49.0880 133.9967 0.0000 0.0000 0.0000
# 4 0.0000 0.0000 0.0000 20.8726 0.0000 0.0000
# 5 0.0000 0.0000 0.0000 0.0000 20.8726 0.0000
# 6 0.0000 0.0000 0.0000 0.0000 0.0000 20.0003
#
#
#
# Elastic Compliance Matrix: (Units=1/GPa)
#
#
# Indices 1 2 3 4 5 6 
#
# 1 0.020194 -0.004806 -0.005637 0.000000 0.000000 0.000000
# 2 -0.004806 0.020194 -0.005637 0.000000 0.000000 0.000000
# 3 -0.005637 -0.005637 0.011593 0.000000 0.000000 0.000000
# 4 0.000000 0.000000 0.000000 0.047910 0.000000 0.000000
# 5 0.000000 0.000000 0.000000 0.000000 0.047910 0.000000
# 6 0.000000 0.000000 0.000000 0.000000 0.000000 0.049999
#
#
# Mechanical properties :
#
#
# Convention : Reuss Voigt Hill
#
# Bulk Modulus (GPa) = 50.45263 59.13870 54.79566
# Shear Modulus (GPa) = 21.13564 22.10221 21.61893
#
# Velocity S-wave (km/s) = 3.27038 3.34432 3.30756
# Velocity P-wave (km/s) = 6.30803 6.69618 6.50500
#
# Compressibility (1/GPa) = 0.01982057
#
# Stress axis : x y z
#
# Youngs Moduli (GPa) = 49.51977 49.51977 86.25760
#
# Poissons Ratio (x) = 0.23797 0.48626
# Poissons Ratio (y) = 0.23797 0.48626
# Poissons Ratio (z) = 0.27916 0.27916
#
# Static dielectric constant tensor:
#      x y z
#    x 1.678340 0.000000 0.000000 
#    y 0.000000 1.678340 0.000000 
#    z 0.000000 0.000000 1.712540 
# 
# From -- ./inp_files/5780.got.cif
#   From: 2010.05.17/outbox.cif.g08.bks.cpg/sg171_3_cif.got.tgz:5780.got - 2010.05.20 11:16:09.
