data_PCOD9580400
_publ_section_title
;
Structure prediction by ZEFSAII (Michael W. Deem and Ramdas Pophale) SiO2 
 PCOD9580400
Probable space group: P 65
;
_chemical_formula_sum "Si O2"
_cell_formula_units_Z 48
_cell_length_a 17.292840
_cell_length_b 17.292840
_cell_length_c 9.255635
_cell_angle_alpha 90.000000
_cell_angle_beta 90.000000
_cell_angle_gamma 120.000000
_cell_volume 2397.008079
_symmetry_space_group_name_H-M "P 65"
_symmetry_group_IT_number 170
_symmetry_cell_setting 'hexagonal'
loop_
_space_group_symop_operation_xyz
x,y,z
x-y,x,5/6+z
-y,x-y,2/3+z
-x,-y,1/2+z
-x+y,-x,1/3+z
y,-x+y,1/6+z
loop_
_atom_site_type_symbol
_atom_site_label
_atom_site_fract_x
_atom_site_fract_y
_atom_site_fract_z
Si Si1 0.855089 0.561109 0.384780
Si Si2 0.413683 0.995956 0.982697
Si Si3 0.374325 0.612756 0.690121
Si Si4 0.373069 0.144841 0.535702
Si Si5 0.246726 0.674563 0.575351
Si Si6 0.293171 0.932303 0.532276
Si Si7 0.437595 0.906775 0.715524
Si Si8 0.402594 0.140926 0.859453
O O1 0.792597 0.456779 0.416462
O O2 0.904260 0.605393 0.534186
O O3 0.798816 0.605177 0.327690
O O4 0.914186 0.566325 0.248395
O O5 0.361403 0.038233 0.901583
O O6 0.461284 0.968918 0.859200
O O7 0.483834 0.062218 0.100195
O O8 0.291784 0.628459 0.663218
O O9 0.421449 0.665597 0.835945
O O10 0.334925 0.508060 0.679425
O O11 0.477926 0.188131 0.488067
O O12 0.336586 0.197350 0.437368
O O13 0.373271 0.161815 0.707498
O O14 0.322142 0.036990 0.524496
O O15 0.186200 0.604047 0.452728
O O16 0.362358 0.920177 0.635426
#
# Coordination Sequence:
#
# PCOD9580400 Si02
#       8
#     6   6   6   6   6   6   6   6
#     4  12  26  42  66  94 134 181 241 285 349 406
#     4  12  25  42  61  93 133 184 237 301 340 413
#     4  12  22  40  57  93 135 190 244 292 325 389
#     4  12  27  48  71 101 135 182 231 296 362 428
#     4  12  24  39  64  91 137 183 247 290 336 394
#     4  12  26  48  71 100 133 180 231 296 360 430
#     4  12  24  42  64  95 136 187 240 288 345 406
#     4  12  26  43  64  93 135 181 233 288 351 406
#
# _framework density 20.024965000000002
#
# number of rings (size 3 to 8) (size 9 to 14) (size 15 to 20)
#    0.000    0.000    3.750    8.250    3.500    0.000 
#    0.000    0.000    0.000    0.000    0.000    1.750 
#    0.000    0.000    0.000    0.000    0.000    0.000 
#
# Total GULP energy -268313.464503 kJ/mol
# GULP energy per Si atom -5589.863844 kJ/mol
# Density = 1.997939 g / cm^3
# Si number density = 20.024965 Si / 1000 Ang^3
#
#
#
# Elastic Constant Matrix: (Units=GPa)
#
#
# Indices 1 2 3 4 5 6 
#
# 1 74.9853 30.9870 32.7083 0.0000 0.0000 0.0000
# 2 30.9870 74.9853 32.7083 0.0000 0.0000 0.0000
# 3 32.7083 32.7083 132.9729 0.0000 0.0000 0.0000
# 4 0.0000 0.0000 0.0000 34.1396 0.0000 0.0000
# 5 0.0000 0.0000 0.0000 0.0000 34.1396 0.0000
# 6 0.0000 0.0000 0.0000 0.0000 0.0000 21.9992
#
#
#
# Elastic Compliance Matrix: (Units=1/GPa)
#
#
# Indices 1 2 3 4 5 6 
#
# 1 0.016927 -0.005801 -0.002737 0.000000 0.000000 0.000000
# 2 -0.005801 0.016927 -0.002737 0.000000 0.000000 0.000000
# 3 -0.002737 -0.002737 0.008867 0.000000 0.000000 0.000000
# 4 0.000000 0.000000 0.000000 0.029292 0.000000 0.000000
# 5 0.000000 0.000000 0.000000 0.000000 0.029292 0.000000
# 6 0.000000 0.000000 0.000000 0.000000 0.000000 0.045456
#
#
# Mechanical properties :
#
#
# Convention : Reuss Voigt Hill
#
# Bulk Modulus (GPa) = 49.57497 52.86119 51.21808
# Shear Modulus (GPa) = 28.40379 30.49165 29.44772
#
# Velocity S-wave (km/s) = 3.77028 3.90639 3.83894
# Velocity P-wave (km/s) = 6.61541 6.84116 6.72923
#
# Compressibility (1/GPa) = 0.02017147
#
# Stress axis : x y z
#
# Youngs Moduli (GPa) = 59.07732 59.07732 112.78199
#
# Poissons Ratio (x) = 0.34272 0.30865
# Poissons Ratio (y) = 0.34272 0.30865
# Poissons Ratio (z) = 0.16168 0.16168
#
# Static dielectric constant tensor:
#      x y z
#    x 1.751560 0.000000 0.000000 
#    y 0.000000 1.751560 0.000000 
#    z 0.000000 0.000000 1.772050 
# 
# From -- ./inp_files/770.got.cif
#   From: 2010.05.17/outbox.cif.g08.bks.cpg/sg170_cif.got.tgz:770.got - 2010.05.20 11:14:30.
