data_PCOD9580743
_publ_section_title
;
Structure prediction by ZEFSAII (Michael W. Deem and Ramdas Pophale) SiO2 
 PCOD9580743
Probable space group: P 62
;
_chemical_formula_sum "Si O2"
_cell_formula_units_Z 39
_cell_length_a 12.970191
_cell_length_b 12.970191
_cell_length_c 13.270189
_cell_angle_alpha 90.000000
_cell_angle_beta 90.000000
_cell_angle_gamma 120.000000
_cell_volume 1933.305485
_symmetry_space_group_name_H-M "P 62"
_symmetry_group_IT_number 171
_symmetry_cell_setting 'hexagonal'
loop_
_space_group_symop_operation_xyz
x,y,z
x-y,x,1/3+z
-y,x-y,2/3+z
-x,-y,z
-x+y,-x,1/3+z
y,-x+y,2/3+z
loop_
_atom_site_type_symbol
_atom_site_label
_atom_site_fract_x
_atom_site_fract_y
_atom_site_fract_z
Si Si1 0.000000 0.000000 0.971411
Si Si2 0.500000 0.500000 0.431907
Si Si3 0.251873 0.901151 0.386803
Si Si4 0.760727 0.309857 0.254190
Si Si5 0.500000 0.500000 0.844254
Si Si6 0.999998 0.826525 0.471411
Si Si7 0.350722 0.098850 0.222689
Si Si8 0.549130 0.309858 0.355302
O O1 0.907288 0.010589 0.899511
O O2 0.092716 0.103299 0.043309
O O3 0.379254 0.418674 0.497006
O O4 0.522194 0.415138 0.361070
O O5 0.248138 0.797941 0.318258
O O6 0.379254 0.960580 0.445821
O O7 0.132920 0.841117 0.458803
O O8 0.262507 0.000001 0.304746
O O9 0.892944 0.415138 0.248424
O O10 0.673745 0.347491 0.304746
O O11 0.725678 0.274323 0.138080
O O12 0.867079 0.708194 0.484020
O O13 0.450196 0.202060 0.291235
#
# Coordination Sequence:
#
# PCOD9580743 Si02
#       8
#     3   3   6   6   3   6   6   6
#     4  10  24  46  60 108 156 198 224 308 376 464
#     4  12  27  46  81 102 146 198 255 308 387 464
#     4  12  24  45  74 108 143 201 249 303 379 464
#     4  12  25  47  75 108 145 190 250 314 375 457
#     4  12  27  46  81 102 146 198 255 308 387 464
#     4  11  26  40  72 107 156 189 254 306 383 448
#     4  12  24  45  74 108 143 201 249 303 379 464
#     4  12  25  47  75 108 145 190 250 314 375 457
#
# _framework density 20.172705000000001
#
# number of rings (size 3 to 8) (size 9 to 14) (size 15 to 20)
#    0.000    0.308    7.692    0.462    4.308    2.462 
#    0.000    0.000    0.000    0.000    0.000    0.000 
#    0.000    0.000    0.000    0.000    0.000    0.000 
#
# Total GULP energy -217334.889993 kJ/mol
# GULP energy per Si atom -5572.689487 kJ/mol
# Density = 2.012679 g / cm^3
# Si number density = 20.172705 Si / 1000 Ang^3
#
#
#
# Elastic Constant Matrix: (Units=GPa)
#
#
# Indices 1 2 3 4 5 6 
#
# 1 157.5900 78.0684 65.7006 0.0000 0.0000 0.0000
# 2 78.0684 157.5900 65.7006 0.0000 0.0000 0.0000
# 3 65.7006 65.7006 85.2656 0.0000 0.0000 0.0000
# 4 0.0000 0.0000 0.0000 84.5926 0.0000 0.0000
# 5 0.0000 0.0000 0.0000 0.0000 84.5926 0.0000
# 6 0.0000 0.0000 0.0000 0.0000 0.0000 39.7608
#
#
#
# Elastic Compliance Matrix: (Units=1/GPa)
#
#
# Indices 1 2 3 4 5 6 
#
# 1 0.010008 -0.002568 -0.005733 0.000000 0.000000 0.000000
# 2 -0.002568 0.010008 -0.005733 0.000000 0.000000 0.000000
# 3 -0.005733 -0.005733 0.020563 0.000000 0.000000 0.000000
# 4 0.000000 0.000000 0.000000 0.011821 0.000000 0.000000
# 5 0.000000 0.000000 0.000000 0.000000 0.011821 0.000000
# 6 0.000000 0.000000 0.000000 0.000000 0.000000 0.025150
#
#
# Mechanical properties :
#
#
# Convention : Reuss Voigt Hill
#
# Bulk Modulus (GPa) = 79.92636 91.04278 85.48457
# Shear Modulus (GPa) = 41.11565 54.52093 47.81829
#
# Velocity S-wave (km/s) = 4.51952 5.20440 4.87400
# Velocity P-wave (km/s) = 8.18180 9.01909 8.61063
#
# Compressibility (1/GPa) = 0.01251152
#
# Stress axis : x y z
#
# Youngs Moduli (GPa) = 99.92402 99.92402 48.63144
#
# Poissons Ratio (x) = 0.25656 0.27880
# Poissons Ratio (y) = 0.25656 0.27880
# Poissons Ratio (z) = 0.57285 0.57285
#
# Static dielectric constant tensor:
#      x y z
#    x 1.698040 0.000000 0.000000 
#    y 0.000000 1.698040 0.000000 
#    z 0.000000 0.000000 1.697720 
# 
# From -- ./inp_files/2030.got.cif
#   From: 2010.05.17/outbox.cif.g08.bks.cpg/sg171_2_cif.got.tgz:2030.got - 2010.05.20 11:16:09.
