data_PCOD9580144
_publ_section_title
;
Structure prediction by ZEFSAII (Michael W. Deem and Ramdas Pophale) SiO2 
 PCOD9580144
Probable space group: P 61
;
_chemical_formula_sum "Si O2"
_cell_formula_units_Z 30
_cell_length_a 17.041493
_cell_length_b 17.041493
_cell_length_c 4.912173
_cell_angle_alpha 90.000000
_cell_angle_beta 90.000000
_cell_angle_gamma 120.000000
_cell_volume 1235.434049
_symmetry_space_group_name_H-M "P 61"
_symmetry_group_IT_number 169
_symmetry_cell_setting 'hexagonal'
loop_
_space_group_symop_operation_xyz
x,y,z
x-y,x,1/6+z
-y,x-y,1/3+z
-x,-y,1/2+z
-x+y,-x,2/3+z
y,-x+y,5/6+z
loop_
_atom_site_type_symbol
_atom_site_label
_atom_site_fract_x
_atom_site_fract_y
_atom_site_fract_z
Si Si1 0.644903 0.462676 0.427650
Si Si2 0.537326 0.355098 0.949701
Si Si3 0.365194 1.000000 0.772012
Si Si4 0.083915 0.812803 0.951806
Si Si5 0.187196 0.916084 0.425552
O O1 0.582492 0.417508 0.688674
O O2 0.746996 0.493991 0.522011
O O3 0.629271 0.543827 0.331228
O O4 0.611198 0.388805 0.188674
O O5 0.456175 0.370732 0.046125
O O6 0.331119 0.043752 0.999975
O O7 0.287366 0.956248 0.544054
O O8 0.123714 0.876284 0.688677
O O9 0.158497 0.841504 0.188677
O O10 0.000000 0.811834 0.105346
#
# Coordination Sequence:
#
# PCOD9580144 Si02
#       5
#     6   6   6   6   6
#     4  12  28  49  77 110 159 212 266 326 403 477
#     4  12  28  49  77 110 159 212 266 326 403 477
#     4  12  28  46  82 116 158 198 276 330 396 464
#     4  12  25  45  75 117 159 199 257 324 398 466
#     4  12  25  45  75 117 159 199 257 324 398 466
#
# _framework density 24.282965999999998
#
# number of rings (size 3 to 8) (size 9 to 14) (size 15 to 20)
#    0.000    0.000    4.000    4.800    5.600    0.000 
#    0.000    0.000    0.000    2.400    5.200    0.000 
#    0.000    0.000    0.000    0.000    0.000    0.000 
#
# Total GULP energy -168067.881634 kJ/mol
# GULP energy per Si atom -5602.262721 kJ/mol
# Density = 2.422770 g / cm^3
# Si number density = 24.282966 Si / 1000 Ang^3
#
#
#
# Elastic Constant Matrix: (Units=GPa)
#
#
# Indices 1 2 3 4 5 6 
#
# 1 127.5137 54.2168 40.0425 0.0000 0.0000 0.0000
# 2 54.2168 127.5137 40.0425 0.0000 0.0000 0.0000
# 3 40.0425 40.0425 169.0985 0.0000 0.0000 0.0000
# 4 0.0000 0.0000 0.0000 39.1818 0.0000 0.0000
# 5 0.0000 0.0000 0.0000 0.0000 39.1818 0.0000
# 6 0.0000 0.0000 0.0000 0.0000 0.0000 36.6484
#
#
#
# Elastic Compliance Matrix: (Units=1/GPa)
#
#
# Indices 1 2 3 4 5 6 
#
# 1 0.009893 -0.003750 -0.001455 0.000000 0.000000 0.000000
# 2 -0.003750 0.009893 -0.001455 0.000000 0.000000 0.000000
# 3 -0.001455 -0.001455 0.006603 0.000000 0.000000 0.000000
# 4 0.000000 0.000000 0.000000 0.025522 0.000000 0.000000
# 5 0.000000 0.000000 0.000000 0.000000 0.025522 0.000000
# 6 0.000000 0.000000 0.000000 0.000000 0.000000 0.027286
#
#
# Mechanical properties :
#
#
# Convention : Reuss Voigt Hill
#
# Bulk Modulus (GPa) = 76.50584 76.96994 76.73789
# Shear Modulus (GPa) = 40.85107 42.32400 41.58754
#
# Velocity S-wave (km/s) = 4.10603 4.17939 4.14287
# Velocity P-wave (km/s) = 7.35212 7.41995 7.38611
#
# Compressibility (1/GPa) = 0.01307090
#
# Stress axis : x y z
#
# Youngs Moduli (GPa) = 101.07684 101.07684 151.45257
#
# Poissons Ratio (x) = 0.37901 0.22034
# Poissons Ratio (y) = 0.37901 0.22034
# Poissons Ratio (z) = 0.14705 0.14705
#
# Static dielectric constant tensor:
#      x y z
#    x 1.982550 0.000000 0.000000 
#    y 0.000000 1.982550 0.000000 
#    z 0.000000 0.000000 1.927210 
# 
# From -- ./inp_files/145.got.cif
#   From: 2010.05.17/outbox.cif.g08.bks.cpg/sg169_cif.got.tgz:145.got - 2010.05.20 11:12:54.
