data_PCOD9580869
_publ_section_title
;
Structure prediction by ZEFSAII (Michael W. Deem and Ramdas Pophale) SiO2 
 PCOD9580869
Probable space group: P 62
;
_chemical_formula_sum "Si O2"
_cell_formula_units_Z 18
_cell_length_a 13.892667
_cell_length_b 13.892667
_cell_length_c 5.111711
_cell_angle_alpha 90.000000
_cell_angle_beta 90.000000
_cell_angle_gamma 120.000000
_cell_volume 854.413646
_symmetry_space_group_name_H-M "P 62"
_symmetry_group_IT_number 171
_symmetry_cell_setting 'hexagonal'
loop_
_space_group_symop_operation_xyz
x,y,z
x-y,x,1/3+z
-y,x-y,2/3+z
-x,-y,z
-x+y,-x,1/3+z
y,-x+y,2/3+z
loop_
_atom_site_type_symbol
_atom_site_label
_atom_site_fract_x
_atom_site_fract_y
_atom_site_fract_z
Si Si1 0.908328 0.625743 0.334860
Si Si2 0.695934 0.636661 0.503244
Si Si3 0.604466 0.208352 0.380293
O O1 0.816704 0.658915 0.414635
O O2 0.845917 0.496881 0.249661
O O3 0.981563 0.643461 0.588187
O O4 0.986672 0.691913 0.087746
O O5 0.624365 0.507163 0.578795
O O6 0.704776 0.281057 0.184473
#
# Coordination Sequence:
#
# PCOD9580869 Si02
#       3
#     6   6   6
#     4  12  27  47  71 104 144 194 245 298 354 422
#     4  12  27  47  71 104 144 194 245 298 354 422
#     4  12  25  42  72 108 158 188 231 272 366 458
#
# _framework density 21.067077000000001
#
# number of rings (size 3 to 8) (size 9 to 14) (size 15 to 20)
#    0.000    0.000    3.333    7.000    0.000    8.000 
#    0.000    0.000    0.000   10.000    0.000    0.000 
#    0.000    0.000    0.000    0.000    0.000    0.000 
#
# Total GULP energy -100947.871548 kJ/mol
# GULP energy per Si atom -5608.215086 kJ/mol
# Density = 2.101913 g / cm^3
# Si number density = 21.067077 Si / 1000 Ang^3
#
#
#
# Elastic Constant Matrix: (Units=GPa)
#
#
# Indices 1 2 3 4 5 6 
#
# 1 94.7902 73.4611 61.2830 0.0000 0.0000 0.0000
# 2 73.4611 94.7902 61.2830 0.0000 0.0000 0.0000
# 3 61.2830 61.2830 160.8917 0.0000 0.0000 0.0000
# 4 0.0000 0.0000 0.0000 53.1231 0.0000 0.0000
# 5 0.0000 0.0000 0.0000 0.0000 53.1231 0.0000
# 6 0.0000 0.0000 0.0000 0.0000 0.0000 10.6645
#
#
#
# Elastic Compliance Matrix: (Units=1/GPa)
#
#
# Indices 1 2 3 4 5 6 
#
# 1 0.027555 -0.019329 -0.003133 0.000000 0.000000 0.000000
# 2 -0.019329 0.027555 -0.003133 0.000000 0.000000 0.000000
# 3 -0.003133 -0.003133 0.008602 0.000000 0.000000 0.000000
# 4 0.000000 0.000000 0.000000 0.018824 0.000000 0.000000
# 5 0.000000 0.000000 0.000000 0.000000 0.018824 0.000000
# 6 0.000000 0.000000 0.000000 0.000000 0.000000 0.093769
#
#
# Mechanical properties :
#
#
# Convention : Reuss Voigt Hill
#
# Bulk Modulus (GPa) = 79.86450 82.50294 81.18372
# Shear Modulus (GPa) = 19.96051 33.67849 26.81950
#
# Velocity S-wave (km/s) = 3.08145 4.00263 3.57186
# Velocity P-wave (km/s) = 7.11705 7.78514 7.45858
#
# Compressibility (1/GPa) = 0.01252121
#
# Stress axis : x y z
#
# Youngs Moduli (GPa) = 36.29088 36.29088 116.24879
#
# Poissons Ratio (x) = 0.70147 0.36424
# Poissons Ratio (y) = 0.70147 0.36424
# Poissons Ratio (z) = 0.11371 0.11371
#
# Static dielectric constant tensor:
#      x y z
#    x 1.766350 0.000000 0.000000 
#    y 0.000000 1.766350 0.000000 
#    z 0.000000 0.000000 1.765620 
# 
# From -- ./inp_files/107.got.cif
#   From: 2010.05.17/outbox.cif.g08.bks.cpg/sg171_1_cif.got.tgz:107.got - 2010.05.20 11:16:09.
