data_PCOD9580267
_publ_section_title
;
Structure prediction by ZEFSAII (Michael W. Deem and Ramdas Pophale) SiO2 
 PCOD9580267
Probable space group: P 65
;
_chemical_formula_sum "Si O2"
_cell_formula_units_Z 42
_cell_length_a 14.127923
_cell_length_b 14.127923
_cell_length_c 10.992812
_cell_angle_alpha 90.000000
_cell_angle_beta 90.000000
_cell_angle_gamma 120.000000
_cell_volume 1900.185811
_symmetry_space_group_name_H-M "P 65"
_symmetry_group_IT_number 170
_symmetry_cell_setting 'hexagonal'
loop_
_space_group_symop_operation_xyz
x,y,z
x-y,x,5/6+z
-y,x-y,2/3+z
-x,-y,1/2+z
-x+y,-x,1/3+z
y,-x+y,1/6+z
loop_
_atom_site_type_symbol
_atom_site_label
_atom_site_fract_x
_atom_site_fract_y
_atom_site_fract_z
Si Si1 0.774971 0.175818 0.800660
Si Si2 0.435128 0.813110 0.251262
Si Si3 0.410844 0.268054 0.683129
Si Si4 0.700518 0.631432 0.680889
Si Si5 0.490454 0.536074 0.034868
Si Si6 0.929800 0.347762 0.650632
Si Si7 0.929920 0.148695 0.227754
O O1 0.687985 0.218166 0.780556
O O2 0.868665 0.225790 0.700095
O O3 0.711847 0.046808 0.785700
O O4 0.830351 0.212404 0.933100
O O5 0.478024 0.735595 0.202441
O O6 0.510579 0.867670 0.368556
O O7 0.479428 0.918823 0.166481
O O8 0.431583 0.338091 0.560308
O O9 0.390076 0.335517 0.786433
O O10 0.300338 0.154407 0.662860
O O11 0.585144 0.518057 0.656744
O O12 0.752020 0.691965 0.807650
O O13 0.410307 0.503814 0.923685
O O14 0.040300 0.169218 0.302312
#
# Coordination Sequence:
#
# PCOD9580267 Si02
#       7
#     6   6   6   6   6   6   6
#     4  10  22  40  67  97 138 182 231 286 350 418
#     4  10  23  39  66 100 131 177 236 283 346 423
#     4  11  25  44  71 100 140 185 226 302 353 424
#     4  10  21  42  67  98 133 184 234 284 348 423
#     4   9  22  43  64  98 134 183 226 282 349 423
#     4  10  23  43  65  96 139 179 228 288 351 417
#     4  12  26  49  72 105 143 192 241 297 359 430
#
# _framework density 22.103100999999999
#
# number of rings (size 3 to 8) (size 9 to 14) (size 15 to 20)
#    0.000    1.714    1.429    1.714    8.000    6.857 
#    5.143    0.000    0.000    0.000    0.000    0.000 
#    0.000    0.000    0.000    0.000    0.000    0.000 
#
# Total GULP energy -233965.890894 kJ/mol
# GULP energy per Si atom -5570.616450 kJ/mol
# Density = 2.205279 g / cm^3
# Si number density = 22.103101 Si / 1000 Ang^3
#
#
#
# Elastic Constant Matrix: (Units=GPa)
#
#
# Indices 1 2 3 4 5 6 
#
# 1 75.7109 8.2681 12.1566 0.0000 0.0000 0.0000
# 2 8.2681 75.7109 12.1566 0.0000 0.0000 0.0000
# 3 12.1566 12.1566 46.9490 0.0000 0.0000 0.0000
# 4 0.0000 0.0000 0.0000 13.4724 0.0000 0.0000
# 5 0.0000 0.0000 0.0000 0.0000 13.4724 0.0000
# 6 0.0000 0.0000 0.0000 0.0000 0.0000 33.7214
#
#
#
# Elastic Compliance Matrix: (Units=1/GPa)
#
#
# Indices 1 2 3 4 5 6 
#
# 1 0.013850 -0.000977 -0.003333 0.000000 0.000000 0.000000
# 2 -0.000977 0.013850 -0.003333 0.000000 0.000000 0.000000
# 3 -0.003333 -0.003333 0.023026 0.000000 0.000000 0.000000
# 4 0.000000 0.000000 0.000000 0.074226 0.000000 0.000000
# 5 0.000000 0.000000 0.000000 0.000000 0.074226 0.000000
# 6 0.000000 0.000000 0.000000 0.000000 0.000000 0.029655
#
#
# Mechanical properties :
#
#
# Convention : Reuss Voigt Hill
#
# Bulk Modulus (GPa) = 28.21779 29.28150 28.74964
# Shear Modulus (GPa) = 19.53640 23.18587 21.36113
#
# Velocity S-wave (km/s) = 2.97623 3.24232 3.11212
# Velocity P-wave (km/s) = 4.96032 5.22430 5.09402
#
# Compressibility (1/GPa) = 0.03543864
#
# Stress axis : x y z
#
# Youngs Moduli (GPa) = 72.20184 72.20184 43.42951
#
# Poissons Ratio (x) = 0.07056 0.14476
# Poissons Ratio (y) = 0.07056 0.14476
# Poissons Ratio (z) = 0.24066 0.24066
#
# Static dielectric constant tensor:
#      x y z
#    x 1.883820 0.000000 0.000000 
#    y 0.000000 1.883820 0.000000 
#    z 0.000000 0.000000 1.859410 
# 
# From -- ./inp_files/1039.got.cif
#   From: 2010.05.17/outbox.cif.g08.bks.cpg/sg170_cif.got.tgz:1039.got - 2010.05.20 11:14:30.
