data_PCOD9580622
_publ_section_title
;
Structure prediction by ZEFSAII (Michael W. Deem and Ramdas Pophale) SiO2 
 PCOD9580622
Probable space group: P 62
;
_chemical_formula_sum "Si O2"
_cell_formula_units_Z 27
_cell_length_a 14.201638
_cell_length_b 14.201638
_cell_length_c 9.008416
_cell_angle_alpha 90.000000
_cell_angle_beta 90.000000
_cell_angle_gamma 120.000000
_cell_volume 1573.460850
_symmetry_space_group_name_H-M "P 62"
_symmetry_group_IT_number 171
_symmetry_cell_setting 'hexagonal'
loop_
_space_group_symop_operation_xyz
x,y,z
x-y,x,1/3+z
-y,x-y,2/3+z
-x,-y,z
-x+y,-x,1/3+z
y,-x+y,2/3+z
loop_
_atom_site_type_symbol
_atom_site_label
_atom_site_fract_x
_atom_site_fract_y
_atom_site_fract_z
Si Si1 0.562688 0.369399 0.962470
Si Si2 0.204949 0.551795 0.628252
Si Si3 0.846270 0.252705 0.189013
Si Si4 0.377724 0.310906 0.717040
Si Si5 0.500000 0.500000 0.483008
O O1 0.630248 0.305396 0.947626
O O2 0.645609 0.497470 0.944159
O O3 0.473917 0.335789 0.833565
O O4 0.512541 0.342627 0.126863
O O5 0.234058 0.473233 0.722458
O O6 0.107599 0.555042 0.715634
O O7 0.795618 0.149290 0.295277
O O8 0.963931 0.283071 0.132014
O O9 0.420141 0.405329 0.593110
#
# Coordination Sequence:
#
# PCOD9580622 Si02
#       5
#     6   6   6   6   3
#     4  12  20  31  55  79 112 158 194 227 283 356
#     4  11  22  33  51  81 113 153 192 233 285 345
#     4  11  21  38  53  78 116 158 193 240 287 343
#     4  11  22  36  56  77 116 158 199 234 292 343
#     4  10  22  34  50  78 118 150 190 240 290 346
#
# _framework density 17.159625999999999
#
# number of rings (size 3 to 8) (size 9 to 14) (size 15 to 20)
#    0.000    0.889    6.667    1.333    3.111    0.000 
#    0.000    0.000    0.000    0.000    0.000    0.000 
#    0.000   69.333    0.000    0.000    0.000    0.000 
#
# Total GULP energy -150779.528701 kJ/mol
# GULP energy per Si atom -5584.426989 kJ/mol
# Density = 1.712057 g / cm^3
# Si number density = 17.159626 Si / 1000 Ang^3
#
#
#
# Elastic Constant Matrix: (Units=GPa)
#
#
# Indices 1 2 3 4 5 6 
#
# 1 80.0927 44.4301 37.3567 0.0000 0.0000 0.0000
# 2 44.4301 80.0927 37.3567 0.0000 0.0000 0.0000
# 3 37.3567 37.3567 83.3700 0.0000 0.0000 0.0000
# 4 0.0000 0.0000 0.0000 24.2497 0.0000 0.0000
# 5 0.0000 0.0000 0.0000 0.0000 24.2497 0.0000
# 6 0.0000 0.0000 0.0000 0.0000 0.0000 17.8313
#
#
#
# Elastic Compliance Matrix: (Units=1/GPa)
#
#
# Indices 1 2 3 4 5 6 
#
# 1 0.019512 -0.008529 -0.004922 0.000000 0.000000 0.000000
# 2 -0.008529 0.019512 -0.004922 0.000000 0.000000 0.000000
# 3 -0.004922 -0.004922 0.016405 0.000000 0.000000 0.000000
# 4 0.000000 0.000000 0.000000 0.041238 0.000000 0.000000
# 5 0.000000 0.000000 0.000000 0.000000 0.041238 0.000000
# 6 0.000000 0.000000 0.000000 0.000000 0.000000 0.056081
#
#
# Mechanical properties :
#
#
# Convention : Reuss Voigt Hill
#
# Bulk Modulus (GPa) = 53.51545 53.53803 53.52674
# Shear Modulus (GPa) = 21.10080 21.56027 21.33054
#
# Velocity S-wave (km/s) = 3.51048 3.54849 3.52954
# Velocity P-wave (km/s) = 6.90549 6.93230 6.91891
#
# Compressibility (1/GPa) = 0.01868619
#
# Stress axis : x y z
#
# Youngs Moduli (GPa) = 51.25025 51.25025 60.95613
#
# Poissons Ratio (x) = 0.43709 0.30000
# Poissons Ratio (y) = 0.43709 0.30000
# Poissons Ratio (z) = 0.25223 0.25223
#
# Static dielectric constant tensor:
#      x y z
#    x 1.587030 0.000000 0.000000 
#    y 0.000000 1.587030 0.000000 
#    z 0.000000 0.000000 1.626690 
# 
# From -- ./inp_files/1037.got.cif
#   From: 2010.05.17/outbox.cif.g08.bks.cpg/sg171_1_cif.got.tgz:1037.got - 2010.05.20 11:16:09.
