data_PCOD9580801
_publ_section_title
;
Structure prediction by ZEFSAII (Michael W. Deem and Ramdas Pophale) SiO2 
 PCOD9580801
Probable space group: P 62
;
_chemical_formula_sum "Si O2"
_cell_formula_units_Z 30
_cell_length_a 19.455934
_cell_length_b 19.455934
_cell_length_c 4.764346
_cell_angle_alpha 90.000000
_cell_angle_beta 90.000000
_cell_angle_gamma 120.000000
_cell_volume 1561.845584
_symmetry_space_group_name_H-M "P 62"
_symmetry_group_IT_number 171
_symmetry_cell_setting 'hexagonal'
loop_
_space_group_symop_operation_xyz
x,y,z
x-y,x,1/3+z
-y,x-y,2/3+z
-x,-y,z
-x+y,-x,1/3+z
y,-x+y,2/3+z
loop_
_atom_site_type_symbol
_atom_site_label
_atom_site_fract_x
_atom_site_fract_y
_atom_site_fract_z
Si Si1 0.690615 0.579361 0.679950
Si Si2 0.459018 0.576392 0.407883
Si Si3 0.057347 0.423654 0.223075
Si Si4 0.732902 0.418149 0.092947
Si Si5 0.795646 0.212641 0.547510
O O1 0.617658 0.504565 0.515149
O O2 0.648322 0.615968 0.874777
O O3 0.753158 0.622861 0.424827
O O4 0.749104 0.572388 0.906010
O O5 0.534625 0.597072 0.596877
O O6 0.440912 0.644312 0.514172
O O7 0.500492 0.588901 0.103420
O O8 0.119731 0.391003 0.228467
O O9 0.648483 0.382799 0.948505
O O10 0.749574 0.490299 0.292182
#
# Coordination Sequence:
#
# PCOD9580801 Si02
#       5
#     6   6   6   6   6
#     4  12  23  41  60  82 112 155 190 244 308 351
#     4  11  23  38  55  82 110 149 199 242 303 357
#     4  11  25  41  59  83 114 147 196 251 287 364
#     4  11  22  33  55  82 115 150 199 263 310 350
#     4  11  24  39  58  86 110 147 202 242 305 361
#
# _framework density 19.208044999999998
#
# number of rings (size 3 to 8) (size 9 to 14) (size 15 to 20)
#    0.000    0.800    2.000    6.600    8.400    1.600 
#    0.000    0.000    0.000    0.000    0.000    0.000 
#    0.000    0.000    0.000    9.000    0.000    0.000 
#
# Total GULP energy -167066.128010 kJ/mol
# GULP energy per Si atom -5568.870934 kJ/mol
# Density = 1.916433 g / cm^3
# Si number density = 19.208045 Si / 1000 Ang^3
#
#
#
# Elastic Constant Matrix: (Units=GPa)
#
#
# Indices 1 2 3 4 5 6 
#
# 1 73.9612 35.9044 16.9599 0.0000 0.0000 0.0000
# 2 35.9044 73.9612 16.9599 0.0000 0.0000 0.0000
# 3 16.9599 16.9599 55.1038 0.0000 0.0000 0.0000
# 4 0.0000 0.0000 0.0000 22.4429 0.0000 0.0000
# 5 0.0000 0.0000 0.0000 0.0000 22.4429 0.0000
# 6 0.0000 0.0000 0.0000 0.0000 0.0000 19.0284
#
#
#
# Elastic Compliance Matrix: (Units=1/GPa)
#
#
# Indices 1 2 3 4 5 6 
#
# 1 0.018167 -0.008109 -0.003096 0.000000 0.000000 0.000000
# 2 -0.008109 0.018167 -0.003096 0.000000 0.000000 0.000000
# 3 -0.003096 -0.003096 0.020053 0.000000 0.000000 0.000000
# 4 0.000000 0.000000 0.000000 0.044558 0.000000 0.000000
# 5 0.000000 0.000000 0.000000 0.000000 0.044558 0.000000
# 6 0.000000 0.000000 0.000000 0.000000 0.000000 0.052553
#
#
# Mechanical properties :
#
#
# Convention : Reuss Voigt Hill
#
# Bulk Modulus (GPa) = 35.98901 38.07496 37.03199
# Shear Modulus (GPa) = 21.19375 21.66297 21.42836
#
# Velocity S-wave (km/s) = 3.32532 3.36193 3.34367
# Velocity P-wave (km/s) = 5.78971 5.91063 5.85048
#
# Compressibility (1/GPa) = 0.02778626
#
# Stress axis : x y z
#
# Youngs Moduli (GPa) = 55.04449 55.04449 49.86754
#
# Poissons Ratio (x) = 0.44638 0.15437
# Poissons Ratio (y) = 0.44638 0.15437
# Poissons Ratio (z) = 0.17040 0.17040
#
# Static dielectric constant tensor:
#      x y z
#    x 1.755960 0.000000 0.000000 
#    y 0.000000 1.755960 0.000000 
#    z 0.000000 0.000000 1.758100 
# 
# From -- ./inp_files/355.got.cif
#   From: 2010.05.17/outbox.cif.g08.bks.cpg/sg171_1_cif.got.tgz:355.got - 2010.05.20 11:16:09.
