data_PCOD9580581
_publ_section_title
;
Structure prediction by ZEFSAII (Michael W. Deem and Ramdas Pophale) SiO2 
 PCOD9580581
Probable space group: P 62
;
_chemical_formula_sum "Si O2"
_cell_formula_units_Z 30
_cell_length_a 9.626000
_cell_length_b 9.626000
_cell_length_c 15.357719
_cell_angle_alpha 90.000000
_cell_angle_beta 90.000000
_cell_angle_gamma 120.000000
_cell_volume 1232.392548
_symmetry_space_group_name_H-M "P 62"
_symmetry_group_IT_number 171
_symmetry_cell_setting 'hexagonal'
loop_
_space_group_symop_operation_xyz
x,y,z
x-y,x,1/3+z
-y,x-y,2/3+z
-x,-y,z
-x+y,-x,1/3+z
y,-x+y,2/3+z
loop_
_atom_site_type_symbol
_atom_site_label
_atom_site_fract_x
_atom_site_fract_y
_atom_site_fract_z
Si Si1 0.756302 0.834199 0.040250
Si Si2 0.500000 0.000000 0.336535
Si Si3 0.720038 0.917059 0.862272
Si Si4 0.122817 0.724067 0.852829
Si Si5 0.500000 0.500000 0.971887
Si Si6 0.619403 0.243050 0.493609
O O1 0.871006 0.803549 0.102622
O O2 0.705551 0.943308 0.097620
O O3 0.803659 0.884657 0.942602
O O4 0.593942 0.658925 0.029283
O O5 0.620729 0.985142 0.269105
O O6 0.430078 0.848379 0.401470
O O7 0.535334 0.785642 0.853558
O O8 0.748944 0.093830 0.879224
O O9 0.219574 0.634377 0.827307
O O10 0.373252 0.505132 0.904844
#
# Coordination Sequence:
#
# PCOD9580581 Si02
#       6
#     6   3   6   6   3   6
#     4   9  19  36  60  96 125 167 219 268 332 410
#     4  11  26  40  59 108 130 176 215 298 338 407
#     4   9  20  37  66  90 126 170 221 269 339 406
#     4  10  23  36  62  93 130 167 216 274 346 396
#     4   9  18  34  55  94 120 166 217 252 338 385
#     4  10  21  39  63  91 134 170 217 280 339 404
#
# _framework density 24.342891999999999
#
# number of rings (size 3 to 8) (size 9 to 14) (size 15 to 20)
#    1.200    1.200    0.000    1.800    8.400    1.600 
#    0.000    0.000    0.000    3.600    0.000    0.000 
#    0.000    0.000    0.000    0.000    0.000    0.000 
#
# Total GULP energy -167303.482868 kJ/mol
# GULP energy per Si atom -5576.782762 kJ/mol
# Density = 2.428749 g / cm^3
# Si number density = 24.342892 Si / 1000 Ang^3
#
#
#
# Elastic Constant Matrix: (Units=GPa)
#
#
# Indices 1 2 3 4 5 6 
#
# 1 50.9228 5.0766 28.3544 0.0000 0.0000 0.0000
# 2 5.0766 50.9228 28.3544 0.0000 0.0000 0.0000
# 3 28.3544 28.3544 194.6243 0.0000 0.0000 0.0000
# 4 0.0000 0.0000 0.0000 27.1053 0.0000 0.0000
# 5 0.0000 0.0000 0.0000 0.0000 27.1053 0.0000
# 6 0.0000 0.0000 0.0000 0.0000 0.0000 22.9231
#
#
#
# Elastic Compliance Matrix: (Units=1/GPa)
#
#
# Indices 1 2 3 4 5 6 
#
# 1 0.021380 -0.000432 -0.003052 0.000000 0.000000 0.000000
# 2 -0.000432 0.021380 -0.003052 0.000000 0.000000 0.000000
# 3 -0.003052 -0.003052 0.006027 0.000000 0.000000 0.000000
# 4 0.000000 0.000000 0.000000 0.036893 0.000000 0.000000
# 5 0.000000 0.000000 0.000000 0.000000 0.036893 0.000000
# 6 0.000000 0.000000 0.000000 0.000000 0.000000 0.043624
#
#
# Mechanical properties :
#
#
# Convention : Reuss Voigt Hill
#
# Bulk Modulus (GPa) = 27.99897 46.67119 37.33508
# Shear Modulus (GPa) = 26.15411 31.07237 28.61324
#
# Velocity S-wave (km/s) = 3.28137 3.57661 3.43217
# Velocity P-wave (km/s) = 5.08757 6.02248 5.57466
#
# Compressibility (1/GPa) = 0.03571560
#
# Stress axis : x y z
#
# Youngs Moduli (GPa) = 46.77283 46.77283 165.91082
#
# Poissons Ratio (x) = 0.02021 0.50633
# Poissons Ratio (y) = 0.02021 0.50633
# Poissons Ratio (z) = 0.14274 0.14274
#
# Static dielectric constant tensor:
#      x y z
#    x 1.962840 0.000000 0.000000 
#    y 0.000000 1.962840 0.000000 
#    z 0.000000 0.000000 1.983720 
# 
# From -- ./inp_files/4776.got.cif
#   From: 2010.05.17/outbox.cif.g08.bks.cpg/sg171_3_cif.got.tgz:4776.got - 2010.05.20 11:16:09.
