data_PCOD9580686
_publ_section_title
;
Structure prediction by ZEFSAII (Michael W. Deem and Ramdas Pophale) SiO2 
 PCOD9580686
Probable space group: P 62
;
_chemical_formula_sum "Si O2"
_cell_formula_units_Z 36
_cell_length_a 10.143026
_cell_length_b 10.143026
_cell_length_c 19.537935
_cell_angle_alpha 90.000000
_cell_angle_beta 90.000000
_cell_angle_gamma 120.000000
_cell_volume 1740.781929
_symmetry_space_group_name_H-M "P 62"
_symmetry_group_IT_number 171
_symmetry_cell_setting 'hexagonal'
loop_
_space_group_symop_operation_xyz
x,y,z
x-y,x,1/3+z
-y,x-y,2/3+z
-x,-y,z
-x+y,-x,1/3+z
y,-x+y,2/3+z
loop_
_atom_site_type_symbol
_atom_site_label
_atom_site_fract_x
_atom_site_fract_y
_atom_site_fract_z
Si Si1 0.117905 0.672244 0.018190
Si Si2 0.584510 0.678809 0.991157
Si Si3 0.634883 0.292104 0.773911
Si Si4 0.868632 0.184474 0.517403
Si Si5 0.174633 0.098168 0.720257
Si Si6 0.676692 0.139878 0.897728
O O1 0.205588 0.661987 0.085688
O O2 0.000000 0.500000 0.995903
O O3 0.015537 0.749916 0.023071
O O4 0.254095 0.773916 0.967032
O O5 0.500000 0.500000 0.974175
O O6 0.620591 0.769872 0.919545
O O7 0.464545 0.683106 0.045165
O O8 0.748087 0.743640 0.028071
O O9 0.458029 0.190770 0.797261
O O10 0.707885 0.268577 0.842060
O O11 0.868131 0.058665 0.468659
O O12 0.043023 0.291897 0.538253
O O13 0.000000 0.000000 0.700182
O O14 0.500000 0.000000 0.903012
#
# Coordination Sequence:
#
# PCOD9580686 Si02
#       6
#     6   6   6   6   6   6
#     4  12  25  45  70 109 142 174 236 310 346 401
#     4  12  23  45  78 101 136 200 241 283 365 438
#     4  11  21  45  72 104 133 182 242 295 338 421
#     4  11  23  42  73 102 136 188 243 284 349 442
#     4  12  27  47  68 104 155 185 225 298 369 432
#     4  10  22  44  72  98 136 184 237 285 343 427
#
# _framework density 20.680361999999999
#
# number of rings (size 3 to 8) (size 9 to 14) (size 15 to 20)
#    0.000    0.667    5.000    3.500    2.333    2.000 
#    3.000    0.000    0.000    0.000    0.000    0.000 
#    0.000    0.000    0.000    0.000    0.000    0.000 
#
# Total GULP energy -200646.864515 kJ/mol
# GULP energy per Si atom -5573.524014 kJ/mol
# Density = 2.063329 g / cm^3
# Si number density = 20.680362 Si / 1000 Ang^3
#
#
#
# Elastic Constant Matrix: (Units=GPa)
#
#
# Indices 1 2 3 4 5 6 
#
# 1 81.9342 54.7556 25.8167 0.0000 0.0000 0.0000
# 2 54.7556 81.9342 25.8167 0.0000 0.0000 0.0000
# 3 25.8167 25.8167 68.9118 0.0000 0.0000 0.0000
# 4 0.0000 0.0000 0.0000 17.1459 0.0000 0.0000
# 5 0.0000 0.0000 0.0000 0.0000 17.1459 0.0000
# 6 0.0000 0.0000 0.0000 0.0000 0.0000 13.5893
#
#
#
# Elastic Compliance Matrix: (Units=1/GPa)
#
#
# Indices 1 2 3 4 5 6 
#
# 1 0.022658 -0.014136 -0.003193 0.000000 0.000000 0.000000
# 2 -0.014136 0.022658 -0.003193 0.000000 0.000000 0.000000
# 3 -0.003193 -0.003193 0.016903 0.000000 0.000000 0.000000
# 4 0.000000 0.000000 0.000000 0.058323 0.000000 0.000000
# 5 0.000000 0.000000 0.000000 0.000000 0.058323 0.000000
# 6 0.000000 0.000000 0.000000 0.000000 0.000000 0.073587
#
#
# Mechanical properties :
#
#
# Convention : Reuss Voigt Hill
#
# Bulk Modulus (GPa) = 47.22158 49.50647 48.36402
# Shear Modulus (GPa) = 16.63600 18.00230 17.31915
#
# Velocity S-wave (km/s) = 2.83933 2.95363 2.89704
# Velocity P-wave (km/s) = 5.79937 5.96848 5.88453
#
# Compressibility (1/GPa) = 0.02117676
#
# Stress axis : x y z
#
# Youngs Moduli (GPa) = 44.13504 44.13504 59.15974
#
# Poissons Ratio (x) = 0.62389 0.18887
# Poissons Ratio (y) = 0.62389 0.18887
# Poissons Ratio (z) = 0.14090 0.14090
#
# Static dielectric constant tensor:
#      x y z
#    x 1.774620 0.000000 0.000000 
#    y 0.000000 1.774620 0.000000 
#    z 0.000000 0.000000 1.813500 
# 
# From -- ./inp_files/3636.got.cif
#   From: 2010.05.17/outbox.cif.g08.bks.cpg/sg171_2_cif.got.tgz:3636.got - 2010.05.20 11:16:09.
