data_PCOD9580402
_publ_section_title
;
Structure prediction by ZEFSAII (Michael W. Deem and Ramdas Pophale) SiO2 
 PCOD9580402
Probable space group: P 65
;
_chemical_formula_sum "Si O2"
_cell_formula_units_Z 48
_cell_length_a 11.595980
_cell_length_b 11.595980
_cell_length_c 18.912748
_cell_angle_alpha 90.000000
_cell_angle_beta 90.000000
_cell_angle_gamma 120.000000
_cell_volume 2202.420206
_symmetry_space_group_name_H-M "P 65"
_symmetry_group_IT_number 170
_symmetry_cell_setting 'hexagonal'
loop_
_space_group_symop_operation_xyz
x,y,z
x-y,x,5/6+z
-y,x-y,2/3+z
-x,-y,1/2+z
-x+y,-x,1/3+z
y,-x+y,1/6+z
loop_
_atom_site_type_symbol
_atom_site_label
_atom_site_fract_x
_atom_site_fract_y
_atom_site_fract_z
Si Si1 0.147050 0.639814 0.613820
Si Si2 0.765830 0.141437 0.474284
Si Si3 0.630842 0.373035 0.335659
Si Si4 0.705012 0.539932 0.944587
Si Si5 0.267268 0.871899 0.400191
Si Si6 0.344818 0.150174 0.967535
Si Si7 0.340730 0.326993 0.086413
Si Si8 0.605610 0.613796 0.068839
O O1 0.119342 0.489833 0.606326
O O2 0.279522 0.730225 0.567812
O O3 0.154805 0.661706 0.697200
O O4 0.023370 0.653589 0.587712
O O5 0.781431 0.169197 0.557957
O O6 0.882789 0.275088 0.440990
O O7 0.765975 0.004171 0.460920
O O8 0.756841 0.354087 0.321855
O O9 0.543123 0.328575 0.264639
O O10 0.684701 0.528980 0.341358
O O11 0.863139 0.600523 0.936961
O O12 0.650326 0.624071 0.986433
O O13 0.263732 0.878993 0.315777
O O14 0.121493 0.797260 0.434108
O O15 0.312340 0.242062 0.015889
O O16 0.461739 0.479881 0.078394
#
# Coordination Sequence:
#
# PCOD9580402 Si02
#       8
#     6   6   6   6   6   6   6   6
#     4  12  25  42  71 103 140 183 238 293 362 436
#     4  12  24  43  72 102 144 181 238 291 358 426
#     4  12  23  42  69 110 139 183 230 292 369 418
#     4  12  26  43  70 104 143 187 232 295 360 432
#     4  12  25  43  68 103 141 189 228 305 361 425
#     4  12  25  42  70 108 140 189 240 292 357 430
#     4  12  25  43  72 101 146 184 244 296 358 432
#     4  12  25  44  70 105 143 186 236 300 361 423
#
# _framework density 21.794204000000001
#
# number of rings (size 3 to 8) (size 9 to 14) (size 15 to 20)
#    0.000    0.000    7.500    2.250    3.500    1.000 
#    0.000    0.000   16.500    0.000    0.000    0.000 
#    0.000    0.000    0.000    0.000    0.000    0.000 
#
# Total GULP energy -268291.385173 kJ/mol
# GULP energy per Si atom -5589.403858 kJ/mol
# Density = 2.174460 g / cm^3
# Si number density = 21.794204 Si / 1000 Ang^3
#
#
#
# Elastic Constant Matrix: (Units=GPa)
#
#
# Indices 1 2 3 4 5 6 
#
# 1 70.4050 12.7588 2.4515 0.0000 0.0000 0.0000
# 2 12.7588 70.4050 2.4515 0.0000 0.0000 0.0000
# 3 2.4515 2.4515 92.5573 0.0000 0.0000 0.0000
# 4 0.0000 0.0000 0.0000 27.0823 0.0000 0.0000
# 5 0.0000 0.0000 0.0000 0.0000 27.0823 0.0000
# 6 0.0000 0.0000 0.0000 0.0000 0.0000 28.8231
#
#
#
# Elastic Compliance Matrix: (Units=1/GPa)
#
#
# Indices 1 2 3 4 5 6 
#
# 1 0.014695 -0.002652 -0.000319 0.000000 0.000000 0.000000
# 2 -0.002652 0.014695 -0.000319 0.000000 0.000000 0.000000
# 3 -0.000319 -0.000319 0.010821 0.000000 0.000000 0.000000
# 4 0.000000 0.000000 0.000000 0.036924 0.000000 0.000000
# 5 0.000000 0.000000 0.000000 0.000000 0.036924 0.000000
# 6 0.000000 0.000000 0.000000 0.000000 0.000000 0.034694
#
#
# Mechanical properties :
#
#
# Convention : Reuss Voigt Hill
#
# Bulk Modulus (GPa) = 29.73394 29.85457 29.79425
# Shear Modulus (GPa) = 30.02188 30.97791 30.49989
#
# Velocity S-wave (km/s) = 3.71552 3.77421 3.74498
# Velocity P-wave (km/s) = 5.66387 5.72023 5.69212
#
# Compressibility (1/GPa) = 0.03363160
#
# Stress axis : x y z
#
# Youngs Moduli (GPa) = 68.04931 68.04931 92.41276
#
# Poissons Ratio (x) = 0.18046 0.02948
# Poissons Ratio (y) = 0.18046 0.02948
# Poissons Ratio (z) = 0.02171 0.02171
#
# Static dielectric constant tensor:
#      x y z
#    x 1.814720 0.000000 0.000000 
#    y 0.000000 1.814720 0.000000 
#    z 0.000000 0.000000 1.848120 
# 
# From -- ./inp_files/1456.got.cif
#   From: 2010.05.17/outbox.cif.g08.bks.cpg/sg170_cif.got.tgz:1456.got - 2010.05.20 11:14:30.
