data_PCOD9580203
_publ_section_title
;
Structure prediction by ZEFSAII (Michael W. Deem and Ramdas Pophale) SiO2 
 PCOD9580203
Probable space group: P 65
;
_chemical_formula_sum "Si O2"
_cell_formula_units_Z 42
_cell_length_a 17.080498
_cell_length_b 17.080498
_cell_length_c 8.468416
_cell_angle_alpha 90.000000
_cell_angle_beta 90.000000
_cell_angle_gamma 120.000000
_cell_volume 2139.606327
_symmetry_space_group_name_H-M "P 65"
_symmetry_group_IT_number 170
_symmetry_cell_setting 'hexagonal'
loop_
_space_group_symop_operation_xyz
x,y,z
x-y,x,5/6+z
-y,x-y,2/3+z
-x,-y,1/2+z
-x+y,-x,1/3+z
y,-x+y,1/6+z
loop_
_atom_site_type_symbol
_atom_site_label
_atom_site_fract_x
_atom_site_fract_y
_atom_site_fract_z
Si Si1 0.340167 0.233568 0.488920
Si Si2 0.658114 0.166754 0.936217
Si Si3 0.982364 0.598154 0.373952
Si Si4 0.109488 0.928297 0.177217
Si Si5 0.156576 0.372696 0.685973
Si Si6 0.819663 0.318081 0.723060
Si Si7 0.259228 0.029704 0.422680
O O1 0.434645 0.304465 0.409160
O O2 0.350750 0.218362 0.670711
O O3 0.264514 0.257970 0.432417
O O4 0.304464 0.135938 0.411325
O O5 0.594511 0.081233 0.820838
O O6 0.745802 0.242537 0.841272
O O7 0.598670 0.206738 0.005198
O O8 0.912550 0.594360 0.243248
O O9 0.002221 0.682410 0.485109
O O10 0.079514 0.624918 0.300089
O O11 0.149699 0.866616 0.118337
O O12 0.162561 0.979785 0.336635
O O13 0.004732 0.870472 0.213997
O O14 0.258627 0.443571 0.737299
#
# Coordination Sequence:
#
# PCOD9580203 Si02
#       7
#     6   6   6   6   6   6   6
#     4  11  22  38  61 100 124 166 218 262 323 378
#     4  10  24  42  68  93 126 171 210 268 336 391
#     4   9  20  41  63  90 120 168 207 258 321 385
#     4  11  22  41  58  87 127 179 215 265 325 381
#     4  10  23  38  67  93 124 171 218 268 316 389
#     4  11  22  45  65  92 132 167 215 268 332 400
#     4  10  19  37  64  85 127 164 209 261 313 382
#
# _framework density 19.629781000000001
#
# number of rings (size 3 to 8) (size 9 to 14) (size 15 to 20)
#    0.000    1.714    2.857    2.571    4.000    2.286 
#    5.143    2.857    0.000    0.000    0.000    0.000 
#    0.000    0.000    0.000    0.000    0.000    0.000 
#
# Total GULP energy -234214.240969 kJ/mol
# GULP energy per Si atom -5576.529547 kJ/mol
# Density = 1.958510 g / cm^3
# Si number density = 19.629781 Si / 1000 Ang^3
#
#
#
# Elastic Constant Matrix: (Units=GPa)
#
#
# Indices 1 2 3 4 5 6 
#
# 1 68.1320 15.3544 11.3309 0.0000 0.0000 0.0000
# 2 15.3544 68.1320 11.3309 0.0000 0.0000 0.0000
# 3 11.3309 11.3309 64.5003 0.0000 0.0000 0.0000
# 4 0.0000 0.0000 0.0000 17.9697 0.0000 0.0000
# 5 0.0000 0.0000 0.0000 0.0000 17.9697 0.0000
# 6 0.0000 0.0000 0.0000 0.0000 0.0000 26.3888
#
#
#
# Elastic Compliance Matrix: (Units=1/GPa)
#
#
# Indices 1 2 3 4 5 6 
#
# 1 0.015763 -0.003185 -0.002210 0.000000 0.000000 0.000000
# 2 -0.003185 0.015763 -0.002210 0.000000 0.000000 0.000000
# 3 -0.002210 -0.002210 0.016280 0.000000 0.000000 0.000000
# 4 0.000000 0.000000 0.000000 0.055649 0.000000 0.000000
# 5 0.000000 0.000000 0.000000 0.000000 0.055649 0.000000
# 6 0.000000 0.000000 0.000000 0.000000 0.000000 0.037895
#
#
# Mechanical properties :
#
#
# Convention : Reuss Voigt Hill
#
# Bulk Modulus (GPa) = 30.67727 30.75517 30.71622
# Shear Modulus (GPa) = 22.41426 23.31552 22.86489
#
# Velocity S-wave (km/s) = 3.38279 3.45013 3.41663
# Velocity P-wave (km/s) = 5.56054 5.61897 5.58983
#
# Compressibility (1/GPa) = 0.03259743
#
# Stress axis : x y z
#
# Youngs Moduli (GPa) = 63.44130 63.44130 61.42467
#
# Poissons Ratio (x) = 0.20205 0.13572
# Poissons Ratio (y) = 0.20205 0.13572
# Poissons Ratio (z) = 0.14018 0.14018
#
# Static dielectric constant tensor:
#      x y z
#    x 1.690430 0.000000 0.000000 
#    y 0.000000 1.690430 0.000000 
#    z 0.000000 0.000000 1.719250 
# 
# From -- ./inp_files/692.got.cif
#   From: 2010.05.17/outbox.cif.g08.bks.cpg/sg170_cif.got.tgz:692.got - 2010.05.20 11:14:30.
