data_PCOD9580592
_publ_section_title
;
Structure prediction by ZEFSAII (Michael W. Deem and Ramdas Pophale) SiO2 
 PCOD9580592
Probable space group: P 62
;
_chemical_formula_sum "Si O2"
_cell_formula_units_Z 39
_cell_length_a 20.557416
_cell_length_b 20.557416
_cell_length_c 4.975406
_cell_angle_alpha 90.000000
_cell_angle_beta 90.000000
_cell_angle_gamma 120.000000
_cell_volume 1820.942390
_symmetry_space_group_name_H-M "P 62"
_symmetry_group_IT_number 171
_symmetry_cell_setting 'hexagonal'
loop_
_space_group_symop_operation_xyz
x,y,z
x-y,x,1/3+z
-y,x-y,2/3+z
-x,-y,z
-x+y,-x,1/3+z
y,-x+y,2/3+z
loop_
_atom_site_type_symbol
_atom_site_label
_atom_site_fract_x
_atom_site_fract_y
_atom_site_fract_z
Si Si1 0.789372 0.749201 0.331670
Si Si2 0.382945 0.752849 0.793644
Si Si3 0.282462 0.875916 0.324900
Si Si4 0.863179 0.131515 0.180147
Si Si5 0.500000 0.500000 0.903153
Si Si6 0.159392 0.562658 0.980824
Si Si7 0.647214 0.019609 0.819587
O O1 0.767781 0.812045 0.422230
O O2 0.823030 0.730903 0.588448
O O3 0.712512 0.675249 0.238980
O O4 0.848833 0.771232 0.088538
O O5 0.302138 0.697389 0.658032
O O6 0.426228 0.794163 0.520031
O O7 0.396496 0.817352 0.005078
O O8 0.195011 0.841622 0.274394
O O9 0.320254 0.826339 0.395056
O O10 0.304856 0.937111 0.558129
O O11 0.325232 0.920097 0.057429
O O12 0.569272 0.561723 0.078939
O O13 0.469048 0.542086 0.716714
#
# Coordination Sequence:
#
# PCOD9580592 Si02
#       7
#     6   6   6   6   3   6   6
#     4  11  22  40  67  99 134 179 224 282 339 412
#     4  12  23  46  67  89 127 176 226 275 319 392
#     4  10  21  40  64  92 130 173 208 274 336 399
#     4  11  22  41  67  97 134 176 228 275 343 407
#     4  10  24  44  68 102 136 174 214 284 344 400
#     4  11  23  41  71  95 131 174 216 277 351 389
#     4  10  21  40  64  94 134 171 215 267 340 406
#
# _framework density 21.417480999999999
#
# number of rings (size 3 to 8) (size 9 to 14) (size 15 to 20)
#    0.000    1.231    1.538    6.462    0.000    5.538 
#    8.308    0.000    0.000    4.615    0.000    0.000 
#    0.000    0.000    0.000    0.000    0.000    0.000 
#
# Total GULP energy -217610.888961 kJ/mol
# GULP energy per Si atom -5579.766384 kJ/mol
# Density = 2.136873 g / cm^3
# Si number density = 21.417481 Si / 1000 Ang^3
#
#
#
# Elastic Constant Matrix: (Units=GPa)
#
#
# Indices 1 2 3 4 5 6 
#
# 1 88.6290 44.1046 56.5828 0.0000 0.0000 0.0000
# 2 44.1046 88.6290 56.5828 0.0000 0.0000 0.0000
# 3 56.5828 56.5828 184.7892 0.0000 0.0000 0.0000
# 4 0.0000 0.0000 0.0000 38.7679 0.0000 0.0000
# 5 0.0000 0.0000 0.0000 0.0000 38.7679 0.0000
# 6 0.0000 0.0000 0.0000 0.0000 0.0000 22.2622
#
#
#
# Elastic Compliance Matrix: (Units=1/GPa)
#
#
# Indices 1 2 3 4 5 6 
#
# 1 0.016328 -0.006132 -0.003122 0.000000 0.000000 0.000000
# 2 -0.006132 0.016328 -0.003122 0.000000 0.000000 0.000000
# 3 -0.003122 -0.003122 0.007323 0.000000 0.000000 0.000000
# 4 0.000000 0.000000 0.000000 0.025795 0.000000 0.000000
# 5 0.000000 0.000000 0.000000 0.000000 0.025795 0.000000
# 6 0.000000 0.000000 0.000000 0.000000 0.000000 0.044919
#
#
# Mechanical properties :
#
#
# Convention : Reuss Voigt Hill
#
# Bulk Modulus (GPa) = 65.67307 75.17639 70.42473
# Shear Modulus (GPa) = 30.06359 33.61141 31.83750
#
# Velocity S-wave (km/s) = 3.75066 3.96579 3.85972
# Velocity P-wave (km/s) = 7.03466 7.49311 7.26750
#
# Compressibility (1/GPa) = 0.01522694
#
# Stress axis : x y z
#
# Youngs Moduli (GPa) = 61.24607 61.24607 136.54807
#
# Poissons Ratio (x) = 0.37556 0.42629
# Poissons Ratio (y) = 0.37556 0.42629
# Poissons Ratio (z) = 0.19120 0.19120
#
# Static dielectric constant tensor:
#      x y z
#    x 1.827010 0.000000 0.000000 
#    y 0.000000 1.827010 0.000000 
#    z 0.000000 0.000000 1.733770 
# 
# From -- ./inp_files/444.got.cif
#   From: 2010.05.17/outbox.cif.g08.bks.cpg/sg171_1_cif.got.tgz:444.got - 2010.05.20 11:16:09.
