data_PCOD9580106
_publ_section_title
;
Structure prediction by ZEFSAII (Michael W. Deem and Ramdas Pophale) SiO2 
 PCOD9580106
Probable space group: P 61
;
_chemical_formula_sum "Si O2"
_cell_formula_units_Z 48
_cell_length_a 11.951195
_cell_length_b 11.951195
_cell_length_c 17.387750
_cell_angle_alpha 90.000000
_cell_angle_beta 90.000000
_cell_angle_gamma 120.000000
_cell_volume 2150.783441
_symmetry_space_group_name_H-M "P 61"
_symmetry_group_IT_number 169
_symmetry_cell_setting 'hexagonal'
loop_
_space_group_symop_operation_xyz
x,y,z
x-y,x,1/6+z
-y,x-y,1/3+z
-x,-y,1/2+z
-x+y,-x,2/3+z
y,-x+y,5/6+z
loop_
_atom_site_type_symbol
_atom_site_label
_atom_site_fract_x
_atom_site_fract_y
_atom_site_fract_z
Si Si1 0.117608 0.729562 0.908190
Si Si2 0.923824 0.466727 0.855371
Si Si3 0.903132 0.987965 0.604365
Si Si4 0.661904 0.515944 0.351921
Si Si5 0.720701 0.793710 0.968031
Si Si6 0.333237 0.265403 0.637109
Si Si7 0.243868 0.614728 0.203497
Si Si8 0.933207 0.402184 0.565347
O O1 0.098787 0.847937 0.932181
O O2 0.239565 0.760608 0.855514
O O3 0.986554 0.618753 0.868693
O O4 0.134248 0.663598 0.985586
O O5 0.858585 0.390893 0.932502
O O6 0.835205 0.408786 0.781755
O O7 0.039641 0.437929 0.840922
O O8 0.954958 0.949201 0.681497
O O9 0.948867 0.136904 0.625753
O O10 0.801979 0.642885 0.344281
O O11 0.662075 0.390138 0.383974
O O12 0.556657 0.541540 0.392249
O O13 0.638212 0.682494 0.907262
O O14 0.745127 0.938773 0.970700
O O15 0.645038 0.734868 0.046715
O O16 0.167340 0.641032 0.135410
#
# Coordination Sequence:
#
# PCOD9580106 Si02
#       8
#     6   6   6   6   6   6   6   6
#     4  11  24  45  68 103 144 186 234 304 371 439
#     4  11  23  40  68 100 137 177 228 295 360 427
#     4  12  25  45  74 107 142 194 255 311 373 447
#     4  11  26  43  66 103 139 184 228 295 368 428
#     4  12  23  42  73 102 132 186 247 298 352 439
#     4  12  22  42  66  98 139 178 234 294 359 429
#     4  12  24  43  70 103 136 185 234 292 364 437
#     4  11  25  44  71 106 141 182 242 299 361 440
#
# _framework density 22.317450000000001
#
# number of rings (size 3 to 8) (size 9 to 14) (size 15 to 20)
#    0.000    0.500    6.250    2.250    3.500    0.000 
#    4.500    0.000    0.000    0.000    0.000    0.000 
#    0.000    0.000    0.000    0.000    0.000    0.000 
#
# Total GULP energy -267930.490180 kJ/mol
# GULP energy per Si atom -5581.885212 kJ/mol
# Density = 2.226665 g / cm^3
# Si number density = 22.317450 Si / 1000 Ang^3
#
#
#
# Elastic Constant Matrix: (Units=GPa)
#
#
# Indices 1 2 3 4 5 6 
#
# 1 77.0701 12.9202 8.9974 0.0000 0.0000 0.0000
# 2 12.9202 77.0701 8.9974 0.0000 0.0000 0.0000
# 3 8.9974 8.9974 71.9883 0.0000 0.0000 0.0000
# 4 0.0000 0.0000 0.0000 22.5402 0.0000 0.0000
# 5 0.0000 0.0000 0.0000 0.0000 22.5402 0.0000
# 6 0.0000 0.0000 0.0000 0.0000 0.0000 32.0749
#
#
#
# Elastic Compliance Matrix: (Units=1/GPa)
#
#
# Indices 1 2 3 4 5 6 
#
# 1 0.013493 -0.002096 -0.001424 0.000000 0.000000 0.000000
# 2 -0.002096 0.013493 -0.001424 0.000000 0.000000 0.000000
# 3 -0.001424 -0.001424 0.014247 0.000000 0.000000 0.000000
# 4 0.000000 0.000000 0.000000 0.044365 0.000000 0.000000
# 5 0.000000 0.000000 0.000000 0.000000 0.044365 0.000000
# 6 0.000000 0.000000 0.000000 0.000000 0.000000 0.031177
#
#
# Mechanical properties :
#
#
# Convention : Reuss Voigt Hill
#
# Bulk Modulus (GPa) = 31.90435 31.99536 31.94985
# Shear Modulus (GPa) = 27.55168 28.44532 27.99850
#
# Velocity S-wave (km/s) = 3.51741 3.57400 3.54581
# Velocity P-wave (km/s) = 5.55184 5.60347 5.57771
#
# Compressibility (1/GPa) = 0.03134369
#
# Stress axis : x y z
#
# Youngs Moduli (GPa) = 74.11348 74.11348 70.18916
#
# Poissons Ratio (x) = 0.15532 0.09998
# Poissons Ratio (y) = 0.15532 0.09998
# Poissons Ratio (z) = 0.10557 0.10557
#
# Static dielectric constant tensor:
#      x y z
#    x 1.867390 0.000000 0.000000 
#    y 0.000000 1.867390 0.000000 
#    z 0.000000 0.000000 1.829820 
# 
# From -- ./inp_files/1417.got.cif
#   From: 2010.05.17/outbox.cif.g08.bks.cpg/sg169_cif.got.tgz:1417.got - 2010.05.20 11:12:54.
