data_PCOD9580082
_publ_section_title
;
Structure prediction by ZEFSAII (Michael W. Deem and Ramdas Pophale) SiO2 
 PCOD9580082
Probable space group: P 61
;
_chemical_formula_sum "Si O2"
_cell_formula_units_Z 48
_cell_length_a 12.333141
_cell_length_b 12.333141
_cell_length_c 19.120030
_cell_angle_alpha 90.000000
_cell_angle_beta 90.000000
_cell_angle_gamma 120.000000
_cell_volume 2518.642888
_symmetry_space_group_name_H-M "P 61"
_symmetry_group_IT_number 169
_symmetry_cell_setting 'hexagonal'
loop_
_space_group_symop_operation_xyz
x,y,z
x-y,x,1/6+z
-y,x-y,1/3+z
-x,-y,1/2+z
-x+y,-x,2/3+z
y,-x+y,5/6+z
loop_
_atom_site_type_symbol
_atom_site_label
_atom_site_fract_x
_atom_site_fract_y
_atom_site_fract_z
Si Si1 0.089958 0.532832 0.981680
Si Si2 0.329677 0.959889 0.872995
Si Si3 0.426707 0.387696 0.536077
Si Si4 0.772823 0.543872 0.583454
Si Si5 0.557196 0.398917 0.393742
Si Si6 0.469972 0.642584 0.171336
Si Si7 0.830595 0.160386 0.649641
Si Si8 0.196763 0.321683 0.322277
O O1 0.080884 0.479958 0.904341
O O2 0.106826 0.668596 0.970027
O O3 0.199913 0.539015 0.029548
O O4 0.968023 0.456564 0.028310
O O5 0.270812 0.889796 0.801036
O O6 0.225960 0.897672 0.933969
O O7 0.460512 0.956838 0.884199
O O8 0.370824 0.105142 0.872626
O O9 0.513127 0.381518 0.474175
O O10 0.436213 0.320533 0.605991
O O11 0.284499 0.327101 0.508260
O O12 0.657623 0.464882 0.635897
O O13 0.694475 0.430268 0.372890
O O14 0.452724 0.276306 0.354265
O O15 0.820880 0.167334 0.566620
O O16 0.798470 0.016487 0.661189
#
# Coordination Sequence:
#
# PCOD9580082 Si02
#       8
#     6   6   6   6   6   6   6   6
#     4  11  22  38  57  93 123 161 206 263 315 389
#     4  11  21  38  62  94 124 163 211 266 319 386
#     4  11  23  41  61  97 131 166 212 270 333 385
#     4  11  22  39  61  91 129 157 212 263 320 382
#     4  11  23  40  63  91 130 167 204 266 331 382
#     4  11  23  37  61  92 123 169 203 258 330 393
#     4  11  22  41  62  94 127 169 214 267 320 384
#     4  11  22  38  65  90 127 166 218 263 318 379
#
# _framework density 19.057884000000001
#
# number of rings (size 3 to 8) (size 9 to 14) (size 15 to 20)
#    0.000    1.000    5.000    3.750    5.250    1.000 
#    0.000    0.000    0.000    4.500    0.000    0.000 
#    0.000    0.000    0.000    0.000    0.000    0.000 
#
# Total GULP energy -267602.755307 kJ/mol
# GULP energy per Si atom -5575.057402 kJ/mol
# Density = 1.901451 g / cm^3
# Si number density = 19.057884 Si / 1000 Ang^3
#
#
#
# Elastic Constant Matrix: (Units=GPa)
#
#
# Indices 1 2 3 4 5 6 
#
# 1 50.9990 4.2738 6.4356 0.0000 0.0000 0.0000
# 2 4.2738 50.9990 6.4356 0.0000 0.0000 0.0000
# 3 6.4356 6.4356 116.6063 0.0000 0.0000 0.0000
# 4 0.0000 0.0000 0.0000 27.9701 0.0000 0.0000
# 5 0.0000 0.0000 0.0000 0.0000 27.9701 0.0000
# 6 0.0000 0.0000 0.0000 0.0000 0.0000 23.3626
#
#
#
# Elastic Compliance Matrix: (Units=1/GPa)
#
#
# Indices 1 2 3 4 5 6 
#
# 1 0.019865 -0.001537 -0.001012 0.000000 0.000000 0.000000
# 2 -0.001537 0.019865 -0.001012 0.000000 0.000000 0.000000
# 3 -0.001012 -0.001012 0.008688 0.000000 0.000000 0.000000
# 4 0.000000 0.000000 0.000000 0.035752 0.000000 0.000000
# 5 0.000000 0.000000 0.000000 0.000000 0.035752 0.000000
# 6 0.000000 0.000000 0.000000 0.000000 0.000000 0.042804
#
#
# Mechanical properties :
#
#
# Convention : Reuss Voigt Hill
#
# Bulk Modulus (GPa) = 24.21499 28.09935 26.15717
# Shear Modulus (GPa) = 27.23146 29.29116 28.26131
#
# Velocity S-wave (km/s) = 3.78416 3.92466 3.85505
# Velocity P-wave (km/s) = 5.64152 5.94251 5.79397
#
# Compressibility (1/GPa) = 0.04129673
#
# Stress axis : x y z
#
# Youngs Moduli (GPa) = 50.34056 50.34056 115.10764
#
# Poissons Ratio (x) = 0.07738 0.11643
# Poissons Ratio (y) = 0.07738 0.11643
# Poissons Ratio (z) = 0.05092 0.05092
#
# Static dielectric constant tensor:
#      x y z
#    x 1.716440 0.000000 0.000000 
#    y 0.000000 1.716440 0.000000 
#    z 0.000000 0.000000 1.675240 
# 
# From -- ./inp_files/1421.got.cif
#   From: 2010.05.17/outbox.cif.g08.bks.cpg/sg169_cif.got.tgz:1421.got - 2010.05.20 11:12:54.
