data_PCOD9580646
_publ_section_title
;
Structure prediction by ZEFSAII (Michael W. Deem and Ramdas Pophale) SiO2 
 PCOD9580646
Probable space group: P 62
;
_chemical_formula_sum "Si O2"
_cell_formula_units_Z 27
_cell_length_a 11.228087
_cell_length_b 11.228087
_cell_length_c 13.306344
_cell_angle_alpha 90.000000
_cell_angle_beta 90.000000
_cell_angle_gamma 120.000000
_cell_volume 1452.783560
_symmetry_space_group_name_H-M "P 62"
_symmetry_group_IT_number 171
_symmetry_cell_setting 'hexagonal'
loop_
_space_group_symop_operation_xyz
x,y,z
x-y,x,1/3+z
-y,x-y,2/3+z
-x,-y,z
-x+y,-x,1/3+z
y,-x+y,2/3+z
loop_
_atom_site_type_symbol
_atom_site_label
_atom_site_fract_x
_atom_site_fract_y
_atom_site_fract_z
Si Si1 0.694376 0.360529 0.896090
Si Si2 0.880611 0.343860 0.062165
Si Si3 0.856764 0.365112 0.410991
Si Si4 0.000000 0.000000 0.216859
Si Si5 0.223307 0.141764 0.720946
O O1 0.718191 0.472397 0.808842
O O2 0.583108 0.219546 0.846014
O O3 0.819617 0.354612 0.952860
O O4 0.624660 0.394665 0.986900
O O5 0.000000 0.500000 0.089852
O O6 0.958630 0.257512 0.064641
O O7 0.859189 0.224991 0.390679
O O8 0.000000 0.500000 0.410197
O O9 0.085579 0.128866 0.143659
O O10 0.914918 0.047026 0.287434
#
# Coordination Sequence:
#
# PCOD9580646 Si02
#       5
#     6   6   6   3   6
#     4  10  22  40  62  97 121 167 217 255 335 375
#     4  11  21  41  65  93 129 168 213 270 326 388
#     4  11  24  40  66  94 127 167 216 267 317 381
#     4  10  26  42  64  96 120 182 212 254 334 392
#     4  11  23  44  66  90 134 168 214 268 321 388
#
# _framework density 18.585011000000002
#
# number of rings (size 3 to 8) (size 9 to 14) (size 15 to 20)
#    0.000    1.333    4.444    2.000    6.222    0.000 
#    0.000    4.444    0.000    0.000    0.000    0.000 
#    0.000    0.000    0.000    0.000    0.000    0.000 
#
# Total GULP energy -150496.159142 kJ/mol
# GULP energy per Si atom -5573.931820 kJ/mol
# Density = 1.854271 g / cm^3
# Si number density = 18.585011 Si / 1000 Ang^3
#
#
#
# Elastic Constant Matrix: (Units=GPa)
#
#
# Indices 1 2 3 4 5 6 
#
# 1 72.2313 27.3405 27.7223 0.0000 0.0000 0.0000
# 2 27.3405 72.2313 27.7223 0.0000 0.0000 0.0000
# 3 27.7223 27.7223 96.7809 0.0000 0.0000 0.0000
# 4 0.0000 0.0000 0.0000 24.7636 0.0000 0.0000
# 5 0.0000 0.0000 0.0000 0.0000 24.7636 0.0000
# 6 0.0000 0.0000 0.0000 0.0000 0.0000 22.4454
#
#
#
# Elastic Compliance Matrix: (Units=1/GPa)
#
#
# Indices 1 2 3 4 5 6 
#
# 1 0.017113 -0.005164 -0.003423 0.000000 0.000000 0.000000
# 2 -0.005164 0.017113 -0.003423 0.000000 0.000000 0.000000
# 3 -0.003423 -0.003423 0.012293 0.000000 0.000000 0.000000
# 4 0.000000 0.000000 0.000000 0.040382 0.000000 0.000000
# 5 0.000000 0.000000 0.000000 0.000000 0.040382 0.000000
# 6 0.000000 0.000000 0.000000 0.000000 0.000000 0.044553
#
#
# Mechanical properties :
#
#
# Convention : Reuss Voigt Hill
#
# Bulk Modulus (GPa) = 44.44358 45.20151 44.82255
# Shear Modulus (GPa) = 24.58778 24.95842 24.77310
#
# Velocity S-wave (km/s) = 3.64124 3.66858 3.65494
# Velocity P-wave (km/s) = 6.45320 6.50530 6.47930
#
# Compressibility (1/GPa) = 0.02250044
#
# Stress axis : x y z
#
# Youngs Moduli (GPa) = 58.43665 58.43665 81.34435
#
# Poissons Ratio (x) = 0.30175 0.27841
# Poissons Ratio (y) = 0.30175 0.27841
# Poissons Ratio (z) = 0.20001 0.20001
#
# Static dielectric constant tensor:
#      x y z
#    x 1.667350 0.000000 0.000000 
#    y 0.000000 1.667350 0.000000 
#    z 0.000000 0.000000 1.667440 
# 
# From -- ./inp_files/2322.got.cif
#   From: 2010.05.17/outbox.cif.g08.bks.cpg/sg171_2_cif.got.tgz:2322.got - 2010.05.20 11:16:09.
