data_PCOD9580418
_publ_section_title
;
Structure prediction by ZEFSAII (Michael W. Deem and Ramdas Pophale) SiO2 
 PCOD9580418
Probable space group: P 62
;
_chemical_formula_sum "Si O2"
_cell_formula_units_Z 42
_cell_length_a 7.668118
_cell_length_b 7.668118
_cell_length_c 31.827098
_cell_angle_alpha 90.000000
_cell_angle_beta 90.000000
_cell_angle_gamma 120.000000
_cell_volume 1620.709761
_symmetry_space_group_name_H-M "P 62"
_symmetry_group_IT_number 171
_symmetry_cell_setting 'hexagonal'
loop_
_space_group_symop_operation_xyz
x,y,z
x-y,x,1/3+z
-y,x-y,2/3+z
-x,-y,z
-x+y,-x,1/3+z
y,-x+y,2/3+z
loop_
_atom_site_type_symbol
_atom_site_label
_atom_site_fract_x
_atom_site_fract_y
_atom_site_fract_z
Si Si1 0.957198 0.236851 0.162320
Si Si2 0.242462 0.769680 0.724869
Si Si3 0.663164 0.328751 0.639405
Si Si4 0.995199 0.790211 0.989157
Si Si5 0.773413 0.622229 0.737188
Si Si6 0.634963 0.244085 0.216648
Si Si7 0.091907 0.332996 0.483009
O O1 0.934869 0.296988 0.115875
O O2 0.844995 0.282629 0.198405
O O3 0.190310 0.317450 0.168648
O O4 0.818316 0.997055 0.154821
O O5 0.281233 0.793014 0.673877
O O6 0.328142 0.616066 0.729603
O O7 0.299617 0.902415 0.767777
O O8 0.004942 0.680714 0.730605
O O9 0.419834 0.233657 0.638912
O O10 0.771600 0.573218 0.648604
O O11 0.711794 0.329908 0.590476
O O12 0.981432 0.761773 0.039528
O O13 0.000000 0.000000 0.977812
O O14 0.515014 0.276357 0.179084
O O15 0.500000 0.000000 0.227250
#
# Coordination Sequence:
#
# PCOD9580418 Si02
#       7
#     6   6   6   6   6   6   6
#     4   9  17  28  52  91 132 170 224 289 354 430
#     4   9  17  33  56  85 128 172 218 278 358 417
#     4  10  21  38  55  88 137 179 228 286 360 425
#     4  10  21  35  57  87 125 172 222 290 345 420
#     4   9  17  32  56  87 127 165 218 285 351 410
#     4  10  17  32  50  84 133 177 226 286 347 435
#     4   9  17  28  52  90 131 174 225 287 358 423
#
# _framework density 25.914569
#
# number of rings (size 3 to 8) (size 9 to 14) (size 15 to 20)
#    0.000    2.571    2.857    0.000    4.000    1.143 
#    0.000    0.714    0.000    0.000    0.000   14.000 
#    0.000    0.000    0.857    0.000    0.000    0.000 
#
# Total GULP energy -233966.718009 kJ/mol
# GULP energy per Si atom -5570.636143 kJ/mol
# Density = 2.585559 g / cm^3
# Si number density = 25.914569 Si / 1000 Ang^3
#
#
#
# Elastic Constant Matrix: (Units=GPa)
#
#
# Indices 1 2 3 4 5 6 
#
# 1 115.2847 61.5587 34.5462 0.0000 0.0000 0.0000
# 2 61.5587 115.2847 34.5462 0.0000 0.0000 0.0000
# 3 34.5462 34.5462 152.6053 0.0000 0.0000 0.0000
# 4 0.0000 0.0000 0.0000 36.4238 0.0000 0.0000
# 5 0.0000 0.0000 0.0000 0.0000 36.4238 0.0000
# 6 0.0000 0.0000 0.0000 0.0000 0.0000 26.8630
#
#
#
# Elastic Compliance Matrix: (Units=1/GPa)
#
#
# Indices 1 2 3 4 5 6 
#
# 1 0.012408 -0.006205 -0.001404 0.000000 0.000000 0.000000
# 2 -0.006205 0.012408 -0.001404 0.000000 0.000000 0.000000
# 3 -0.001404 -0.001404 0.007189 0.000000 0.000000 0.000000
# 4 0.000000 0.000000 0.000000 0.027455 0.000000 0.000000
# 5 0.000000 0.000000 0.000000 0.000000 0.027455 0.000000
# 6 0.000000 0.000000 0.000000 0.000000 0.000000 0.037226
#
#
# Mechanical properties :
#
#
# Convention : Reuss Voigt Hill
#
# Bulk Modulus (GPa) = 71.53987 71.60854 71.57421
# Shear Modulus (GPa) = 34.05383 36.77701 35.41542
#
# Velocity S-wave (km/s) = 3.62896 3.77127 3.70080
# Velocity P-wave (km/s) = 6.72496 6.83050 6.77794
#
# Compressibility (1/GPa) = 0.01397822
#
# Stress axis : x y z
#
# Youngs Moduli (GPa) = 80.59200 80.59200 139.10815
#
# Poissons Ratio (x) = 0.50006 0.19535
# Poissons Ratio (y) = 0.50006 0.19535
# Poissons Ratio (z) = 0.11318 0.11318
#
# Static dielectric constant tensor:
#      x y z
#    x 2.115860 0.000000 0.000000 
#    y 0.000000 2.115860 0.000000 
#    z 0.000000 0.000000 2.094700 
# 
# From -- ./inp_files/6126.got.cif
#   From: 2010.05.17/outbox.cif.g08.bks.cpg/sg171_4_cif.got.tgz:6126.got - 2010.05.20 11:16:09.
