data_PCOD9580784
_publ_section_title
;
Structure prediction by ZEFSAII (Michael W. Deem and Ramdas Pophale) SiO2 
 PCOD9580784
Probable space group: P 62
;
_chemical_formula_sum "Si O2"
_cell_formula_units_Z 36
_cell_length_a 18.011535
_cell_length_b 18.011535
_cell_length_c 7.499972
_cell_angle_alpha 90.000000
_cell_angle_beta 90.000000
_cell_angle_gamma 120.000000
_cell_volume 2107.131922
_symmetry_space_group_name_H-M "P 62"
_symmetry_group_IT_number 171
_symmetry_cell_setting 'hexagonal'
loop_
_space_group_symop_operation_xyz
x,y,z
x-y,x,1/3+z
-y,x-y,2/3+z
-x,-y,z
-x+y,-x,1/3+z
y,-x+y,2/3+z
loop_
_atom_site_type_symbol
_atom_site_label
_atom_site_fract_x
_atom_site_fract_y
_atom_site_fract_z
Si Si1 0.584183 0.998047 0.072410
Si Si2 0.464922 0.314427 0.866991
Si Si3 0.857412 0.323223 0.485184
Si Si4 0.400835 0.434327 0.809427
Si Si5 0.348549 0.825899 0.938654
Si Si6 0.379857 0.733742 0.420235
O O1 0.561938 0.952735 0.264207
O O2 0.500000 0.000000 0.004115
O O3 0.648171 0.100067 0.066464
O O4 0.599464 0.940122 0.934131
O O5 0.447064 0.219997 0.824730
O O6 0.394884 0.342038 0.830826
O O7 0.555469 0.375883 0.763480
O O8 0.484229 0.328555 0.076009
O O9 0.828621 0.387822 0.579551
O O10 0.891697 0.347842 0.282974
O O11 0.500000 0.500000 0.856646
O O12 0.276369 0.732647 0.005005
O O13 0.303082 0.671695 0.286257
#
# Coordination Sequence:
#
# PCOD9580784 Si02
#       6
#     6   6   6   6   6   6
#     4   9  20  35  53  67  94 138 173 216 281 339
#     4  12  22  35  54  76 101 138 180 238 281 326
#     4  11  20  37  51  71 103 135 178 231 283 329
#     4  11  21  37  55  70 102 142 177 225 291 338
#     4  11  19  36  50  71 104 132 176 234 286 337
#     4  12  21  32  45  72 102 125 170 235 281 309
#
# _framework density 17.084834000000001
#
# number of rings (size 3 to 8) (size 9 to 14) (size 15 to 20)
#    0.000    1.000    6.667    1.500    0.000    2.667 
#    3.000    0.000    0.000    0.000    0.000    0.000 
#    0.000    0.000    0.000    0.000    0.000    8.333 
#
# Total GULP energy -200781.860917 kJ/mol
# GULP energy per Si atom -5577.273914 kJ/mol
# Density = 1.704595 g / cm^3
# Si number density = 17.084834 Si / 1000 Ang^3
#
#
#
# Elastic Constant Matrix: (Units=GPa)
#
#
# Indices 1 2 3 4 5 6 
#
# 1 55.1521 18.6108 9.1480 0.0000 0.0000 0.0000
# 2 18.6108 55.1521 9.1480 0.0000 0.0000 0.0000
# 3 9.1480 9.1480 68.1764 0.0000 0.0000 0.0000
# 4 0.0000 0.0000 0.0000 24.3308 0.0000 0.0000
# 5 0.0000 0.0000 0.0000 0.0000 24.3308 0.0000
# 6 0.0000 0.0000 0.0000 0.0000 0.0000 18.2707
#
#
#
# Elastic Compliance Matrix: (Units=1/GPa)
#
#
# Indices 1 2 3 4 5 6 
#
# 1 0.020695 -0.006671 -0.001882 0.000000 0.000000 0.000000
# 2 -0.006671 0.020695 -0.001882 0.000000 0.000000 0.000000
# 3 -0.001882 -0.001882 0.015173 0.000000 0.000000 0.000000
# 4 0.000000 0.000000 0.000000 0.041100 0.000000 0.000000
# 5 0.000000 0.000000 0.000000 0.000000 0.041100 0.000000
# 6 0.000000 0.000000 0.000000 0.000000 0.000000 0.054733
#
#
# Mechanical properties :
#
#
# Convention : Reuss Voigt Hill
#
# Bulk Modulus (GPa) = 28.01643 28.03268 28.02456
# Shear Modulus (GPa) = 22.09818 22.82471 22.46144
#
# Velocity S-wave (km/s) = 3.60034 3.65905 3.62981
# Velocity P-wave (km/s) = 5.80666 5.85620 5.83148
#
# Compressibility (1/GPa) = 0.03569334
#
# Stress axis : x y z
#
# Youngs Moduli (GPa) = 48.32089 48.32089 65.90733
#
# Poissons Ratio (x) = 0.32236 0.12402
# Poissons Ratio (y) = 0.32236 0.12402
# Poissons Ratio (z) = 0.09093 0.09093
#
# Static dielectric constant tensor:
#      x y z
#    x 1.639490 0.000000 0.000000 
#    y 0.000000 1.639490 0.000000 
#    z 0.000000 0.000000 1.641130 
# 
# From -- ./inp_files/726.got.cif
#   From: 2010.05.17/outbox.cif.g08.bks.cpg/sg171_1_cif.got.tgz:726.got - 2010.05.20 11:16:09.
