data_PCOD9580090
_publ_section_title
;
Structure prediction by ZEFSAII (Michael W. Deem and Ramdas Pophale) SiO2 
 PCOD9580090
Probable space group: P 61
;
_chemical_formula_sum "Si O2"
_cell_formula_units_Z 36
_cell_length_a 11.535633
_cell_length_b 11.535633
_cell_length_c 14.003618
_cell_angle_alpha 90.000000
_cell_angle_beta 90.000000
_cell_angle_gamma 120.000000
_cell_volume 1613.815002
_symmetry_space_group_name_H-M "P 61"
_symmetry_group_IT_number 169
_symmetry_cell_setting 'hexagonal'
loop_
_space_group_symop_operation_xyz
x,y,z
x-y,x,1/6+z
-y,x-y,1/3+z
-x,-y,1/2+z
-x+y,-x,2/3+z
y,-x+y,5/6+z
loop_
_atom_site_type_symbol
_atom_site_label
_atom_site_fract_x
_atom_site_fract_y
_atom_site_fract_z
Si Si1 0.338837 0.318164 0.848840
Si Si2 0.270477 0.771715 0.518693
Si Si3 0.574560 0.560135 0.656304
Si Si4 0.862459 0.817516 0.624469
Si Si5 0.526683 0.678986 0.846762
Si Si6 0.470577 0.061330 0.311196
O O1 0.409820 0.276924 0.769729
O O2 0.265800 0.394339 0.803229
O O3 0.232622 0.186959 0.905227
O O4 0.461270 0.416535 0.919375
O O5 0.238389 0.625788 0.548266
O O6 0.421275 0.844932 0.479471
O O7 0.713514 0.688406 0.626318
O O8 0.547931 0.594732 0.762416
O O9 0.451600 0.522817 0.585501
O O10 0.858187 0.933009 0.563288
O O11 0.552832 0.814747 0.797893
O O12 0.601071 0.666827 0.939829
#
# Coordination Sequence:
#
# PCOD9580090 Si02
#       6
#     6   6   6   6   6   6
#     4  11  21  42  72 106 144 184 241 292 362 437
#     4  11  22  42  70 107 146 185 240 298 359 437
#     4  12  26  44  75 108 143 195 239 309 364 432
#     4  12  25  45  75 110 143 195 248 299 366 439
#     4  11  27  43  71 107 150 186 246 301 370 435
#     4  11  25  44  69 110 144 191 236 307 367 436
#
# _framework density 22.307389000000001
#
# number of rings (size 3 to 8) (size 9 to 14) (size 15 to 20)
#    0.000    0.667    6.667    2.000    7.000    0.000 
#    0.000    1.667    0.000    0.000    0.000    0.000 
#    0.000    0.000    0.000    0.000    0.000    0.000 
#
# Total GULP energy -200630.624193 kJ/mol
# GULP energy per Si atom -5573.072894 kJ/mol
# Density = 2.225662 g / cm^3
# Si number density = 22.307389 Si / 1000 Ang^3
#
#
#
# Elastic Constant Matrix: (Units=GPa)
#
#
# Indices 1 2 3 4 5 6 
#
# 1 78.4331 39.6162 17.5531 0.0000 0.0000 0.0000
# 2 39.6162 78.4331 17.5531 0.0000 0.0000 0.0000
# 3 17.5531 17.5531 62.9819 0.0000 0.0000 0.0000
# 4 0.0000 0.0000 0.0000 40.3235 0.0000 0.0000
# 5 0.0000 0.0000 0.0000 0.0000 40.3235 0.0000
# 6 0.0000 0.0000 0.0000 0.0000 0.0000 19.4085
#
#
#
# Elastic Compliance Matrix: (Units=1/GPa)
#
#
# Indices 1 2 3 4 5 6 
#
# 1 0.017499 -0.008263 -0.002574 0.000000 0.000000 0.000000
# 2 -0.008263 0.017499 -0.002574 0.000000 0.000000 0.000000
# 3 -0.002574 -0.002574 0.017312 0.000000 0.000000 0.000000
# 4 0.000000 0.000000 0.000000 0.024799 0.000000 0.000000
# 5 0.000000 0.000000 0.000000 0.000000 0.024799 0.000000
# 6 0.000000 0.000000 0.000000 0.000000 0.000000 0.051524
#
#
# Mechanical properties :
#
#
# Convention : Reuss Voigt Hill
#
# Bulk Modulus (GPa) = 39.23313 41.03254 40.13284
# Shear Modulus (GPa) = 26.48975 29.68617 28.08796
#
# Velocity S-wave (km/s) = 3.44973 3.65194 3.55228
# Velocity P-wave (km/s) = 5.78733 6.01800 5.90379
#
# Compressibility (1/GPa) = 0.02548866
#
# Stress axis : x y z
#
# Youngs Moduli (GPa) = 57.14528 57.14528 57.76184
#
# Poissons Ratio (x) = 0.47217 0.14869
# Poissons Ratio (y) = 0.47217 0.14869
# Poissons Ratio (z) = 0.14711 0.14711
#
# Static dielectric constant tensor:
#      x y z
#    x 1.857960 0.000000 0.000000 
#    y 0.000000 1.857960 0.000000 
#    z 0.000000 0.000000 1.871710 
# 
# From -- ./inp_files/1151.got.cif
#   From: 2010.05.17/outbox.cif.g08.bks.cpg/sg169_cif.got.tgz:1151.got - 2010.05.20 11:12:54.
