data_PCOD9580384
_publ_section_title
;
Structure prediction by ZEFSAII (Michael W. Deem and Ramdas Pophale) SiO2 
 PCOD9580384
Probable space group: P 65
;
_chemical_formula_sum "Si O2"
_cell_formula_units_Z 48
_cell_length_a 13.811413
_cell_length_b 13.811413
_cell_length_c 10.743110
_cell_angle_alpha 90.000000
_cell_angle_beta 90.000000
_cell_angle_gamma 120.000000
_cell_volume 1774.748748
_symmetry_space_group_name_H-M "P 65"
_symmetry_group_IT_number 170
_symmetry_cell_setting 'hexagonal'
loop_
_space_group_symop_operation_xyz
x,y,z
x-y,x,5/6+z
-y,x-y,2/3+z
-x,-y,1/2+z
-x+y,-x,1/3+z
y,-x+y,1/6+z
loop_
_atom_site_type_symbol
_atom_site_label
_atom_site_fract_x
_atom_site_fract_y
_atom_site_fract_z
Si Si1 0.333890 0.294592 0.633670
Si Si2 0.703459 0.306307 0.099432
Si Si3 0.997848 0.191090 0.850174
Si Si4 0.401633 0.080403 0.359454
Si Si5 0.054002 0.474274 0.238468
Si Si6 0.207596 0.082873 0.506046
Si Si7 0.792422 0.176390 0.526979
Si Si8 0.173549 0.569620 0.835772
O O1 0.384921 0.323699 0.496091
O O2 0.234373 0.168047 0.619325
O O3 0.411626 0.289163 0.740829
O O4 0.284738 0.374830 0.663705
O O5 0.806333 0.326553 0.007561
O O6 0.771871 0.336625 0.227381
O O7 0.607823 0.180226 0.074487
O O8 0.641981 0.379820 0.107694
O O9 0.080127 0.263719 0.739657
O O10 0.898333 0.079821 0.785910
O O11 0.951661 0.268820 0.910178
O O12 0.420611 0.987251 0.430571
O O13 0.323579 0.093359 0.463636
O O14 0.958853 0.484566 0.315165
O O15 0.162486 0.124532 0.393148
O O16 0.725280 0.193390 0.636344
#
# Coordination Sequence:
#
# PCOD9580384 Si02
#       8
#     6   6   6   6   6   6   6   6
#     4  12  23  45  76  99 148 197 256 311 377 465
#     4  11  25  48  76 112 153 194 257 322 383 462
#     4  12  27  50  70 109 160 211 266 322 390 464
#     4  11  23  47  74 112 148 207 257 318 384 461
#     4  11  24  47  83 111 150 200 253 319 391 459
#     4  12  22  40  64 104 142 196 255 309 369 443
#     4  12  27  48  72 107 154 205 254 315 394 457
#     4  11  29  47  75 118 147 196 260 316 390 469
#
# _framework density 27.046081000000001
#
# number of rings (size 3 to 8) (size 9 to 14) (size 15 to 20)
#    0.000    0.500    5.000    2.250    5.250    3.000 
#   13.500    0.000    0.000    0.000    0.000    0.000 
#    0.000    0.000    0.000    0.000    0.000    0.000 
#
# Total GULP energy -268571.005127 kJ/mol
# GULP energy per Si atom -5595.229273 kJ/mol
# Density = 2.698452 g / cm^3
# Si number density = 27.046081 Si / 1000 Ang^3
#
#
#
# Elastic Constant Matrix: (Units=GPa)
#
#
# Indices 1 2 3 4 5 6 
#
# 1 106.1654 27.8445 -0.3766 0.0000 0.0000 0.0000
# 2 27.8445 106.1654 -0.3766 0.0000 0.0000 0.0000
# 3 -0.3766 -0.3766 79.5554 0.0000 0.0000 0.0000
# 4 0.0000 0.0000 0.0000 37.7916 0.0000 0.0000
# 5 0.0000 0.0000 0.0000 0.0000 37.7916 0.0000
# 6 0.0000 0.0000 0.0000 0.0000 0.0000 39.1604
#
#
#
# Elastic Compliance Matrix: (Units=1/GPa)
#
#
# Indices 1 2 3 4 5 6 
#
# 1 0.010115 -0.002653 0.000035 0.000000 0.000000 0.000000
# 2 -0.002653 0.010115 0.000035 0.000000 0.000000 0.000000
# 3 0.000035 0.000035 0.012570 0.000000 0.000000 0.000000
# 4 0.000000 0.000000 0.000000 0.026461 0.000000 0.000000
# 5 0.000000 0.000000 0.000000 0.000000 0.026461 0.000000
# 6 0.000000 0.000000 0.000000 0.000000 0.000000 0.025536
#
#
# Mechanical properties :
#
#
# Convention : Reuss Voigt Hill
#
# Bulk Modulus (GPa) = 36.18450 38.45210 37.31830
# Shear Modulus (GPa) = 39.79794 40.60174 40.19984
#
# Velocity S-wave (km/s) = 3.84016 3.87874 3.85950
# Velocity P-wave (km/s) = 5.75068 5.85727 5.80422
#
# Compressibility (1/GPa) = 0.02763615
#
# Stress axis : x y z
#
# Youngs Moduli (GPa) = 98.86151 98.86151 79.55333
#
# Poissons Ratio (x) = 0.26226 -0.00281
# Poissons Ratio (y) = 0.26226 -0.00281
# Poissons Ratio (z) = -0.00349 -0.00349
#
# Static dielectric constant tensor:
#      x y z
#    x 2.125830 0.000000 0.000000 
#    y 0.000000 2.125830 0.000000 
#    z 0.000000 0.000000 2.238290 
# 
# From -- ./inp_files/1053.got.cif
#   From: 2010.05.17/outbox.cif.g08.bks.cpg/sg170_cif.got.tgz:1053.got - 2010.05.20 11:14:30.
