data_PCOD9580465
_publ_section_title
;
Structure prediction by ZEFSAII (Michael W. Deem and Ramdas Pophale) SiO2 
 PCOD9580465
Probable space group: P 62
;
_chemical_formula_sum "Si O2"
_cell_formula_units_Z 36
_cell_length_a 8.621703
_cell_length_b 8.621703
_cell_length_c 26.682245
_cell_angle_alpha 90.000000
_cell_angle_beta 90.000000
_cell_angle_gamma 120.000000
_cell_volume 1717.667568
_symmetry_space_group_name_H-M "P 62"
_symmetry_group_IT_number 171
_symmetry_cell_setting 'hexagonal'
loop_
_space_group_symop_operation_xyz
x,y,z
x-y,x,1/3+z
-y,x-y,2/3+z
-x,-y,z
-x+y,-x,1/3+z
y,-x+y,2/3+z
loop_
_atom_site_type_symbol
_atom_site_label
_atom_site_fract_x
_atom_site_fract_y
_atom_site_fract_z
Si Si1 0.809102 0.486221 0.972300
Si Si2 0.321306 0.310907 0.229721
Si Si3 0.203776 0.163118 0.814770
Si Si4 0.368650 0.310376 0.530183
Si Si5 0.870851 0.311623 0.671010
Si Si6 0.701346 0.659974 0.056800
O O1 0.829875 0.539886 0.914040
O O2 0.626628 0.298813 0.983592
O O3 0.000000 0.500000 0.985210
O O4 0.778172 0.619191 0.006935
O O5 0.500000 0.500000 0.217322
O O6 0.157825 0.294343 0.197470
O O7 0.290871 0.322666 0.288605
O O8 0.322691 0.128784 0.215201
O O9 0.175657 0.328702 0.825296
O O10 0.305904 0.144365 0.767663
O O11 0.000000 0.000000 0.811110
O O12 0.500000 0.500000 0.506467
O O13 0.000000 0.500000 0.695836
O O14 0.821119 0.152823 0.709335
O O15 0.500000 0.500000 0.068372
#
# Coordination Sequence:
#
# PCOD9580465 Si02
#       6
#     6   6   6   6   6   6
#     4  10  20  37  59  88 118 149 193 242 293 348
#     4  10  19  35  58  85 114 147 190 239 291 344
#     4  10  22  37  56  83 116 156 193 233 292 350
#     4  10  20  37  59  84 115 150 196 246 286 342
#     4  10  20  36  62  89 114 149 194 243 294 350
#     4  10  22  40  59  83 120 157 193 241 295 354
#
# _framework density 20.958653000000002
#
# number of rings (size 3 to 8) (size 9 to 14) (size 15 to 20)
#    0.000    2.000    0.000    5.500    0.000    2.667 
#    0.000   15.833    0.000    5.000    0.000    0.000 
#    0.000    0.000    0.000    0.000    0.000    0.000 
#
# Total GULP energy -200889.369836 kJ/mol
# GULP energy per Si atom -5580.260273 kJ/mol
# Density = 2.091095 g / cm^3
# Si number density = 20.958653 Si / 1000 Ang^3
#
#
#
# Elastic Constant Matrix: (Units=GPa)
#
#
# Indices 1 2 3 4 5 6 
#
# 1 67.1866 37.5769 28.3939 0.0000 0.0000 0.0000
# 2 37.5769 67.1866 28.3939 0.0000 0.0000 0.0000
# 3 28.3939 28.3939 49.0624 0.0000 0.0000 0.0000
# 4 0.0000 0.0000 0.0000 -41.3957 0.0000 0.0000
# 5 0.0000 0.0000 0.0000 0.0000 -41.3957 0.0000
# 6 0.0000 0.0000 0.0000 0.0000 0.0000 14.8049
#
#
#
# Elastic Compliance Matrix: (Units=1/GPa)
#
#
# Indices 1 2 3 4 5 6 
#
# 1 0.023841 -0.009932 -0.008049 0.000000 0.000000 0.000000
# 2 -0.009932 0.023841 -0.008049 0.000000 0.000000 0.000000
# 3 -0.008049 -0.008049 0.029699 0.000000 0.000000 0.000000
# 4 0.000000 0.000000 0.000000 -0.024157 0.000000 0.000000
# 5 0.000000 0.000000 0.000000 0.000000 -0.024157 0.000000
# 6 0.000000 0.000000 0.000000 0.000000 0.000000 0.067545
#
#
# Mechanical properties :
#
#
# Convention : Reuss Voigt Hill
#
# Bulk Modulus (GPa) = 39.49633 41.35169 40.42401
# Shear Modulus (GPa) = 31.82440 -7.65926 12.08257
#
# Velocity S-wave (km/s) = 3.90094 -1.91374 2.40364
# Velocity P-wave (km/s) = 6.25904 3.85873 5.19930
#
# Compressibility (1/GPa) = 0.02531881
#
# Stress axis : x y z
#
# Youngs Moduli (GPa) = 41.94530 41.94530 33.67123
#
# Poissons Ratio (x) = 0.41660 0.27103
# Poissons Ratio (y) = 0.41660 0.27103
# Poissons Ratio (z) = 0.33763 0.33763
#
# Static dielectric constant tensor:
#      x y z
#    x 1.786620 0.000000 0.000000 
#    y 0.000000 1.786620 0.000000 
#    z 0.000000 0.000000 1.719680 
# 
# From -- ./inp_files/5733.got.cif
#   From: 2010.05.17/outbox.cif.g08.bks.cpg/sg171_3_cif.got.tgz:5733.got - 2010.05.20 11:16:09.
