data_PCOD9580565
_publ_section_title
;
Structure prediction by ZEFSAII (Michael W. Deem and Ramdas Pophale) SiO2 
 PCOD9580565
Probable space group: P 62
;
_chemical_formula_sum "Si O2"
_cell_formula_units_Z 42
_cell_length_a 17.927227
_cell_length_b 17.927227
_cell_length_c 7.507680
_cell_angle_alpha 90.000000
_cell_angle_beta 90.000000
_cell_angle_gamma 120.000000
_cell_volume 2089.597406
_symmetry_space_group_name_H-M "P 62"
_symmetry_group_IT_number 171
_symmetry_cell_setting 'hexagonal'
loop_
_space_group_symop_operation_xyz
x,y,z
x-y,x,1/3+z
-y,x-y,2/3+z
-x,-y,z
-x+y,-x,1/3+z
y,-x+y,2/3+z
loop_
_atom_site_type_symbol
_atom_site_label
_atom_site_fract_x
_atom_site_fract_y
_atom_site_fract_z
Si Si1 0.670343 0.897580 0.398730
Si Si2 0.958215 0.400690 0.690401
Si Si3 0.476317 0.326377 0.852474
Si Si4 0.334042 0.261797 0.558326
Si Si5 0.659319 0.392576 0.768030
Si Si6 0.402296 0.434361 0.946847
Si Si7 0.260381 0.470426 0.493210
O O1 0.695898 0.835857 0.502679
O O2 0.627329 0.839029 0.224058
O O3 0.736259 0.994416 0.338342
O O4 0.597653 0.912743 0.500455
O O5 0.868628 0.354928 0.793680
O O6 0.000000 0.500000 0.733118
O O7 0.019883 0.362346 0.751912
O O8 0.934972 0.390236 0.480970
O O9 0.420375 0.290903 0.674838
O O10 0.574864 0.398864 0.814106
O O11 0.418015 0.353402 0.966603
O O12 0.485806 0.259539 0.977224
O O13 0.625958 0.316938 0.620062
O O14 0.736338 0.265080 0.992467
O O15 0.500000 0.500000 0.874938
#
# Coordination Sequence:
#
# PCOD9580565 Si02
#       7
#     6   6   6   6   6   6   6
#     4  10  21  38  59  85 118 157 205 263 320 378
#     4  10  21  36  57  84 118 160 209 253 307 366
#     4  11  22  36  56  81 117 160 206 259 309 370
#     4  10  21  38  59  85 118 157 205 263 320 378
#     4  12  24  38  53  78 120 166 220 258 313 366
#     4  10  21  36  57  84 118 160 209 253 307 366
#     4  11  22  36  56  81 117 160 206 259 309 370
#
# _framework density 20.099564999999998
#
# number of rings (size 3 to 8) (size 9 to 14) (size 15 to 20)
#    0.000    1.429    1.429    4.286    0.000    8.571 
#    0.000    0.000    0.000    0.000    0.000    0.000 
#    0.000  133.714    0.000    0.000    0.000    0.000 
#
# Total GULP energy -233913.937683 kJ/mol
# GULP energy per Si atom -5569.379469 kJ/mol
# Density = 2.005382 g / cm^3
# Si number density = 20.099565 Si / 1000 Ang^3
#
#
#
# Elastic Constant Matrix: (Units=GPa)
#
#
# Indices 1 2 3 4 5 6 
#
# 1 63.8004 22.9959 -0.2581 0.0000 0.0000 0.0000
# 2 22.9959 63.8004 -0.2581 0.0000 0.0000 0.0000
# 3 -0.2581 -0.2581 44.2411 0.0000 0.0000 0.0000
# 4 0.0000 0.0000 0.0000 28.8729 0.0000 0.0000
# 5 0.0000 0.0000 0.0000 0.0000 28.8729 0.0000
# 6 0.0000 0.0000 0.0000 0.0000 0.0000 20.4022
#
#
#
# Elastic Compliance Matrix: (Units=1/GPa)
#
#
# Indices 1 2 3 4 5 6 
#
# 1 0.018014 -0.006493 0.000067 0.000000 0.000000 0.000000
# 2 -0.006493 0.018014 0.000067 0.000000 0.000000 0.000000
# 3 0.000067 0.000067 0.022604 0.000000 0.000000 0.000000
# 4 0.000000 0.000000 0.000000 0.034635 0.000000 0.000000
# 5 0.000000 0.000000 0.000000 0.000000 0.034635 0.000000
# 6 0.000000 0.000000 0.000000 0.000000 0.000000 0.049014
#
#
# Mechanical properties :
#
#
# Convention : Reuss Voigt Hill
#
# Bulk Modulus (GPa) = 21.77872 24.08901 22.93387
# Shear Modulus (GPa) = 24.39759 25.58710 24.99235
#
# Velocity S-wave (km/s) = 3.48780 3.57181 3.53005
# Velocity P-wave (km/s) = 5.20371 5.38714 5.29622
#
# Compressibility (1/GPa) = 0.04591637
#
# Stress axis : x y z
#
# Youngs Moduli (GPa) = 55.51123 55.51123 44.23956
#
# Poissons Ratio (x) = 0.36042 -0.00297
# Poissons Ratio (y) = 0.36042 -0.00297
# Poissons Ratio (z) = -0.00373 -0.00373
#
# Static dielectric constant tensor:
#      x y z
#    x 1.752100 0.000000 0.000000 
#    y 0.000000 1.752100 0.000000 
#    z 0.000000 0.000000 1.768900 
# 
# From -- ./inp_files/1263.got.cif
#   From: 2010.05.17/outbox.cif.g08.bks.cpg/sg171_1_cif.got.tgz:1263.got - 2010.05.20 11:16:09.
