data_PCOD9580395
_publ_section_title
;
Structure prediction by ZEFSAII (Michael W. Deem and Ramdas Pophale) SiO2 
 PCOD9580395
Probable space group: P 65
;
_chemical_formula_sum "Si O2"
_cell_formula_units_Z 42
_cell_length_a 8.983597
_cell_length_b 8.983597
_cell_length_c 25.480823
_cell_angle_alpha 90.000000
_cell_angle_beta 90.000000
_cell_angle_gamma 120.000000
_cell_volume 1780.920798
_symmetry_space_group_name_H-M "P 65"
_symmetry_group_IT_number 170
_symmetry_cell_setting 'hexagonal'
loop_
_space_group_symop_operation_xyz
x,y,z
x-y,x,5/6+z
-y,x-y,2/3+z
-x,-y,1/2+z
-x+y,-x,1/3+z
y,-x+y,1/6+z
loop_
_atom_site_type_symbol
_atom_site_label
_atom_site_fract_x
_atom_site_fract_y
_atom_site_fract_z
Si Si1 0.787996 0.770664 0.498050
Si Si2 0.882998 0.843164 0.107341
Si Si3 0.887741 0.486201 0.785778
Si Si4 0.744796 0.682738 0.859489
Si Si5 0.067941 0.692224 0.492593
Si Si6 0.499701 0.344233 0.060751
Si Si7 0.262205 0.853467 0.862585
O O1 0.907297 0.930312 0.461735
O O2 0.637283 0.592785 0.474806
O O3 0.918405 0.713631 0.520515
O O4 0.851663 0.665460 0.366243
O O5 0.897727 0.684331 0.085085
O O6 0.735622 0.785275 0.151169
O O7 0.825700 0.913454 0.057750
O O8 0.811085 0.577816 0.824021
O O9 0.019780 0.613259 0.741555
O O10 0.335101 0.613120 0.922693
O O11 0.655975 0.770748 0.825990
O O12 0.997205 0.600766 0.436094
O O13 0.098053 0.554390 0.522071
O O14 0.500372 0.854707 0.193230
#
# Coordination Sequence:
#
# PCOD9580395 Si02
#       7
#     6   6   6   6   6   6   6
#     4  11  27  48  73 114 154 200 261 318 390 473
#     4  12  27  47  84 110 156 207 258 322 397 479
#     4  11  27  45  79 110 155 199 260 320 389 468
#     4  12  25  51  75 113 148 211 259 317 394 471
#     4  11  26  45  78 103 157 199 262 322 383 472
#     4  11  25  50  70 115 155 200 254 324 390 465
#     4  12  25  50  75 115 153 204 260 321 399 464
#
# _framework density 23.583307999999999
#
# number of rings (size 3 to 8) (size 9 to 14) (size 15 to 20)
#    0.000    0.571    2.857    4.286   10.000    3.429 
#    2.571    0.000    0.000    0.000    0.000    0.000 
#    0.000    0.000    0.000    0.000    0.000    0.000 
#
# Total GULP energy -234321.204009 kJ/mol
# GULP energy per Si atom -5579.076286 kJ/mol
# Density = 2.352963 g / cm^3
# Si number density = 23.583308 Si / 1000 Ang^3
#
#
#
# Elastic Constant Matrix: (Units=GPa)
#
#
# Indices 1 2 3 4 5 6 
#
# 1 135.7814 84.1341 53.9986 0.0000 0.0000 0.0000
# 2 84.1341 135.7814 53.9986 0.0000 0.0000 0.0000
# 3 53.9986 53.9986 66.5713 0.0000 0.0000 0.0000
# 4 0.0000 0.0000 0.0000 33.8324 0.0000 0.0000
# 5 0.0000 0.0000 0.0000 0.0000 33.8324 0.0000
# 6 0.0000 0.0000 0.0000 0.0000 0.0000 25.8237
#
#
#
# Elastic Compliance Matrix: (Units=1/GPa)
#
#
# Indices 1 2 3 4 5 6 
#
# 1 0.013460 -0.005902 -0.006130 0.000000 0.000000 0.000000
# 2 -0.005902 0.013460 -0.006130 0.000000 0.000000 0.000000
# 3 -0.006130 -0.006130 0.024967 0.000000 0.000000 0.000000
# 4 0.000000 0.000000 0.000000 0.029557 0.000000 0.000000
# 5 0.000000 0.000000 0.000000 0.000000 0.029557 0.000000
# 6 0.000000 0.000000 0.000000 0.000000 0.000000 0.038724
#
#
# Mechanical properties :
#
#
# Convention : Reuss Voigt Hill
#
# Bulk Modulus (GPa) = 64.26475 80.26633 72.26554
# Shear Modulus (GPa) = 26.14537 28.43120 27.28828
#
# Velocity S-wave (km/s) = 3.33323 3.47589 3.40531
# Velocity P-wave (km/s) = 6.49024 7.08648 6.79490
#
# Compressibility (1/GPa) = 0.01556063
#
# Stress axis : x y z
#
# Youngs Moduli (GPa) = 74.29465 74.29465 40.05337
#
# Poissons Ratio (x) = 0.43850 0.24554
# Poissons Ratio (y) = 0.43850 0.24554
# Poissons Ratio (z) = 0.45545 0.45545
#
# Static dielectric constant tensor:
#      x y z
#    x 1.935140 0.000000 0.000000 
#    y 0.000000 1.935140 0.000000 
#    z 0.000000 0.000000 2.246680 
# 
# From -- ./inp_files/1938.got.cif
#   From: 2010.05.17/outbox.cif.g08.bks.cpg/sg170_cif.got.tgz:1938.got - 2010.05.20 11:14:30.
