data_PCOD9580092
_publ_section_title
;
Structure prediction by ZEFSAII (Michael W. Deem and Ramdas Pophale) SiO2 
 PCOD9580092
Probable space group: P 61
;
_chemical_formula_sum "Si O2"
_cell_formula_units_Z 36
_cell_length_a 20.037794
_cell_length_b 20.037794
_cell_length_c 5.249482
_cell_angle_alpha 90.000000
_cell_angle_beta 90.000000
_cell_angle_gamma 120.000000
_cell_volume 1825.353141
_symmetry_space_group_name_H-M "P 61"
_symmetry_group_IT_number 169
_symmetry_cell_setting 'hexagonal'
loop_
_space_group_symop_operation_xyz
x,y,z
x-y,x,1/6+z
-y,x-y,1/3+z
-x,-y,1/2+z
-x+y,-x,2/3+z
y,-x+y,5/6+z
loop_
_atom_site_type_symbol
_atom_site_label
_atom_site_fract_x
_atom_site_fract_y
_atom_site_fract_z
Si Si1 0.574890 0.568606 0.547080
Si Si2 0.695863 0.072091 0.961934
Si Si3 0.591755 0.824765 0.271856
Si Si4 0.706187 0.632845 0.925790
Si Si5 0.594187 0.126698 0.657289
Si Si6 0.675774 0.408243 0.489004
O O1 0.619355 0.634892 0.339909
O O2 0.618156 0.582015 0.817414
O O3 0.499476 0.576965 0.569390
O O4 0.560330 0.486266 0.466993
O O5 0.770285 0.142189 0.080798
O O6 0.660642 0.116920 0.797647
O O7 0.709003 0.008990 0.813372
O O8 0.632140 0.881028 0.509017
O O9 0.500353 0.773768 0.342060
O O10 0.602229 0.869216 0.001482
O O11 0.607739 0.211747 0.636789
O O12 0.627978 0.354729 0.724886
#
# Coordination Sequence:
#
# PCOD9580092 Si02
#       6
#     6   6   6   6   6   6
#     4  11  22  39  67  85 120 156 226 264 320 389
#     4  11  24  42  63  97 118 169 214 271 325 395
#     4  12  27  44  68  90 130 167 217 269 337 388
#     4  11  25  45  64  95 121 162 212 269 319 398
#     4  11  22  38  59  85 116 162 213 279 324 388
#     4  12  28  40  53  84 123 168 212 284 349 396
#
# _framework density 19.72221
#
# number of rings (size 3 to 8) (size 9 to 14) (size 15 to 20)
#    0.000    0.667    6.667    0.000   11.667    0.000 
#    0.000    0.000    0.000    0.000    0.000    0.000 
#    0.000    0.000    0.000    3.000    5.333    0.167 
#
# Total GULP energy -200577.348056 kJ/mol
# GULP energy per Si atom -5571.593002 kJ/mol
# Density = 1.967732 g / cm^3
# Si number density = 19.722210 Si / 1000 Ang^3
#
#
#
# Elastic Constant Matrix: (Units=GPa)
#
#
# Indices 1 2 3 4 5 6 
#
# 1 68.0309 54.2668 34.6427 0.0000 0.0000 0.0000
# 2 54.2668 68.0309 34.6427 0.0000 0.0000 0.0000
# 3 34.6427 34.6427 87.0548 0.0000 0.0000 0.0000
# 4 0.0000 0.0000 0.0000 28.3745 0.0000 0.0000
# 5 0.0000 0.0000 0.0000 0.0000 28.3745 0.0000
# 6 0.0000 0.0000 0.0000 0.0000 0.0000 6.8821
#
#
#
# Elastic Compliance Matrix: (Units=1/GPa)
#
#
# Indices 1 2 3 4 5 6 
#
# 1 0.041605 -0.031048 -0.004201 0.000000 0.000000 0.000000
# 2 -0.031048 0.041605 -0.004201 0.000000 0.000000 0.000000
# 3 -0.004201 -0.004201 0.014830 0.000000 0.000000 0.000000
# 4 0.000000 0.000000 0.000000 0.035243 0.000000 0.000000
# 5 0.000000 0.000000 0.000000 0.000000 0.035243 0.000000
# 6 0.000000 0.000000 0.000000 0.000000 0.000000 0.145305
#
#
# Mechanical properties :
#
#
# Convention : Reuss Voigt Hill
#
# Bulk Modulus (GPa) = 52.24624 52.24675 52.24650
# Shear Modulus (GPa) = 12.52785 19.36387 15.94586
#
# Velocity S-wave (km/s) = 2.52308 3.13682 2.84654
# Velocity P-wave (km/s) = 5.91916 6.29828 6.11166
#
# Compressibility (1/GPa) = 0.01914013
#
# Stress axis : x y z
#
# Youngs Moduli (GPa) = 24.03575 24.03575 67.42872
#
# Poissons Ratio (x) = 0.74626 0.28327
# Poissons Ratio (y) = 0.74626 0.28327
# Poissons Ratio (z) = 0.10097 0.10097
#
# Static dielectric constant tensor:
#      x y z
#    x 1.775510 0.000000 0.000000 
#    y 0.000000 1.775510 0.000000 
#    z 0.000000 0.000000 1.912850 
# 
# From -- ./inp_files/243.got.cif
#   From: 2010.05.17/outbox.cif.g08.bks.cpg/sg169_cif.got.tgz:243.got - 2010.05.20 11:12:54.
