data_PCOD9580462
_publ_section_title
;
Structure prediction by ZEFSAII (Michael W. Deem and Ramdas Pophale) SiO2 
 PCOD9580462
Probable space group: P 62
;
_chemical_formula_sum "Si O2"
_cell_formula_units_Z 21
_cell_length_a 9.486730
_cell_length_b 9.486730
_cell_length_c 11.530017
_cell_angle_alpha 90.000000
_cell_angle_beta 90.000000
_cell_angle_gamma 120.000000
_cell_volume 898.656376
_symmetry_space_group_name_H-M "P 62"
_symmetry_group_IT_number 171
_symmetry_cell_setting 'hexagonal'
loop_
_space_group_symop_operation_xyz
x,y,z
x-y,x,1/3+z
-y,x-y,2/3+z
-x,-y,z
-x+y,-x,1/3+z
y,-x+y,2/3+z
loop_
_atom_site_type_symbol
_atom_site_label
_atom_site_fract_x
_atom_site_fract_y
_atom_site_fract_z
Si Si1 0.325065 0.982834 0.823450
Si Si2 0.500000 0.000000 0.395966
Si Si3 0.137085 0.683655 0.701503
Si Si4 0.207376 0.711370 0.278615
O O1 0.369229 0.069822 0.699986
O O2 0.500000 0.000000 0.851008
O O3 0.187317 0.799105 0.812539
O O4 0.312104 0.070451 0.936578
O O5 0.351568 0.888333 0.312013
O O6 0.520887 0.877132 0.486766
O O7 0.313796 0.720621 0.651948
O O8 0.000000 0.500000 0.731557
#
# Coordination Sequence:
#
# PCOD9580462 Si02
#       4
#     6   3   6   6
#     4   9  16  32  59  96 143 184 237 301 370 432
#     4  12  24  42  74 114 162 194 264 320 396 474
#     4  10  19  34  65 104 146 189 245 309 379 450
#     4  11  20  41  67 113 149 201 250 324 380 467
#
# _framework density 23.368221999999999
#
# number of rings (size 3 to 8) (size 9 to 14) (size 15 to 20)
#    0.000    1.714    7.143    0.000    0.000    0.000 
#    2.571    0.000    0.000    1.714   14.857    0.000 
#    0.000    0.000    0.000    0.000    0.000    0.000 
#
# Total GULP energy -116927.371668 kJ/mol
# GULP energy per Si atom -5567.970079 kJ/mol
# Density = 2.331503 g / cm^3
# Si number density = 23.368222 Si / 1000 Ang^3
#
#
#
# Elastic Constant Matrix: (Units=GPa)
#
#
# Indices 1 2 3 4 5 6 
#
# 1 134.8235 62.2060 53.6315 0.0000 0.0000 0.0000
# 2 62.2060 134.8235 53.6315 0.0000 0.0000 0.0000
# 3 53.6315 53.6315 118.9395 0.0000 0.0000 0.0000
# 4 0.0000 0.0000 0.0000 -0.0520 0.0000 0.0000
# 5 0.0000 0.0000 0.0000 0.0000 -0.0520 0.0000
# 6 0.0000 0.0000 0.0000 0.0000 0.0000 36.3087
#
#
#
# Elastic Compliance Matrix: (Units=1/GPa)
#
#
# Indices 1 2 3 4 5 6 
#
# 1 0.010249 -0.003522 -0.003033 0.000000 0.000000 0.000000
# 2 -0.003522 0.010249 -0.003033 0.000000 0.000000 0.000000
# 3 -0.003033 -0.003033 0.011143 0.000000 0.000000 0.000000
# 4 0.000000 0.000000 0.000000-19.214275 -0.000008 0.000000
# 5 0.000000 0.000000 0.000000 -0.000008-19.214289 0.000000
# 6 0.000000 0.000000 0.000000 0.000000 0.000000 0.027542
#
#
# Mechanical properties :
#
#
# Convention : Reuss Voigt Hill
#
# Bulk Modulus (GPa) = 80.23285 80.83607 80.53446
# Shear Modulus (GPa) = -0.13039 21.84876 10.85919
#
# Velocity S-wave (km/s) = -0.23647 3.06106 2.15803
# Velocity P-wave (km/s) = 5.85953 6.86737 6.38338
#
# Compressibility (1/GPa) = 0.01246372
#
# Stress axis : x y z
#
# Youngs Moduli (GPa) = 97.57332 97.57332 89.74249
#
# Poissons Ratio (x) = 0.34366 0.27220
# Poissons Ratio (y) = 0.34366 0.27220
# Poissons Ratio (z) = 0.29595 0.29595
#
# Static dielectric constant tensor:
#      x y z
#    x 2.016390 0.000000 0.000000 
#    y 0.000000 2.016390 0.000000 
#    z 0.000000 0.000000 2.086790 
# 
# From -- ./inp_files/1796.got.cif
#   From: 2010.05.17/outbox.cif.g08.bks.cpg/sg171_1_cif.got.tgz:1796.got - 2010.05.20 11:16:09.
