data_PCOD9580177
_publ_section_title
;
Structure prediction by ZEFSAII (Michael W. Deem and Ramdas Pophale) SiO2 
 PCOD9580177
Probable space group: P 65
;
_chemical_formula_sum "Si O2"
_cell_formula_units_Z 48
_cell_length_a 16.520675
_cell_length_b 16.520675
_cell_length_c 10.417158
_cell_angle_alpha 90.000000
_cell_angle_beta 90.000000
_cell_angle_gamma 120.000000
_cell_volume 2462.268779
_symmetry_space_group_name_H-M "P 65"
_symmetry_group_IT_number 170
_symmetry_cell_setting 'hexagonal'
loop_
_space_group_symop_operation_xyz
x,y,z
x-y,x,5/6+z
-y,x-y,2/3+z
-x,-y,1/2+z
-x+y,-x,1/3+z
y,-x+y,1/6+z
loop_
_atom_site_type_symbol
_atom_site_label
_atom_site_fract_x
_atom_site_fract_y
_atom_site_fract_z
Si Si1 0.883699 0.059304 0.614280
Si Si2 0.883699 0.824395 0.706862
Si Si3 0.654937 0.416745 0.684932
Si Si4 0.238191 0.583255 0.802876
Si Si5 0.550179 0.653978 0.117155
Si Si6 0.653978 0.550179 0.037320
Si Si7 0.776038 0.610293 0.786013
Si Si8 0.610293 0.776038 0.368462
O O1 0.827342 0.112944 0.587365
O O2 0.991574 0.124383 0.659245
O O3 0.840667 1.000000 0.743904
O O4 0.867191 0.875617 0.828564
O O5 0.827342 0.714398 0.733777
O O6 0.695752 0.347876 0.660571
O O7 0.612439 0.387561 0.827238
O O8 0.560857 0.386007 0.605200
O O9 0.726550 0.526388 0.683198
O O10 0.174849 0.613993 0.882608
O O11 0.200162 0.473612 0.804610
O O12 0.588256 0.697108 0.259149
O O13 0.579181 0.579181 0.077238
O O14 0.597086 0.742389 0.023866
O O15 0.697108 0.588256 0.895326
O O16 0.742389 0.597086 0.130609
#
# Coordination Sequence:
#
# PCOD9580177 Si02
#       8
#     6   6   6   6   6   6   6   6
#     4  10  22  43  62  85 123 156 198 251 310 363
#     4  10  22  43  62  85 123 156 198 251 310 363
#     4  10  18  37  57  82 120 163 199 249 294 359
#     4  10  18  37  57  82 120 163 199 249 294 359
#     4  10  19  34  59  87 116 158 205 251 297 352
#     4  10  19  34  59  87 116 158 205 251 297 352
#     4  10  20  37  60  85 121 154 201 252 303 356
#     4  10  20  37  60  85 121 154 201 252 303 356
#
# _framework density 19.494216999999999
#
# number of rings (size 3 to 8) (size 9 to 14) (size 15 to 20)
#    0.000    2.000    5.000    1.500    0.000    1.000 
#    4.500   27.500    0.000    0.000    0.000    0.000 
#    0.000    0.000    0.000    0.000    0.000    0.000 
#
# Total GULP energy -267555.950794 kJ/mol
# GULP energy per Si atom -5574.082308 kJ/mol
# Density = 1.944985 g / cm^3
# Si number density = 19.494217 Si / 1000 Ang^3
#
#
#
# Elastic Constant Matrix: (Units=GPa)
#
#
# Indices 1 2 3 4 5 6 
#
# 1 120.6107 79.2643 29.8967 0.0000 0.0000 0.0000
# 2 79.2643 120.6107 29.8967 0.0000 0.0000 0.0000
# 3 29.8967 29.8967 18.4588 0.0000 0.0000 0.0000
# 4 0.0000 0.0000 0.0000 20.6436 0.0000 0.0000
# 5 0.0000 0.0000 0.0000 0.0000 20.6436 0.0000
# 6 0.0000 0.0000 0.0000 0.0000 0.0000 20.6732
#
#
#
# Elastic Compliance Matrix: (Units=1/GPa)
#
#
# Indices 1 2 3 4 5 6 
#
# 1 0.016946 -0.007240 -0.015720 0.000000 0.000000 0.000000
# 2 -0.007240 0.016946 -0.015720 0.000000 0.000000 0.000000
# 3 -0.015720 -0.015720 0.105096 0.000000 0.000000 0.000000
# 4 0.000000 0.000000 0.000000 0.048441 0.000000 0.000000
# 5 0.000000 0.000000 0.000000 0.000000 0.048441 0.000000
# 6 0.000000 0.000000 0.000000 0.000000 0.000000 0.048372
#
#
# Mechanical properties :
#
#
# Convention : Reuss Voigt Hill
#
# Bulk Modulus (GPa) = 16.22646 59.75508 37.99077
# Shear Modulus (GPa) = 13.08408 20.43358 16.75883
#
# Velocity S-wave (km/s) = 2.59352 3.24108 2.93521
# Velocity P-wave (km/s) = 4.16056 6.68771 5.56937
#
# Compressibility (1/GPa) = 0.06162774
#
# Stress axis : x y z
#
# Youngs Moduli (GPa) = 59.01154 59.01154 9.51514
#
# Poissons Ratio (x) = 0.42725 0.14958
# Poissons Ratio (y) = 0.42725 0.14958
# Poissons Ratio (z) = 0.92765 0.92765
#
# Static dielectric constant tensor:
#      x y z
#    x 1.692200 0.000000 0.000000 
#    y 0.000000 1.692200 0.000000 
#    z 0.000000 0.000000 1.723580 
# 
# From -- ./inp_files/1069.got.cif
#   From: 2010.05.17/outbox.cif.g08.bks.cpg/sg170_cif.got.tgz:1069.got - 2010.05.20 11:14:30.
