data_PCOD9580388
_publ_section_title
;
Structure prediction by ZEFSAII (Michael W. Deem and Ramdas Pophale) SiO2 
 PCOD9580388
Probable space group: P 65
;
_chemical_formula_sum "Si O2"
_cell_formula_units_Z 48
_cell_length_a 14.400134
_cell_length_b 14.400134
_cell_length_c 12.528353
_cell_angle_alpha 90.000000
_cell_angle_beta 90.000000
_cell_angle_gamma 120.000000
_cell_volume 2249.871323
_symmetry_space_group_name_H-M "P 65"
_symmetry_group_IT_number 170
_symmetry_cell_setting 'hexagonal'
loop_
_space_group_symop_operation_xyz
x,y,z
x-y,x,5/6+z
-y,x-y,2/3+z
-x,-y,1/2+z
-x+y,-x,1/3+z
y,-x+y,1/6+z
loop_
_atom_site_type_symbol
_atom_site_label
_atom_site_fract_x
_atom_site_fract_y
_atom_site_fract_z
Si Si1 0.273595 0.911827 0.528800
Si Si2 0.275534 0.532309 0.634860
Si Si3 0.170578 0.056960 0.042269
Si Si4 0.386661 0.407117 0.567444
Si Si5 0.967627 0.643727 0.138207
Si Si6 0.622374 0.532206 0.490801
Si Si7 0.256933 0.615485 0.191990
Si Si8 0.282348 0.035038 0.324030
O O1 0.307713 0.820382 0.524097
O O2 0.144570 0.854573 0.531264
O O3 0.328042 0.983768 0.633044
O O4 0.311193 0.981874 0.421396
O O5 0.345615 0.491983 0.570932
O O6 0.159423 0.429075 0.653825
O O7 0.329789 0.584036 0.748045
O O8 0.273064 0.623840 0.563157
O O9 0.219320 0.166458 0.111579
O O10 0.080566 0.959509 0.107287
O O11 0.255669 0.021471 0.010260
O O12 0.355615 0.348922 0.681021
O O13 0.514350 0.468337 0.557109
O O14 0.022019 0.594483 0.214543
O O15 0.660895 0.451568 0.449939
O O16 0.703388 0.632106 0.561458
#
# Coordination Sequence:
#
# PCOD9580388 Si02
#       8
#     6   6   6   6   6   6   6   6
#     4  11  27  45  74 109 155 195 251 320 382 454
#     4  12  26  45  72 103 153 197 249 308 379 451
#     4  12  26  52  75 111 142 194 260 317 381 460
#     4  11  27  45  66 113 151 200 246 310 390 448
#     4  12  26  46  75 106 147 197 250 316 380 456
#     4  11  24  45  77 104 147 193 258 306 373 458
#     4  11  26  45  72 112 145 199 252 305 376 460
#     4  12  24  47  79 104 146 195 252 314 375 447
#
# _framework density 21.334551999999999
#
# number of rings (size 3 to 8) (size 9 to 14) (size 15 to 20)
#    0.000    0.500    3.750    3.000    8.750    2.000 
#    4.500    0.000    0.000    0.000    0.000    0.000 
#    0.000    0.000    0.000    0.000    0.000    0.000 
#
# Total GULP energy -268651.021957 kJ/mol
# GULP energy per Si atom -5596.896291 kJ/mol
# Density = 2.128599 g / cm^3
# Si number density = 21.334552 Si / 1000 Ang^3
#
#
#
# Elastic Constant Matrix: (Units=GPa)
#
#
# Indices 1 2 3 4 5 6 
#
# 1 98.3034 32.9181 51.3538 0.0000 0.0000 0.0000
# 2 32.9181 98.3034 51.3538 0.0000 0.0000 0.0000
# 3 51.3538 51.3538 122.7067 0.0000 0.0000 0.0000
# 4 0.0000 0.0000 0.0000 347.4873 0.0000 0.0000
# 5 0.0000 0.0000 0.0000 0.0000 347.4873 0.0000
# 6 0.0000 0.0000 0.0000 0.0000 0.0000 32.6927
#
#
#
# Elastic Compliance Matrix: (Units=1/GPa)
#
#
# Indices 1 2 3 4 5 6 
#
# 1 0.013313 -0.001980 -0.004743 0.000000 0.000000 0.000000
# 2 -0.001980 0.013313 -0.004743 0.000000 0.000000 0.000000
# 3 -0.004743 -0.004743 0.012119 0.000000 0.000000 0.000000
# 4 0.000000 0.000000 0.000000 0.002878 0.000000 0.000000
# 5 0.000000 0.000000 0.000000 0.000000 0.002878 0.000000
# 6 0.000000 0.000000 0.000000 0.000000 0.000000 0.030588
#
#
# Mechanical properties :
#
#
# Convention : Reuss Voigt Hill
#
# Bulk Modulus (GPa) = 63.23649 65.61832 64.42741
# Shear Modulus (GPa) = 48.40552 157.77930 103.09241
#
# Velocity S-wave (km/s) = 4.76844 8.60903 6.95893
# Velocity P-wave (km/s) = 7.74740 11.38614 9.73823
#
# Compressibility (1/GPa) = 0.01581365
#
# Stress axis : x y z
#
# Youngs Moduli (GPa) = 75.11173 75.11173 82.51185
#
# Poissons Ratio (x) = 0.14876 0.39135
# Poissons Ratio (y) = 0.14876 0.39135
# Poissons Ratio (z) = 0.35625 0.35625
#
# Static dielectric constant tensor:
#      x y z
#    x 0.014620 0.000000 0.000000 
#    y 0.000000 0.014620 0.000000 
#    z 0.000000 0.000000 1.766030 
# 
# From -- ./inp_files/1062.got.cif
#   From: 2010.05.17/outbox.cif.g08.bks.cpg/sg170_cif.got.tgz:1062.got - 2010.05.20 11:14:30.
