data_PCOD9580640
_publ_section_title
;
Structure prediction by ZEFSAII (Michael W. Deem and Ramdas Pophale) SiO2 
 PCOD9580640
Probable space group: P 62
;
_chemical_formula_sum "Si O2"
_cell_formula_units_Z 33
_cell_length_a 11.107984
_cell_length_b 11.107984
_cell_length_c 11.900691
_cell_angle_alpha 90.000000
_cell_angle_beta 90.000000
_cell_angle_gamma 120.000000
_cell_volume 1271.666708
_symmetry_space_group_name_H-M "P 62"
_symmetry_group_IT_number 171
_symmetry_cell_setting 'hexagonal'
loop_
_space_group_symop_operation_xyz
x,y,z
x-y,x,1/3+z
-y,x-y,2/3+z
-x,-y,z
-x+y,-x,1/3+z
y,-x+y,2/3+z
loop_
_atom_site_type_symbol
_atom_site_label
_atom_site_fract_x
_atom_site_fract_y
_atom_site_fract_z
Si Si1 0.792352 0.323808 0.647750
Si Si2 0.207250 0.301553 0.782901
Si Si3 0.722018 0.913953 0.814694
Si Si4 0.500000 0.500000 0.754055
Si Si5 0.741008 0.229602 0.286819
Si Si6 0.213832 0.799360 0.877897
O O1 0.863736 0.247604 0.586135
O O2 0.627068 0.247265 0.615951
O O3 0.809729 0.313864 0.781819
O O4 0.842577 0.477155 0.597780
O O5 0.173181 0.147802 0.813023
O O6 0.368210 0.392881 0.823196
O O7 0.151724 0.390757 0.846461
O O8 0.215144 0.332752 0.651265
O O9 0.621545 0.848117 0.708370
O O10 0.789438 0.077450 0.810197
O O11 0.458135 0.591017 0.676414
#
# Coordination Sequence:
#
# PCOD9580640 Si02
#       6
#     6   6   6   3   6   6
#     4  12  23  44  72 113 147 189 244 323 395 448
#     4  11  24  43  69 104 149 200 248 300 382 462
#     4  11  26  44  70 106 150 203 245 309 386 462
#     4  10  22  38  64 104 134 174 240 302 366 430
#     4  11  21  43  70 105 148 191 239 310 385 449
#     4  12  26  45  73 113 151 198 255 321 382 463
#
# _framework density 25.950195000000001
#
# number of rings (size 3 to 8) (size 9 to 14) (size 15 to 20)
#    0.000    0.727    3.636    4.909    0.000    4.364 
#    0.000    0.000    0.000   27.273    0.000    0.000 
#    0.000    0.000    0.000    0.000    0.000    0.000 
#
# Total GULP energy -184452.812967 kJ/mol
# GULP energy per Si atom -5589.479181 kJ/mol
# Density = 2.589113 g / cm^3
# Si number density = 25.950195 Si / 1000 Ang^3
#
#
#
# Elastic Constant Matrix: (Units=GPa)
#
#
# Indices 1 2 3 4 5 6 
#
# 1 77.9840 10.3891 15.0054 0.0000 0.0000 0.0000
# 2 10.3891 77.9840 15.0054 0.0000 0.0000 0.0000
# 3 15.0054 15.0054 130.7943 0.0000 0.0000 0.0000
# 4 0.0000 0.0000 0.0000 27.2406 0.0000 0.0000
# 5 0.0000 0.0000 0.0000 0.0000 27.2406 0.0000
# 6 0.0000 0.0000 0.0000 0.0000 0.0000 33.7975
#
#
#
# Elastic Compliance Matrix: (Units=1/GPa)
#
#
# Indices 1 2 3 4 5 6 
#
# 1 0.013284 -0.001510 -0.001351 0.000000 0.000000 0.000000
# 2 -0.001510 0.013284 -0.001351 0.000000 0.000000 0.000000
# 3 -0.001351 -0.001351 0.007956 0.000000 0.000000 0.000000
# 4 0.000000 0.000000 0.000000 0.036710 0.000000 0.000000
# 5 0.000000 0.000000 0.000000 0.000000 0.036710 0.000000
# 6 0.000000 0.000000 0.000000 0.000000 0.000000 0.029588
#
#
# Mechanical properties :
#
#
# Convention : Reuss Voigt Hill
#
# Bulk Modulus (GPa) = 38.31264 40.84022 39.57643
# Shear Modulus (GPa) = 32.33004 34.07991 33.20498
#
# Velocity S-wave (km/s) = 3.53349 3.62785 3.58098
# Velocity P-wave (km/s) = 5.60744 5.77239 5.69051
#
# Compressibility (1/GPa) = 0.02610104
#
# Stress axis : x y z
#
# Youngs Moduli (GPa) = 75.27740 75.27740 125.69861
#
# Poissons Ratio (x) = 0.11365 0.16980
# Poissons Ratio (y) = 0.11365 0.16980
# Poissons Ratio (z) = 0.10169 0.10169
#
# Static dielectric constant tensor:
#      x y z
#    x 2.155160 0.000000 0.000000 
#    y 0.000000 2.155160 0.000000 
#    z 0.000000 0.000000 2.122780 
# 
# From -- ./inp_files/1540.got.cif
#   From: 2010.05.17/outbox.cif.g08.bks.cpg/sg171_1_cif.got.tgz:1540.got - 2010.05.20 11:16:09.
