data_PCOD9580087
_publ_section_title
;
Structure prediction by ZEFSAII (Michael W. Deem and Ramdas Pophale) SiO2 
 PCOD9580087
Probable space group: P 61
;
_chemical_formula_sum "Si O2"
_cell_formula_units_Z 36
_cell_length_a 11.435244
_cell_length_b 11.435244
_cell_length_c 14.828964
_cell_angle_alpha 90.000000
_cell_angle_beta 90.000000
_cell_angle_gamma 120.000000
_cell_volume 1679.315568
_symmetry_space_group_name_H-M "P 61"
_symmetry_group_IT_number 169
_symmetry_cell_setting 'hexagonal'
loop_
_space_group_symop_operation_xyz
x,y,z
x-y,x,1/6+z
-y,x-y,1/3+z
-x,-y,1/2+z
-x+y,-x,2/3+z
y,-x+y,5/6+z
loop_
_atom_site_type_symbol
_atom_site_label
_atom_site_fract_x
_atom_site_fract_y
_atom_site_fract_z
Si Si1 0.372391 0.867765 0.852650
Si Si2 0.181131 0.106612 0.426030
Si Si3 0.798420 0.503452 0.089456
Si Si4 0.568774 0.931172 0.201193
Si Si5 0.666964 0.746018 0.206550
Si Si6 0.533729 0.136567 0.938719
O O1 0.471236 0.820300 0.894833
O O2 0.232012 0.733687 0.831334
O O3 0.414387 0.940604 0.755405
O O4 0.399992 0.993774 0.915974
O O5 0.085136 0.138826 0.489650
O O6 0.335824 0.231662 0.429861
O O7 0.188447 0.984060 0.475421
O O8 0.844605 0.433688 0.013933
O O9 0.803273 0.421513 0.177887
O O10 0.632169 0.851914 0.253536
O O11 0.655497 0.968824 0.112097
O O12 0.529975 0.641445 0.157466
#
# Coordination Sequence:
#
# PCOD9580087 Si02
#       6
#     6   6   6   6   6   6
#     4  11  23  38  64 101 143 174 227 291 363 432
#     4  12  23  43  75 104 140 196 253 298 366 453
#     4  11  21  40  67 102 140 177 234 297 362 431
#     4  11  23  38  64 100 135 177 223 290 359 423
#     4  12  21  40  69 100 133 179 233 292 355 426
#     4  11  23  41  67 103 139 179 232 296 363 431
#
# _framework density 21.437304000000001
#
# number of rings (size 3 to 8) (size 9 to 14) (size 15 to 20)
#    0.000    0.667    6.667    3.000    0.000    0.000 
#    0.000    0.000    3.667    0.000    0.000    0.000 
#    0.000    0.000    0.000    0.000    0.000    0.000 
#
# Total GULP energy -200683.708319 kJ/mol
# GULP energy per Si atom -5574.547453 kJ/mol
# Density = 2.138851 g / cm^3
# Si number density = 21.437304 Si / 1000 Ang^3
#
#
#
# Elastic Constant Matrix: (Units=GPa)
#
#
# Indices 1 2 3 4 5 6 
#
# 1 76.7786 13.7534 9.1132 0.0000 0.0000 0.0000
# 2 13.7534 76.7786 9.1132 0.0000 0.0000 0.0000
# 3 9.1132 9.1132 34.8125 0.0000 0.0000 0.0000
# 4 0.0000 0.0000 0.0000 35.5059 0.0000 0.0000
# 5 0.0000 0.0000 0.0000 0.0000 35.5059 0.0000
# 6 0.0000 0.0000 0.0000 0.0000 0.0000 31.5126
#
#
#
# Elastic Compliance Matrix: (Units=1/GPa)
#
#
# Indices 1 2 3 4 5 6 
#
# 1 0.013764 -0.002103 -0.003052 0.000000 0.000000 0.000000
# 2 -0.002103 0.013764 -0.003052 0.000000 0.000000 0.000000
# 3 -0.003052 -0.003052 0.030324 0.000000 0.000000 0.000000
# 4 0.000000 0.000000 0.000000 0.028164 0.000000 0.000000
# 5 0.000000 0.000000 0.000000 0.000000 0.028164 0.000000
# 6 0.000000 0.000000 0.000000 0.000000 0.000000 0.031733
#
#
# Mechanical properties :
#
#
# Convention : Reuss Voigt Hill
#
# Bulk Modulus (GPa) = 24.13455 28.03661 26.08558
# Shear Modulus (GPa) = 28.38646 30.93083 29.65865
#
# Velocity S-wave (km/s) = 3.64285 3.80261 3.72359
# Velocity P-wave (km/s) = 5.38298 5.69092 5.53909
#
# Compressibility (1/GPa) = 0.04143438
#
# Stress axis : x y z
#
# Youngs Moduli (GPa) = 72.65583 72.65583 32.97772
#
# Poissons Ratio (x) = 0.15281 0.10066
# Poissons Ratio (y) = 0.15281 0.10066
# Poissons Ratio (z) = 0.22178 0.22178
#
# Static dielectric constant tensor:
#      x y z
#    x 1.815580 0.000000 0.000000 
#    y 0.000000 1.815580 0.000000 
#    z 0.000000 0.000000 1.846720 
# 
# From -- ./inp_files/1152.got.cif
#   From: 2010.05.17/outbox.cif.g08.bks.cpg/sg169_cif.got.tgz:1152.got - 2010.05.20 11:12:54.
