data_PCOD9580089
_publ_section_title
;
Structure prediction by ZEFSAII (Michael W. Deem and Ramdas Pophale) SiO2 
 PCOD9580089
Probable space group: P 61
;
_chemical_formula_sum "Si O2"
_cell_formula_units_Z 48
_cell_length_a 11.201505
_cell_length_b 11.201505
_cell_length_c 18.074635
_cell_angle_alpha 90.000000
_cell_angle_beta 90.000000
_cell_angle_gamma 120.000000
_cell_volume 1964.051728
_symmetry_space_group_name_H-M "P 61"
_symmetry_group_IT_number 169
_symmetry_cell_setting 'hexagonal'
loop_
_space_group_symop_operation_xyz
x,y,z
x-y,x,1/6+z
-y,x-y,1/3+z
-x,-y,1/2+z
-x+y,-x,2/3+z
y,-x+y,5/6+z
loop_
_atom_site_type_symbol
_atom_site_label
_atom_site_fract_x
_atom_site_fract_y
_atom_site_fract_z
Si Si1 0.625465 0.144826 0.253630
Si Si2 0.875316 0.467159 0.113166
Si Si3 0.389416 0.305447 0.599581
Si Si4 0.183520 0.313305 0.991945
Si Si5 0.445564 0.410114 0.186672
Si Si6 0.949297 0.040382 0.925163
Si Si7 0.768456 0.369341 0.969443
Si Si8 0.373883 0.221696 0.061018
O O1 0.732390 0.117839 0.208041
O O2 0.651435 0.297656 0.248121
O O3 0.662136 0.141371 0.338915
O O4 0.470423 0.026839 0.243715
O O5 0.872937 0.549896 0.183505
O O6 0.870206 0.322044 0.131800
O O7 0.765647 0.431534 0.048754
O O8 0.459714 0.457434 0.635429
O O9 0.226793 0.202827 0.597364
O O10 0.462669 0.237295 0.645998
O O11 0.071437 0.200748 0.936871
O O12 0.235074 0.227485 0.042725
O O13 0.527427 0.433293 0.261101
O O14 0.417833 0.273707 0.143381
O O15 0.294814 0.386034 0.204603
O O16 0.968430 0.009332 0.837411
#
# Coordination Sequence:
#
# PCOD9580089 Si02
#       8
#     6   6   6   6   6   6   6   6
#     4  11  21  42  68 105 138 188 240 301 379 444
#     4  11  25  43  72 104 149 191 245 314 380 459
#     4  12  24  48  71 109 150 197 252 322 385 458
#     4  11  21  47  78 108 139 190 262 318 365 456
#     4  12  26  44  75 108 146 193 249 314 384 458
#     4  12  28  49  81 114 154 205 267 322 389 475
#     4  12  26  39  69 108 144 191 238 309 384 466
#     4  11  21  44  72 102 140 185 247 308 366 446
#
# _framework density 24.439273
#
# number of rings (size 3 to 8) (size 9 to 14) (size 15 to 20)
#    0.000    0.500    6.250    3.750    3.500    2.000 
#    0.000    2.500    0.000    0.000    0.000    0.000 
#    0.000    0.000    0.000    0.000    0.000    0.000 
#
# Total GULP energy -267932.224523 kJ/mol
# GULP energy per Si atom -5581.921344 kJ/mol
# Density = 2.438365 g / cm^3
# Si number density = 24.439273 Si / 1000 Ang^3
#
#
#
# Elastic Constant Matrix: (Units=GPa)
#
#
# Indices 1 2 3 4 5 6 
#
# 1 36.1366 34.1922 13.4143 0.0000 0.0000 0.0000
# 2 34.1922 36.1366 13.4143 0.0000 0.0000 0.0000
# 3 13.4143 13.4143 105.0144 0.0000 0.0000 0.0000
# 4 0.0000 0.0000 0.0000 19.1404 0.0000 0.0000
# 5 0.0000 0.0000 0.0000 0.0000 19.1404 0.0000
# 6 0.0000 0.0000 0.0000 0.0000 0.0000 0.9722
#
#
#
# Elastic Compliance Matrix: (Units=1/GPa)
#
#
# Indices 1 2 3 4 5 6 
#
# 1 0.264613 -0.249665 -0.001909 0.000000 0.000000 0.000000
# 2 -0.249665 0.264613 -0.001909 0.000000 0.000000 0.000000
# 3 -0.001909 -0.001909 0.010010 0.000000 0.000000 0.000000
# 4 0.000000 0.000000 0.000000 0.052246 0.000000 0.000000
# 5 0.000000 0.000000 0.000000 0.000000 0.052246 0.000000
# 6 0.000000 0.000000 0.000000 0.000000 0.000000 1.028556
#
#
# Mechanical properties :
#
#
# Convention : Reuss Voigt Hill
#
# Bulk Modulus (GPa) = 30.99093 33.25883 32.12488
# Shear Modulus (GPa) = 2.28310 15.60173 8.94241
#
# Velocity S-wave (km/s) = 0.96758 2.52937 1.91494
# Velocity P-wave (km/s) = 3.73585 4.70836 4.25001
#
# Compressibility (1/GPa) = 0.03226751
#
# Stress axis : x y z
#
# Youngs Moduli (GPa) = 3.77911 3.77911 99.89721
#
# Poissons Ratio (x) = 0.94351 0.19074
# Poissons Ratio (y) = 0.94351 0.19074
# Poissons Ratio (z) = 0.00722 0.00722
#
# Static dielectric constant tensor:
#      x y z
#    x 2.007330 0.000000 0.000000 
#    y 0.000000 2.007330 0.000000 
#    z 0.000000 0.000000 1.952520 
# 
# From -- ./inp_files/1425.got.cif
#   From: 2010.05.17/outbox.cif.g08.bks.cpg/sg169_cif.got.tgz:1425.got - 2010.05.20 11:12:54.
