data_PCOD9580191
_publ_section_title
;
Structure prediction by ZEFSAII (Michael W. Deem and Ramdas Pophale) SiO2 
 PCOD9580191
Probable space group: P 65
;
_chemical_formula_sum "Si O2"
_cell_formula_units_Z 48
_cell_length_a 18.866254
_cell_length_b 18.866254
_cell_length_c 8.292910
_cell_angle_alpha 90.000000
_cell_angle_beta 90.000000
_cell_angle_gamma 120.000000
_cell_volume 2556.283037
_symmetry_space_group_name_H-M "P 65"
_symmetry_group_IT_number 170
_symmetry_cell_setting 'hexagonal'
loop_
_space_group_symop_operation_xyz
x,y,z
x-y,x,5/6+z
-y,x-y,2/3+z
-x,-y,1/2+z
-x+y,-x,1/3+z
y,-x+y,1/6+z
loop_
_atom_site_type_symbol
_atom_site_label
_atom_site_fract_x
_atom_site_fract_y
_atom_site_fract_z
Si Si1 0.838265 0.282547 0.393010
Si Si2 0.451024 0.300731 0.951294
Si Si3 0.635578 0.651261 0.214126
Si Si4 0.193519 0.859840 0.695844
Si Si5 0.087052 0.300259 0.000004
Si Si6 0.065487 0.162563 0.519187
Si Si7 0.638450 0.361705 0.022976
Si Si8 0.796852 0.764288 0.424604
O O1 0.782818 0.207469 0.516256
O O2 0.837793 0.235024 0.230584
O O3 0.782668 0.323168 0.360631
O O4 0.929042 0.343892 0.465991
O O5 0.439306 0.364175 0.834886
O O6 0.541328 0.327741 0.012628
O O7 0.388433 0.278847 0.098187
O O8 0.632204 0.712685 0.084330
O O9 0.715752 0.707947 0.321422
O O10 0.194434 0.889520 0.516889
O O11 0.134114 0.877951 0.804703
O O12 0.144847 0.272795 0.911494
O O13 0.997278 0.233445 0.939651
O O14 0.117722 0.119693 0.550079
O O15 0.014420 0.161240 0.676465
O O16 0.660472 0.329230 0.857485
#
# Coordination Sequence:
#
# PCOD9580191 Si02
#       8
#     6   6   6   6   6   6   6   6
#     4  10  19  39  64  87 118 164 201 253 310 388
#     4   9  20  39  62  88 122 159 204 250 313 381
#     4   9  18  36  59  83 114 157 195 244 309 378
#     4  10  22  33  58  85 116 148 205 251 313 370
#     4  11  21  33  55  86 114 146 197 257 302 365
#     4  11  22  40  52  71 106 158 201 250 311 374
#     4  10  23  42  70  98 128 173 218 263 326 406
#     4  10  19  34  56  76 106 151 197 240 304 370
#
# _framework density 18.777263999999999
#
# number of rings (size 3 to 8) (size 9 to 14) (size 15 to 20)
#    0.000    2.000    2.500    2.250    5.250    0.000 
#    2.250    1.250    5.500    0.000    0.000    0.000 
#    0.000    0.000    0.000    0.000    0.000    0.000 
#
# Total GULP energy -267289.550079 kJ/mol
# GULP energy per Si atom -5568.532293 kJ/mol
# Density = 1.873453 g / cm^3
# Si number density = 18.777264 Si / 1000 Ang^3
#
#
#
# Elastic Constant Matrix: (Units=GPa)
#
#
# Indices 1 2 3 4 5 6 
#
# 1 78.4871 32.0879 25.1427 0.0000 0.0000 0.0000
# 2 32.0879 78.4871 25.1427 0.0000 0.0000 0.0000
# 3 25.1427 25.1427 69.2358 0.0000 0.0000 0.0000
# 4 0.0000 0.0000 0.0000 25.1388 0.0000 0.0000
# 5 0.0000 0.0000 0.0000 0.0000 25.1388 0.0000
# 6 0.0000 0.0000 0.0000 0.0000 0.0000 23.1996
#
#
#
# Elastic Compliance Matrix: (Units=1/GPa)
#
#
# Indices 1 2 3 4 5 6 
#
# 1 0.016192 -0.005360 -0.003934 0.000000 0.000000 0.000000
# 2 -0.005360 0.016192 -0.003934 0.000000 0.000000 0.000000
# 3 -0.003934 -0.003934 0.017300 0.000000 0.000000 0.000000
# 4 0.000000 0.000000 0.000000 0.039779 0.000000 0.000000
# 5 0.000000 0.000000 0.000000 0.000000 0.039779 0.000000
# 6 0.000000 0.000000 0.000000 0.000000 0.000000 0.043104
#
#
# Mechanical properties :
#
#
# Convention : Reuss Voigt Hill
#
# Bulk Modulus (GPa) = 43.04701 43.43963 43.24332
# Shear Modulus (GPa) = 24.20769 24.28455 24.24612
#
# Velocity S-wave (km/s) = 3.59444 3.60014 3.59729
# Velocity P-wave (km/s) = 6.34047 6.36127 6.35088
#
# Compressibility (1/GPa) = 0.02323042
#
# Stress axis : x y z
#
# Youngs Moduli (GPa) = 61.75752 61.75752 57.80181
#
# Poissons Ratio (x) = 0.33101 0.22738
# Poissons Ratio (y) = 0.33101 0.22738
# Poissons Ratio (z) = 0.24294 0.24294
#
# Static dielectric constant tensor:
#      x y z
#    x 1.649670 0.000000 0.000000 
#    y 0.000000 1.649670 0.000000 
#    z 0.000000 0.000000 1.706560 
# 
# From -- ./inp_files/728.got.cif
#   From: 2010.05.17/outbox.cif.g08.bks.cpg/sg170_cif.got.tgz:728.got - 2010.05.20 11:14:30.
