data_PCOD9580229
_publ_section_title
;
Structure prediction by ZEFSAII (Michael W. Deem and Ramdas Pophale) SiO2 
 PCOD9580229
Probable space group: P 65
;
_chemical_formula_sum "Si O2"
_cell_formula_units_Z 42
_cell_length_a 14.969801
_cell_length_b 14.969801
_cell_length_c 11.119707
_cell_angle_alpha 90.000000
_cell_angle_beta 90.000000
_cell_angle_gamma 120.000000
_cell_volume 2158.022805
_symmetry_space_group_name_H-M "P 65"
_symmetry_group_IT_number 170
_symmetry_cell_setting 'hexagonal'
loop_
_space_group_symop_operation_xyz
x,y,z
x-y,x,5/6+z
-y,x-y,2/3+z
-x,-y,1/2+z
-x+y,-x,1/3+z
y,-x+y,1/6+z
loop_
_atom_site_type_symbol
_atom_site_label
_atom_site_fract_x
_atom_site_fract_y
_atom_site_fract_z
Si Si1 0.174959 0.608795 0.227230
Si Si2 0.242467 0.431189 0.492653
Si Si3 0.305965 0.980032 0.763560
Si Si4 0.409958 0.235852 0.938949
Si Si5 0.123082 0.190388 0.756109
Si Si6 0.230312 0.626895 0.497019
Si Si7 0.433767 0.955596 0.981260
O O1 0.061331 0.528457 0.182313
O O2 0.211702 0.721750 0.171534
O O3 0.177144 0.617339 0.370272
O O4 0.259094 0.578764 0.188615
O O5 0.310369 0.374911 0.495699
O O6 0.142564 0.379109 0.405308
O O7 0.200400 0.408396 0.630778
O O8 0.228548 0.011748 0.826503
O O9 0.382849 0.984768 0.869376
O O10 0.440378 0.354747 0.927657
O O11 0.294728 0.158667 0.982095
O O12 0.016709 0.135745 0.685090
O O13 0.142360 0.581714 0.599113
O O14 0.282050 0.553125 0.488080
#
# Coordination Sequence:
#
# PCOD9580229 Si02
#       7
#     6   6   6   6   6   6   6
#     4  12  21  39  59  86 124 162 205 258 314 371
#     4   9  16  32  48  84 114 148 192 245 299 357
#     4   9  14  27  55  76 113 143 194 247 302 343
#     4   9  17  33  58  86 111 151 201 251 303 368
#     4  11  16  27  50  89 115 142 195 261 300 360
#     4  10  24  36  54  90 121 156 207 250 314 379
#     4  10  20  38  58  89 120 162 210 254 314 362
#
# _framework density 19.462257999999999
#
# number of rings (size 3 to 8) (size 9 to 14) (size 15 to 20)
#    0.000    2.286    7.143    1.714    0.000    1.143 
#    7.714    0.000    0.000    0.000   14.857    0.000 
#    0.000    0.000    0.000    0.000    0.000    0.000 
#
# Total GULP energy -234088.380586 kJ/mol
# GULP energy per Si atom -5573.532871 kJ/mol
# Density = 1.941796 g / cm^3
# Si number density = 19.462258 Si / 1000 Ang^3
#
#
#
# Elastic Constant Matrix: (Units=GPa)
#
#
# Indices 1 2 3 4 5 6 
#
# 1 112.6494 63.2378 31.7526 0.0000 0.0000 0.0000
# 2 63.2378 112.6494 31.7526 0.0000 0.0000 0.0000
# 3 31.7526 31.7526 35.5572 0.0000 0.0000 0.0000
# 4 0.0000 0.0000 0.0000 24.4512 0.0000 0.0000
# 5 0.0000 0.0000 0.0000 0.0000 24.4512 0.0000
# 6 0.0000 0.0000 0.0000 0.0000 0.0000 24.7058
#
#
#
# Elastic Compliance Matrix: (Units=1/GPa)
#
#
# Indices 1 2 3 4 5 6 
#
# 1 0.014315 -0.005924 -0.007493 0.000000 0.000000 0.000000
# 2 -0.005924 0.014315 -0.007493 0.000000 0.000000 0.000000
# 3 -0.007493 -0.007493 0.041506 0.000000 0.000000 0.000000
# 4 0.000000 0.000000 0.000000 0.040898 0.000000 0.000000
# 5 0.000000 0.000000 0.000000 0.000000 0.040898 0.000000
# 6 0.000000 0.000000 0.000000 0.000000 0.000000 0.040476
#
#
# Mechanical properties :
#
#
# Convention : Reuss Voigt Hill
#
# Bulk Modulus (GPa) = 35.31598 57.14913 46.23255
# Shear Modulus (GPa) = 20.51994 23.66249 22.09121
#
# Velocity S-wave (km/s) = 3.25059 3.49064 3.37275
# Velocity P-wave (km/s) = 5.68100 6.75825 6.24290
#
# Compressibility (1/GPa) = 0.02831580
#
# Stress axis : x y z
#
# Youngs Moduli (GPa) = 69.85908 69.85908 24.09273
#
# Poissons Ratio (x) = 0.41382 0.18053
# Poissons Ratio (y) = 0.41382 0.18053
# Poissons Ratio (z) = 0.52346 0.52346
#
# Static dielectric constant tensor:
#      x y z
#    x 1.751800 0.000000 0.000000 
#    y 0.000000 1.751800 0.000000 
#    z 0.000000 0.000000 1.688310 
# 
# From -- ./inp_files/954.got.cif
#   From: 2010.05.17/outbox.cif.g08.bks.cpg/sg170_cif.got.tgz:954.got - 2010.05.20 11:14:30.
