data_PCOD9580682
_publ_section_title
;
Structure prediction by ZEFSAII (Michael W. Deem and Ramdas Pophale) SiO2 
 PCOD9580682
Probable space group: P 62
;
_chemical_formula_sum "Si O2"
_cell_formula_units_Z 21
_cell_length_a 13.372396
_cell_length_b 13.372396
_cell_length_c 5.652073
_cell_angle_alpha 90.000000
_cell_angle_beta 90.000000
_cell_angle_gamma 120.000000
_cell_volume 875.299846
_symmetry_space_group_name_H-M "P 62"
_symmetry_group_IT_number 171
_symmetry_cell_setting 'hexagonal'
loop_
_space_group_symop_operation_xyz
x,y,z
x-y,x,1/3+z
-y,x-y,2/3+z
-x,-y,z
-x+y,-x,1/3+z
y,-x+y,2/3+z
loop_
_atom_site_type_symbol
_atom_site_label
_atom_site_fract_x
_atom_site_fract_y
_atom_site_fract_z
Si Si1 0.270092 0.902861 0.743670
Si Si2 0.560106 0.233886 0.165090
Si Si3 0.155725 0.207101 0.744938
Si Si4 0.500000 0.000000 0.057923
O O1 0.252716 0.779011 0.660486
O O2 0.266064 0.988562 0.551587
O O3 0.158686 0.864721 0.913762
O O4 0.388780 0.962550 0.891155
O O5 0.681886 0.269936 0.047384
O O6 0.508217 0.101265 0.218932
O O7 0.156707 0.106607 0.593715
#
# Coordination Sequence:
#
# PCOD9580682 Si02
#       4
#     6   6   6   3
#     4  11  26  44  68 100 137 177 223 276 334 398
#     4  10  23  42  66  98 133 176 227 277 333 394
#     4  12  26  45  70 102 138 178 221 273 333 398
#     4  10  22  44  66  96 136 178 226 276 334 394
#
# _framework density 23.991781
#
# number of rings (size 3 to 8) (size 9 to 14) (size 15 to 20)
#    0.000    1.143    0.000    5.143    0.000   21.714 
#    0.000    2.857    0.000    0.000    0.000    0.000 
#    0.000    0.000    0.000    0.000    0.000    0.000 
#
# Total GULP energy -117536.995105 kJ/mol
# GULP energy per Si atom -5596.999767 kJ/mol
# Density = 2.393717 g / cm^3
# Si number density = 23.991781 Si / 1000 Ang^3
#
#
#
# Elastic Constant Matrix: (Units=GPa)
#
#
# Indices 1 2 3 4 5 6 
#
# 1 137.7489 42.6241 24.0647 0.0000 0.0000 0.0000
# 2 42.6241 137.7489 24.0647 0.0000 0.0000 0.0000
# 3 24.0647 24.0647 44.5692 0.0000 0.0000 0.0000
# 4 0.0000 0.0000 0.0000 34.1459 0.0000 0.0000
# 5 0.0000 0.0000 0.0000 0.0000 34.1459 0.0000
# 6 0.0000 0.0000 0.0000 0.0000 0.0000 47.5624
#
#
#
# Elastic Compliance Matrix: (Units=1/GPa)
#
#
# Indices 1 2 3 4 5 6 
#
# 1 0.008495 -0.002018 -0.003497 0.000000 0.000000 0.000000
# 2 -0.002018 0.008495 -0.003497 0.000000 0.000000 0.000000
# 3 -0.003497 -0.003497 0.026214 0.000000 0.000000 0.000000
# 4 0.000000 0.000000 0.000000 0.029286 0.000000 0.000000
# 5 0.000000 0.000000 0.000000 0.000000 0.029286 0.000000
# 6 0.000000 0.000000 0.000000 0.000000 0.000000 0.021025
#
#
# Mechanical properties :
#
#
# Convention : Reuss Voigt Hill
#
# Bulk Modulus (GPa) = 39.71581 55.73047 47.72314
# Shear Modulus (GPa) = 33.50798 38.45841 35.98320
#
# Velocity S-wave (km/s) = 3.74122 4.00807 3.87694
# Velocity P-wave (km/s) = 5.93736 6.68572 6.32262
#
# Compressibility (1/GPa) = 0.02517889
#
# Stress axis : x y z
#
# Youngs Moduli (GPa) = 117.71783 117.71783 38.14798
#
# Poissons Ratio (x) = 0.23751 0.13342
# Poissons Ratio (y) = 0.23751 0.13342
# Poissons Ratio (z) = 0.41170 0.41170
#
# Static dielectric constant tensor:
#      x y z
#    x 1.949440 0.000000 0.000000 
#    y 0.000000 1.949440 0.000000 
#    z 0.000000 0.000000 1.896730 
# 
# From -- ./inp_files/177.got.cif
#   From: 2010.05.17/outbox.cif.g08.bks.cpg/sg171_1_cif.got.tgz:177.got - 2010.05.20 11:16:09.
