data_PCOD9580511
_publ_section_title
;
Structure prediction by ZEFSAII (Michael W. Deem and Ramdas Pophale) SiO2 
 PCOD9580511
Probable space group: P 62
;
_chemical_formula_sum "Si O2"
_cell_formula_units_Z 45
_cell_length_a 17.544057
_cell_length_b 17.544057
_cell_length_c 9.069056
_cell_angle_alpha 90.000000
_cell_angle_beta 90.000000
_cell_angle_gamma 120.000000
_cell_volume 2417.423695
_symmetry_space_group_name_H-M "P 62"
_symmetry_group_IT_number 171
_symmetry_cell_setting 'hexagonal'
loop_
_space_group_symop_operation_xyz
x,y,z
x-y,x,1/3+z
-y,x-y,2/3+z
-x,-y,z
-x+y,-x,1/3+z
y,-x+y,2/3+z
loop_
_atom_site_type_symbol
_atom_site_label
_atom_site_fract_x
_atom_site_fract_y
_atom_site_fract_z
Si Si1 0.346154 0.955558 0.932680
Si Si2 0.370893 0.948537 0.594517
Si Si3 0.750185 0.877462 0.573262
Si Si4 0.500000 0.000000 0.159256
Si Si5 0.593318 0.817405 0.349964
Si Si6 0.728698 0.945871 0.111023
Si Si7 0.590449 0.474052 0.763826
Si Si8 0.178426 0.922519 0.559061
O O1 0.383825 0.967431 0.768470
O O2 0.272539 0.853473 0.950315
O O3 0.420980 0.983943 0.054403
O O4 0.300636 0.012369 0.978961
O O5 0.395166 0.876074 0.533075
O O6 0.272712 0.927822 0.563643
O O7 0.438907 0.035859 0.505929
O O8 0.657817 0.841049 0.489514
O O9 0.786551 0.813669 0.519720
O O10 0.738185 0.869574 0.747527
O O11 0.808001 0.980439 0.539637
O O12 0.465965 0.917791 0.270040
O O13 0.650124 0.894931 0.230313
O O14 0.502982 0.811840 0.400748
O O15 0.749860 0.875257 0.038613
#
# Coordination Sequence:
#
# PCOD9580511 Si02
#       8
#     6   6   6   3   6   6   6   6
#     4  11  22  38  65  92 122 162 206 264 307 376
#     4  10  20  36  60  92 121 155 208 257 312 373
#     4  11  24  38  61  86 128 164 217 261 311 372
#     4  10  20  36  62  92 116 156 202 256 314 360
#     4  11  21  40  62  90 127 162 205 258 315 377
#     4  11  23  40  61  92 125 167 217 258 318 372
#     4  10  21  37  60  89 127 150 203 261 317 378
#     4  12  23  40  62  90 124 170 216 268 315 369
#
# _framework density 18.614857000000001
#
# number of rings (size 3 to 8) (size 9 to 14) (size 15 to 20)
#    0.000    1.333    5.333    1.600    7.467    0.000 
#    0.000    2.000    0.000    3.200    0.000    0.000 
#    0.000    0.000    0.000    0.000    0.000    0.000 
#
# Total GULP energy -251016.766656 kJ/mol
# GULP energy per Si atom -5578.150370 kJ/mol
# Density = 1.857249 g / cm^3
# Si number density = 18.614857 Si / 1000 Ang^3
#
#
#
# Elastic Constant Matrix: (Units=GPa)
#
#
# Indices 1 2 3 4 5 6 
#
# 1 68.2776 25.2926 17.5913 0.0000 0.0000 0.0000
# 2 25.2926 68.2776 17.5913 0.0000 0.0000 0.0000
# 3 17.5913 17.5913 113.9089 0.0000 0.0000 0.0000
# 4 0.0000 0.0000 0.0000 25.6259 0.0000 0.0000
# 5 0.0000 0.0000 0.0000 0.0000 25.6259 0.0000
# 6 0.0000 0.0000 0.0000 0.0000 0.0000 21.4925
#
#
#
# Elastic Compliance Matrix: (Units=1/GPa)
#
#
# Indices 1 2 3 4 5 6 
#
# 1 0.017305 -0.005959 -0.001752 0.000000 0.000000 0.000000
# 2 -0.005959 0.017305 -0.001752 0.000000 0.000000 0.000000
# 3 -0.001752 -0.001752 0.009320 0.000000 0.000000 0.000000
# 4 0.000000 0.000000 0.000000 0.039023 0.000000 0.000000
# 5 0.000000 0.000000 0.000000 0.000000 0.039023 0.000000
# 6 0.000000 0.000000 0.000000 0.000000 0.000000 0.046528
#
#
# Mechanical properties :
#
#
# Convention : Reuss Voigt Hill
#
# Bulk Modulus (GPa) = 39.99469 41.26830 40.63149
# Shear Modulus (GPa) = 25.54083 27.21480 26.37782
#
# Velocity S-wave (km/s) = 3.70816 3.82775 3.76843
# Velocity P-wave (km/s) = 6.31395 6.46168 6.38824
#
# Compressibility (1/GPa) = 0.02500332
#
# Stress axis : x y z
#
# Youngs Moduli (GPa) = 57.78691 57.78691 107.29453
#
# Poissons Ratio (x) = 0.34435 0.18800
# Poissons Ratio (y) = 0.34435 0.18800
# Poissons Ratio (z) = 0.10125 0.10125
#
# Static dielectric constant tensor:
#      x y z
#    x 1.658050 0.000000 0.000000 
#    y 0.000000 1.658050 0.000000 
#    z 0.000000 0.000000 1.638890 
# 
# From -- ./inp_files/4445.got.cif
#   From: 2010.05.17/outbox.cif.g08.bks.cpg/sg171_3_cif.got.tgz:4445.got - 2010.05.20 11:16:09.
