data_PCOD9580809
_publ_section_title
;
Structure prediction by ZEFSAII (Michael W. Deem and Ramdas Pophale) SiO2 
 PCOD9580809
Probable space group: P 62
;
_chemical_formula_sum "Si O2"
_cell_formula_units_Z 33
_cell_length_a 12.403881
_cell_length_b 12.403881
_cell_length_c 9.791612
_cell_angle_alpha 90.000000
_cell_angle_beta 90.000000
_cell_angle_gamma 120.000000
_cell_volume 1304.667998
_symmetry_space_group_name_H-M "P 62"
_symmetry_group_IT_number 171
_symmetry_cell_setting 'hexagonal'
loop_
_space_group_symop_operation_xyz
x,y,z
x-y,x,1/3+z
-y,x-y,2/3+z
-x,-y,z
-x+y,-x,1/3+z
y,-x+y,2/3+z
loop_
_atom_site_type_symbol
_atom_site_label
_atom_site_fract_x
_atom_site_fract_y
_atom_site_fract_z
Si Si1 0.222843 0.618025 0.148670
Si Si2 0.319443 0.803524 0.782326
Si Si3 0.108523 0.790860 0.121918
Si Si4 0.500000 0.500000 0.327952
Si Si5 0.648460 0.821099 0.747150
Si Si6 0.934251 0.241800 0.717193
O O1 0.171752 0.552136 0.297414
O O2 0.372334 0.706894 0.149778
O O3 0.167995 0.702401 0.092289
O O4 0.200919 0.493595 0.069776
O O5 0.201401 0.824852 0.789566
O O6 0.420479 0.887334 0.892307
O O7 0.089777 0.770566 0.285304
O O8 0.973786 0.732120 0.059587
O O9 0.181924 0.938375 0.085041
O O10 0.615502 0.593066 0.414312
O O11 0.678993 0.893621 0.890712
#
# Coordination Sequence:
#
# PCOD9580809 Si02
#       6
#     6   6   6   3   6   6
#     4  11  22  43  70 108 139 187 240 308 383 450
#     4  11  23  41  70  99 142 183 235 301 379 448
#     4  12  27  47  74 106 148 198 251 313 374 452
#     4  12  22  44  70  96 142 182 238 310 370 452
#     4  11  27  48  73 107 146 199 252 310 377 455
#     4  11  27  43  73 106 144 197 245 306 376 461
#
# _framework density 25.293790999999999
#
# number of rings (size 3 to 8) (size 9 to 14) (size 15 to 20)
#    0.000    0.727    5.455    1.636   12.727    0.000 
#    6.545    2.727    0.000    0.000    0.000    0.000 
#    0.000    0.000    0.000    0.000    0.000    0.000 
#
# Total GULP energy -184480.055093 kJ/mol
# GULP energy per Si atom -5590.304700 kJ/mol
# Density = 2.523622 g / cm^3
# Si number density = 25.293791 Si / 1000 Ang^3
#
#
#
# Elastic Constant Matrix: (Units=GPa)
#
#
# Indices 1 2 3 4 5 6 
#
# 1 113.2450 41.8496 4.1815 0.0000 0.0000 0.0000
# 2 41.8496 113.2450 4.1815 0.0000 0.0000 0.0000
# 3 4.1815 4.1815 71.8765 0.0000 0.0000 0.0000
# 4 0.0000 0.0000 0.0000 31.4518 0.0000 0.0000
# 5 0.0000 0.0000 0.0000 0.0000 31.4518 0.0000
# 6 0.0000 0.0000 0.0000 0.0000 0.0000 35.6977
#
#
#
# Elastic Compliance Matrix: (Units=1/GPa)
#
#
# Indices 1 2 3 4 5 6 
#
# 1 0.010237 -0.003769 -0.000376 0.000000 0.000000 0.000000
# 2 -0.003769 0.010237 -0.000376 0.000000 0.000000 0.000000
# 3 -0.000376 -0.000376 0.013957 0.000000 0.000000 0.000000
# 4 0.000000 0.000000 0.000000 0.031795 0.000000 0.000000
# 5 0.000000 0.000000 0.000000 0.000000 0.031795 0.000000
# 6 0.000000 0.000000 0.000000 0.000000 0.000000 0.028013
#
#
# Mechanical properties :
#
#
# Convention : Reuss Voigt Hill
#
# Bulk Modulus (GPa) = 39.38971 44.31018 41.84995
# Shear Modulus (GPa) = 34.83360 36.26384 35.54872
#
# Velocity S-wave (km/s) = 3.71504 3.79054 3.75298
# Velocity P-wave (km/s) = 5.83170 6.05919 5.94653
#
# Compressibility (1/GPa) = 0.02538734
#
# Stress axis : x y z
#
# Youngs Moduli (GPa) = 97.68259 97.68259 71.65101
#
# Poissons Ratio (x) = 0.36819 0.02696
# Poissons Ratio (y) = 0.36819 0.02696
# Poissons Ratio (z) = 0.03676 0.03676
#
# Static dielectric constant tensor:
#      x y z
#    x 2.011870 0.000000 0.000000 
#    y 0.000000 2.011870 0.000000 
#    z 0.000000 0.000000 2.089660 
# 
# From -- ./inp_files/1524.got.cif
#   From: 2010.05.17/outbox.cif.g08.bks.cpg/sg171_1_cif.got.tgz:1524.got - 2010.05.20 11:16:09.
