data_PCOD9580505
_publ_section_title
;
Structure prediction by ZEFSAII (Michael W. Deem and Ramdas Pophale) SiO2 
 PCOD9580505
Probable space group: P 62
;
_chemical_formula_sum "Si O2"
_cell_formula_units_Z 36
_cell_length_a 21.260823
_cell_length_b 21.260823
_cell_length_c 4.955228
_cell_angle_alpha 90.000000
_cell_angle_beta 90.000000
_cell_angle_gamma 120.000000
_cell_volume 1939.788667
_symmetry_space_group_name_H-M "P 62"
_symmetry_group_IT_number 171
_symmetry_cell_setting 'hexagonal'
loop_
_space_group_symop_operation_xyz
x,y,z
x-y,x,1/3+z
-y,x-y,2/3+z
-x,-y,z
-x+y,-x,1/3+z
y,-x+y,2/3+z
loop_
_atom_site_type_symbol
_atom_site_label
_atom_site_fract_x
_atom_site_fract_y
_atom_site_fract_z
Si Si1 0.248884 0.172877 0.555050
Si Si2 0.789130 0.346300 0.555984
Si Si3 0.744898 0.154274 0.328843
Si Si4 0.639560 0.203467 0.391194
Si Si5 0.914450 0.166485 0.729069
Si Si6 0.167598 0.756403 0.818905
O O1 0.329013 0.240918 0.612880
O O2 0.253429 0.144421 0.263475
O O3 0.189002 0.196500 0.519202
O O4 0.237176 0.110250 0.771541
O O5 0.712492 0.275316 0.488052
O O6 0.817217 0.396184 0.288970
O O7 0.837197 0.316184 0.701122
O O8 0.776821 0.391593 0.784102
O O9 0.666131 0.146348 0.317091
O O10 0.771828 0.180601 0.630941
O O11 0.800142 0.219025 0.121417
O O12 0.902428 0.235742 0.756772
#
# Coordination Sequence:
#
# PCOD9580505 Si02
#       6
#     6   6   6   6   6   6
#     4  10  20  36  59  85 109 136 172 214 258 307
#     4  11  19  27  41  65  97 132 172 219 269 313
#     4   9  18  31  47  70 100 134 173 216 259 304
#     4  11  19  27  41  65  97 132 172 219 269 313
#     4  10  20  36  59  85 109 136 172 214 258 307
#     4   9  18  31  47  70 100 134 173 216 259 304
#
# _framework density 18.558723000000001
#
# number of rings (size 3 to 8) (size 9 to 14) (size 15 to 20)
#    0.000    2.000    0.000    7.000    0.000    0.000 
#    0.000    0.000    0.000    6.000    0.000   11.667 
#    0.000    0.000    0.000    0.000    0.000    0.000 
#
# Total GULP energy -200403.038181 kJ/mol
# GULP energy per Si atom -5566.751061 kJ/mol
# Density = 1.851648 g / cm^3
# Si number density = 18.558723 Si / 1000 Ang^3
#
#
#
# Elastic Constant Matrix: (Units=GPa)
#
#
# Indices 1 2 3 4 5 6 
#
# 1 45.3896 21.7141 0.8870 0.0000 0.0000 0.0000
# 2 21.7141 45.3896 0.8870 0.0000 0.0000 0.0000
# 3 0.8870 0.8870 81.0762 0.0000 0.0000 0.0000
# 4 0.0000 0.0000 0.0000 17.5862 0.0000 0.0000
# 5 0.0000 0.0000 0.0000 0.0000 17.5862 0.0000
# 6 0.0000 0.0000 0.0000 0.0000 0.0000 11.8377
#
#
#
# Elastic Compliance Matrix: (Units=1/GPa)
#
#
# Indices 1 2 3 4 5 6 
#
# 1 0.028572 -0.013666 -0.000163 0.000000 0.000000 0.000000
# 2 -0.013666 0.028572 -0.000163 0.000000 0.000000 0.000000
# 3 -0.000163 -0.000163 0.012338 0.000000 0.000000 0.000000
# 4 0.000000 0.000000 0.000000 0.056863 0.000000 0.000000
# 5 0.000000 0.000000 0.000000 0.000000 0.056863 0.000000
# 6 0.000000 0.000000 0.000000 0.000000 0.000000 0.084476
#
#
# Mechanical properties :
#
#
# Convention : Reuss Voigt Hill
#
# Bulk Modulus (GPa) = 24.09725 24.31465 24.20595
# Shear Modulus (GPa) = 16.15511 19.29318 17.72414
#
# Velocity S-wave (km/s) = 2.95360 3.22774 3.09371
# Velocity P-wave (km/s) = 4.96429 5.19817 5.08258
#
# Compressibility (1/GPa) = 0.04149850
#
# Stress axis : x y z
#
# Youngs Moduli (GPa) = 34.99904 34.99904 81.05279
#
# Poissons Ratio (x) = 0.47828 0.01322
# Poissons Ratio (y) = 0.47828 0.01322
# Poissons Ratio (z) = 0.00571 0.00571
#
# Static dielectric constant tensor:
#      x y z
#    x 1.702120 0.000000 0.000000 
#    y 0.000000 1.702120 0.000000 
#    z 0.000000 0.000000 1.638590 
# 
# From -- ./inp_files/385.got.cif
#   From: 2010.05.17/outbox.cif.g08.bks.cpg/sg171_1_cif.got.tgz:385.got - 2010.05.20 11:16:09.
