data_PCOD9580424
_publ_section_title
;
Structure prediction by ZEFSAII (Michael W. Deem and Ramdas Pophale) SiO2 
 PCOD9580424
Probable space group: P 62
;
_chemical_formula_sum "Si O2"
_cell_formula_units_Z 36
_cell_length_a 21.616951
_cell_length_b 21.616951
_cell_length_c 4.923829
_cell_angle_alpha 90.000000
_cell_angle_beta 90.000000
_cell_angle_gamma 120.000000
_cell_volume 1992.610754
_symmetry_space_group_name_H-M "P 62"
_symmetry_group_IT_number 171
_symmetry_cell_setting 'hexagonal'
loop_
_space_group_symop_operation_xyz
x,y,z
x-y,x,1/3+z
-y,x-y,2/3+z
-x,-y,z
-x+y,-x,1/3+z
y,-x+y,2/3+z
loop_
_atom_site_type_symbol
_atom_site_label
_atom_site_fract_x
_atom_site_fract_y
_atom_site_fract_z
Si Si1 0.813171 0.761906 0.468990
Si Si2 0.390480 0.239922 0.872615
Si Si3 0.541953 0.227143 0.258109
Si Si4 0.763896 0.808083 0.944423
Si Si5 0.545331 0.318286 0.752911
Si Si6 0.845814 0.234151 0.033798
O O1 0.816491 0.815701 0.701096
O O2 0.889218 0.772072 0.377222
O O3 0.769118 0.684069 0.610704
O O4 0.776280 0.770714 0.202288
O O5 0.316861 0.238497 0.828207
O O6 0.467959 0.307950 0.823075
O O7 0.387826 0.177513 0.677354
O O8 0.388688 0.216373 0.182655
O O9 0.538381 0.282503 0.463616
O O10 0.602601 0.213101 0.378010
O O11 0.462427 0.158914 0.279835
O O12 0.558497 0.268781 0.970104
#
# Coordination Sequence:
#
# PCOD9580424 Si02
#       6
#     6   6   6   6   6   6
#     4  11  21  36  58  83 106 129 164 205 248 299
#     4   9  18  32  49  74 104 135 172 212 249 289
#     4  10  18  28  45  71 105 140 177 218 261 302
#     4  11  21  36  58  83 106 129 164 205 248 299
#     4  10  18  28  45  71 105 140 177 218 261 302
#     4   9  18  32  49  74 104 135 172 212 249 289
#
# _framework density 18.066748
#
# number of rings (size 3 to 8) (size 9 to 14) (size 15 to 20)
#    0.000    2.000    0.000    7.000    0.000    0.000 
#    0.000    0.000    0.000    6.000    0.000   11.667 
#    0.000    0.000    0.000    0.000    0.000    0.000 
#
# Total GULP energy -200499.880071 kJ/mol
# GULP energy per Si atom -5569.441113 kJ/mol
# Density = 1.802563 g / cm^3
# Si number density = 18.066748 Si / 1000 Ang^3
#
#
#
# Elastic Constant Matrix: (Units=GPa)
#
#
# Indices 1 2 3 4 5 6 
#
# 1 85.6273 52.7624 18.3948 0.0000 0.0000 0.0000
# 2 52.7624 85.6273 18.3948 0.0000 0.0000 0.0000
# 3 18.3948 18.3948 85.4495 0.0000 0.0000 0.0000
# 4 0.0000 0.0000 0.0000 26.0726 0.0000 0.0000
# 5 0.0000 0.0000 0.0000 0.0000 26.0726 0.0000
# 6 0.0000 0.0000 0.0000 0.0000 0.0000 16.4324
#
#
#
# Elastic Compliance Matrix: (Units=1/GPa)
#
#
# Indices 1 2 3 4 5 6 
#
# 1 0.019046 -0.011381 -0.001650 0.000000 0.000000 0.000000
# 2 -0.011381 0.019046 -0.001650 0.000000 0.000000 0.000000
# 3 -0.001650 -0.001650 0.012413 0.000000 0.000000 0.000000
# 4 0.000000 0.000000 0.000000 0.038354 0.000000 0.000000
# 5 0.000000 0.000000 0.000000 0.000000 0.038354 0.000000
# 6 0.000000 0.000000 0.000000 0.000000 0.000000 0.060855
#
#
# Mechanical properties :
#
#
# Convention : Reuss Voigt Hill
#
# Bulk Modulus (GPa) = 47.29804 48.42313 47.86058
# Shear Modulus (GPa) = 22.27372 24.85900 23.56636
#
# Velocity S-wave (km/s) = 3.51502 3.71341 3.61557
# Velocity P-wave (km/s) = 6.53531 6.72654 6.63161
#
# Compressibility (1/GPa) = 0.02114253
#
# Stress axis : x y z
#
# Youngs Moduli (GPa) = 52.50418 52.50418 80.55941
#
# Poissons Ratio (x) = 0.59758 0.13292
# Poissons Ratio (y) = 0.59758 0.13292
# Poissons Ratio (z) = 0.08663 0.08663
#
# Static dielectric constant tensor:
#      x y z
#    x 1.668580 0.000000 0.000000 
#    y 0.000000 1.668580 0.000000 
#    z 0.000000 0.000000 1.633670 
# 
# From -- ./inp_files/386.got.cif
#   From: 2010.05.17/outbox.cif.g08.bks.cpg/sg171_1_cif.got.tgz:386.got - 2010.05.20 11:16:09.
