data_PCOD9580658
_publ_section_title
;
Structure prediction by ZEFSAII (Michael W. Deem and Ramdas Pophale) SiO2 
 PCOD9580658
Probable space group: P 62
;
_chemical_formula_sum "Si O2"
_cell_formula_units_Z 39
_cell_length_a 8.658496
_cell_length_b 8.658496
_cell_length_c 29.964804
_cell_angle_alpha 90.000000
_cell_angle_beta 90.000000
_cell_angle_gamma 120.000000
_cell_volume 1945.481003
_symmetry_space_group_name_H-M "P 62"
_symmetry_group_IT_number 171
_symmetry_cell_setting 'hexagonal'
loop_
_space_group_symop_operation_xyz
x,y,z
x-y,x,1/3+z
-y,x-y,2/3+z
-x,-y,z
-x+y,-x,1/3+z
y,-x+y,2/3+z
loop_
_atom_site_type_symbol
_atom_site_label
_atom_site_fract_x
_atom_site_fract_y
_atom_site_fract_z
Si Si1 0.840347 0.803560 0.605240
Si Si2 0.337014 0.525510 0.937558
Si Si3 0.107225 0.702152 0.080323
Si Si4 0.731382 0.442915 0.838132
Si Si5 0.882134 0.200804 0.841012
Si Si6 0.000000 0.000000 0.106831
Si Si7 0.679388 0.179928 0.997449
O O1 0.657771 0.808077 0.604691
O O2 0.870908 0.731095 0.558064
O O3 0.830792 0.675348 0.644031
O O4 0.000000 0.000000 0.612106
O O5 0.500000 0.500000 0.951285
O O6 0.364869 0.587811 0.885712
O O7 0.324964 0.662013 0.971054
O O8 0.160364 0.667409 0.129271
O O9 0.000000 0.500000 0.060273
O O10 0.027571 0.840789 0.083490
O O11 0.284043 0.796163 0.050053
O O12 0.745119 0.267280 0.828750
O O13 0.928233 0.615726 0.843484
O O14 0.898749 0.072118 0.805525
O O15 0.500000 0.000000 0.987759
#
# Coordination Sequence:
#
# PCOD9580658 Si02
#       7
#     6   6   6   6   6   3   6
#     4  11  21  39  67  95 132 178 221 274 336 404
#     4  11  22  42  68 100 134 174 225 281 341 405
#     4  11  25  46  67  96 135 179 230 281 349 419
#     4   9  19  37  67  95 132 171 216 277 340 394
#     4   9  17  35  64  98 128 169 219 274 334 398
#     4  10  22  40  70  98 132 176 224 282 342 414
#     4  12  27  45  64  96 135 179 229 284 341 413
#
# _framework density 20.046454000000001
#
# number of rings (size 3 to 8) (size 9 to 14) (size 15 to 20)
#    0.000    1.538    2.308    2.769    5.385    0.000 
#    5.538    0.769    0.000    0.000    0.000    0.000 
#    0.000    0.000    0.000    0.000    0.000    0.000 
#
# Total GULP energy -217399.359554 kJ/mol
# GULP energy per Si atom -5574.342553 kJ/mol
# Density = 2.000083 g / cm^3
# Si number density = 20.046454 Si / 1000 Ang^3
#
#
#
# Elastic Constant Matrix: (Units=GPa)
#
#
# Indices 1 2 3 4 5 6 
#
# 1 102.7679 49.2726 33.6934 0.0000 0.0000 0.0000
# 2 49.2726 102.7679 33.6934 0.0000 0.0000 0.0000
# 3 33.6934 33.6934 78.6438 0.0000 0.0000 0.0000
# 4 0.0000 0.0000 0.0000 24.7506 0.0000 0.0000
# 5 0.0000 0.0000 0.0000 0.0000 24.7506 0.0000
# 6 0.0000 0.0000 0.0000 0.0000 0.0000 26.7477
#
#
#
# Elastic Compliance Matrix: (Units=1/GPa)
#
#
# Indices 1 2 3 4 5 6 
#
# 1 0.013406 -0.005287 -0.003478 0.000000 0.000000 0.000000
# 2 -0.005287 0.013406 -0.003478 0.000000 0.000000 0.000000
# 3 -0.003478 -0.003478 0.015696 0.000000 0.000000 0.000000
# 4 0.000000 0.000000 0.000000 0.040403 0.000000 0.000000
# 5 0.000000 0.000000 0.000000 0.000000 0.040403 0.000000
# 6 0.000000 0.000000 0.000000 0.000000 0.000000 0.037386
#
#
# Mechanical properties :
#
#
# Convention : Reuss Voigt Hill
#
# Bulk Modulus (GPa) = 55.49301 57.49983 56.49642
# Shear Modulus (GPa) = 26.15125 26.41777 26.28451
#
# Velocity S-wave (km/s) = 3.61575 3.63413 3.62495
# Velocity P-wave (km/s) = 6.72115 6.80843 6.76493
#
# Compressibility (1/GPa) = 0.01802029
#
# Stress axis : x y z
#
# Youngs Moduli (GPa) = 74.59320 74.59320 63.71032
#
# Poissons Ratio (x) = 0.39439 0.22161
# Poissons Ratio (y) = 0.39439 0.22161
# Poissons Ratio (z) = 0.25946 0.25946
#
# Static dielectric constant tensor:
#      x y z
#    x 1.720510 0.000000 0.000000 
#    y 0.000000 1.720510 0.000000 
#    z 0.000000 0.000000 1.723280 
# 
# From -- ./inp_files/6004.got.cif
#   From: 2010.05.17/outbox.cif.g08.bks.cpg/sg171_4_cif.got.tgz:6004.got - 2010.05.20 11:16:09.
