data_PCOD9580639
_publ_section_title
;
Structure prediction by ZEFSAII (Michael W. Deem and Ramdas Pophale) SiO2 
 PCOD9580639
Probable space group: P 62
;
_chemical_formula_sum "Si O2"
_cell_formula_units_Z 39
_cell_length_a 12.340818
_cell_length_b 12.340818
_cell_length_c 12.699570
_cell_angle_alpha 90.000000
_cell_angle_beta 90.000000
_cell_angle_gamma 120.000000
_cell_volume 1674.971967
_symmetry_space_group_name_H-M "P 62"
_symmetry_group_IT_number 171
_symmetry_cell_setting 'hexagonal'
loop_
_space_group_symop_operation_xyz
x,y,z
x-y,x,1/3+z
-y,x-y,2/3+z
-x,-y,z
-x+y,-x,1/3+z
y,-x+y,2/3+z
loop_
_atom_site_type_symbol
_atom_site_label
_atom_site_fract_x
_atom_site_fract_y
_atom_site_fract_z
Si Si1 0.804848 0.055585 0.399710
Si Si2 0.941854 0.792934 0.847430
Si Si3 0.500000 0.500000 0.434616
Si Si4 0.500409 0.731833 0.518444
Si Si5 0.289331 0.768000 0.425451
Si Si6 0.096797 0.709545 0.594719
Si Si7 0.934152 0.730820 0.411145
O O1 0.782478 0.987665 0.288714
O O2 0.705516 0.097241 0.429252
O O3 0.929338 0.182119 0.362811
O O4 0.849475 0.998100 0.490965
O O5 0.842492 0.647397 0.823930
O O6 0.056246 0.866195 0.769080
O O7 0.466077 0.588252 0.502475
O O8 0.386443 0.421650 0.355618
O O9 0.415499 0.767359 0.448960
O O10 0.476732 0.751402 0.639346
O O11 0.183457 0.686461 0.511989
O O12 0.198045 0.837858 0.656061
O O13 0.983445 0.699170 0.520303
#
# Coordination Sequence:
#
# PCOD9580639 Si02
#       7
#     6   6   3   6   6   6   6
#     4  10  22  38  64 101 137 182 228 286 362 427
#     4  11  22  39  65  99 138 179 231 290 359 424
#     4  12  26  46  70 106 138 194 252 312 368 444
#     4  11  25  45  69 101 138 190 244 303 365 434
#     4  10  24  45  69 100 142 188 239 299 358 446
#     4  11  25  45  72 106 144 193 245 303 371 441
#     4  11  22  42  67 101 145 183 239 299 361 448
#
# _framework density 23.28397
#
# number of rings (size 3 to 8) (size 9 to 14) (size 15 to 20)
#    0.000    1.231    1.538    4.154    0.000    8.000 
#    0.000    0.000    0.000    0.000    0.000    0.000 
#    0.000    0.000    0.000    0.000    0.000    0.000 
#
# Total GULP energy -217159.723558 kJ/mol
# GULP energy per Si atom -5568.198040 kJ/mol
# Density = 2.323097 g / cm^3
# Si number density = 23.283970 Si / 1000 Ang^3
#
#
#
# Elastic Constant Matrix: (Units=GPa)
#
#
# Indices 1 2 3 4 5 6 
#
# 1 79.2504 24.6563 26.8781 0.0000 0.0000 0.0000
# 2 24.6563 79.2504 26.8781 0.0000 0.0000 0.0000
# 3 26.8781 26.8781 40.5238 0.0000 0.0000 0.0000
# 4 0.0000 0.0000 0.0000 31.2355 0.0000 0.0000
# 5 0.0000 0.0000 0.0000 0.0000 31.2355 0.0000
# 6 0.0000 0.0000 0.0000 0.0000 0.0000 27.2971
#
#
#
# Elastic Compliance Matrix: (Units=1/GPa)
#
#
# Indices 1 2 3 4 5 6 
#
# 1 0.016484 -0.001833 -0.009718 0.000000 0.000000 0.000000
# 2 -0.001833 0.016484 -0.009718 0.000000 0.000000 0.000000
# 3 -0.009718 -0.009718 0.037568 0.000000 0.000000 0.000000
# 4 0.000000 0.000000 0.000000 0.032015 0.000000 0.000000
# 5 0.000000 0.000000 0.000000 0.000000 0.032015 0.000000
# 6 0.000000 0.000000 0.000000 0.000000 0.000000 0.036634
#
#
# Mechanical properties :
#
#
# Convention : Reuss Voigt Hill
#
# Bulk Modulus (GPa) = 35.71491 39.53885 37.62688
# Shear Modulus (GPa) = 22.41444 25.99441 24.20442
#
# Velocity S-wave (km/s) = 3.10603 3.34489 3.22767
# Velocity P-wave (km/s) = 5.31370 5.65117 5.48503
#
# Compressibility (1/GPa) = 0.02799951
#
# Stress axis : x y z
#
# Youngs Moduli (GPa) = 60.66384 60.66384 26.61844
#
# Poissons Ratio (x) = 0.11118 0.25868
# Poissons Ratio (y) = 0.11118 0.25868
# Poissons Ratio (z) = 0.58952 0.58952
#
# Static dielectric constant tensor:
#      x y z
#    x 1.961210 0.000000 0.000000 
#    y 0.000000 1.961210 0.000000 
#    z 0.000000 0.000000 2.073020 
# 
# From -- ./inp_files/2479.got.cif
#   From: 2010.05.17/outbox.cif.g08.bks.cpg/sg171_2_cif.got.tgz:2479.got - 2010.05.20 11:16:09.
