data_PCOD9580557
_publ_section_title
;
Structure prediction by ZEFSAII (Michael W. Deem and Ramdas Pophale) SiO2 
 PCOD9580557
Probable space group: P 62
;
_chemical_formula_sum "Si O2"
_cell_formula_units_Z 39
_cell_length_a 12.114763
_cell_length_b 12.114763
_cell_length_c 12.442735
_cell_angle_alpha 90.000000
_cell_angle_beta 90.000000
_cell_angle_gamma 120.000000
_cell_volume 1581.525973
_symmetry_space_group_name_H-M "P 62"
_symmetry_group_IT_number 171
_symmetry_cell_setting 'hexagonal'
loop_
_space_group_symop_operation_xyz
x,y,z
x-y,x,1/3+z
-y,x-y,2/3+z
-x,-y,z
-x+y,-x,1/3+z
y,-x+y,2/3+z
loop_
_atom_site_type_symbol
_atom_site_label
_atom_site_fract_x
_atom_site_fract_y
_atom_site_fract_z
Si Si1 0.192957 0.163992 0.811450
Si Si2 0.038440 0.274893 0.383833
Si Si3 0.740437 0.507558 0.648141
Si Si4 0.943703 0.614842 0.964262
Si Si5 0.767257 0.024098 0.067101
Si Si6 0.676306 0.410938 0.889138
Si Si7 0.500000 0.500000 0.995454
O O1 0.310062 0.267139 0.740745
O O2 0.072659 0.155206 0.748475
O O3 0.201821 0.036968 0.804485
O O4 0.208801 0.214603 0.932566
O O5 0.186181 0.312893 0.383898
O O6 0.007568 0.388145 0.391793
O O7 0.631941 0.546304 0.624720
O O8 0.879418 0.634672 0.651575
O O9 0.716324 0.454879 0.768582
O O10 0.724557 0.393166 0.572696
O O11 0.948754 0.681319 0.851232
O O12 0.797733 0.501661 0.963975
O O13 0.563033 0.434295 0.923813
#
# Coordination Sequence:
#
# PCOD9580557 Si02
#       7
#     6   6   6   6   6   6   3
#     4  11  22  43  67 112 139 191 245 311 380 438
#     4  12  26  42  73 105 157 194 248 308 387 462
#     4  10  24  43  75 102 140 187 254 311 374 441
#     4  10  20  44  71 106 136 179 256 302 367 440
#     4  10  23  42  70 107 143 188 234 315 375 450
#     4  11  24  44  72 104 141 197 247 311 363 451
#     4  12  26  46  64 106 146 200 248 296 380 452
#
# _framework density 24.659725999999999
#
# number of rings (size 3 to 8) (size 9 to 14) (size 15 to 20)
#    0.000    1.231    3.077    2.769    8.615    2.462 
#    0.000    2.308    0.000    0.000    0.000    0.000 
#    0.000    0.000    0.000    0.000    0.000    0.000 
#
# Total GULP energy -217831.921055 kJ/mol
# GULP energy per Si atom -5585.433873 kJ/mol
# Density = 2.460360 g / cm^3
# Si number density = 24.659726 Si / 1000 Ang^3
#
#
#
# Elastic Constant Matrix: (Units=GPa)
#
#
# Indices 1 2 3 4 5 6 
#
# 1 102.1965 56.8679 11.1583 0.0000 0.0000 0.0000
# 2 56.8679 102.1965 11.1583 0.0000 0.0000 0.0000
# 3 11.1583 11.1583 35.5629 0.0000 0.0000 0.0000
# 4 0.0000 0.0000 0.0000 21.9703 0.0000 0.0000
# 5 0.0000 0.0000 0.0000 0.0000 21.9703 0.0000
# 6 0.0000 0.0000 0.0000 0.0000 0.0000 22.6643
#
#
#
# Elastic Compliance Matrix: (Units=1/GPa)
#
#
# Indices 1 2 3 4 5 6 
#
# 1 0.014319 -0.007742 -0.002063 0.000000 0.000000 0.000000
# 2 -0.007742 0.014319 -0.002063 0.000000 0.000000 0.000000
# 3 -0.002063 -0.002063 0.029414 0.000000 0.000000 0.000000
# 4 0.000000 0.000000 0.000000 0.045516 0.000000 0.000000
# 5 0.000000 0.000000 0.000000 0.000000 0.045516 0.000000
# 6 0.000000 0.000000 0.000000 0.000000 0.000000 0.044122
#
#
# Mechanical properties :
#
#
# Convention : Reuss Voigt Hill
#
# Bulk Modulus (GPa) = 29.14346 44.25832 36.70089
# Shear Modulus (GPa) = 21.89315 24.03905 22.96610
#
# Velocity S-wave (km/s) = 2.98285 3.12561 3.05506
# Velocity P-wave (km/s) = 4.86899 5.56889 5.23066
#
# Compressibility (1/GPa) = 0.03431301
#
# Stress axis : x y z
#
# Youngs Moduli (GPa) = 69.83876 69.83876 33.99734
#
# Poissons Ratio (x) = 0.54072 0.07015
# Poissons Ratio (y) = 0.54072 0.07015
# Poissons Ratio (z) = 0.14410 0.14410
#
# Static dielectric constant tensor:
#      x y z
#    x 2.032520 0.000000 0.000000 
#    y 0.000000 2.032520 0.000000 
#    z 0.000000 0.000000 1.886640 
# 
# From -- ./inp_files/1996.got.cif
#   From: 2010.05.17/outbox.cif.g08.bks.cpg/sg171_1_cif.got.tgz:1996.got - 2010.05.20 11:16:09.
