data_PCOD9580487
_publ_section_title
;
Structure prediction by ZEFSAII (Michael W. Deem and Ramdas Pophale) SiO2 
 PCOD9580487
Probable space group: P 62
;
_chemical_formula_sum "Si O2"
_cell_formula_units_Z 42
_cell_length_a 14.762053
_cell_length_b 14.762053
_cell_length_c 11.455267
_cell_angle_alpha 90.000000
_cell_angle_beta 90.000000
_cell_angle_gamma 120.000000
_cell_volume 2161.868972
_symmetry_space_group_name_H-M "P 62"
_symmetry_group_IT_number 171
_symmetry_cell_setting 'hexagonal'
loop_
_space_group_symop_operation_xyz
x,y,z
x-y,x,1/3+z
-y,x-y,2/3+z
-x,-y,z
-x+y,-x,1/3+z
y,-x+y,2/3+z
loop_
_atom_site_type_symbol
_atom_site_label
_atom_site_fract_x
_atom_site_fract_y
_atom_site_fract_z
Si Si1 0.445556 0.326510 0.758510
Si Si2 0.648028 0.799376 0.996010
Si Si3 0.334995 0.491564 0.037410
Si Si4 0.352846 0.460557 0.781231
Si Si5 0.304325 0.819527 0.020982
Si Si6 0.993391 0.313517 0.538517
Si Si7 0.435860 0.731457 0.114796
O O1 0.401930 0.281652 0.888069
O O2 0.438885 0.228872 0.693202
O O3 0.382658 0.382824 0.718155
O O4 0.565546 0.418847 0.752335
O O5 0.710597 0.914505 0.936515
O O6 0.694936 0.756569 0.096876
O O7 0.549179 0.796606 0.057739
O O8 0.353895 0.433918 0.145570
O O9 0.381305 0.615265 0.056110
O O10 0.372552 0.464301 0.919500
O O11 0.236187 0.429315 0.751033
O O12 0.328833 0.928361 0.963676
O O13 0.292248 0.744261 0.912863
O O14 0.381125 0.801228 0.104057
#
# Coordination Sequence:
#
# PCOD9580487 Si02
#       7
#     6   6   6   6   6   6   6
#     4  10  20  33  57  84 113 156 205 243 295 369
#     4  10  20  38  59  90 114 158 211 257 299 363
#     4  11  20  37  62  82 118 168 209 247 294 371
#     4  11  21  36  55  86 117 158 200 253 300 379
#     4  11  23  37  54  87 125 162 204 252 307 361
#     4  10  23  39  62  89 124 164 213 259 306 368
#     4  11  21  35  56  84 126 164 203 240 301 371
#
# _framework density 19.427636
#
# number of rings (size 3 to 8) (size 9 to 14) (size 15 to 20)
#    0.000    1.429    4.286    2.571    0.000    5.143 
#    5.143    0.000    0.000    0.000    0.000   12.000 
#    0.000    0.000    0.000    0.000    0.000    0.000 
#
# Total GULP energy -234065.967874 kJ/mol
# GULP energy per Si atom -5572.999235 kJ/mol
# Density = 1.938342 g / cm^3
# Si number density = 19.427636 Si / 1000 Ang^3
#
#
#
# Elastic Constant Matrix: (Units=GPa)
#
#
# Indices 1 2 3 4 5 6 
#
# 1 81.6293 43.7505 19.4348 0.0000 0.0000 0.0000
# 2 43.7505 81.6293 19.4348 0.0000 0.0000 0.0000
# 3 19.4348 19.4348 17.2362 0.0000 0.0000 0.0000
# 4 0.0000 0.0000 0.0000 24.6250 0.0000 0.0000
# 5 0.0000 0.0000 0.0000 0.0000 24.6250 0.0000
# 6 0.0000 0.0000 0.0000 0.0000 0.0000 18.9394
#
#
#
# Elastic Compliance Matrix: (Units=1/GPa)
#
#
# Indices 1 2 3 4 5 6 
#
# 1 0.019331 -0.007069 -0.013826 0.000000 0.000000 0.000000
# 2 -0.007069 0.019331 -0.013826 0.000000 0.000000 0.000000
# 3 -0.013826 -0.013826 0.089197 0.000000 0.000000 0.000000
# 4 0.000000 0.000000 0.000000 0.040609 0.000000 0.000000
# 5 0.000000 0.000000 0.000000 0.000000 0.040609 0.000000
# 6 0.000000 0.000000 0.000000 0.000000 0.000000 0.052800
#
#
# Mechanical properties :
#
#
# Convention : Reuss Voigt Hill
#
# Bulk Modulus (GPa) = 17.11851 38.41500 27.76675
# Shear Modulus (GPa) = 14.25345 20.16283 17.20814
#
# Velocity S-wave (km/s) = 2.71157 3.22505 2.97939
# Velocity P-wave (km/s) = 4.31672 5.80381 5.11460
#
# Compressibility (1/GPa) = 0.05841631
#
# Stress axis : x y z
#
# Youngs Moduli (GPa) = 51.73019 51.73019 11.21116
#
# Poissons Ratio (x) = 0.36568 0.15501
# Poissons Ratio (y) = 0.36568 0.15501
# Poissons Ratio (z) = 0.71523 0.71523
#
# Static dielectric constant tensor:
#      x y z
#    x 1.713440 0.000000 0.000000 
#    y 0.000000 1.713440 0.000000 
#    z 0.000000 0.000000 1.746950 
# 
# From -- ./inp_files/2091.got.cif
#   From: 2010.05.17/outbox.cif.g08.bks.cpg/sg171_2_cif.got.tgz:2091.got - 2010.05.20 11:16:09.
