data_PCOD9580422
_publ_section_title
;
Structure prediction by ZEFSAII (Michael W. Deem and Ramdas Pophale) SiO2 
 PCOD9580422
Probable space group: P 62
;
_chemical_formula_sum "Si O2"
_cell_formula_units_Z 42
_cell_length_a 10.629496
_cell_length_b 10.629496
_cell_length_c 21.025701
_cell_angle_alpha 90.000000
_cell_angle_beta 90.000000
_cell_angle_gamma 120.000000
_cell_volume 2057.341855
_symmetry_space_group_name_H-M "P 62"
_symmetry_group_IT_number 171
_symmetry_cell_setting 'hexagonal'
loop_
_space_group_symop_operation_xyz
x,y,z
x-y,x,1/3+z
-y,x-y,2/3+z
-x,-y,z
-x+y,-x,1/3+z
y,-x+y,2/3+z
loop_
_atom_site_type_symbol
_atom_site_label
_atom_site_fract_x
_atom_site_fract_y
_atom_site_fract_z
Si Si1 0.287094 0.552667 0.376500
Si Si2 0.617336 0.165684 0.313447
Si Si3 0.528149 0.156861 0.173340
Si Si4 0.896732 0.119190 0.887744
Si Si5 0.803460 0.707359 0.956100
Si Si6 0.000000 0.000000 0.452129
Si Si7 0.185481 0.225077 0.352121
Si Si8 0.500000 0.000000 0.636872
O O1 0.399473 0.703475 0.341916
O O2 0.318160 0.589539 0.450426
O O3 0.281611 0.397310 0.367816
O O4 0.133968 0.524497 0.348181
O O5 0.620466 0.187690 0.237272
O O6 0.767582 0.173378 0.331023
O O7 0.500000 0.000000 0.326830
O O8 0.377558 0.145789 0.193477
O O9 0.500000 0.000000 0.150504
O O10 0.066478 0.213005 0.906942
O O11 0.883028 0.003885 0.834390
O O12 0.814974 0.052566 0.953994
O O13 0.800729 0.827914 0.999792
O O14 0.641650 0.605062 0.929565
O O15 0.141101 0.104156 0.407948
#
# Coordination Sequence:
#
# PCOD9580422 Si02
#       8
#     6   6   6   6   6   3   6   3
#     4  10  22  42  64  93 127 165 213 263 329 381
#     4  10  21  41  66  84 122 176 210 259 321 392
#     4  11  23  40  62  88 128 169 207 262 322 384
#     4  12  21  36  62  92 125 168 210 261 329 389
#     4  10  17  38  60  83 117 163 209 254 320 380
#     4  12  20  34  60  98 124 162 208 268 328 390
#     4  11  22  38  63  95 126 159 211 273 324 383
#     4   8  20  36  66  82 118 168 204 266 316 376
#
# _framework density 20.414694000000001
#
# number of rings (size 3 to 8) (size 9 to 14) (size 15 to 20)
#    0.000    1.429    7.143    0.000    0.000    1.143 
#    5.143    0.000    9.429    0.000    1.857    0.000 
#    0.000    0.000    0.000    0.000    0.000    0.000 
#
# Total GULP energy -233807.174934 kJ/mol
# GULP energy per Si atom -5566.837498 kJ/mol
# Density = 2.036823 g / cm^3
# Si number density = 20.414694 Si / 1000 Ang^3
#
#
#
# Elastic Constant Matrix: (Units=GPa)
#
#
# Indices 1 2 3 4 5 6 
#
# 1 80.6163 23.7973 31.7702 0.0000 0.0000 0.0000
# 2 23.7973 80.6163 31.7702 0.0000 0.0000 0.0000
# 3 31.7702 31.7702 83.8079 0.0000 0.0000 0.0000
# 4 0.0000 0.0000 0.0000 20.8767 0.0000 0.0000
# 5 0.0000 0.0000 0.0000 0.0000 20.8767 0.0000
# 6 0.0000 0.0000 0.0000 0.0000 0.0000 28.4095
#
#
#
# Elastic Compliance Matrix: (Units=1/GPa)
#
#
# Indices 1 2 3 4 5 6 
#
# 1 0.015024 -0.002575 -0.004719 0.000000 0.000000 0.000000
# 2 -0.002575 0.015024 -0.004719 0.000000 0.000000 0.000000
# 3 -0.004719 -0.004719 0.015510 0.000000 0.000000 0.000000
# 4 0.000000 0.000000 0.000000 0.047900 0.000000 0.000000
# 5 0.000000 0.000000 0.000000 0.000000 0.047900 0.000000
# 6 0.000000 0.000000 0.000000 0.000000 0.000000 0.035199
#
#
# Mechanical properties :
#
#
# Convention : Reuss Voigt Hill
#
# Bulk Modulus (GPa) = 46.44402 46.63512 46.53957
# Shear Modulus (GPa) = 24.06579 24.54611 24.30595
#
# Velocity S-wave (km/s) = 3.43716 3.47129 3.45427
# Velocity P-wave (km/s) = 6.20901 6.24179 6.22542
#
# Compressibility (1/GPa) = 0.02153130
#
# Stress axis : x y z
#
# Youngs Moduli (GPa) = 66.55810 66.55810 64.47425
#
# Poissons Ratio (x) = 0.17141 0.30427
# Poissons Ratio (y) = 0.17141 0.30427
# Poissons Ratio (z) = 0.31411 0.31411
#
# Static dielectric constant tensor:
#      x y z
#    x 1.790160 0.000000 0.000000 
#    y 0.000000 1.790160 0.000000 
#    z 0.000000 0.000000 1.755910 
# 
# From -- ./inp_files/5020.got.cif
#   From: 2010.05.17/outbox.cif.g08.bks.cpg/sg171_3_cif.got.tgz:5020.got - 2010.05.20 11:16:09.
