data_PCOD9580934
_publ_section_title
;
Structure prediction by ZEFSAII (Michael W. Deem and Ramdas Pophale) SiO2 
 PCOD9580934
Probable space group: P 64
;
_chemical_formula_sum "Si O2"
_cell_formula_units_Z 36
_cell_length_a 8.857066
_cell_length_b 8.857066
_cell_length_c 24.936553
_cell_angle_alpha 90.000000
_cell_angle_beta 90.000000
_cell_angle_gamma 120.000000
_cell_volume 1694.130315
_symmetry_space_group_name_H-M "P 64"
_symmetry_group_IT_number 172
_symmetry_cell_setting 'hexagonal'
loop_
_space_group_symop_operation_xyz
x,y,z
x-y,x,2/3+z
-y,x-y,1/3+z
-x,-y,z
-x+y,-x,2/3+z
y,-x+y,1/3+z
loop_
_atom_site_type_symbol
_atom_site_label
_atom_site_fract_x
_atom_site_fract_y
_atom_site_fract_z
Si Si1 0.500000 0.500000 0.273070
Si Si2 0.157733 0.182413 0.534712
Si Si3 0.775034 0.038892 0.693659
Si Si4 0.508068 0.174114 0.507154
Si Si5 0.735388 0.538970 0.448213
Si Si6 0.000000 0.500000 0.370906
Si Si7 0.114510 0.858667 0.326339
O O1 0.635663 0.650719 0.310862
O O2 0.417190 0.582011 0.232627
O O3 0.327177 0.163435 0.524093
O O4 0.173227 0.338344 0.498942
O O5 0.127000 0.214983 0.596335
O O6 0.000000 0.000000 0.516142
O O7 0.958585 0.219238 0.686194
O O8 0.654697 0.982436 0.746708
O O9 0.825494 0.889807 0.686818
O O10 0.611761 0.347859 0.472844
O O11 0.500000 0.000000 0.481403
O O12 0.865081 0.518276 0.408775
O O13 0.889329 0.322205 0.337098
#
# Coordination Sequence:
#
# PCOD9580934 Si02
#       7
#     3   6   6   6   6   3   6
#     4  10  20  40  71  94 143 176 240 278 358 420
#     4  12  24  42  74 103 129 188 235 290 352 435
#     4  10  21  41  64 102 129 186 229 295 344 429
#     4  10  24  44  68  99 142 180 230 296 350 431
#     4  11  27  39  66 104 145 176 239 289 373 406
#     4  10  26  42  65 102 141 182 228 302 336 426
#     4  10  20  43  69  91 136 179 244 274 351 423
#
# _framework density 21.249841
#
# number of rings (size 3 to 8) (size 9 to 14) (size 15 to 20)
#    0.500    1.000    3.333    0.500   11.667    0.000 
#    0.000    0.000    0.000    2.000    0.000    0.000 
#    0.000    0.000    0.000    0.000    0.000    0.000 
#
# Total GULP energy -200530.404914 kJ/mol
# GULP energy per Si atom -5570.289025 kJ/mol
# Density = 2.120148 g / cm^3
# Si number density = 21.249841 Si / 1000 Ang^3
#
#
#
# Elastic Constant Matrix: (Units=GPa)
#
#
# Indices 1 2 3 4 5 6 
#
# 1 107.2330 47.0318 46.5179 0.0000 0.0000 0.0000
# 2 47.0318 107.2330 46.5179 0.0000 0.0000 0.0000
# 3 46.5179 46.5179 93.4760 0.0000 0.0000 0.0000
# 4 0.0000 0.0000 0.0000 35.7157 0.0000 0.0000
# 5 0.0000 0.0000 0.0000 0.0000 35.7157 0.0000
# 6 0.0000 0.0000 0.0000 0.0000 0.0000 30.1006
#
#
#
# Elastic Compliance Matrix: (Units=1/GPa)
#
#
# Indices 1 2 3 4 5 6 
#
# 1 0.012937 -0.003674 -0.004609 0.000000 0.000000 0.000000
# 2 -0.003674 0.012937 -0.004609 0.000000 0.000000 0.000000
# 3 -0.004609 -0.004609 0.015285 0.000000 0.000000 0.000000
# 4 0.000000 0.000000 0.000000 0.027999 0.000000 0.000000
# 5 0.000000 0.000000 0.000000 0.000000 0.027999 0.000000
# 6 0.000000 0.000000 0.000000 0.000000 0.000000 0.033222
#
#
# Mechanical properties :
#
#
# Convention : Reuss Voigt Hill
#
# Bulk Modulus (GPa) = 65.05020 65.34191 65.19605
# Shear Modulus (GPa) = 31.00037 31.49805 31.24921
#
# Velocity S-wave (km/s) = 3.82364 3.85421 3.83895
# Velocity P-wave (km/s) = 7.08323 7.11496 7.09911
#
# Compressibility (1/GPa) = 0.01537274
#
# Stress axis : x y z
#
# Youngs Moduli (GPa) = 77.30029 77.30029 65.42154
#
# Poissons Ratio (x) = 0.28403 0.30155
# Poissons Ratio (y) = 0.28403 0.30155
# Poissons Ratio (z) = 0.35630 0.35630
#
# Static dielectric constant tensor:
#      x y z
#    x 1.801270 0.000000 0.000000 
#    y 0.000000 1.801270 0.000000 
#    z 0.000000 0.000000 1.760850 
# 
# From -- ./inp_files/2671.got.cif
#   From: 2010.05.17/outbox.cif.g08.bks.cpg/sg172_2_cif.got.tgz:2671.got - 2010.05.20 11:19:57.
