data_PCOD9580479
_publ_section_title
;
Structure prediction by ZEFSAII (Michael W. Deem and Ramdas Pophale) SiO2 
 PCOD9580479
Probable space group: P 62
;
_chemical_formula_sum "Si O2"
_cell_formula_units_Z 36
_cell_length_a 10.561457
_cell_length_b 10.561457
_cell_length_c 12.712428
_cell_angle_alpha 90.000000
_cell_angle_beta 90.000000
_cell_angle_gamma 120.000000
_cell_volume 1228.023869
_symmetry_space_group_name_H-M "P 62"
_symmetry_group_IT_number 171
_symmetry_cell_setting 'hexagonal'
loop_
_space_group_symop_operation_xyz
x,y,z
x-y,x,1/3+z
-y,x-y,2/3+z
-x,-y,z
-x+y,-x,1/3+z
y,-x+y,2/3+z
loop_
_atom_site_type_symbol
_atom_site_label
_atom_site_fract_x
_atom_site_fract_y
_atom_site_fract_z
Si Si1 0.288355 0.357597 0.422820
Si Si2 0.000000 0.000000 0.606002
Si Si3 0.775160 0.358310 0.208179
Si Si4 0.313885 0.784166 0.006046
Si Si5 0.944771 0.194639 0.444009
Si Si6 0.000000 0.500000 0.381122
Si Si7 0.933675 0.679523 0.973130
O O1 0.364858 0.277813 0.360829
O O2 0.378632 0.522809 0.386058
O O3 0.118053 0.267786 0.402216
O O4 0.307399 0.352041 0.551031
O O5 0.965379 0.102565 0.535135
O O6 0.158758 0.105000 0.659578
O O7 0.610794 0.325829 0.231342
O O8 0.793479 0.348626 0.083456
O O9 0.784677 0.216943 0.250161
O O10 0.875018 0.473216 0.295646
O O11 0.958513 0.357283 0.450314
O O12 0.758082 0.102675 0.428782
#
# Coordination Sequence:
#
# PCOD9580479 Si02
#       7
#     6   3   6   6   6   3   6
#     4   9  19  39  65  91 127 169 220 281 329 412
#     4  10  20  38  62  92 124 182 218 276 336 416
#     4  10  21  41  62  94 130 167 216 276 339 404
#     4  10  20  41  66  94 130 173 223 275 343 409
#     4  10  19  38  61  88 130 170 218 277 339 399
#     4  10  20  40  60  90 134 166 216 288 330 404
#     4   9  20  38  60  90 129 164 212 281 333 395
#
# _framework density 29.315389
#
# number of rings (size 3 to 8) (size 9 to 14) (size 15 to 20)
#    0.000    2.333    1.667    0.500    0.000    0.000 
#   27.000    3.333    0.000    0.000    0.000    0.000 
#    0.000    0.000    0.000    0.000    0.000    0.000 
#
# Total GULP energy -200444.813163 kJ/mol
# GULP energy per Si atom -5567.911477 kJ/mol
# Density = 2.924867 g / cm^3
# Si number density = 29.315389 Si / 1000 Ang^3
#
#
#
# Elastic Constant Matrix: (Units=GPa)
#
#
# Indices 1 2 3 4 5 6 
#
# 1 119.7719 27.2341 16.1081 0.0000 0.0000 0.0000
# 2 27.2341 119.7719 16.1081 0.0000 0.0000 0.0000
# 3 16.1081 16.1081 81.6092 0.0000 0.0000 0.0000
# 4 0.0000 0.0000 0.0000 40.5575 0.0000 0.0000
# 5 0.0000 0.0000 0.0000 0.0000 40.5575 0.0000
# 6 0.0000 0.0000 0.0000 0.0000 0.0000 46.2689
#
#
#
# Elastic Compliance Matrix: (Units=1/GPa)
#
#
# Indices 1 2 3 4 5 6 
#
# 1 0.008958 -0.001848 -0.001403 0.000000 0.000000 0.000000
# 2 -0.001848 0.008958 -0.001403 0.000000 0.000000 0.000000
# 3 -0.001403 -0.001403 0.012808 0.000000 0.000000 0.000000
# 4 0.000000 0.000000 0.000000 0.024656 0.000000 0.000000
# 5 0.000000 0.000000 0.000000 0.000000 0.024656 0.000000
# 6 0.000000 0.000000 0.000000 0.000000 0.000000 0.021613
#
#
# Mechanical properties :
#
#
# Convention : Reuss Voigt Hill
#
# Bulk Modulus (GPa) = 46.69843 48.89484 47.79664
# Shear Modulus (GPa) = 42.33797 42.92363 42.63080
#
# Velocity S-wave (km/s) = 3.80442 3.83064 3.81755
# Velocity P-wave (km/s) = 5.93821 6.02330 5.98091
#
# Compressibility (1/GPa) = 0.02141399
#
# Stress axis : x y z
#
# Youngs Moduli (GPa) = 111.62962 111.62962 78.07916
#
# Poissons Ratio (x) = 0.20631 0.10957
# Poissons Ratio (y) = 0.20631 0.10957
# Poissons Ratio (z) = 0.15666 0.15666
#
# Static dielectric constant tensor:
#      x y z
#    x 2.125890 0.000000 0.000000 
#    y 0.000000 2.125890 0.000000 
#    z 0.000000 0.000000 2.328340 
# 
# From -- ./inp_files/4817.got.cif
#   From: 2010.05.17/outbox.cif.g08.bks.cpg/sg171_3_cif.got.tgz:4817.got - 2010.05.20 11:16:09.
