data_PCOD9580440
_publ_section_title
;
Structure prediction by ZEFSAII (Michael W. Deem and Ramdas Pophale) SiO2 
 PCOD9580440
Probable space group: P 62
;
_chemical_formula_sum "Si O2"
_cell_formula_units_Z 42
_cell_length_a 14.852888
_cell_length_b 14.852888
_cell_length_c 11.812788
_cell_angle_alpha 90.000000
_cell_angle_beta 90.000000
_cell_angle_gamma 120.000000
_cell_volume 2256.861220
_symmetry_space_group_name_H-M "P 62"
_symmetry_group_IT_number 171
_symmetry_cell_setting 'hexagonal'
loop_
_space_group_symop_operation_xyz
x,y,z
x-y,x,1/3+z
-y,x-y,2/3+z
-x,-y,z
-x+y,-x,1/3+z
y,-x+y,2/3+z
loop_
_atom_site_type_symbol
_atom_site_label
_atom_site_fract_x
_atom_site_fract_y
_atom_site_fract_z
Si Si1 0.619514 0.587242 0.817020
Si Si2 0.668279 0.988012 0.730963
Si Si3 0.590649 0.609946 0.304857
Si Si4 0.828252 0.083252 0.420483
Si Si5 0.812791 0.887502 0.496378
Si Si6 0.115794 0.814187 0.757718
Si Si7 0.207696 0.390561 0.675375
O O1 0.500000 0.500000 0.808712
O O2 0.659836 0.706626 0.774851
O O3 0.683231 0.550221 0.737937
O O4 0.653146 0.603756 0.948741
O O5 0.611775 0.006393 0.836173
O O6 0.775397 0.096596 0.707974
O O7 0.699226 0.903858 0.772507
O O8 0.500000 0.500000 0.345340
O O9 0.704964 0.649102 0.358187
O O10 0.556919 0.694360 0.334721
O O11 0.846844 0.065674 0.289771
O O12 0.862349 0.011432 0.491345
O O13 0.861367 0.822712 0.440700
O O14 0.709781 0.852354 0.421713
O O15 0.140045 0.788123 0.883099
#
# Coordination Sequence:
#
# PCOD9580440 Si02
#       7
#     6   6   6   6   6   6   6
#     4  11  22  39  66  91 119 165 212 264 325 376
#     4  11  22  39  63  89 129 164 207 254 324 391
#     4  10  22  38  63  85 120 167 206 253 318 379
#     4  11  20  37  62  92 128 165 204 260 320 385
#     4  10  18  35  59  90 128 159 195 249 306 386
#     4  10  20  38  59  90 124 164 200 249 312 383
#     4   9  19  38  60  86 120 151 206 259 304 372
#
# _framework density 18.609919000000001
#
# number of rings (size 3 to 8) (size 9 to 14) (size 15 to 20)
#    0.000    1.714    5.714    1.286    0.000    1.143 
#    0.000    1.429   18.857    0.000    0.000    0.000 
#    0.000    0.000    0.000    0.000    0.000    0.000 
#
# Total GULP energy -234110.079658 kJ/mol
# GULP energy per Si atom -5574.049516 kJ/mol
# Density = 1.856756 g / cm^3
# Si number density = 18.609919 Si / 1000 Ang^3
#
#
#
# Elastic Constant Matrix: (Units=GPa)
#
#
# Indices 1 2 3 4 5 6 
#
# 1 102.5277 52.2833 29.2929 0.0000 0.0000 0.0000
# 2 52.2833 102.5277 29.2929 0.0000 0.0000 0.0000
# 3 29.2929 29.2929 93.4848 0.0000 0.0000 0.0000
# 4 0.0000 0.0000 0.0000 13.5554 0.0000 0.0000
# 5 0.0000 0.0000 0.0000 0.0000 13.5554 0.0000
# 6 0.0000 0.0000 0.0000 0.0000 0.0000 25.1222
#
#
#
# Elastic Compliance Matrix: (Units=1/GPa)
#
#
# Indices 1 2 3 4 5 6 
#
# 1 0.013616 -0.006287 -0.002296 0.000000 0.000000 0.000000
# 2 -0.006287 0.013616 -0.002296 0.000000 0.000000 0.000000
# 3 -0.002296 -0.002296 0.012136 0.000000 0.000000 0.000000
# 4 0.000000 0.000000 0.000000 0.073772 0.000000 0.000000
# 5 0.000000 0.000000 0.000000 0.000000 0.073772 0.000000
# 6 0.000000 0.000000 0.000000 0.000000 0.000000 0.039805
#
#
# Mechanical properties :
#
#
# Convention : Reuss Voigt Hill
#
# Bulk Modulus (GPa) = 56.79347 57.80869 57.30108
# Shear Modulus (GPa) = 19.65837 22.95800 21.30819
#
# Velocity S-wave (km/s) = 3.25366 3.51614 3.38744
# Velocity P-wave (km/s) = 6.68575 6.90037 6.79390
#
# Compressibility (1/GPa) = 0.01760766
#
# Stress axis : x y z
#
# Youngs Moduli (GPa) = 73.44515 73.44515 82.39939
#
# Poissons Ratio (x) = 0.46176 0.18922
# Poissons Ratio (y) = 0.46176 0.18922
# Poissons Ratio (z) = 0.16866 0.16866
#
# Static dielectric constant tensor:
#      x y z
#    x 1.657410 0.000000 0.000000 
#    y 0.000000 1.657410 0.000000 
#    z 0.000000 0.000000 1.665240 
# 
# From -- ./inp_files/1651.got.cif
#   From: 2010.05.17/outbox.cif.g08.bks.cpg/sg171_1_cif.got.tgz:1651.got - 2010.05.20 11:16:09.
