data_PCOD9580717
_publ_section_title
;
Structure prediction by ZEFSAII (Michael W. Deem and Ramdas Pophale) SiO2 
 PCOD9580717
Probable space group: P 62
;
_chemical_formula_sum "Si O2"
_cell_formula_units_Z 39
_cell_length_a 12.843369
_cell_length_b 12.843369
_cell_length_c 13.558876
_cell_angle_alpha 90.000000
_cell_angle_beta 90.000000
_cell_angle_gamma 120.000000
_cell_volume 1936.922488
_symmetry_space_group_name_H-M "P 62"
_symmetry_group_IT_number 171
_symmetry_cell_setting 'hexagonal'
loop_
_space_group_symop_operation_xyz
x,y,z
x-y,x,1/3+z
-y,x-y,2/3+z
-x,-y,z
-x+y,-x,1/3+z
y,-x+y,2/3+z
loop_
_atom_site_type_symbol
_atom_site_label
_atom_site_fract_x
_atom_site_fract_y
_atom_site_fract_z
Si Si1 0.000000 0.000000 0.750000
Si Si2 0.302505 0.943527 0.519485
Si Si3 0.500000 0.000000 0.160452
Si Si4 0.884359 0.549741 0.644860
Si Si5 0.000000 0.500000 0.347194
Si Si6 0.188739 0.107398 0.577423
Si Si7 0.132218 0.658808 0.526409
Si Si8 0.689329 0.628103 0.645801
O O1 0.113627 0.057863 0.678158
O O2 0.002845 0.099742 0.822725
O O3 0.387845 0.956957 0.609527
O O4 0.212760 0.800697 0.511753
O O5 0.238034 0.019880 0.546649
O O6 0.373330 0.005312 0.418344
O O7 0.526761 0.920332 0.234961
O O8 0.390614 0.924209 0.086521
O O9 0.822765 0.417103 0.592955
O O10 0.807033 0.615078 0.653856
O O11 0.006065 0.627091 0.580288
O O12 0.899141 0.404749 0.420296
O O13 0.281854 0.245189 0.598388
#
# Coordination Sequence:
#
# PCOD9580717 Si02
#       8
#     3   6   3   6   3   6   6   6
#     4  10  24  38  60 112 132 178 212 246 362 424
#     4  12  24  43  66 101 135 178 219 289 343 401
#     4  10  24  44  64  94 132 178 232 278 328 392
#     4   9  23  45  68  96 127 182 233 270 333 404
#     4  10  24  44  64  94 132 178 232 278 328 392
#     4  11  24  40  68 102 142 174 215 280 352 422
#     4   9  23  45  68  96 127 182 233 270 333 404
#     4  12  24  43  66 101 135 178 219 289 343 401
#
# _framework density 20.135034999999998
#
# number of rings (size 3 to 8) (size 9 to 14) (size 15 to 20)
#    0.000    1.846    1.538    2.308    4.308    7.385 
#   13.846    0.000    0.000    0.000    0.000    0.000 
#    0.000    0.000    0.000    0.000    0.000    0.000 
#
# Total GULP energy -217695.218630 kJ/mol
# GULP energy per Si atom -5581.928683 kJ/mol
# Density = 2.008921 g / cm^3
# Si number density = 20.135035 Si / 1000 Ang^3
#
#
#
# Elastic Constant Matrix: (Units=GPa)
#
#
# Indices 1 2 3 4 5 6 
#
# 1 57.7642 15.4899 32.6040 0.0000 0.0000 0.0000
# 2 15.4899 57.7642 32.6040 0.0000 0.0000 0.0000
# 3 32.6040 32.6040 159.2406 0.0000 0.0000 0.0000
# 4 0.0000 0.0000 0.0000 16.7151 0.0000 0.0000
# 5 0.0000 0.0000 0.0000 0.0000 16.7151 0.0000
# 6 0.0000 0.0000 0.0000 0.0000 0.0000 21.1372
#
#
#
# Elastic Compliance Matrix: (Units=1/GPa)
#
#
# Indices 1 2 3 4 5 6 
#
# 1 0.020174 -0.003481 -0.003418 0.000000 0.000000 0.000000
# 2 -0.003481 0.020174 -0.003418 0.000000 0.000000 0.000000
# 3 -0.003418 -0.003418 0.007679 0.000000 0.000000 0.000000
# 4 0.000000 0.000000 0.000000 0.059826 0.000000 0.000000
# 5 0.000000 0.000000 0.000000 0.000000 0.059826 0.000000
# 6 0.000000 0.000000 0.000000 0.000000 0.000000 0.047310
#
#
# Mechanical properties :
#
#
# Convention : Reuss Voigt Hill
#
# Bulk Modulus (GPa) = 36.50317 48.46275 42.48296
# Shear Modulus (GPa) = 20.42856 23.85155 22.14006
#
# Velocity S-wave (km/s) = 3.18870 3.44551 3.31959
# Velocity P-wave (km/s) = 5.63255 6.32059 5.98646
#
# Compressibility (1/GPa) = 0.02739488
#
# Stress axis : x y z
#
# Youngs Moduli (GPa) = 49.56794 49.56794 130.21770
#
# Poissons Ratio (x) = 0.17253 0.44508
# Poissons Ratio (y) = 0.17253 0.44508
# Poissons Ratio (z) = 0.16942 0.16942
#
# Static dielectric constant tensor:
#      x y z
#    x 1.714180 0.000000 0.000000 
#    y 0.000000 1.714180 0.000000 
#    z 0.000000 0.000000 1.697920 
# 
# From -- ./inp_files/2042.got.cif
#   From: 2010.05.17/outbox.cif.g08.bks.cpg/sg171_2_cif.got.tgz:2042.got - 2010.05.20 11:16:09.
