data_PCOD9580513
_publ_section_title
;
Structure prediction by ZEFSAII (Michael W. Deem and Ramdas Pophale) SiO2 
 PCOD9580513
Probable space group: P 62
;
_chemical_formula_sum "Si O2"
_cell_formula_units_Z 45
_cell_length_a 10.573514
_cell_length_b 10.573514
_cell_length_c 20.967325
_cell_angle_alpha 90.000000
_cell_angle_beta 90.000000
_cell_angle_gamma 120.000000
_cell_volume 2030.076239
_symmetry_space_group_name_H-M "P 62"
_symmetry_group_IT_number 171
_symmetry_cell_setting 'hexagonal'
loop_
_space_group_symop_operation_xyz
x,y,z
x-y,x,1/3+z
-y,x-y,2/3+z
-x,-y,z
-x+y,-x,1/3+z
y,-x+y,2/3+z
loop_
_atom_site_type_symbol
_atom_site_label
_atom_site_fract_x
_atom_site_fract_y
_atom_site_fract_z
Si Si1 0.314413 0.041673 0.344070
Si Si2 0.207504 0.568005 0.063806
Si Si3 0.224644 0.172785 0.541521
Si Si4 0.226232 0.032811 0.069183
Si Si5 0.394760 0.602211 0.963202
Si Si6 0.747634 0.444056 0.844025
Si Si7 0.254375 0.964373 0.625846
Si Si8 0.000000 0.500000 0.758124
O O1 0.481382 0.148226 0.364808
O O2 0.209132 0.091736 0.375804
O O3 0.294532 0.891687 0.373867
O O4 0.280957 0.025563 0.268331
O O5 0.214223 0.598235 0.138310
O O6 0.367652 0.627217 0.035421
O O7 0.153650 0.196672 0.478058
O O8 0.381467 0.208707 0.513544
O O9 0.172944 0.018143 0.577114
O O10 0.364529 0.004285 0.058444
O O11 0.248305 0.167811 0.025893
O O12 0.282068 0.612225 0.915345
O O13 0.344455 0.429211 0.961069
O O14 0.553468 0.723258 0.940513
O O15 0.860096 0.419298 0.804278
#
# Coordination Sequence:
#
# PCOD9580513 Si02
#       8
#     6   6   6   6   6   6   6   3
#     4  11  23  37  64  94 129 161 225 262 328 378
#     4  11  21  37  64 101 127 165 217 283 313 393
#     4  10  22  44  62  96 127 173 223 264 329 388
#     4  11  24  42  67  92 133 173 213 277 323 408
#     4  10  22  39  65 100 131 172 216 275 332 393
#     4  10  20  36  65  95 130 167 212 274 328 379
#     4  10  22  42  65  90 135 172 222 262 335 399
#     4  10  20  38  60 102 126 168 216 260 344 384
#
# _framework density 22.166654000000001
#
# number of rings (size 3 to 8) (size 9 to 14) (size 15 to 20)
#    0.000    1.600    5.333    0.800    5.600    1.600 
#    0.000    4.000    0.000    1.600    0.000    0.000 
#    0.000    0.000    0.000    0.000    0.000    0.000 
#
# Total GULP energy -250543.774464 kJ/mol
# GULP energy per Si atom -5567.639433 kJ/mol
# Density = 2.211620 g / cm^3
# Si number density = 22.166654 Si / 1000 Ang^3
#
#
#
# Elastic Constant Matrix: (Units=GPa)
#
#
# Indices 1 2 3 4 5 6 
#
# 1 49.9975 16.8127 23.8267 0.0000 0.0000 0.0000
# 2 16.8127 49.9975 23.8267 0.0000 0.0000 0.0000
# 3 23.8267 23.8267 131.6708 0.0000 0.0000 0.0000
# 4 0.0000 0.0000 0.0000 27.7592 0.0000 0.0000
# 5 0.0000 0.0000 0.0000 0.0000 27.7592 0.0000
# 6 0.0000 0.0000 0.0000 0.0000 0.0000 16.5924
#
#
#
# Elastic Compliance Matrix: (Units=1/GPa)
#
#
# Indices 1 2 3 4 5 6 
#
# 1 0.023660 -0.006474 -0.003110 0.000000 0.000000 0.000000
# 2 -0.006474 0.023660 -0.003110 0.000000 0.000000 0.000000
# 3 -0.003110 -0.003110 0.008720 0.000000 0.000000 0.000000
# 4 0.000000 0.000000 0.000000 0.036024 0.000000 0.000000
# 5 0.000000 0.000000 0.000000 0.000000 0.036024 0.000000
# 6 0.000000 0.000000 0.000000 0.000000 0.000000 0.060269
#
#
# Mechanical properties :
#
#
# Convention : Reuss Voigt Hill
#
# Bulk Modulus (GPa) = 32.62377 40.06644 36.34510
# Shear Modulus (GPa) = 22.32515 25.56881 23.94698
#
# Velocity S-wave (km/s) = 3.17701 3.39998 3.29038
# Velocity P-wave (km/s) = 5.31105 5.79029 5.55584
#
# Compressibility (1/GPa) = 0.03065250
#
# Stress axis : x y z
#
# Youngs Moduli (GPa) = 42.26519 42.26519 114.67599
#
# Poissons Ratio (x) = 0.27363 0.35663
# Poissons Ratio (y) = 0.27363 0.35663
# Poissons Ratio (z) = 0.13144 0.13144
#
# Static dielectric constant tensor:
#      x y z
#    x 1.885570 0.000000 0.000000 
#    y 0.000000 1.885570 0.000000 
#    z 0.000000 0.000000 1.803280 
# 
# From -- ./inp_files/4030.got.cif
#   From: 2010.05.17/outbox.cif.g08.bks.cpg/sg171_3_cif.got.tgz:4030.got - 2010.05.20 11:16:09.
