data_PCOD9580747
_publ_section_title
;
Structure prediction by ZEFSAII (Michael W. Deem and Ramdas Pophale) SiO2 
 PCOD9580747
Probable space group: P 62
;
_chemical_formula_sum "Si O2"
_cell_formula_units_Z 27
_cell_length_a 9.880861
_cell_length_b 9.880861
_cell_length_c 10.584343
_cell_angle_alpha 90.000000
_cell_angle_beta 90.000000
_cell_angle_gamma 120.000000
_cell_volume 894.919800
_symmetry_space_group_name_H-M "P 62"
_symmetry_group_IT_number 171
_symmetry_cell_setting 'hexagonal'
loop_
_space_group_symop_operation_xyz
x,y,z
x-y,x,1/3+z
-y,x-y,2/3+z
-x,-y,z
-x+y,-x,1/3+z
y,-x+y,2/3+z
loop_
_atom_site_type_symbol
_atom_site_label
_atom_site_fract_x
_atom_site_fract_y
_atom_site_fract_z
Si Si1 0.713696 0.007807 0.560750
Si Si2 0.228844 0.631498 0.358438
Si Si3 0.500000 0.000000 0.920147
Si Si4 0.398856 0.143271 0.354638
Si Si5 0.948260 0.206594 0.745549
O O1 0.439806 0.148914 0.611875
O O2 0.649896 0.023294 0.419651
O O3 0.855276 0.405411 0.494108
O O4 0.871390 0.064260 0.647989
O O5 0.148489 0.453982 0.304571
O O6 0.417234 0.729397 0.366190
O O7 0.363172 0.989010 0.008623
O O8 0.248445 0.122885 0.447976
O O9 0.341804 0.125361 0.210138
#
# Coordination Sequence:
#
# PCOD9580747 Si02
#       5
#     6   6   3   6   6
#     4  10  26  50  79 124 175 232 293 392 468 543
#     4  10  25  50  80 125 175 224 308 397 460 541
#     4  10  24  46  84 116 180 216 288 386 478 528
#     4  12  29  52  87 127 182 241 313 378 481 566
#     4  12  28  51  79 130 173 235 297 380 462 577
#
# _framework density 30.170302
#
# number of rings (size 3 to 8) (size 9 to 14) (size 15 to 20)
#    0.000    1.333    0.000    4.000   15.556    7.111 
#    4.000    3.333    0.000    0.000    0.000    0.000 
#    0.000    0.000    0.000    0.000    0.000    0.000 
#
# Total GULP energy -150491.678131 kJ/mol
# GULP energy per Si atom -5573.765857 kJ/mol
# Density = 3.010163 g / cm^3
# Si number density = 30.170302 Si / 1000 Ang^3
#
#
#
# Elastic Constant Matrix: (Units=GPa)
#
#
# Indices 1 2 3 4 5 6 
#
# 1 150.6656 47.6596 69.1520 0.0000 0.0000 0.0000
# 2 47.6596 150.6656 69.1520 0.0000 0.0000 0.0000
# 3 69.1520 69.1520 221.9616 0.0000 0.0000 0.0000
# 4 0.0000 0.0000 0.0000 146.3813 0.0000 0.0000
# 5 0.0000 0.0000 0.0000 0.0000 146.3813 0.0000
# 6 0.0000 0.0000 0.0000 0.0000 0.0000 51.5030
#
#
#
# Elastic Compliance Matrix: (Units=1/GPa)
#
#
# Indices 1 2 3 4 5 6 
#
# 1 0.008075 -0.001633 -0.002007 0.000000 0.000000 0.000000
# 2 -0.001633 0.008075 -0.002007 0.000000 0.000000 0.000000
# 3 -0.002007 -0.002007 0.005756 0.000000 0.000000 0.000000
# 4 0.000000 0.000000 0.000000 0.006831 0.000000 0.000000
# 5 0.000000 0.000000 0.000000 0.000000 0.006831 0.000000
# 6 0.000000 0.000000 0.000000 0.000000 0.000000 0.019416
#
#
# Mechanical properties :
#
#
# Convention : Reuss Voigt Hill
#
# Bulk Modulus (GPa) = 94.23625 99.46888 96.85257
# Shear Modulus (GPa) = 71.61646 91.34173 81.47909
#
# Velocity S-wave (km/s) = 4.87739 5.50828 5.20241
# Velocity P-wave (km/s) = 7.93859 8.57295 8.26186
#
# Compressibility (1/GPa) = 0.01061163
#
# Stress axis : x y z
#
# Youngs Moduli (GPa) = 123.83945 123.83945 173.73775
#
# Poissons Ratio (x) = 0.20225 0.34868
# Poissons Ratio (y) = 0.20225 0.34868
# Poissons Ratio (z) = 0.24854 0.24854
#
# Static dielectric constant tensor:
#      x y z
#    x -0.960070 0.000000 0.000000 
#    y 0.000000 -0.960070 0.000000 
#    z 0.000000 0.000000 2.674000 
# 
# From -- ./inp_files/4736.got.cif
#   From: 2010.05.17/outbox.cif.g08.bks.cpg/sg171_3_cif.got.tgz:4736.got - 2010.05.20 11:16:09.
