data_PCOD9580269
_publ_section_title
;
Structure prediction by ZEFSAII (Michael W. Deem and Ramdas Pophale) SiO2 
 PCOD9580269
Probable space group: P 65
;
_chemical_formula_sum "Si O2"
_cell_formula_units_Z 24
_cell_length_a 10.354007
_cell_length_b 10.354007
_cell_length_c 9.589004
_cell_angle_alpha 90.000000
_cell_angle_beta 90.000000
_cell_angle_gamma 120.000000
_cell_volume 890.268567
_symmetry_space_group_name_H-M "P 65"
_symmetry_group_IT_number 170
_symmetry_cell_setting 'hexagonal'
loop_
_space_group_symop_operation_xyz
x,y,z
x-y,x,5/6+z
-y,x-y,2/3+z
-x,-y,1/2+z
-x+y,-x,1/3+z
y,-x+y,1/6+z
loop_
_atom_site_type_symbol
_atom_site_label
_atom_site_fract_x
_atom_site_fract_y
_atom_site_fract_z
Si Si1 0.839311 0.119615 0.593490
Si Si2 0.941546 0.733819 0.825976
Si Si3 0.165165 0.564818 0.455761
Si Si4 0.372648 0.832043 0.278265
O O1 0.704603 0.141720 0.643682
O O2 0.950422 0.173179 0.721868
O O3 0.943215 0.206077 0.459353
O O4 0.867108 0.557442 0.835645
O O5 0.040085 0.816519 0.693787
O O6 0.245948 0.726416 0.386411
O O7 0.289398 0.561062 0.555148
O O8 0.996395 0.510214 0.506681
#
# Coordination Sequence:
#
# PCOD9580269 Si02
#       4
#     6   6   6   6
#     4  10  21  43  76 106 152 197 246 305 380 447
#     4  10  21  43  73 105 148 194 240 303 377 446
#     4  12  26  45  73 108 146 192 253 307 381 442
#     4  12  26  45  74 107 146 195 247 317 370 451
#
# _framework density 26.958157
#
# number of rings (size 3 to 8) (size 9 to 14) (size 15 to 20)
#    0.000    1.000    5.000    1.500    3.500    2.000 
#    0.000   12.500    0.000    0.000    0.000    0.000 
#    0.000    0.000    0.000    0.000    0.000    0.000 
#
# Total GULP energy -134417.132508 kJ/mol
# GULP energy per Si atom -5600.713855 kJ/mol
# Density = 2.689680 g / cm^3
# Si number density = 26.958157 Si / 1000 Ang^3
#
#
#
# Elastic Constant Matrix: (Units=GPa)
#
#
# Indices 1 2 3 4 5 6 
#
# 1 163.2548 76.7687 37.7830 0.0000 0.0000 0.0000
# 2 76.7687 163.2548 37.7830 0.0000 0.0000 0.0000
# 3 37.7830 37.7830 52.6425 0.0000 0.0000 0.0000
# 4 0.0000 0.0000 0.0000 33.9724 0.0000 0.0000
# 5 0.0000 0.0000 0.0000 0.0000 33.9724 0.0000
# 6 0.0000 0.0000 0.0000 0.0000 0.0000 43.2430
#
#
#
# Elastic Compliance Matrix: (Units=1/GPa)
#
#
# Indices 1 2 3 4 5 6 
#
# 1 0.008473 -0.003090 -0.003863 0.000000 0.000000 0.000000
# 2 -0.003090 0.008473 -0.003863 0.000000 0.000000 0.000000
# 3 -0.003863 -0.003863 0.024541 0.000000 0.000000 0.000000
# 4 0.000000 0.000000 0.000000 0.029436 0.000000 0.000000
# 5 0.000000 0.000000 0.000000 0.000000 0.029436 0.000000
# 6 0.000000 0.000000 0.000000 0.000000 0.000000 0.023125
#
#
# Mechanical properties :
#
#
# Convention : Reuss Voigt Hill
#
# Bulk Modulus (GPa) = 50.36821 75.98013 63.17417
# Shear Modulus (GPa) = 32.95251 37.35874 35.15562
#
# Velocity S-wave (km/s) = 3.50002 3.72668 3.61512
# Velocity P-wave (km/s) = 5.92097 6.83836 6.39613
#
# Compressibility (1/GPa) = 0.01985379
#
# Stress axis : x y z
#
# Youngs Moduli (GPa) = 118.02864 118.02864 40.74739
#
# Poissons Ratio (x) = 0.36471 0.15741
# Poissons Ratio (y) = 0.36471 0.15741
# Poissons Ratio (z) = 0.45596 0.45596
#
# Static dielectric constant tensor:
#      x y z
#    x 2.126260 0.000000 0.000000 
#    y 0.000000 2.126260 0.000000 
#    z 0.000000 0.000000 2.084600 
# 
# From -- ./inp_files/876.got.cif
#   From: 2010.05.17/outbox.cif.g08.bks.cpg/sg170_cif.got.tgz:876.got - 2010.05.20 11:14:30.
