data_PCOD9580344
_publ_section_title
;
Structure prediction by ZEFSAII (Michael W. Deem and Ramdas Pophale) SiO2 
 PCOD9580344
Probable space group: P 65
;
_chemical_formula_sum "Si O2"
_cell_formula_units_Z 48
_cell_length_a 14.058373
_cell_length_b 14.058373
_cell_length_c 12.954785
_cell_angle_alpha 90.000000
_cell_angle_beta 90.000000
_cell_angle_gamma 120.000000
_cell_volume 2217.333229
_symmetry_space_group_name_H-M "P 65"
_symmetry_group_IT_number 170
_symmetry_cell_setting 'hexagonal'
loop_
_space_group_symop_operation_xyz
x,y,z
x-y,x,5/6+z
-y,x-y,2/3+z
-x,-y,1/2+z
-x+y,-x,1/3+z
y,-x+y,1/6+z
loop_
_atom_site_type_symbol
_atom_site_label
_atom_site_fract_x
_atom_site_fract_y
_atom_site_fract_z
Si Si1 0.350108 0.210851 0.312070
Si Si2 0.575757 0.399173 0.225452
Si Si3 0.021720 0.861875 0.377959
Si Si4 0.748657 0.636584 0.850990
Si Si5 0.688922 0.200375 0.667634
Si Si6 0.935405 0.495234 0.149318
Si Si7 0.110013 0.799231 0.107483
Si Si8 0.370486 0.225468 0.731676
O O1 0.467119 0.290900 0.263608
O O2 0.368774 0.192621 0.429649
O O3 0.273412 0.265452 0.319566
O O4 0.284812 0.099522 0.246565
O O5 0.687090 0.410078 0.272066
O O6 0.555970 0.496277 0.271671
O O7 0.567575 0.384296 0.101466
O O8 0.971886 0.879058 0.481541
O O9 0.920929 0.784004 0.304181
O O10 0.629837 0.528879 0.838825
O O11 0.804947 0.647349 0.961347
O O12 0.626040 0.094716 0.591599
O O13 0.810244 0.216027 0.688041
O O14 0.862874 0.518899 0.067551
O O15 0.154358 0.787452 0.996182
O O16 0.979873 0.721767 0.095359
#
# Coordination Sequence:
#
# PCOD9580344 Si02
#       8
#     6   6   6   6   6   6   6   6
#     4  11  25  46  68 102 143 192 237 298 369 438
#     4  11  26  48  72 109 140 192 246 301 376 436
#     4  12  24  43  68 100 145 189 247 295 366 447
#     4  11  25  44  70 101 144 185 237 296 373 429
#     4  11  26  46  74 103 148 184 251 303 369 447
#     4  10  26  45  71 106 138 193 230 304 367 432
#     4  11  23  42  71 105 134 194 233 306 364 435
#     4  11  23  44  72 102 146 181 249 291 370 442
#
# _framework density 21.647625000000001
#
# number of rings (size 3 to 8) (size 9 to 14) (size 15 to 20)
#    0.000    1.000    3.750    1.500    7.000    3.000 
#    0.000    0.000    0.000    0.000    0.000    0.000 
#    0.000    0.000    0.000    0.000    0.000    0.000 
#
# Total GULP energy -267861.578002 kJ/mol
# GULP energy per Si atom -5580.449542 kJ/mol
# Density = 2.159835 g / cm^3
# Si number density = 21.647625 Si / 1000 Ang^3
#
#
#
# Elastic Constant Matrix: (Units=GPa)
#
#
# Indices 1 2 3 4 5 6 
#
# 1 81.5463 43.8201 40.8109 0.0000 0.0000 0.0000
# 2 43.8201 81.5463 40.8109 0.0000 0.0000 0.0000
# 3 40.8109 40.8109 140.9174 0.0000 0.0000 0.0000
# 4 0.0000 0.0000 0.0000 26.4149 0.0000 0.0000
# 5 0.0000 0.0000 0.0000 0.0000 26.4149 0.0000
# 6 0.0000 0.0000 0.0000 0.0000 0.0000 18.8631
#
#
#
# Elastic Compliance Matrix: (Units=1/GPa)
#
#
# Indices 1 2 3 4 5 6 
#
# 1 0.018168 -0.008338 -0.002847 0.000000 0.000000 0.000000
# 2 -0.008338 0.018168 -0.002847 0.000000 0.000000 0.000000
# 3 -0.002847 -0.002847 0.008745 0.000000 0.000000 0.000000
# 4 0.000000 0.000000 0.000000 0.037857 0.000000 0.000000
# 5 0.000000 0.000000 0.000000 0.000000 0.037857 0.000000
# 6 0.000000 0.000000 0.000000 0.000000 0.000000 0.053013
#
#
# Mechanical properties :
#
#
# Convention : Reuss Voigt Hill
#
# Bulk Modulus (GPa) = 58.76122 61.65485 60.20804
# Shear Modulus (GPa) = 24.09090 26.24314 25.16702
#
# Velocity S-wave (km/s) = 3.33958 3.48557 3.41336
# Velocity P-wave (km/s) = 6.48643 6.68894 6.58846
#
# Compressibility (1/GPa) = 0.01701803
#
# Stress axis : x y z
#
# Youngs Moduli (GPa) = 55.04051 55.04051 114.34678
#
# Poissons Ratio (x) = 0.45894 0.32553
# Poissons Ratio (y) = 0.45894 0.32553
# Poissons Ratio (z) = 0.15669 0.15669
#
# Static dielectric constant tensor:
#      x y z
#    x 1.849790 0.000000 0.000000 
#    y 0.000000 1.849790 0.000000 
#    z 0.000000 0.000000 1.767670 
# 
# From -- ./inp_files/1050.got.cif
#   From: 2010.05.17/outbox.cif.g08.bks.cpg/sg170_cif.got.tgz:1050.got - 2010.05.20 11:14:30.
