data_PCOD9580834
_publ_section_title
;
Structure prediction by ZEFSAII (Michael W. Deem and Ramdas Pophale) SiO2 
 PCOD9580834
Probable space group: P 62
;
_chemical_formula_sum "Si O2"
_cell_formula_units_Z 18
_cell_length_a 10.847231
_cell_length_b 10.847231
_cell_length_c 8.088427
_cell_angle_alpha 90.000000
_cell_angle_beta 90.000000
_cell_angle_gamma 120.000000
_cell_volume 824.199752
_symmetry_space_group_name_H-M "P 62"
_symmetry_group_IT_number 171
_symmetry_cell_setting 'hexagonal'
loop_
_space_group_symop_operation_xyz
x,y,z
x-y,x,1/3+z
-y,x-y,2/3+z
-x,-y,z
-x+y,-x,1/3+z
y,-x+y,2/3+z
loop_
_atom_site_type_symbol
_atom_site_label
_atom_site_fract_x
_atom_site_fract_y
_atom_site_fract_z
Si Si1 0.931615 0.594032 0.880350
Si Si2 0.094617 0.911002 0.749146
Si Si3 0.346130 0.396525 0.911241
O O1 0.763929 0.547071 0.865154
O O2 0.000000 0.500000 0.818154
O O3 0.028060 0.748952 0.804581
O O4 0.962073 0.611668 0.075240
O O5 0.995832 0.886843 0.586966
O O6 0.254986 0.994894 0.683762
O O7 0.500000 0.500000 0.992115
#
# Coordination Sequence:
#
# PCOD9580834 Si02
#       3
#     6   6   6
#     4  11  25  46  71 105 148 200 258 328 393 471
#     4  12  26  47  76 108 147 198 264 322 391 464
#     4  11  25  46  71 105 148 200 258 328 393 471
#
# _framework density 21.839366999999999
#
# number of rings (size 3 to 8) (size 9 to 14) (size 15 to 20)
#    0.000    0.667    6.667    0.000    0.000   10.667 
#    0.000    0.000    0.000    0.000    0.000    0.000 
#    0.000    0.000    0.000    0.000    0.000    0.000 
#
# Total GULP energy -100244.539467 kJ/mol
# GULP energy per Si atom -5569.141082 kJ/mol
# Density = 2.178966 g / cm^3
# Si number density = 21.839367 Si / 1000 Ang^3
#
#
#
# Elastic Constant Matrix: (Units=GPa)
#
#
# Indices 1 2 3 4 5 6 
#
# 1 118.7288 118.4454 10.7157 0.0000 0.0000 0.0000
# 2 118.4454 118.7288 10.7157 0.0000 0.0000 0.0000
# 3 10.7157 10.7157 82.1132 0.0000 0.0000 0.0000
# 4 0.0000 0.0000 0.0000 -118.2721 0.0000 0.0000
# 5 0.0000 0.0000 0.0000 0.0000 -118.2721 0.0000
# 6 0.0000 0.0000 0.0000 0.0000 0.0000 0.1417
#
#
#
# Elastic Compliance Matrix: (Units=1/GPa)
#
#
# Indices 1 2 3 4 5 6 
#
# 1 1.766433 -1.762167 -0.000557 0.000000 0.000000 0.000001
# 2 -1.762167 1.766433 -0.000557 0.000000 0.000000 -0.000001
# 3 -0.000557 -0.000557 0.012324 0.000000 0.000000 0.000000
# 4 0.000000 0.000000 0.000000 -0.008455 0.000000 0.000000
# 5 0.000000 0.000000 0.000000 0.000000 -0.008455 0.000000
# 6 0.000001 -0.000001 0.000000 0.000000 0.000000 7.057200
#
#
# Mechanical properties :
#
#
# Convention : Reuss Voigt Hill
#
# Bulk Modulus (GPa) = 53.67768 66.59161 60.13464
# Shear Modulus (GPa) = 0.35415 -35.30092 -17.47338
#
# Velocity S-wave (km/s) = 0.40313 -4.02480 -2.83165
# Velocity P-wave (km/s) = 4.98482 2.99318 4.11142
#
# Compressibility (1/GPa) = 0.01862972
#
# Stress axis : x y z
#
# Youngs Moduli (GPa) = 0.56611 0.56611 81.14489
#
# Poissons Ratio (x) = 0.99758 0.04518
# Poissons Ratio (y) = 0.99758 0.04518
# Poissons Ratio (z) = 0.00032 0.00032
#
# Static dielectric constant tensor:
#      x y z
#    x 2.062390 0.000000 0.000000 
#    y 0.000000 2.062390 0.000000 
#    z 0.000000 0.000000 1.822710 
# 
# From -- ./inp_files/478.got.cif
#   From: 2010.05.17/outbox.cif.g08.bks.cpg/sg171_1_cif.got.tgz:478.got - 2010.05.20 11:16:09.
