data_PCOD9580242
_publ_section_title
;
Structure prediction by ZEFSAII (Michael W. Deem and Ramdas Pophale) SiO2 
 PCOD9580242
Probable space group: P 65
;
_chemical_formula_sum "Si O2"
_cell_formula_units_Z 30
_cell_length_a 11.100298
_cell_length_b 11.100298
_cell_length_c 11.533078
_cell_angle_alpha 90.000000
_cell_angle_beta 90.000000
_cell_angle_gamma 120.000000
_cell_volume 1230.679984
_symmetry_space_group_name_H-M "P 65"
_symmetry_group_IT_number 170
_symmetry_cell_setting 'hexagonal'
loop_
_space_group_symop_operation_xyz
x,y,z
x-y,x,5/6+z
-y,x-y,2/3+z
-x,-y,1/2+z
-x+y,-x,1/3+z
y,-x+y,1/6+z
loop_
_atom_site_type_symbol
_atom_site_label
_atom_site_fract_x
_atom_site_fract_y
_atom_site_fract_z
Si Si1 0.017582 0.365065 0.514140
Si Si2 0.546854 0.257779 0.554770
Si Si3 0.118232 0.245072 0.321565
Si Si4 0.345489 0.815991 0.260202
Si Si5 0.906439 0.151877 0.718299
O O1 0.174236 0.490261 0.492589
O O2 0.012298 0.257642 0.414576
O O3 0.915306 0.423539 0.487424
O O4 0.977723 0.287636 0.635445
O O5 0.616449 0.183052 0.624100
O O6 0.661278 0.380795 0.478405
O O7 0.405973 0.163295 0.482754
O O8 0.855536 0.019799 0.638937
O O9 0.181532 0.156718 0.376012
O O10 0.230752 0.860228 0.275166
#
# Coordination Sequence:
#
# PCOD9580242 Si02
#       5
#     6   6   6   6   6
#     4  10  21  42  69 105 144 194 243 304 385 447
#     4  10  22  39  67 110 145 184 243 311 376 449
#     4  10  20  39  68 106 139 196 246 294 368 448
#     4  12  21  43  74 113 147 190 249 320 386 456
#     4  12  26  45  80 110 149 206 253 307 381 464
#
# _framework density 24.376768999999999
#
# number of rings (size 3 to 8) (size 9 to 14) (size 15 to 20)
#    1.200    0.000    4.000    3.600    0.000    0.000 
#    0.000    0.000    8.800    7.200    0.000    0.000 
#    0.000    0.000    0.000    0.000    0.000    0.000 
#
# Total GULP energy -168024.622335 kJ/mol
# GULP energy per Si atom -5600.820744 kJ/mol
# Density = 2.432129 g / cm^3
# Si number density = 24.376769 Si / 1000 Ang^3
#
#
#
# Elastic Constant Matrix: (Units=GPa)
#
#
# Indices 1 2 3 4 5 6 
#
# 1 107.0068 61.3482 55.7840 0.0000 0.0000 0.0000
# 2 61.3482 107.0068 55.7840 0.0000 0.0000 0.0000
# 3 55.7840 55.7840 70.3988 0.0000 0.0000 0.0000
# 4 0.0000 0.0000 0.0000 45.9663 0.0000 0.0000
# 5 0.0000 0.0000 0.0000 0.0000 45.9663 0.0000
# 6 0.0000 0.0000 0.0000 0.0000 0.0000 22.8293
#
#
#
# Elastic Compliance Matrix: (Units=1/GPa)
#
#
# Indices 1 2 3 4 5 6 
#
# 1 0.017205 -0.004697 -0.009911 0.000000 0.000000 0.000000
# 2 -0.004697 0.017205 -0.009911 0.000000 0.000000 0.000000
# 3 -0.009911 -0.009911 0.029912 0.000000 0.000000 0.000000
# 4 0.000000 0.000000 0.000000 0.021755 0.000000 0.000000
# 5 0.000000 0.000000 0.000000 0.000000 0.021755 0.000000
# 6 0.000000 0.000000 0.000000 0.000000 0.000000 0.043803
#
#
# Mechanical properties :
#
#
# Convention : Reuss Voigt Hill
#
# Bulk Modulus (GPa) = 65.43247 70.02717 67.72982
# Shear Modulus (GPa) = 24.29908 30.38545 27.34226
#
# Velocity S-wave (km/s) = 3.16066 3.53440 3.35274
# Velocity P-wave (km/s) = 6.34193 6.74132 6.54467
#
# Compressibility (1/GPa) = 0.01528293
#
# Stress axis : x y z
#
# Youngs Moduli (GPa) = 58.12307 58.12307 33.43100
#
# Poissons Ratio (x) = 0.27299 0.33135
# Poissons Ratio (y) = 0.27299 0.33135
# Poissons Ratio (z) = 0.57608 0.57608
#
# Static dielectric constant tensor:
#      x y z
#    x 1.918270 0.000000 0.000000 
#    y 0.000000 1.918270 0.000000 
#    z 0.000000 0.000000 1.964880 
# 
# From -- ./inp_files/1167.got.cif
#   From: 2010.05.17/outbox.cif.g08.bks.cpg/sg170_cif.got.tgz:1167.got - 2010.05.20 11:14:30.
