data_PCOD9580601
_publ_section_title
;
Structure prediction by ZEFSAII (Michael W. Deem and Ramdas Pophale) SiO2 
 PCOD9580601
Probable space group: P 62
;
_chemical_formula_sum "Si O2"
_cell_formula_units_Z 33
_cell_length_a 12.313778
_cell_length_b 12.313778
_cell_length_c 9.895807
_cell_angle_alpha 90.000000
_cell_angle_beta 90.000000
_cell_angle_gamma 120.000000
_cell_volume 1299.464703
_symmetry_space_group_name_H-M "P 62"
_symmetry_group_IT_number 171
_symmetry_cell_setting 'hexagonal'
loop_
_space_group_symop_operation_xyz
x,y,z
x-y,x,1/3+z
-y,x-y,2/3+z
-x,-y,z
-x+y,-x,1/3+z
y,-x+y,2/3+z
loop_
_atom_site_type_symbol
_atom_site_label
_atom_site_fract_x
_atom_site_fract_y
_atom_site_fract_z
Si Si1 0.394004 0.526632 0.417350
Si Si2 0.825463 0.495232 0.260611
Si Si3 0.685208 0.819635 0.144109
Si Si4 0.531862 0.753495 0.623758
Si Si5 0.852553 0.088371 0.101229
Si Si6 0.000000 0.000000 0.765123
O O1 0.500000 0.500000 0.365209
O O2 0.320248 0.553031 0.301543
O O3 0.285606 0.400769 0.487601
O O4 0.447899 0.635739 0.526112
O O5 0.897738 0.611831 0.365392
O O6 0.832815 0.532023 0.104825
O O7 0.838926 0.373729 0.287247
O O8 0.696745 0.784260 0.295448
O O9 0.820111 0.939821 0.107252
O O10 0.664081 0.818801 0.549014
O O11 0.998778 0.141466 0.094824
O O12 0.000000 0.000000 0.598566
#
# Coordination Sequence:
#
# PCOD9580601 Si02
#       6
#     6   6   6   6   6   3
#     4  10  21  40  70 103 152 200 257 313 407 480
#     4  10  23  39  68 111 154 202 257 325 402 500
#     4  10  24  43  71 106 144 202 253 321 405 486
#     4  12  21  41  73 107 154 204 255 330 403 500
#     4  12  25  48  76 109 150 206 271 336 424 484
#     4  12  28  54  84 116 160 214 282 362 422 506
#
# _framework density 25.395074000000001
#
# number of rings (size 3 to 8) (size 9 to 14) (size 15 to 20)
#    1.091    0.000    5.455    1.091    2.545    1.455 
#    0.000    0.000    0.000    0.000    0.000    0.000 
#    0.000    0.000    0.000    0.000    0.000    0.000 
#
# Total GULP energy -183845.973066 kJ/mol
# GULP energy per Si atom -5571.090093 kJ/mol
# Density = 2.533727 g / cm^3
# Si number density = 25.395074 Si / 1000 Ang^3
#
#
#
# Elastic Constant Matrix: (Units=GPa)
#
#
# Indices 1 2 3 4 5 6 
#
# 1 113.9498 51.1571 54.9394 0.0000 0.0000 0.0000
# 2 51.1571 113.9498 54.9394 0.0000 0.0000 0.0000
# 3 54.9394 54.9394 197.6585 0.0000 0.0000 0.0000
# 4 0.0000 0.0000 0.0000 42.9158 0.0000 0.0000
# 5 0.0000 0.0000 0.0000 0.0000 42.9158 0.0000
# 6 0.0000 0.0000 0.0000 0.0000 0.0000 31.3964
#
#
#
# Elastic Compliance Matrix: (Units=1/GPa)
#
#
# Indices 1 2 3 4 5 6 
#
# 1 0.011678 -0.004247 -0.002066 0.000000 0.000000 0.000000
# 2 -0.004247 0.011678 -0.002066 0.000000 0.000000 0.000000
# 3 -0.002066 -0.002066 0.006207 0.000000 0.000000 0.000000
# 4 0.000000 0.000000 0.000000 0.023301 0.000000 0.000000
# 5 0.000000 0.000000 0.000000 0.000000 0.023301 0.000000
# 6 0.000000 0.000000 0.000000 0.000000 0.000000 0.031851
#
#
# Mechanical properties :
#
#
# Convention : Reuss Voigt Hill
#
# Bulk Modulus (GPa) = 78.07672 83.07000 80.57336
# Shear Modulus (GPa) = 38.74662 41.08039 39.91351
#
# Velocity S-wave (km/s) = 3.91033 4.02637 3.96877
# Velocity P-wave (km/s) = 7.15536 7.37547 7.26625
#
# Compressibility (1/GPa) = 0.01280792
#
# Stress axis : x y z
#
# Youngs Moduli (GPa) = 85.62847 85.62847 161.09621
#
# Poissons Ratio (x) = 0.36367 0.33275
# Poissons Ratio (y) = 0.36367 0.33275
# Poissons Ratio (z) = 0.17687 0.17687
#
# Static dielectric constant tensor:
#      x y z
#    x 2.265670 0.000000 0.000000 
#    y 0.000000 2.265670 0.000000 
#    z 0.000000 0.000000 2.014370 
# 
# From -- ./inp_files/1137.got.cif
#   From: 2010.05.17/outbox.cif.g08.bks.cpg/sg171_1_cif.got.tgz:1137.got - 2010.05.20 11:16:09.
