data_PCOD9580257
_publ_section_title
;
Structure prediction by ZEFSAII (Michael W. Deem and Ramdas Pophale) SiO2 
 PCOD9580257
Probable space group: P 65
;
_chemical_formula_sum "Si O2"
_cell_formula_units_Z 42
_cell_length_a 8.081600
_cell_length_b 8.081600
_cell_length_c 29.907610
_cell_angle_alpha 90.000000
_cell_angle_beta 90.000000
_cell_angle_gamma 120.000000
_cell_volume 1691.636483
_symmetry_space_group_name_H-M "P 65"
_symmetry_group_IT_number 170
_symmetry_cell_setting 'hexagonal'
loop_
_space_group_symop_operation_xyz
x,y,z
x-y,x,5/6+z
-y,x-y,2/3+z
-x,-y,1/2+z
-x+y,-x,1/3+z
y,-x+y,1/6+z
loop_
_atom_site_type_symbol
_atom_site_label
_atom_site_fract_x
_atom_site_fract_y
_atom_site_fract_z
Si Si1 0.419620 0.752730 0.794320
Si Si2 0.636583 0.647085 0.067697
Si Si3 0.993994 0.998183 0.195890
Si Si4 0.436902 0.263542 0.387954
Si Si5 0.590907 0.359681 0.880915
Si Si6 0.854827 0.070521 0.778176
Si Si7 0.701501 0.365528 0.459145
O O1 0.301305 0.859186 0.780146
O O2 0.435463 0.732783 0.846340
O O3 0.320774 0.571896 0.760560
O O4 0.641013 0.885600 0.779281
O O5 0.835773 0.785802 0.045058
O O6 0.472560 0.648947 0.037202
O O7 0.623392 0.455183 0.083661
O O8 0.119998 0.221799 0.210667
O O9 0.064207 0.887266 0.228135
O O10 0.042665 0.004626 0.143942
O O11 0.452312 0.470208 0.386093
O O12 0.494002 0.238063 0.437763
O O13 0.524011 0.249055 0.834652
O O14 0.822208 0.235629 0.798448
#
# Coordination Sequence:
#
# PCOD9580257 Si02
#       7
#     6   6   6   6   6   6   6
#     4   8  18  38  57  88 118 150 208 251 298 362
#     4   8  20  39  58  86 120 157 200 247 312 357
#     4  10  21  39  63  88 118 161 211 252 305 377
#     4  10  22  36  64  91 116 163 209 250 306 365
#     4   9  20  41  58  88 121 161 201 251 302 379
#     4  10  21  38  63  91 118 165 206 252 308 368
#     4  11  22  39  63  90 125 165 199 263 315 358
#
# _framework density 24.828032
#
# number of rings (size 3 to 8) (size 9 to 14) (size 15 to 20)
#    0.857    1.714    0.000    0.857    6.000    2.286 
#    2.571    0.000    0.000    0.000    0.000    0.000 
#    0.000    0.000    0.000    0.000    0.000    0.000 
#
# Total GULP energy -233938.271317 kJ/mol
# GULP energy per Si atom -5569.958841 kJ/mol
# Density = 2.477152 g / cm^3
# Si number density = 24.828032 Si / 1000 Ang^3
#
#
#
# Elastic Constant Matrix: (Units=GPa)
#
#
# Indices 1 2 3 4 5 6 
#
# 1 27.4861 -6.9928 2.4532 0.0000 0.0000 0.0000
# 2 -6.9928 27.4861 2.4532 0.0000 0.0000 0.0000
# 3 2.4532 2.4532 77.5893 0.0000 0.0000 0.0000
# 4 0.0000 0.0000 0.0000 24.7306 0.0000 0.0000
# 5 0.0000 0.0000 0.0000 0.0000 24.7306 0.0000
# 6 0.0000 0.0000 0.0000 0.0000 0.0000 17.2395
#
#
#
# Elastic Compliance Matrix: (Units=1/GPa)
#
#
# Indices 1 2 3 4 5 6 
#
# 1 0.039086 0.010083 -0.001555 0.000000 0.000000 0.000000
# 2 0.010083 0.039086 -0.001555 0.000000 0.000000 0.000000
# 3 -0.001555 -0.001555 0.012987 0.000000 0.000000 0.000000
# 4 0.000000 0.000000 0.000000 0.040436 0.000000 0.000000
# 5 0.000000 0.000000 0.000000 0.000000 0.040436 0.000000
# 6 0.000000 0.000000 0.000000 0.000000 0.000000 0.058006
#
#
# Mechanical properties :
#
#
# Convention : Reuss Voigt Hill
#
# Bulk Modulus (GPa) = 9.51425 14.26542 11.88984
# Shear Modulus (GPa) = 19.91043 22.31665 21.11354
#
# Velocity S-wave (km/s) = 2.83492 3.00133 2.91931
# Velocity P-wave (km/s) = 3.81524 4.21531 4.02025
#
# Compressibility (1/GPa) = 0.10510544
#
# Stress axis : x y z
#
# Youngs Moduli (GPa) = 25.58467 25.58467 77.00190
#
# Poissons Ratio (x) = -0.25796 0.11971
# Poissons Ratio (y) = -0.25796 0.11971
# Poissons Ratio (z) = 0.03977 0.03977
#
# Static dielectric constant tensor:
#      x y z
#    x 2.063530 0.000000 0.000000 
#    y 0.000000 2.063530 0.000000 
#    z 0.000000 0.000000 2.066280 
# 
# From -- ./inp_files/1929.got.cif
#   From: 2010.05.17/outbox.cif.g08.bks.cpg/sg170_cif.got.tgz:1929.got - 2010.05.20 11:14:30.
