data_PCOD9580783
_publ_section_title
;
Structure prediction by ZEFSAII (Michael W. Deem and Ramdas Pophale) SiO2 
 PCOD9580783
Probable space group: P 62
;
_chemical_formula_sum "Si O2"
_cell_formula_units_Z 21
_cell_length_a 8.460977
_cell_length_b 8.460977
_cell_length_c 12.869513
_cell_angle_alpha 90.000000
_cell_angle_beta 90.000000
_cell_angle_gamma 120.000000
_cell_volume 797.873009
_symmetry_space_group_name_H-M "P 62"
_symmetry_group_IT_number 171
_symmetry_cell_setting 'hexagonal'
loop_
_space_group_symop_operation_xyz
x,y,z
x-y,x,1/3+z
-y,x-y,2/3+z
-x,-y,z
-x+y,-x,1/3+z
y,-x+y,2/3+z
loop_
_atom_site_type_symbol
_atom_site_label
_atom_site_fract_x
_atom_site_fract_y
_atom_site_fract_z
Si Si1 0.117487 0.707903 0.580940
Si Si2 0.500000 0.500000 0.446571
Si Si3 0.295101 0.466528 0.883727
Si Si4 0.134907 0.929826 0.406283
O O1 0.064828 0.669751 0.701000
O O2 0.340882 0.822888 0.571179
O O3 0.049326 0.816714 0.512070
O O4 0.000000 0.500000 0.538138
O O5 0.452717 0.619245 0.519306
O O6 0.265719 0.339558 0.781332
O O7 0.201770 0.344094 0.985355
O O8 0.000000 0.000000 0.372539
#
# Coordination Sequence:
#
# PCOD9580783 Si02
#       4
#     6   3   6   6
#     4  10  27  52  82 118 163 226 273 345 418 518
#     4  10  28  46  84 112 162 216 272 332 416 506
#     4  12  28  50  84 119 169 218 279 353 424 512
#     4  12  30  51  84 125 168 220 289 354 432 512
#
# _framework density 26.319977999999999
#
# number of rings (size 3 to 8) (size 9 to 14) (size 15 to 20)
#    0.857    0.000    0.000    3.429   20.000    2.286 
#    0.000    0.000    0.000    0.000    0.000    0.000 
#    0.000    0.000    0.000    0.000    0.000    0.000 
#
# Total GULP energy -117226.235837 kJ/mol
# GULP energy per Si atom -5582.201707 kJ/mol
# Density = 2.626007 g / cm^3
# Si number density = 26.319978 Si / 1000 Ang^3
#
#
#
# Elastic Constant Matrix: (Units=GPa)
#
#
# Indices 1 2 3 4 5 6 
#
# 1 112.9443 36.1167 57.0253 0.0000 0.0000 0.0000
# 2 36.1167 112.9443 57.0253 0.0000 0.0000 0.0000
# 3 57.0253 57.0253 140.7491 0.0000 0.0000 0.0000
# 4 0.0000 0.0000 0.0000 44.6620 0.0000 0.0000
# 5 0.0000 0.0000 0.0000 0.0000 44.6620 0.0000
# 6 0.0000 0.0000 0.0000 0.0000 0.0000 38.4138
#
#
#
# Elastic Compliance Matrix: (Units=1/GPa)
#
#
# Indices 1 2 3 4 5 6 
#
# 1 0.011369 -0.001647 -0.003939 0.000000 0.000000 0.000000
# 2 -0.001647 0.011369 -0.003939 0.000000 0.000000 0.000000
# 3 -0.003939 -0.003939 0.010297 0.000000 0.000000 0.000000
# 4 0.000000 0.000000 0.000000 0.022390 0.000000 0.000000
# 5 0.000000 0.000000 0.000000 0.000000 0.022390 0.000000
# 6 0.000000 0.000000 0.000000 0.000000 0.000000 0.026032
#
#
# Mechanical properties :
#
#
# Convention : Reuss Voigt Hill
#
# Bulk Modulus (GPa) = 71.50340 74.10803 72.80572
# Shear Modulus (GPa) = 39.19701 39.97891 39.58796
#
# Velocity S-wave (km/s) = 3.86327 3.90161 3.88248
# Velocity P-wave (km/s) = 6.86482 6.96523 6.91521
#
# Compressibility (1/GPa) = 0.01398535
#
# Stress axis : x y z
#
# Youngs Moduli (GPa) = 87.95547 87.95547 97.11756
#
# Poissons Ratio (x) = 0.14484 0.38256
# Poissons Ratio (y) = 0.14484 0.38256
# Poissons Ratio (z) = 0.34647 0.34647
#
# Static dielectric constant tensor:
#      x y z
#    x 2.199000 0.000000 0.000000 
#    y 0.000000 2.199000 0.000000 
#    z 0.000000 0.000000 1.932710 
# 
# From -- ./inp_files/2658.got.cif
#   From: 2010.05.17/outbox.cif.g08.bks.cpg/sg171_2_cif.got.tgz:2658.got - 2010.05.20 11:16:09.
