data_PCOD9580800
_publ_section_title
;
Structure prediction by ZEFSAII (Michael W. Deem and Ramdas Pophale) SiO2 
 PCOD9580800
Probable space group: P 62
;
_chemical_formula_sum "Si O2"
_cell_formula_units_Z 36
_cell_length_a 9.890307
_cell_length_b 9.890307
_cell_length_c 21.176278
_cell_angle_alpha 90.000000
_cell_angle_beta 90.000000
_cell_angle_gamma 120.000000
_cell_volume 1793.906512
_symmetry_space_group_name_H-M "P 62"
_symmetry_group_IT_number 171
_symmetry_cell_setting 'hexagonal'
loop_
_space_group_symop_operation_xyz
x,y,z
x-y,x,1/3+z
-y,x-y,2/3+z
-x,-y,z
-x+y,-x,1/3+z
y,-x+y,2/3+z
loop_
_atom_site_type_symbol
_atom_site_label
_atom_site_fract_x
_atom_site_fract_y
_atom_site_fract_z
Si Si1 0.376539 0.724276 0.514670
Si Si2 0.217620 0.405389 0.581983
Si Si3 0.293483 0.107286 0.858868
Si Si4 0.816166 0.901391 0.724901
Si Si5 0.828998 0.690649 0.922801
Si Si6 0.540552 0.862747 0.385164
O O1 0.300820 0.544016 0.532504
O O2 0.246775 0.775356 0.522330
O O3 0.523510 0.819177 0.561446
O O4 0.440280 0.760597 0.443481
O O5 0.282610 0.284888 0.578959
O O6 0.256035 0.477993 0.652184
O O7 0.034430 0.307935 0.568144
O O8 0.231028 0.045487 0.788507
O O9 0.191538 0.178284 0.886984
O O10 0.717404 0.897891 0.664019
O O11 0.773028 0.722918 0.736227
O O12 0.000000 0.000000 0.711203
O O13 0.500000 0.000000 0.374873
#
# Coordination Sequence:
#
# PCOD9580800 Si02
#       6
#     6   6   6   6   6   6
#     4  12  24  43  68 102 138 183 220 278 343 407
#     4  11  25  43  70 100 139 172 230 289 336 386
#     4  12  24  45  68 101 141 175 223 287 337 400
#     4  11  22  40  71 103 129 175 236 282 326 391
#     4  11  22  44  72  99 129 183 231 270 329 416
#     4  11  21  45  72  96 134 195 226 265 342 431
#
# _framework density 20.067936
#
# number of rings (size 3 to 8) (size 9 to 14) (size 15 to 20)
#    0.000    0.667    3.333    7.000    0.000    0.000 
#    3.000    3.333    0.000    0.000    0.000    0.000 
#    0.000    0.000    0.000    0.000    0.000    0.000 
#
# Total GULP energy -201418.951070 kJ/mol
# GULP energy per Si atom -5594.970863 kJ/mol
# Density = 2.002226 g / cm^3
# Si number density = 20.067936 Si / 1000 Ang^3
#
#
#
# Elastic Constant Matrix: (Units=GPa)
#
#
# Indices 1 2 3 4 5 6 
#
# 1 65.9585 38.1666 37.5232 0.0000 0.0000 0.0000
# 2 38.1666 65.9585 37.5232 0.0000 0.0000 0.0000
# 3 37.5232 37.5232 127.6246 0.0000 0.0000 0.0000
# 4 0.0000 0.0000 0.0000 16.2799 0.0000 0.0000
# 5 0.0000 0.0000 0.0000 0.0000 16.2799 0.0000
# 6 0.0000 0.0000 0.0000 0.0000 0.0000 13.8960
#
#
#
# Elastic Compliance Matrix: (Units=1/GPa)
#
#
# Indices 1 2 3 4 5 6 
#
# 1 0.024084 -0.011898 -0.003583 0.000000 0.000000 0.000000
# 2 -0.011898 0.024084 -0.003583 0.000000 0.000000 0.000000
# 3 -0.003583 -0.003583 0.009942 0.000000 0.000000 0.000000
# 4 0.000000 0.000000 0.000000 0.061425 0.000000 0.000000
# 5 0.000000 0.000000 0.000000 0.000000 0.061425 0.000000
# 6 0.000000 0.000000 0.000000 0.000000 0.000000 0.071963
#
#
# Mechanical properties :
#
#
# Convention : Reuss Voigt Hill
#
# Bulk Modulus (GPa) = 50.04239 53.99642 52.01941
# Shear Modulus (GPa) = 16.79475 19.04640 17.92058
#
# Velocity S-wave (km/s) = 2.89605 3.08408 2.99154
# Velocity P-wave (km/s) = 6.01444 6.29661 6.15714
#
# Compressibility (1/GPa) = 0.01998306
#
# Stress axis : x y z
#
# Youngs Moduli (GPa) = 41.52156 41.52156 100.58039
#
# Poissons Ratio (x) = 0.49401 0.36037
# Poissons Ratio (y) = 0.49401 0.36037
# Poissons Ratio (z) = 0.14877 0.14877
#
# Static dielectric constant tensor:
#      x y z
#    x 1.702980 0.000000 0.000000 
#    y 0.000000 1.702980 0.000000 
#    z 0.000000 0.000000 1.730970 
# 
# From -- ./inp_files/3631.got.cif
#   From: 2010.05.17/outbox.cif.g08.bks.cpg/sg171_2_cif.got.tgz:3631.got - 2010.05.20 11:16:09.
