data_PCOD9580614
_publ_section_title
;
Structure prediction by ZEFSAII (Michael W. Deem and Ramdas Pophale) SiO2 
 PCOD9580614
Probable space group: P 62
;
_chemical_formula_sum "Si O2"
_cell_formula_units_Z 42
_cell_length_a 19.293439
_cell_length_b 19.293439
_cell_length_c 5.872228
_cell_angle_alpha 90.000000
_cell_angle_beta 90.000000
_cell_angle_gamma 120.000000
_cell_volume 1893.009676
_symmetry_space_group_name_H-M "P 62"
_symmetry_group_IT_number 171
_symmetry_cell_setting 'hexagonal'
loop_
_space_group_symop_operation_xyz
x,y,z
x-y,x,1/3+z
-y,x-y,2/3+z
-x,-y,z
-x+y,-x,1/3+z
y,-x+y,2/3+z
loop_
_atom_site_type_symbol
_atom_site_label
_atom_site_fract_x
_atom_site_fract_y
_atom_site_fract_z
Si Si1 0.461133 0.121240 0.342180
Si Si2 0.461602 0.601954 0.348304
Si Si3 0.735065 0.135693 0.340032
Si Si4 0.806083 0.668231 0.365305
Si Si5 0.966399 0.711218 0.635547
Si Si6 0.590622 0.289713 0.457270
Si Si7 0.581540 0.606406 0.023332
O O1 0.524988 0.121872 0.162912
O O2 0.390001 0.126823 0.212302
O O3 0.512274 0.204563 0.475428
O O4 0.435351 0.046783 0.510251
O O5 0.533171 0.676747 0.487997
O O6 0.417304 0.650516 0.274780
O O7 0.498406 0.570750 0.158695
O O8 0.816496 0.197994 0.470605
O O9 0.753418 0.072010 0.216721
O O10 0.674279 0.096916 0.545175
O O11 0.893202 0.700583 0.479836
O O12 0.792392 0.742148 0.310238
O O13 0.995278 0.650445 0.541107
O O14 0.659062 0.275581 0.352136
#
# Coordination Sequence:
#
# PCOD9580614 Si02
#       7
#     6   6   6   6   6   6   6
#     4  11  23  44  68  98 137 185 240 297 368 423
#     4  10  24  43  63  97 133 185 243 302 355 429
#     4  10  21  43  66  98 141 172 238 288 348 425
#     4  11  24  43  72 106 140 185 232 301 356 444
#     4  10  23  42  71 105 140 177 239 283 369 426
#     4  10  23  43  63  88 121 172 235 282 346 416
#     4  10  22  44  63  96 134 182 229 299 356 425
#
# _framework density 22.186890999999999
#
# number of rings (size 3 to 8) (size 9 to 14) (size 15 to 20)
#    0.000    1.714    1.429    2.571    4.000    7.429 
#    7.714    0.000    0.000    0.000    0.000    5.000 
#    0.000    0.000    0.000    0.000    0.000    0.000 
#
# Total GULP energy -234351.893212 kJ/mol
# GULP energy per Si atom -5579.806981 kJ/mol
# Density = 2.213639 g / cm^3
# Si number density = 22.186891 Si / 1000 Ang^3
#
#
#
# Elastic Constant Matrix: (Units=GPa)
#
#
# Indices 1 2 3 4 5 6 
#
# 1 108.3814 54.3849 33.6262 0.0000 0.0000 0.0000
# 2 54.3849 108.3814 33.6262 0.0000 0.0000 0.0000
# 3 33.6262 33.6262 65.9916 0.0000 0.0000 0.0000
# 4 0.0000 0.0000 0.0000 36.8845 0.0000 0.0000
# 5 0.0000 0.0000 0.0000 0.0000 36.8845 0.0000
# 6 0.0000 0.0000 0.0000 0.0000 0.0000 26.9982
#
#
#
# Elastic Compliance Matrix: (Units=1/GPa)
#
#
# Indices 1 2 3 4 5 6 
#
# 1 0.013151 -0.005369 -0.003965 0.000000 0.000000 0.000000
# 2 -0.005369 0.013151 -0.003965 0.000000 0.000000 0.000000
# 3 -0.003965 -0.003965 0.019195 0.000000 0.000000 0.000000
# 4 0.000000 0.000000 0.000000 0.027112 0.000000 0.000000
# 5 0.000000 0.000000 0.000000 0.000000 0.027112 0.000000
# 6 0.000000 0.000000 0.000000 0.000000 0.000000 0.037039
#
#
# Mechanical properties :
#
#
# Convention : Reuss Voigt Hill
#
# Bulk Modulus (GPa) = 52.91762 58.44769 55.68265
# Shear Modulus (GPa) = 29.47107 30.89458 30.18283
#
# Velocity S-wave (km/s) = 3.64855 3.73563 3.69235
# Velocity P-wave (km/s) = 6.45383 6.70873 6.58251
#
# Compressibility (1/GPa) = 0.01889730
#
# Stress axis : x y z
#
# Youngs Moduli (GPa) = 76.03995 76.03995 52.09777
#
# Poissons Ratio (x) = 0.40824 0.20659
# Poissons Ratio (y) = 0.40824 0.20659
# Poissons Ratio (z) = 0.30153 0.30153
#
# Static dielectric constant tensor:
#      x y z
#    x 1.906690 0.000000 0.000000 
#    y 0.000000 1.906690 0.000000 
#    z 0.000000 0.000000 1.848570 
# 
# From -- ./inp_files/4254.got.cif
#   From: 2010.05.17/outbox.cif.g08.bks.cpg/sg171_3_cif.got.tgz:4254.got - 2010.05.20 11:16:09.
