data_PCOD9580163
_publ_section_title
;
Structure prediction by ZEFSAII (Michael W. Deem and Ramdas Pophale) SiO2 
 PCOD9580163
Probable space group: P 65
;
_chemical_formula_sum "Si O2"
_cell_formula_units_Z 48
_cell_length_a 17.818784
_cell_length_b 17.818784
_cell_length_c 7.599565
_cell_angle_alpha 90.000000
_cell_angle_beta 90.000000
_cell_angle_gamma 120.000000
_cell_volume 2089.659339
_symmetry_space_group_name_H-M "P 65"
_symmetry_group_IT_number 170
_symmetry_cell_setting 'hexagonal'
loop_
_space_group_symop_operation_xyz
x,y,z
x-y,x,5/6+z
-y,x-y,2/3+z
-x,-y,1/2+z
-x+y,-x,1/3+z
y,-x+y,1/6+z
loop_
_atom_site_type_symbol
_atom_site_label
_atom_site_fract_x
_atom_site_fract_y
_atom_site_fract_z
Si Si1 0.596548 0.090389 0.104680
Si Si2 0.093372 0.523992 0.682681
Si Si3 0.265032 0.638407 0.149264
Si Si4 0.475180 0.171581 0.737988
Si Si5 0.813896 0.888292 0.474065
Si Si6 0.114265 0.362066 0.682575
Si Si7 0.138411 0.168104 0.423559
Si Si8 0.000663 0.309349 0.360784
O O1 0.581971 0.108779 0.306711
O O2 0.671561 0.067057 0.096095
O O3 0.629522 0.177486 0.997926
O O4 0.508374 0.005605 0.042386
O O5 0.159503 0.618637 0.771054
O O6 0.099561 0.440421 0.748796
O O7 0.308106 0.670274 0.338049
O O8 0.226992 0.695619 0.068676
O O9 0.411567 0.211559 0.723791
O O10 0.402603 0.072570 0.760216
O O11 0.877341 0.847154 0.442974
O O12 0.709969 0.817706 0.488482
O O13 0.819997 0.928543 0.281900
O O14 0.041384 0.301775 0.541607
O O15 0.153036 0.087440 0.452356
O O16 0.228731 0.256164 0.400844
#
# Coordination Sequence:
#
# PCOD9580163 Si02
#       8
#     6   6   6   6   6   6   6   6
#     4  10  23  42  65  94 135 178 229 294 351 427
#     4  10  23  39  68  99 132 182 227 291 362 418
#     4  12  29  46  66  99 139 182 236 290 364 427
#     4  11  22  40  64  96 130 174 225 285 348 419
#     4  10  18  31  55  91 119 162 215 278 329 401
#     4  11  18  33  61  89 122 166 224 282 334 419
#     4  10  17  31  54  91 121 162 213 271 329 406
#     4  10  18  34  61  93 122 164 225 277 343 409
#
# _framework density 22.970248999999999
#
# number of rings (size 3 to 8) (size 9 to 14) (size 15 to 20)
#    0.000    1.500    3.750    3.000    5.250    0.000 
#    0.000    0.000    0.000    3.000   42.250    0.000 
#    0.000    0.000    0.000    0.000    0.000    0.000 
#
# Total GULP energy -267519.324203 kJ/mol
# GULP energy per Si atom -5573.319254 kJ/mol
# Density = 2.291797 g / cm^3
# Si number density = 22.970249 Si / 1000 Ang^3
#
#
#
# Elastic Constant Matrix: (Units=GPa)
#
#
# Indices 1 2 3 4 5 6 
#
# 1 186.7975 -29.8606 16.4319 0.0000 0.0000 0.0000
# 2 -29.8606 186.7975 16.4319 0.0000 0.0000 0.0000
# 3 16.4319 16.4319 53.7690 0.0000 0.0000 0.0000
# 4 0.0000 0.0000 0.0000 25.3467 0.0000 0.0000
# 5 0.0000 0.0000 0.0000 0.0000 25.3467 0.0000
# 6 0.0000 0.0000 0.0000 0.0000 0.0000 108.3291
#
#
#
# Elastic Compliance Matrix: (Units=1/GPa)
#
#
# Indices 1 2 3 4 5 6 
#
# 1 0.005712 0.001096 -0.002080 0.000000 0.000000 0.000000
# 2 0.001096 0.005712 -0.002080 0.000000 0.000000 0.000000
# 3 -0.002080 -0.002080 0.019870 0.000000 0.000000 0.000000
# 4 0.000000 0.000000 0.000000 0.039453 0.000000 0.000000
# 5 0.000000 0.000000 0.000000 0.000000 0.039453 0.000000
# 6 0.000000 0.000000 0.000000 0.000000 0.000000 0.009231
#
#
# Mechanical properties :
#
#
# Convention : Reuss Voigt Hill
#
# Bulk Modulus (GPa) = 39.74051 48.15224 43.94638
# Shear Modulus (GPa) = 37.32816 60.09521 48.71169
#
# Velocity S-wave (km/s) = 4.03558 5.12045 4.61004
# Velocity P-wave (km/s) = 6.24924 7.48111 6.89275
#
# Compressibility (1/GPa) = 0.02516324
#
# Stress axis : x y z
#
# Youngs Moduli (GPa) = 175.08210 175.08210 50.32804
#
# Poissons Ratio (x) = -0.19190 0.10470
# Poissons Ratio (y) = -0.19190 0.10470
# Poissons Ratio (z) = 0.36424 0.36424
#
# Static dielectric constant tensor:
#      x y z
#    x 1.915030 0.000000 0.000000 
#    y 0.000000 1.915030 0.000000 
#    z 0.000000 0.000000 1.870660 
# 
# From -- ./inp_files/719.got.cif
#   From: 2010.05.17/outbox.cif.g08.bks.cpg/sg170_cif.got.tgz:719.got - 2010.05.20 11:14:30.
