data_PCOD9580947
_publ_section_title
;
Structure prediction by ZEFSAII (Michael W. Deem and Ramdas Pophale) SiO2 
 PCOD9580947
Probable space group: P 64
;
_chemical_formula_sum "Si O2"
_cell_formula_units_Z 36
_cell_length_a 8.545220
_cell_length_b 8.545220
_cell_length_c 28.094420
_cell_angle_alpha 90.000000
_cell_angle_beta 90.000000
_cell_angle_gamma 120.000000
_cell_volume 1776.630849
_symmetry_space_group_name_H-M "P 64"
_symmetry_group_IT_number 172
_symmetry_cell_setting 'hexagonal'
loop_
_space_group_symop_operation_xyz
x,y,z
x-y,x,2/3+z
-y,x-y,1/3+z
-x,-y,z
-x+y,-x,2/3+z
y,-x+y,1/3+z
loop_
_atom_site_type_symbol
_atom_site_label
_atom_site_fract_x
_atom_site_fract_y
_atom_site_fract_z
Si Si1 0.658485 0.453360 0.294850
Si Si2 0.449807 0.652034 0.048469
Si Si3 0.514841 0.199735 0.886999
Si Si4 0.511029 0.189743 0.779671
Si Si5 0.011810 0.828508 0.397072
Si Si6 0.183303 0.020038 0.951474
O O1 0.500000 0.500000 0.304563
O O2 0.685150 0.336448 0.336693
O O3 0.652675 0.351524 0.245915
O O4 0.835713 0.646777 0.287102
O O5 0.500000 0.500000 0.035650
O O6 0.305263 0.598717 0.089772
O O7 0.620466 0.820663 0.073835
O O8 0.496166 0.247522 0.833132
O O9 0.350649 0.165979 0.921345
O O10 0.500000 0.000000 0.886624
O O11 0.353769 0.184102 0.746050
O O12 0.500000 0.000000 0.783326
O O13 0.057659 0.870475 0.340798
O O14 0.000000 0.000000 0.416606
O O15 0.000000 0.000000 0.931289
#
# Coordination Sequence:
#
# PCOD9580947 Si02
#       6
#     6   6   6   6   6   6
#     4  11  23  39  64  94 127 169 219 269 324 384
#     4  12  25  40  62  94 131 171 224 273 317 385
#     4   9  21  42  64  93 132 172 207 265 328 395
#     4  11  23  42  67  97 134 169 214 268 332 390
#     4  11  23  40  66  94 127 171 219 268 325 385
#     4  10  21  39  65  92 127 168 217 262 322 389
#
# _framework density 20.263075000000001
#
# number of rings (size 3 to 8) (size 9 to 14) (size 15 to 20)
#    0.000    1.333    3.333    2.000    4.667    1.333 
#    0.000    8.333    0.000    0.000    0.000    0.000 
#    0.000    0.000    0.000    0.000    0.000    0.000 
#
# Total GULP energy -200420.894663 kJ/mol
# GULP energy per Si atom -5567.247074 kJ/mol
# Density = 2.021696 g / cm^3
# Si number density = 20.263075 Si / 1000 Ang^3
#
#
#
# Elastic Constant Matrix: (Units=GPa)
#
#
# Indices 1 2 3 4 5 6 
#
# 1 84.0405 30.8069 20.2214 0.0000 0.0000 0.0000
# 2 30.8069 84.0405 20.2214 0.0000 0.0000 0.0000
# 3 20.2214 20.2214 86.5883 0.0000 0.0000 0.0000
# 4 0.0000 0.0000 0.0000 12.8473 0.0000 0.0000
# 5 0.0000 0.0000 0.0000 0.0000 12.8473 0.0000
# 6 0.0000 0.0000 0.0000 0.0000 0.0000 26.6168
#
#
#
# Elastic Compliance Matrix: (Units=1/GPa)
#
#
# Indices 1 2 3 4 5 6 
#
# 1 0.014136 -0.004649 -0.002216 0.000000 0.000000 0.000000
# 2 -0.004649 0.014136 -0.002216 0.000000 0.000000 0.000000
# 3 -0.002216 -0.002216 0.012584 0.000000 0.000000 0.000000
# 4 0.000000 0.000000 0.000000 0.077837 0.000000 0.000000
# 5 0.000000 0.000000 0.000000 0.000000 0.077837 0.000000
# 6 0.000000 0.000000 0.000000 0.000000 0.000000 0.037570
#
#
# Mechanical properties :
#
#
# Convention : Reuss Voigt Hill
#
# Bulk Modulus (GPa) = 44.06056 44.12987 44.09521
# Shear Modulus (GPa) = 19.24359 22.69025 20.96692
#
# Velocity S-wave (km/s) = 3.08504 3.34995 3.22022
# Velocity P-wave (km/s) = 5.87209 6.06536 5.96951
#
# Compressibility (1/GPa) = 0.02269603
#
# Stress axis : x y z
#
# Youngs Moduli (GPa) = 70.73993 70.73993 79.46749
#
# Poissons Ratio (x) = 0.32886 0.17607
# Poissons Ratio (y) = 0.32886 0.17607
# Poissons Ratio (z) = 0.15673 0.15673
#
# Static dielectric constant tensor:
#      x y z
#    x 1.763450 0.000000 0.000000 
#    y 0.000000 1.763450 0.000000 
#    z 0.000000 0.000000 1.765550 
# 
# From -- ./inp_files/2627.got.cif
#   From: 2010.05.17/outbox.cif.g08.bks.cpg/sg172_2_cif.got.tgz:2627.got - 2010.05.20 11:19:57.
