data_PCOD9580714
_publ_section_title
;
Structure prediction by ZEFSAII (Michael W. Deem and Ramdas Pophale) SiO2 
 PCOD9580714
Probable space group: P 62
;
_chemical_formula_sum "Si O2"
_cell_formula_units_Z 42
_cell_length_a 8.768484
_cell_length_b 8.768484
_cell_length_c 28.573210
_cell_angle_alpha 90.000000
_cell_angle_beta 90.000000
_cell_angle_gamma 120.000000
_cell_volume 1902.561449
_symmetry_space_group_name_H-M "P 62"
_symmetry_group_IT_number 171
_symmetry_cell_setting 'hexagonal'
loop_
_space_group_symop_operation_xyz
x,y,z
x-y,x,1/3+z
-y,x-y,2/3+z
-x,-y,z
-x+y,-x,1/3+z
y,-x+y,2/3+z
loop_
_atom_site_type_symbol
_atom_site_label
_atom_site_fract_x
_atom_site_fract_y
_atom_site_fract_z
Si Si1 0.293522 0.243450 0.878970
Si Si2 0.673481 0.432816 0.658894
Si Si3 0.595755 0.305577 0.557625
Si Si4 0.695735 0.794639 0.682255
Si Si5 0.788178 0.652729 0.116692
Si Si6 0.500000 0.000000 0.053127
Si Si7 0.489352 0.744023 0.128520
Si Si8 0.000000 0.000000 0.274490
O O1 0.241836 0.391862 0.891398
O O2 0.495832 0.304658 0.891060
O O3 0.286911 0.222421 0.823006
O O4 0.165439 0.064720 0.906422
O O5 0.661593 0.430830 0.602777
O O6 0.673152 0.601991 0.680040
O O7 0.500941 0.246431 0.670868
O O8 0.844272 0.454695 0.683520
O O9 0.642924 0.421272 0.510734
O O10 0.740259 0.874583 0.733700
O O11 0.837393 0.900805 0.643072
O O12 0.644586 0.700331 0.135230
O O13 0.682049 0.439292 0.111085
O O14 0.441603 0.100358 0.090558
#
# Coordination Sequence:
#
# PCOD9580714 Si02
#       8
#     6   6   6   6   6   3   6   3
#     4  10  24  43  74  98 142 188 243 291 367 441
#     4  11  26  45  69 102 146 190 236 306 371 438
#     4  10  23  47  69 102 142 194 233 305 368 434
#     4  11  26  45  69  98 151 187 234 305 370 428
#     4  10  23  47  69 102 141 187 236 303 362 431
#     4  12  26  42  72 112 134 196 250 296 364 456
#     4  10  24  43  73 103 140 186 244 302 361 447
#     4  12  26  44  66 112 132 194 242 296 366 446
#
# _framework density 22.075503000000001
#
# number of rings (size 3 to 8) (size 9 to 14) (size 15 to 20)
#    0.000    1.429    2.857    0.000    8.000    5.143 
#    0.000    0.000    0.000    0.000    0.000    0.000 
#    0.000    0.000    0.000    0.000    0.000    0.000 
#
# Total GULP energy -234330.209970 kJ/mol
# GULP energy per Si atom -5579.290714 kJ/mol
# Density = 2.202526 g / cm^3
# Si number density = 22.075503 Si / 1000 Ang^3
#
#
#
# Elastic Constant Matrix: (Units=GPa)
#
#
# Indices 1 2 3 4 5 6 
#
# 1 67.6842 29.9170 42.0142 0.0000 0.0000 0.0000
# 2 29.9170 67.6842 42.0142 0.0000 0.0000 0.0000
# 3 42.0142 42.0142 138.0900 0.0000 0.0000 0.0000
# 4 0.0000 0.0000 0.0000 27.6176 0.0000 0.0000
# 5 0.0000 0.0000 0.0000 0.0000 27.6176 0.0000
# 6 0.0000 0.0000 0.0000 0.0000 0.0000 18.8836
#
#
#
# Elastic Compliance Matrix: (Units=1/GPa)
#
#
# Indices 1 2 3 4 5 6 
#
# 1 0.020180 -0.006298 -0.004224 0.000000 0.000000 0.000000
# 2 -0.006298 0.020180 -0.004224 0.000000 0.000000 0.000000
# 3 -0.004224 -0.004224 0.009812 0.000000 0.000000 0.000000
# 4 0.000000 0.000000 0.000000 0.036209 0.000000 0.000000
# 5 0.000000 0.000000 0.000000 0.000000 0.036209 0.000000
# 6 0.000000 0.000000 0.000000 0.000000 0.000000 0.052956
#
#
# Mechanical properties :
#
#
# Convention : Reuss Voigt Hill
#
# Bulk Modulus (GPa) = 48.35286 55.70546 52.02916
# Shear Modulus (GPa) = 23.59270 25.45795 24.52532
#
# Velocity S-wave (km/s) = 3.27269 3.39960 3.33674
# Velocity P-wave (km/s) = 6.01927 6.37954 6.20202
#
# Compressibility (1/GPa) = 0.02068130
#
# Stress axis : x y z
#
# Youngs Moduli (GPa) = 49.55385 49.55385 101.91843
#
# Poissons Ratio (x) = 0.31209 0.43047
# Poissons Ratio (y) = 0.31209 0.43047
# Poissons Ratio (z) = 0.20930 0.20930
#
# Static dielectric constant tensor:
#      x y z
#    x 1.853040 0.000000 0.000000 
#    y 0.000000 1.853040 0.000000 
#    z 0.000000 0.000000 1.826900 
# 
# From -- ./inp_files/6136.got.cif
#   From: 2010.05.17/outbox.cif.g08.bks.cpg/sg171_4_cif.got.tgz:6136.got - 2010.05.20 11:16:09.
