data_PCOD9580114
_publ_section_title
;
Structure prediction by ZEFSAII (Michael W. Deem and Ramdas Pophale) SiO2 
 PCOD9580114
Probable space group: P 61
;
_chemical_formula_sum "Si O2"
_cell_formula_units_Z 36
_cell_length_a 15.006628
_cell_length_b 15.006628
_cell_length_c 8.259135
_cell_angle_alpha 90.000000
_cell_angle_beta 90.000000
_cell_angle_gamma 120.000000
_cell_volume 1610.762204
_symmetry_space_group_name_H-M "P 61"
_symmetry_group_IT_number 169
_symmetry_cell_setting 'hexagonal'
loop_
_space_group_symop_operation_xyz
x,y,z
x-y,x,1/6+z
-y,x-y,1/3+z
-x,-y,1/2+z
-x+y,-x,2/3+z
y,-x+y,5/6+z
loop_
_atom_site_type_symbol
_atom_site_label
_atom_site_fract_x
_atom_site_fract_y
_atom_site_fract_z
Si Si1 0.453501 0.234464 0.410170
Si Si2 0.282123 0.873542 0.901394
Si Si3 0.427307 0.519671 0.410625
Si Si4 0.133229 0.582292 0.698288
Si Si5 0.885706 0.776555 0.210679
Si Si6 0.245463 0.344089 0.012752
O O1 0.459851 0.281284 0.233330
O O2 0.474772 0.142384 0.368013
O O3 0.541998 0.328717 0.511512
O O4 0.335494 0.190413 0.468531
O O5 0.361198 0.864856 0.783327
O O6 0.172898 0.826406 0.816906
O O7 0.319475 0.991996 0.923241
O O8 0.402543 0.519705 0.221485
O O9 0.491670 0.463523 0.453250
O O10 0.148591 0.686566 0.614479
O O11 0.844095 0.837793 0.098301
O O12 0.817318 0.737956 0.374506
#
# Coordination Sequence:
#
# PCOD9580114 Si02
#       6
#     6   6   6   6   6   6
#     4  12  27  45  74 107 148 191 247 308 375 450
#     4  11  25  44  70 102 143 190 244 303 375 447
#     4  11  25  45  70 102 144 192 239 295 371 444
#     4  11  24  45  72 104 147 188 243 302 368 452
#     4  12  28  51  77 111 149 200 254 318 385 452
#     4  11  23  46  73 102 141 191 241 304 376 445
#
# _framework density 22.349668999999999
#
# number of rings (size 3 to 8) (size 9 to 14) (size 15 to 20)
#    0.000    0.667    3.333    4.000   11.667    1.333 
#    3.000    0.000    0.000    0.000    0.000    0.000 
#    0.000    0.000    0.000    0.000    0.000    0.000 
#
# Total GULP energy -201163.993300 kJ/mol
# GULP energy per Si atom -5587.888703 kJ/mol
# Density = 2.229880 g / cm^3
# Si number density = 22.349669 Si / 1000 Ang^3
#
#
#
# Elastic Constant Matrix: (Units=GPa)
#
#
# Indices 1 2 3 4 5 6 
#
# 1 71.1191 45.5793 2.9797 0.0000 0.0000 0.0000
# 2 45.5793 71.1191 2.9797 0.0000 0.0000 0.0000
# 3 2.9797 2.9797 45.0032 0.0000 0.0000 0.0000
# 4 0.0000 0.0000 0.0000 33.9087 0.0000 0.0000
# 5 0.0000 0.0000 0.0000 0.0000 33.9087 0.0000
# 6 0.0000 0.0000 0.0000 0.0000 0.0000 12.7699
#
#
#
# Elastic Compliance Matrix: (Units=1/GPa)
#
#
# Indices 1 2 3 4 5 6 
#
# 1 0.023876 -0.015278 -0.000569 0.000000 0.000000 0.000000
# 2 -0.015278 0.023876 -0.000569 0.000000 0.000000 0.000000
# 3 -0.000569 -0.000569 0.022296 0.000000 0.000000 0.000000
# 4 0.000000 0.000000 0.000000 0.029491 0.000000 0.000000
# 5 0.000000 0.000000 0.000000 0.000000 0.029491 0.000000
# 6 0.000000 0.000000 0.000000 0.000000 0.000000 0.078309
#
#
# Mechanical properties :
#
#
# Convention : Reuss Voigt Hill
#
# Bulk Modulus (GPa) = 26.87074 32.25765 29.56419
# Shear Modulus (GPa) = 19.79582 25.16431 22.48007
#
# Velocity S-wave (km/s) = 2.97935 3.35914 3.17493
# Velocity P-wave (km/s) = 4.88717 5.43227 5.16691
#
# Compressibility (1/GPa) = 0.03721520
#
# Stress axis : x y z
#
# Youngs Moduli (GPa) = 41.88238 41.88238 44.85104
#
# Poissons Ratio (x) = 0.63989 0.02553
# Poissons Ratio (y) = 0.63989 0.02553
# Poissons Ratio (z) = 0.02384 0.02384
#
# Static dielectric constant tensor:
#      x y z
#    x 1.850340 0.000000 0.000000 
#    y 0.000000 1.850340 0.000000 
#    z 0.000000 0.000000 1.817640 
# 
# From -- ./inp_files/628.got.cif
#   From: 2010.05.17/outbox.cif.g08.bks.cpg/sg169_cif.got.tgz:628.got - 2010.05.20 11:12:54.
