data_PCOD9580599
_publ_section_title
;
Structure prediction by ZEFSAII (Michael W. Deem and Ramdas Pophale) SiO2 
 PCOD9580599
Probable space group: P 62
;
_chemical_formula_sum "Si O2"
_cell_formula_units_Z 39
_cell_length_a 8.775527
_cell_length_b 8.775527
_cell_length_c 28.426178
_cell_angle_alpha 90.000000
_cell_angle_beta 90.000000
_cell_angle_gamma 120.000000
_cell_volume 1895.813085
_symmetry_space_group_name_H-M "P 62"
_symmetry_group_IT_number 171
_symmetry_cell_setting 'hexagonal'
loop_
_space_group_symop_operation_xyz
x,y,z
x-y,x,1/3+z
-y,x-y,2/3+z
-x,-y,z
-x+y,-x,1/3+z
y,-x+y,2/3+z
loop_
_atom_site_type_symbol
_atom_site_label
_atom_site_fract_x
_atom_site_fract_y
_atom_site_fract_z
Si Si1 0.456938 0.654483 0.345560
Si Si2 0.773812 0.710840 0.787705
Si Si3 0.500000 0.500000 0.174579
Si Si4 0.880533 0.793480 0.215361
Si Si5 0.997941 0.823822 0.699750
Si Si6 0.135623 0.434558 0.302107
Si Si7 0.686595 0.265440 0.438252
O O1 0.500000 0.500000 0.358037
O O2 0.143206 0.326132 0.347033
O O3 0.334980 0.598001 0.300254
O O4 0.352400 0.677481 0.388254
O O5 0.800438 0.817026 0.834727
O O6 0.944793 0.779695 0.754674
O O7 0.619933 0.729239 0.761573
O O8 0.686696 0.503507 0.796851
O O9 0.666870 0.667158 0.202284
O O10 0.593237 0.425829 0.139276
O O11 0.903948 0.682730 0.256461
O O12 0.000000 0.000000 0.230905
O O13 0.839847 0.654105 0.673762
O O14 0.000000 0.000000 0.688776
O O15 0.000000 0.500000 0.308852
#
# Coordination Sequence:
#
# PCOD9580599 Si02
#       7
#     6   6   3   6   6   6   6
#     4   9  21  38  60  94 134 173 220 289 342 415
#     4   9  20  39  68  95 140 176 228 296 345 427
#     4  10  24  38  74  96 136 182 236 296 348 436
#     4  11  25  46  68  97 136 189 234 288 361 433
#     4  10  21  40  67  98 130 177 229 294 345 414
#     4  11  26  42  66  94 139 187 227 287 367 438
#     4   9  19  36  62 104 131 173 227 288 362 401
#
# _framework density 20.571646000000001
#
# number of rings (size 3 to 8) (size 9 to 14) (size 15 to 20)
#    0.000    2.154    0.000    0.923   10.769    7.385 
#    0.000    0.000    0.000    0.000    0.000    0.000 
#    0.000    0.000    0.000    0.000    0.000    0.000 
#
# Total GULP energy -217108.691310 kJ/mol
# GULP energy per Si atom -5566.889521 kJ/mol
# Density = 2.052482 g / cm^3
# Si number density = 20.571646 Si / 1000 Ang^3
#
#
#
# Elastic Constant Matrix: (Units=GPa)
#
#
# Indices 1 2 3 4 5 6 
#
# 1 113.1948 65.0342 54.1807 0.0000 0.0000 0.0000
# 2 65.0342 113.1948 54.1807 0.0000 0.0000 0.0000
# 3 54.1807 54.1807 64.0892 0.0000 0.0000 0.0000
# 4 0.0000 0.0000 0.0000 23.7820 0.0000 0.0000
# 5 0.0000 0.0000 0.0000 0.0000 23.7820 0.0000
# 6 0.0000 0.0000 0.0000 0.0000 0.0000 24.0803
#
#
#
# Elastic Compliance Matrix: (Units=1/GPa)
#
#
# Indices 1 2 3 4 5 6 
#
# 1 0.016154 -0.004610 -0.009760 0.000000 0.000000 0.000000
# 2 -0.004610 0.016154 -0.009760 0.000000 0.000000 0.000000
# 3 -0.009760 -0.009760 0.032105 0.000000 0.000000 0.000000
# 4 0.000000 0.000000 0.000000 0.042049 0.000000 0.000000
# 5 0.000000 0.000000 0.000000 0.000000 0.042049 0.000000
# 6 0.000000 0.000000 0.000000 0.000000 0.000000 0.041528
#
#
# Mechanical properties :
#
#
# Convention : Reuss Voigt Hill
#
# Bulk Modulus (GPa) = 61.89981 70.80780 66.35380
# Shear Modulus (GPa) = 20.51857 22.13439 21.32648
#
# Velocity S-wave (km/s) = 3.16162 3.28375 3.22326
# Velocity P-wave (km/s) = 6.59416 6.99086 6.79541
#
# Compressibility (1/GPa) = 0.01615514
#
# Stress axis : x y z
#
# Youngs Moduli (GPa) = 61.90333 61.90333 31.14789
#
# Poissons Ratio (x) = 0.28535 0.30399
# Poissons Ratio (y) = 0.28535 0.30399
# Poissons Ratio (z) = 0.60416 0.60416
#
# Static dielectric constant tensor:
#      x y z
#    x 1.827460 0.000000 0.000000 
#    y 0.000000 1.827460 0.000000 
#    z 0.000000 0.000000 1.730160 
# 
# From -- ./inp_files/6072.got.cif
#   From: 2010.05.17/outbox.cif.g08.bks.cpg/sg171_4_cif.got.tgz:6072.got - 2010.05.20 11:16:09.
