data_PCOD9580224
_publ_section_title
;
Structure prediction by ZEFSAII (Michael W. Deem and Ramdas Pophale) SiO2 
 PCOD9580224
Probable space group: P 65
;
_chemical_formula_sum "Si O2"
_cell_formula_units_Z 42
_cell_length_a 11.273516
_cell_length_b 11.273516
_cell_length_c 17.219486
_cell_angle_alpha 90.000000
_cell_angle_beta 90.000000
_cell_angle_gamma 120.000000
_cell_volume 1895.263446
_symmetry_space_group_name_H-M "P 65"
_symmetry_group_IT_number 170
_symmetry_cell_setting 'hexagonal'
loop_
_space_group_symop_operation_xyz
x,y,z
x-y,x,5/6+z
-y,x-y,2/3+z
-x,-y,1/2+z
-x+y,-x,1/3+z
y,-x+y,1/6+z
loop_
_atom_site_type_symbol
_atom_site_label
_atom_site_fract_x
_atom_site_fract_y
_atom_site_fract_z
Si Si1 0.771635 0.601771 0.388670
Si Si2 0.447854 0.606682 0.442864
Si Si3 0.394600 0.830628 0.795420
Si Si4 0.633263 0.132127 0.129088
Si Si5 0.443965 0.965139 0.955149
Si Si6 0.911980 0.015099 0.778568
Si Si7 0.152321 0.380972 0.145529
O O1 0.867999 0.572929 0.331609
O O2 0.658782 0.471843 0.439602
O O3 0.669937 0.613443 0.326662
O O4 0.865768 0.736810 0.438217
O O5 0.329015 0.626181 0.477929
O O6 0.425934 0.456869 0.451845
O O7 0.458448 0.621147 0.349367
O O8 0.328853 0.849032 0.718202
O O9 0.540413 0.844986 0.776657
O O10 0.400897 0.919193 0.867994
O O11 0.757465 0.183542 0.069532
O O12 0.611183 0.056093 0.955417
O O13 0.957910 0.004290 0.690023
O O14 0.777287 0.867773 0.795084
#
# Coordination Sequence:
#
# PCOD9580224 Si02
#       7
#     6   6   6   6   6   6   6
#     4  10  20  43  62  92 126 164 222 280 319 392
#     4  10  20  36  58  87 125 161 214 278 329 395
#     4  12  20  35  61  90 124 170 212 264 346 402
#     4  10  23  38  60  93 128 166 215 275 333 396
#     4  10  23  38  59  93 133 170 214 281 342 400
#     4  12  25  44  72  97 128 177 231 272 321 399
#     4  10  21  42  60  92 128 170 226 274 322 402
#
# _framework density 22.160509999999999
#
# number of rings (size 3 to 8) (size 9 to 14) (size 15 to 20)
#    0.000    1.714    2.857    5.143    0.000    3.429 
#    0.000    4.286    0.000    0.000    0.000    0.000 
#    0.000    0.000    0.000    0.000    0.000    0.000 
#
# Total GULP energy -234122.343749 kJ/mol
# GULP energy per Si atom -5574.341518 kJ/mol
# Density = 2.211007 g / cm^3
# Si number density = 22.160510 Si / 1000 Ang^3
#
#
#
# Elastic Constant Matrix: (Units=GPa)
#
#
# Indices 1 2 3 4 5 6 
#
# 1 31.1256 20.1716 21.9259 0.0000 0.0000 0.0000
# 2 20.1716 31.1256 21.9259 0.0000 0.0000 0.0000
# 3 21.9259 21.9259 178.4230 0.0000 0.0000 0.0000
# 4 0.0000 0.0000 0.0000 19.6619 0.0000 0.0000
# 5 0.0000 0.0000 0.0000 0.0000 19.6619 0.0000
# 6 0.0000 0.0000 0.0000 0.0000 0.0000 5.4770
#
#
#
# Elastic Compliance Matrix: (Units=1/GPa)
#
#
# Indices 1 2 3 4 5 6 
#
# 1 0.056537 -0.034754 -0.002677 0.000000 0.000000 0.000000
# 2 -0.034754 0.056537 -0.002677 0.000000 0.000000 0.000000
# 3 -0.002677 -0.002677 0.006263 0.000000 0.000000 0.000000
# 4 0.000000 0.000000 0.000000 0.050860 0.000000 0.000000
# 5 0.000000 0.000000 0.000000 0.000000 0.050860 0.000000
# 6 0.000000 0.000000 0.000000 0.000000 0.000000 0.182582
#
#
# Mechanical properties :
#
#
# Convention : Reuss Voigt Hill
#
# Bulk Modulus (GPa) = 25.56210 40.96902 33.26556
# Shear Modulus (GPa) = 10.06253 20.73686 15.39969
#
# Velocity S-wave (km/s) = 2.13321 3.06233 2.63899
# Velocity P-wave (km/s) = 4.19851 5.57058 4.93249
#
# Compressibility (1/GPa) = 0.03912042
#
# Stress axis : x y z
#
# Youngs Moduli (GPa) = 17.68763 17.68763 159.67940
#
# Poissons Ratio (x) = 0.61472 0.42743
# Poissons Ratio (y) = 0.61472 0.42743
# Poissons Ratio (z) = 0.04735 0.04735
#
# Static dielectric constant tensor:
#      x y z
#    x 1.906830 0.000000 0.000000 
#    y 0.000000 1.906830 0.000000 
#    z 0.000000 0.000000 1.933160 
# 
# From -- ./inp_files/1420.got.cif
#   From: 2010.05.17/outbox.cif.g08.bks.cpg/sg170_cif.got.tgz:1420.got - 2010.05.20 11:14:30.
