data_PCOD9580287
_publ_section_title
;
Structure prediction by ZEFSAII (Michael W. Deem and Ramdas Pophale) SiO2 
 PCOD9580287
Probable space group: P 65
;
_chemical_formula_sum "Si O2"
_cell_formula_units_Z 48
_cell_length_a 17.534209
_cell_length_b 17.534209
_cell_length_c 8.172297
_cell_angle_alpha 90.000000
_cell_angle_beta 90.000000
_cell_angle_gamma 120.000000
_cell_volume 2175.941078
_symmetry_space_group_name_H-M "P 65"
_symmetry_group_IT_number 170
_symmetry_cell_setting 'hexagonal'
loop_
_space_group_symop_operation_xyz
x,y,z
x-y,x,5/6+z
-y,x-y,2/3+z
-x,-y,1/2+z
-x+y,-x,1/3+z
y,-x+y,1/6+z
loop_
_atom_site_type_symbol
_atom_site_label
_atom_site_fract_x
_atom_site_fract_y
_atom_site_fract_z
Si Si1 0.428003 0.413465 0.280070
Si Si2 0.612208 0.079122 0.578038
Si Si3 0.729550 0.366298 0.240961
Si Si4 0.279879 0.430672 0.429712
Si Si5 0.126607 0.957856 0.471085
Si Si6 0.171947 0.048490 0.960106
Si Si7 0.908160 0.661974 0.788268
Si Si8 0.290381 0.331984 0.718116
O O1 0.488206 0.513074 0.339257
O O2 0.332085 0.403326 0.301857
O O3 0.422184 0.338555 0.401482
O O4 0.451921 0.396382 0.102268
O O5 0.651751 0.184983 0.560911
O O6 0.657951 0.031178 0.486197
O O7 0.662188 0.344932 0.087877
O O8 0.777627 0.308659 0.229246
O O9 0.178866 0.369705 0.390436
O O10 0.304247 0.417267 0.616322
O O11 0.081673 0.927072 0.296498
O O12 0.198826 0.926410 0.473359
O O13 0.060965 0.903536 0.619886
O O14 0.158596 0.102342 0.813279
O O15 0.274369 0.074764 0.975501
O O16 0.989425 0.722195 0.903200
#
# Coordination Sequence:
#
# PCOD9580287 Si02
#       8
#     6   6   6   6   6   6   6   6
#     4  10  23  42  70  99 137 180 231 289 364 438
#     4  11  24  46  72 104 138 187 239 298 368 448
#     4  11  26  48  69 106 150 190 245 302 382 459
#     4  10  23  44  66 105 138 185 238 293 371 446
#     4  10  22  41  59  89 134 175 230 283 345 420
#     4  10  23  42  62  97 138 185 236 292 355 424
#     4  11  22  40  68  97 133 177 229 294 346 424
#     4  11  23  43  72  97 140 179 244 295 355 439
#
# _framework density 22.059421
#
# number of rings (size 3 to 8) (size 9 to 14) (size 15 to 20)
#    0.000    1.500    0.000    5.250    7.000    1.000 
#   18.000    0.000    0.000    0.000    0.000    0.000 
#    0.000    0.000    0.000    0.000    0.000    0.000 
#
# Total GULP energy -267465.754084 kJ/mol
# GULP energy per Si atom -5572.203210 kJ/mol
# Density = 2.200921 g / cm^3
# Si number density = 22.059421 Si / 1000 Ang^3
#
#
#
# Elastic Constant Matrix: (Units=GPa)
#
#
# Indices 1 2 3 4 5 6 
#
# 1 69.5736 16.9979 20.1340 0.0000 0.0000 0.0000
# 2 16.9979 69.5736 20.1340 0.0000 0.0000 0.0000
# 3 20.1340 20.1340 97.2469 0.0000 0.0000 0.0000
# 4 0.0000 0.0000 0.0000 19.7457 0.0000 0.0000
# 5 0.0000 0.0000 0.0000 0.0000 19.7457 0.0000
# 6 0.0000 0.0000 0.0000 0.0000 0.0000 26.2878
#
#
#
# Elastic Compliance Matrix: (Units=1/GPa)
#
#
# Indices 1 2 3 4 5 6 
#
# 1 0.015901 -0.003119 -0.002646 0.000000 0.000000 0.000000
# 2 -0.003119 0.015901 -0.002646 0.000000 0.000000 0.000000
# 3 -0.002646 -0.002646 0.011379 0.000000 0.000000 0.000000
# 4 0.000000 0.000000 0.000000 0.050644 0.000000 0.000000
# 5 0.000000 0.000000 0.000000 0.000000 0.050644 0.000000
# 6 0.000000 0.000000 0.000000 0.000000 0.000000 0.038040
#
#
# Mechanical properties :
#
#
# Convention : Reuss Voigt Hill
#
# Bulk Modulus (GPa) = 37.93984 38.99174 38.46579
# Shear Modulus (GPa) = 24.02473 25.09774 24.56123
#
# Velocity S-wave (km/s) = 3.30372 3.37669 3.34040
# Velocity P-wave (km/s) = 5.63817 5.73732 5.68796
#
# Compressibility (1/GPa) = 0.02635752
#
# Stress axis : x y z
#
# Youngs Moduli (GPa) = 62.88853 62.88853 87.88173
#
# Poissons Ratio (x) = 0.19615 0.23257
# Poissons Ratio (y) = 0.19615 0.23257
# Poissons Ratio (z) = 0.16643 0.16643
#
# Static dielectric constant tensor:
#      x y z
#    x 1.892160 0.000000 0.000000 
#    y 0.000000 1.892160 0.000000 
#    z 0.000000 0.000000 1.825570 
# 
# From -- ./inp_files/759.got.cif
#   From: 2010.05.17/outbox.cif.g08.bks.cpg/sg170_cif.got.tgz:759.got - 2010.05.20 11:14:30.
