data_PCOD9580331
_publ_section_title
;
Structure prediction by ZEFSAII (Michael W. Deem and Ramdas Pophale) SiO2 
 PCOD9580331
Probable space group: P 65
;
_chemical_formula_sum "Si O2"
_cell_formula_units_Z 36
_cell_length_a 15.552278
_cell_length_b 15.552278
_cell_length_c 7.436032
_cell_angle_alpha 90.000000
_cell_angle_beta 90.000000
_cell_angle_gamma 120.000000
_cell_volume 1557.614220
_symmetry_space_group_name_H-M "P 65"
_symmetry_group_IT_number 170
_symmetry_cell_setting 'hexagonal'
loop_
_space_group_symop_operation_xyz
x,y,z
x-y,x,5/6+z
-y,x-y,2/3+z
-x,-y,1/2+z
-x+y,-x,1/3+z
y,-x+y,1/6+z
loop_
_atom_site_type_symbol
_atom_site_label
_atom_site_fract_x
_atom_site_fract_y
_atom_site_fract_z
Si Si1 0.094465 0.759212 0.137000
Si Si2 0.957846 0.705948 0.452348
Si Si3 0.102779 0.626505 0.585683
Si Si4 0.068137 0.545828 0.223529
Si Si5 0.018565 0.825981 0.813899
Si Si6 0.682769 0.267266 0.988038
O O1 0.017369 0.766206 0.274752
O O2 0.078560 0.649250 0.157739
O O3 0.201172 0.844849 0.212806
O O4 0.068590 0.776088 0.935536
O O5 0.026080 0.659970 0.516228
O O6 0.966103 0.767974 0.630136
O O7 0.106165 0.558744 0.426445
O O8 0.215778 0.711817 0.589268
O O9 0.042437 0.546238 0.735108
O O10 0.150438 0.533919 0.116154
O O11 0.105178 0.933940 0.761993
O O12 0.700012 0.326306 0.800281
#
# Coordination Sequence:
#
# PCOD9580331 Si02
#       6
#     6   6   6   6   6   6
#     4  11  24  45  67 103 141 184 235 293 350 427
#     4  11  24  43  71  95 145 181 235 287 351 421
#     4  10  25  44  68 102 136 188 226 290 349 421
#     4  10  25  43  69 104 139 185 233 286 354 420
#     4  12  26  43  71 105 132 189 234 294 364 433
#     4  10  24  44  68 101 139 179 231 280 346 414
#
# _framework density 23.112271
#
# number of rings (size 3 to 8) (size 9 to 14) (size 15 to 20)
#    0.000    1.333    3.333    0.000   11.667    2.667 
#    3.000    0.000    0.000    0.000    0.000    0.000 
#    0.000    0.000    0.000    0.000    0.000    0.000 
#
# Total GULP energy -200699.414310 kJ/mol
# GULP energy per Si atom -5574.983731 kJ/mol
# Density = 2.305967 g / cm^3
# Si number density = 23.112271 Si / 1000 Ang^3
#
#
#
# Elastic Constant Matrix: (Units=GPa)
#
#
# Indices 1 2 3 4 5 6 
#
# 1 82.9809 39.9648 20.2719 0.0000 0.0000 0.0000
# 2 39.9648 82.9809 20.2719 0.0000 0.0000 0.0000
# 3 20.2719 20.2719 68.7330 0.0000 0.0000 0.0000
# 4 0.0000 0.0000 0.0000 29.0158 0.0000 0.0000
# 5 0.0000 0.0000 0.0000 0.0000 29.0158 0.0000
# 6 0.0000 0.0000 0.0000 0.0000 0.0000 21.5081
#
#
#
# Elastic Compliance Matrix: (Units=1/GPa)
#
#
# Indices 1 2 3 4 5 6 
#
# 1 0.016129 -0.007119 -0.002657 0.000000 0.000000 0.000000
# 2 -0.007119 0.016129 -0.002657 0.000000 0.000000 0.000000
# 3 -0.002657 -0.002657 0.016117 0.000000 0.000000 0.000000
# 4 0.000000 0.000000 0.000000 0.034464 0.000000 0.000000
# 5 0.000000 0.000000 0.000000 0.000000 0.034464 0.000000
# 6 0.000000 0.000000 0.000000 0.000000 0.000000 0.046494
#
#
# Mechanical properties :
#
#
# Convention : Reuss Voigt Hill
#
# Bulk Modulus (GPa) = 42.54044 43.96799 43.25421
# Shear Modulus (GPa) = 25.44556 26.18704 25.81630
#
# Velocity S-wave (km/s) = 3.32166 3.36971 3.34577
# Velocity P-wave (km/s) = 5.75823 5.84850 5.80354
#
# Compressibility (1/GPa) = 0.02350704
#
# Stress axis : x y z
#
# Youngs Moduli (GPa) = 62.00190 62.00190 62.04796
#
# Poissons Ratio (x) = 0.44136 0.16488
# Poissons Ratio (y) = 0.44136 0.16488
# Poissons Ratio (z) = 0.16476 0.16476
#
# Static dielectric constant tensor:
#      x y z
#    x 1.956780 0.000000 0.000000 
#    y 0.000000 1.956780 0.000000 
#    z 0.000000 0.000000 1.962850 
# 
# From -- ./inp_files/600.got.cif
#   From: 2010.05.17/outbox.cif.g08.bks.cpg/sg170_cif.got.tgz:600.got - 2010.05.20 11:14:30.
