data_PCOD9580018
_publ_section_title
;
Structure prediction by ZEFSAII (Michael W. Deem and Ramdas Pophale) SiO2 
 PCOD9580018
Probable space group: P 61
;
_chemical_formula_sum "Si O2"
_cell_formula_units_Z 42
_cell_length_a 9.352464
_cell_length_b 9.352464
_cell_length_c 24.957292
_cell_angle_alpha 90.000000
_cell_angle_beta 90.000000
_cell_angle_gamma 120.000000
_cell_volume 1890.515238
_symmetry_space_group_name_H-M "P 61"
_symmetry_group_IT_number 169
_symmetry_cell_setting 'hexagonal'
loop_
_space_group_symop_operation_xyz
x,y,z
x-y,x,1/6+z
-y,x-y,1/3+z
-x,-y,1/2+z
-x+y,-x,2/3+z
y,-x+y,5/6+z
loop_
_atom_site_type_symbol
_atom_site_label
_atom_site_fract_x
_atom_site_fract_y
_atom_site_fract_z
Si Si1 0.342485 0.376184 0.194470
Si Si2 0.088825 0.005800 0.464781
Si Si3 0.468943 0.305600 0.622739
Si Si4 0.557092 0.030734 0.648959
Si Si5 0.754890 0.266527 0.201359
Si Si6 0.705500 0.743582 0.467200
Si Si7 0.992512 0.182721 0.536209
O O1 0.464024 0.526441 0.156747
O O2 0.410991 0.410207 0.254375
O O3 0.163832 0.358363 0.184438
O O4 0.294528 0.190115 0.177561
O O5 0.216772 0.944586 0.454935
O O6 0.900751 0.860294 0.457619
O O7 0.146909 0.174668 0.431971
O O8 0.078949 0.074752 0.522856
O O9 0.571946 0.355447 0.566991
O O10 0.505688 0.170596 0.649972
O O11 0.417477 0.857632 0.673522
O O12 0.718439 0.087962 0.685215
O O13 0.760919 0.147119 0.248376
O O14 0.890005 0.319045 0.154391
#
# Coordination Sequence:
#
# PCOD9580018 Si02
#       7
#     6   6   6   6   6   6   6
#     4  10  24  45  72  96 140 190 237 285 366 429
#     4  11  23  43  73 100 131 183 244 291 334 431
#     4  11  27  44  69 109 139 181 246 293 358 430
#     4  12  25  44  69 105 145 183 229 309 362 429
#     4  11  25  43  72 104 151 187 242 298 375 431
#     4  10  22  45  71 102 135 197 244 292 358 453
#     4  11  24  46  70  98 139 183 234 286 361 425
#
# _framework density 22.216163000000002
#
# number of rings (size 3 to 8) (size 9 to 14) (size 15 to 20)
#    0.000    1.143    2.857    2.571    8.000    2.286 
#    0.000    0.000    0.000    0.000    0.000    0.000 
#    0.000    0.000    0.000    0.000    0.000    0.000 
#
# Total GULP energy -234249.875977 kJ/mol
# GULP energy per Si atom -5577.377999 kJ/mol
# Density = 2.216560 g / cm^3
# Si number density = 22.216163 Si / 1000 Ang^3
#
#
#
# Elastic Constant Matrix: (Units=GPa)
#
#
# Indices 1 2 3 4 5 6 
#
# 1 105.1568 39.6391 11.5653 0.0000 0.0000 0.0000
# 2 39.6391 105.1568 11.5653 0.0000 0.0000 0.0000
# 3 11.5653 11.5653 47.0359 0.0000 0.0000 0.0000
# 4 0.0000 0.0000 0.0000 33.0866 0.0000 0.0000
# 5 0.0000 0.0000 0.0000 0.0000 33.0866 0.0000
# 6 0.0000 0.0000 0.0000 0.0000 0.0000 32.7589
#
#
#
# Elastic Compliance Matrix: (Units=1/GPa)
#
#
# Indices 1 2 3 4 5 6 
#
# 1 0.011226 -0.004037 -0.001768 0.000000 0.000000 0.000000
# 2 -0.004037 0.011226 -0.001768 0.000000 0.000000 0.000000
# 3 -0.001768 -0.001768 0.022130 0.000000 0.000000 0.000000
# 4 0.000000 0.000000 0.000000 0.030224 0.000000 0.000000
# 5 0.000000 0.000000 0.000000 0.000000 0.030224 0.000000
# 6 0.000000 0.000000 0.000000 0.000000 0.000000 0.030526
#
#
# Mechanical properties :
#
#
# Convention : Reuss Voigt Hill
#
# Bulk Modulus (GPa) = 33.97129 42.54321 38.25725
# Shear Modulus (GPa) = 31.15040 32.75842 31.95441
#
# Velocity S-wave (km/s) = 3.74859 3.84413 3.79666
# Velocity P-wave (km/s) = 5.83613 6.23653 6.03965
#
# Compressibility (1/GPa) = 0.02943663
#
# Stress axis : x y z
#
# Youngs Moduli (GPa) = 89.08023 89.08023 45.18836
#
# Poissons Ratio (x) = 0.35964 0.07987
# Poissons Ratio (y) = 0.35964 0.07987
# Poissons Ratio (z) = 0.15745 0.15745
#
# Static dielectric constant tensor:
#      x y z
#    x 1.820260 0.000000 0.000000 
#    y 0.000000 1.820260 0.000000 
#    z 0.000000 0.000000 1.813560 
# 
# From -- ./inp_files/1887.got.cif
#   From: 2010.05.17/outbox.cif.g08.bks.cpg/sg169_cif.got.tgz:1887.got - 2010.05.20 11:12:54.
