data_PCOD9580328
_publ_section_title
;
Structure prediction by ZEFSAII (Michael W. Deem and Ramdas Pophale) SiO2 
 PCOD9580328
Probable space group: P 65
;
_chemical_formula_sum "Si O2"
_cell_formula_units_Z 30
_cell_length_a 6.981777
_cell_length_b 6.981777
_cell_length_c 28.103835
_cell_angle_alpha 90.000000
_cell_angle_beta 90.000000
_cell_angle_gamma 120.000000
_cell_volume 1186.391879
_symmetry_space_group_name_H-M "P 65"
_symmetry_group_IT_number 170
_symmetry_cell_setting 'hexagonal'
loop_
_space_group_symop_operation_xyz
x,y,z
x-y,x,5/6+z
-y,x-y,2/3+z
-x,-y,1/2+z
-x+y,-x,1/3+z
y,-x+y,1/6+z
loop_
_atom_site_type_symbol
_atom_site_label
_atom_site_fract_x
_atom_site_fract_y
_atom_site_fract_z
Si Si1 0.209947 0.360244 0.688760
Si Si2 0.028399 0.243767 0.097978
Si Si3 0.259625 0.057682 0.164688
Si Si4 0.487742 0.698423 0.259630
Si Si5 0.007925 0.464478 0.254417
O O1 0.332426 0.264026 0.720738
O O2 0.314645 0.453373 0.637230
O O3 0.171882 0.530238 0.720868
O O4 0.967062 0.163112 0.676572
O O5 0.140353 0.330917 0.047018
O O6 0.960965 0.419130 0.117230
O O7 0.782028 0.026542 0.091609
O O8 0.180809 0.187040 0.129312
O O9 0.431953 0.005820 0.138220
O O10 0.256667 0.639917 0.235695
#
# Coordination Sequence:
#
# PCOD9580328 Si02
#       5
#     6   6   6   6   6
#     4  12  21  45  66  97 137 174 227 289 332 414
#     4  10  24  41  67  96 135 178 231 275 347 410
#     4  12  21  45  66  97 137 174 227 289 332 414
#     4  10  24  41  67  96 135 178 231 275 347 410
#     4  10  24  40  68  96 136 178 220 286 344 390
#
# _framework density 25.286757999999999
#
# number of rings (size 3 to 8) (size 9 to 14) (size 15 to 20)
#    1.200    0.000    4.000    2.400    0.000    1.600 
#    0.000    0.000    0.000    0.000    0.000    0.000 
#    0.000    0.000    0.000    0.000    0.000    0.000 
#
# Total GULP energy -167691.427966 kJ/mol
# GULP energy per Si atom -5589.714266 kJ/mol
# Density = 2.522920 g / cm^3
# Si number density = 25.286758 Si / 1000 Ang^3
#
#
#
# Elastic Constant Matrix: (Units=GPa)
#
#
# Indices 1 2 3 4 5 6 
#
# 1 83.5529 24.2346 33.8176 0.0000 0.0000 0.0000
# 2 24.2346 83.5529 33.8176 0.0000 0.0000 0.0000
# 3 33.8176 33.8176 132.3595 0.0000 0.0000 0.0000
# 4 0.0000 0.0000 0.0000 28.8062 0.0000 0.0000
# 5 0.0000 0.0000 0.0000 0.0000 28.8062 0.0000
# 6 0.0000 0.0000 0.0000 0.0000 0.0000 29.6592
#
#
#
# Elastic Compliance Matrix: (Units=1/GPa)
#
#
# Indices 1 2 3 4 5 6 
#
# 1 0.013954 -0.002905 -0.002823 0.000000 0.000000 0.000000
# 2 -0.002905 0.013954 -0.002823 0.000000 0.000000 0.000000
# 3 -0.002823 -0.002823 0.008998 0.000000 0.000000 0.000000
# 4 0.000000 0.000000 0.000000 0.034715 0.000000 0.000000
# 5 0.000000 0.000000 0.000000 0.000000 0.034715 0.000000
# 6 0.000000 0.000000 0.000000 0.000000 0.000000 0.033716
#
#
# Mechanical properties :
#
#
# Convention : Reuss Voigt Hill
#
# Bulk Modulus (GPa) = 50.49584 53.68941 52.09263
# Shear Modulus (GPa) = 30.53377 31.29401 30.91389
#
# Velocity S-wave (km/s) = 3.47868 3.52172 3.50027
# Velocity P-wave (km/s) = 6.01229 6.14939 6.08123
#
# Compressibility (1/GPa) = 0.01980361
#
# Stress axis : x y z
#
# Youngs Moduli (GPa) = 71.66642 71.66642 111.13944
#
# Poissons Ratio (x) = 0.20817 0.31374
# Poissons Ratio (y) = 0.20817 0.31374
# Poissons Ratio (z) = 0.20231 0.20231
#
# Static dielectric constant tensor:
#      x y z
#    x 2.035470 0.000000 0.000000 
#    y 0.000000 2.035470 0.000000 
#    z 0.000000 0.000000 1.961640 
# 
# From -- ./inp_files/1639.got.cif
#   From: 2010.05.17/outbox.cif.g08.bks.cpg/sg170_cif.got.tgz:1639.got - 2010.05.20 11:14:30.
