data_PCOD9580212
_publ_section_title
;
Structure prediction by ZEFSAII (Michael W. Deem and Ramdas Pophale) SiO2 
 PCOD9580212
Probable space group: P 65
;
_chemical_formula_sum "Si O2"
_cell_formula_units_Z 30
_cell_length_a 14.306476
_cell_length_b 14.306476
_cell_length_c 7.619998
_cell_angle_alpha 90.000000
_cell_angle_beta 90.000000
_cell_angle_gamma 120.000000
_cell_volume 1350.674903
_symmetry_space_group_name_H-M "P 65"
_symmetry_group_IT_number 170
_symmetry_cell_setting 'hexagonal'
loop_
_space_group_symop_operation_xyz
x,y,z
x-y,x,5/6+z
-y,x-y,2/3+z
-x,-y,1/2+z
-x+y,-x,1/3+z
y,-x+y,1/6+z
loop_
_atom_site_type_symbol
_atom_site_label
_atom_site_fract_x
_atom_site_fract_y
_atom_site_fract_z
Si Si1 0.269052 0.812254 0.431320
Si Si2 0.567234 0.442713 0.543524
Si Si3 0.438996 0.360119 0.893320
Si Si4 0.079149 0.219253 0.193298
Si Si5 0.805376 0.997077 0.509162
O O1 0.171410 0.691296 0.426631
O O2 0.363349 0.814523 0.548426
O O3 0.300125 0.848053 0.229348
O O4 0.234699 0.891607 0.526893
O O5 0.527384 0.522234 0.470424
O O6 0.869578 0.492170 0.051790
O O7 0.313854 0.291934 0.833606
O O8 0.137902 0.185321 0.337085
O O9 0.139414 0.212065 0.018328
O O10 0.807789 0.916709 0.366197
#
# Coordination Sequence:
#
# PCOD9580212 Si02
#       5
#     6   6   6   6   6
#     4  12  25  48  70 104 145 190 239 305 362 423
#     4  12  28  44  75 105 139 194 246 296 363 435
#     4  12  23  48  73 103 146 186 240 300 368 427
#     4  10  19  40  72  98 139 186 225 286 365 429
#     4  10  19  40  70  98 137 188 224 287 364 424
#
# _framework density 22.211117999999999
#
# number of rings (size 3 to 8) (size 9 to 14) (size 15 to 20)
#    0.000    0.800    8.000    0.000    2.800    0.000 
#    3.600   12.000    0.000    0.000    0.000    0.000 
#    0.000    0.000    0.000    0.000    0.000    0.000 
#
# Total GULP energy -167707.710156 kJ/mol
# GULP energy per Si atom -5590.257005 kJ/mol
# Density = 2.216056 g / cm^3
# Si number density = 22.211118 Si / 1000 Ang^3
#
#
#
# Elastic Constant Matrix: (Units=GPa)
#
#
# Indices 1 2 3 4 5 6 
#
# 1 48.7181 5.2028 21.3271 0.0000 0.0000 0.0000
# 2 5.2028 48.7181 21.3271 0.0000 0.0000 0.0000
# 3 21.3271 21.3271 111.1324 0.0000 0.0000 0.0000
# 4 0.0000 0.0000 0.0000 0.7721 0.0000 0.0000
# 5 0.0000 0.0000 0.0000 0.0000 0.7721 0.0000
# 6 0.0000 0.0000 0.0000 0.0000 0.0000 21.7577
#
#
#
# Elastic Compliance Matrix: (Units=1/GPa)
#
#
# Indices 1 2 3 4 5 6 
#
# 1 0.022423 -0.000558 -0.004196 0.000000 0.000000 0.000000
# 2 -0.000558 0.022423 -0.004196 0.000000 0.000000 0.000000
# 3 -0.004196 -0.004196 0.010609 0.000000 0.000000 0.000000
# 4 0.000000 0.000000 0.000000 1.295222 0.000000 0.000000
# 5 0.000000 0.000000 0.000000 0.000000 1.295222 0.000000
# 6 0.000000 0.000000 0.000000 0.000000 0.000000 0.045961
#
#
# Mechanical properties :
#
#
# Convention : Reuss Voigt Hill
#
# Bulk Modulus (GPa) = 26.62796 33.80918 30.21857
# Shear Modulus (GPa) = 1.83670 15.37447 8.60559
#
# Velocity S-wave (km/s) = 0.91034 2.63382 1.97050
# Velocity P-wave (km/s) = 3.62209 4.95016 4.33726
#
# Compressibility (1/GPa) = 0.03755451
#
# Stress axis : x y z
#
# Youngs Moduli (GPa) = 44.59772 44.59772 94.26167
#
# Poissons Ratio (x) = 0.02487 0.39552
# Poissons Ratio (y) = 0.02487 0.39552
# Poissons Ratio (z) = 0.18713 0.18713
#
# Static dielectric constant tensor:
#      x y z
#    x 1.812590 0.000000 0.000000 
#    y 0.000000 1.812590 0.000000 
#    z 0.000000 0.000000 1.852260 
# 
# From -- ./inp_files/565.got.cif
#   From: 2010.05.17/outbox.cif.g08.bks.cpg/sg170_cif.got.tgz:565.got - 2010.05.20 11:14:30.
