data_PCOD9580534
_publ_section_title
;
Structure prediction by ZEFSAII (Michael W. Deem and Ramdas Pophale) SiO2 
 PCOD9580534
Probable space group: P 62
;
_chemical_formula_sum "Si O2"
_cell_formula_units_Z 39
_cell_length_a 19.159339
_cell_length_b 19.159339
_cell_length_c 6.676269
_cell_angle_alpha 90.000000
_cell_angle_beta 90.000000
_cell_angle_gamma 120.000000
_cell_volume 2122.391522
_symmetry_space_group_name_H-M "P 62"
_symmetry_group_IT_number 171
_symmetry_cell_setting 'hexagonal'
loop_
_space_group_symop_operation_xyz
x,y,z
x-y,x,1/3+z
-y,x-y,2/3+z
-x,-y,z
-x+y,-x,1/3+z
y,-x+y,2/3+z
loop_
_atom_site_type_symbol
_atom_site_label
_atom_site_fract_x
_atom_site_fract_y
_atom_site_fract_z
Si Si1 0.542272 0.653543 0.486840
Si Si2 0.500000 0.500000 0.239339
Si Si3 0.329266 0.451254 0.093778
Si Si4 0.289946 0.585497 0.976112
Si Si5 0.077739 0.771518 0.735129
Si Si6 0.760782 0.073635 0.842492
Si Si7 0.333558 0.344046 0.786860
O O1 0.500555 0.570217 0.368351
O O2 0.478278 0.679830 0.554487
O O3 0.612874 0.717495 0.336228
O O4 0.583645 0.634608 0.674520
O O5 0.419430 0.467492 0.115350
O O6 0.320105 0.529537 0.085008
O O7 0.278967 0.390195 0.274604
O O8 0.309339 0.407217 0.879280
O O9 0.285645 0.647397 0.133818
O O10 0.152129 0.856857 0.783457
O O11 0.004806 0.763338 0.601596
O O12 0.035234 0.729797 0.941671
O O13 0.709517 0.040851 0.639716
#
# Coordination Sequence:
#
# PCOD9580534 Si02
#       7
#     6   3   6   6   6   6   6
#     4  11  24  40  60  89 117 164 214 266 306 376
#     4  12  22  38  60  92 122 156 228 260 312 362
#     4  11  24  40  60  89 117 164 214 266 306 376
#     4  12  29  44  60  89 130 178 209 260 334 387
#     4  10  21  40  62  95 125 157 206 263 313 372
#     4  10  21  40  62  95 125 157 206 263 313 372
#     4  10  20  39  64  92 115 166 204 270 312 346
#
# _framework density 18.375499000000001
#
# number of rings (size 3 to 8) (size 9 to 14) (size 15 to 20)
#    0.000    1.231    4.615    2.769    4.308    9.846 
#    0.000    0.000    0.000    0.000    0.000    5.385 
#    0.000    0.000    0.000    0.000    0.000    0.000 
#
# Total GULP energy -217379.173099 kJ/mol
# GULP energy per Si atom -5573.824951 kJ/mol
# Density = 1.833368 g / cm^3
# Si number density = 18.375499 Si / 1000 Ang^3
#
#
#
# Elastic Constant Matrix: (Units=GPa)
#
#
# Indices 1 2 3 4 5 6 
#
# 1 89.7902 25.0255 11.9786 0.0000 0.0000 0.0000
# 2 25.0255 89.7902 11.9786 0.0000 0.0000 0.0000
# 3 11.9786 11.9786 67.3723 0.0000 0.0000 0.0000
# 4 0.0000 0.0000 0.0000 4.0533 0.0000 0.0000
# 5 0.0000 0.0000 0.0000 0.0000 4.0533 0.0000
# 6 0.0000 0.0000 0.0000 0.0000 0.0000 32.3823
#
#
#
# Elastic Compliance Matrix: (Units=1/GPa)
#
#
# Indices 1 2 3 4 5 6 
#
# 1 0.012243 -0.003198 -0.001608 0.000000 0.000000 0.000000
# 2 -0.003198 0.012243 -0.001608 0.000000 0.000000 0.000000
# 3 -0.001608 -0.001608 0.015415 0.000000 0.000000 0.000000
# 4 0.000000 0.000000 0.000000 0.246711 0.000000 0.000000
# 5 0.000000 0.000000 0.000000 0.000000 0.246711 0.000000
# 6 0.000000 0.000000 0.000000 0.000000 0.000000 0.030881
#
#
# Mechanical properties :
#
#
# Convention : Reuss Voigt Hill
#
# Bulk Modulus (GPa) = 36.93815 38.32425 37.63120
# Shear Modulus (GPa) = 8.53161 21.29579 14.91370
#
# Velocity S-wave (km/s) = 2.15708 3.40799 2.85196
# Velocity P-wave (km/s) = 5.13318 6.03219 5.60075
#
# Compressibility (1/GPa) = 0.02707229
#
# Stress axis : x y z
#
# Youngs Moduli (GPa) = 81.68035 81.68035 64.87283
#
# Poissons Ratio (x) = 0.26119 0.10433
# Poissons Ratio (y) = 0.26119 0.10433
# Poissons Ratio (z) = 0.13136 0.13136
#
# Static dielectric constant tensor:
#      x y z
#    x 1.670430 0.000000 0.000000 
#    y 0.000000 1.670430 0.000000 
#    z 0.000000 0.000000 1.683730 
# 
# From -- ./inp_files/739.got.cif
#   From: 2010.05.17/outbox.cif.g08.bks.cpg/sg171_1_cif.got.tgz:739.got - 2010.05.20 11:16:09.
