data_PCOD9580073
_publ_section_title
;
Structure prediction by ZEFSAII (Michael W. Deem and Ramdas Pophale) SiO2 
 PCOD9580073
Probable space group: P 61
;
_chemical_formula_sum "Si O2"
_cell_formula_units_Z 36
_cell_length_a 13.260216
_cell_length_b 13.260216
_cell_length_c 11.532688
_cell_angle_alpha 90.000000
_cell_angle_beta 90.000000
_cell_angle_gamma 120.000000
_cell_volume 1756.153088
_symmetry_space_group_name_H-M "P 61"
_symmetry_group_IT_number 169
_symmetry_cell_setting 'hexagonal'
loop_
_space_group_symop_operation_xyz
x,y,z
x-y,x,1/6+z
-y,x-y,1/3+z
-x,-y,1/2+z
-x+y,-x,2/3+z
y,-x+y,5/6+z
loop_
_atom_site_type_symbol
_atom_site_label
_atom_site_fract_x
_atom_site_fract_y
_atom_site_fract_z
Si Si1 0.786414 0.955613 0.821560
Si Si2 0.857294 0.268759 0.051465
Si Si3 0.162068 0.036372 0.794505
Si Si4 0.425857 0.033751 0.928897
Si Si5 0.329425 0.163807 0.088685
Si Si6 0.380864 0.350121 0.667335
O O1 0.825723 0.883466 0.905867
O O2 0.695942 0.867961 0.723751
O O3 0.719551 0.003155 0.902686
O O4 0.888540 0.369066 0.145135
O O5 0.892791 0.191025 0.130881
O O6 0.726967 0.171462 0.019808
O O7 0.948183 0.316919 0.945459
O O8 0.116221 0.913897 0.859494
O O9 0.118606 0.002096 0.667085
O O10 0.395646 0.105167 0.025069
O O11 0.521109 0.002343 0.970107
O O12 0.303068 0.914547 0.904857
#
# Coordination Sequence:
#
# PCOD9580073 Si02
#       6
#     6   6   6   6   6   6
#     4  12  25  47  69 111 153 187 231 300 374 444
#     4  11  22  46  68  96 133 179 233 287 353 425
#     4  11  19  37  63  95 135 173 214 272 343 420
#     4  11  25  45  74 100 137 189 237 297 353 430
#     4  11  21  45  68 104 136 182 237 285 355 423
#     4  12  26  46  70 100 142 186 232 299 360 426
#
# _framework density 20.499351000000001
#
# number of rings (size 3 to 8) (size 9 to 14) (size 15 to 20)
#    0.000    0.667    8.333    1.000    2.333    0.000 
#   21.000    0.000    0.000    0.000    0.000    0.000 
#    0.000    0.000    0.000    0.000    0.000    0.000 
#
# Total GULP energy -200671.912931 kJ/mol
# GULP energy per Si atom -5574.219804 kJ/mol
# Density = 2.045269 g / cm^3
# Si number density = 20.499351 Si / 1000 Ang^3
#
#
#
# Elastic Constant Matrix: (Units=GPa)
#
#
# Indices 1 2 3 4 5 6 
#
# 1 81.8744 25.9180 26.1195 0.0000 0.0000 0.0000
# 2 25.9180 81.8744 26.1195 0.0000 0.0000 0.0000
# 3 26.1195 26.1195 104.7296 0.0000 0.0000 0.0000
# 4 0.0000 0.0000 0.0000 27.3107 0.0000 0.0000
# 5 0.0000 0.0000 0.0000 0.0000 27.3107 0.0000
# 6 0.0000 0.0000 0.0000 0.0000 0.0000 27.9782
#
#
#
# Elastic Compliance Matrix: (Units=1/GPa)
#
#
# Indices 1 2 3 4 5 6 
#
# 1 0.014212 -0.003659 -0.002632 0.000000 0.000000 0.000000
# 2 -0.003659 0.014212 -0.002632 0.000000 0.000000 0.000000
# 3 -0.002632 -0.002632 0.010861 0.000000 0.000000 0.000000
# 4 0.000000 0.000000 0.000000 0.036616 0.000000 0.000000
# 5 0.000000 0.000000 0.000000 0.000000 0.036616 0.000000
# 6 0.000000 0.000000 0.000000 0.000000 0.000000 0.035742
#
#
# Mechanical properties :
#
#
# Convention : Reuss Voigt Hill
#
# Bulk Modulus (GPa) = 46.64393 47.19915 46.92154
# Shear Modulus (GPa) = 28.85997 29.20800 29.03399
#
# Velocity S-wave (km/s) = 3.75620 3.77878 3.76751
# Velocity P-wave (km/s) = 6.45099 6.48950 6.47028
#
# Compressibility (1/GPa) = 0.02143902
#
# Stress axis : x y z
#
# Youngs Moduli (GPa) = 70.36412 70.36412 92.07142
#
# Poissons Ratio (x) = 0.25748 0.24231
# Poissons Ratio (y) = 0.25748 0.24231
# Poissons Ratio (z) = 0.18518 0.18518
#
# Static dielectric constant tensor:
#      x y z
#    x 1.785560 0.000000 0.000000 
#    y 0.000000 1.785560 0.000000 
#    z 0.000000 0.000000 1.891740 
# 
# From -- ./inp_files/921.got.cif
#   From: 2010.05.17/outbox.cif.g08.bks.cpg/sg169_cif.got.tgz:921.got - 2010.05.20 11:12:54.
