data_PCOD9580495
_publ_section_title
;
Structure prediction by ZEFSAII (Michael W. Deem and Ramdas Pophale) SiO2 
 PCOD9580495
Probable space group: P 62
;
_chemical_formula_sum "Si O2"
_cell_formula_units_Z 36
_cell_length_a 20.836364
_cell_length_b 20.836364
_cell_length_c 4.878124
_cell_angle_alpha 90.000000
_cell_angle_beta 90.000000
_cell_angle_gamma 120.000000
_cell_volume 1834.118278
_symmetry_space_group_name_H-M "P 62"
_symmetry_group_IT_number 171
_symmetry_cell_setting 'hexagonal'
loop_
_space_group_symop_operation_xyz
x,y,z
x-y,x,1/3+z
-y,x-y,2/3+z
-x,-y,z
-x+y,-x,1/3+z
y,-x+y,2/3+z
loop_
_atom_site_type_symbol
_atom_site_label
_atom_site_fract_x
_atom_site_fract_y
_atom_site_fract_z
Si Si1 0.657752 0.447470 0.367200
Si Si2 0.242236 0.201565 0.901467
Si Si3 0.436377 0.635295 0.869439
Si Si4 0.831086 0.235814 0.978611
Si Si5 0.404788 0.259265 0.818024
Si Si6 0.058136 0.810845 0.763318
O O1 0.728848 0.438970 0.304508
O O2 0.607391 0.387187 0.588139
O O3 0.690453 0.526464 0.520756
O O4 0.607953 0.428342 0.094422
O O5 0.324558 0.249192 0.770425
O O6 0.234832 0.124736 0.000956
O O7 0.185664 0.191087 0.660807
O O8 0.230357 0.241392 0.161963
O O9 0.521861 0.661160 0.803726
O O10 0.768006 0.170015 0.794760
O O11 0.903699 0.230883 0.914592
O O12 0.799094 0.212440 0.285655
#
# Coordination Sequence:
#
# PCOD9580495 Si02
#       6
#     6   6   6   6   6   6
#     4  11  20  30  48  75 111 151 195 245 297 342
#     4  11  22  39  64  91 116 144 184 232 282 342
#     4  11  20  30  48  75 111 151 195 245 297 342
#     4  10  20  35  54  80 112 149 193 240 283 330
#     4  10  20  35  54  80 112 149 193 240 283 330
#     4  11  22  39  64  91 116 144 184 232 282 342
#
# _framework density 19.627959000000001
#
# number of rings (size 3 to 8) (size 9 to 14) (size 15 to 20)
#    0.000    1.333    0.000   11.000    0.000    0.000 
#    0.000    0.000    0.000   11.000    0.000    0.000 
#    0.000    0.000    0.000    0.000    0.000    0.000 
#
# Total GULP energy -200869.421881 kJ/mol
# GULP energy per Si atom -5579.706163 kJ/mol
# Density = 1.958329 g / cm^3
# Si number density = 19.627959 Si / 1000 Ang^3
#
#
#
# Elastic Constant Matrix: (Units=GPa)
#
#
# Indices 1 2 3 4 5 6 
#
# 1 66.3916 36.9676 18.6442 0.0000 0.0000 0.0000
# 2 36.9676 66.3916 18.6442 0.0000 0.0000 0.0000
# 3 18.6442 18.6442 99.7228 0.0000 0.0000 0.0000
# 4 0.0000 0.0000 0.0000 31.0832 0.0000 0.0000
# 5 0.0000 0.0000 0.0000 0.0000 31.0832 0.0000
# 6 0.0000 0.0000 0.0000 0.0000 0.0000 14.7120
#
#
#
# Elastic Compliance Matrix: (Units=1/GPa)
#
#
# Indices 1 2 3 4 5 6 
#
# 1 0.022180 -0.011806 -0.001940 0.000000 0.000000 0.000000
# 2 -0.011806 0.022180 -0.001940 0.000000 0.000000 0.000000
# 3 -0.001940 -0.001940 0.010753 0.000000 0.000000 0.000000
# 4 0.000000 0.000000 0.000000 0.032172 0.000000 0.000000
# 5 0.000000 0.000000 0.000000 0.000000 0.032172 0.000000
# 6 0.000000 0.000000 0.000000 0.000000 0.000000 0.067972
#
#
# Mechanical properties :
#
#
# Convention : Reuss Voigt Hill
#
# Bulk Modulus (GPa) = 42.11601 42.33532 42.22566
# Shear Modulus (GPa) = 22.05427 25.92568 23.98998
#
# Velocity S-wave (km/s) = 3.35567 3.63830 3.49984
# Velocity P-wave (km/s) = 6.04300 6.26621 6.15561
#
# Compressibility (1/GPa) = 0.02374394
#
# Stress axis : x y z
#
# Youngs Moduli (GPa) = 45.08499 45.08499 92.99666
#
# Poissons Ratio (x) = 0.53225 0.18038
# Poissons Ratio (y) = 0.53225 0.18038
# Poissons Ratio (z) = 0.08745 0.08745
#
# Static dielectric constant tensor:
#      x y z
#    x 1.725590 0.000000 0.000000 
#    y 0.000000 1.725590 0.000000 
#    z 0.000000 0.000000 1.699110 
# 
# From -- ./inp_files/420.got.cif
#   From: 2010.05.17/outbox.cif.g08.bks.cpg/sg171_1_cif.got.tgz:420.got - 2010.05.20 11:16:09.
