data_PCOD9580752
_publ_section_title
;
Structure prediction by ZEFSAII (Michael W. Deem and Ramdas Pophale) SiO2 
 PCOD9580752
Probable space group: P 62
;
_chemical_formula_sum "Si O2"
_cell_formula_units_Z 42
_cell_length_a 13.258361
_cell_length_b 13.258361
_cell_length_c 11.510430
_cell_angle_alpha 90.000000
_cell_angle_beta 90.000000
_cell_angle_gamma 120.000000
_cell_volume 1752.273364
_symmetry_space_group_name_H-M "P 62"
_symmetry_group_IT_number 171
_symmetry_cell_setting 'hexagonal'
loop_
_space_group_symop_operation_xyz
x,y,z
x-y,x,1/3+z
-y,x-y,2/3+z
-x,-y,z
-x+y,-x,1/3+z
y,-x+y,2/3+z
loop_
_atom_site_type_symbol
_atom_site_label
_atom_site_fract_x
_atom_site_fract_y
_atom_site_fract_z
Si Si1 0.039168 0.673886 0.812780
Si Si2 0.789802 0.513533 0.405093
Si Si3 0.177148 0.107544 0.835837
Si Si4 0.997319 0.855068 0.927644
Si Si5 0.104237 0.422006 0.163731
Si Si6 0.369119 0.497731 0.712089
Si Si7 0.362006 0.842822 0.996408
O O1 0.154711 0.785610 0.763350
O O2 0.978554 0.733666 0.882014
O O3 0.965732 0.581206 0.713814
O O4 0.082372 0.619291 0.913743
O O5 0.865232 0.527893 0.293162
O O6 0.652983 0.433724 0.371708
O O7 0.831700 0.480913 0.523070
O O8 0.128023 0.153500 0.730776
O O9 0.316635 0.183967 0.823239
O O10 0.128919 0.153650 0.939475
O O11 0.099277 0.969264 0.862677
O O12 0.163335 0.533443 0.077093
O O13 0.970488 0.376544 0.130365
O O14 0.242636 0.479023 0.716254
#
# Coordination Sequence:
#
# PCOD9580752 Si02
#       7
#     6   6   6   6   6   6   6
#     4  11  25  45  77 106 147 195 257 301 381 463
#     4  11  27  45  75 106 150 186 251 314 376 442
#     4  11  24  42  68 103 153 192 243 306 374 444
#     4  11  24  42  68 106 144 201 240 299 377 449
#     4  11  24  46  69 110 141 195 244 308 365 453
#     4  10  24  48  77 100 147 195 258 294 383 468
#     4  11  25  49  75 107 146 201 245 318 376 451
#
# _framework density 23.968862000000001
#
# number of rings (size 3 to 8) (size 9 to 14) (size 15 to 20)
#    0.000    1.143    1.429    3.857   14.000    0.000 
#    7.714    1.429    0.000    0.000    0.000    0.000 
#    0.000    0.000    0.000    0.000    0.000    0.000 
#
# Total GULP energy -234055.158626 kJ/mol
# GULP energy per Si atom -5572.741872 kJ/mol
# Density = 2.391431 g / cm^3
# Si number density = 23.968862 Si / 1000 Ang^3
#
#
#
# Elastic Constant Matrix: (Units=GPa)
#
#
# Indices 1 2 3 4 5 6 
#
# 1 72.2147 -2.4544 44.5102 0.0000 0.0000 0.0000
# 2 -2.4544 72.2147 44.5102 0.0000 0.0000 0.0000
# 3 44.5102 44.5102 157.2897 0.0000 0.0000 0.0000
# 4 0.0000 0.0000 0.0000 30.6447 0.0000 0.0000
# 5 0.0000 0.0000 0.0000 0.0000 30.6447 0.0000
# 6 0.0000 0.0000 0.0000 0.0000 0.0000 37.3346
#
#
#
# Elastic Compliance Matrix: (Units=1/GPa)
#
#
# Indices 1 2 3 4 5 6 
#
# 1 0.017915 0.004522 -0.006349 0.000000 0.000000 0.000000
# 2 0.004522 0.017915 -0.006349 0.000000 0.000000 0.000000
# 3 -0.006349 -0.006349 0.009951 0.000000 0.000000 0.000000
# 4 0.000000 0.000000 0.000000 0.032632 0.000000 0.000000
# 5 0.000000 0.000000 0.000000 0.000000 0.032632 0.000000
# 6 0.000000 0.000000 0.000000 0.000000 0.000000 0.026785
#
#
# Mechanical properties :
#
#
# Convention : Reuss Voigt Hill
#
# Bulk Modulus (GPa) = 33.98109 52.76122 43.37115
# Shear Modulus (GPa) = 30.48939 34.06834 32.27886
#
# Velocity S-wave (km/s) = 3.57044 3.77418 3.67372
# Velocity P-wave (km/s) = 5.58617 6.40724 6.01074
#
# Compressibility (1/GPa) = 0.02942814
#
# Stress axis : x y z
#
# Youngs Moduli (GPa) = 55.81996 55.81996 100.49076
#
# Poissons Ratio (x) = -0.25244 0.63804
# Poissons Ratio (y) = -0.25244 0.63804
# Poissons Ratio (z) = 0.35442 0.35442
#
# Static dielectric constant tensor:
#      x y z
#    x 2.008180 0.000000 0.000000 
#    y 0.000000 2.008180 0.000000 
#    z 0.000000 0.000000 1.938540 
# 
# From -- ./inp_files/1665.got.cif
#   From: 2010.05.17/outbox.cif.g08.bks.cpg/sg171_1_cif.got.tgz:1665.got - 2010.05.20 11:16:09.
