data_PCOD9580136
_publ_section_title
;
Structure prediction by ZEFSAII (Michael W. Deem and Ramdas Pophale) SiO2 
 PCOD9580136
Probable space group: P 61
;
_chemical_formula_sum "Si O2"
_cell_formula_units_Z 36
_cell_length_a 14.016686
_cell_length_b 14.016686
_cell_length_c 9.198951
_cell_angle_alpha 90.000000
_cell_angle_beta 90.000000
_cell_angle_gamma 120.000000
_cell_volume 1565.163192
_symmetry_space_group_name_H-M "P 61"
_symmetry_group_IT_number 169
_symmetry_cell_setting 'hexagonal'
loop_
_space_group_symop_operation_xyz
x,y,z
x-y,x,1/6+z
-y,x-y,1/3+z
-x,-y,1/2+z
-x+y,-x,2/3+z
y,-x+y,5/6+z
loop_
_atom_site_type_symbol
_atom_site_label
_atom_site_fract_x
_atom_site_fract_y
_atom_site_fract_z
Si Si1 0.460952 0.250612 0.010110
Si Si2 0.390079 0.519074 0.397290
Si Si3 0.053611 0.213010 0.509834
Si Si4 0.409305 0.996805 0.519224
Si Si5 0.340286 0.159932 0.624140
Si Si6 0.297801 0.033804 0.881802
O O1 0.472134 0.203653 0.164902
O O2 0.370856 0.290141 0.009464
O O3 0.569587 0.357664 0.955583
O O4 0.414665 0.143896 0.907697
O O5 0.405964 0.452019 0.526670
O O6 0.472334 0.524864 0.269523
O O7 0.124197 0.167133 0.438504
O O8 0.133532 0.301414 0.628159
O O9 0.994682 0.236261 0.374226
O O10 0.284247 0.895050 0.511682
O O11 0.411537 0.099340 0.602522
O O12 0.253714 0.076849 0.747006
#
# Coordination Sequence:
#
# PCOD9580136 Si02
#       6
#     6   6   6   6   6   6
#     4  12  26  50  82 114 158 210 270 333 419 490
#     4  12  28  50  78 119 159 213 272 343 416 500
#     4  12  26  41  68 112 159 213 271 329 406 491
#     4  12  27  49  81 116 161 215 273 342 414 497
#     4  12  24  49  77 114 157 217 269 341 413 488
#     4  12  23  49  80 111 158 218 263 344 410 492
#
# _framework density 23.000795
#
# number of rings (size 3 to 8) (size 9 to 14) (size 15 to 20)
#    0.000    0.000    6.667    3.000    0.000    4.000 
#    0.000    0.000    0.000    0.000    0.000    0.000 
#    0.000    0.000    0.000    0.000    0.000    0.000 
#
# Total GULP energy -201002.461125 kJ/mol
# GULP energy per Si atom -5583.401698 kJ/mol
# Density = 2.294844 g / cm^3
# Si number density = 23.000795 Si / 1000 Ang^3
#
#
#
# Elastic Constant Matrix: (Units=GPa)
#
#
# Indices 1 2 3 4 5 6 
#
# 1 87.8994 39.8211 38.0811 0.0000 0.0000 0.0000
# 2 39.8211 87.8994 38.0811 0.0000 0.0000 0.0000
# 3 38.0811 38.0811 144.3863 0.0000 0.0000 0.0000
# 4 0.0000 0.0000 0.0000 47.1580 0.0000 0.0000
# 5 0.0000 0.0000 0.0000 0.0000 47.1580 0.0000
# 6 0.0000 0.0000 0.0000 0.0000 0.0000 24.0391
#
#
#
# Elastic Compliance Matrix: (Units=1/GPa)
#
#
# Indices 1 2 3 4 5 6 
#
# 1 0.015045 -0.005754 -0.002450 0.000000 0.000000 0.000000
# 2 -0.005754 0.015045 -0.002450 0.000000 0.000000 0.000000
# 3 -0.002450 -0.002450 0.008218 0.000000 0.000000 0.000000
# 4 0.000000 0.000000 0.000000 0.021205 0.000000 0.000000
# 5 0.000000 0.000000 0.000000 0.000000 0.021205 0.000000
# 6 0.000000 0.000000 0.000000 0.000000 0.000000 0.041599
#
#
# Mechanical properties :
#
#
# Convention : Reuss Voigt Hill
#
# Bulk Modulus (GPa) = 58.82890 61.35021 60.08956
# Shear Modulus (GPa) = 33.49084 37.28447 35.38766
#
# Velocity S-wave (km/s) = 3.81999 4.03054 3.92668
# Velocity P-wave (km/s) = 6.71483 6.95639 6.83667
#
# Compressibility (1/GPa) = 0.01699845
#
# Stress axis : x y z
#
# Youngs Moduli (GPa) = 66.46670 66.46670 121.67771
#
# Poissons Ratio (x) = 0.38247 0.29816
# Poissons Ratio (y) = 0.38247 0.29816
# Poissons Ratio (z) = 0.16287 0.16287
#
# Static dielectric constant tensor:
#      x y z
#    x 1.859550 0.000000 0.000000 
#    y 0.000000 1.859550 0.000000 
#    z 0.000000 0.000000 2.035570 
# 
# From -- ./inp_files/635.got.cif
#   From: 2010.05.17/outbox.cif.g08.bks.cpg/sg169_cif.got.tgz:635.got - 2010.05.20 11:12:54.
