data_PCOD9580570
_publ_section_title
;
Structure prediction by ZEFSAII (Michael W. Deem and Ramdas Pophale) SiO2 
 PCOD9580570
Probable space group: P 62
;
_chemical_formula_sum "Si O2"
_cell_formula_units_Z 42
_cell_length_a 10.764590
_cell_length_b 10.764590
_cell_length_c 19.546935
_cell_angle_alpha 90.000000
_cell_angle_beta 90.000000
_cell_angle_gamma 120.000000
_cell_volume 1961.572150
_symmetry_space_group_name_H-M "P 62"
_symmetry_group_IT_number 171
_symmetry_cell_setting 'hexagonal'
loop_
_space_group_symop_operation_xyz
x,y,z
x-y,x,1/3+z
-y,x-y,2/3+z
-x,-y,z
-x+y,-x,1/3+z
y,-x+y,2/3+z
loop_
_atom_site_type_symbol
_atom_site_label
_atom_site_fract_x
_atom_site_fract_y
_atom_site_fract_z
Si Si1 0.181865 0.016423 0.319420
Si Si2 0.194658 0.375351 0.231811
Si Si3 0.234597 0.155657 0.033772
Si Si4 0.293014 0.658991 0.911045
Si Si5 0.570497 0.909757 0.527470
Si Si6 0.314456 0.167826 0.190934
Si Si7 0.139018 0.644655 0.037225
O O1 0.120146 0.118281 0.341625
O O2 0.204980 0.031215 0.237366
O O3 0.337560 0.102473 0.350952
O O4 0.091796 0.858245 0.351779
O O5 0.153562 0.359444 0.311966
O O6 0.294613 0.543527 0.218508
O O7 0.280916 0.292868 0.214812
O O8 0.038239 0.302181 0.193881
O O9 0.280809 0.152117 0.110594
O O10 0.249970 0.493592 0.897426
O O11 0.206214 0.729029 0.875292
O O12 0.273406 0.670115 0.992352
O O13 0.502963 0.860985 0.451929
O O14 0.500000 0.000000 0.559293
O O15 0.000000 0.500000 0.012527
#
# Coordination Sequence:
#
# PCOD9580570 Si02
#       7
#     6   6   6   6   6   6   6
#     4   9  21  38  55  90 124 151 202 267 304 379
#     4  10  21  39  61  90 126 162 212 266 311 383
#     4  10  21  36  64  91 117 164 210 252 317 379
#     4  10  22  39  58  90 126 159 210 263 313 386
#     4   9  20  38  57  86 121 164 206 259 314 373
#     4  10  21  39  62  91 125 165 207 262 330 376
#     4  10  21  38  61  81 121 165 201 253 323 376
#
# _framework density 21.411396
#
# number of rings (size 3 to 8) (size 9 to 14) (size 15 to 20)
#    0.000    2.286    0.000    1.286    4.000    5.714 
#    2.571    1.429    0.000    0.000    0.000    0.000 
#    0.000    0.000    0.000    0.000    0.000    0.000 
#
# Total GULP energy -233869.245742 kJ/mol
# GULP energy per Si atom -5568.315375 kJ/mol
# Density = 2.136266 g / cm^3
# Si number density = 21.411396 Si / 1000 Ang^3
#
#
#
# Elastic Constant Matrix: (Units=GPa)
#
#
# Indices 1 2 3 4 5 6 
#
# 1 71.1779 21.4852 21.7300 0.0000 0.0000 0.0000
# 2 21.4852 71.1779 21.7300 0.0000 0.0000 0.0000
# 3 21.7300 21.7300 144.3254 0.0000 0.0000 0.0000
# 4 0.0000 0.0000 0.0000 18.7388 0.0000 0.0000
# 5 0.0000 0.0000 0.0000 0.0000 18.7388 0.0000
# 6 0.0000 0.0000 0.0000 0.0000 0.0000 24.8463
#
#
#
# Elastic Compliance Matrix: (Units=1/GPa)
#
#
# Indices 1 2 3 4 5 6 
#
# 1 0.015868 -0.004256 -0.001748 0.000000 0.000000 0.000000
# 2 -0.004256 0.015868 -0.001748 0.000000 0.000000 0.000000
# 3 -0.001748 -0.001748 0.007455 0.000000 0.000000 0.000000
# 4 0.000000 0.000000 0.000000 0.053365 0.000000 0.000000
# 5 0.000000 0.000000 0.000000 0.000000 0.053365 0.000000
# 6 0.000000 0.000000 0.000000 0.000000 0.000000 0.040247
#
#
# Mechanical properties :
#
#
# Convention : Reuss Voigt Hill
#
# Bulk Modulus (GPa) = 42.21980 46.28573 44.25277
# Shear Modulus (GPa) = 23.85849 27.24716 25.55282
#
# Velocity S-wave (km/s) = 3.34172 3.57116 3.45834
# Velocity P-wave (km/s) = 5.88648 6.21840 6.05471
#
# Compressibility (1/GPa) = 0.02368557
#
# Stress axis : x y z
#
# Youngs Moduli (GPa) = 63.02098 63.02098 134.13379
#
# Poissons Ratio (x) = 0.26822 0.23451
# Poissons Ratio (y) = 0.26822 0.23451
# Poissons Ratio (z) = 0.11018 0.11018
#
# Static dielectric constant tensor:
#      x y z
#    x 1.782880 0.000000 0.000000 
#    y 0.000000 1.782880 0.000000 
#    z 0.000000 0.000000 1.811040 
# 
# From -- ./inp_files/5170.got.cif
#   From: 2010.05.17/outbox.cif.g08.bks.cpg/sg171_3_cif.got.tgz:5170.got - 2010.05.20 11:16:09.
