data_PCOD9580291
_publ_section_title
;
Structure prediction by ZEFSAII (Michael W. Deem and Ramdas Pophale) SiO2 
 PCOD9580291
Probable space group: P 65
;
_chemical_formula_sum "Si O2"
_cell_formula_units_Z 24
_cell_length_a 7.131039
_cell_length_b 7.131039
_cell_length_c 23.878383
_cell_angle_alpha 90.000000
_cell_angle_beta 90.000000
_cell_angle_gamma 120.000000
_cell_volume 1051.577218
_symmetry_space_group_name_H-M "P 65"
_symmetry_group_IT_number 170
_symmetry_cell_setting 'hexagonal'
loop_
_space_group_symop_operation_xyz
x,y,z
x-y,x,5/6+z
-y,x-y,2/3+z
-x,-y,1/2+z
-x+y,-x,1/3+z
y,-x+y,1/6+z
loop_
_atom_site_type_symbol
_atom_site_label
_atom_site_fract_x
_atom_site_fract_y
_atom_site_fract_z
Si Si1 0.704612 0.874017 0.217080
Si Si2 0.264278 0.947013 0.511759
Si Si3 0.460491 0.528630 0.657989
Si Si4 0.488467 0.383440 0.458993
O O1 0.577816 0.906677 0.164670
O O2 0.947135 0.076138 0.207564
O O3 0.602766 0.912144 0.272120
O O4 0.661716 0.633202 0.209810
O O5 0.423194 0.953298 0.560863
O O6 0.123708 0.707168 0.489870
O O7 0.392816 0.123143 0.464245
O O8 0.480796 0.762440 0.654693
#
# Coordination Sequence:
#
# PCOD9580291 Si02
#       4
#     6   6   6   6
#     4  10  22  42  62  95 128 159 221 261 305 396
#     4  10  23  44  62  97 127 166 218 261 314 394
#     4  12  22  43  67  87 136 172 202 275 321 368
#     4  10  23  43  63  95 129 165 217 259 324 384
#
# _framework density 22.822861
#
# number of rings (size 3 to 8) (size 9 to 14) (size 15 to 20)
#    1.500    0.000    5.000    0.000    3.500    0.000 
#   13.500    0.000    0.000    0.000    0.000    0.000 
#    0.000    0.000    0.000    0.000    0.000    0.000 
#
# Total GULP energy -133737.172666 kJ/mol
# GULP energy per Si atom -5572.382194 kJ/mol
# Density = 2.277092 g / cm^3
# Si number density = 22.822861 Si / 1000 Ang^3
#
#
#
# Elastic Constant Matrix: (Units=GPa)
#
#
# Indices 1 2 3 4 5 6 
#
# 1 60.4886 7.3872 -9.7175 0.0000 0.0000 0.0000
# 2 7.3872 60.4886 -9.7175 0.0000 0.0000 0.0000
# 3 -9.7175 -9.7175 40.3950 0.0000 0.0000 0.0000
# 4 0.0000 0.0000 0.0000 18.0022 0.0000 0.0000
# 5 0.0000 0.0000 0.0000 0.0000 18.0022 0.0000
# 6 0.0000 0.0000 0.0000 0.0000 0.0000 26.5507
#
#
#
# Elastic Compliance Matrix: (Units=1/GPa)
#
#
# Indices 1 2 3 4 5 6 
#
# 1 0.017327 -0.001505 0.003806 0.000000 0.000000 0.000000
# 2 -0.001505 0.017327 0.003806 0.000000 0.000000 0.000000
# 3 0.003806 0.003806 0.026587 0.000000 0.000000 0.000000
# 4 0.000000 0.000000 0.000000 0.055549 0.000000 0.000000
# 5 0.000000 0.000000 0.000000 0.000000 0.055549 0.000000
# 6 0.000000 0.000000 0.000000 0.000000 0.000000 0.037664
#
#
# Mechanical properties :
#
#
# Convention : Reuss Voigt Hill
#
# Bulk Modulus (GPa) = 13.61329 15.25293 14.43311
# Shear Modulus (GPa) = 22.49491 24.07236 23.28363
#
# Velocity S-wave (km/s) = 3.14288 3.25121 3.19750
# Velocity P-wave (km/s) = 4.37584 4.55977 4.46875
#
# Compressibility (1/GPa) = 0.07345762
#
# Stress axis : x y z
#
# Youngs Moduli (GPa) = 57.71244 57.71244 37.61257
#
# Poissons Ratio (x) = 0.08683 -0.14317
# Poissons Ratio (y) = 0.08683 -0.14317
# Poissons Ratio (z) = -0.21967 -0.21967
#
# Static dielectric constant tensor:
#      x y z
#    x 1.871970 0.000000 0.000000 
#    y 0.000000 1.871970 0.000000 
#    z 0.000000 0.000000 1.863980 
# 
# From -- ./inp_files/1493.got.cif
#   From: 2010.05.17/outbox.cif.g08.bks.cpg/sg170_cif.got.tgz:1493.got - 2010.05.20 11:14:30.
