data_PCOD9580507
_publ_section_title
;
Structure prediction by ZEFSAII (Michael W. Deem and Ramdas Pophale) SiO2 
 PCOD9580507
Probable space group: P 62
;
_chemical_formula_sum "Si O2"
_cell_formula_units_Z 45
_cell_length_a 12.315674
_cell_length_b 12.315674
_cell_length_c 14.383798
_cell_angle_alpha 90.000000
_cell_angle_beta 90.000000
_cell_angle_gamma 120.000000
_cell_volume 1889.385491
_symmetry_space_group_name_H-M "P 62"
_symmetry_group_IT_number 171
_symmetry_cell_setting 'hexagonal'
loop_
_space_group_symop_operation_xyz
x,y,z
x-y,x,1/3+z
-y,x-y,2/3+z
-x,-y,z
-x+y,-x,1/3+z
y,-x+y,2/3+z
loop_
_atom_site_type_symbol
_atom_site_label
_atom_site_fract_x
_atom_site_fract_y
_atom_site_fract_z
Si Si1 0.160478 0.735597 0.414690
Si Si2 0.367328 0.256398 0.064030
Si Si3 0.227796 0.181444 0.869448
Si Si4 0.777646 0.124685 0.233061
Si Si5 0.500000 0.500000 0.616590
Si Si6 0.223384 0.121396 0.242323
Si Si7 0.699443 0.317850 0.804330
Si Si8 0.777430 0.253711 0.001661
O O1 0.172573 0.860825 0.456487
O O2 0.196209 0.766596 0.306956
O O3 0.255537 0.704623 0.464764
O O4 0.015183 0.633528 0.429749
O O5 0.278640 0.148577 0.136934
O O6 0.501180 0.268276 0.070507
O O7 0.310833 0.234448 0.962094
O O8 0.182852 0.278931 0.836956
O O9 0.137828 0.035503 0.901417
O O10 0.626878 0.055614 0.221164
O O11 0.800706 0.013569 0.272367
O O12 0.615482 0.522019 0.681150
O O13 0.344690 0.213312 0.305888
O O14 0.732190 0.293267 0.907232
O O15 0.760414 0.454035 0.757184
#
# Coordination Sequence:
#
# PCOD9580507 Si02
#       8
#     6   6   6   6   3   6   6   6
#     4  10  20  36  59  86 121 153 198 265 310 367
#     4   9  20  36  59  84 117 157 199 257 312 365
#     4  10  20  37  59  92 113 153 213 250 311 382
#     4  10  20  37  60  82 122 159 193 249 321 371
#     4  10  20  44  54  84 126 162 192 262 314 374
#     4   9  20  38  57  83 122 156 197 259 315 368
#     4  11  20  40  60  87 118 165 206 258 312 382
#     4  10  22  39  62  85 122 164 209 254 321 384
#
# _framework density 23.817269
#
# number of rings (size 3 to 8) (size 9 to 14) (size 15 to 20)
#    0.000    2.133    1.333    1.600    0.000    1.067 
#   12.000    5.333    0.000    0.000    0.000    0.000 
#    0.000    0.000    0.000    0.000    0.000    0.000 
#
# Total GULP energy -250747.077708 kJ/mol
# GULP energy per Si atom -5572.157282 kJ/mol
# Density = 2.376306 g / cm^3
# Si number density = 23.817269 Si / 1000 Ang^3
#
#
#
# Elastic Constant Matrix: (Units=GPa)
#
#
# Indices 1 2 3 4 5 6 
#
# 1 89.2998 22.2584 -0.0423 0.0000 0.0000 0.0000
# 2 22.2584 89.2998 -0.0423 0.0000 0.0000 0.0000
# 3 -0.0423 -0.0423 65.7599 0.0000 0.0000 0.0000
# 4 0.0000 0.0000 0.0000 22.5147 0.0000 0.0000
# 5 0.0000 0.0000 0.0000 0.0000 22.5147 0.0000
# 6 0.0000 0.0000 0.0000 0.0000 0.0000 33.5207
#
#
#
# Elastic Compliance Matrix: (Units=1/GPa)
#
#
# Indices 1 2 3 4 5 6 
#
# 1 0.011940 -0.002976 0.000006 0.000000 0.000000 0.000000
# 2 -0.002976 0.011940 0.000006 0.000000 0.000000 0.000000
# 3 0.000006 0.000006 0.015207 0.000000 0.000000 0.000000
# 4 0.000000 0.000000 0.000000 0.044416 0.000000 0.000000
# 5 0.000000 0.000000 0.000000 0.000000 0.044416 0.000000
# 6 0.000000 0.000000 0.000000 0.000000 0.000000 0.029832
#
#
# Mechanical properties :
#
#
# Convention : Reuss Voigt Hill
#
# Bulk Modulus (GPa) = 30.15885 32.07857 31.11871
# Shear Modulus (GPa) = 28.61525 30.52239 29.56882
#
# Velocity S-wave (km/s) = 3.46995 3.58372 3.52730
# Velocity P-wave (km/s) = 5.36136 5.53371 5.44822
#
# Compressibility (1/GPa) = 0.03315777
#
# Stress axis : x y z
#
# Youngs Moduli (GPa) = 83.75180 83.75180 65.75988
#
# Poissons Ratio (x) = 0.24925 -0.00038
# Poissons Ratio (y) = 0.24925 -0.00038
# Poissons Ratio (z) = -0.00048 -0.00048
#
# Static dielectric constant tensor:
#      x y z
#    x 1.981600 0.000000 0.000000 
#    y 0.000000 1.981600 0.000000 
#    z 0.000000 0.000000 1.947000 
# 
# From -- ./inp_files/3047.got.cif
#   From: 2010.05.17/outbox.cif.g08.bks.cpg/sg171_2_cif.got.tgz:3047.got - 2010.05.20 11:16:09.
