data_PCOD9580986
_publ_section_title
;
Structure prediction by ZEFSAII (Michael W. Deem and Ramdas Pophale) SiO2 
 PCOD9580986
Probable space group: P 64
;
_chemical_formula_sum "Si O2"
_cell_formula_units_Z 36
_cell_length_a 8.808289
_cell_length_b 8.808289
_cell_length_c 23.819417
_cell_angle_alpha 90.000000
_cell_angle_beta 90.000000
_cell_angle_gamma 120.000000
_cell_volume 1600.460168
_symmetry_space_group_name_H-M "P 64"
_symmetry_group_IT_number 172
_symmetry_cell_setting 'hexagonal'
loop_
_space_group_symop_operation_xyz
x,y,z
x-y,x,2/3+z
-y,x-y,1/3+z
-x,-y,z
-x+y,-x,2/3+z
y,-x+y,1/3+z
loop_
_atom_site_type_symbol
_atom_site_label
_atom_site_fract_x
_atom_site_fract_y
_atom_site_fract_z
Si Si1 0.207701 0.277449 0.742350
Si Si2 0.175053 0.368905 0.086968
Si Si3 0.692996 0.398228 0.811190
Si Si4 0.902203 0.201015 0.169388
Si Si5 0.000000 0.000000 0.257462
Si Si6 0.091651 0.773716 0.992386
Si Si7 0.500000 0.500000 0.232688
O O1 0.319297 0.450566 0.778367
O O2 0.201662 0.133457 0.784782
O O3 0.300177 0.250615 0.687241
O O4 0.008538 0.240802 0.738734
O O5 0.328807 0.565367 0.093331
O O6 0.093651 0.350943 0.149813
O O7 0.028461 0.346737 0.042812
O O8 0.503185 0.247848 0.834939
O O9 0.848537 0.490473 0.857926
O O10 0.929674 0.108222 0.222512
O O11 0.843791 0.867927 0.296032
O O12 0.109278 0.661924 0.942552
#
# Coordination Sequence:
#
# PCOD9580986 Si02
#       7
#     6   6   6   6   3   6   3
#     4  11  21  46  69 101 132 188 247 288 355 448
#     4  11  21  45  70  99 135 189 242 287 357 444
#     4  12  25  45  74 105 141 190 253 304 371 442
#     4  11  23  40  73 100 131 189 247 291 349 450
#     4  12  20  44  68  98 146 184 244 300 358 462
#     4  11  25  41  71  99 142 192 237 297 385 433
#     4  12  26  46  66 108 160 188 228 338 392 418
#
# _framework density 22.493532999999999
#
# number of rings (size 3 to 8) (size 9 to 14) (size 15 to 20)
#    0.000    0.667    5.000    4.000    4.667    0.000 
#    3.000    1.667    0.000    0.000    0.000    0.000 
#    0.000    0.000    0.000    0.000    0.000    0.000 
#
# Total GULP energy -200570.314111 kJ/mol
# GULP energy per Si atom -5571.397614 kJ/mol
# Density = 2.244234 g / cm^3
# Si number density = 22.493533 Si / 1000 Ang^3
#
#
#
# Elastic Constant Matrix: (Units=GPa)
#
#
# Indices 1 2 3 4 5 6 
#
# 1 102.3618 39.6718 39.1226 0.0000 0.0000 0.0000
# 2 39.6718 102.3618 39.1226 0.0000 0.0000 0.0000
# 3 39.1226 39.1226 118.4054 0.0000 0.0000 0.0000
# 4 0.0000 0.0000 0.0000 33.1158 0.0000 0.0000
# 5 0.0000 0.0000 0.0000 0.0000 33.1158 0.0000
# 6 0.0000 0.0000 0.0000 0.0000 0.0000 31.3450
#
#
#
# Elastic Compliance Matrix: (Units=1/GPa)
#
#
# Indices 1 2 3 4 5 6 
#
# 1 0.012279 -0.003672 -0.002844 0.000000 0.000000 0.000000
# 2 -0.003672 0.012279 -0.002844 0.000000 0.000000 0.000000
# 3 -0.002844 -0.002844 0.010325 0.000000 0.000000 0.000000
# 4 0.000000 0.000000 0.000000 0.030197 0.000000 0.000000
# 5 0.000000 0.000000 0.000000 0.000000 0.030197 0.000000
# 6 0.000000 0.000000 0.000000 0.000000 0.000000 0.031903
#
#
# Mechanical properties :
#
#
# Convention : Reuss Voigt Hill
#
# Bulk Modulus (GPa) = 61.86705 62.10698 61.98701
# Shear Modulus (GPa) = 33.04940 33.19615 33.12277
#
# Velocity S-wave (km/s) = 3.83728 3.84579 3.84154
# Velocity P-wave (km/s) = 6.87001 6.88412 6.87707
#
# Compressibility (1/GPa) = 0.01616369
#
# Stress axis : x y z
#
# Youngs Moduli (GPa) = 81.43721 81.43721 96.85304
#
# Poissons Ratio (x) = 0.29905 0.27545
# Poissons Ratio (y) = 0.29905 0.27545
# Poissons Ratio (z) = 0.23160 0.23160
#
# Static dielectric constant tensor:
#      x y z
#    x 1.902620 0.000000 0.000000 
#    y 0.000000 1.902620 0.000000 
#    z 0.000000 0.000000 1.854400 
# 
# From -- ./inp_files/2641.got.cif
#   From: 2010.05.17/outbox.cif.g08.bks.cpg/sg172_2_cif.got.tgz:2641.got - 2010.05.20 11:19:57.
