data_PCOD9580500
_publ_section_title
;
Structure prediction by ZEFSAII (Michael W. Deem and Ramdas Pophale) SiO2 
 PCOD9580500
Probable space group: P 62
;
_chemical_formula_sum "Si O2"
_cell_formula_units_Z 24
_cell_length_a 17.429920
_cell_length_b 17.429920
_cell_length_c 5.415404
_cell_angle_alpha 90.000000
_cell_angle_beta 90.000000
_cell_angle_gamma 120.000000
_cell_volume 1424.794666
_symmetry_space_group_name_H-M "P 62"
_symmetry_group_IT_number 171
_symmetry_cell_setting 'hexagonal'
loop_
_space_group_symop_operation_xyz
x,y,z
x-y,x,1/3+z
-y,x-y,2/3+z
-x,-y,z
-x+y,-x,1/3+z
y,-x+y,2/3+z
loop_
_atom_site_type_symbol
_atom_site_label
_atom_site_fract_x
_atom_site_fract_y
_atom_site_fract_z
Si Si1 0.185437 0.461176 0.947990
Si Si2 0.643627 0.400102 0.457638
Si Si3 0.437365 0.350477 0.100019
Si Si4 0.363493 0.478669 0.106544
O O1 0.209687 0.563463 0.979097
O O2 0.129627 0.430996 0.693701
O O3 0.129824 0.417095 0.195743
O O4 0.280508 0.465683 0.940629
O O5 0.606197 0.331125 0.229856
O O6 0.661723 0.494077 0.368067
O O7 0.373894 0.392990 0.106978
O O8 0.536636 0.437599 0.070812
#
# Coordination Sequence:
#
# PCOD9580500 Si02
#       4
#     6   6   6   6
#     4  11  21  35  51  70  99 134 172 219 253 299
#     4  11  19  31  48  77  96 134 184 219 257 290
#     4  10  24  35  50  77  98 135 178 209 267 301
#     4  10  20  36  51  70 105 134 167 228 253 301
#
# _framework density 16.844533999999999
#
# number of rings (size 3 to 8) (size 9 to 14) (size 15 to 20)
#    0.000    1.500    2.500    4.500    0.000   14.000 
#    0.000    0.000    0.000    0.000    0.000    0.000 
#    0.000    0.000    0.000   11.250    0.000    0.500 
#
# Total GULP energy -133634.333750 kJ/mol
# GULP energy per Si atom -5568.097240 kJ/mol
# Density = 1.680619 g / cm^3
# Si number density = 16.844534 Si / 1000 Ang^3
#
#
#
# Elastic Constant Matrix: (Units=GPa)
#
#
# Indices 1 2 3 4 5 6 
#
# 1 79.4753 34.4384 44.5504 0.0000 0.0000 0.0000
# 2 34.4384 79.4753 44.5504 0.0000 0.0000 0.0000
# 3 44.5504 44.5504 111.8651 0.0000 0.0000 0.0000
# 4 0.0000 0.0000 0.0000 11.0228 0.0000 0.0000
# 5 0.0000 0.0000 0.0000 0.0000 11.0228 0.0000
# 6 0.0000 0.0000 0.0000 0.0000 0.0000 22.5184
#
#
#
# Elastic Compliance Matrix: (Units=1/GPa)
#
#
# Indices 1 2 3 4 5 6 
#
# 1 0.017477 -0.004727 -0.005078 0.000000 0.000000 0.000000
# 2 -0.004727 0.017477 -0.005078 0.000000 0.000000 0.000000
# 3 -0.005078 -0.005078 0.012984 0.000000 0.000000 0.000000
# 4 0.000000 0.000000 0.000000 0.090721 0.000000 0.000000
# 5 0.000000 0.000000 0.000000 0.000000 0.090721 0.000000
# 6 0.000000 0.000000 0.000000 0.000000 0.000000 0.044408
#
#
# Mechanical properties :
#
#
# Convention : Reuss Voigt Hill
#
# Bulk Modulus (GPa) = 55.02610 57.54376 56.28493
# Shear Modulus (GPa) = 16.14933 18.73125 17.44029
#
# Velocity S-wave (km/s) = 3.09969 3.33830 3.22120
# Velocity P-wave (km/s) = 6.74898 7.00677 6.87908
#
# Compressibility (1/GPa) = 0.01817319
#
# Stress axis : x y z
#
# Youngs Moduli (GPa) = 57.21741 57.21741 77.01876
#
# Poissons Ratio (x) = 0.27046 0.39109
# Poissons Ratio (y) = 0.27046 0.39109
# Poissons Ratio (z) = 0.29054 0.29054
#
# Static dielectric constant tensor:
#      x y z
#    x 1.585610 0.000000 0.000000 
#    y 0.000000 1.585610 0.000000 
#    z 0.000000 0.000000 1.675630 
# 
# From -- ./inp_files/258.got.cif
#   From: 2010.05.17/outbox.cif.g08.bks.cpg/sg171_1_cif.got.tgz:258.got - 2010.05.20 11:16:09.
