data_PCOD9580349
_publ_section_title
;
Structure prediction by ZEFSAII (Michael W. Deem and Ramdas Pophale) SiO2 
 PCOD9580349
Probable space group: P 65
;
_chemical_formula_sum "Si O2"
_cell_formula_units_Z 48
_cell_length_a 14.461911
_cell_length_b 14.461911
_cell_length_c 11.945343
_cell_angle_alpha 90.000000
_cell_angle_beta 90.000000
_cell_angle_gamma 120.000000
_cell_volume 2163.618197
_symmetry_space_group_name_H-M "P 65"
_symmetry_group_IT_number 170
_symmetry_cell_setting 'hexagonal'
loop_
_space_group_symop_operation_xyz
x,y,z
x-y,x,5/6+z
-y,x-y,2/3+z
-x,-y,1/2+z
-x+y,-x,1/3+z
y,-x+y,1/6+z
loop_
_atom_site_type_symbol
_atom_site_label
_atom_site_fract_x
_atom_site_fract_y
_atom_site_fract_z
Si Si1 0.841679 0.031042 0.661740
Si Si2 0.850360 0.557625 0.702736
Si Si3 0.955415 0.633273 0.485435
Si Si4 0.155660 0.635671 0.446426
Si Si5 0.549656 0.759543 0.106105
Si Si6 0.185677 0.547575 0.804148
Si Si7 0.510398 0.870889 0.523924
Si Si8 0.358683 0.280537 0.812281
O O1 0.744148 0.003190 0.747528
O O2 0.808725 0.091346 0.568101
O O3 0.942258 0.097356 0.746478
O O4 0.899096 0.636823 0.598996
O O5 0.729129 0.472041 0.671677
O O6 0.833231 0.603237 0.818138
O O7 0.907009 0.485720 0.699052
O O8 0.879933 0.527538 0.410281
O O9 0.055184 0.619866 0.514261
O O10 0.165874 0.532827 0.438361
O O11 0.142719 0.670082 0.321681
O O12 0.469691 0.806622 0.129892
O O13 0.632669 0.777921 0.203060
O O14 0.294411 0.541349 0.804786
O O15 0.127826 0.477414 0.696231
O O16 0.623941 0.954568 0.469542
#
# Coordination Sequence:
#
# PCOD9580349 Si02
#       8
#     6   6   6   6   6   6   6   6
#     4  11  24  49  83 109 132 171 233 307 367 438
#     4  11  23  37  61  91 139 190 232 296 351 422
#     4  11  22  40  69 103 135 181 243 303 358 423
#     4  11  20  39  58  93 135 180 246 292 343 408
#     4  11  25  39  58  95 149 199 233 283 352 429
#     4  11  22  38  64  96 132 192 245 302 357 419
#     4  11  21  38  62  93 133 186 239 297 349 408
#     4  11  23  42  65 104 139 185 241 288 355 435
#
# _framework density 22.185061999999999
#
# number of rings (size 3 to 8) (size 9 to 14) (size 15 to 20)
#    0.000    1.000    5.000    3.750    3.500    0.000 
#    2.250    0.000    5.500    0.000    0.000    0.000 
#    0.000    0.000    0.000    0.000    0.000    0.000 
#
# Total GULP energy -267366.910114 kJ/mol
# GULP energy per Si atom -5570.143961 kJ/mol
# Density = 2.213457 g / cm^3
# Si number density = 22.185062 Si / 1000 Ang^3
#
#
#
# Elastic Constant Matrix: (Units=GPa)
#
#
# Indices 1 2 3 4 5 6 
#
# 1 65.3278 22.4298 27.3049 0.0000 0.0000 0.0000
# 2 22.4298 65.3278 27.3049 0.0000 0.0000 0.0000
# 3 27.3049 27.3049 117.5679 0.0000 0.0000 0.0000
# 4 0.0000 0.0000 0.0000 26.4108 0.0000 0.0000
# 5 0.0000 0.0000 0.0000 0.0000 26.4108 0.0000
# 6 0.0000 0.0000 0.0000 0.0000 0.0000 21.4490
#
#
#
# Elastic Compliance Matrix: (Units=1/GPa)
#
#
# Indices 1 2 3 4 5 6 
#
# 1 0.018316 -0.004996 -0.003094 0.000000 0.000000 0.000000
# 2 -0.004996 0.018316 -0.003094 0.000000 0.000000 0.000000
# 3 -0.003094 -0.003094 0.009943 0.000000 0.000000 0.000000
# 4 0.000000 0.000000 0.000000 0.037863 0.000000 0.000000
# 5 0.000000 0.000000 0.000000 0.000000 0.037863 0.000000
# 6 0.000000 0.000000 0.000000 0.000000 0.000000 0.046622
#
#
# Mechanical properties :
#
#
# Convention : Reuss Voigt Hill
#
# Bulk Modulus (GPa) = 41.30768 44.70033 43.00400
# Shear Modulus (GPa) = 25.08055 26.26635 25.67345
#
# Velocity S-wave (km/s) = 3.36596 3.44461 3.40551
# Velocity P-wave (km/s) = 5.81088 6.00109 5.90675
#
# Compressibility (1/GPa) = 0.02420858
#
# Stress axis : x y z
#
# Youngs Moduli (GPa) = 54.59827 54.59827 100.57652
#
# Poissons Ratio (x) = 0.27275 0.31114
# Poissons Ratio (y) = 0.27275 0.31114
# Poissons Ratio (z) = 0.16890 0.16890
#
# Static dielectric constant tensor:
#      x y z
#    x 1.877750 0.000000 0.000000 
#    y 0.000000 1.877750 0.000000 
#    z 0.000000 0.000000 1.936930 
# 
# From -- ./inp_files/1045.got.cif
#   From: 2010.05.17/outbox.cif.g08.bks.cpg/sg170_cif.got.tgz:1045.got - 2010.05.20 11:14:30.
