data_PCOD9580643
_publ_section_title
;
Structure prediction by ZEFSAII (Michael W. Deem and Ramdas Pophale) SiO2 
 PCOD9580643
Probable space group: P 62
;
_chemical_formula_sum "Si O2"
_cell_formula_units_Z 45
_cell_length_a 11.023066
_cell_length_b 11.023066
_cell_length_c 19.740768
_cell_angle_alpha 90.000000
_cell_angle_beta 90.000000
_cell_angle_gamma 120.000000
_cell_volume 2077.301294
_symmetry_space_group_name_H-M "P 62"
_symmetry_group_IT_number 171
_symmetry_cell_setting 'hexagonal'
loop_
_space_group_symop_operation_xyz
x,y,z
x-y,x,1/3+z
-y,x-y,2/3+z
-x,-y,z
-x+y,-x,1/3+z
y,-x+y,2/3+z
loop_
_atom_site_type_symbol
_atom_site_label
_atom_site_fract_x
_atom_site_fract_y
_atom_site_fract_z
Si Si1 0.481260 0.271627 0.681180
Si Si2 0.058505 0.665729 0.227331
Si Si3 0.112888 0.394947 0.806297
Si Si4 0.401767 0.836078 0.876118
Si Si5 0.500000 0.000000 0.257457
Si Si6 0.650589 0.825329 0.813753
Si Si7 0.158925 0.327918 0.454761
Si Si8 0.645351 0.428646 0.366464
O O1 0.405475 0.143273 0.628811
O O2 0.546833 0.418636 0.641851
O O3 0.377755 0.254072 0.741883
O O4 0.616892 0.272475 0.709189
O O5 0.168241 0.735858 0.166020
O O6 0.000000 0.500000 0.231379
O O7 0.940495 0.703602 0.205942
O O8 0.034301 0.411697 0.871493
O O9 0.139284 0.509098 0.748560
O O10 0.000190 0.232749 0.791555
O O11 0.494973 0.780183 0.841043
O O12 0.252103 0.793999 0.842691
O O13 0.500000 0.000000 0.863712
O O14 0.405288 0.812518 0.956028
O O15 0.748232 0.990896 0.797241
O O16 0.235286 0.414843 0.386577
#
# Coordination Sequence:
#
# PCOD9580643 Si02
#       8
#     6   6   6   6   3   6   6   6
#     4  11  25  40  72 101 138 181 233 299 356 417
#     4  11  26  44  68 100 137 180 238 295 356 427
#     4  11  23  43  69 100 133 182 229 294 355 426
#     4  10  22  39  62  97 134 176 229 289 347 414
#     4  10  22  44  66 100 134 174 230 286 358 416
#     4  11  25  43  65 100 142 185 232 289 358 424
#     4  11  23  42  67  96 143 183 234 292 356 430
#     4  12  22  38  69  99 131 178 237 295 363 407
#
# _framework density 21.662724000000001
#
# number of rings (size 3 to 8) (size 9 to 14) (size 15 to 20)
#    0.000    1.067    2.667    3.200    8.400    0.533 
#    0.000    0.000    0.000    1.600    0.000    0.000 
#    0.000    0.000    0.000    0.000    0.000    0.000 
#
# Total GULP energy -250619.972912 kJ/mol
# GULP energy per Si atom -5569.332731 kJ/mol
# Density = 2.161342 g / cm^3
# Si number density = 21.662724 Si / 1000 Ang^3
#
#
#
# Elastic Constant Matrix: (Units=GPa)
#
#
# Indices 1 2 3 4 5 6 
#
# 1 75.0291 8.6685 24.2740 0.0000 0.0000 0.0000
# 2 8.6685 75.0291 24.2740 0.0000 0.0000 0.0000
# 3 24.2740 24.2740 90.8116 0.0000 0.0000 0.0000
# 4 0.0000 0.0000 0.0000 20.2113 0.0000 0.0000
# 5 0.0000 0.0000 0.0000 0.0000 20.2113 0.0000
# 6 0.0000 0.0000 0.0000 0.0000 0.0000 33.1803
#
#
#
# Elastic Compliance Matrix: (Units=1/GPa)
#
#
# Indices 1 2 3 4 5 6 
#
# 1 0.014605 -0.000465 -0.003780 0.000000 0.000000 0.000000
# 2 -0.000465 0.014605 -0.003780 0.000000 0.000000 0.000000
# 3 -0.003780 -0.003780 0.013032 0.000000 0.000000 0.000000
# 4 0.000000 0.000000 0.000000 0.049477 0.000000 0.000000
# 5 0.000000 0.000000 0.000000 0.000000 0.049477 0.000000
# 6 0.000000 0.000000 0.000000 0.000000 0.000000 0.030138
#
#
# Mechanical properties :
#
#
# Convention : Reuss Voigt Hill
#
# Bulk Modulus (GPa) = 38.17664 39.47807 38.82735
# Shear Modulus (GPa) = 25.49544 26.96414 26.22979
#
# Velocity S-wave (km/s) = 3.43436 3.53189 3.48347
# Velocity P-wave (km/s) = 5.77822 5.90727 5.84311
#
# Compressibility (1/GPa) = 0.02619403
#
# Stress axis : x y z
#
# Youngs Moduli (GPa) = 68.47129 68.47129 76.73170
#
# Poissons Ratio (x) = 0.03181 0.29002
# Poissons Ratio (y) = 0.03181 0.29002
# Poissons Ratio (z) = 0.25880 0.25880
#
# Static dielectric constant tensor:
#      x y z
#    x 1.842970 0.000000 0.000000 
#    y 0.000000 1.842970 0.000000 
#    z 0.000000 0.000000 1.806710 
# 
# From -- ./inp_files/4016.got.cif
#   From: 2010.05.17/outbox.cif.g08.bks.cpg/sg171_3_cif.got.tgz:4016.got - 2010.05.20 11:16:09.
