data_PCOD9580096
_publ_section_title
;
Structure prediction by ZEFSAII (Michael W. Deem and Ramdas Pophale) SiO2 
 PCOD9580096
Probable space group: P 61
;
_chemical_formula_sum "Si O2"
_cell_formula_units_Z 36
_cell_length_a 10.184515
_cell_length_b 10.184515
_cell_length_c 17.302195
_cell_angle_alpha 90.000000
_cell_angle_beta 90.000000
_cell_angle_gamma 120.000000
_cell_volume 1554.220161
_symmetry_space_group_name_H-M "P 61"
_symmetry_group_IT_number 169
_symmetry_cell_setting 'hexagonal'
loop_
_space_group_symop_operation_xyz
x,y,z
x-y,x,1/6+z
-y,x-y,1/3+z
-x,-y,1/2+z
-x+y,-x,2/3+z
y,-x+y,5/6+z
loop_
_atom_site_type_symbol
_atom_site_label
_atom_site_fract_x
_atom_site_fract_y
_atom_site_fract_z
Si Si1 0.553291 0.993481 0.298580
Si Si2 0.203010 0.696036 0.495828
Si Si3 0.216779 0.786147 0.331167
Si Si4 0.212325 0.423683 0.415827
Si Si5 0.909375 0.999907 0.783600
Si Si6 0.225425 0.523544 0.246630
O O1 0.588818 0.918035 0.227427
O O2 0.399472 0.856504 0.333739
O O3 0.490379 0.103887 0.273181
O O4 0.688251 0.097322 0.355120
O O5 0.183276 0.777591 0.421948
O O6 0.165745 0.534478 0.458769
O O7 0.368385 0.754490 0.536317
O O8 0.144708 0.874887 0.290031
O O9 0.168021 0.636471 0.280414
O O10 0.101295 0.253409 0.440977
O O11 0.224795 0.440771 0.324003
O O12 0.995737 0.022657 0.702099
#
# Coordination Sequence:
#
# PCOD9580096 Si02
#       6
#     6   6   6   6   6   6
#     4   9  16  30  49  74 106 138 171 223 270 336
#     4   9  17  31  52  82 113 138 179 231 295 348
#     4   9  17  32  54  79 104 144 188 229 279 341
#     4   9  17  32  54  79 104 144 188 229 279 341
#     4  11  22  40  61  80 106 154 213 249 274 334
#     4   9  17  31  52  82 113 138 179 231 295 348
#
# _framework density 23.162741
#
# number of rings (size 3 to 8) (size 9 to 14) (size 15 to 20)
#    0.000    2.667    0.000    5.000    0.000    0.000 
#   12.000    1.667    0.000    0.000    0.000    0.000 
#    0.000    0.000    0.000    0.000    0.000    0.000 
#
# Total GULP energy -200788.035933 kJ/mol
# GULP energy per Si atom -5577.445443 kJ/mol
# Density = 2.311002 g / cm^3
# Si number density = 23.162741 Si / 1000 Ang^3
#
#
#
# Elastic Constant Matrix: (Units=GPa)
#
#
# Indices 1 2 3 4 5 6 
#
# 1 9.7497 3.1901 9.4892 0.0000 0.0000 0.0000
# 2 3.1901 9.7497 9.4892 0.0000 0.0000 0.0000
# 3 9.4892 9.4892 185.9522 0.0000 0.0000 0.0000
# 4 0.0000 0.0000 0.0000 21.8892 0.0000 0.0000
# 5 0.0000 0.0000 0.0000 0.0000 21.8892 0.0000
# 6 0.0000 0.0000 0.0000 0.0000 0.0000 3.2798
#
#
#
# Elastic Compliance Matrix: (Units=1/GPa)
#
#
# Indices 1 2 3 4 5 6 
#
# 1 0.117990 -0.034457 -0.004263 0.000000 0.000000 0.000000
# 2 -0.034457 0.117990 -0.004263 0.000000 0.000000 0.000000
# 3 -0.004263 -0.004263 0.005813 0.000000 0.000000 0.000000
# 4 0.000000 0.000000 0.000000 0.045685 0.000000 0.000000
# 5 0.000000 0.000000 0.000000 0.000000 0.045685 0.000000
# 6 0.000000 0.000000 0.000000 0.000000 0.000000 0.304893
#
#
# Mechanical properties :
#
#
# Convention : Reuss Voigt Hill
#
# Bulk Modulus (GPa) = 6.41734 27.75429 17.08582
# Shear Modulus (GPa) = 6.44363 21.63055 14.03709
#
# Velocity S-wave (km/s) = 1.66971 3.05921 2.46442
# Velocity P-wave (km/s) = 2.54829 4.94840 3.93577
#
# Compressibility (1/GPa) = 0.15582769
#
# Stress axis : x y z
#
# Youngs Moduli (GPa) = 8.47532 8.47532 172.03474
#
# Poissons Ratio (x) = 0.29203 0.73333
# Poissons Ratio (y) = 0.29203 0.73333
# Poissons Ratio (z) = 0.03613 0.03613
#
# Static dielectric constant tensor:
#      x y z
#    x 1.913070 0.000000 0.000000 
#    y 0.000000 1.913070 0.000000 
#    z 0.000000 0.000000 1.936150 
# 
# From -- ./inp_files/1308.got.cif
#   From: 2010.05.17/outbox.cif.g08.bks.cpg/sg169_cif.got.tgz:1308.got - 2010.05.20 11:12:54.
