data_PCOD9580670
_publ_section_title
;
Structure prediction by ZEFSAII (Michael W. Deem and Ramdas Pophale) SiO2 
 PCOD9580670
Probable space group: P 62
;
_chemical_formula_sum "Si O2"
_cell_formula_units_Z 45
_cell_length_a 11.853686
_cell_length_b 11.853686
_cell_length_c 16.690568
_cell_angle_alpha 90.000000
_cell_angle_beta 90.000000
_cell_angle_gamma 120.000000
_cell_volume 2030.993744
_symmetry_space_group_name_H-M "P 62"
_symmetry_group_IT_number 171
_symmetry_cell_setting 'hexagonal'
loop_
_space_group_symop_operation_xyz
x,y,z
x-y,x,1/3+z
-y,x-y,2/3+z
-x,-y,z
-x+y,-x,1/3+z
y,-x+y,2/3+z
loop_
_atom_site_type_symbol
_atom_site_label
_atom_site_fract_x
_atom_site_fract_y
_atom_site_fract_z
Si Si1 0.119952 0.395581 0.800480
Si Si2 0.362409 0.942494 0.714601
Si Si3 0.336274 0.659487 0.089401
Si Si4 0.282315 0.434021 0.189840
Si Si5 0.024255 0.242663 0.111184
Si Si6 0.000000 0.000000 0.039342
Si Si7 0.801204 0.721587 0.340894
Si Si8 0.899705 0.547742 0.983462
O O1 0.214357 0.534951 0.758758
O O2 0.199761 0.319161 0.806442
O O3 0.097529 0.432357 0.888868
O O4 0.991839 0.292743 0.750664
O O5 0.314842 0.792890 0.734835
O O6 0.228131 0.920870 0.680564
O O7 0.500000 0.000000 0.667391
O O8 0.403569 0.041097 0.789820
O O9 0.311049 0.580491 0.174155
O O10 0.236413 0.556294 0.024492
O O11 0.131003 0.345480 0.169672
O O12 0.294743 0.377222 0.273700
O O13 0.046421 0.122146 0.098223
O O14 0.051687 0.315160 0.026246
O O15 0.878247 0.995329 0.992356
O O16 0.000000 0.500000 0.005656
#
# Coordination Sequence:
#
# PCOD9580670 Si02
#       8
#     6   6   6   6   6   3   6   6
#     4  11  26  42  68 106 136 190 237 292 371 429
#     4  10  23  46  67  94 138 183 235 281 351 424
#     4  10  24  46  68 100 138 188 239 290 358 430
#     4  10  23  43  70  97 139 178 233 300 349 427
#     4  10  22  44  66  98 136 177 239 288 359 430
#     4  10  22  42  64  96 140 170 232 284 358 428
#     4  11  25  43  68 105 137 186 236 299 361 435
#     4  11  24  45  69  98 143 184 235 309 352 428
#
# _framework density 22.156641
#
# number of rings (size 3 to 8) (size 9 to 14) (size 15 to 20)
#    0.000    1.600    2.667    0.000    5.600    3.733 
#    4.800    0.000    0.000    0.000    0.000    0.000 
#    0.000    0.000    0.000    0.000    0.000    0.000 
#
# Total GULP energy -250969.590925 kJ/mol
# GULP energy per Si atom -5577.102021 kJ/mol
# Density = 2.210621 g / cm^3
# Si number density = 22.156641 Si / 1000 Ang^3
#
#
#
# Elastic Constant Matrix: (Units=GPa)
#
#
# Indices 1 2 3 4 5 6 
#
# 1 90.8775 5.2769 3.7948 0.0000 0.0000 0.0000
# 2 5.2769 90.8775 3.7948 0.0000 0.0000 0.0000
# 3 3.7948 3.7948 61.4839 0.0000 0.0000 0.0000
# 4 0.0000 0.0000 0.0000 32.6284 0.0000 0.0000
# 5 0.0000 0.0000 0.0000 0.0000 32.6284 0.0000
# 6 0.0000 0.0000 0.0000 0.0000 0.0000 42.8003
#
#
#
# Elastic Compliance Matrix: (Units=1/GPa)
#
#
# Indices 1 2 3 4 5 6 
#
# 1 0.011067 -0.000616 -0.000645 0.000000 0.000000 0.000000
# 2 -0.000616 0.011067 -0.000645 0.000000 0.000000 0.000000
# 3 -0.000645 -0.000645 0.016344 0.000000 0.000000 0.000000
# 4 0.000000 0.000000 0.000000 0.030648 0.000000 0.000000
# 5 0.000000 0.000000 0.000000 0.000000 0.030648 0.000000
# 6 0.000000 0.000000 0.000000 0.000000 0.000000 0.023364
#
#
# Mechanical properties :
#
#
# Convention : Reuss Voigt Hill
#
# Bulk Modulus (GPa) = 28.84701 29.88576 29.36638
# Shear Modulus (GPa) = 36.09996 36.96958 36.53477
#
# Velocity S-wave (km/s) = 4.04085 4.08923 4.06511
# Velocity P-wave (km/s) = 5.90077 5.98443 5.94275
#
# Compressibility (1/GPa) = 0.03466564
#
# Stress axis : x y z
#
# Youngs Moduli (GPa) = 90.36274 90.36274 61.18436
#
# Poissons Ratio (x) = 0.05563 0.03947
# Poissons Ratio (y) = 0.05563 0.03947
# Poissons Ratio (z) = 0.05829 0.05829
#
# Static dielectric constant tensor:
#      x y z
#    x 1.836560 0.000000 0.000000 
#    y 0.000000 1.836560 0.000000 
#    z 0.000000 0.000000 1.870400 
# 
# From -- ./inp_files/5056.got.cif
#   From: 2010.05.17/outbox.cif.g08.bks.cpg/sg171_3_cif.got.tgz:5056.got - 2010.05.20 11:16:09.
