data_PCOD9580086
_publ_section_title
;
Structure prediction by ZEFSAII (Michael W. Deem and Ramdas Pophale) SiO2 
 PCOD9580086
Probable space group: P 61
;
_chemical_formula_sum "Si O2"
_cell_formula_units_Z 48
_cell_length_a 14.254673
_cell_length_b 14.254673
_cell_length_c 12.557115
_cell_angle_alpha 90.000000
_cell_angle_beta 90.000000
_cell_angle_gamma 120.000000
_cell_volume 2209.708679
_symmetry_space_group_name_H-M "P 61"
_symmetry_group_IT_number 169
_symmetry_cell_setting 'hexagonal'
loop_
_space_group_symop_operation_xyz
x,y,z
x-y,x,1/6+z
-y,x-y,1/3+z
-x,-y,1/2+z
-x+y,-x,2/3+z
y,-x+y,5/6+z
loop_
_atom_site_type_symbol
_atom_site_label
_atom_site_fract_x
_atom_site_fract_y
_atom_site_fract_z
Si Si1 0.970830 0.825935 0.936300
Si Si2 0.799370 0.456908 0.717327
Si Si3 0.957817 0.253630 0.728815
Si Si4 0.660952 0.524805 0.469137
Si Si5 0.205018 0.384087 0.767666
Si Si6 0.371479 0.685310 0.061667
Si Si7 0.533035 0.969245 0.740677
Si Si8 0.605362 0.906501 0.535401
O O1 0.924667 0.861753 0.837349
O O2 0.021494 0.752660 0.898049
O O3 0.866753 0.758631 0.013383
O O4 0.697945 0.348516 0.668284
O O5 0.785465 0.416171 0.838647
O O6 0.894549 0.468847 0.642660
O O7 0.781811 0.559436 0.714203
O O8 0.899668 0.262048 0.834680
O O9 0.964589 0.336366 0.638062
O O10 0.080522 0.291971 0.761031
O O11 0.742403 0.608017 0.382592
O O12 0.687780 0.432525 0.504872
O O13 0.544577 0.461042 0.412610
O O14 0.659626 0.580787 0.580296
O O15 0.223912 0.504606 0.749703
O O16 0.536645 0.932122 0.621061
#
# Coordination Sequence:
#
# PCOD9580086 Si02
#       8
#     6   6   6   6   6   6   6   6
#     4  12  27  55  79 109 147 198 272 337 390 461
#     4  11  23  39  68 106 146 195 237 296 375 457
#     4  12  25  46  78 108 136 196 266 314 375 451
#     4  11  28  42  68 108 151 197 240 311 389 452
#     4  12  25  45  73 103 150 193 250 318 371 457
#     4  11  21  40  65 102 146 193 237 296 374 455
#     4  12  24  42  75 108 146 197 254 302 374 467
#     4  11  27  47  72 106 154 195 248 310 380 468
#
# _framework density 21.722318999999999
#
# number of rings (size 3 to 8) (size 9 to 14) (size 15 to 20)
#    0.000    0.500    7.500    0.000    3.500    2.000 
#    2.250    0.000    0.000    0.000    0.000    0.000 
#    0.000    0.000    0.000    0.000    0.000    0.000 
#
# Total GULP energy -268173.772158 kJ/mol
# GULP energy per Si atom -5586.953587 kJ/mol
# Density = 2.167288 g / cm^3
# Si number density = 21.722319 Si / 1000 Ang^3
#
#
#
# Elastic Constant Matrix: (Units=GPa)
#
#
# Indices 1 2 3 4 5 6 
#
# 1 77.4267 17.1682 35.0798 0.0000 0.0000 0.0000
# 2 17.1682 77.4267 35.0798 0.0000 0.0000 0.0000
# 3 35.0798 35.0798 142.5732 0.0000 0.0000 0.0000
# 4 0.0000 0.0000 0.0000 30.1506 0.0000 0.0000
# 5 0.0000 0.0000 0.0000 0.0000 30.1506 0.0000
# 6 0.0000 0.0000 0.0000 0.0000 0.0000 30.1292
#
#
#
# Elastic Compliance Matrix: (Units=1/GPa)
#
#
# Indices 1 2 3 4 5 6 
#
# 1 0.014763 -0.001832 -0.003182 0.000000 0.000000 0.000000
# 2 -0.001832 0.014763 -0.003182 0.000000 0.000000 0.000000
# 3 -0.003182 -0.003182 0.008580 0.000000 0.000000 0.000000
# 4 0.000000 0.000000 0.000000 0.033167 0.000000 0.000000
# 5 0.000000 0.000000 0.000000 0.000000 0.033167 0.000000
# 6 0.000000 0.000000 0.000000 0.000000 0.000000 0.033190
#
#
# Mechanical properties :
#
#
# Convention : Reuss Voigt Hill
#
# Bulk Modulus (GPa) = 46.05052 52.45358 49.25205
# Shear Modulus (GPa) = 31.00599 32.09268 31.54933
#
# Velocity S-wave (km/s) = 3.78217 3.84787 3.81516
# Velocity P-wave (km/s) = 6.34970 6.62882 6.49076
#
# Compressibility (1/GPa) = 0.02171528
#
# Stress axis : x y z
#
# Youngs Moduli (GPa) = 67.73603 67.73603 116.55509
#
# Poissons Ratio (x) = 0.12409 0.37084
# Poissons Ratio (y) = 0.12409 0.37084
# Poissons Ratio (z) = 0.21552 0.21552
#
# Static dielectric constant tensor:
#      x y z
#    x 1.797640 0.000000 0.000000 
#    y 0.000000 1.797640 0.000000 
#    z 0.000000 0.000000 1.846210 
# 
# From -- ./inp_files/1055.got.cif
#   From: 2010.05.17/outbox.cif.g08.bks.cpg/sg169_cif.got.tgz:1055.got - 2010.05.20 11:12:54.
