data_PCOD9580342
_publ_section_title
;
Structure prediction by ZEFSAII (Michael W. Deem and Ramdas Pophale) SiO2 
 PCOD9580342
Probable space group: P 65
;
_chemical_formula_sum "Si O2"
_cell_formula_units_Z 18
_cell_length_a 5.323541
_cell_length_b 5.323541
_cell_length_c 28.328669
_cell_angle_alpha 90.000000
_cell_angle_beta 90.000000
_cell_angle_gamma 120.000000
_cell_volume 695.277232
_symmetry_space_group_name_H-M "P 65"
_symmetry_group_IT_number 170
_symmetry_cell_setting 'hexagonal'
loop_
_space_group_symop_operation_xyz
x,y,z
x-y,x,5/6+z
-y,x-y,2/3+z
-x,-y,1/2+z
-x+y,-x,1/3+z
y,-x+y,1/6+z
loop_
_atom_site_type_symbol
_atom_site_label
_atom_site_fract_x
_atom_site_fract_y
_atom_site_fract_z
Si Si1 0.517139 0.930334 0.401400
Si Si2 0.981639 0.612337 0.708015
Si Si3 0.928566 0.968380 0.953772
O O1 0.244173 0.637685 0.544966
O O2 0.480808 0.695710 0.362391
O O3 0.215743 0.863087 0.426543
O O4 0.750441 0.938983 0.438062
O O5 0.069311 0.730336 0.761512
O O6 0.018262 0.869726 0.674112
#
# Coordination Sequence:
#
# PCOD9580342 Si02
#       3
#     6   6   6
#     4  10  26  44  68 104 142 184 240 296 360 432
#     4  10  26  45  74 102 146 188 244 298 369 434
#     4  10  26  45  74 102 146 188 244 298 369 434
#
# _framework density 25.888957000000001
#
# number of rings (size 3 to 8) (size 9 to 14) (size 15 to 20)
#    2.000    0.000    0.000    0.000   14.000    2.667 
#    0.000    0.000    0.000    0.000    0.000    0.000 
#    0.000    0.000    0.000    0.000    0.000    0.000 
#
# Total GULP energy -100234.984425 kJ/mol
# GULP energy per Si atom -5568.610246 kJ/mol
# Density = 2.583003 g / cm^3
# Si number density = 25.888957 Si / 1000 Ang^3
#
#
#
# Elastic Constant Matrix: (Units=GPa)
#
#
# Indices 1 2 3 4 5 6 
#
# 1 113.8643 42.2345 24.2905 0.0000 0.0000 0.0000
# 2 42.2345 113.8643 24.2905 0.0000 0.0000 0.0000
# 3 24.2905 24.2905 80.5957 0.0000 0.0000 0.0000
# 4 0.0000 0.0000 0.0000 25.5921 0.0000 0.0000
# 5 0.0000 0.0000 0.0000 0.0000 25.5921 0.0000
# 6 0.0000 0.0000 0.0000 0.0000 0.0000 35.8149
#
#
#
# Elastic Compliance Matrix: (Units=1/GPa)
#
#
# Indices 1 2 3 4 5 6 
#
# 1 0.010515 -0.003446 -0.002131 0.000000 0.000000 0.000000
# 2 -0.003446 0.010515 -0.002131 0.000000 0.000000 0.000000
# 3 -0.002131 -0.002131 0.013692 0.000000 0.000000 0.000000
# 4 0.000000 0.000000 0.000000 0.039075 0.000000 0.000000
# 5 0.000000 0.000000 0.000000 0.000000 0.039075 0.000000
# 6 0.000000 0.000000 0.000000 0.000000 0.000000 0.027921
#
#
# Mechanical properties :
#
#
# Convention : Reuss Voigt Hill
#
# Bulk Modulus (GPa) = 51.79182 54.43950 53.11566
# Shear Modulus (GPa) = 30.74233 31.90038 31.32136
#
# Velocity S-wave (km/s) = 3.44971 3.51408 3.48204
# Velocity P-wave (km/s) = 5.99300 6.12689 6.06031
#
# Compressibility (1/GPa) = 0.01930807
#
# Stress axis : x y z
#
# Youngs Moduli (GPa) = 95.10239 95.10239 73.03600
#
# Poissons Ratio (x) = 0.32769 0.15561
# Poissons Ratio (y) = 0.32769 0.15561
# Poissons Ratio (z) = 0.20262 0.20262
#
# Static dielectric constant tensor:
#      x y z
#    x 2.085880 0.000000 0.000000 
#    y 0.000000 2.085880 0.000000 
#    z 0.000000 0.000000 2.094790 
# 
# From -- ./inp_files/1616.got.cif
#   From: 2010.05.17/outbox.cif.g08.bks.cpg/sg170_cif.got.tgz:1616.got - 2010.05.20 11:14:30.
