data_PCOD9580483
_publ_section_title
;
Structure prediction by ZEFSAII (Michael W. Deem and Ramdas Pophale) SiO2 
 PCOD9580483
Probable space group: P 62
;
_chemical_formula_sum "Si O2"
_cell_formula_units_Z 27
_cell_length_a 13.857942
_cell_length_b 13.857942
_cell_length_c 7.264444
_cell_angle_alpha 90.000000
_cell_angle_beta 90.000000
_cell_angle_gamma 120.000000
_cell_volume 1208.176796
_symmetry_space_group_name_H-M "P 62"
_symmetry_group_IT_number 171
_symmetry_cell_setting 'hexagonal'
loop_
_space_group_symop_operation_xyz
x,y,z
x-y,x,1/3+z
-y,x-y,2/3+z
-x,-y,z
-x+y,-x,1/3+z
y,-x+y,2/3+z
loop_
_atom_site_type_symbol
_atom_site_label
_atom_site_fract_x
_atom_site_fract_y
_atom_site_fract_z
Si Si1 0.404019 0.146949 0.323180
Si Si2 0.791534 0.678716 0.059425
Si Si3 0.500000 0.000000 0.442128
Si Si4 0.577423 0.703439 0.032659
Si Si5 0.018750 0.876013 0.916602
O O1 0.391040 0.163344 0.538858
O O2 0.451960 0.063005 0.320268
O O3 0.467018 0.260902 0.208896
O O4 0.276905 0.082732 0.247992
O O5 0.685377 0.693704 0.088177
O O6 0.813313 0.618718 0.225249
O O7 0.902174 0.795758 0.019543
O O8 0.593602 0.090137 0.579542
O O9 0.092397 0.982393 0.045999
#
# Coordination Sequence:
#
# PCOD9580483 Si02
#       5
#     6   6   3   6   6
#     4  10  23  42  70 100 136 185 231 288 360 410
#     4  10  20  39  64 102 143 173 222 273 347 430
#     4  10  22  48  74 102 144 184 250 308 344 444
#     4  11  23  41  73 103 137 184 228 293 360 415
#     4  10  19  39  65 100 145 183 225 271 339 429
#
# _framework density 22.347719999999999
#
# number of rings (size 3 to 8) (size 9 to 14) (size 15 to 20)
#    0.000    1.778    6.667    0.000    6.222    0.000 
#    0.000   17.778   19.556    0.000    0.000    0.000 
#    0.000    0.000    0.000    0.000    0.000    0.000 
#
# Total GULP energy -151039.627829 kJ/mol
# GULP energy per Si atom -5594.060290 kJ/mol
# Density = 2.229686 g / cm^3
# Si number density = 22.347720 Si / 1000 Ang^3
#
#
#
# Elastic Constant Matrix: (Units=GPa)
#
#
# Indices 1 2 3 4 5 6 
#
# 1 67.3705 15.1622 38.6225 0.0000 0.0000 0.0000
# 2 15.1622 67.3705 38.6225 0.0000 0.0000 0.0000
# 3 38.6225 38.6225 122.8455 0.0000 0.0000 0.0000
# 4 0.0000 0.0000 0.0000 12.3742 0.0000 0.0000
# 5 0.0000 0.0000 0.0000 0.0000 12.3742 0.0000
# 6 0.0000 0.0000 0.0000 0.0000 0.0000 26.1042
#
#
#
# Elastic Compliance Matrix: (Units=1/GPa)
#
#
# Indices 1 2 3 4 5 6 
#
# 1 0.018161 -0.000993 -0.005398 0.000000 0.000000 0.000000
# 2 -0.000993 0.018161 -0.005398 0.000000 0.000000 0.000000
# 3 -0.005398 -0.005398 0.011534 0.000000 0.000000 0.000000
# 4 0.000000 0.000000 0.000000 0.080813 0.000000 0.000000
# 5 0.000000 0.000000 0.000000 0.000000 0.080813 0.000000
# 6 0.000000 0.000000 0.000000 0.000000 0.000000 0.038308
#
#
# Mechanical properties :
#
#
# Convention : Reuss Voigt Hill
#
# Bulk Modulus (GPa) = 41.18589 49.15564 45.17077
# Shear Modulus (GPa) = 17.89161 21.18250 19.53706
#
# Velocity S-wave (km/s) = 2.83256 3.08207 2.95995
# Velocity P-wave (km/s) = 5.40069 5.89145 5.65140
#
# Compressibility (1/GPa) = 0.02428016
#
# Stress axis : x y z
#
# Youngs Moduli (GPa) = 55.06262 55.06262 86.69755
#
# Poissons Ratio (x) = 0.05467 0.46797
# Poissons Ratio (y) = 0.05467 0.46797
# Poissons Ratio (z) = 0.29721 0.29721
#
# Static dielectric constant tensor:
#      x y z
#    x 1.850350 0.000000 0.000000 
#    y 0.000000 1.850350 0.000000 
#    z 0.000000 0.000000 1.840460 
# 
# From -- ./inp_files/1098.got.cif
#   From: 2010.05.17/outbox.cif.g08.bks.cpg/sg171_1_cif.got.tgz:1098.got - 2010.05.20 11:16:09.
