data_PCOD9580741
_publ_section_title
;
Structure prediction by ZEFSAII (Michael W. Deem and Ramdas Pophale) SiO2 
 PCOD9580741
Probable space group: P 62
;
_chemical_formula_sum "Si O2"
_cell_formula_units_Z 21
_cell_length_a 12.938359
_cell_length_b 12.938359
_cell_length_c 6.312080
_cell_angle_alpha 90.000000
_cell_angle_beta 90.000000
_cell_angle_gamma 120.000000
_cell_volume 915.085178
_symmetry_space_group_name_H-M "P 62"
_symmetry_group_IT_number 171
_symmetry_cell_setting 'hexagonal'
loop_
_space_group_symop_operation_xyz
x,y,z
x-y,x,1/3+z
-y,x-y,2/3+z
-x,-y,z
-x+y,-x,1/3+z
y,-x+y,2/3+z
loop_
_atom_site_type_symbol
_atom_site_label
_atom_site_fract_x
_atom_site_fract_y
_atom_site_fract_z
Si Si1 0.107779 0.351332 0.759610
Si Si2 0.179407 0.082811 0.127778
Si Si3 0.500000 0.000000 0.935316
Si Si4 0.556991 0.227770 0.652696
O O1 0.118176 0.310470 0.519046
O O2 0.033283 0.418571 0.744412
O O3 0.232057 0.436961 0.868942
O O4 0.030226 0.222913 0.871561
O O5 0.096039 0.126596 0.234125
O O6 0.467715 0.886126 0.789987
O O7 0.659702 0.262206 0.477893
#
# Coordination Sequence:
#
# PCOD9580741 Si02
#       4
#     6   6   3   6
#     4  10  24  45  74 111 152 199 261 313 380 457
#     4   8  20  40  78 107 155 194 254 313 384 457
#     4  12  28  44  82 108 158 204 258 324 380 462
#     4  12  28  47  77 116 153 204 258 315 393 455
#
# _framework density 22.948684
#
# number of rings (size 3 to 8) (size 9 to 14) (size 15 to 20)
#    1.714    0.000    2.857    0.000   12.000    0.000 
#    0.000    0.000    6.286    1.714    0.000    0.000 
#    0.000    0.000    0.000    0.000    0.000    0.000 
#
# Total GULP energy -117118.070832 kJ/mol
# GULP energy per Si atom -5577.050992 kJ/mol
# Density = 2.289645 g / cm^3
# Si number density = 22.948684 Si / 1000 Ang^3
#
#
#
# Elastic Constant Matrix: (Units=GPa)
#
#
# Indices 1 2 3 4 5 6 
#
# 1 110.6358 29.1233 36.7900 0.0000 0.0000 0.0000
# 2 29.1233 110.6358 36.7900 0.0000 0.0000 0.0000
# 3 36.7900 36.7900 63.9572 0.0000 0.0000 0.0000
# 4 0.0000 0.0000 0.0000 25.7946 0.0000 0.0000
# 5 0.0000 0.0000 0.0000 0.0000 25.7946 0.0000
# 6 0.0000 0.0000 0.0000 0.0000 0.0000 40.7563
#
#
#
# Elastic Compliance Matrix: (Units=1/GPa)
#
#
# Indices 1 2 3 4 5 6 
#
# 1 0.011266 -0.001002 -0.005904 0.000000 0.000000 0.000000
# 2 -0.001002 0.011266 -0.005904 0.000000 0.000000 0.000000
# 3 -0.005904 -0.005904 0.022428 0.000000 0.000000 0.000000
# 4 0.000000 0.000000 0.000000 0.038768 0.000000 0.000000
# 5 0.000000 0.000000 0.000000 0.000000 0.038768 0.000000
# 6 0.000000 0.000000 0.000000 0.000000 0.000000 0.024536
#
#
# Mechanical properties :
#
#
# Convention : Reuss Voigt Hill
#
# Bulk Modulus (GPa) = 51.70869 54.51505 53.11187
# Shear Modulus (GPa) = 27.91784 30.63745 29.27764
#
# Velocity S-wave (km/s) = 3.49167 3.65779 3.57569
# Velocity P-wave (km/s) = 6.23192 6.45337 6.34361
#
# Compressibility (1/GPa) = 0.01933911
#
# Stress axis : x y z
#
# Youngs Moduli (GPa) = 88.76482 88.76482 44.58806
#
# Poissons Ratio (x) = 0.08897 0.26324
# Poissons Ratio (y) = 0.08897 0.26324
# Poissons Ratio (z) = 0.52405 0.52405
#
# Static dielectric constant tensor:
#      x y z
#    x 1.850140 0.000000 0.000000 
#    y 0.000000 1.850140 0.000000 
#    z 0.000000 0.000000 1.958210 
# 
# From -- ./inp_files/497.got.cif
#   From: 2010.05.17/outbox.cif.g08.bks.cpg/sg171_1_cif.got.tgz:497.got - 2010.05.20 11:16:09.
