data_PCOD9580739
_publ_section_title
;
Structure prediction by ZEFSAII (Michael W. Deem and Ramdas Pophale) SiO2 
 PCOD9580739
Probable space group: P 62
;
_chemical_formula_sum "Si O2"
_cell_formula_units_Z 42
_cell_length_a 12.679360
_cell_length_b 12.679360
_cell_length_c 13.256190
_cell_angle_alpha 90.000000
_cell_angle_beta 90.000000
_cell_angle_gamma 120.000000
_cell_volume 1845.627350
_symmetry_space_group_name_H-M "P 62"
_symmetry_group_IT_number 171
_symmetry_cell_setting 'hexagonal'
loop_
_space_group_symop_operation_xyz
x,y,z
x-y,x,1/3+z
-y,x-y,2/3+z
-x,-y,z
-x+y,-x,1/3+z
y,-x+y,2/3+z
loop_
_atom_site_type_symbol
_atom_site_label
_atom_site_fract_x
_atom_site_fract_y
_atom_site_fract_z
Si Si1 0.397891 0.725697 0.844280
Si Si2 0.124951 0.122528 0.789432
Si Si3 0.261996 0.480263 0.959159
Si Si4 0.276182 0.970068 0.170453
Si Si5 0.761709 0.767556 0.987328
Si Si6 0.227305 0.849356 0.841334
Si Si7 0.942338 0.358630 0.632492
O O1 0.335331 0.587617 0.880411
O O2 0.459054 0.740432 0.735430
O O3 0.300553 0.775144 0.840714
O O4 0.500139 0.805761 0.927453
O O5 0.086775 0.227536 0.787907
O O6 0.182002 0.080972 0.699281
O O7 0.219082 0.166759 0.881419
O O8 0.000000 0.000000 0.815483
O O9 0.127051 0.406211 0.911486
O O10 0.299213 0.376605 0.971007
O O11 0.318308 0.096467 0.227583
O O12 0.373706 0.017895 0.079953
O O13 0.681961 0.795557 0.063753
O O14 0.301827 0.978483 0.895429
O O15 0.000000 0.500000 0.607340
#
# Coordination Sequence:
#
# PCOD9580739 Si02
#       7
#     6   6   6   6   6   6   6
#     4  11  25  50  75 104 153 200 262 313 377 467
#     4  11  24  42  68 105 152 189 243 313 376 450
#     4  11  27  47  72 109 151 200 251 322 387 446
#     4  11  26  42  72 107 151 190 251 307 391 444
#     4  11  25  45  68 108 148 199 246 305 387 458
#     4  11  24  41  76 103 141 197 261 301 380 466
#     4  10  24  45  72 102 138 197 256 302 365 460
#
# _framework density 22.756489999999999
#
# number of rings (size 3 to 8) (size 9 to 14) (size 15 to 20)
#    0.000    1.143    2.857    1.286   12.000    1.143 
#    0.000    4.286    0.000    0.000    0.000    0.000 
#    0.000    0.000    0.000    0.000    0.000    0.000 
#
# Total GULP energy -234701.938875 kJ/mol
# GULP energy per Si atom -5588.141402 kJ/mol
# Density = 2.270470 g / cm^3
# Si number density = 22.756490 Si / 1000 Ang^3
#
#
#
# Elastic Constant Matrix: (Units=GPa)
#
#
# Indices 1 2 3 4 5 6 
#
# 1 95.0841 43.3621 18.5026 0.0000 0.0000 0.0000
# 2 43.3621 95.0841 18.5026 0.0000 0.0000 0.0000
# 3 18.5026 18.5026 49.7154 0.0000 0.0000 0.0000
# 4 0.0000 0.0000 0.0000 37.6247 0.0000 0.0000
# 5 0.0000 0.0000 0.0000 0.0000 37.6247 0.0000
# 6 0.0000 0.0000 0.0000 0.0000 0.0000 25.8610
#
#
#
# Elastic Compliance Matrix: (Units=1/GPa)
#
#
# Indices 1 2 3 4 5 6 
#
# 1 0.013678 -0.005657 -0.002985 0.000000 0.000000 0.000000
# 2 -0.005657 0.013678 -0.002985 0.000000 0.000000 0.000000
# 3 -0.002985 -0.002985 0.022336 0.000000 0.000000 0.000000
# 4 0.000000 0.000000 0.000000 0.026578 0.000000 0.000000
# 5 0.000000 0.000000 0.000000 0.000000 0.026578 0.000000
# 6 0.000000 0.000000 0.000000 0.000000 0.000000 0.038668
#
#
# Mechanical properties :
#
#
# Convention : Reuss Voigt Hill
#
# Bulk Modulus (GPa) = 37.82473 44.51311 41.16892
# Shear Modulus (GPa) = 28.80469 30.85649 29.83059
#
# Velocity S-wave (km/s) = 3.56164 3.68631 3.62451
# Velocity P-wave (km/s) = 5.79407 6.14179 5.97046
#
# Compressibility (1/GPa) = 0.02643773
#
# Stress axis : x y z
#
# Youngs Moduli (GPa) = 73.11256 73.11256 44.76984
#
# Poissons Ratio (x) = 0.41357 0.13364
# Poissons Ratio (y) = 0.41357 0.13364
# Poissons Ratio (z) = 0.21825 0.21825
#
# Static dielectric constant tensor:
#      x y z
#    x 1.870100 0.000000 0.000000 
#    y 0.000000 1.870100 0.000000 
#    z 0.000000 0.000000 1.875500 
# 
# From -- ./inp_files/2475.got.cif
#   From: 2010.05.17/outbox.cif.g08.bks.cpg/sg171_2_cif.got.tgz:2475.got - 2010.05.20 11:16:09.
