data_PCOD9580389
_publ_section_title
;
Structure prediction by ZEFSAII (Michael W. Deem and Ramdas Pophale) SiO2 
 PCOD9580389
Probable space group: P 65
;
_chemical_formula_sum "Si O2"
_cell_formula_units_Z 30
_cell_length_a 17.596853
_cell_length_b 17.596853
_cell_length_c 5.105765
_cell_angle_alpha 90.000000
_cell_angle_beta 90.000000
_cell_angle_gamma 120.000000
_cell_volume 1369.182898
_symmetry_space_group_name_H-M "P 65"
_symmetry_group_IT_number 170
_symmetry_cell_setting 'hexagonal'
loop_
_space_group_symop_operation_xyz
x,y,z
x-y,x,5/6+z
-y,x-y,2/3+z
-x,-y,1/2+z
-x+y,-x,1/3+z
y,-x+y,1/6+z
loop_
_atom_site_type_symbol
_atom_site_label
_atom_site_fract_x
_atom_site_fract_y
_atom_site_fract_z
Si Si1 0.596040 0.123934 0.785460
Si Si2 0.372921 0.170820 0.398487
Si Si3 0.369139 0.393116 0.466229
Si Si4 0.263717 0.900780 0.039925
Si Si5 0.422082 0.693370 0.995892
O O1 0.495516 0.082222 0.704117
O O2 0.667368 0.134947 0.569257
O O3 0.621451 0.209640 0.949862
O O4 0.608052 0.057052 0.981601
O O5 0.360968 0.074391 0.435717
O O6 0.331597 0.190350 0.650147
O O7 0.476956 0.234115 0.455896
O O8 0.345829 0.206565 0.142658
O O9 0.339127 0.332572 0.727625
O O10 0.365526 0.737696 0.910002
#
# Coordination Sequence:
#
# PCOD9580389 Si02
#       5
#     6   6   6   6   6
#     4  11  25  38  63  89 120 168 233 271 350 417
#     4  11  28  39  65  86 127 164 222 280 361 398
#     4  12  24  41  66  88 125 172 219 291 348 422
#     4  11  24  46  56  94 118 158 224 280 330 433
#     4  11  25  38  56  85 124 166 218 294 345 398
#
# _framework density 21.910879999999999
#
# number of rings (size 3 to 8) (size 9 to 14) (size 15 to 20)
#    0.000    0.800    6.000    1.200   19.600    0.000 
#    0.000    0.000    0.000    0.000    0.000    0.000 
#    0.000    0.000    0.000    0.000    7.600    4.400 
#
# Total GULP energy -167065.897775 kJ/mol
# GULP energy per Si atom -5568.863259 kJ/mol
# Density = 2.186101 g / cm^3
# Si number density = 21.910880 Si / 1000 Ang^3
#
#
#
# Elastic Constant Matrix: (Units=GPa)
#
#
# Indices 1 2 3 4 5 6 
#
# 1 49.7249 17.7684 30.3440 0.0000 0.0000 0.0000
# 2 17.7684 49.7249 30.3440 0.0000 0.0000 0.0000
# 3 30.3440 30.3440 134.4496 0.0000 0.0000 0.0000
# 4 0.0000 0.0000 0.0000 30.1424 0.0000 0.0000
# 5 0.0000 0.0000 0.0000 0.0000 30.1424 0.0000
# 6 0.0000 0.0000 0.0000 0.0000 0.0000 15.9782
#
#
#
# Elastic Compliance Matrix: (Units=1/GPa)
#
#
# Indices 1 2 3 4 5 6 
#
# 1 0.024941 -0.006352 -0.004195 0.000000 0.000000 0.000000
# 2 -0.006352 0.024941 -0.004195 0.000000 0.000000 0.000000
# 3 -0.004195 -0.004195 0.009331 0.000000 0.000000 0.000000
# 4 0.000000 0.000000 0.000000 0.033176 0.000000 0.000000
# 5 0.000000 0.000000 0.000000 0.000000 0.033176 0.000000
# 6 0.000000 0.000000 0.000000 0.000000 0.000000 0.062585
#
#
# Mechanical properties :
#
#
# Convention : Reuss Voigt Hill
#
# Bulk Modulus (GPa) = 33.63895 43.42360 38.53127
# Shear Modulus (GPa) = 21.97380 25.61545 23.79462
#
# Velocity S-wave (km/s) = 3.17025 3.42288 3.29899
# Velocity P-wave (km/s) = 5.36531 5.95674 5.66875
#
# Compressibility (1/GPa) = 0.02972744
#
# Stress axis : x y z
#
# Youngs Moduli (GPa) = 40.09531 40.09531 107.16512
#
# Poissons Ratio (x) = 0.25469 0.44959
# Poissons Ratio (y) = 0.25469 0.44959
# Poissons Ratio (z) = 0.16821 0.16821
#
# Static dielectric constant tensor:
#      x y z
#    x 1.871310 0.000000 0.000000 
#    y 0.000000 1.871310 0.000000 
#    z 0.000000 0.000000 1.947930 
# 
# From -- ./inp_files/132.got.cif
#   From: 2010.05.17/outbox.cif.g08.bks.cpg/sg170_cif.got.tgz:132.got - 2010.05.20 11:14:30.
