data_PCOD9580748
_publ_section_title
;
Structure prediction by ZEFSAII (Michael W. Deem and Ramdas Pophale) SiO2 
 PCOD9580748
Probable space group: P 62
;
_chemical_formula_sum "Si O2"
_cell_formula_units_Z 30
_cell_length_a 10.151552
_cell_length_b 10.151552
_cell_length_c 14.064700
_cell_angle_alpha 90.000000
_cell_angle_beta 90.000000
_cell_angle_gamma 120.000000
_cell_volume 1255.237751
_symmetry_space_group_name_H-M "P 62"
_symmetry_group_IT_number 171
_symmetry_cell_setting 'hexagonal'
loop_
_space_group_symop_operation_xyz
x,y,z
x-y,x,1/3+z
-y,x-y,2/3+z
-x,-y,z
-x+y,-x,1/3+z
y,-x+y,2/3+z
loop_
_atom_site_type_symbol
_atom_site_label
_atom_site_fract_x
_atom_site_fract_y
_atom_site_fract_z
Si Si1 0.327616 0.665068 0.365600
Si Si2 0.927334 0.318862 0.302531
Si Si3 0.831354 0.682036 0.648281
Si Si4 0.687037 0.848657 0.088528
Si Si5 0.683170 0.081386 0.448843
O O1 0.244473 0.715459 0.285056
O O2 0.504419 0.742239 0.342577
O O3 0.262850 0.489335 0.388378
O O4 0.277274 0.743810 0.449105
O O5 0.000000 0.500000 0.320258
O O6 0.991164 0.265379 0.389667
O O7 0.011382 0.302276 0.210537
O O8 0.835610 0.699711 0.535150
O O9 0.713028 0.726856 0.692581
O O10 0.993269 0.777512 0.699936
O O11 0.500000 0.000000 0.442330
#
# Coordination Sequence:
#
# PCOD9580748 Si02
#       5
#     6   6   6   6   6
#     4  10  27  42  75 108 156 198 268 312 395 468
#     4  10  24  47  76 107 149 206 260 314 390 480
#     4  12  27  47  73 115 156 202 257 334 398 473
#     4  12  27  47  73 115 156 202 257 334 398 473
#     4  10  24  47  76 107 149 206 260 314 390 480
#
# _framework density 23.899856
#
# number of rings (size 3 to 8) (size 9 to 14) (size 15 to 20)
#    1.200    0.000    0.000    4.200    5.600    5.600 
#    0.000    4.000    0.000    0.000    0.000    0.000 
#    0.000    0.000    0.000    0.000    0.000    0.000 
#
# Total GULP energy -167211.883191 kJ/mol
# GULP energy per Si atom -5573.729440 kJ/mol
# Density = 2.384546 g / cm^3
# Si number density = 23.899856 Si / 1000 Ang^3
#
#
#
# Elastic Constant Matrix: (Units=GPa)
#
#
# Indices 1 2 3 4 5 6 
#
# 1 112.8411 24.0726 15.9461 0.0000 0.0000 0.0000
# 2 24.0726 112.8411 15.9461 0.0000 0.0000 0.0000
# 3 15.9461 15.9461 145.5276 0.0000 0.0000 0.0000
# 4 0.0000 0.0000 0.0000 25.9113 0.0000 0.0000
# 5 0.0000 0.0000 0.0000 0.0000 25.9113 0.0000
# 6 0.0000 0.0000 0.0000 0.0000 0.0000 44.3842
#
#
#
# Elastic Compliance Matrix: (Units=1/GPa)
#
#
# Indices 1 2 3 4 5 6 
#
# 1 0.009380 -0.001885 -0.000821 0.000000 0.000000 0.000000
# 2 -0.001885 0.009380 -0.000821 0.000000 0.000000 0.000000
# 3 -0.000821 -0.000821 0.007052 0.000000 0.000000 0.000000
# 4 0.000000 0.000000 0.000000 0.038593 0.000000 0.000000
# 5 0.000000 0.000000 0.000000 0.000000 0.038593 0.000000
# 6 0.000000 0.000000 0.000000 0.000000 0.000000 0.022531
#
#
# Mechanical properties :
#
#
# Convention : Reuss Voigt Hill
#
# Bulk Modulus (GPa) = 53.31408 53.68214 53.49811
# Shear Modulus (GPa) = 36.01362 40.25769 38.13566
#
# Velocity S-wave (km/s) = 3.88603 4.10864 3.99888
# Velocity P-wave (km/s) = 6.51849 6.70954 6.61470
#
# Compressibility (1/GPa) = 0.01875677
#
# Stress axis : x y z
#
# Youngs Moduli (GPa) = 106.60730 106.60730 141.81312
#
# Poissons Ratio (x) = 0.20096 0.11647
# Poissons Ratio (y) = 0.20096 0.11647
# Poissons Ratio (z) = 0.08755 0.08755
#
# Static dielectric constant tensor:
#      x y z
#    x 1.982450 0.000000 0.000000 
#    y 0.000000 1.982450 0.000000 
#    z 0.000000 0.000000 2.173180 
# 
# From -- ./inp_files/4754.got.cif
#   From: 2010.05.17/outbox.cif.g08.bks.cpg/sg171_3_cif.got.tgz:4754.got - 2010.05.20 11:16:09.
