data_PCOD9580318
_publ_section_title
;
Structure prediction by ZEFSAII (Michael W. Deem and Ramdas Pophale) SiO2 
 PCOD9580318
Probable space group: P 65
;
_chemical_formula_sum "Si O2"
_cell_formula_units_Z 48
_cell_length_a 11.820584
_cell_length_b 11.820584
_cell_length_c 18.339460
_cell_angle_alpha 90.000000
_cell_angle_beta 90.000000
_cell_angle_gamma 120.000000
_cell_volume 2219.192841
_symmetry_space_group_name_H-M "P 65"
_symmetry_group_IT_number 170
_symmetry_cell_setting 'hexagonal'
loop_
_space_group_symop_operation_xyz
x,y,z
x-y,x,5/6+z
-y,x-y,2/3+z
-x,-y,1/2+z
-x+y,-x,1/3+z
y,-x+y,1/6+z
loop_
_atom_site_type_symbol
_atom_site_label
_atom_site_fract_x
_atom_site_fract_y
_atom_site_fract_z
Si Si1 0.906404 0.619875 0.864330
Si Si2 0.549827 0.406025 0.158263
Si Si3 0.641032 0.631143 0.867574
Si Si4 0.593976 0.143802 0.324930
Si Si5 0.713471 0.093596 0.697664
Si Si6 0.814476 0.207069 0.934400
Si Si7 0.814477 0.207069 0.434400
Si Si8 0.631143 0.990111 0.534241
O O1 0.770403 0.618737 0.867956
O O2 0.872388 0.487307 0.906404
O O3 0.950460 0.627769 0.781631
O O4 0.033603 0.729156 0.911010
O O5 0.500000 0.500000 0.188894
O O6 0.512694 0.385081 0.073070
O O7 0.470857 0.269843 0.197831
O O8 0.703909 0.493799 0.159522
O O9 0.674174 0.742791 0.806859
O O10 0.500000 0.500000 0.852956
O O11 0.506202 0.210111 0.326189
O O12 0.730158 0.201013 0.364497
O O13 0.848334 0.229597 0.701290
O O14 0.695552 0.966397 0.744343
O O15 0.677309 0.049540 0.614964
O O16 0.742791 0.068616 0.473525
#
# Coordination Sequence:
#
# PCOD9580318 Si02
#       8
#     6   6   6   6   6   6   6   6
#     4  11  26  48  66 105 148 187 243 306 373 451
#     4  10  23  42  69  99 141 179 233 303 362 435
#     4  12  28  44  76 107 143 195 256 308 375 452
#     4  10  23  42  69  99 141 179 233 303 362 435
#     4  11  26  48  66 105 148 187 243 306 373 451
#     4  11  25  44  72 103 142 190 239 301 380 438
#     4  11  25  44  72 103 142 190 239 301 380 438
#     4  12  28  44  76 107 143 195 256 308 375 452
#
# _framework density 21.629484000000001
#
# number of rings (size 3 to 8) (size 9 to 14) (size 15 to 20)
#    0.000    1.000    2.500    3.000   14.000    0.000 
#    0.000    3.750    0.000    0.000    0.000    0.000 
#    0.000    0.000    0.000    0.000    0.000    0.000 
#
# Total GULP energy -267725.290663 kJ/mol
# GULP energy per Si atom -5577.610222 kJ/mol
# Density = 2.158025 g / cm^3
# Si number density = 21.629484 Si / 1000 Ang^3
#
#
#
# Elastic Constant Matrix: (Units=GPa)
#
#
# Indices 1 2 3 4 5 6 
#
# 1 126.7000 56.2788 23.8385 0.0000 0.0000 0.0000
# 2 56.2788 126.7000 23.8385 0.0000 0.0000 0.0000
# 3 23.8385 23.8385 96.1617 0.0000 0.0000 0.0000
# 4 0.0000 0.0000 0.0000 26.2959 0.0000 0.0000
# 5 0.0000 0.0000 0.0000 0.0000 26.2959 0.0000
# 6 0.0000 0.0000 0.0000 0.0000 0.0000 35.2106
#
#
#
# Elastic Compliance Matrix: (Units=1/GPa)
#
#
# Indices 1 2 3 4 5 6 
#
# 1 0.010021 -0.004179 -0.001448 0.000000 0.000000 0.000000
# 2 -0.004179 0.010021 -0.001448 0.000000 0.000000 0.000000
# 3 -0.001448 -0.001448 0.011117 0.000000 0.000000 0.000000
# 4 0.000000 0.000000 0.000000 0.038029 0.000000 0.000000
# 5 0.000000 0.000000 0.000000 0.000000 0.038029 0.000000
# 6 0.000000 0.000000 0.000000 0.000000 0.000000 0.028401
#
#
# Mechanical properties :
#
#
# Convention : Reuss Voigt Hill
#
# Bulk Modulus (GPa) = 58.79301 61.94146 60.36724
# Shear Modulus (GPa) = 32.16699 33.93421 33.05060
#
# Velocity S-wave (km/s) = 3.86058 3.96521 3.91325
# Velocity P-wave (km/s) = 6.86389 7.04724 6.95617
#
# Compressibility (1/GPa) = 0.01700882
#
# Stress axis : x y z
#
# Youngs Moduli (GPa) = 99.78671 99.78671 89.95032
#
# Poissons Ratio (x) = 0.41700 0.13028
# Poissons Ratio (y) = 0.41700 0.13028
# Poissons Ratio (z) = 0.14453 0.14453
#
# Static dielectric constant tensor:
#      x y z
#    x 1.811400 0.000000 0.000000 
#    y 0.000000 1.811400 0.000000 
#    z 0.000000 0.000000 1.828540 
# 
# From -- ./inp_files/1465.got.cif
#   From: 2010.05.17/outbox.cif.g08.bks.cpg/sg170_cif.got.tgz:1465.got - 2010.05.20 11:14:30.
