data_PCOD9580202
_publ_section_title
;
Structure prediction by ZEFSAII (Michael W. Deem and Ramdas Pophale) SiO2 
 PCOD9580202
Probable space group: P 65
;
_chemical_formula_sum "Si O2"
_cell_formula_units_Z 48
_cell_length_a 11.323038
_cell_length_b 11.323038
_cell_length_c 18.161632
_cell_angle_alpha 90.000000
_cell_angle_beta 90.000000
_cell_angle_gamma 120.000000
_cell_volume 2016.561321
_symmetry_space_group_name_H-M "P 65"
_symmetry_group_IT_number 170
_symmetry_cell_setting 'hexagonal'
loop_
_space_group_symop_operation_xyz
x,y,z
x-y,x,5/6+z
-y,x-y,2/3+z
-x,-y,1/2+z
-x+y,-x,1/3+z
y,-x+y,1/6+z
loop_
_atom_site_type_symbol
_atom_site_label
_atom_site_fract_x
_atom_site_fract_y
_atom_site_fract_z
Si Si1 0.745901 0.247884 0.534150
Si Si2 0.310988 0.163435 0.501652
Si Si3 0.003092 0.991224 0.160049
Si Si4 0.266488 0.758100 0.872805
Si Si5 0.300398 0.517671 0.089986
Si Si6 0.277499 0.268473 0.640868
Si Si7 0.582170 0.649786 0.869329
Si Si8 0.422230 0.963319 0.152566
O O1 0.683459 0.190075 0.454665
O O2 0.702928 0.361494 0.545391
O O3 0.705399 0.140065 0.600561
O O4 0.905122 0.309967 0.515450
O O5 0.341039 0.280762 0.560122
O O6 0.352318 0.219238 0.421401
O O7 0.149870 0.059689 0.505857
O O8 0.390553 0.087771 0.525330
O O9 0.046599 0.972251 0.244614
O O10 0.882492 0.837910 0.142857
O O11 0.398173 0.800858 0.823007
O O12 0.199326 0.847202 0.848668
O O13 0.152739 0.599033 0.860004
O O14 0.150726 0.446507 0.127606
O O15 0.353321 0.430037 0.044046
O O16 0.473856 0.531553 0.922359
#
# Coordination Sequence:
#
# PCOD9580202 Si02
#       8
#     6   6   6   6   6   6   6   6
#     4  11  26  43  70 108 148 196 240 306 382 445
#     4  11  21  40  71 105 126 182 253 306 352 422
#     4  10  19  37  60  98 134 169 236 298 360 422
#     4  11  21  42  77  98 134 198 250 306 354 435
#     4  11  27  44  67 107 150 187 241 307 382 452
#     4  11  21  40  72 107 133 180 249 306 352 430
#     4  12  24  42  72 100 139 186 247 308 369 439
#     4  11  25  48  69 107 150 194 254 303 373 459
#
# _framework density 23.802896
#
# number of rings (size 3 to 8) (size 9 to 14) (size 15 to 20)
#    0.000    1.000    3.750    4.500    5.250    1.000 
#    2.250    0.000    0.000    0.000    0.000    0.000 
#    0.000    0.000    0.000    0.000    0.000    0.000 
#
# Total GULP energy -267355.782989 kJ/mol
# GULP energy per Si atom -5569.912146 kJ/mol
# Density = 2.374872 g / cm^3
# Si number density = 23.802896 Si / 1000 Ang^3
#
#
#
# Elastic Constant Matrix: (Units=GPa)
#
#
# Indices 1 2 3 4 5 6 
#
# 1 51.6908 7.1600 14.6102 0.0000 0.0000 0.0000
# 2 7.1600 51.6908 14.6102 0.0000 0.0000 0.0000
# 3 14.6102 14.6102 112.8494 0.0000 0.0000 0.0000
# 4 0.0000 0.0000 0.0000 45.6828 0.0000 0.0000
# 5 0.0000 0.0000 0.0000 0.0000 45.6828 0.0000
# 6 0.0000 0.0000 0.0000 0.0000 0.0000 22.2654
#
#
#
# Elastic Compliance Matrix: (Units=1/GPa)
#
#
# Indices 1 2 3 4 5 6 
#
# 1 0.020308 -0.002148 -0.002351 0.000000 0.000000 0.000000
# 2 -0.002148 0.020308 -0.002351 0.000000 0.000000 0.000000
# 3 -0.002351 -0.002351 0.009470 0.000000 0.000000 0.000000
# 4 0.000000 0.000000 0.000000 0.021890 0.000000 0.000000
# 5 0.000000 0.000000 0.000000 0.000000 0.021890 0.000000
# 6 0.000000 0.000000 0.000000 0.000000 0.000000 0.044913
#
#
# Mechanical properties :
#
#
# Convention : Reuss Voigt Hill
#
# Bulk Modulus (GPa) = 27.48394 32.11019 29.79707
# Shear Modulus (GPa) = 30.37516 34.71625 32.54570
#
# Velocity S-wave (km/s) = 3.57615 3.82316 3.70171
# Velocity P-wave (km/s) = 5.35007 5.74526 5.55119
#
# Compressibility (1/GPa) = 0.03638488
#
# Stress axis : x y z
#
# Youngs Moduli (GPa) = 49.24189 49.24189 105.59516
#
# Poissons Ratio (x) = 0.10579 0.24826
# Poissons Ratio (y) = 0.10579 0.24826
# Poissons Ratio (z) = 0.11577 0.11577
#
# Static dielectric constant tensor:
#      x y z
#    x 1.959070 0.000000 0.000000 
#    y 0.000000 1.959070 0.000000 
#    z 0.000000 0.000000 2.040130 
# 
# From -- ./inp_files/1450.got.cif
#   From: 2010.05.17/outbox.cif.g08.bks.cpg/sg170_cif.got.tgz:1450.got - 2010.05.20 11:14:30.
