data_PCOD9580421
_publ_section_title
;
Structure prediction by ZEFSAII (Michael W. Deem and Ramdas Pophale) SiO2 
 PCOD9580421
Probable space group: P 62
;
_chemical_formula_sum "Si O2"
_cell_formula_units_Z 36
_cell_length_a 18.238645
_cell_length_b 18.238645
_cell_length_c 7.385349
_cell_angle_alpha 90.000000
_cell_angle_beta 90.000000
_cell_angle_gamma 120.000000
_cell_volume 2127.584390
_symmetry_space_group_name_H-M "P 62"
_symmetry_group_IT_number 171
_symmetry_cell_setting 'hexagonal'
loop_
_space_group_symop_operation_xyz
x,y,z
x-y,x,1/3+z
-y,x-y,2/3+z
-x,-y,z
-x+y,-x,1/3+z
y,-x+y,2/3+z
loop_
_atom_site_type_symbol
_atom_site_label
_atom_site_fract_x
_atom_site_fract_y
_atom_site_fract_z
Si Si1 0.894727 0.531066 0.231830
Si Si2 0.072758 0.428435 0.627586
Si Si3 0.373380 0.730180 0.992004
Si Si4 0.738843 0.207623 0.220648
Si Si5 0.900331 0.386286 0.723622
Si Si6 0.458838 0.089628 0.486510
O O1 0.884112 0.556028 0.433197
O O2 0.895563 0.442733 0.236837
O O3 0.991562 0.601367 0.182924
O O4 0.828451 0.522482 0.079813
O O5 0.123615 0.406181 0.771937
O O6 0.081392 0.518074 0.689670
O O7 0.970881 0.371657 0.628014
O O8 0.364630 0.655232 0.119274
O O9 0.311328 0.754962 0.103325
O O10 0.470003 0.804172 0.994943
O O11 0.836617 0.279201 0.223337
O O12 0.901726 0.373592 0.937168
#
# Coordination Sequence:
#
# PCOD9580421 Si02
#       6
#     6   6   6   6   6   6
#     4  11  21  38  53  70 102 132 174 219 268 324
#     4  10  20  36  53  69  94 132 173 218 265 323
#     4  11  22  32  45  69 103 131 172 231 278 312
#     4  11  21  36  49  73  95 126 175 221 266 307
#     4  10  17  35  49  64  92 134 169 211 277 319
#     4  11  19  36  55  68  97 140 169 218 272 313
#
# _framework density 16.920597999999998
#
# number of rings (size 3 to 8) (size 9 to 14) (size 15 to 20)
#    0.000    1.333    6.667    3.000    0.000    6.667 
#    6.000    0.000    0.000    0.000    0.000    0.000 
#    0.000    0.000    0.000    0.000    0.000    8.333 
#
# Total GULP energy -200948.954215 kJ/mol
# GULP energy per Si atom -5581.915395 kJ/mol
# Density = 1.688209 g / cm^3
# Si number density = 16.920598 Si / 1000 Ang^3
#
#
#
# Elastic Constant Matrix: (Units=GPa)
#
#
# Indices 1 2 3 4 5 6 
#
# 1 71.8067 23.9288 20.1859 0.0000 0.0000 0.0000
# 2 23.9288 71.8067 20.1859 0.0000 0.0000 0.0000
# 3 20.1859 20.1859 71.7985 0.0000 0.0000 0.0000
# 4 0.0000 0.0000 0.0000 20.1326 0.0000 0.0000
# 5 0.0000 0.0000 0.0000 0.0000 20.1326 0.0000
# 6 0.0000 0.0000 0.0000 0.0000 0.0000 23.9389
#
#
#
# Elastic Compliance Matrix: (Units=1/GPa)
#
#
# Indices 1 2 3 4 5 6 
#
# 1 0.016368 -0.004518 -0.003332 0.000000 0.000000 0.000000
# 2 -0.004518 0.016368 -0.003332 0.000000 0.000000 0.000000
# 3 -0.003332 -0.003332 0.015801 0.000000 0.000000 0.000000
# 4 0.000000 0.000000 0.000000 0.049671 0.000000 0.000000
# 5 0.000000 0.000000 0.000000 0.000000 0.049671 0.000000
# 6 0.000000 0.000000 0.000000 0.000000 0.000000 0.041773
#
#
# Mechanical properties :
#
#
# Convention : Reuss Voigt Hill
#
# Bulk Modulus (GPa) = 38.20394 38.22366 38.21380
# Shear Modulus (GPa) = 22.65103 22.91491 22.78297
#
# Velocity S-wave (km/s) = 3.66275 3.68402 3.67340
# Velocity P-wave (km/s) = 6.36514 6.38240 6.37378
#
# Compressibility (1/GPa) = 0.02617531
#
# Stress axis : x y z
#
# Youngs Moduli (GPa) = 61.09312 61.09312 63.28605
#
# Poissons Ratio (x) = 0.27602 0.21085
# Poissons Ratio (y) = 0.27602 0.21085
# Poissons Ratio (z) = 0.20354 0.20354
#
# Static dielectric constant tensor:
#      x y z
#    x 1.650220 0.000000 0.000000 
#    y 0.000000 1.650220 0.000000 
#    z 0.000000 0.000000 1.633630 
# 
# From -- ./inp_files/714.got.cif
#   From: 2010.05.17/outbox.cif.g08.bks.cpg/sg171_1_cif.got.tgz:714.got - 2010.05.20 11:16:09.
