data_PCOD9580164
_publ_section_title
;
Structure prediction by ZEFSAII (Michael W. Deem and Ramdas Pophale) SiO2 
 PCOD9580164
Probable space group: P 65
;
_chemical_formula_sum "Si O2"
_cell_formula_units_Z 36
_cell_length_a 14.809000
_cell_length_b 14.809000
_cell_length_c 7.241442
_cell_angle_alpha 90.000000
_cell_angle_beta 90.000000
_cell_angle_gamma 120.000000
_cell_volume 1375.330754
_symmetry_space_group_name_H-M "P 65"
_symmetry_group_IT_number 170
_symmetry_cell_setting 'hexagonal'
loop_
_space_group_symop_operation_xyz
x,y,z
x-y,x,5/6+z
-y,x-y,2/3+z
-x,-y,1/2+z
-x+y,-x,1/3+z
y,-x+y,1/6+z
loop_
_atom_site_type_symbol
_atom_site_label
_atom_site_fract_x
_atom_site_fract_y
_atom_site_fract_z
Si Si1 0.590221 0.995399 0.653160
Si Si2 0.043271 0.412579 0.211280
Si Si3 0.891150 0.111835 0.591765
Si Si4 0.051119 0.219137 0.171022
Si Si5 0.746496 0.388512 0.619321
Si Si6 0.428439 0.202403 0.911658
O O1 0.603124 0.972058 0.863930
O O2 0.684970 0.113579 0.601918
O O3 0.478621 0.992473 0.646932
O O4 0.587041 0.899131 0.540505
O O5 0.050638 0.314031 0.277950
O O6 0.158160 0.496523 0.136676
O O7 0.860950 0.182458 0.471924
O O8 0.007283 0.156862 0.650637
O O9 0.837918 0.098548 0.795842
O O10 0.121786 0.182099 0.278326
O O11 0.656944 0.384632 0.492496
O O12 0.767915 0.307996 0.501816
#
# Coordination Sequence:
#
# PCOD9580164 Si02
#       6
#     6   6   6   6   6   6
#     4  11  23  41  67 102 146 191 256 312 382 461
#     4  11  24  42  68 107 146 196 250 315 386 464
#     4  10  17  31  60  95 124 177 235 303 378 458
#     4  10  20  38  70 103 137 183 243 300 378 463
#     4  11  24  43  69 109 150 202 256 318 387 460
#     4  11  20  37  66 100 137 187 254 308 383 466
#
# _framework density 26.175521
#
# number of rings (size 3 to 8) (size 9 to 14) (size 15 to 20)
#    0.000    1.333    5.000    1.000    0.000    4.000 
#    0.000    0.000    0.000   28.000    0.000    0.000 
#    0.000    0.000    0.000    0.000    0.000    0.000 
#
# Total GULP energy -200524.480206 kJ/mol
# GULP energy per Si atom -5570.124450 kJ/mol
# Density = 2.611594 g / cm^3
# Si number density = 26.175521 Si / 1000 Ang^3
#
#
#
# Elastic Constant Matrix: (Units=GPa)
#
#
# Indices 1 2 3 4 5 6 
#
# 1 159.8519 65.1375 13.4305 0.0000 0.0000 0.0000
# 2 65.1375 159.8519 13.4305 0.0000 0.0000 0.0000
# 3 13.4305 13.4305 41.9283 0.0000 0.0000 0.0000
# 4 0.0000 0.0000 0.0000 32.3708 0.0000 0.0000
# 5 0.0000 0.0000 0.0000 0.0000 32.3708 0.0000
# 6 0.0000 0.0000 0.0000 0.0000 0.0000 47.3572
#
#
#
# Elastic Compliance Matrix: (Units=1/GPa)
#
#
# Indices 1 2 3 4 5 6 
#
# 1 0.007590 -0.002968 -0.001480 0.000000 0.000000 0.000000
# 2 -0.002968 0.007590 -0.001480 0.000000 0.000000 0.000000
# 3 -0.001480 -0.001480 0.024799 0.000000 0.000000 0.000000
# 4 0.000000 0.000000 0.000000 0.030892 0.000000 0.000000
# 5 0.000000 0.000000 0.000000 0.000000 0.030892 0.000000
# 6 0.000000 0.000000 0.000000 0.000000 0.000000 0.021116
#
#
# Mechanical properties :
#
#
# Convention : Reuss Voigt Hill
#
# Bulk Modulus (GPa) = 35.56179 60.62544 48.09361
# Shear Modulus (GPa) = 34.69585 40.39535 37.54560
#
# Velocity S-wave (km/s) = 3.64470 3.93268 3.79143
# Velocity P-wave (km/s) = 5.59707 6.62063 6.13025
#
# Compressibility (1/GPa) = 0.02812007
#
# Stress axis : x y z
#
# Youngs Moduli (GPa) = 131.75714 131.75714 40.32488
#
# Poissons Ratio (x) = 0.39110 0.05969
# Poissons Ratio (y) = 0.39110 0.05969
# Poissons Ratio (z) = 0.19504 0.19504
#
# Static dielectric constant tensor:
#      x y z
#    x 2.108640 0.000000 0.000000 
#    y 0.000000 2.108640 0.000000 
#    z 0.000000 0.000000 2.179450 
# 
# From -- ./inp_files/632.got.cif
#   From: 2010.05.17/outbox.cif.g08.bks.cpg/sg170_cif.got.tgz:632.got - 2010.05.20 11:14:30.
