data_PCOD9580750
_publ_section_title
;
Structure prediction by ZEFSAII (Michael W. Deem and Ramdas Pophale) SiO2 
 PCOD9580750
Probable space group: P 62
;
_chemical_formula_sum "Si O2"
_cell_formula_units_Z 24
_cell_length_a 14.414271
_cell_length_b 14.414271
_cell_length_c 5.439692
_cell_angle_alpha 90.000000
_cell_angle_beta 90.000000
_cell_angle_gamma 120.000000
_cell_volume 978.791767
_symmetry_space_group_name_H-M "P 62"
_symmetry_group_IT_number 171
_symmetry_cell_setting 'hexagonal'
loop_
_space_group_symop_operation_xyz
x,y,z
x-y,x,1/3+z
-y,x-y,2/3+z
-x,-y,z
-x+y,-x,1/3+z
y,-x+y,2/3+z
loop_
_atom_site_type_symbol
_atom_site_label
_atom_site_fract_x
_atom_site_fract_y
_atom_site_fract_z
Si Si1 0.250810 0.567320 0.473860
Si Si2 0.119825 0.915807 0.974794
Si Si3 0.104176 0.690909 0.038240
Si Si4 0.982939 0.633131 0.516394
O O1 0.320007 0.587844 0.230671
O O2 0.305189 0.520261 0.658922
O O3 0.129946 0.473320 0.480845
O O4 0.122142 0.810768 0.069601
O O5 0.230431 0.968098 0.818405
O O6 0.008162 0.870620 0.831731
O O7 0.032425 0.643797 0.789407
O O8 0.052614 0.633277 0.289925
#
# Coordination Sequence:
#
# PCOD9580750 Si02
#       4
#     6   6   6   6
#     4  11  28  48  74 110 144 176 244 309 346 418
#     4   9  20  40  68 102 143 186 237 285 342 414
#     4  10  24  48  74 100 144 194 229 281 364 431
#     4  10  24  48  74 100 144 194 229 281 364 431
#
# _framework density 24.520028
#
# number of rings (size 3 to 8) (size 9 to 14) (size 15 to 20)
#    0.000    2.000    0.000    0.000    7.000   17.000 
#    0.000   11.250    0.000    0.000    0.000    0.000 
#    0.000    0.000    0.000    0.000    0.000    0.000 
#
# Total GULP energy -134243.883435 kJ/mol
# GULP energy per Si atom -5593.495143 kJ/mol
# Density = 2.446422 g / cm^3
# Si number density = 24.520028 Si / 1000 Ang^3
#
#
#
# Elastic Constant Matrix: (Units=GPa)
#
#
# Indices 1 2 3 4 5 6 
#
# 1 93.0898 44.7498 35.9966 0.0000 0.0000 0.0000
# 2 44.7498 93.0898 35.9966 0.0000 0.0000 0.0000
# 3 35.9966 35.9966 94.7650 0.0000 0.0000 0.0000
# 4 0.0000 0.0000 0.0000 30.7944 0.0000 0.0000
# 5 0.0000 0.0000 0.0000 0.0000 30.7944 0.0000
# 6 0.0000 0.0000 0.0000 0.0000 0.0000 24.1700
#
#
#
# Elastic Compliance Matrix: (Units=1/GPa)
#
#
# Indices 1 2 3 4 5 6 
#
# 1 0.014869 -0.005818 -0.003438 0.000000 0.000000 0.000000
# 2 -0.005818 0.014869 -0.003438 0.000000 0.000000 0.000000
# 3 -0.003438 -0.003438 0.013164 0.000000 0.000000 0.000000
# 4 0.000000 0.000000 0.000000 0.032473 0.000000 0.000000
# 5 0.000000 0.000000 0.000000 0.000000 0.032473 0.000000
# 6 0.000000 0.000000 0.000000 0.000000 0.000000 0.041374
#
#
# Mechanical properties :
#
#
# Convention : Reuss Voigt Hill
#
# Bulk Modulus (GPa) = 57.09825 57.15895 57.12860
# Shear Modulus (GPa) = 27.70890 28.09850 27.90370
#
# Velocity S-wave (km/s) = 3.36527 3.38885 3.37708
# Velocity P-wave (km/s) = 6.19976 6.21885 6.20931
#
# Compressibility (1/GPa) = 0.01751367
#
# Stress axis : x y z
#
# Youngs Moduli (GPa) = 67.25585 67.25585 75.96403
#
# Poissons Ratio (x) = 0.39131 0.26115
# Poissons Ratio (y) = 0.39131 0.26115
# Poissons Ratio (z) = 0.23121 0.23121
#
# Static dielectric constant tensor:
#      x y z
#    x 1.952420 0.000000 0.000000 
#    y 0.000000 1.952420 0.000000 
#    z 0.000000 0.000000 2.006850 
# 
# From -- ./inp_files/4093.got.cif
#   From: 2010.05.17/outbox.cif.g08.bks.cpg/sg171_3_cif.got.tgz:4093.got - 2010.05.20 11:16:09.
