data_PCOD9580499
_publ_section_title
;
Structure prediction by ZEFSAII (Michael W. Deem and Ramdas Pophale) SiO2 
 PCOD9580499
Probable space group: P 62
;
_chemical_formula_sum "Si O2"
_cell_formula_units_Z 18
_cell_length_a 14.384132
_cell_length_b 14.384132
_cell_length_c 5.543770
_cell_angle_alpha 90.000000
_cell_angle_beta 90.000000
_cell_angle_gamma 120.000000
_cell_volume 993.351965
_symmetry_space_group_name_H-M "P 62"
_symmetry_group_IT_number 171
_symmetry_cell_setting 'hexagonal'
loop_
_space_group_symop_operation_xyz
x,y,z
x-y,x,1/3+z
-y,x-y,2/3+z
-x,-y,z
-x+y,-x,1/3+z
y,-x+y,2/3+z
loop_
_atom_site_type_symbol
_atom_site_label
_atom_site_fract_x
_atom_site_fract_y
_atom_site_fract_z
Si Si1 0.567430 0.629664 0.782780
Si Si2 0.399678 0.021406 0.957664
Si Si3 0.444176 0.733373 0.989968
O O1 0.500000 0.500000 0.769008
O O2 0.627593 0.667079 0.527932
O O3 0.483933 0.671766 0.812808
O O4 0.636936 0.655364 0.029216
O O5 0.455615 0.147930 0.010489
O O6 0.500000 0.000000 0.941386
O O7 0.343971 0.741519 0.885820
#
# Coordination Sequence:
#
# PCOD9580499 Si02
#       3
#     6   6   6
#     4  10  20  36  46  70 108 124 177 237 244 302
#     4  10  20  36  46  70 108 124 177 237 244 302
#     4  12  22  32  57  74  96 156 191 204 280 326
#
# _framework density 18.120467000000001
#
# number of rings (size 3 to 8) (size 9 to 14) (size 15 to 20)
#    0.000    1.333    6.667    4.000    0.000    0.000 
#    0.000    0.000    0.000    0.000    0.000    0.000 
#    0.000    0.000    0.000   15.000    2.667    0.667 
#
# Total GULP energy -100286.361970 kJ/mol
# GULP energy per Si atom -5571.464554 kJ/mol
# Density = 1.807922 g / cm^3
# Si number density = 18.120467 Si / 1000 Ang^3
#
#
#
# Elastic Constant Matrix: (Units=GPa)
#
#
# Indices 1 2 3 4 5 6 
#
# 1 33.5505 15.1499 -1.7376 0.0000 0.0000 0.0000
# 2 15.1499 33.5505 -1.7376 0.0000 0.0000 0.0000
# 3 -1.7376 -1.7376 139.3917 0.0000 0.0000 0.0000
# 4 0.0000 0.0000 0.0000 -18.4028 0.0000 0.0000
# 5 0.0000 0.0000 0.0000 0.0000 -18.4028 0.0000
# 6 0.0000 0.0000 0.0000 0.0000 0.0000 9.2003
#
#
#
# Elastic Compliance Matrix: (Units=1/GPa)
#
#
# Indices 1 2 3 4 5 6 
#
# 1 0.037449 -0.016897 0.000256 0.000000 0.000000 0.000000
# 2 -0.016897 0.037449 0.000256 0.000000 0.000000 0.000000
# 3 0.000256 0.000256 0.007180 0.000000 0.000000 0.000000
# 4 0.000000 0.000000 0.000000 -0.054339 0.000000 0.000000
# 5 0.000000 0.000000 0.000000 0.000000 -0.054339 0.000000
# 6 0.000000 0.000000 0.000000 0.000000 0.000000 0.108693
#
#
# Mechanical properties :
#
#
# Convention : Reuss Voigt Hill
#
# Bulk Modulus (GPa) = 20.28019 25.53799 22.90909
# Shear Modulus (GPa) = 38.08127 7.46679 22.77403
#
# Velocity S-wave (km/s) = 4.58925 2.03214 3.54900
# Velocity P-wave (km/s) = 6.26880 4.43059 5.42807
#
# Compressibility (1/GPa) = 0.04930920
#
# Stress axis : x y z
#
# Youngs Moduli (GPa) = 26.70290 26.70290 139.26772
#
# Poissons Ratio (x) = 0.45120 -0.03568
# Poissons Ratio (y) = 0.45120 -0.03568
# Poissons Ratio (z) = -0.00684 -0.00684
#
# Static dielectric constant tensor:
#      x y z
#    x 1.645520 0.000000 0.000000 
#    y 0.000000 1.645520 0.000000 
#    z 0.000000 0.000000 1.765740 
# 
# From -- ./inp_files/144.got.cif
#   From: 2010.05.17/outbox.cif.g08.bks.cpg/sg171_1_cif.got.tgz:144.got - 2010.05.20 11:16:09.
