data_PCOD9580035
_publ_section_title
;
Structure prediction by ZEFSAII (Michael W. Deem and Ramdas Pophale) SiO2 
 PCOD9580035
Probable space group: P 61
;
_chemical_formula_sum "Si O2"
_cell_formula_units_Z 42
_cell_length_a 14.102088
_cell_length_b 14.102088
_cell_length_c 10.116117
_cell_angle_alpha 90.000000
_cell_angle_beta 90.000000
_cell_angle_gamma 120.000000
_cell_volume 1742.253382
_symmetry_space_group_name_H-M "P 61"
_symmetry_group_IT_number 169
_symmetry_cell_setting 'hexagonal'
loop_
_space_group_symop_operation_xyz
x,y,z
x-y,x,1/6+z
-y,x-y,1/3+z
-x,-y,1/2+z
-x+y,-x,2/3+z
y,-x+y,5/6+z
loop_
_atom_site_type_symbol
_atom_site_label
_atom_site_fract_x
_atom_site_fract_y
_atom_site_fract_z
Si Si1 0.959251 0.519436 0.748150
Si Si2 0.907400 0.601244 0.000700
Si Si3 0.507841 0.809207 0.016298
Si Si4 0.185514 0.577286 0.835532
Si Si5 0.750580 0.612033 0.799647
Si Si6 0.322669 0.964390 0.658108
Si Si7 0.212710 0.099569 0.926518
O O1 0.941403 0.530037 0.905812
O O2 0.862072 0.394549 0.735899
O O3 0.951731 0.598832 0.642366
O O4 0.085119 0.549744 0.734056
O O5 0.854080 0.637282 0.885552
O O6 0.026635 0.687969 0.049991
O O7 0.815586 0.559037 0.110911
O O8 0.415310 0.709668 0.106144
O O9 0.597619 0.914430 0.099434
O O10 0.193325 0.678421 0.920417
O O11 0.128938 0.465584 0.919049
O O12 0.787793 0.683955 0.666621
O O13 0.197476 0.933873 0.653421
O O14 0.134250 0.983796 0.863518
#
# Coordination Sequence:
#
# PCOD9580035 Si02
#       7
#     6   6   6   6   6   6   6
#     4  10  23  45  67  97 146 191 229 292 371 445
#     4  11  24  43  69 100 135 187 231 294 360 435
#     4  11  26  42  73 107 145 179 246 310 354 441
#     4  10  24  39  69 104 141 182 235 297 352 439
#     4  11  22  45  70  96 142 187 230 283 367 435
#     4  11  23  48  71 100 143 196 233 299 374 438
#     4  12  24  48  71 100 136 188 240 293 356 427
#
# _framework density 24.10671
#
# number of rings (size 3 to 8) (size 9 to 14) (size 15 to 20)
#    0.000    1.143    2.857    2.571   10.000    1.143 
#    5.143    0.000    0.000    0.000    0.000    0.000 
#    0.000    0.000    0.000    0.000    0.000    0.000 
#
# Total GULP energy -234544.090959 kJ/mol
# GULP energy per Si atom -5584.383118 kJ/mol
# Density = 2.405184 g / cm^3
# Si number density = 24.106710 Si / 1000 Ang^3
#
#
#
# Elastic Constant Matrix: (Units=GPa)
#
#
# Indices 1 2 3 4 5 6 
#
# 1 96.1735 30.4318 24.0187 0.0000 0.0000 0.0000
# 2 30.4318 96.1735 24.0187 0.0000 0.0000 0.0000
# 3 24.0187 24.0187 69.0583 0.0000 0.0000 0.0000
# 4 0.0000 0.0000 0.0000 38.4309 0.0000 0.0000
# 5 0.0000 0.0000 0.0000 0.0000 38.4309 0.0000
# 6 0.0000 0.0000 0.0000 0.0000 0.0000 32.8709
#
#
#
# Elastic Compliance Matrix: (Units=1/GPa)
#
#
# Indices 1 2 3 4 5 6 
#
# 1 0.012155 -0.003056 -0.003165 0.000000 0.000000 0.000000
# 2 -0.003056 0.012155 -0.003165 0.000000 0.000000 0.000000
# 3 -0.003165 -0.003165 0.016682 0.000000 0.000000 0.000000
# 4 0.000000 0.000000 0.000000 0.026021 0.000000 0.000000
# 5 0.000000 0.000000 0.000000 0.000000 0.026021 0.000000
# 6 0.000000 0.000000 0.000000 0.000000 0.000000 0.030422
#
#
# Mechanical properties :
#
#
# Convention : Reuss Voigt Hill
#
# Bulk Modulus (GPa) = 45.00138 46.48263 45.74200
# Shear Modulus (GPa) = 33.41488 34.14228 33.77858
#
# Velocity S-wave (km/s) = 3.72711 3.76746 3.74734
# Velocity P-wave (km/s) = 6.10163 6.18457 6.14324
#
# Compressibility (1/GPa) = 0.02222154
#
# Stress axis : x y z
#
# Youngs Moduli (GPa) = 82.26926 82.26926 59.94497
#
# Poissons Ratio (x) = 0.25140 0.18971
# Poissons Ratio (y) = 0.25140 0.18971
# Poissons Ratio (z) = 0.26037 0.26037
#
# Static dielectric constant tensor:
#      x y z
#    x 2.047490 0.000000 0.000000 
#    y 0.000000 2.047490 0.000000 
#    z 0.000000 0.000000 1.989260 
# 
# From -- ./inp_files/952.got.cif
#   From: 2010.05.17/outbox.cif.g08.bks.cpg/sg169_cif.got.tgz:952.got - 2010.05.20 11:12:54.
