data_PCOD9580524
_publ_section_title
;
Structure prediction by ZEFSAII (Michael W. Deem and Ramdas Pophale) SiO2 
 PCOD9580524
Probable space group: P 62
;
_chemical_formula_sum "Si O2"
_cell_formula_units_Z 39
_cell_length_a 14.318224
_cell_length_b 14.318224
_cell_length_c 12.287234
_cell_angle_alpha 90.000000
_cell_angle_beta 90.000000
_cell_angle_gamma 120.000000
_cell_volume 2181.539423
_symmetry_space_group_name_H-M "P 62"
_symmetry_group_IT_number 171
_symmetry_cell_setting 'hexagonal'
loop_
_space_group_symop_operation_xyz
x,y,z
x-y,x,1/3+z
-y,x-y,2/3+z
-x,-y,z
-x+y,-x,1/3+z
y,-x+y,2/3+z
loop_
_atom_site_type_symbol
_atom_site_label
_atom_site_fract_x
_atom_site_fract_y
_atom_site_fract_z
Si Si1 0.868569 0.592924 0.217940
Si Si2 0.914758 0.599719 0.611879
Si Si3 0.756039 0.839709 0.448945
Si Si4 0.082105 0.250930 0.417738
Si Si5 0.837414 0.080672 0.371647
Si Si6 0.500000 0.500000 0.003673
Si Si7 0.375544 0.512680 0.209693
O O1 0.888549 0.686733 0.303539
O O2 0.897722 0.649587 0.101037
O O3 0.742574 0.504083 0.216567
O O4 0.943156 0.548077 0.262531
O O5 0.893287 0.647909 0.719690
O O6 0.898935 0.662995 0.511582
O O7 0.848016 0.471687 0.591156
O O8 0.038745 0.626132 0.606589
O O9 0.843559 0.801609 0.433782
O O10 0.739000 0.842858 0.577155
O O11 0.802905 0.957225 0.395806
O O12 0.956625 0.160185 0.418372
O O13 0.412469 0.500835 0.087593
#
# Coordination Sequence:
#
# PCOD9580524 Si02
#       7
#     6   6   6   6   6   3   6
#     4  12  21  41  67  89 122 162 213 271 314 370
#     4  10  20  38  60  88 116 160 216 259 302 373
#     4  12  24  36  57  95 138 165 205 250 321 387
#     4  12  20  38  61  90 125 172 206 253 304 378
#     4  12  25  36  59  95 134 170 202 248 321 392
#     4  10  22  40  66  94 118 156 224 260 318 380
#     4  10  20  38  67  90 111 162 222 262 306 370
#
# _framework density 17.877284
#
# number of rings (size 3 to 8) (size 9 to 14) (size 15 to 20)
#    0.000    0.923    9.231    0.462    0.000    1.231 
#    0.000    3.077    0.000    0.000    0.000    0.000 
#    0.000    0.000    0.000    0.000    0.000    0.000 
#
# Total GULP energy -217815.089857 kJ/mol
# GULP energy per Si atom -5585.002304 kJ/mol
# Density = 1.783659 g / cm^3
# Si number density = 17.877284 Si / 1000 Ang^3
#
#
#
# Elastic Constant Matrix: (Units=GPa)
#
#
# Indices 1 2 3 4 5 6 
#
# 1 94.3301 52.3874 26.6323 0.0000 0.0000 0.0000
# 2 52.3874 94.3301 26.6323 0.0000 0.0000 0.0000
# 3 26.6323 26.6323 83.5542 0.0000 0.0000 0.0000
# 4 0.0000 0.0000 0.0000 13.2319 0.0000 0.0000
# 5 0.0000 0.0000 0.0000 0.0000 13.2319 0.0000
# 6 0.0000 0.0000 0.0000 0.0000 0.0000 20.9713
#
#
#
# Elastic Compliance Matrix: (Units=1/GPa)
#
#
# Indices 1 2 3 4 5 6 
#
# 1 0.015775 -0.008067 -0.002457 0.000000 0.000000 0.000000
# 2 -0.008067 0.015775 -0.002457 0.000000 0.000000 0.000000
# 3 -0.002457 -0.002457 0.013534 0.000000 0.000000 0.000000
# 4 0.000000 0.000000 0.000000 0.075575 0.000000 0.000000
# 5 0.000000 0.000000 0.000000 0.000000 0.075575 0.000000
# 6 0.000000 0.000000 0.000000 0.000000 0.000000 0.047684
#
#
# Mechanical properties :
#
#
# Convention : Reuss Voigt Hill
#
# Bulk Modulus (GPa) = 52.29365 53.72425 53.00895
# Shear Modulus (GPa) = 18.09929 20.59118 19.34524
#
# Velocity S-wave (km/s) = 3.18530 3.39751 3.29312
# Velocity P-wave (km/s) = 6.54547 6.74594 6.64646
#
# Compressibility (1/GPa) = 0.01912278
#
# Stress axis : x y z
#
# Youngs Moduli (GPa) = 63.39179 63.39179 73.88553
#
# Poissons Ratio (x) = 0.51139 0.18152
# Poissons Ratio (y) = 0.51139 0.18152
# Poissons Ratio (z) = 0.15574 0.15574
#
# Static dielectric constant tensor:
#      x y z
#    x 1.607400 0.000000 0.000000 
#    y 0.000000 1.607400 0.000000 
#    z 0.000000 0.000000 1.619380 
# 
# From -- ./inp_files/4647.got.cif
#   From: 2010.05.17/outbox.cif.g08.bks.cpg/sg171_3_cif.got.tgz:4647.got - 2010.05.20 11:16:09.
