data_PCOD9580593
_publ_section_title
;
Structure prediction by ZEFSAII (Michael W. Deem and Ramdas Pophale) SiO2 
 PCOD9580593
Probable space group: P 62
;
_chemical_formula_sum "Si O2"
_cell_formula_units_Z 36
_cell_length_a 8.930674
_cell_length_b 8.930674
_cell_length_c 23.828173
_cell_angle_alpha 90.000000
_cell_angle_beta 90.000000
_cell_angle_gamma 120.000000
_cell_volume 1645.848474
_symmetry_space_group_name_H-M "P 62"
_symmetry_group_IT_number 171
_symmetry_cell_setting 'hexagonal'
loop_
_space_group_symop_operation_xyz
x,y,z
x-y,x,1/3+z
-y,x-y,2/3+z
-x,-y,z
-x+y,-x,1/3+z
y,-x+y,2/3+z
loop_
_atom_site_type_symbol
_atom_site_label
_atom_site_fract_x
_atom_site_fract_y
_atom_site_fract_z
Si Si1 0.493572 0.164100 0.202920
Si Si2 0.658229 0.192593 0.587004
Si Si3 0.348111 0.807368 0.356768
Si Si4 0.690845 0.669531 0.090745
Si Si5 0.810682 0.981696 0.881161
Si Si6 0.655387 0.492985 0.405720
O O1 0.672356 0.342825 0.206557
O O2 0.339512 0.177878 0.231443
O O3 0.451434 0.124195 0.137327
O O4 0.500000 0.000000 0.226164
O O5 0.615832 0.281164 0.639869
O O6 0.828187 0.174588 0.582052
O O7 0.500000 0.000000 0.580473
O O8 0.396306 0.705895 0.402679
O O9 0.181814 0.801841 0.383960
O O10 0.500000 0.000000 0.346544
O O11 0.500000 0.500000 0.104376
O O12 0.792085 0.751068 0.148546
O O13 0.629135 0.780769 0.053837
O O14 0.000000 0.000000 0.886246
O O15 0.500000 0.500000 0.376325
#
# Coordination Sequence:
#
# PCOD9580593 Si02
#       6
#     6   6   6   6   6   6
#     4  10  21  40  65  94 126 160 205 260 317 378
#     4  12  24  40  61  87 127 172 211 259 319 385
#     4  11  24  40  61  88 123 170 214 253 317 389
#     4   9  19  40  64  87 124 164 205 261 320 375
#     4  11  23  39  66 100 126 163 216 273 326 383
#     4   9  19  37  62  90 120 157 202 256 313 370
#
# _framework density 21.873214999999998
#
# number of rings (size 3 to 8) (size 9 to 14) (size 15 to 20)
#    0.000    1.667    0.000    6.500    0.000    8.000 
#    0.000    0.000    0.000   12.000    0.000    0.000 
#    0.000    0.000    0.000    0.000    0.000    0.000 
#
# Total GULP energy -200674.550739 kJ/mol
# GULP energy per Si atom -5574.293076 kJ/mol
# Density = 2.182343 g / cm^3
# Si number density = 21.873215 Si / 1000 Ang^3
#
#
#
# Elastic Constant Matrix: (Units=GPa)
#
#
# Indices 1 2 3 4 5 6 
#
# 1 180.5515 109.7546 29.3166 0.0000 0.0000 0.0000
# 2 109.7546 180.5515 29.3166 0.0000 0.0000 0.0000
# 3 29.3166 29.3166 55.4152 0.0000 0.0000 0.0000
# 4 0.0000 0.0000 0.0000 6.0647 0.0000 0.0000
# 5 0.0000 0.0000 0.0000 0.0000 6.0647 0.0000
# 6 0.0000 0.0000 0.0000 0.0000 0.0000 35.3985
#
#
#
# Elastic Compliance Matrix: (Units=1/GPa)
#
#
# Indices 1 2 3 4 5 6 
#
# 1 0.008991 -0.005134 -0.002040 0.000000 0.000000 0.000000
# 2 -0.005134 0.008991 -0.002040 0.000000 0.000000 0.000000
# 3 -0.002040 -0.002040 0.020204 0.000000 0.000000 0.000000
# 4 0.000000 0.000000 0.000000 0.164889 0.000000 0.000000
# 5 0.000000 0.000000 0.000000 0.000000 0.164889 0.000000
# 6 0.000000 0.000000 0.000000 0.000000 0.000000 0.028250
#
#
# Mechanical properties :
#
#
# Convention : Reuss Voigt Hill
#
# Bulk Modulus (GPa) = 50.61631 83.69933 67.15782
# Shear Modulus (GPa) = 11.87001 26.04759 18.95880
#
# Velocity S-wave (km/s) = 2.33206 3.45460 2.94727
# Velocity P-wave (km/s) = 5.51746 7.36622 6.50782
#
# Compressibility (1/GPa) = 0.01975648
#
# Stress axis : x y z
#
# Youngs Moduli (GPa) = 111.22458 111.22458 49.49414
#
# Poissons Ratio (x) = 0.57104 0.10099
# Poissons Ratio (y) = 0.57104 0.10099
# Poissons Ratio (z) = 0.22694 0.22694
#
# Static dielectric constant tensor:
#      x y z
#    x 1.847520 0.000000 0.000000 
#    y 0.000000 1.847520 0.000000 
#    z 0.000000 0.000000 1.903280 
# 
# From -- ./inp_files/5740.got.cif
#   From: 2010.05.17/outbox.cif.g08.bks.cpg/sg171_3_cif.got.tgz:5740.got - 2010.05.20 11:16:09.
