data_PCOD9580446
_publ_section_title
;
Structure prediction by ZEFSAII (Michael W. Deem and Ramdas Pophale) SiO2 
 PCOD9580446
Probable space group: P 62
;
_chemical_formula_sum "Si O2"
_cell_formula_units_Z 15
_cell_length_a 10.976958
_cell_length_b 10.976958
_cell_length_c 5.016139
_cell_angle_alpha 90.000000
_cell_angle_beta 90.000000
_cell_angle_gamma 120.000000
_cell_volume 523.436736
_symmetry_space_group_name_H-M "P 62"
_symmetry_group_IT_number 171
_symmetry_cell_setting 'hexagonal'
loop_
_space_group_symop_operation_xyz
x,y,z
x-y,x,1/3+z
-y,x-y,2/3+z
-x,-y,z
-x+y,-x,1/3+z
y,-x+y,2/3+z
loop_
_atom_site_type_symbol
_atom_site_label
_atom_site_fract_x
_atom_site_fract_y
_atom_site_fract_z
Si Si1 0.469068 0.688019 0.186150
Si Si2 0.050239 0.264040 0.190649
Si Si3 0.500000 0.000000 0.450352
O O1 0.646384 0.015398 0.352992
O O2 0.397856 0.782188 0.112556
O O3 0.631393 0.772963 0.102021
O O4 0.421268 0.555702 0.985140
O O5 0.918550 0.136911 0.335084
#
# Coordination Sequence:
#
# PCOD9580446 Si02
#       3
#     6   6   3
#     4  10  18  36  65 110 149 180 240 306 363 425
#     4  10  18  36  68 109 154 190 245 297 370 442
#     4   8  16  36  58 108 148 180 244 306 360 428
#
# _framework density 28.656763000000002
#
# number of rings (size 3 to 8) (size 9 to 14) (size 15 to 20)
#    2.400    0.000    4.000    0.000    0.000    0.000 
#    0.000    6.000    0.000    0.000   31.200    2.800 
#    0.000    0.000    0.000    0.000    0.000    0.000 
#
# Total GULP energy -83659.628285 kJ/mol
# GULP energy per Si atom -5577.308552 kJ/mol
# Density = 2.859154 g / cm^3
# Si number density = 28.656763 Si / 1000 Ang^3
#
#
#
# Elastic Constant Matrix: (Units=GPa)
#
#
# Indices 1 2 3 4 5 6 
#
# 1 226.4859 115.5179 63.5648 0.0000 0.0000 0.0000
# 2 115.5179 226.4859 63.5648 0.0000 0.0000 0.0000
# 3 63.5648 63.5648 108.0191 0.0000 0.0000 0.0000
# 4 0.0000 0.0000 0.0000 54.0726 0.0000 0.0000
# 5 0.0000 0.0000 0.0000 0.0000 54.0726 0.0000
# 6 0.0000 0.0000 0.0000 0.0000 0.0000 55.4840
#
#
#
# Elastic Compliance Matrix: (Units=1/GPa)
#
#
# Indices 1 2 3 4 5 6 
#
# 1 0.006377 -0.002634 -0.002202 0.000000 0.000000 0.000000
# 2 -0.002634 0.006377 -0.002202 0.000000 0.000000 0.000000
# 3 -0.002202 -0.002202 0.011850 0.000000 0.000000 0.000000
# 4 0.000000 0.000000 0.000000 0.018494 0.000000 0.000000
# 5 0.000000 0.000000 0.000000 0.000000 0.018494 0.000000
# 6 0.000000 0.000000 0.000000 0.000000 0.000000 0.018023
#
#
# Mechanical properties :
#
#
# Convention : Reuss Voigt Hill
#
# Bulk Modulus (GPa) = 95.00861 116.25401 105.63131
# Shear Modulus (GPa) = 51.43963 53.94874 52.69418
#
# Velocity S-wave (km/s) = 4.24137 4.34358 4.29278
# Velocity P-wave (km/s) = 7.56384 8.11242 7.84293
#
# Compressibility (1/GPa) = 0.01052536
#
# Stress axis : x y z
#
# Youngs Moduli (GPa) = 156.81097 156.81097 84.39077
#
# Poissons Ratio (x) = 0.41312 0.18586
# Poissons Ratio (y) = 0.41312 0.18586
# Poissons Ratio (z) = 0.34536 0.34536
#
# Static dielectric constant tensor:
#      x y z
#    x 2.272090 0.000000 0.000000 
#    y 0.000000 2.272090 0.000000 
#    z 0.000000 0.000000 2.253450 
# 
# From -- ./inp_files/113.got.cif
#   From: 2010.05.17/outbox.cif.g08.bks.cpg/sg171_1_cif.got.tgz:113.got - 2010.05.20 11:16:09.
