data_PCOD9580716
_publ_section_title
;
Structure prediction by ZEFSAII (Michael W. Deem and Ramdas Pophale) SiO2 
 PCOD9580716
Probable space group: P 62
;
_chemical_formula_sum "Si O2"
_cell_formula_units_Z 15
_cell_length_a 6.976170
_cell_length_b 6.976170
_cell_length_c 14.404468
_cell_angle_alpha 90.000000
_cell_angle_beta 90.000000
_cell_angle_gamma 120.000000
_cell_volume 607.102422
_symmetry_space_group_name_H-M "P 62"
_symmetry_group_IT_number 171
_symmetry_cell_setting 'hexagonal'
loop_
_space_group_symop_operation_xyz
x,y,z
x-y,x,1/3+z
-y,x-y,2/3+z
-x,-y,z
-x+y,-x,1/3+z
y,-x+y,2/3+z
loop_
_atom_site_type_symbol
_atom_site_label
_atom_site_fract_x
_atom_site_fract_y
_atom_site_fract_z
Si Si1 0.500000 0.000000 0.656440
Si Si2 0.759789 0.958311 0.103167
Si Si3 0.284229 0.771369 0.939216
O O1 0.272000 0.917723 0.712071
O O2 0.423186 0.767381 0.605324
O O3 0.631594 0.901685 0.199326
O O4 0.000000 0.000000 0.124146
O O5 0.763203 0.153915 0.040371
O O6 0.500000 0.000000 0.908039
#
# Coordination Sequence:
#
# PCOD9580716 Si02
#       3
#     3   6   6
#     4  10  24  50  70 110 160 206 268 338 402 498
#     4  11  23  48  76 115 158 208 274 334 414 492
#     4  10  23  49  76 115 156 216 269 334 416 487
#
# _framework density 24.707529000000001
#
# number of rings (size 3 to 8) (size 9 to 14) (size 15 to 20)
#    0.000    1.600    2.000    1.200    0.000    1.600 
#   64.800    0.000    0.000    0.000    0.000    0.000 
#    0.000    0.000    0.000    0.000    0.000    0.000 
#
# Total GULP energy -83858.834548 kJ/mol
# GULP energy per Si atom -5590.588970 kJ/mol
# Density = 2.465129 g / cm^3
# Si number density = 24.707529 Si / 1000 Ang^3
#
#
#
# Elastic Constant Matrix: (Units=GPa)
#
#
# Indices 1 2 3 4 5 6 
#
# 1 183.7028 69.4501 70.4035 0.0000 0.0000 0.0000
# 2 69.4501 183.7028 70.4035 0.0000 0.0000 0.0000
# 3 70.4035 70.4035 154.2789 0.0000 0.0000 0.0000
# 4 0.0000 0.0000 0.0000 39.2323 0.0000 0.0000
# 5 0.0000 0.0000 0.0000 0.0000 39.2323 0.0000
# 6 0.0000 0.0000 0.0000 0.0000 0.0000 57.1263
#
#
#
# Elastic Compliance Matrix: (Units=1/GPa)
#
#
# Indices 1 2 3 4 5 6 
#
# 1 0.007023 -0.001729 -0.002416 0.000000 0.000000 0.000000
# 2 -0.001729 0.007023 -0.002416 0.000000 0.000000 0.000000
# 3 -0.002416 -0.002416 0.008687 0.000000 0.000000 0.000000
# 4 0.000000 0.000000 0.000000 0.025489 0.000000 0.000000
# 5 0.000000 0.000000 0.000000 0.000000 0.025489 0.000000
# 6 0.000000 0.000000 0.000000 0.000000 0.000000 0.017505
#
#
# Mechanical properties :
#
#
# Convention : Reuss Voigt Hill
#
# Bulk Modulus (GPa) = 104.04568 104.68876 104.36722
# Shear Modulus (GPa) = 46.49341 47.88000 47.18671
#
# Velocity S-wave (km/s) = 4.34262 4.40690 4.37488
# Velocity P-wave (km/s) = 8.20651 8.26786 8.23724
#
# Compressibility (1/GPa) = 0.00961116
#
# Stress axis : x y z
#
# Youngs Moduli (GPa) = 142.38506 142.38506 115.11957
#
# Poissons Ratio (x) = 0.24623 0.27811
# Poissons Ratio (y) = 0.24623 0.27811
# Poissons Ratio (z) = 0.34397 0.34397
#
# Static dielectric constant tensor:
#      x y z
#    x 1.836930 0.000000 0.000000 
#    y 0.000000 1.836930 0.000000 
#    z 0.000000 0.000000 2.021690 
# 
# From -- ./inp_files/2228.got.cif
#   From: 2010.05.17/outbox.cif.g08.bks.cpg/sg171_2_cif.got.tgz:2228.got - 2010.05.20 11:16:09.
