data_PCOD9580618
_publ_section_title
;
Structure prediction by ZEFSAII (Michael W. Deem and Ramdas Pophale) SiO2 
 PCOD9580618
Probable space group: P 62
;
_chemical_formula_sum "Si O2"
_cell_formula_units_Z 21
_cell_length_a 7.665341
_cell_length_b 7.665341
_cell_length_c 14.499623
_cell_angle_alpha 90.000000
_cell_angle_beta 90.000000
_cell_angle_gamma 120.000000
_cell_volume 737.819793
_symmetry_space_group_name_H-M "P 62"
_symmetry_group_IT_number 171
_symmetry_cell_setting 'hexagonal'
loop_
_space_group_symop_operation_xyz
x,y,z
x-y,x,1/3+z
-y,x-y,2/3+z
-x,-y,z
-x+y,-x,1/3+z
y,-x+y,2/3+z
loop_
_atom_site_type_symbol
_atom_site_label
_atom_site_fract_x
_atom_site_fract_y
_atom_site_fract_z
Si Si1 0.331096 0.680143 0.638740
Si Si2 0.577558 0.840536 0.461280
Si Si3 0.500000 0.000000 0.784600
Si Si4 0.796710 0.943446 0.897719
O O1 0.460380 0.697137 0.548760
O O2 0.208211 0.471622 0.694732
O O3 0.206037 0.791962 0.615784
O O4 0.475224 0.821754 0.719922
O O5 0.500000 0.000000 0.457651
O O6 0.805982 0.971382 0.490434
O O7 0.295595 0.932975 0.843499
O O8 0.000000 0.000000 0.955203
#
# Coordination Sequence:
#
# PCOD9580618 Si02
#       4
#     6   6   3   6
#     4  11  21  47  79 108 152 204 258 336 401 480
#     4  10  21  45  80 108 150 208 259 326 408 480
#     4  12  22  48  72 114 162 202 268 340 402 498
#     4  11  26  49  76 114 165 212 270 342 415 507
#
# _framework density 28.462230999999999
#
# number of rings (size 3 to 8) (size 9 to 14) (size 15 to 20)
#    0.000    1.143   10.000    0.000    0.000    1.143 
#   15.429    0.000    0.000    1.714    0.000    0.000 
#    0.000    0.000    0.000    0.000    0.000    0.000 
#
# Total GULP energy -117224.613779 kJ/mol
# GULP energy per Si atom -5582.124466 kJ/mol
# Density = 2.839745 g / cm^3
# Si number density = 28.462231 Si / 1000 Ang^3
#
#
#
# Elastic Constant Matrix: (Units=GPa)
#
#
# Indices 1 2 3 4 5 6 
#
# 1 119.8426 19.9792 28.5509 0.0000 0.0000 0.0000
# 2 19.9792 119.8426 28.5509 0.0000 0.0000 0.0000
# 3 28.5509 28.5509 190.5702 0.0000 0.0000 0.0000
# 4 0.0000 0.0000 0.0000 20.8255 0.0000 0.0000
# 5 0.0000 0.0000 0.0000 0.0000 20.8255 0.0000
# 6 0.0000 0.0000 0.0000 0.0000 0.0000 49.9317
#
#
#
# Elastic Compliance Matrix: (Units=1/GPa)
#
#
# Indices 1 2 3 4 5 6 
#
# 1 0.008816 -0.001198 -0.001141 0.000000 0.000000 0.000000
# 2 -0.001198 0.008816 -0.001141 0.000000 0.000000 0.000000
# 3 -0.001141 -0.001141 0.005589 0.000000 0.000000 0.000000
# 4 0.000000 0.000000 0.000000 0.048018 0.000000 0.000000
# 5 0.000000 0.000000 0.000000 0.000000 0.048018 0.000000
# 6 0.000000 0.000000 0.000000 0.000000 0.000000 0.020027
#
#
# Mechanical properties :
#
#
# Convention : Reuss Voigt Hill
#
# Bulk Modulus (GPa) = 61.49978 64.93528 63.21753
# Shear Modulus (GPa) = 32.96726 41.86149 37.41437
#
# Velocity S-wave (km/s) = 3.40704 3.83923 3.62957
# Velocity P-wave (km/s) = 6.09358 6.52050 6.31065
#
# Compressibility (1/GPa) = 0.01626022
#
# Stress axis : x y z
#
# Youngs Moduli (GPa) = 113.43172 113.43172 178.91029
#
# Poissons Ratio (x) = 0.13587 0.20420
# Poissons Ratio (y) = 0.13587 0.20420
# Poissons Ratio (z) = 0.12946 0.12946
#
# Static dielectric constant tensor:
#      x y z
#    x 2.467970 0.000000 0.000000 
#    y 0.000000 2.467970 0.000000 
#    z 0.000000 0.000000 2.339790 
# 
# From -- ./inp_files/2683.got.cif
#   From: 2010.05.17/outbox.cif.g08.bks.cpg/sg171_2_cif.got.tgz:2683.got - 2010.05.20 11:16:09.
