data_PCOD9580182
_publ_section_title
;
Structure prediction by ZEFSAII (Michael W. Deem and Ramdas Pophale) SiO2 
 PCOD9580182
Probable space group: P 65
;
_chemical_formula_sum "Si O2"
_cell_formula_units_Z 48
_cell_length_a 20.988308
_cell_length_b 20.988308
_cell_length_c 8.799664
_cell_angle_alpha 90.000000
_cell_angle_beta 90.000000
_cell_angle_gamma 120.000000
_cell_volume 3357.001837
_symmetry_space_group_name_H-M "P 65"
_symmetry_group_IT_number 170
_symmetry_cell_setting 'hexagonal'
loop_
_space_group_symop_operation_xyz
x,y,z
x-y,x,5/6+z
-y,x-y,2/3+z
-x,-y,1/2+z
-x+y,-x,1/3+z
y,-x+y,1/6+z
loop_
_atom_site_type_symbol
_atom_site_label
_atom_site_fract_x
_atom_site_fract_y
_atom_site_fract_z
Si Si1 0.730370 0.397905 0.255610
Si Si2 0.918723 0.554339 0.095525
Si Si3 0.310128 0.501309 0.298567
Si Si4 0.936091 0.437300 0.257497
Si Si5 0.771072 0.545871 0.098867
Si Si6 0.243241 0.557708 0.087384
Si Si7 0.552004 0.910704 0.410796
Si Si8 0.895376 0.469562 0.778204
O O1 0.768785 0.353835 0.196346
O O2 0.737977 0.459613 0.138838
O O3 0.767647 0.441516 0.409365
O O4 0.644105 0.345182 0.289854
O O5 0.918544 0.502286 0.229536
O O6 0.858176 0.578842 0.117108
O O7 0.894417 0.498134 0.949277
O O8 0.003596 0.619778 0.083988
O O9 0.371899 0.478808 0.304540
O O10 0.248976 0.452534 0.422747
O O11 0.278425 0.509136 0.140492
O O12 0.911782 0.404328 0.426125
O O13 0.022122 0.471324 0.229961
O O14 0.724343 0.571683 0.203145
O O15 0.170712 0.531838 0.186126
O O16 0.498266 0.891383 0.557100
#
# Coordination Sequence:
#
# PCOD9580182 Si02
#       8
#     6   6   6   6   6   6   6   6
#     4  12  21  27  39  55  80  99 122 167 211 235
#     4  10  19  30  46  59  75 107 134 162 209 252
#     4  11  19  30  41  58  74  98 129 168 204 243
#     4   9  19  30  43  55  76 100 128 162 206 243
#     4  11  19  31  44  58  76 101 134 170 204 246
#     4  12  21  28  40  57  76  99 128 165 206 241
#     4   9  19  33  43  58  81 102 131 173 202 242
#     4  10  19  31  40  56  76 102 128 161 206 244
#
# _framework density 14.298472
#
# number of rings (size 3 to 8) (size 9 to 14) (size 15 to 20)
#    0.000    1.500    6.250    0.750    1.750    0.000 
#    0.000    0.000    0.000    0.000    0.000    0.000 
#    0.000    0.000    0.000    0.000    0.000    0.000 
#
# Total GULP energy -267430.113410 kJ/mol
# GULP energy per Si atom -5571.460696 kJ/mol
# Density = 1.426593 g / cm^3
# Si number density = 14.298472 Si / 1000 Ang^3
#
#
#
# Elastic Constant Matrix: (Units=GPa)
#
#
# Indices 1 2 3 4 5 6 
#
# 1 64.1385 25.8679 10.9801 0.0000 0.0000 0.0000
# 2 25.8679 64.1385 10.9801 0.0000 0.0000 0.0000
# 3 10.9801 10.9801 33.1382 0.0000 0.0000 0.0000
# 4 0.0000 0.0000 0.0000 14.6185 0.0000 0.0000
# 5 0.0000 0.0000 0.0000 0.0000 14.6185 0.0000
# 6 0.0000 0.0000 0.0000 0.0000 0.0000 19.1353
#
#
#
# Elastic Compliance Matrix: (Units=1/GPa)
#
#
# Indices 1 2 3 4 5 6 
#
# 1 0.019109 -0.007021 -0.004005 0.000000 0.000000 0.000000
# 2 -0.007021 0.019109 -0.004005 0.000000 0.000000 0.000000
# 3 -0.004005 -0.004005 0.032831 0.000000 0.000000 0.000000
# 4 0.000000 0.000000 0.000000 0.068406 0.000000 0.000000
# 5 0.000000 0.000000 0.000000 0.000000 0.068406 0.000000
# 6 0.000000 0.000000 0.000000 0.000000 0.000000 0.052259
#
#
# Mechanical properties :
#
#
# Convention : Reuss Voigt Hill
#
# Bulk Modulus (GPa) = 24.39893 28.56347 26.48120
# Shear Modulus (GPa) = 16.45577 17.24694 16.85136
#
# Velocity S-wave (km/s) = 3.39614 3.47682 3.43671
# Velocity P-wave (km/s) = 5.69907 6.01146 5.85735
#
# Compressibility (1/GPa) = 0.04098541
#
# Stress axis : x y z
#
# Youngs Moduli (GPa) = 52.33242 52.33242 30.45918
#
# Poissons Ratio (x) = 0.36743 0.12199
# Poissons Ratio (y) = 0.36743 0.12199
# Poissons Ratio (z) = 0.20960 0.20960
#
# Static dielectric constant tensor:
#      x y z
#    x 1.486640 0.000000 0.000000 
#    y 0.000000 1.486640 0.000000 
#    z 0.000000 0.000000 1.553940 
# 
# From -- ./inp_files/803.got.cif
#   From: 2010.05.17/outbox.cif.g08.bks.cpg/sg170_cif.got.tgz:803.got - 2010.05.20 11:14:30.
