data_PCOD9580680
_publ_section_title
;
Structure prediction by ZEFSAII (Michael W. Deem and Ramdas Pophale) SiO2 
 PCOD9580680
Probable space group: P 62
;
_chemical_formula_sum "Si O2"
_cell_formula_units_Z 33
_cell_length_a 11.745541
_cell_length_b 11.745541
_cell_length_c 11.187215
_cell_angle_alpha 90.000000
_cell_angle_beta 90.000000
_cell_angle_gamma 120.000000
_cell_volume 1336.591413
_symmetry_space_group_name_H-M "P 62"
_symmetry_group_IT_number 171
_symmetry_cell_setting 'hexagonal'
loop_
_space_group_symop_operation_xyz
x,y,z
x-y,x,1/3+z
-y,x-y,2/3+z
-x,-y,z
-x+y,-x,1/3+z
y,-x+y,2/3+z
loop_
_atom_site_type_symbol
_atom_site_label
_atom_site_fract_x
_atom_site_fract_y
_atom_site_fract_z
Si Si1 0.506900 0.373035 0.720600
Si Si2 0.768771 0.430915 0.789781
Si Si3 0.144756 0.125797 0.941485
Si Si4 0.000000 0.500000 0.612667
Si Si5 0.038627 0.280685 0.514030
Si Si6 0.922026 0.219217 0.047741
O O1 0.500000 0.500000 0.770012
O O2 0.608132 0.338181 0.787693
O O3 0.563673 0.392031 0.586289
O O4 0.350262 0.285354 0.708431
O O5 0.869894 0.421554 0.697567
O O6 0.773377 0.568673 0.760318
O O7 0.138957 0.195020 0.820132
O O8 0.246591 0.073255 0.930982
O O9 0.211887 0.216890 0.053978
O O10 0.000000 0.000000 0.961213
O O11 0.963383 0.587152 0.529277
O O12 0.165345 0.288506 0.579639
#
# Coordination Sequence:
#
# PCOD9580680 Si02
#       6
#     6   6   6   3   6   6
#     4  10  22  43  69 100 136 191 239 294 368 444
#     4  10  22  43  72  98 140 192 243 293 370 452
#     4  12  26  44  72 109 144 192 254 315 390 454
#     4  10  24  44  70 104 144 186 238 306 374 454
#     4  11  25  43  72 106 144 194 242 311 380 456
#     4  10  25  45  68 100 145 191 244 309 368 460
#
# _framework density 24.68967
#
# number of rings (size 3 to 8) (size 9 to 14) (size 15 to 20)
#    0.000    1.455    0.909    2.727   10.182    3.636 
#    4.909    0.000    0.000    0.000    0.000    0.000 
#    0.000    0.000    0.000    0.000    0.000    0.000 
#
# Total GULP energy -183796.804781 kJ/mol
# GULP energy per Si atom -5569.600145 kJ/mol
# Density = 2.463348 g / cm^3
# Si number density = 24.689670 Si / 1000 Ang^3
#
#
#
# Elastic Constant Matrix: (Units=GPa)
#
#
# Indices 1 2 3 4 5 6 
#
# 1 99.1842 30.8420 29.2750 0.0000 0.0000 0.0000
# 2 30.8420 99.1842 29.2750 0.0000 0.0000 0.0000
# 3 29.2750 29.2750 79.0606 0.0000 0.0000 0.0000
# 4 0.0000 0.0000 0.0000 28.5932 0.0000 0.0000
# 5 0.0000 0.0000 0.0000 0.0000 28.5932 0.0000
# 6 0.0000 0.0000 0.0000 0.0000 0.0000 34.1711
#
#
#
# Elastic Compliance Matrix: (Units=1/GPa)
#
#
# Indices 1 2 3 4 5 6 
#
# 1 0.011931 -0.002701 -0.003418 0.000000 0.000000 0.000000
# 2 -0.002701 0.011931 -0.003418 0.000000 0.000000 0.000000
# 3 -0.003418 -0.003418 0.015180 0.000000 0.000000 0.000000
# 4 0.000000 0.000000 0.000000 0.034973 0.000000 0.000000
# 5 0.000000 0.000000 0.000000 0.000000 0.034973 0.000000
# 6 0.000000 0.000000 0.000000 0.000000 0.000000 0.029264
#
#
# Mechanical properties :
#
#
# Convention : Reuss Voigt Hill
#
# Bulk Modulus (GPa) = 50.07907 50.69031 50.38469
# Shear Modulus (GPa) = 30.49120 30.80732 30.64926
#
# Velocity S-wave (km/s) = 3.51804 3.53623 3.52714
# Velocity P-wave (km/s) = 6.06874 6.10318 6.08598
#
# Compressibility (1/GPa) = 0.01996842
#
# Stress axis : x y z
#
# Youngs Moduli (GPa) = 83.81554 83.81554 65.87832
#
# Poissons Ratio (x) = 0.22641 0.22515
# Poissons Ratio (y) = 0.22641 0.22515
# Poissons Ratio (z) = 0.28645 0.28645
#
# Static dielectric constant tensor:
#      x y z
#    x 2.099240 0.000000 0.000000 
#    y 0.000000 2.099240 0.000000 
#    z 0.000000 0.000000 1.920280 
# 
# From -- ./inp_files/1550.got.cif
#   From: 2010.05.17/outbox.cif.g08.bks.cpg/sg171_1_cif.got.tgz:1550.got - 2010.05.20 11:16:09.
