data_PCOD9580989
_publ_section_title
;
Structure prediction by ZEFSAII (Michael W. Deem and Ramdas Pophale) SiO2 
 PCOD9580989
Probable space group: P 64
;
_chemical_formula_sum "Si O2"
_cell_formula_units_Z 24
_cell_length_a 10.253933
_cell_length_b 10.253933
_cell_length_c 12.300825
_cell_angle_alpha 90.000000
_cell_angle_beta 90.000000
_cell_angle_gamma 120.000000
_cell_volume 1120.071695
_symmetry_space_group_name_H-M "P 64"
_symmetry_group_IT_number 172
_symmetry_cell_setting 'hexagonal'
loop_
_space_group_symop_operation_xyz
x,y,z
x-y,x,2/3+z
-y,x-y,1/3+z
-x,-y,z
-x+y,-x,2/3+z
y,-x+y,1/3+z
loop_
_atom_site_type_symbol
_atom_site_label
_atom_site_fract_x
_atom_site_fract_y
_atom_site_fract_z
Si Si1 0.718392 0.055080 0.269840
Si Si2 0.347395 0.532008 0.054043
Si Si3 0.352858 0.500352 0.307213
Si Si4 0.334032 0.986381 0.015028
O O1 0.622320 0.129321 0.312768
O O2 0.682271 0.005450 0.145219
O O3 0.886817 0.192792 0.291916
O O4 0.640080 0.900410 0.342056
O O5 0.382505 0.534616 0.179798
O O6 0.270068 0.631030 0.041513
O O7 0.500000 0.500000 0.349893
O O8 0.178852 0.376026 0.316486
O O9 0.500000 0.000000 0.992112
#
# Coordination Sequence:
#
# PCOD9580989 Si02
#       4
#     6   6   6   6
#     4  11  23  43  69 101 138 187 226 290 362 421
#     4  11  22  43  70 100 141 180 236 293 362 420
#     4  12  26  41  71 105 138 183 240 300 346 430
#     4  12  25  42  72 107 142 183 242 299 352 428
#
# _framework density 21.427201
#
# number of rings (size 3 to 8) (size 9 to 14) (size 15 to 20)
#    0.000    0.500    7.500    3.000    3.500    0.000 
#    0.000    1.250    0.000    0.000    0.000    0.000 
#    0.000    0.000    0.000    0.000    0.000    0.000 
#
# Total GULP energy -133637.864729 kJ/mol
# GULP energy per Si atom -5568.244364 kJ/mol
# Density = 2.137843 g / cm^3
# Si number density = 21.427201 Si / 1000 Ang^3
#
#
#
# Elastic Constant Matrix: (Units=GPa)
#
#
# Indices 1 2 3 4 5 6 
#
# 1 83.5561 6.5592 -17.9627 0.0000 0.0000 0.0000
# 2 6.5592 83.5561 -17.9627 0.0000 0.0000 0.0000
# 3 -17.9627 -17.9627 45.5627 0.0000 0.0000 0.0000
# 4 0.0000 0.0000 0.0000 7.4913 0.0000 0.0000
# 5 0.0000 0.0000 0.0000 0.0000 7.4913 0.0000
# 6 0.0000 0.0000 0.0000 0.0000 0.0000 38.4984
#
#
#
# Elastic Compliance Matrix: (Units=1/GPa)
#
#
# Indices 1 2 3 4 5 6 
#
# 1 0.013077 0.000089 0.005191 0.000000 0.000000 0.000000
# 2 0.000089 0.013077 0.005191 0.000000 0.000000 0.000000
# 3 0.005191 0.005191 0.026041 0.000000 0.000000 0.000000
# 4 0.000000 0.000000 0.000000 0.133489 0.000000 0.000000
# 5 0.000000 0.000000 0.000000 0.000000 0.133489 0.000000
# 6 0.000000 0.000000 0.000000 0.000000 0.000000 0.025975
#
#
# Mechanical properties :
#
#
# Convention : Reuss Voigt Hill
#
# Bulk Modulus (GPa) = 13.67324 17.10473 15.38898
# Shear Modulus (GPa) = 14.34372 26.83226 20.58799
#
# Velocity S-wave (km/s) = 2.59012 3.54256 3.10310
# Velocity P-wave (km/s) = 3.91664 4.97323 4.47622
#
# Compressibility (1/GPa) = 0.07313557
#
# Stress axis : x y z
#
# Youngs Moduli (GPa) = 76.47088 76.47088 38.40169
#
# Poissons Ratio (x) = -0.00683 -0.19933
# Poissons Ratio (y) = -0.00683 -0.19933
# Poissons Ratio (z) = -0.39693 -0.39693
#
# Static dielectric constant tensor:
#      x y z
#    x 2.030580 0.000000 0.000000 
#    y 0.000000 2.030580 0.000000 
#    z 0.000000 0.000000 1.742010 
# 
# From -- ./inp_files/981.got.cif
#   From: 2010.05.17/outbox.cif.g08.bks.cpg/sg172_1_cif.got.tgz:981.got - 2010.05.20 11:19:57.
