data_PCOD9580386
_publ_section_title
;
Structure prediction by ZEFSAII (Michael W. Deem and Ramdas Pophale) SiO2 
 PCOD9580386
Probable space group: P 65
;
_chemical_formula_sum "Si O2"
_cell_formula_units_Z 48
_cell_length_a 13.873711
_cell_length_b 13.873711
_cell_length_c 12.746931
_cell_angle_alpha 90.000000
_cell_angle_beta 90.000000
_cell_angle_gamma 120.000000
_cell_volume 2124.817105
_symmetry_space_group_name_H-M "P 65"
_symmetry_group_IT_number 170
_symmetry_cell_setting 'hexagonal'
loop_
_space_group_symop_operation_xyz
x,y,z
x-y,x,5/6+z
-y,x-y,2/3+z
-x,-y,1/2+z
-x+y,-x,1/3+z
y,-x+y,1/6+z
loop_
_atom_site_type_symbol
_atom_site_label
_atom_site_fract_x
_atom_site_fract_y
_atom_site_fract_z
Si Si1 0.925223 0.270729 0.807190
Si Si2 0.664104 0.463241 0.156314
Si Si3 0.658444 0.408969 0.933148
Si Si4 0.011960 0.182823 0.620089
Si Si5 0.377755 0.346657 0.679862
Si Si6 0.599856 0.133158 0.144261
Si Si7 0.308628 0.915817 0.318355
Si Si8 0.432875 0.463483 0.314295
O O1 0.948156 0.222881 0.701223
O O2 0.897324 0.370109 0.800638
O O3 0.814449 0.169123 0.858127
O O4 0.036706 0.329635 0.875863
O O5 0.717145 0.436217 0.255862
O O6 0.690288 0.588323 0.164514
O O7 0.528628 0.383551 0.145514
O O8 0.710029 0.443083 0.047509
O O9 0.740455 0.414908 0.842169
O O10 0.620488 0.496153 0.901423
O O11 0.074143 0.294831 0.547739
O O12 0.086716 0.154418 0.701173
O O13 0.446599 0.370328 0.572656
O O14 0.467194 0.422782 0.767995
O O15 0.616512 0.087833 0.035330
O O16 0.386988 0.026918 0.385976
#
# Coordination Sequence:
#
# PCOD9580386 Si02
#       8
#     6   6   6   6   6   6   6   6
#     4  12  22  44  71 108 142 185 247 314 377 459
#     4  11  25  39  65 102 143 191 232 292 365 445
#     4  12  26  39  64  98 144 190 235 295 366 445
#     4  12  29  50  85 111 139 192 267 340 401 464
#     4  11  25  44  70 103 145 189 246 307 372 469
#     4  12  24  41  65 102 151 194 244 299 375 459
#     4  11  25  40  66 100 143 189 242 296 375 453
#     4  11  24  41  62  98 149 196 243 301 365 468
#
# _framework density 22.590178000000002
#
# number of rings (size 3 to 8) (size 9 to 14) (size 15 to 20)
#    0.000    0.500    7.500    0.750   10.500    0.000 
#    0.000    0.000    5.500    0.000    0.000    0.000 
#    0.000    0.000    0.000    0.000    0.000    0.000 
#
# Total GULP energy -267868.693640 kJ/mol
# GULP energy per Si atom -5580.597784 kJ/mol
# Density = 2.253876 g / cm^3
# Si number density = 22.590178 Si / 1000 Ang^3
#
#
#
# Elastic Constant Matrix: (Units=GPa)
#
#
# Indices 1 2 3 4 5 6 
#
# 1 71.0491 31.1942 36.6336 0.0000 0.0000 0.0000
# 2 31.1942 71.0491 36.6336 0.0000 0.0000 0.0000
# 3 36.6336 36.6336 111.0383 0.0000 0.0000 0.0000
# 4 0.0000 0.0000 0.0000 45.5166 0.0000 0.0000
# 5 0.0000 0.0000 0.0000 0.0000 45.5166 0.0000
# 6 0.0000 0.0000 0.0000 0.0000 0.0000 19.9274
#
#
#
# Elastic Compliance Matrix: (Units=1/GPa)
#
#
# Indices 1 2 3 4 5 6 
#
# 1 0.018950 -0.006141 -0.004226 0.000000 0.000000 0.000000
# 2 -0.006141 0.018950 -0.004226 0.000000 0.000000 0.000000
# 3 -0.004226 -0.004226 0.011794 0.000000 0.000000 0.000000
# 4 0.000000 0.000000 0.000000 0.021970 0.000000 0.000000
# 5 0.000000 0.000000 0.000000 0.000000 0.021970 0.000000
# 6 0.000000 0.000000 0.000000 0.000000 0.000000 0.050182
#
#
# Mechanical properties :
#
#
# Convention : Reuss Voigt Hill
#
# Bulk Modulus (GPa) = 48.76034 51.33991 50.05013
# Shear Modulus (GPa) = 27.80279 32.10381 29.95330
#
# Velocity S-wave (km/s) = 3.51201 3.77389 3.64530
# Velocity P-wave (km/s) = 6.17067 6.46264 6.31834
#
# Compressibility (1/GPa) = 0.02050847
#
# Stress axis : x y z
#
# Youngs Moduli (GPa) = 52.77064 52.77064 84.78683
#
# Poissons Ratio (x) = 0.32407 0.35830
# Poissons Ratio (y) = 0.32407 0.35830
# Poissons Ratio (z) = 0.22300 0.22300
#
# Static dielectric constant tensor:
#      x y z
#    x 1.912420 0.000000 0.000000 
#    y 0.000000 1.912420 0.000000 
#    z 0.000000 0.000000 1.912100 
# 
# From -- ./inp_files/1087.got.cif
#   From: 2010.05.17/outbox.cif.g08.bks.cpg/sg170_cif.got.tgz:1087.got - 2010.05.20 11:14:30.
