data_PCOD9580730
_publ_section_title
;
Structure prediction by ZEFSAII (Michael W. Deem and Ramdas Pophale) SiO2 
 PCOD9580730
Probable space group: P 62
;
_chemical_formula_sum "Si O2"
_cell_formula_units_Z 39
_cell_length_a 12.840332
_cell_length_b 12.840332
_cell_length_c 13.340140
_cell_angle_alpha 90.000000
_cell_angle_beta 90.000000
_cell_angle_gamma 120.000000
_cell_volume 1904.774310
_symmetry_space_group_name_H-M "P 62"
_symmetry_group_IT_number 171
_symmetry_cell_setting 'hexagonal'
loop_
_space_group_symop_operation_xyz
x,y,z
x-y,x,1/3+z
-y,x-y,2/3+z
-x,-y,z
-x+y,-x,1/3+z
y,-x+y,2/3+z
loop_
_atom_site_type_symbol
_atom_site_label
_atom_site_fract_x
_atom_site_fract_y
_atom_site_fract_z
Si Si1 0.879433 0.073027 0.647610
Si Si2 0.351838 0.994832 0.968034
Si Si3 0.500000 0.000000 0.444194
Si Si4 0.000000 0.000000 0.817803
Si Si5 0.917118 0.316847 0.289642
Si Si6 0.500000 0.500000 0.121297
Si Si7 0.416165 0.605847 0.394656
Si Si8 0.433859 0.649190 0.625274
O O1 0.952367 0.215594 0.625859
O O2 0.937578 0.053265 0.746870
O O3 0.735852 0.008407 0.656355
O O4 0.903389 0.005046 0.556885
O O5 0.387589 0.960086 0.861956
O O6 0.475178 0.104005 0.013592
O O7 0.319390 0.879486 0.037073
O O8 0.577256 0.968003 0.520381
O O9 0.423627 0.888941 0.371604
O O10 0.777418 0.222959 0.276494
O O11 0.910709 0.400645 0.377429
O O12 0.397603 0.595240 0.513655
O O13 0.351906 0.669674 0.339808
#
# Coordination Sequence:
#
# PCOD9580730 Si02
#       8
#     6   6   3   3   6   3   6   6
#     4  11  25  46  70  98 138 183 238 292 347 420
#     4  10  24  43  72  99 139 185 236 287 355 428
#     4  11  26  43  70 106 140 181 234 279 368 418
#     4  10  26  46  66 102 128 182 240 286 348 402
#     4  11  26  41  70 103 140 191 229 296 357 425
#     4   9  22  41  62 104 128 179 236 275 358 416
#     4  10  25  43  68 106 137 188 227 288 362 421
#     4  12  25  46  69 105 147 178 232 297 351 445
#
# _framework density 20.474865999999999
#
# number of rings (size 3 to 8) (size 9 to 14) (size 15 to 20)
#    0.000    1.538    1.538    1.846   15.077    1.231 
#    2.769    0.000    0.000    0.000    0.000    0.000 
#    0.000    0.000    0.000    0.000    0.000    0.000 
#
# Total GULP energy -217590.991315 kJ/mol
# GULP energy per Si atom -5579.256188 kJ/mol
# Density = 2.042826 g / cm^3
# Si number density = 20.474866 Si / 1000 Ang^3
#
#
#
# Elastic Constant Matrix: (Units=GPa)
#
#
# Indices 1 2 3 4 5 6 
#
# 1 82.3262 38.2221 38.8917 0.0000 0.0000 0.0000
# 2 38.2221 82.3262 38.8917 0.0000 0.0000 0.0000
# 3 38.8917 38.8917 161.5629 0.0000 0.0000 0.0000
# 4 0.0000 0.0000 0.0000 9.6377 0.0000 0.0000
# 5 0.0000 0.0000 0.0000 0.0000 9.6377 0.0000
# 6 0.0000 0.0000 0.0000 0.0000 0.0000 22.0520
#
#
#
# Elastic Compliance Matrix: (Units=1/GPa)
#
#
# Indices 1 2 3 4 5 6 
#
# 1 0.016247 -0.006426 -0.002364 0.000000 0.000000 0.000000
# 2 -0.006426 0.016247 -0.002364 0.000000 0.000000 0.000000
# 3 -0.002364 -0.002364 0.007328 0.000000 0.000000 0.000000
# 4 0.000000 0.000000 0.000000 0.103759 0.000000 0.000000
# 5 0.000000 0.000000 0.000000 0.000000 0.103759 0.000000
# 6 0.000000 0.000000 0.000000 0.000000 0.000000 0.045347
#
#
# Mechanical properties :
#
#
# Convention : Reuss Voigt Hill
#
# Bulk Modulus (GPa) = 57.10027 62.02515 59.56271
# Shear Modulus (GPa) = 15.58437 22.27949 18.93193
#
# Velocity S-wave (km/s) = 2.76188 3.30227 3.04409
# Velocity P-wave (km/s) = 6.17407 6.70068 6.44276
#
# Compressibility (1/GPa) = 0.01751305
#
# Stress axis : x y z
#
# Youngs Moduli (GPa) = 61.54891 61.54891 136.46822
#
# Poissons Ratio (x) = 0.39554 0.32262
# Poissons Ratio (y) = 0.39554 0.32262
# Poissons Ratio (z) = 0.14551 0.14551
#
# Static dielectric constant tensor:
#      x y z
#    x 1.758980 0.000000 0.000000 
#    y 0.000000 1.758980 0.000000 
#    z 0.000000 0.000000 1.717310 
# 
# From -- ./inp_files/2049.got.cif
#   From: 2010.05.17/outbox.cif.g08.bks.cpg/sg171_2_cif.got.tgz:2049.got - 2010.05.20 11:16:09.
