data_PCOD9580589
_publ_section_title
;
Structure prediction by ZEFSAII (Michael W. Deem and Ramdas Pophale) SiO2 
 PCOD9580589
Probable space group: P 62
;
_chemical_formula_sum "Si O2"
_cell_formula_units_Z 42
_cell_length_a 15.763547
_cell_length_b 15.763547
_cell_length_c 10.301839
_cell_angle_alpha 90.000000
_cell_angle_beta 90.000000
_cell_angle_gamma 120.000000
_cell_volume 2216.936644
_symmetry_space_group_name_H-M "P 62"
_symmetry_group_IT_number 171
_symmetry_cell_setting 'hexagonal'
loop_
_space_group_symop_operation_xyz
x,y,z
x-y,x,1/3+z
-y,x-y,2/3+z
-x,-y,z
-x+y,-x,1/3+z
y,-x+y,2/3+z
loop_
_atom_site_type_symbol
_atom_site_label
_atom_site_fract_x
_atom_site_fract_y
_atom_site_fract_z
Si Si1 0.012879 0.405007 0.891580
Si Si2 0.405007 0.012879 0.664691
Si Si3 0.192299 0.783581 0.922265
Si Si4 0.310907 0.510733 0.834973
Si Si5 0.783581 0.192299 0.634006
Si Si6 0.689093 0.199826 0.387965
Si Si7 0.679569 0.000000 0.944802
O O1 0.919164 0.303558 0.936955
O O2 0.000000 0.500000 0.906543
O O3 0.016683 0.385202 0.739230
O O4 0.107917 0.426720 0.975132
O O5 0.426720 0.107917 0.581139
O O6 0.500000 0.000000 0.649729
O O7 0.303558 0.919164 0.619317
O O8 0.385202 0.016683 0.817041
O O9 0.227275 0.772725 0.778136
O O10 0.219585 0.897062 0.925868
O O11 0.239340 0.763298 0.048006
O O12 0.415980 0.584020 0.778136
O O13 0.281567 0.563135 0.944802
O O14 0.763298 0.239340 0.508266
O O15 0.897062 0.219585 0.630403
#
# Coordination Sequence:
#
# PCOD9580589 Si02
#       7
#     6   6   6   6   6   6   6
#     4  11  21  38  64  86 123 160 210 265 325 391
#     4  11  21  38  64  86 123 160 210 265 325 391
#     4  10  22  38  61  86 119 163 211 256 317 384
#     4  12  24  41  60  88 126 165 216 268 326 395
#     4  10  22  38  61  86 119 163 211 256 317 384
#     4  12  24  41  60  88 126 165 216 268 326 395
#     4  10  21  40  58  90 123 166 208 262 321 396
#
# _framework density 18.945062
#
# number of rings (size 3 to 8) (size 9 to 14) (size 15 to 20)
#    0.000    1.143    5.714    1.286    0.000    1.143 
#    0.000    0.000    0.000    0.000    0.000    1.000 
#    0.000    0.000    0.000    0.000    0.000    0.000 
#
# Total GULP energy -233882.331581 kJ/mol
# GULP energy per Si atom -5568.626942 kJ/mol
# Density = 1.890194 g / cm^3
# Si number density = 18.945062 Si / 1000 Ang^3
#
#
#
# Elastic Constant Matrix: (Units=GPa)
#
#
# Indices 1 2 3 4 5 6 
#
# 1 82.0712 33.2340 22.9577 0.0000 0.0000 0.0000
# 2 33.2340 82.0712 22.9577 0.0000 0.0000 0.0000
# 3 22.9577 22.9577 150.4261 0.0000 0.0000 0.0000
# 4 0.0000 0.0000 0.0000 24.9939 0.0000 0.0000
# 5 0.0000 0.0000 0.0000 0.0000 24.9939 0.0000
# 6 0.0000 0.0000 0.0000 0.0000 0.0000 24.4186
#
#
#
# Elastic Compliance Matrix: (Units=1/GPa)
#
#
# Indices 1 2 3 4 5 6 
#
# 1 0.014855 -0.005621 -0.001409 0.000000 0.000000 0.000000
# 2 -0.005621 0.014855 -0.001409 0.000000 0.000000 0.000000
# 3 -0.001409 -0.001409 0.007078 0.000000 0.000000 0.000000
# 4 0.000000 0.000000 0.000000 0.040010 0.000000 0.000000
# 5 0.000000 0.000000 0.000000 0.000000 0.040010 0.000000
# 6 0.000000 0.000000 0.000000 0.000000 0.000000 0.040952
#
#
# Mechanical properties :
#
#
# Convention : Reuss Voigt Hill
#
# Bulk Modulus (GPa) = 50.22961 52.54082 51.38522
# Shear Modulus (GPa) = 27.58230 30.57585 29.07908
#
# Velocity S-wave (km/s) = 3.81978 4.02172 3.92205
# Velocity P-wave (km/s) = 6.78418 7.02561 6.90595
#
# Compressibility (1/GPa) = 0.01990857
#
# Stress axis : x y z
#
# Youngs Moduli (GPa) = 67.31734 67.31734 141.28415
#
# Poissons Ratio (x) = 0.37840 0.19910
# Poissons Ratio (y) = 0.37840 0.19910
# Poissons Ratio (z) = 0.09487 0.09487
#
# Static dielectric constant tensor:
#      x y z
#    x 1.689220 0.000000 0.000000 
#    y 0.000000 1.689220 0.000000 
#    z 0.000000 0.000000 1.738000 
# 
# From -- ./inp_files/1654.got.cif
#   From: 2010.05.17/outbox.cif.g08.bks.cpg/sg171_1_cif.got.tgz:1654.got - 2010.05.20 11:16:09.
