data_PCOD9580260
_publ_section_title
;
Structure prediction by ZEFSAII (Michael W. Deem and Ramdas Pophale) SiO2 
 PCOD9580260
Probable space group: P 65
;
_chemical_formula_sum "Si O2"
_cell_formula_units_Z 48
_cell_length_a 21.005424
_cell_length_b 21.005424
_cell_length_c 7.731871
_cell_angle_alpha 90.000000
_cell_angle_beta 90.000000
_cell_angle_gamma 120.000000
_cell_volume 2954.460145
_symmetry_space_group_name_H-M "P 65"
_symmetry_group_IT_number 170
_symmetry_cell_setting 'hexagonal'
loop_
_space_group_symop_operation_xyz
x,y,z
x-y,x,5/6+z
-y,x-y,2/3+z
-x,-y,1/2+z
-x+y,-x,1/3+z
y,-x+y,1/6+z
loop_
_atom_site_type_symbol
_atom_site_label
_atom_site_fract_x
_atom_site_fract_y
_atom_site_fract_z
Si Si1 0.368700 0.483033 0.255990
Si Si2 0.374740 0.652689 0.928582
Si Si3 0.515957 0.563094 0.686025
Si Si4 0.779140 0.270157 0.657973
Si Si5 0.641600 0.569973 0.144187
Si Si6 0.454734 0.240146 0.350573
Si Si7 0.849202 0.484096 0.177379
Si Si8 0.333828 0.922778 0.690224
O O1 0.420727 0.458771 0.157381
O O2 0.363490 0.462903 0.455745
O O3 0.285498 0.445741 0.198896
O O4 0.407990 0.570873 0.265623
O O5 0.345008 0.682144 0.772762
O O6 0.342229 0.565915 0.887843
O O7 0.463148 0.700429 0.919191
O O8 0.439534 0.487429 0.720055
O O9 0.502376 0.603610 0.521473
O O10 0.544176 0.612025 0.861392
O O11 0.859600 0.297353 0.583479
O O12 0.754168 0.210573 0.811186
O O13 0.710764 0.226408 0.530910
O O14 0.650842 0.648574 0.092981
O O15 0.397761 0.256632 0.449140
O O16 0.892953 0.541471 0.028682
#
# Coordination Sequence:
#
# PCOD9580260 Si02
#       8
#     6   6   6   6   6   6   6   6
#     4  10  22  34  55  72  96 129 168 206 268 329
#     4  10  23  33  46  64  96 123 153 195 254 319
#     4  10  21  39  50  80  95 125 167 216 258 327
#     4  11  23  35  50  71  98 127 167 211 264 321
#     4  10  22  35  54  69  95 126 171 205 263 329
#     4  11  23  35  50  72  98 125 160 213 263 316
#     4  11  22  35  54  71  99 128 163 214 262 320
#     4  11  22  36  53  69  95 125 159 210 264 309
#
# _framework density 16.246621999999999
#
# number of rings (size 3 to 8) (size 9 to 14) (size 15 to 20)
#    0.000    1.500    2.500    2.250   15.750    0.000 
#    0.000    0.000    0.000    0.000    0.000    0.000 
#    0.000    0.000    0.000    0.000    0.000    0.000 
#
# Total GULP energy -267541.923896 kJ/mol
# GULP energy per Si atom -5573.790081 kJ/mol
# Density = 1.620964 g / cm^3
# Si number density = 16.246622 Si / 1000 Ang^3
#
#
#
# Elastic Constant Matrix: (Units=GPa)
#
#
# Indices 1 2 3 4 5 6 
#
# 1 68.7885 29.1163 15.8610 0.0000 0.0000 0.0000
# 2 29.1163 68.7885 15.8610 0.0000 0.0000 0.0000
# 3 15.8610 15.8610 63.7175 0.0000 0.0000 0.0000
# 4 0.0000 0.0000 0.0000 20.3855 0.0000 0.0000
# 5 0.0000 0.0000 0.0000 0.0000 20.3855 0.0000
# 6 0.0000 0.0000 0.0000 0.0000 0.0000 19.8361
#
#
#
# Elastic Compliance Matrix: (Units=1/GPa)
#
#
# Indices 1 2 3 4 5 6 
#
# 1 0.018158 -0.007048 -0.002766 0.000000 0.000000 0.000000
# 2 -0.007048 0.018158 -0.002766 0.000000 0.000000 0.000000
# 3 -0.002766 -0.002766 0.017071 0.000000 0.000000 0.000000
# 4 0.000000 0.000000 0.000000 0.049054 0.000000 0.000000
# 5 0.000000 0.000000 0.000000 0.000000 0.049054 0.000000
# 6 0.000000 0.000000 0.000000 0.000000 0.000000 0.050413
#
#
# Mechanical properties :
#
#
# Convention : Reuss Voigt Hill
#
# Bulk Modulus (GPa) = 35.42468 35.88568 35.65518
# Shear Modulus (GPa) = 21.14359 21.48517 21.31438
#
# Velocity S-wave (km/s) = 3.61143 3.64048 3.62598
# Velocity P-wave (km/s) = 6.26431 6.30927 6.28683
#
# Compressibility (1/GPa) = 0.02822890
#
# Stress axis : x y z
#
# Youngs Moduli (GPa) = 55.07117 55.07117 58.57837
#
# Poissons Ratio (x) = 0.38815 0.16200
# Poissons Ratio (y) = 0.38815 0.16200
# Poissons Ratio (z) = 0.15231 0.15231
#
# Static dielectric constant tensor:
#      x y z
#    x 1.619440 0.000000 0.000000 
#    y 0.000000 1.619440 0.000000 
#    z 0.000000 0.000000 1.640940 
# 
# From -- ./inp_files/799.got.cif
#   From: 2010.05.17/outbox.cif.g08.bks.cpg/sg170_cif.got.tgz:799.got - 2010.05.20 11:14:30.
