data_PCOD9580995
_publ_section_title
;
Structure prediction by ZEFSAII (Michael W. Deem and Ramdas Pophale) SiO2 
 PCOD9580995
Probable space group: P 64
;
_chemical_formula_sum "Si O2"
_cell_formula_units_Z 24
_cell_length_a 13.635792
_cell_length_b 13.635792
_cell_length_c 5.956578
_cell_angle_alpha 90.000000
_cell_angle_beta 90.000000
_cell_angle_gamma 120.000000
_cell_volume 959.153687
_symmetry_space_group_name_H-M "P 64"
_symmetry_group_IT_number 172
_symmetry_cell_setting 'hexagonal'
loop_
_space_group_symop_operation_xyz
x,y,z
x-y,x,2/3+z
-y,x-y,1/3+z
-x,-y,z
-x+y,-x,2/3+z
y,-x+y,1/3+z
loop_
_atom_site_type_symbol
_atom_site_label
_atom_site_fract_x
_atom_site_fract_y
_atom_site_fract_z
Si Si1 0.040415 0.856226 0.016570
Si Si2 0.255090 0.926313 0.335502
Si Si3 0.685838 0.245882 0.950524
Si Si4 0.464245 0.159081 0.224057
O O1 0.148554 0.896009 0.175190
O O2 0.942094 0.859821 0.147379
O O3 0.980935 0.732698 0.903949
O O4 0.231638 0.801088 0.391267
O O5 0.367880 0.026759 0.222570
O O6 0.614948 0.249153 0.739006
O O7 0.788652 0.249909 0.804425
O O8 0.582616 0.172953 0.128718
#
# Coordination Sequence:
#
# PCOD9580995 Si02
#       4
#     6   6   6   6
#     4  12  24  43  64 108 154 208 250 317 378 478
#     4  12  26  43  77 106 158 200 260 304 400 466
#     4   9  22  48  76  98 141 180 251 319 374 442
#     4  11  24  48  76 112 146 204 248 325 378 472
#
# _framework density 25.022061999999998
#
# number of rings (size 3 to 8) (size 9 to 14) (size 15 to 20)
#    0.000    1.000    5.000    0.000    3.500    5.000 
#    0.000   16.250    0.000    0.000    0.000    0.000 
#    0.000    0.000    0.000    0.000    0.000    0.000 
#
# Total GULP energy -133748.878087 kJ/mol
# GULP energy per Si atom -5572.869920 kJ/mol
# Density = 2.496511 g / cm^3
# Si number density = 25.022062 Si / 1000 Ang^3
#
#
#
# Elastic Constant Matrix: (Units=GPa)
#
#
# Indices 1 2 3 4 5 6 
#
# 1 111.1549 46.3269 27.6234 0.0000 0.0000 0.0000
# 2 46.3269 111.1549 27.6234 0.0000 0.0000 0.0000
# 3 27.6234 27.6234 58.3395 0.0000 0.0000 0.0000
# 4 0.0000 0.0000 0.0000 57.7125 0.0000 0.0000
# 5 0.0000 0.0000 0.0000 0.0000 57.7125 0.0000
# 6 0.0000 0.0000 0.0000 0.0000 0.0000 32.4140
#
#
#
# Elastic Compliance Matrix: (Units=1/GPa)
#
#
# Indices 1 2 3 4 5 6 
#
# 1 0.011520 -0.003905 -0.003606 0.000000 0.000000 0.000000
# 2 -0.003905 0.011520 -0.003606 0.000000 0.000000 0.000000
# 3 -0.003606 -0.003606 0.020555 0.000000 0.000000 0.000000
# 4 0.000000 0.000000 0.000000 0.017327 0.000000 0.000000
# 5 0.000000 0.000000 0.000000 0.000000 0.017327 0.000000
# 6 0.000000 0.000000 0.000000 0.000000 0.000000 0.030851
#
#
# Mechanical properties :
#
#
# Convention : Reuss Voigt Hill
#
# Bulk Modulus (GPa) = 46.81026 53.75519 50.28272
# Shear Modulus (GPa) = 36.11282 41.50617 38.80950
#
# Velocity S-wave (km/s) = 3.80312 4.07723 3.94256
# Velocity P-wave (km/s) = 6.16710 6.61021 6.39250
#
# Compressibility (1/GPa) = 0.02136284
#
# Stress axis : x y z
#
# Youngs Moduli (GPa) = 86.80458 86.80458 48.64887
#
# Poissons Ratio (x) = 0.33900 0.17541
# Poissons Ratio (y) = 0.33900 0.17541
# Poissons Ratio (z) = 0.31298 0.31298
#
# Static dielectric constant tensor:
#      x y z
#    x 1.985090 0.000000 0.000000 
#    y 0.000000 1.985090 0.000000 
#    z 0.000000 0.000000 1.975520 
# 
# From -- ./inp_files/98.got.cif
#   From: 2010.05.17/outbox.cif.g08.bks.cpg/sg172_1_cif.got.tgz:98.got - 2010.05.20 11:19:57.
