data_PCOD9580797
_publ_section_title
;
Structure prediction by ZEFSAII (Michael W. Deem and Ramdas Pophale) SiO2 
 PCOD9580797
Probable space group: P 62
;
_chemical_formula_sum "Si O2"
_cell_formula_units_Z 33
_cell_length_a 13.949602
_cell_length_b 13.949602
_cell_length_c 8.317317
_cell_angle_alpha 90.000000
_cell_angle_beta 90.000000
_cell_angle_gamma 120.000000
_cell_volume 1401.643345
_symmetry_space_group_name_H-M "P 62"
_symmetry_group_IT_number 171
_symmetry_cell_setting 'hexagonal'
loop_
_space_group_symop_operation_xyz
x,y,z
x-y,x,1/3+z
-y,x-y,2/3+z
-x,-y,z
-x+y,-x,1/3+z
y,-x+y,2/3+z
loop_
_atom_site_type_symbol
_atom_site_label
_atom_site_fract_x
_atom_site_fract_y
_atom_site_fract_z
Si Si1 0.409131 0.610841 0.455890
Si Si2 0.863958 0.226610 0.857473
Si Si3 0.365297 0.567871 0.126353
Si Si4 0.118546 0.344612 0.858255
Si Si5 0.500000 0.500000 0.897278
Si Si6 0.371474 0.244804 0.867284
O O1 0.329295 0.490400 0.529613
O O2 0.448793 0.600956 0.277254
O O3 0.323122 0.653619 0.418045
O O4 0.521653 0.693531 0.543336
O O5 0.792614 0.132218 0.721165
O O6 0.991239 0.284792 0.808962
O O7 0.848661 0.180363 0.038375
O O8 0.251833 0.471585 0.192201
O O9 0.416094 0.527915 0.990736
O O10 0.121671 0.303082 0.039706
O O11 0.415757 0.375198 0.833195
#
# Coordination Sequence:
#
# PCOD9580797 Si02
#       6
#     6   6   6   6   3   6
#     4  11  21  39  63  99 142 202 239 298 347 441
#     4  11  27  46  65 106 141 195 243 313 364 436
#     4  11  22  40  64  95 149 197 245 292 357 424
#     4  12  27  44  71 101 147 190 253 300 378 444
#     4  12  24  42  62 102 144 206 248 290 368 434
#     4  11  28  40  69  99 146 196 242 304 352 444
#
# _framework density 23.543790999999999
#
# number of rings (size 3 to 8) (size 9 to 14) (size 15 to 20)
#    0.000    0.727    5.455    1.636   15.273    0.000 
#    0.000    0.000    0.000    0.000    0.000    6.364 
#    0.000    0.000    0.000    0.000    0.000    0.000 
#
# Total GULP energy -184037.582913 kJ/mol
# GULP energy per Si atom -5576.896452 kJ/mol
# Density = 2.349020 g / cm^3
# Si number density = 23.543791 Si / 1000 Ang^3
#
#
#
# Elastic Constant Matrix: (Units=GPa)
#
#
# Indices 1 2 3 4 5 6 
#
# 1 76.0188 27.4923 18.0911 0.0000 0.0000 0.0000
# 2 27.4923 76.0188 18.0911 0.0000 0.0000 0.0000
# 3 18.0911 18.0911 141.8395 0.0000 0.0000 0.0000
# 4 0.0000 0.0000 0.0000 25.2377 0.0000 0.0000
# 5 0.0000 0.0000 0.0000 0.0000 25.2377 0.0000
# 6 0.0000 0.0000 0.0000 0.0000 0.0000 24.2632
#
#
#
# Elastic Compliance Matrix: (Units=1/GPa)
#
#
# Indices 1 2 3 4 5 6 
#
# 1 0.015359 -0.005248 -0.001290 0.000000 0.000000 0.000000
# 2 -0.005248 0.015359 -0.001290 0.000000 0.000000 0.000000
# 3 -0.001290 -0.001290 0.007379 0.000000 0.000000 0.000000
# 4 0.000000 0.000000 0.000000 0.039623 0.000000 0.000000
# 5 0.000000 0.000000 0.000000 0.000000 0.039623 0.000000
# 6 0.000000 0.000000 0.000000 0.000000 0.000000 0.041215
#
#
# Mechanical properties :
#
#
# Convention : Reuss Voigt Hill
#
# Bulk Modulus (GPa) = 44.55606 46.80291 45.67948
# Shear Modulus (GPa) = 27.51866 30.29457 28.90662
#
# Velocity S-wave (km/s) = 3.42252 3.59100 3.50777
# Velocity P-wave (km/s) = 5.88082 6.09228 5.98749
#
# Compressibility (1/GPa) = 0.02244364
#
# Stress axis : x y z
#
# Youngs Moduli (GPa) = 65.10647 65.10647 135.51572
#
# Poissons Ratio (x) = 0.34167 0.17477
# Poissons Ratio (y) = 0.34167 0.17477
# Poissons Ratio (z) = 0.08397 0.08397
#
# Static dielectric constant tensor:
#      x y z
#    x 1.886490 0.000000 0.000000 
#    y 0.000000 1.886490 0.000000 
#    z 0.000000 0.000000 2.161860 
# 
# From -- ./inp_files/1140.got.cif
#   From: 2010.05.17/outbox.cif.g08.bks.cpg/sg171_1_cif.got.tgz:1140.got - 2010.05.20 11:16:09.
