data_PCOD9580508
_publ_section_title
;
Structure prediction by ZEFSAII (Michael W. Deem and Ramdas Pophale) SiO2 
 PCOD9580508
Probable space group: P 62
;
_chemical_formula_sum "Si O2"
_cell_formula_units_Z 36
_cell_length_a 8.750706
_cell_length_b 8.750706
_cell_length_c 25.537059
_cell_angle_alpha 90.000000
_cell_angle_beta 90.000000
_cell_angle_gamma 120.000000
_cell_volume 1693.509735
_symmetry_space_group_name_H-M "P 62"
_symmetry_group_IT_number 171
_symmetry_cell_setting 'hexagonal'
loop_
_space_group_symop_operation_xyz
x,y,z
x-y,x,1/3+z
-y,x-y,2/3+z
-x,-y,z
-x+y,-x,1/3+z
y,-x+y,2/3+z
loop_
_atom_site_type_symbol
_atom_site_label
_atom_site_fract_x
_atom_site_fract_y
_atom_site_fract_z
Si Si1 0.932512 0.800067 0.839130
Si Si2 0.680321 0.985349 0.611944
Si Si3 0.826449 0.511816 0.028348
Si Si4 0.542702 0.177888 0.471599
Si Si5 0.818186 0.316914 0.881537
Si Si6 0.818872 0.359572 0.642324
O O1 0.813368 0.737604 0.892739
O O2 0.812131 0.649209 0.796564
O O3 0.107912 0.796197 0.854562
O O4 0.000000 0.000000 0.823471
O O5 0.653140 0.848128 0.659329
O O6 0.500000 0.000000 0.609522
O O7 0.823189 0.187484 0.623644
O O8 0.644493 0.336689 0.015610
O O9 0.000000 0.500000 0.012338
O O10 0.827332 0.490222 0.091081
O O11 0.641284 0.349307 0.506490
O O12 0.500000 0.000000 0.501472
O O13 0.683393 0.228649 0.929112
O O14 0.000000 0.500000 0.895154
O O15 0.000000 0.500000 0.667038
#
# Coordination Sequence:
#
# PCOD9580508 Si02
#       6
#     6   6   6   6   6   6
#     4  11  21  36  61  92 120 148 194 257 313 362
#     4  10  20  37  60  84 113 151 197 240 294 360
#     4  10  21  39  58  77 112 159 197 233 293 367
#     4  10  21  39  58  79 113 157 199 240 292 367
#     4  10  20  36  60  83 114 152 188 235 298 356
#     4  11  21  35  57  87 115 143 189 247 290 340
#
# _framework density 21.257625999999998
#
# number of rings (size 3 to 8) (size 9 to 14) (size 15 to 20)
#    0.000    1.667    0.000    8.000    0.000    2.000 
#    0.000   15.833    0.000    0.000    0.000    0.000 
#    0.000    0.000    0.000    0.000    0.000    0.000 
#
# Total GULP energy -200453.997940 kJ/mol
# GULP energy per Si atom -5568.166609 kJ/mol
# Density = 2.120924 g / cm^3
# Si number density = 21.257626 Si / 1000 Ang^3
#
#
#
# Elastic Constant Matrix: (Units=GPa)
#
#
# Indices 1 2 3 4 5 6 
#
# 1 62.5892 -1.6675 0.2266 0.0000 0.0000 0.0000
# 2 -1.6675 62.5892 0.2266 0.0000 0.0000 0.0000
# 3 0.2266 0.2266 55.2787 0.0000 0.0000 0.0000
# 4 0.0000 0.0000 0.0000 -49.8305 0.0000 0.0000
# 5 0.0000 0.0000 0.0000 0.0000 -49.8305 0.0000
# 6 0.0000 0.0000 0.0000 0.0000 0.0000 32.1283
#
#
#
# Elastic Compliance Matrix: (Units=1/GPa)
#
#
# Indices 1 2 3 4 5 6 
#
# 1 0.015989 0.000426 -0.000067 0.000000 0.000000 0.000000
# 2 0.000426 0.015989 -0.000067 0.000000 0.000000 0.000000
# 3 -0.000067 -0.000067 0.018091 0.000000 0.000000 0.000000
# 4 0.000000 0.000000 0.000000 -0.020068 0.000000 0.000000
# 5 0.000000 0.000000 0.000000 0.000000 -0.020068 0.000000
# 6 0.000000 0.000000 0.000000 0.000000 0.000000 0.031125
#
#
# Mechanical properties :
#
#
# Convention : Reuss Voigt Hill
#
# Bulk Modulus (GPa) = 19.74272 19.78094 19.76183
# Shear Modulus (GPa) = 87.17195 -1.39508 42.88843
#
# Velocity S-wave (km/s) = 6.41065 -0.81099 4.49659
# Velocity P-wave (km/s) = 8.00642 2.90665 6.02293
#
# Compressibility (1/GPa) = 0.05065159
#
# Stress axis : x y z
#
# Youngs Moduli (GPa) = 62.54382 62.54382 55.27703
#
# Poissons Ratio (x) = -0.02666 0.00372
# Poissons Ratio (y) = -0.02666 0.00372
# Poissons Ratio (z) = 0.00421 0.00421
#
# Static dielectric constant tensor:
#      x y z
#    x 1.889290 0.000000 0.000000 
#    y 0.000000 1.889290 0.000000 
#    z 0.000000 0.000000 1.843720 
# 
# From -- ./inp_files/5742.got.cif
#   From: 2010.05.17/outbox.cif.g08.bks.cpg/sg171_3_cif.got.tgz:5742.got - 2010.05.20 11:16:09.
