data_PCOD9580674
_publ_section_title
;
Structure prediction by ZEFSAII (Michael W. Deem and Ramdas Pophale) SiO2 
 PCOD9580674
Probable space group: P 62
;
_chemical_formula_sum "Si O2"
_cell_formula_units_Z 30
_cell_length_a 15.000605
_cell_length_b 15.000605
_cell_length_c 6.910508
_cell_angle_alpha 90.000000
_cell_angle_beta 90.000000
_cell_angle_gamma 120.000000
_cell_volume 1346.660607
_symmetry_space_group_name_H-M "P 62"
_symmetry_group_IT_number 171
_symmetry_cell_setting 'hexagonal'
loop_
_space_group_symop_operation_xyz
x,y,z
x-y,x,1/3+z
-y,x-y,2/3+z
-x,-y,z
-x+y,-x,1/3+z
y,-x+y,2/3+z
loop_
_atom_site_type_symbol
_atom_site_label
_atom_site_fract_x
_atom_site_fract_y
_atom_site_fract_z
Si Si1 0.642438 0.250535 0.652550
Si Si2 0.120619 0.056717 0.587455
Si Si3 0.601536 0.829781 0.155891
Si Si4 0.552528 0.935803 0.508889
Si Si5 0.273142 0.004446 0.818557
O O1 0.669411 0.292895 0.437498
O O2 0.737087 0.242344 0.738307
O O3 0.536202 0.145372 0.650314
O O4 0.152508 0.029195 0.373575
O O5 0.186188 0.025894 0.728368
O O6 0.000000 0.000000 0.521494
O O7 0.577043 0.884132 0.330242
O O8 0.666770 0.777832 0.229839
O O9 0.665012 0.911151 0.984331
O O10 0.500000 0.000000 0.433603
O O11 0.652980 0.990758 0.643493
#
# Coordination Sequence:
#
# PCOD9580674 Si02
#       5
#     6   6   6   6   6
#     4  12  24  45  77 107 144 199 253 303 383 456
#     4  10  22  42  69 100 141 199 253 302 366 448
#     4  12  28  46  76 112 150 200 249 316 382 456
#     4  12  28  47  78 113 154 194 253 325 375 445
#     4  12  26  49  72 112 151 196 260 316 375 459
#
# _framework density 22.277329000000002
#
# number of rings (size 3 to 8) (size 9 to 14) (size 15 to 20)
#    0.000    0.400    8.000    0.000    0.000   10.400 
#    0.000    0.000    0.000    0.000    0.000    0.000 
#    0.000    0.000    0.000    0.000    0.000    0.000 
#
# Total GULP energy -167058.506393 kJ/mol
# GULP energy per Si atom -5568.616880 kJ/mol
# Density = 2.222663 g / cm^3
# Si number density = 22.277329 Si / 1000 Ang^3
#
#
#
# Elastic Constant Matrix: (Units=GPa)
#
#
# Indices 1 2 3 4 5 6 
#
# 1 122.9801 50.4531 23.0732 0.0000 0.0000 0.0000
# 2 50.4531 122.9801 23.0732 0.0000 0.0000 0.0000
# 3 23.0732 23.0732 50.6765 0.0000 0.0000 0.0000
# 4 0.0000 0.0000 0.0000 32.0443 0.0000 0.0000
# 5 0.0000 0.0000 0.0000 0.0000 32.0443 0.0000
# 6 0.0000 0.0000 0.0000 0.0000 0.0000 36.2635
#
#
#
# Elastic Compliance Matrix: (Units=1/GPa)
#
#
# Indices 1 2 3 4 5 6 
#
# 1 0.010174 -0.003614 -0.002987 0.000000 0.000000 0.000000
# 2 -0.003614 0.010174 -0.002987 0.000000 0.000000 0.000000
# 3 -0.002987 -0.002987 0.022453 0.000000 0.000000 0.000000
# 4 0.000000 0.000000 0.000000 0.031207 0.000000 0.000000
# 5 0.000000 0.000000 0.000000 0.000000 0.031207 0.000000
# 6 0.000000 0.000000 0.000000 0.000000 0.000000 0.027576
#
#
# Mechanical properties :
#
#
# Convention : Reuss Voigt Hill
#
# Bulk Modulus (GPa) = 42.32613 54.42620 48.37617
# Shear Modulus (GPa) = 31.28082 33.40624 32.34353
#
# Velocity S-wave (km/s) = 3.75127 3.87662 3.81446
# Velocity P-wave (km/s) = 6.14846 6.67247 6.41582
#
# Compressibility (1/GPa) = 0.02362607
#
# Stress axis : x y z
#
# Youngs Moduli (GPa) = 98.28649 98.28649 44.53723
#
# Poissons Ratio (x) = 0.35517 0.13304
# Poissons Ratio (y) = 0.35517 0.13304
# Poissons Ratio (z) = 0.29359 0.29359
#
# Static dielectric constant tensor:
#      x y z
#    x 1.969990 0.000000 0.000000 
#    y 0.000000 1.969990 0.000000 
#    z 0.000000 0.000000 2.112860 
# 
# From -- ./inp_files/630.got.cif
#   From: 2010.05.17/outbox.cif.g08.bks.cpg/sg171_1_cif.got.tgz:630.got - 2010.05.20 11:16:09.
