data_PCOD9580372
_publ_section_title
;
Structure prediction by ZEFSAII (Michael W. Deem and Ramdas Pophale) SiO2 
 PCOD9580372
Probable space group: P 65
;
_chemical_formula_sum "Si O2"
_cell_formula_units_Z 30
_cell_length_a 16.499468
_cell_length_b 16.499468
_cell_length_c 6.610794
_cell_angle_alpha 90.000000
_cell_angle_beta 90.000000
_cell_angle_gamma 120.000000
_cell_volume 1558.562198
_symmetry_space_group_name_H-M "P 65"
_symmetry_group_IT_number 170
_symmetry_cell_setting 'hexagonal'
loop_
_space_group_symop_operation_xyz
x,y,z
x-y,x,5/6+z
-y,x-y,2/3+z
-x,-y,1/2+z
-x+y,-x,1/3+z
y,-x+y,1/6+z
loop_
_atom_site_type_symbol
_atom_site_label
_atom_site_fract_x
_atom_site_fract_y
_atom_site_fract_z
Si Si1 0.074048 0.449986 0.605160
Si Si2 0.615583 0.795565 0.569669
Si Si3 0.202741 0.058896 0.830204
Si Si4 0.984931 0.685432 0.720180
Si Si5 0.904986 0.373558 0.912967
O O1 0.141207 0.428155 0.739549
O O2 0.119119 0.554043 0.517658
O O3 0.038515 0.377830 0.419576
O O4 0.986614 0.430187 0.748116
O O5 0.705988 0.884076 0.471238
O O6 0.652000 0.760677 0.757426
O O7 0.540035 0.823473 0.637924
O O8 0.162763 0.126796 0.772574
O O9 0.238397 0.029935 0.629907
O O10 0.053428 0.667665 0.578872
#
# Coordination Sequence:
#
# PCOD9580372 Si02
#       5
#     6   6   6   6   6
#     4  11  22  41  69  98 127 175 226 276 336 408
#     4  11  24  42  66 100 135 175 224 278 353 400
#     4  12  24  41  63  96 138 181 229 276 330 403
#     4  11  22  42  69  95 130 180 220 279 333 399
#     4  11  22  40  73  97 128 171 231 275 332 416
#
# _framework density 19.24851
#
# number of rings (size 3 to 8) (size 9 to 14) (size 15 to 20)
#    0.000    0.800    6.000    2.400    0.000    1.600 
#    0.000    0.000    4.400    0.000    0.000    0.000 
#    0.000    0.000    0.000    0.000    0.000    0.000 
#
# Total GULP energy -167790.851451 kJ/mol
# GULP energy per Si atom -5593.028382 kJ/mol
# Density = 1.920470 g / cm^3
# Si number density = 19.248510 Si / 1000 Ang^3
#
#
#
# Elastic Constant Matrix: (Units=GPa)
#
#
# Indices 1 2 3 4 5 6 
#
# 1 80.7145 32.0657 30.4215 0.0000 0.0000 0.0000
# 2 32.0657 80.7145 30.4215 0.0000 0.0000 0.0000
# 3 30.4215 30.4215 97.9581 0.0000 0.0000 0.0000
# 4 0.0000 0.0000 0.0000 18.7440 0.0000 0.0000
# 5 0.0000 0.0000 0.0000 0.0000 18.7440 0.0000
# 6 0.0000 0.0000 0.0000 0.0000 0.0000 24.3244
#
#
#
# Elastic Compliance Matrix: (Units=1/GPa)
#
#
# Indices 1 2 3 4 5 6 
#
# 1 0.015603 -0.004952 -0.003308 0.000000 0.000000 0.000000
# 2 -0.004952 0.015603 -0.003308 0.000000 0.000000 0.000000
# 3 -0.003308 -0.003308 0.012263 0.000000 0.000000 0.000000
# 4 0.000000 0.000000 0.000000 0.053350 0.000000 0.000000
# 5 0.000000 0.000000 0.000000 0.000000 0.053350 0.000000
# 6 0.000000 0.000000 0.000000 0.000000 0.000000 0.041111
#
#
# Mechanical properties :
#
#
# Convention : Reuss Voigt Hill
#
# Bulk Modulus (GPa) = 49.17801 49.46717 49.32259
# Shear Modulus (GPa) = 22.60447 23.46105 23.03276
#
# Velocity S-wave (km/s) = 3.43060 3.49499 3.46294
# Velocity P-wave (km/s) = 6.42623 6.48395 6.45516
#
# Compressibility (1/GPa) = 0.02033429
#
# Stress axis : x y z
#
# Youngs Moduli (GPa) = 64.08860 64.08860 81.54628
#
# Poissons Ratio (x) = 0.31737 0.26974
# Poissons Ratio (y) = 0.31737 0.26974
# Poissons Ratio (z) = 0.21199 0.21199
#
# Static dielectric constant tensor:
#      x y z
#    x 1.657060 0.000000 0.000000 
#    y 0.000000 1.657060 0.000000 
#    z 0.000000 0.000000 1.665840 
# 
# From -- ./inp_files/163.got.cif
#   From: 2010.05.17/outbox.cif.g08.bks.cpg/sg170_cif.got.tgz:163.got - 2010.05.20 11:14:30.
