data_PCOD9580108
_publ_section_title
;
Structure prediction by ZEFSAII (Michael W. Deem and Ramdas Pophale) SiO2 
 PCOD9580108
Probable space group: P 61
;
_chemical_formula_sum "Si O2"
_cell_formula_units_Z 48
_cell_length_a 17.393132
_cell_length_b 17.393132
_cell_length_c 7.844555
_cell_angle_alpha 90.000000
_cell_angle_beta 90.000000
_cell_angle_gamma 120.000000
_cell_volume 2055.202075
_symmetry_space_group_name_H-M "P 61"
_symmetry_group_IT_number 169
_symmetry_cell_setting 'hexagonal'
loop_
_space_group_symop_operation_xyz
x,y,z
x-y,x,1/6+z
-y,x-y,1/3+z
-x,-y,1/2+z
-x+y,-x,2/3+z
y,-x+y,5/6+z
loop_
_atom_site_type_symbol
_atom_site_label
_atom_site_fract_x
_atom_site_fract_y
_atom_site_fract_z
Si Si1 0.400088 0.424214 0.773210
Si Si2 0.714017 0.645171 0.820825
Si Si3 0.636369 0.367946 0.541201
Si Si4 0.780567 0.539294 0.994432
Si Si5 0.747493 0.099115 0.948111
Si Si6 0.830314 0.833849 0.010157
Si Si7 0.739658 0.572611 0.496774
Si Si8 0.536060 0.610144 0.628626
O O1 0.383261 0.355909 0.622300
O O2 0.305158 0.400177 0.847633
O O3 0.453785 0.523922 0.709065
O O4 0.449553 0.409735 0.934992
O O5 0.708045 0.564570 0.935704
O O6 0.776127 0.742171 0.900959
O O7 0.763334 0.637109 0.654401
O O8 0.621817 0.626565 0.738154
O O9 0.638733 0.340661 0.735762
O O10 0.542271 0.298042 0.455693
O O11 0.665658 0.471457 0.539354
O O12 0.829822 0.524405 0.833714
O O13 0.851630 0.624553 0.101092
O O14 0.809546 0.056988 0.984523
O O15 0.757215 0.170188 0.087013
O O16 0.844072 0.922130 0.913754
#
# Coordination Sequence:
#
# PCOD9580108 Si02
#       8
#     6   6   6   6   6   6   6   6
#     4  11  25  39  67 100 138 189 240 299 355 424
#     4  11  24  43  74 100 141 192 241 299 369 440
#     4  12  26  44  67 104 152 205 254 302 357 423
#     4  12  23  43  68  99 142 192 244 299 360 432
#     4  12  24  43  74 101 143 187 240 298 368 447
#     4  12  26  51  79 110 142 184 238 310 396 471
#     4  11  25  46  66 104 145 185 246 299 358 436
#     4  11  23  41  65 100 141 186 245 300 355 421
#
# _framework density 23.355366
#
# number of rings (size 3 to 8) (size 9 to 14) (size 15 to 20)
#    0.000    0.500    5.000    3.000    1.750    3.000 
#    2.250    0.000    0.000    0.000    0.000    0.000 
#    0.000    0.000    0.000    0.000    0.000    0.000 
#
# Total GULP energy -268419.403045 kJ/mol
# GULP energy per Si atom -5592.070897 kJ/mol
# Density = 2.330221 g / cm^3
# Si number density = 23.355366 Si / 1000 Ang^3
#
#
#
# Elastic Constant Matrix: (Units=GPa)
#
#
# Indices 1 2 3 4 5 6 
#
# 1 96.2099 19.6080 7.9325 0.0000 0.0000 0.0000
# 2 19.6080 96.2099 7.9325 0.0000 0.0000 0.0000
# 3 7.9325 7.9325 59.8064 0.0000 0.0000 0.0000
# 4 0.0000 0.0000 0.0000 31.1401 0.0000 0.0000
# 5 0.0000 0.0000 0.0000 0.0000 31.1401 0.0000
# 6 0.0000 0.0000 0.0000 0.0000 0.0000 38.3010
#
#
#
# Elastic Compliance Matrix: (Units=1/GPa)
#
#
# Indices 1 2 3 4 5 6 
#
# 1 0.010924 -0.002130 -0.001166 0.000000 0.000000 0.000000
# 2 -0.002130 0.010924 -0.001166 0.000000 0.000000 0.000000
# 3 -0.001166 -0.001166 0.017030 0.000000 0.000000 0.000000
# 4 0.000000 0.000000 0.000000 0.032113 0.000000 0.000000
# 5 0.000000 0.000000 0.000000 0.000000 0.032113 0.000000
# 6 0.000000 0.000000 0.000000 0.000000 0.000000 0.026109
#
#
# Mechanical properties :
#
#
# Convention : Reuss Voigt Hill
#
# Bulk Modulus (GPa) = 33.38625 35.90802 34.64714
# Shear Modulus (GPa) = 33.75556 34.56644 34.16100
#
# Velocity S-wave (km/s) = 3.80584 3.85128 3.82862
# Velocity P-wave (km/s) = 5.79987 5.93165 5.86613
#
# Compressibility (1/GPa) = 0.02995245
#
# Stress axis : x y z
#
# Youngs Moduli (GPa) = 91.53939 91.53939 58.71978
#
# Poissons Ratio (x) = 0.19500 0.06849
# Poissons Ratio (y) = 0.19500 0.06849
# Poissons Ratio (z) = 0.10677 0.10677
#
# Static dielectric constant tensor:
#      x y z
#    x 1.902720 0.000000 0.000000 
#    y 0.000000 1.902720 0.000000 
#    z 0.000000 0.000000 1.926740 
# 
# From -- ./inp_files/726.got.cif
#   From: 2010.05.17/outbox.cif.g08.bks.cpg/sg169_cif.got.tgz:726.got - 2010.05.20 11:12:54.
