data_PCOD9580023
_publ_section_title
;
Structure prediction by ZEFSAII (Michael W. Deem and Ramdas Pophale) SiO2 
 PCOD9580023
Probable space group: P 61
;
_chemical_formula_sum "Si O2"
_cell_formula_units_Z 42
_cell_length_a 14.160129
_cell_length_b 14.160129
_cell_length_c 10.785276
_cell_angle_alpha 90.000000
_cell_angle_beta 90.000000
_cell_angle_gamma 120.000000
_cell_volume 1872.821191
_symmetry_space_group_name_H-M "P 61"
_symmetry_group_IT_number 169
_symmetry_cell_setting 'hexagonal'
loop_
_space_group_symop_operation_xyz
x,y,z
x-y,x,1/6+z
-y,x-y,1/3+z
-x,-y,1/2+z
-x+y,-x,2/3+z
y,-x+y,5/6+z
loop_
_atom_site_type_symbol
_atom_site_label
_atom_site_fract_x
_atom_site_fract_y
_atom_site_fract_z
Si Si1 0.802956 0.465059 0.878030
Si Si2 0.132331 0.572991 0.109414
Si Si3 0.192297 0.031820 0.217079
Si Si4 0.559830 0.818271 0.092202
Si Si5 0.206661 0.141750 0.981292
Si Si6 0.595695 0.665267 0.921983
Si Si7 0.368083 0.299460 0.785017
O O1 0.824975 0.454954 0.734403
O O2 0.693224 0.469410 0.899804
O O3 0.813304 0.545624 0.152879
O O4 0.798414 0.359970 0.947349
O O5 0.014311 0.560008 0.135929
O O6 0.109306 0.489435 0.998468
O O7 0.157598 0.089778 0.317951
O O8 0.264811 0.988448 0.276339
O O9 0.254394 0.110375 0.100482
O O10 0.619550 0.786728 0.199030
O O11 0.336040 0.903891 0.110630
O O12 0.634991 0.946789 0.060933
O O13 0.297011 0.243465 0.907294
O O14 0.158901 0.044517 0.880605
#
# Coordination Sequence:
#
# PCOD9580023 Si02
#       7
#     6   6   6   6   6   6   6
#     4  12  26  52  74 109 150 186 257 308 374 448
#     4  12  28  47  80 111 141 202 240 316 373 442
#     4  10  24  46  70 107 145 196 245 304 363 441
#     4  12  27  51  70 110 151 197 246 307 372 452
#     4  10  22  46  66 102 144 187 246 298 359 432
#     4  12  27  48  77 107 153 193 250 302 380 448
#     4  12  26  46  75 108 148 195 244 301 371 439
#
# _framework density 22.426058999999999
#
# number of rings (size 3 to 8) (size 9 to 14) (size 15 to 20)
#    0.000    0.571    4.286    2.571    8.000    0.000 
#   12.857    0.000    0.000    0.000    0.000    0.000 
#    0.000    0.000    0.000    0.000    0.000    0.000 
#
# Total GULP energy -234845.646354 kJ/mol
# GULP energy per Si atom -5591.563008 kJ/mol
# Density = 2.237502 g / cm^3
# Si number density = 22.426059 Si / 1000 Ang^3
#
#
#
# Elastic Constant Matrix: (Units=GPa)
#
#
# Indices 1 2 3 4 5 6 
#
# 1 83.9235 15.7620 15.3837 0.0000 0.0000 0.0000
# 2 15.7620 83.9235 15.3837 0.0000 0.0000 0.0000
# 3 15.3837 15.3837 66.0073 0.0000 0.0000 0.0000
# 4 0.0000 0.0000 0.0000 28.3125 0.0000 0.0000
# 5 0.0000 0.0000 0.0000 0.0000 28.3125 0.0000
# 6 0.0000 0.0000 0.0000 0.0000 0.0000 34.0808
#
#
#
# Elastic Compliance Matrix: (Units=1/GPa)
#
#
# Indices 1 2 3 4 5 6 
#
# 1 0.012740 -0.001931 -0.002519 0.000000 0.000000 0.000000
# 2 -0.001931 0.012740 -0.002519 0.000000 0.000000 0.000000
# 3 -0.002519 -0.002519 0.016324 0.000000 0.000000 0.000000
# 4 0.000000 0.000000 0.000000 0.035320 0.000000 0.000000
# 5 0.000000 0.000000 0.000000 0.000000 0.035320 0.000000
# 6 0.000000 0.000000 0.000000 0.000000 0.000000 0.029342
#
#
# Mechanical properties :
#
#
# Convention : Reuss Voigt Hill
#
# Bulk Modulus (GPa) = 35.88662 36.32370 36.10516
# Shear Modulus (GPa) = 30.30055 30.62950 30.46502
#
# Velocity S-wave (km/s) = 3.67976 3.69968 3.68973
# Velocity P-wave (km/s) = 5.83876 5.87218 5.85549
#
# Compressibility (1/GPa) = 0.02786554
#
# Stress axis : x y z
#
# Youngs Moduli (GPa) = 78.49260 78.49260 61.25915
#
# Poissons Ratio (x) = 0.15157 0.15432
# Poissons Ratio (y) = 0.15157 0.15432
# Poissons Ratio (z) = 0.19774 0.19774
#
# Static dielectric constant tensor:
#      x y z
#    x 1.838460 0.000000 0.000000 
#    y 0.000000 1.838460 0.000000 
#    z 0.000000 0.000000 1.850800 
# 
# From -- ./inp_files/925.got.cif
#   From: 2010.05.17/outbox.cif.g08.bks.cpg/sg169_cif.got.tgz:925.got - 2010.05.20 11:12:54.
