data_PCOD9580996
_publ_section_title
;
Structure prediction by ZEFSAII (Michael W. Deem and Ramdas Pophale) SiO2 
 PCOD9580996
Probable space group: P 64
;
_chemical_formula_sum "Si O2"
_cell_formula_units_Z 24
_cell_length_a 14.297611
_cell_length_b 14.297611
_cell_length_c 5.324863
_cell_angle_alpha 90.000000
_cell_angle_beta 90.000000
_cell_angle_gamma 120.000000
_cell_volume 942.683757
_symmetry_space_group_name_H-M "P 64"
_symmetry_group_IT_number 172
_symmetry_cell_setting 'hexagonal'
loop_
_space_group_symop_operation_xyz
x,y,z
x-y,x,2/3+z
-y,x-y,1/3+z
-x,-y,z
-x+y,-x,2/3+z
y,-x+y,1/3+z
loop_
_atom_site_type_symbol
_atom_site_label
_atom_site_fract_x
_atom_site_fract_y
_atom_site_fract_z
Si Si1 0.296639 0.847772 0.642480
Si Si2 0.107231 0.896642 0.469652
Si Si3 0.358332 0.034708 0.933044
Si Si4 0.631658 0.502160 0.096320
O O1 0.209366 0.880259 0.541083
O O2 0.074681 0.650190 0.520993
O O3 0.400638 0.885592 0.471540
O O4 0.329441 0.912503 0.900773
O O5 0.047661 0.795057 0.276560
O O6 0.014496 0.864230 0.681720
O O7 0.428272 0.094467 0.686941
O O8 0.527259 0.251106 0.371844
#
# Coordination Sequence:
#
# PCOD9580996 Si02
#       4
#     6   6   6   6
#     4  11  25  49  76 113 158 204 262 327 392 474
#     4  11  26  51  80 114 158 210 266 331 400 474
#     4  11  25  49  77 109 153 207 263 328 394 463
#     4  11  27  45  76 112 153 207 260 320 396 469
#
# _framework density 25.459230999999999
#
# number of rings (size 3 to 8) (size 9 to 14) (size 15 to 20)
#    0.000    1.000    0.000    5.250    0.000   18.000 
#    0.000   11.250    0.000    0.000    0.000    0.000 
#    0.000    0.000    0.000    0.000    0.000    0.000 
#
# Total GULP energy -134271.324657 kJ/mol
# GULP energy per Si atom -5594.638527 kJ/mol
# Density = 2.540128 g / cm^3
# Si number density = 25.459231 Si / 1000 Ang^3
#
#
#
# Elastic Constant Matrix: (Units=GPa)
#
#
# Indices 1 2 3 4 5 6 
#
# 1 154.8996 69.5862 65.5021 0.0000 0.0000 0.0000
# 2 69.5862 154.8996 65.5021 0.0000 0.0000 0.0000
# 3 65.5021 65.5021 145.3806 0.0000 0.0000 0.0000
# 4 0.0000 0.0000 0.0000 31.5005 0.0000 0.0000
# 5 0.0000 0.0000 0.0000 0.0000 31.5005 0.0000
# 6 0.0000 0.0000 0.0000 0.0000 0.0000 42.6567
#
#
#
# Elastic Compliance Matrix: (Units=1/GPa)
#
#
# Indices 1 2 3 4 5 6 
#
# 1 0.008883 -0.002839 -0.002723 0.000000 0.000000 0.000000
# 2 -0.002839 0.008883 -0.002723 0.000000 0.000000 0.000000
# 3 -0.002723 -0.002723 0.009332 0.000000 0.000000 0.000000
# 4 0.000000 0.000000 0.000000 0.031746 0.000000 0.000000
# 5 0.000000 0.000000 0.000000 0.000000 0.031746 0.000000
# 6 0.000000 0.000000 0.000000 0.000000 0.000000 0.023443
#
#
# Mechanical properties :
#
#
# Convention : Reuss Voigt Hill
#
# Bulk Modulus (GPa) = 94.98880 95.15118 95.06999
# Shear Modulus (GPa) = 37.28266 38.10416 37.69341
#
# Velocity S-wave (km/s) = 3.83091 3.87288 3.85195
# Velocity P-wave (km/s) = 7.54712 7.57984 7.56350
#
# Compressibility (1/GPa) = 0.01052756
#
# Stress axis : x y z
#
# Youngs Moduli (GPa) = 112.57956 112.57956 107.15518
#
# Poissons Ratio (x) = 0.31960 0.29179
# Poissons Ratio (y) = 0.31960 0.29179
# Poissons Ratio (z) = 0.30656 0.30656
#
# Static dielectric constant tensor:
#      x y z
#    x 2.088330 0.000000 0.000000 
#    y 0.000000 2.088330 0.000000 
#    z 0.000000 0.000000 2.004170 
# 
# From -- ./inp_files/120.got.cif
#   From: 2010.05.17/outbox.cif.g08.bks.cpg/sg172_1_cif.got.tgz:120.got - 2010.05.20 11:19:57.
