data_PCOD9580476
_publ_section_title
;
Structure prediction by ZEFSAII (Michael W. Deem and Ramdas Pophale) SiO2 
 PCOD9580476
Probable space group: P 62
;
_chemical_formula_sum "Si O2"
_cell_formula_units_Z 39
_cell_length_a 8.878609
_cell_length_b 8.878609
_cell_length_c 28.015308
_cell_angle_alpha 90.000000
_cell_angle_beta 90.000000
_cell_angle_gamma 120.000000
_cell_volume 1912.563638
_symmetry_space_group_name_H-M "P 62"
_symmetry_group_IT_number 171
_symmetry_cell_setting 'hexagonal'
loop_
_space_group_symop_operation_xyz
x,y,z
x-y,x,1/3+z
-y,x-y,2/3+z
-x,-y,z
-x+y,-x,1/3+z
y,-x+y,2/3+z
loop_
_atom_site_type_symbol
_atom_site_label
_atom_site_fract_x
_atom_site_fract_y
_atom_site_fract_z
Si Si1 0.804961 0.717131 0.147940
Si Si2 0.500000 0.000000 0.109795
Si Si3 0.734580 0.327080 0.543410
Si Si4 0.879809 0.165992 0.901168
Si Si5 0.632771 0.828487 0.511960
Si Si6 0.621016 0.916861 0.970899
Si Si7 0.714003 0.129648 0.730481
O O1 0.671974 0.519917 0.165124
O O2 0.801137 0.831926 0.191403
O O3 0.743714 0.763132 0.099731
O O4 0.997279 0.748434 0.149778
O O5 0.668968 0.081768 0.143315
O O6 0.504034 0.170676 0.084229
O O7 0.744606 0.509292 0.554665
O O8 0.543355 0.187150 0.529734
O O9 0.808871 0.282278 0.589893
O O10 0.082667 0.286142 0.893405
O O11 0.805551 0.069874 0.951184
O O12 0.500000 0.000000 0.985960
O O13 0.632249 0.796627 0.011113
O O14 0.500000 0.000000 0.727586
#
# Coordination Sequence:
#
# PCOD9580476 Si02
#       7
#     6   3   6   6   6   6   6
#     4  11  22  36  63  94 128 161 218 281 328 400
#     4  12  24  40  68  96 132 176 226 284 352 420
#     4  10  20  39  67  97 129 170 227 275 337 412
#     4  10  19  37  64  93 126 170 213 271 338 395
#     4  12  21  37  66 101 129 163 219 291 343 396
#     4   9  21  40  66  91 130 184 227 271 334 426
#     4  12  24  42  68  93 135 187 232 276 355 430
#
# _framework density 20.391477999999999
#
# number of rings (size 3 to 8) (size 9 to 14) (size 15 to 20)
#    0.000    1.231    3.846    4.154    0.000    2.462 
#    0.000    0.000   20.308    1.846    0.000    0.000 
#    0.000    0.000    0.000    0.000    0.000    0.000 
#
# Total GULP energy -217292.549377 kJ/mol
# GULP energy per Si atom -5571.603830 kJ/mol
# Density = 2.034507 g / cm^3
# Si number density = 20.391478 Si / 1000 Ang^3
#
#
#
# Elastic Constant Matrix: (Units=GPa)
#
#
# Indices 1 2 3 4 5 6 
#
# 1 111.4903 47.4292 45.8699 0.0000 0.0000 0.0000
# 2 47.4292 111.4903 45.8699 0.0000 0.0000 0.0000
# 3 45.8699 45.8699 103.0050 0.0000 0.0000 0.0000
# 4 0.0000 0.0000 0.0000 5.9936 0.0000 0.0000
# 5 0.0000 0.0000 0.0000 0.0000 5.9936 0.0000
# 6 0.0000 0.0000 0.0000 0.0000 0.0000 32.0305
#
#
#
# Elastic Compliance Matrix: (Units=1/GPa)
#
#
# Indices 1 2 3 4 5 6 
#
# 1 0.012040 -0.003570 -0.003772 0.000000 0.000000 0.000000
# 2 -0.003570 0.012040 -0.003772 0.000000 0.000000 0.000000
# 3 -0.003772 -0.003772 0.013068 0.000000 0.000000 0.000000
# 4 0.000000 0.000000 0.000000 0.166844 0.000000 0.000000
# 5 0.000000 0.000000 0.000000 0.000000 0.166844 0.000000
# 6 0.000000 0.000000 0.000000 0.000000 0.000000 0.031220
#
#
# Mechanical properties :
#
#
# Convention : Reuss Voigt Hill
#
# Bulk Modulus (GPa) = 67.02350 67.14706 67.08528
# Shear Modulus (GPa) = 11.64807 21.25800 16.45303
#
# Velocity S-wave (km/s) = 2.39262 3.23227 2.84361
# Velocity P-wave (km/s) = 6.36966 6.85059 6.61450
#
# Compressibility (1/GPa) = 0.01492014
#
# Stress axis : x y z
#
# Youngs Moduli (GPa) = 83.05671 83.05671 76.52557
#
# Poissons Ratio (x) = 0.29652 0.28864
# Poissons Ratio (y) = 0.29652 0.28864
# Poissons Ratio (z) = 0.31327 0.31327
#
# Static dielectric constant tensor:
#      x y z
#    x 1.816620 0.000000 0.000000 
#    y 0.000000 1.816620 0.000000 
#    z 0.000000 0.000000 1.707560 
# 
# From -- ./inp_files/6007.got.cif
#   From: 2010.05.17/outbox.cif.g08.bks.cpg/sg171_4_cif.got.tgz:6007.got - 2010.05.20 11:16:09.
