data_PCOD9580676
_publ_section_title
;
Structure prediction by ZEFSAII (Michael W. Deem and Ramdas Pophale) SiO2 
 PCOD9580676
Probable space group: P 62
;
_chemical_formula_sum "Si O2"
_cell_formula_units_Z 33
_cell_length_a 9.516216
_cell_length_b 9.516216
_cell_length_c 15.729907
_cell_angle_alpha 90.000000
_cell_angle_beta 90.000000
_cell_angle_gamma 120.000000
_cell_volume 1233.631269
_symmetry_space_group_name_H-M "P 62"
_symmetry_group_IT_number 171
_symmetry_cell_setting 'hexagonal'
loop_
_space_group_symop_operation_xyz
x,y,z
x-y,x,1/3+z
-y,x-y,2/3+z
-x,-y,z
-x+y,-x,1/3+z
y,-x+y,2/3+z
loop_
_atom_site_type_symbol
_atom_site_label
_atom_site_fract_x
_atom_site_fract_y
_atom_site_fract_z
Si Si1 0.000000 0.500000 0.322870
Si Si2 0.267200 0.577207 0.457359
Si Si3 0.248438 0.834663 0.522259
Si Si4 0.000000 0.500000 0.045229
Si Si5 0.195187 0.106075 0.153455
Si Si6 0.725817 0.853656 0.331950
Si Si7 0.000000 0.500000 0.697085
O O1 0.845284 0.414406 0.382873
O O2 0.963138 0.613954 0.261981
O O3 0.240105 0.662733 0.539864
O O4 0.183246 0.387190 0.476829
O O5 0.436076 0.597725 0.422967
O O6 0.369607 0.871649 0.442967
O O7 0.096156 0.842799 0.488233
O O8 0.917366 0.321547 0.003559
O O9 0.167507 0.047962 0.250935
O O10 0.131240 0.965717 0.081899
O O11 0.642092 0.657213 0.315401
#
# Coordination Sequence:
#
# PCOD9580676 Si02
#       7
#     3   6   6   3   6   6   3
#     4  11  24  41  70 114 150 214 272 337 418 496
#     4  11  22  42  71 115 151 208 276 336 414 493
#     4  11  23  44  72 107 157 207 270 340 416 498
#     4  11  26  51  72 108 158 212 272 337 415 495
#     4  11  25  46  77 116 162 212 278 345 420 505
#     4  11  26  48  75 120 160 217 276 346 423 507
#     4  10  22  42  76 112 166 204 276 336 413 495
#
# _framework density 26.750298000000001
#
# number of rings (size 3 to 8) (size 9 to 14) (size 15 to 20)
#    0.000    1.091    3.636    2.182    5.091    3.636 
#    6.545    1.818    0.000    0.000    0.000    0.000 
#    0.000    0.000    0.000    0.000    0.000    0.000 
#
# Total GULP energy -184080.783881 kJ/mol
# GULP energy per Si atom -5578.205572 kJ/mol
# Density = 2.668941 g / cm^3
# Si number density = 26.750298 Si / 1000 Ang^3
#
#
#
# Elastic Constant Matrix: (Units=GPa)
#
#
# Indices 1 2 3 4 5 6 
#
# 1 103.0401 41.5767 47.0464 0.0000 0.0000 0.0000
# 2 41.5767 103.0401 47.0464 0.0000 0.0000 0.0000
# 3 47.0464 47.0464 141.5833 0.0000 0.0000 0.0000
# 4 0.0000 0.0000 0.0000 -26.9112 0.0000 0.0000
# 5 0.0000 0.0000 0.0000 0.0000 -26.9112 0.0000
# 6 0.0000 0.0000 0.0000 0.0000 0.0000 30.7317
#
#
#
# Elastic Compliance Matrix: (Units=1/GPa)
#
#
# Indices 1 2 3 4 5 6 
#
# 1 0.012546 -0.003724 -0.002932 0.000000 0.000000 0.000000
# 2 -0.003724 0.012546 -0.002932 0.000000 0.000000 0.000000
# 3 -0.002932 -0.002932 0.009011 0.000000 0.000000 0.000000
# 4 0.000000 0.000000 0.000000 -0.037159 0.000000 0.000000
# 5 0.000000 0.000000 0.000000 0.000000 -0.037159 0.000000
# 6 0.000000 0.000000 0.000000 0.000000 0.000000 0.032540
#
#
# Mechanical properties :
#
#
# Convention : Reuss Voigt Hill
#
# Bulk Modulus (GPa) = 66.98140 68.77807 67.87974
# Shear Modulus (GPa) = 303.49891 9.51479 156.50685
#
# Velocity S-wave (km/s) = 10.66314 1.88802 7.65726
# Velocity P-wave (km/s) = 13.29275 5.52447 10.17883
#
# Compressibility (1/GPa) = 0.01492952
#
# Stress axis : x y z
#
# Youngs Moduli (GPa) = 79.70664 79.70664 110.97318
#
# Poissons Ratio (x) = 0.29681 0.32532
# Poissons Ratio (y) = 0.29681 0.32532
# Poissons Ratio (z) = 0.23366 0.23366
#
# Static dielectric constant tensor:
#      x y z
#    x 2.149200 0.000000 0.000000 
#    y 0.000000 2.149200 0.000000 
#    z 0.000000 0.000000 2.170440 
# 
# From -- ./inp_files/2936.got.cif
#   From: 2010.05.17/outbox.cif.g08.bks.cpg/sg171_2_cif.got.tgz:2936.got - 2010.05.20 11:16:09.
