data_PCOD9580628
_publ_section_title
;
Structure prediction by ZEFSAII (Michael W. Deem and Ramdas Pophale) SiO2 
 PCOD9580628
Probable space group: P 62
;
_chemical_formula_sum "Si O2"
_cell_formula_units_Z 36
_cell_length_a 9.471209
_cell_length_b 9.471209
_cell_length_c 19.187025
_cell_angle_alpha 90.000000
_cell_angle_beta 90.000000
_cell_angle_gamma 120.000000
_cell_volume 1490.558802
_symmetry_space_group_name_H-M "P 62"
_symmetry_group_IT_number 171
_symmetry_cell_setting 'hexagonal'
loop_
_space_group_symop_operation_xyz
x,y,z
x-y,x,1/3+z
-y,x-y,2/3+z
-x,-y,z
-x+y,-x,1/3+z
y,-x+y,2/3+z
loop_
_atom_site_type_symbol
_atom_site_label
_atom_site_fract_x
_atom_site_fract_y
_atom_site_fract_z
Si Si1 0.781266 0.031426 0.208640
Si Si2 0.000000 0.000000 0.094281
Si Si3 0.753633 0.438109 0.380416
Si Si4 0.800522 0.261547 0.980976
Si Si5 0.000000 0.500000 0.101371
Si Si6 0.735575 0.403420 0.845489
Si Si7 0.939506 0.244674 0.338253
O O1 0.873438 0.006155 0.146618
O O2 0.675290 0.099794 0.172445
O O3 0.896034 0.181015 0.259777
O O4 0.691349 0.879599 0.262183
O O5 0.100789 0.161679 0.048879
O O6 0.565317 0.364512 0.357507
O O7 0.743276 0.457951 0.463022
O O8 0.822603 0.311800 0.368081
O O9 0.879364 0.601693 0.343011
O O10 0.756025 0.361655 0.924401
O O11 0.935529 0.356336 0.041699
O O12 0.157482 0.581611 0.153321
#
# Coordination Sequence:
#
# PCOD9580628 Si02
#       7
#     6   3   6   6   3   6   6
#     4  12  25  43  71 101 141 196 242 293 372 452
#     4  12  30  44  68  96 160 198 236 284 388 468
#     4  10  24  43  75 107 138 182 250 321 362 440
#     4  11  21  42  68 106 141 178 251 315 351 443
#     4  10  22  36  60 112 128 178 234 314 370 430
#     4  11  22  37  73 102 136 178 247 302 372 420
#     4  11  25  49  68 105 149 188 240 304 379 446
#
# _framework density 24.152014000000001
#
# number of rings (size 3 to 8) (size 9 to 14) (size 15 to 20)
#    0.000    1.000    3.333    2.500   11.667    0.000 
#    0.000    0.000    0.000    0.000    4.333    0.000 
#    0.000    0.000    0.000    0.000    0.000    0.000 
#
# Total GULP energy -200499.154190 kJ/mol
# GULP energy per Si atom -5569.420950 kJ/mol
# Density = 2.409704 g / cm^3
# Si number density = 24.152014 Si / 1000 Ang^3
#
#
#
# Elastic Constant Matrix: (Units=GPa)
#
#
# Indices 1 2 3 4 5 6 
#
# 1 97.7733 39.7830 49.5835 0.0000 0.0000 0.0000
# 2 39.7830 97.7733 49.5835 0.0000 0.0000 0.0000
# 3 49.5835 49.5835 97.2851 0.0000 0.0000 0.0000
# 4 0.0000 0.0000 0.0000 53.4341 0.0000 0.0000
# 5 0.0000 0.0000 0.0000 0.0000 53.4341 0.0000
# 6 0.0000 0.0000 0.0000 0.0000 0.0000 28.9952
#
#
#
# Elastic Compliance Matrix: (Units=1/GPa)
#
#
# Indices 1 2 3 4 5 6 
#
# 1 0.014368 -0.002876 -0.005857 0.000000 0.000000 0.000000
# 2 -0.002876 0.014368 -0.005857 0.000000 0.000000 0.000000
# 3 -0.005857 -0.005857 0.016250 0.000000 0.000000 0.000000
# 4 0.000000 0.000000 0.000000 0.018715 0.000000 0.000000
# 5 0.000000 0.000000 0.000000 0.000000 0.018715 0.000000
# 6 0.000000 0.000000 0.000000 0.000000 0.000000 0.034488
#
#
# Mechanical properties :
#
#
# Convention : Reuss Voigt Hill
#
# Bulk Modulus (GPa) = 63.27059 63.41462 63.34260
# Shear Modulus (GPa) = 33.03516 37.43146 35.23331
#
# Velocity S-wave (km/s) = 3.70239 3.94106 3.82359
# Velocity P-wave (km/s) = 6.67313 6.85731 6.76584
#
# Compressibility (1/GPa) = 0.01580513
#
# Stress axis : x y z
#
# Youngs Moduli (GPa) = 69.59744 69.59744 61.53941
#
# Poissons Ratio (x) = 0.20016 0.36046
# Poissons Ratio (y) = 0.20016 0.36046
# Poissons Ratio (z) = 0.40766 0.40766
#
# Static dielectric constant tensor:
#      x y z
#    x 1.946510 0.000000 0.000000 
#    y 0.000000 1.946510 0.000000 
#    z 0.000000 0.000000 1.962150 
# 
# From -- ./inp_files/3673.got.cif
#   From: 2010.05.17/outbox.cif.g08.bks.cpg/sg171_2_cif.got.tgz:3673.got - 2010.05.20 11:16:09.
