data_PCOD9580354
_publ_section_title
;
Structure prediction by ZEFSAII (Michael W. Deem and Ramdas Pophale) SiO2 
 PCOD9580354
Probable space group: P 65
;
_chemical_formula_sum "Si O2"
_cell_formula_units_Z 48
_cell_length_a 11.919475
_cell_length_b 11.919475
_cell_length_c 18.442862
_cell_angle_alpha 90.000000
_cell_angle_beta 90.000000
_cell_angle_gamma 120.000000
_cell_volume 2269.202234
_symmetry_space_group_name_H-M "P 65"
_symmetry_group_IT_number 170
_symmetry_cell_setting 'hexagonal'
loop_
_space_group_symop_operation_xyz
x,y,z
x-y,x,5/6+z
-y,x-y,2/3+z
-x,-y,1/2+z
-x+y,-x,1/3+z
y,-x+y,1/6+z
loop_
_atom_site_type_symbol
_atom_site_label
_atom_site_fract_x
_atom_site_fract_y
_atom_site_fract_z
Si Si1 0.479381 0.133256 0.987990
Si Si2 0.308889 0.678445 0.037887
Si Si3 0.719120 0.178387 0.294692
Si Si4 0.826704 0.621726 0.545885
Si Si5 0.448836 0.873026 0.925124
Si Si6 0.726557 0.153981 0.043857
Si Si7 0.624726 0.593617 0.011767
Si Si8 0.075542 0.383548 0.892890
O O1 0.505231 0.195362 0.908521
O O2 0.450987 0.987415 0.973286
O O3 0.620926 0.197205 0.024435
O O4 0.399688 0.188174 0.030298
O O5 0.438110 0.746742 0.085788
O O6 0.275307 0.531337 0.038157
O O7 0.337589 0.742765 0.961029
O O8 0.592273 0.118900 0.344125
O O9 0.691434 0.072081 0.235671
O O10 0.842703 0.234355 0.345673
O O11 0.872397 0.638141 0.630414
O O12 0.745693 0.693903 0.532379
O O13 0.921621 0.635766 0.480063
O O14 0.567716 0.844675 0.917539
O O15 0.648404 0.037512 0.100081
O O16 0.507480 0.446788 0.033258
#
# Coordination Sequence:
#
# PCOD9580354 Si02
#       8
#     6   6   6   6   6   6   6   6
#     4  11  25  36  65  97 141 186 230 293 360 436
#     4  11  21  38  60  98 133 185 220 290 354 434
#     4  12  24  40  63  95 137 182 223 291 350 436
#     4  11  25  38  69  99 144 181 239 297 368 437
#     4  12  23  40  61  98 142 180 238 285 369 429
#     4  11  23  41  63 103 138 189 229 301 362 445
#     4  12  24  42  67  98 143 179 237 289 367 439
#     4  12  23  43  64 106 144 192 236 300 370 440
#
# _framework density 21.152806000000002
#
# number of rings (size 3 to 8) (size 9 to 14) (size 15 to 20)
#    0.000    0.500    6.250    3.000   10.500    0.000 
#    0.000    0.000    0.000    0.000   13.000    0.000 
#    0.000    0.000    0.000    0.000    0.000    0.000 
#
# Total GULP energy -267564.478326 kJ/mol
# GULP energy per Si atom -5574.259965 kJ/mol
# Density = 2.110466 g / cm^3
# Si number density = 21.152806 Si / 1000 Ang^3
#
#
#
# Elastic Constant Matrix: (Units=GPa)
#
#
# Indices 1 2 3 4 5 6 
#
# 1 80.8835 28.3932 33.6021 0.0000 0.0000 0.0000
# 2 28.3932 80.8835 33.6021 0.0000 0.0000 0.0000
# 3 33.6021 33.6021 83.1064 0.0000 0.0000 0.0000
# 4 0.0000 0.0000 0.0000 36.5488 0.0000 0.0000
# 5 0.0000 0.0000 0.0000 0.0000 36.5488 0.0000
# 6 0.0000 0.0000 0.0000 0.0000 0.0000 26.2451
#
#
#
# Elastic Compliance Matrix: (Units=1/GPa)
#
#
# Indices 1 2 3 4 5 6 
#
# 1 0.015615 -0.003436 -0.004925 0.000000 0.000000 0.000000
# 2 -0.003436 0.015615 -0.004925 0.000000 0.000000 0.000000
# 3 -0.004925 -0.004925 0.016015 0.000000 0.000000 0.000000
# 4 0.000000 0.000000 0.000000 0.027361 0.000000 0.000000
# 5 0.000000 0.000000 0.000000 0.000000 0.027361 0.000000
# 6 0.000000 0.000000 0.000000 0.000000 0.000000 0.038102
#
#
# Mechanical properties :
#
#
# Convention : Reuss Voigt Hill
#
# Bulk Modulus (GPa) = 48.36502 48.45201 48.40851
# Shear Modulus (GPa) = 28.81328 29.82028 29.31678
#
# Velocity S-wave (km/s) = 3.69473 3.75874 3.72688
# Velocity P-wave (km/s) = 6.41215 6.46475 6.43850
#
# Compressibility (1/GPa) = 0.02067610
#
# Stress axis : x y z
#
# Youngs Moduli (GPa) = 64.03943 64.03943 62.44152
#
# Poissons Ratio (x) = 0.22002 0.30750
# Poissons Ratio (y) = 0.22002 0.30750
# Poissons Ratio (z) = 0.31536 0.31536
#
# Static dielectric constant tensor:
#      x y z
#    x 1.820450 0.000000 0.000000 
#    y 0.000000 1.820450 0.000000 
#    z 0.000000 0.000000 1.884930 
# 
# From -- ./inp_files/1485.got.cif
#   From: 2010.05.17/outbox.cif.g08.bks.cpg/sg170_cif.got.tgz:1485.got - 2010.05.20 11:14:30.
