data_PCOD9580488
_publ_section_title
;
Structure prediction by ZEFSAII (Michael W. Deem and Ramdas Pophale) SiO2 
 PCOD9580488
Probable space group: P 62
;
_chemical_formula_sum "Si O2"
_cell_formula_units_Z 24
_cell_length_a 9.577964
_cell_length_b 9.577964
_cell_length_c 12.313077
_cell_angle_alpha 90.000000
_cell_angle_beta 90.000000
_cell_angle_gamma 120.000000
_cell_volume 978.235970
_symmetry_space_group_name_H-M "P 62"
_symmetry_group_IT_number 171
_symmetry_cell_setting 'hexagonal'
loop_
_space_group_symop_operation_xyz
x,y,z
x-y,x,1/3+z
-y,x-y,2/3+z
-x,-y,z
-x+y,-x,1/3+z
y,-x+y,2/3+z
loop_
_atom_site_type_symbol
_atom_site_label
_atom_site_fract_x
_atom_site_fract_y
_atom_site_fract_z
Si Si1 0.220129 0.969320 0.552570
Si Si2 0.250810 0.030681 0.088255
Si Si3 0.749889 0.191619 0.351603
Si Si4 0.749888 0.558270 0.622555
O O1 0.214203 0.829193 0.476840
O O2 0.104225 0.895777 0.653746
O O3 0.178221 0.089111 0.487079
O O4 0.388014 0.094696 0.610079
O O5 0.385010 0.170807 0.163985
O O6 0.293319 0.905305 0.030745
O O7 0.622630 0.245261 0.320413
O O8 0.661096 1.000000 0.320413
#
# Coordination Sequence:
#
# PCOD9580488 Si02
#       4
#     6   6   6   6
#     4  10  20  33  58  93 128 164 218 290 354 410
#     4  10  20  33  58  93 128 164 218 290 354 410
#     4   9  19  35  54  82 121 167 211 264 342 417
#     4   9  19  35  54  82 121 167 211 264 342 417
#
# _framework density 24.533954999999999
#
# number of rings (size 3 to 8) (size 9 to 14) (size 15 to 20)
#    0.000    2.500    0.000    1.500    0.000   19.000 
#    0.000    2.500    0.000   45.000    0.000   56.000 
#    0.000    0.000    0.000    0.000    0.000    0.000 
#
# Total GULP energy -134007.002576 kJ/mol
# GULP energy per Si atom -5583.625107 kJ/mol
# Density = 2.447811 g / cm^3
# Si number density = 24.533955 Si / 1000 Ang^3
#
#
#
# Elastic Constant Matrix: (Units=GPa)
#
#
# Indices 1 2 3 4 5 6 
#
# 1 61.8748 37.9329 54.4498 0.0000 0.0000 0.0000
# 2 37.9329 61.8748 54.4498 0.0000 0.0000 0.0000
# 3 54.4498 54.4498 194.7382 0.0000 0.0000 0.0000
# 4 0.0000 0.0000 0.0000 7.6007 0.0000 0.0000
# 5 0.0000 0.0000 0.0000 0.0000 7.6007 0.0000
# 6 0.0000 0.0000 0.0000 0.0000 0.0000 11.9710
#
#
#
# Elastic Compliance Matrix: (Units=1/GPa)
#
#
# Indices 1 2 3 4 5 6 
#
# 1 0.028093 -0.013675 -0.004031 0.000000 0.000000 0.000000
# 2 -0.013675 0.028093 -0.004031 0.000000 0.000000 0.000000
# 3 -0.004031 -0.004031 0.007389 0.000000 0.000000 0.000000
# 4 0.000000 0.000000 0.000000 0.131567 0.000000 0.000000
# 5 0.000000 0.000000 0.000000 0.000000 0.131567 0.000000
# 6 0.000000 0.000000 0.000000 0.000000 0.000000 0.083536
#
#
# Mechanical properties :
#
#
# Convention : Reuss Voigt Hill
#
# Bulk Modulus (GPa) = 49.75160 68.01697 58.88429
# Shear Modulus (GPa) = 10.85965 16.87815 13.86890
#
# Velocity S-wave (km/s) = 2.10618 2.62573 2.38017
# Velocity P-wave (km/s) = 5.12224 6.08082 5.62200
#
# Compressibility (1/GPa) = 0.02009986
#
# Stress axis : x y z
#
# Youngs Moduli (GPa) = 35.59634 35.59634 135.32837
#
# Poissons Ratio (x) = 0.48678 0.54555
# Poissons Ratio (y) = 0.48678 0.54555
# Poissons Ratio (z) = 0.14350 0.14350
#
# Static dielectric constant tensor:
#      x y z
#    x 2.002960 0.000000 0.000000 
#    y 0.000000 2.002960 0.000000 
#    z 0.000000 0.000000 2.107710 
# 
# From -- ./inp_files/1816.got.cif
#   From: 2010.05.17/outbox.cif.g08.bks.cpg/sg171_1_cif.got.tgz:1816.got - 2010.05.20 11:16:09.
