data_PCOD9580776
_publ_section_title
;
Structure prediction by ZEFSAII (Michael W. Deem and Ramdas Pophale) SiO2 
 PCOD9580776
Probable space group: P 62
;
_chemical_formula_sum "Si O2"
_cell_formula_units_Z 39
_cell_length_a 20.266970
_cell_length_b 20.266970
_cell_length_c 4.912452
_cell_angle_alpha 90.000000
_cell_angle_beta 90.000000
_cell_angle_gamma 120.000000
_cell_volume 1747.457415
_symmetry_space_group_name_H-M "P 62"
_symmetry_group_IT_number 171
_symmetry_cell_setting 'hexagonal'
loop_
_space_group_symop_operation_xyz
x,y,z
x-y,x,1/3+z
-y,x-y,2/3+z
-x,-y,z
-x+y,-x,1/3+z
y,-x+y,2/3+z
loop_
_atom_site_type_symbol
_atom_site_label
_atom_site_fract_x
_atom_site_fract_y
_atom_site_fract_z
Si Si1 0.429461 0.202411 0.506470
Si Si2 0.000000 0.500000 0.067067
Si Si3 0.901254 0.460206 0.526379
Si Si4 0.077384 0.811846 0.031803
Si Si5 0.242906 0.216780 0.178038
Si Si6 0.593838 0.253823 0.686809
Si Si7 0.590720 0.712197 0.010227
O O1 0.354615 0.120991 0.452297
O O2 0.514280 0.216742 0.526486
O O3 0.429429 0.255611 0.271567
O O4 0.412604 0.236894 0.772148
O O5 0.938031 0.487973 0.824739
O O6 0.946605 0.437152 0.303416
O O7 0.813834 0.395307 0.554876
O O8 0.903533 0.528285 0.348789
O O9 0.029882 0.816372 0.287026
O O10 0.140536 0.895618 0.924226
O O11 0.020586 0.769270 0.785439
O O12 0.324664 0.272490 0.044085
O O13 0.669123 0.279433 0.506507
#
# Coordination Sequence:
#
# PCOD9580776 Si02
#       7
#     6   3   6   6   6   6   6
#     4  11  24  42  66 100 141 181 251 283 350 423
#     4  10  26  44  62  92 124 180 226 296 356 446
#     4  11  24  45  69  94 139 179 239 299 375 424
#     4  11  23  43  71 110 139 190 226 304 341 442
#     4  11  23  42  72 104 143 179 243 283 364 415
#     4  12  27  44  72 106 144 201 244 312 373 438
#     4  11  22  43  67  93 133 188 223 303 345 416
#
# _framework density 22.318138999999999
#
# number of rings (size 3 to 8) (size 9 to 14) (size 15 to 20)
#    0.000    0.923    1.538    6.462    2.154    3.692 
#    0.000    1.538    0.000    4.615    0.000    0.000 
#    0.000    0.000    0.000    0.000    0.000    0.000 
#
# Total GULP energy -217528.257191 kJ/mol
# GULP energy per Si atom -5577.647620 kJ/mol
# Density = 2.226734 g / cm^3
# Si number density = 22.318139 Si / 1000 Ang^3
#
#
#
# Elastic Constant Matrix: (Units=GPa)
#
#
# Indices 1 2 3 4 5 6 
#
# 1 92.8236 55.9780 30.0568 0.0000 0.0000 0.0000
# 2 55.9780 92.8236 30.0568 0.0000 0.0000 0.0000
# 3 30.0568 30.0568 166.8424 0.0000 0.0000 0.0000
# 4 0.0000 0.0000 0.0000 29.4945 0.0000 0.0000
# 5 0.0000 0.0000 0.0000 0.0000 29.4945 0.0000
# 6 0.0000 0.0000 0.0000 0.0000 0.0000 18.4228
#
#
#
# Elastic Compliance Matrix: (Units=1/GPa)
#
#
# Indices 1 2 3 4 5 6 
#
# 1 0.017194 -0.009946 -0.001306 0.000000 0.000000 0.000000
# 2 -0.009946 0.017194 -0.001306 0.000000 0.000000 0.000000
# 3 -0.001306 -0.001306 0.006464 0.000000 0.000000 0.000000
# 4 0.000000 0.000000 0.000000 0.033905 0.000000 0.000000
# 5 0.000000 0.000000 0.000000 0.000000 0.033905 0.000000
# 6 0.000000 0.000000 0.000000 0.000000 0.000000 0.054281
#
#
# Mechanical properties :
#
#
# Convention : Reuss Voigt Hill
#
# Bulk Modulus (GPa) = 63.54454 64.96364 64.25409
# Shear Modulus (GPa) = 25.86611 31.24222 28.55416
#
# Velocity S-wave (km/s) = 3.40806 3.74553 3.58077
# Velocity P-wave (km/s) = 6.63479 6.91928 6.77853
#
# Compressibility (1/GPa) = 0.01573699
#
# Stress axis : x y z
#
# Youngs Moduli (GPa) = 58.15954 58.15954 154.69990
#
# Poissons Ratio (x) = 0.57847 0.20199
# Poissons Ratio (y) = 0.57847 0.20199
# Poissons Ratio (z) = 0.07594 0.07594
#
# Static dielectric constant tensor:
#      x y z
#    x 1.953590 0.000000 0.000000 
#    y 0.000000 1.953590 0.000000 
#    z 0.000000 0.000000 1.807720 
# 
# From -- ./inp_files/469.got.cif
#   From: 2010.05.17/outbox.cif.g08.bks.cpg/sg171_1_cif.got.tgz:469.got - 2010.05.20 11:16:09.
