data_PCOD9580117
_publ_section_title
;
Structure prediction by ZEFSAII (Michael W. Deem and Ramdas Pophale) SiO2 
 PCOD9580117
Probable space group: P 61
;
_chemical_formula_sum "Si O2"
_cell_formula_units_Z 36
_cell_length_a 8.335812
_cell_length_b 8.335812
_cell_length_c 23.361202
_cell_angle_alpha 90.000000
_cell_angle_beta 90.000000
_cell_angle_gamma 120.000000
_cell_volume 1405.793850
_symmetry_space_group_name_H-M "P 61"
_symmetry_group_IT_number 169
_symmetry_cell_setting 'hexagonal'
loop_
_space_group_symop_operation_xyz
x,y,z
x-y,x,1/6+z
-y,x-y,1/3+z
-x,-y,1/2+z
-x+y,-x,2/3+z
y,-x+y,5/6+z
loop_
_atom_site_type_symbol
_atom_site_label
_atom_site_fract_x
_atom_site_fract_y
_atom_site_fract_z
Si Si1 0.762884 0.178897 0.336440
Si Si2 0.355895 0.851037 0.364349
Si Si3 0.805956 0.888345 0.613759
Si Si4 0.210206 0.231197 0.632838
Si Si5 0.416229 0.541560 0.342399
Si Si6 0.524495 0.765133 0.222606
O O1 0.888591 0.155568 0.384233
O O2 0.761478 0.363533 0.351785
O O3 0.885570 0.189341 0.282737
O O4 0.556965 0.010719 0.344410
O O5 0.280493 0.925155 0.415024
O O6 0.349862 0.660188 0.379645
O O7 0.215385 0.801306 0.311729
O O8 0.649296 0.891425 0.654017
O O9 0.007611 0.061401 0.622106
O O10 0.287759 0.191191 0.690867
O O11 0.506544 0.674530 0.285568
O O12 0.561936 0.508869 0.377510
#
# Coordination Sequence:
#
# PCOD9580117 Si02
#       6
#     6   6   6   6   6   6
#     4  11  24  45  72 105 147 192 244 303 365 435
#     4  12  26  45  72 107 152 197 246 303 370 438
#     4  11  25  46  73 106 146 193 247 302 365 434
#     4  12  25  46  74 110 149 195 249 307 370 441
#     4  11  26  47  74 109 148 195 247 306 369 440
#     4  11  24  45  75 109 146 194 247 303 369 438
#
# _framework density 25.608308000000001
#
# number of rings (size 3 to 8) (size 9 to 14) (size 15 to 20)
#    0.000    0.667    0.000    8.000    0.000    8.000 
#    0.000    1.667    0.000    0.000    0.000    0.000 
#    0.000    0.000    0.000    0.000    0.000    0.000 
#
# Total GULP energy -201989.929498 kJ/mol
# GULP energy per Si atom -5610.831375 kJ/mol
# Density = 2.555002 g / cm^3
# Si number density = 25.608308 Si / 1000 Ang^3
#
#
#
# Elastic Constant Matrix: (Units=GPa)
#
#
# Indices 1 2 3 4 5 6 
#
# 1 159.7184 57.1915 49.8576 0.0000 0.0000 0.0000
# 2 57.1915 159.7184 49.8576 0.0000 0.0000 0.0000
# 3 49.8576 49.8576 105.7809 0.0000 0.0000 0.0000
# 4 0.0000 0.0000 0.0000 43.2513 0.0000 0.0000
# 5 0.0000 0.0000 0.0000 0.0000 43.2513 0.0000
# 6 0.0000 0.0000 0.0000 0.0000 0.0000 51.2635
#
#
#
# Elastic Compliance Matrix: (Units=1/GPa)
#
#
# Indices 1 2 3 4 5 6 
#
# 1 0.007819 -0.001934 -0.002774 0.000000 0.000000 0.000000
# 2 -0.001934 0.007819 -0.002774 0.000000 0.000000 0.000000
# 3 -0.002774 -0.002774 0.012068 0.000000 0.000000 0.000000
# 4 0.000000 0.000000 0.000000 0.023121 0.000000 0.000000
# 5 0.000000 0.000000 0.000000 0.000000 0.023121 0.000000
# 6 0.000000 0.000000 0.000000 0.000000 0.000000 0.019507
#
#
# Mechanical properties :
#
#
# Convention : Reuss Voigt Hill
#
# Bulk Modulus (GPa) = 78.47212 82.11454 80.29333
# Shear Modulus (GPa) = 44.37831 45.44061 44.90946
#
# Velocity S-wave (km/s) = 4.16741 4.21699 4.19227
# Velocity P-wave (km/s) = 7.33935 7.47301 7.40648
#
# Compressibility (1/GPa) = 0.01274338
#
# Stress axis : x y z
#
# Youngs Moduli (GPa) = 127.88576 127.88576 82.86098
#
# Poissons Ratio (x) = 0.24734 0.22985
# Poissons Ratio (y) = 0.24734 0.22985
# Poissons Ratio (z) = 0.35475 0.35475
#
# Static dielectric constant tensor:
#      x y z
#    x 1.968060 0.000000 0.000000 
#    y 0.000000 1.968060 0.000000 
#    z 0.000000 0.000000 2.101290 
# 
# From -- ./inp_files/1746.got.cif
#   From: 2010.05.17/outbox.cif.g08.bks.cpg/sg169_cif.got.tgz:1746.got - 2010.05.20 11:12:54.
