data_PCOD9580973
_publ_section_title
;
Structure prediction by ZEFSAII (Michael W. Deem and Ramdas Pophale) SiO2 
 PCOD9580973
Probable space group: P 64
;
_chemical_formula_sum "Si O2"
_cell_formula_units_Z 39
_cell_length_a 13.267002
_cell_length_b 13.267002
_cell_length_c 12.368404
_cell_angle_alpha 90.000000
_cell_angle_beta 90.000000
_cell_angle_gamma 120.000000
_cell_volume 1885.340876
_symmetry_space_group_name_H-M "P 64"
_symmetry_group_IT_number 172
_symmetry_cell_setting 'hexagonal'
loop_
_space_group_symop_operation_xyz
x,y,z
x-y,x,2/3+z
-y,x-y,1/3+z
-x,-y,z
-x+y,-x,2/3+z
y,-x+y,1/3+z
loop_
_atom_site_type_symbol
_atom_site_label
_atom_site_fract_x
_atom_site_fract_y
_atom_site_fract_z
Si Si1 0.255672 0.670542 0.448810
Si Si2 0.870672 0.385365 0.682922
Si Si3 0.189021 0.040878 0.822305
Si Si4 0.000000 0.000000 0.317491
Si Si5 0.608691 0.805031 0.514682
Si Si6 0.736603 0.568506 0.412843
Si Si7 0.544227 0.117976 0.918240
O O1 0.379878 0.786775 0.432589
O O2 0.191968 0.653588 0.564200
O O3 0.256548 0.548768 0.430158
O O4 0.194785 0.673221 0.336635
O O5 0.863460 0.272867 0.741843
O O6 0.000000 0.500000 0.675498
O O7 0.199161 0.926766 0.847034
O O8 0.116803 0.060703 0.914212
O O9 0.105250 0.009300 0.719993
O O10 0.314055 0.152265 0.798760
O O11 0.600450 0.868521 0.622815
O O12 0.502663 0.674157 0.540081
O O13 0.624470 0.538462 0.482246
O O14 0.500000 0.000000 0.983544
#
# Coordination Sequence:
#
# PCOD9580973 Si02
#       7
#     6   6   6   3   6   6   6
#     4  11  23  46  64 100 144 177 225 293 343 414
#     4  12  26  44  69  98 140 185 225 285 356 415
#     4  11  22  43  68  98 135 183 234 288 349 422
#     4  10  24  44  64  96 146 180 224 304 352 404
#     4  11  24  39  63 101 131 178 235 282 349 419
#     4  11  21  40  69  97 135 184 229 282 350 418
#     4  11  21  38  69  97 133 178 231 285 340 416
#
# _framework density 20.685912999999999
#
# number of rings (size 3 to 8) (size 9 to 14) (size 15 to 20)
#    0.000    0.923    6.154    1.385    0.000    3.077 
#    0.000    1.538    0.000    0.000    0.000    0.000 
#    0.000    0.000    0.000    0.000    0.000    0.000 
#
# Total GULP energy -217132.757707 kJ/mol
# GULP energy per Si atom -5567.506608 kJ/mol
# Density = 2.063883 g / cm^3
# Si number density = 20.685913 Si / 1000 Ang^3
#
#
#
# Elastic Constant Matrix: (Units=GPa)
#
#
# Indices 1 2 3 4 5 6 
#
# 1 75.3532 12.4030 25.2068 0.0000 0.0000 0.0000
# 2 12.4030 75.3532 25.2068 0.0000 0.0000 0.0000
# 3 25.2068 25.2068 106.5314 0.0000 0.0000 0.0000
# 4 0.0000 0.0000 0.0000 -28.9986 0.0000 0.0000
# 5 0.0000 0.0000 0.0000 0.0000 -28.9986 0.0000
# 6 0.0000 0.0000 0.0000 0.0000 0.0000 31.4751
#
#
#
# Elastic Compliance Matrix: (Units=1/GPa)
#
#
# Indices 1 2 3 4 5 6 
#
# 1 0.014537 -0.001349 -0.003120 0.000000 0.000000 0.000000
# 2 -0.001349 0.014537 -0.003120 0.000000 0.000000 0.000000
# 3 -0.003120 -0.003120 0.010864 0.000000 0.000000 0.000000
# 4 0.000000 0.000000 0.000000 -0.034484 0.000000 0.000000
# 5 0.000000 0.000000 0.000000 0.000000 -0.034484 0.000000
# 6 0.000000 0.000000 0.000000 0.000000 0.000000 0.031771
#
#
# Mechanical properties :
#
#
# Convention : Reuss Voigt Hill
#
# Bulk Modulus (GPa) = 40.39181 42.54124 41.46653
# Shear Modulus (GPa) = 191.05012 7.65700 99.35356
#
# Velocity S-wave (km/s) = 9.62071 1.92603 6.93786
# Velocity P-wave (km/s) = 11.95740 5.05530 9.17975
#
# Compressibility (1/GPa) = 0.02475750
#
# Stress axis : x y z
#
# Youngs Moduli (GPa) = 68.79149 68.79149 92.05081
#
# Poissons Ratio (x) = 0.09279 0.28724
# Poissons Ratio (y) = 0.09279 0.28724
# Poissons Ratio (z) = 0.21466 0.21466
#
# Static dielectric constant tensor:
#      x y z
#    x 1.831290 0.000000 0.000000 
#    y 0.000000 1.831290 0.000000 
#    z 0.000000 0.000000 1.789900 
# 
# From -- ./inp_files/1062.got.cif
#   From: 2010.05.17/outbox.cif.g08.bks.cpg/sg172_1_cif.got.tgz:1062.got - 2010.05.20 11:19:57.
