data_PCOD9580302
_publ_section_title
;
Structure prediction by ZEFSAII (Michael W. Deem and Ramdas Pophale) SiO2 
 PCOD9580302
Probable space group: P 65
;
_chemical_formula_sum "Si O2"
_cell_formula_units_Z 42
_cell_length_a 8.606365
_cell_length_b 8.606365
_cell_length_c 29.310323
_cell_angle_alpha 90.000000
_cell_angle_beta 90.000000
_cell_angle_gamma 120.000000
_cell_volume 1880.142461
_symmetry_space_group_name_H-M "P 65"
_symmetry_group_IT_number 170
_symmetry_cell_setting 'hexagonal'
loop_
_space_group_symop_operation_xyz
x,y,z
x-y,x,5/6+z
-y,x-y,2/3+z
-x,-y,1/2+z
-x+y,-x,1/3+z
y,-x+y,1/6+z
loop_
_atom_site_type_symbol
_atom_site_label
_atom_site_fract_x
_atom_site_fract_y
_atom_site_fract_z
Si Si1 0.520644 0.309616 0.869680
Si Si2 0.308893 0.886367 0.622221
Si Si3 0.862318 0.821832 0.252993
Si Si4 0.082985 0.946737 0.346402
Si Si5 0.682844 0.688633 0.857588
Si Si6 0.302860 0.518533 0.605460
Si Si7 0.406652 0.484338 0.040821
O O1 0.517144 0.486760 0.851080
O O2 0.492800 0.183762 0.826480
O O3 0.724585 0.377412 0.884967
O O4 0.367654 0.210031 0.905810
O O5 0.144337 0.827250 0.656861
O O6 0.295921 0.703537 0.602174
O O7 0.474599 0.972855 0.657113
O O8 0.307171 0.999809 0.579516
O O9 0.977755 0.890694 0.298958
O O10 0.971430 0.965082 0.213664
O O11 0.662210 0.789443 0.256435
O O12 0.090636 0.782651 0.368944
O O13 0.284880 0.117368 0.344047
O O14 0.469509 0.536733 0.577535
#
# Coordination Sequence:
#
# PCOD9580302 Si02
#       7
#     6   6   6   6   6   6   6
#     4  10  24  47  71  98 147 183 243 286 369 431
#     4  10  23  45  74 100 147 184 244 292 367 434
#     4  12  24  46  67 103 138 188 236 297 353 438
#     4  12  26  40  74 102 140 179 240 294 361 420
#     4  10  22  44  68 101 139 186 231 297 354 431
#     4  10  23  45  69 102 140 186 236 291 367 432
#     4  10  24  43  69 104 141 182 234 303 353 440
#
# _framework density 22.338730999999999
#
# number of rings (size 3 to 8) (size 9 to 14) (size 15 to 20)
#    0.000    1.714    1.429    3.429    8.000    0.000 
#    7.714    0.000    0.000    0.000    0.000    0.000 
#    0.000    0.000    0.000    0.000    0.000    0.000 
#
# Total GULP energy -234359.822467 kJ/mol
# GULP energy per Si atom -5579.995773 kJ/mol
# Density = 2.228789 g / cm^3
# Si number density = 22.338731 Si / 1000 Ang^3
#
#
#
# Elastic Constant Matrix: (Units=GPa)
#
#
# Indices 1 2 3 4 5 6 
#
# 1 96.8940 46.2956 53.9812 0.0000 0.0000 0.0000
# 2 46.2956 96.8940 53.9812 0.0000 0.0000 0.0000
# 3 53.9812 53.9812 115.6380 0.0000 0.0000 0.0000
# 4 0.0000 0.0000 0.0000 37.8154 0.0000 0.0000
# 5 0.0000 0.0000 0.0000 0.0000 37.8154 0.0000
# 6 0.0000 0.0000 0.0000 0.0000 0.0000 25.2992
#
#
#
# Elastic Compliance Matrix: (Units=1/GPa)
#
#
# Indices 1 2 3 4 5 6 
#
# 1 0.015270 -0.004493 -0.005031 0.000000 0.000000 0.000000
# 2 -0.004493 0.015270 -0.005031 0.000000 0.000000 0.000000
# 3 -0.005031 -0.005031 0.013345 0.000000 0.000000 0.000000
# 4 0.000000 0.000000 0.000000 0.026444 0.000000 0.000000
# 5 0.000000 0.000000 0.000000 0.000000 0.026444 0.000000
# 6 0.000000 0.000000 0.000000 0.000000 0.000000 0.039527
#
#
# Mechanical properties :
#
#
# Convention : Reuss Voigt Hill
#
# Bulk Modulus (GPa) = 67.68112 68.66022 68.17067
# Shear Modulus (GPa) = 29.35393 30.53055 29.94224
#
# Velocity S-wave (km/s) = 3.62890 3.70091 3.66508
# Velocity P-wave (km/s) = 6.92257 7.00464 6.96373
#
# Compressibility (1/GPa) = 0.01477517
#
# Stress axis : x y z
#
# Youngs Moduli (GPa) = 65.48724 65.48724 74.93710
#
# Poissons Ratio (x) = 0.29425 0.37699
# Poissons Ratio (y) = 0.29425 0.37699
# Poissons Ratio (z) = 0.32945 0.32945
#
# Static dielectric constant tensor:
#      x y z
#    x 1.874530 0.000000 0.000000 
#    y 0.000000 1.874530 0.000000 
#    z 0.000000 0.000000 1.807910 
# 
# From -- ./inp_files/1917.got.cif
#   From: 2010.05.17/outbox.cif.g08.bks.cpg/sg170_cif.got.tgz:1917.got - 2010.05.20 11:14:30.
