data_PCOD9580889
_publ_section_title
;
Structure prediction by ZEFSAII (Michael W. Deem and Ramdas Pophale) SiO2 
 PCOD9580889
Probable space group: P 62
;
_chemical_formula_sum "Si O2"
_cell_formula_units_Z 39
_cell_length_a 13.000000
_cell_length_b 13.000000
_cell_length_c 13.000000
_cell_angle_alpha 90.000000
_cell_angle_beta 90.000000
_cell_angle_gamma 120.000000
_cell_volume 1902.657812
_symmetry_space_group_name_H-M "P 62"
_symmetry_group_IT_number 171
_symmetry_cell_setting 'hexagonal'
loop_
_space_group_symop_operation_xyz
x,y,z
x-y,x,1/3+z
-y,x-y,2/3+z
-x,-y,z
-x+y,-x,1/3+z
y,-x+y,2/3+z
loop_
_atom_site_type_symbol
_atom_site_label
_atom_site_fract_x
_atom_site_fract_y
_atom_site_fract_z
Si Si1 0.356306 0.261363 0.148870
Si Si2 0.000000 0.500000 0.618477
Si Si3 0.213580 0.565681 0.005011
Si Si4 0.094945 0.738638 0.295287
Si Si5 0.000000 0.000000 0.722078
Si Si6 0.647900 0.434321 0.439147
Si Si7 0.172695 0.172695 0.555411
Si Si8 0.500000 0.500000 0.825680
O O1 0.415437 0.381584 0.218162
O O2 0.467827 0.254413 0.104826
O O3 0.288497 0.135045 0.215500
O O4 0.282385 0.282386 0.055412
O O5 0.104550 0.582670 0.695624
O O6 0.315517 0.684483 0.055413
O O7 0.104550 0.521881 0.081868
O O8 0.254413 0.467829 0.005996
O O9 0.189842 0.594923 0.888746
O O10 0.033853 0.618416 0.225996
O O11 0.153453 0.864956 0.228656
O O12 0.106346 0.090432 0.651866
O O13 0.984087 0.090433 0.792290
#
# Coordination Sequence:
#
# PCOD9580889 Si02
#       8
#     6   3   6   6   3   6   6   3
#     4  12  28  48  78 113 154 206 260 321 399 476
#     4  12  28  48  82 106 158 206 258 320 400 474
#     4  12  27  49  75 112 150 197 261 323 389 469
#     4  12  28  48  78 113 154 206 260 321 399 476
#     4  10  24  46  68 108 156 190 244 304 384 460
#     4  12  27  49  75 112 150 197 261 323 389 469
#     4  11  26  46  73 110 152 197 252 314 381 466
#     4  12  28  48  82 106 158 206 258 320 400 474
#
# _framework density 20.497643
#
# number of rings (size 3 to 8) (size 9 to 14) (size 15 to 20)
#    0.000    0.308    4.615    2.769    8.615    0.000 
#    0.000    0.000    0.000    0.000    0.000    0.000 
#    0.000    0.000    0.000    0.000    0.000    0.000 
#
# Total GULP energy -217302.113928 kJ/mol
# GULP energy per Si atom -5571.849075 kJ/mol
# Density = 2.045099 g / cm^3
# Si number density = 20.497643 Si / 1000 Ang^3
#
#
#
# Elastic Constant Matrix: (Units=GPa)
#
#
# Indices 1 2 3 4 5 6 
#
# 1 154.2297 55.7303 69.9956 0.0000 0.0000 0.0000
# 2 55.7303 154.2297 69.9956 0.0000 0.0000 0.0000
# 3 69.9956 69.9956 126.5413 0.0000 0.0000 0.0000
# 4 0.0000 0.0000 0.0000 42.7734 0.0000 0.0000
# 5 0.0000 0.0000 0.0000 0.0000 42.7734 0.0000
# 6 0.0000 0.0000 0.0000 0.0000 0.0000 49.2497
#
#
#
# Elastic Compliance Matrix: (Units=1/GPa)
#
#
# Indices 1 2 3 4 5 6 
#
# 1 0.008849 -0.001303 -0.004174 0.000000 0.000000 0.000000
# 2 -0.001303 0.008849 -0.004174 0.000000 0.000000 0.000000
# 3 -0.004174 -0.004174 0.012520 0.000000 0.000000 0.000000
# 4 0.000000 0.000000 0.000000 0.023379 0.000000 0.000000
# 5 0.000000 0.000000 0.000000 0.000000 0.023379 0.000000
# 6 0.000000 0.000000 0.000000 0.000000 0.000000 0.020305
#
#
# Mechanical properties :
#
#
# Convention : Reuss Voigt Hill
#
# Bulk Modulus (GPa) = 91.60838 91.82710 91.71774
# Shear Modulus (GPa) = 41.58979 42.91123 42.25051
#
# Velocity S-wave (km/s) = 4.50933 4.58041 4.54501
# Velocity P-wave (km/s) = 8.47946 8.53637 8.50797
#
# Compressibility (1/GPa) = 0.01091603
#
# Stress axis : x y z
#
# Youngs Moduli (GPa) = 113.00636 113.00636 79.87158
#
# Poissons Ratio (x) = 0.14728 0.33338
# Poissons Ratio (y) = 0.14728 0.33338
# Poissons Ratio (z) = 0.47168 0.47168
#
# Static dielectric constant tensor:
#      x y z
#    x 1.722090 0.000000 0.000000 
#    y 0.000000 1.722090 0.000000 
#    z 0.000000 0.000000 1.743430 
# 
# From -- ./inp_files/2052.got.cif
#   From: 2010.05.17/outbox.ucp.g08.bks.cvg/sg171_2_cif.got.tgz:2052.got - 2010.06.11 15:18:14.
