data_PCOD9580122
_publ_section_title
;
Structure prediction by ZEFSAII (Michael W. Deem and Ramdas Pophale) SiO2 
 PCOD9580122
Probable space group: P 61
;
_chemical_formula_sum "Si O2"
_cell_formula_units_Z 36
_cell_length_a 15.030460
_cell_length_b 15.030460
_cell_length_c 7.958756
_cell_angle_alpha 90.000000
_cell_angle_beta 90.000000
_cell_angle_gamma 120.000000
_cell_volume 1557.113845
_symmetry_space_group_name_H-M "P 61"
_symmetry_group_IT_number 169
_symmetry_cell_setting 'hexagonal'
loop_
_space_group_symop_operation_xyz
x,y,z
x-y,x,1/6+z
-y,x-y,1/3+z
-x,-y,1/2+z
-x+y,-x,2/3+z
y,-x+y,5/6+z
loop_
_atom_site_type_symbol
_atom_site_label
_atom_site_fract_x
_atom_site_fract_y
_atom_site_fract_z
Si Si1 0.799763 0.840884 0.023050
Si Si2 0.880943 0.242127 0.498346
Si Si3 0.041762 0.364998 0.228093
Si Si4 0.503353 0.914381 0.931903
Si Si5 0.317536 0.586860 0.845206
Si Si6 0.897645 0.606861 0.379547
O O1 0.883345 0.839885 0.142837
O O2 0.684450 0.796095 0.088172
O O3 0.788751 0.753484 0.891691
O O4 0.771820 0.139292 0.484075
O O5 0.870400 0.319382 0.627934
O O6 0.935067 0.303678 0.327444
O O7 0.070474 0.482173 0.200924
O O8 0.044681 0.326154 0.042856
O O9 0.598748 0.025569 0.970459
O O10 0.460767 0.844511 0.098913
O O11 0.295863 0.635696 0.675655
O O12 0.211245 0.491687 0.907937
#
# Coordination Sequence:
#
# PCOD9580122 Si02
#       6
#     6   6   6   6   6   6
#     4  11  24  50  73 105 143 195 243 311 381 454
#     4  11  25  46  76 103 148 192 247 305 381 452
#     4  12  26  45  72 110 143 192 246 309 383 454
#     4  11  26  44  73 106 146 196 237 310 371 463
#     4  12  28  50  76 112 155 198 256 316 390 466
#     4  11  27  45  74 106 147 193 247 307 374 461
#
# _framework density 23.119699000000001
#
# number of rings (size 3 to 8) (size 9 to 14) (size 15 to 20)
#    0.000    0.667    1.667    5.000   14.000    2.667 
#    3.000    0.000    0.000    0.000    0.000    0.000 
#    0.000    0.000    0.000    0.000    0.000    0.000 
#
# Total GULP energy -201348.517260 kJ/mol
# GULP energy per Si atom -5593.014368 kJ/mol
# Density = 2.306708 g / cm^3
# Si number density = 23.119699 Si / 1000 Ang^3
#
#
#
# Elastic Constant Matrix: (Units=GPa)
#
#
# Indices 1 2 3 4 5 6 
#
# 1 80.9669 46.0358 13.3944 0.0000 0.0000 0.0000
# 2 46.0358 80.9669 13.3944 0.0000 0.0000 0.0000
# 3 13.3944 13.3944 70.8403 0.0000 0.0000 0.0000
# 4 0.0000 0.0000 0.0000 31.3370 0.0000 0.0000
# 5 0.0000 0.0000 0.0000 0.0000 31.3370 0.0000
# 6 0.0000 0.0000 0.0000 0.0000 0.0000 17.4655
#
#
#
# Elastic Compliance Matrix: (Units=1/GPa)
#
#
# Indices 1 2 3 4 5 6 
#
# 1 0.018414 -0.010213 -0.001551 0.000000 0.000000 0.000000
# 2 -0.010213 0.018414 -0.001551 0.000000 0.000000 0.000000
# 3 -0.001551 -0.001551 0.014703 0.000000 0.000000 0.000000
# 4 0.000000 0.000000 0.000000 0.031911 0.000000 0.000000
# 5 0.000000 0.000000 0.000000 0.000000 0.031911 0.000000
# 6 0.000000 0.000000 0.000000 0.000000 0.000000 0.057256
#
#
# Mechanical properties :
#
#
# Convention : Reuss Voigt Hill
#
# Bulk Modulus (GPa) = 40.15740 42.04701 41.10220
# Shear Modulus (GPa) = 24.09181 26.69119 25.39150
#
# Velocity S-wave (km/s) = 3.23158 3.40145 3.31760
# Velocity P-wave (km/s) = 5.59743 5.80109 5.70017
#
# Compressibility (1/GPa) = 0.02490201
#
# Stress axis : x y z
#
# Youngs Moduli (GPa) = 54.30542 54.30542 68.01506
#
# Poissons Ratio (x) = 0.55465 0.10547
# Poissons Ratio (y) = 0.55465 0.10547
# Poissons Ratio (z) = 0.08421 0.08421
#
# Static dielectric constant tensor:
#      x y z
#    x 1.872410 0.000000 0.000000 
#    y 0.000000 1.872410 0.000000 
#    z 0.000000 0.000000 1.988310 
# 
# From -- ./inp_files/599.got.cif
#   From: 2010.05.17/outbox.cif.g08.bks.cpg/sg169_cif.got.tgz:599.got - 2010.05.20 11:12:54.
