data_PCOD9580964
_publ_section_title
;
Structure prediction by ZEFSAII (Michael W. Deem and Ramdas Pophale) SiO2 
 PCOD9580964
Probable space group: P 64
;
_chemical_formula_sum "Si O2"
_cell_formula_units_Z 36
_cell_length_a 11.681339
_cell_length_b 11.681339
_cell_length_c 12.019776
_cell_angle_alpha 90.000000
_cell_angle_beta 90.000000
_cell_angle_gamma 120.000000
_cell_volume 1420.405225
_symmetry_space_group_name_H-M "P 64"
_symmetry_group_IT_number 172
_symmetry_cell_setting 'hexagonal'
loop_
_space_group_symop_operation_xyz
x,y,z
x-y,x,2/3+z
-y,x-y,1/3+z
-x,-y,z
-x+y,-x,2/3+z
y,-x+y,1/3+z
loop_
_atom_site_type_symbol
_atom_site_label
_atom_site_fract_x
_atom_site_fract_y
_atom_site_fract_z
Si Si1 0.190239 0.777115 0.941220
Si Si2 0.235867 0.628272 0.122695
Si Si3 0.598394 0.639880 0.106427
Si Si4 0.299033 0.518458 0.907385
Si Si5 0.772523 0.979203 0.271958
Si Si6 0.154148 0.055648 0.719511
O O1 0.173891 0.120400 0.842168
O O2 0.332516 0.814658 0.887399
O O3 0.167987 0.895651 0.980856
O O4 0.156272 0.680349 0.048992
O O5 0.301770 0.381051 0.182824
O O6 0.289223 0.566849 0.029565
O O7 0.354498 0.762394 0.175811
O O8 0.500000 0.500000 0.048011
O O9 0.508650 0.671430 0.184108
O O10 0.690229 0.766292 0.030372
O O11 0.288112 0.377959 0.895093
O O12 0.776457 0.858619 0.339759
O O13 0.000000 0.000000 0.695854
#
# Coordination Sequence:
#
# PCOD9580964 Si02
#       6
#     6   6   6   6   6   6
#     4  11  24  46  76 113 159 203 267 331 412 483
#     4  10  22  41  77 109 148 198 258 330 402 486
#     4  12  22  43  78 108 142 207 258 318 424 485
#     4  11  21  42  69 104 147 196 254 326 399 485
#     4  12  27  46  75 105 153 201 267 327 396 483
#     4  12  29  50  74 110 158 211 270 332 391 485
#
# _framework density 25.344878000000001
#
# number of rings (size 3 to 8) (size 9 to 14) (size 15 to 20)
#    0.000    0.667    6.667    1.500    2.333    4.000 
#    0.000    0.000   11.000    0.000    0.000    0.000 
#    0.000    0.000    0.000    0.000    0.000    0.000 
#
# Total GULP energy -200665.623835 kJ/mol
# GULP energy per Si atom -5574.045107 kJ/mol
# Density = 2.528719 g / cm^3
# Si number density = 25.344878 Si / 1000 Ang^3
#
#
#
# Elastic Constant Matrix: (Units=GPa)
#
#
# Indices 1 2 3 4 5 6 
#
# 1 88.2022 26.4728 58.4037 0.0000 0.0000 0.0000
# 2 26.4728 88.2022 58.4037 0.0000 0.0000 0.0000
# 3 58.4037 58.4037 131.9811 0.0000 0.0000 0.0000
# 4 0.0000 0.0000 0.0000 54.6670 0.0000 0.0000
# 5 0.0000 0.0000 0.0000 0.0000 54.6670 0.0000
# 6 0.0000 0.0000 0.0000 0.0000 0.0000 30.8647
#
#
#
# Elastic Compliance Matrix: (Units=1/GPa)
#
#
# Indices 1 2 3 4 5 6 
#
# 1 0.016038 -0.000162 -0.007026 0.000000 0.000000 0.000000
# 2 -0.000162 0.016038 -0.007026 0.000000 0.000000 0.000000
# 3 -0.007026 -0.007026 0.013795 0.000000 0.000000 0.000000
# 4 0.000000 0.000000 0.000000 0.018293 0.000000 0.000000
# 5 0.000000 0.000000 0.000000 0.000000 0.018293 0.000000
# 6 0.000000 0.000000 0.000000 0.000000 0.000000 0.032399
#
#
# Mechanical properties :
#
#
# Convention : Reuss Voigt Hill
#
# Bulk Modulus (GPa) = 57.32184 66.10509 61.71346
# Shear Modulus (GPa) = 33.53536 39.04677 36.29106
#
# Velocity S-wave (km/s) = 3.64147 3.92933 3.78814
# Velocity P-wave (km/s) = 6.35187 6.83557 6.59815
#
# Compressibility (1/GPa) = 0.01744536
#
# Stress axis : x y z
#
# Youngs Moduli (GPa) = 62.35139 62.35139 72.49150
#
# Poissons Ratio (x) = 0.01008 0.50930
# Poissons Ratio (y) = 0.01008 0.50930
# Poissons Ratio (z) = 0.43806 0.43806
#
# Static dielectric constant tensor:
#      x y z
#    x 2.165910 0.000000 0.000000 
#    y 0.000000 2.165910 0.000000 
#    z 0.000000 0.000000 2.036930 
# 
# From -- ./inp_files/1268.got.cif
#   From: 2010.05.17/outbox.cif.g08.bks.cpg/sg172_1_cif.got.tgz:1268.got - 2010.05.20 11:19:57.
