data_PCOD9580315
_publ_section_title
;
Structure prediction by ZEFSAII (Michael W. Deem and Ramdas Pophale) SiO2 
 PCOD9580315
Probable space group: P 65
;
_chemical_formula_sum "Si O2"
_cell_formula_units_Z 48
_cell_length_a 17.323790
_cell_length_b 17.323790
_cell_length_c 9.213438
_cell_angle_alpha 90.000000
_cell_angle_beta 90.000000
_cell_angle_gamma 120.000000
_cell_volume 2394.628629
_symmetry_space_group_name_H-M "P 65"
_symmetry_group_IT_number 170
_symmetry_cell_setting 'hexagonal'
loop_
_space_group_symop_operation_xyz
x,y,z
x-y,x,5/6+z
-y,x-y,2/3+z
-x,-y,1/2+z
-x+y,-x,1/3+z
y,-x+y,1/6+z
loop_
_atom_site_type_symbol
_atom_site_label
_atom_site_fract_x
_atom_site_fract_y
_atom_site_fract_z
Si Si1 0.653080 0.979542 0.176120
Si Si2 0.614413 0.150125 0.858695
Si Si3 0.141675 0.464462 0.506299
Si Si4 0.263279 0.523853 0.240830
Si Si5 0.725620 0.558096 0.224641
Si Si6 0.638632 0.864629 0.710564
Si Si7 0.434010 0.547245 0.384264
Si Si8 0.038797 0.322054 0.047808
O O1 0.637897 0.906835 0.294677
O O2 0.552402 0.947275 0.112121
O O3 0.699291 0.072829 0.260714
O O4 0.706408 0.987497 0.031051
O O5 0.519145 0.140551 0.895091
O O6 0.611426 0.140562 0.687406
O O7 0.654007 0.085206 0.901792
O O8 0.680290 0.245102 0.932148
O O9 0.198102 0.521239 0.367522
O O10 0.210993 0.465857 0.625780
O O11 0.078873 0.495843 0.586959
O O12 0.243837 0.428343 0.179013
O O13 0.357360 0.561572 0.314573
O O14 0.749855 0.586534 0.390886
O O15 0.697564 0.817007 0.700594
O O16 0.684116 0.968742 0.749400
#
# Coordination Sequence:
#
# PCOD9580315 Si02
#       8
#     6   6   6   6   6   6   6   6
#     4  11  24  41  65  88 125 165 223 278 332 394
#     4  10  23  41  60  87 128 172 220 273 328 387
#     4  12  23  42  62  86 126 169 223 290 325 395
#     4  11  22  41  57  87 123 170 217 275 326 389
#     4  11  26  41  62  97 128 171 230 275 338 398
#     4  11  24  43  66  98 128 171 217 271 339 401
#     4  11  25  40  57  89 123 173 230 271 338 391
#     4  11  23  43  69  92 135 171 220 271 330 403
#
# _framework density 20.044862999999999
#
# number of rings (size 3 to 8) (size 9 to 14) (size 15 to 20)
#    0.000    1.000    6.250    1.500    8.750    2.000 
#    2.250    0.000    0.000    0.000    0.000    1.750 
#    0.000    0.000    0.000    0.000    0.000    0.000 
#
# Total GULP energy -267285.502611 kJ/mol
# GULP energy per Si atom -5568.447971 kJ/mol
# Density = 1.999924 g / cm^3
# Si number density = 20.044863 Si / 1000 Ang^3
#
#
#
# Elastic Constant Matrix: (Units=GPa)
#
#
# Indices 1 2 3 4 5 6 
#
# 1 29.9373 33.5104 13.7490 0.0000 0.0000 0.0000
# 2 33.5104 29.9373 13.7490 0.0000 0.0000 0.0000
# 3 13.7490 13.7490 89.3903 0.0000 0.0000 0.0000
# 4 0.0000 0.0000 0.0000 -4.1125 0.0000 0.0000
# 5 0.0000 0.0000 0.0000 0.0000 -4.1125 0.0000
# 6 0.0000 0.0000 0.0000 0.0000 0.0000 -1.7865
#
#
#
# Elastic Compliance Matrix: (Units=1/GPa)
#
#
# Indices 1 2 3 4 5 6 
#
# 1 -0.131495 0.148381 -0.002597 0.000000 0.000000 0.000000
# 2 0.148381 -0.131495 -0.002597 0.000000 0.000000 0.000000
# 3 -0.002597 -0.002597 0.011986 0.000000 0.000000 0.000000
# 4 0.000000 0.000000 0.000000 -0.243158 0.000000 0.000000
# 5 0.000000 0.000000 0.000000 0.000000 -0.243158 0.000000
# 6 0.000000 0.000000 0.000000 0.000000 0.000000 -0.559752
#
#
# Mechanical properties :
#
#
# Convention : Reuss Voigt Hill
#
# Bulk Modulus (GPa) = 28.27258 30.14243 29.20750
# Shear Modulus (GPa) = -3.18136 3.88145 0.35004
#
# Velocity S-wave (km/s) = -1.26118 1.39305 0.41834
# Velocity P-wave (km/s) = 3.46620 4.20209 3.85176
#
# Compressibility (1/GPa) = 0.03536995
#
# Stress axis : x y z
#
# Youngs Moduli (GPa) = -7.60488 -7.60488 83.43147
#
# Poissons Ratio (x) = 1.12842 0.21670
# Poissons Ratio (y) = 1.12842 0.21670
# Poissons Ratio (z) = -0.01975 -0.01975
#
# Static dielectric constant tensor:
#      x y z
#    x 1.806230 0.000000 0.000000 
#    y 0.000000 1.806230 0.000000 
#    z 0.000000 0.000000 1.723270 
# 
# From -- ./inp_files/740.got.cif
#   From: 2010.05.17/outbox.cif.g08.bks.cpg/sg170_cif.got.tgz:740.got - 2010.05.20 11:14:30.
