data_PCOD9580539
_publ_section_title
;
Structure prediction by ZEFSAII (Michael W. Deem and Ramdas Pophale) SiO2 
 PCOD9580539
Probable space group: P 62
;
_chemical_formula_sum "Si O2"
_cell_formula_units_Z 42
_cell_length_a 15.174185
_cell_length_b 15.174185
_cell_length_c 11.701222
_cell_angle_alpha 90.000000
_cell_angle_beta 90.000000
_cell_angle_gamma 120.000000
_cell_volume 2333.310846
_symmetry_space_group_name_H-M "P 62"
_symmetry_group_IT_number 171
_symmetry_cell_setting 'hexagonal'
loop_
_space_group_symop_operation_xyz
x,y,z
x-y,x,1/3+z
-y,x-y,2/3+z
-x,-y,z
-x+y,-x,1/3+z
y,-x+y,2/3+z
loop_
_atom_site_type_symbol
_atom_site_label
_atom_site_fract_x
_atom_site_fract_y
_atom_site_fract_z
Si Si1 0.339248 0.961857 0.006220
Si Si2 0.398647 0.713476 0.279821
Si Si3 0.177697 0.776406 0.106615
Si Si4 0.382887 0.536981 0.383539
Si Si5 0.588299 0.619404 0.831202
Si Si6 0.399790 0.007914 0.758444
Si Si7 0.765481 0.529616 0.029593
O O1 0.226781 0.889860 0.054990
O O2 0.405069 0.911338 0.053706
O O3 0.416433 0.079830 0.037415
O O4 0.332028 0.956516 0.869114
O O5 0.493887 0.772026 0.366419
O O6 0.368445 0.595634 0.276412
O O7 0.432983 0.775075 0.161854
O O8 0.301543 0.712326 0.333865
O O9 0.214081 0.793176 0.237146
O O10 0.058511 0.693615 0.111758
O O11 0.500000 0.500000 0.818387
O O12 0.556588 0.692410 0.769535
O O13 0.602127 0.640797 0.967017
O O14 0.432529 0.125928 0.749692
O O15 0.500000 0.000000 0.779380
#
# Coordination Sequence:
#
# PCOD9580539 Si02
#       7
#     6   6   6   6   6   6   6
#     4  10  20  40  50  78 117 162 204 264 300 355
#     4  11  20  34  50  86 114 159 213 243 302 365
#     4  10  22  36  56  83 112 154 211 256 299 363
#     4  10  22  32  52  75 118 161 205 258 297 365
#     4  10  21  38  59  83 118 161 203 259 302 374
#     4  10  22  39  52  78 124 163 197 253 307 379
#     4  11  22  36  59  83 117 163 208 247 313 361
#
# _framework density 18.000173
#
# number of rings (size 3 to 8) (size 9 to 14) (size 15 to 20)
#    0.000    1.714    5.714    0.000    4.000    0.000 
#    5.143    0.000    0.000    0.000    0.000    0.000 
#    0.000   13.714    0.000    0.000    0.000    0.000 
#
# Total GULP energy -234149.739247 kJ/mol
# GULP energy per Si atom -5574.993792 kJ/mol
# Density = 1.795920 g / cm^3
# Si number density = 18.000173 Si / 1000 Ang^3
#
#
#
# Elastic Constant Matrix: (Units=GPa)
#
#
# Indices 1 2 3 4 5 6 
#
# 1 66.9832 31.0584 39.8345 0.0000 0.0000 0.0000
# 2 31.0584 66.9832 39.8345 0.0000 0.0000 0.0000
# 3 39.8345 39.8345 105.0614 0.0000 0.0000 0.0000
# 4 0.0000 0.0000 0.0000 14.8644 0.0000 0.0000
# 5 0.0000 0.0000 0.0000 0.0000 14.8644 0.0000
# 6 0.0000 0.0000 0.0000 0.0000 0.0000 17.9624
#
#
#
# Elastic Compliance Matrix: (Units=1/GPa)
#
#
# Indices 1 2 3 4 5 6 
#
# 1 0.021289 -0.006547 -0.005589 0.000000 0.000000 0.000000
# 2 -0.006547 0.021289 -0.005589 0.000000 0.000000 0.000000
# 3 -0.005589 -0.005589 0.013757 0.000000 0.000000 0.000000
# 4 0.000000 0.000000 0.000000 0.067275 0.000000 0.000000
# 5 0.000000 0.000000 0.000000 0.000000 0.067275 0.000000
# 6 0.000000 0.000000 0.000000 0.000000 0.000000 0.055672
#
#
# Mechanical properties :
#
#
# Convention : Reuss Voigt Hill
#
# Bulk Modulus (GPa) = 47.88674 51.16473 49.52574
# Shear Modulus (GPa) = 17.30293 18.09161 17.69727
#
# Velocity S-wave (km/s) = 3.10379 3.17374 3.13896
# Velocity P-wave (km/s) = 6.28537 6.47429 6.38053
#
# Compressibility (1/GPa) = 0.02088261
#
# Stress axis : x y z
#
# Youngs Moduli (GPa) = 46.97304 46.97304 72.69173
#
# Poissons Ratio (x) = 0.30754 0.40630
# Poissons Ratio (y) = 0.30754 0.40630
# Poissons Ratio (z) = 0.26255 0.26255
#
# Static dielectric constant tensor:
#      x y z
#    x 1.650710 0.000000 0.000000 
#    y 0.000000 1.650710 0.000000 
#    z 0.000000 0.000000 1.665620 
# 
# From -- ./inp_files/1670.got.cif
#   From: 2010.05.17/outbox.cif.g08.bks.cpg/sg171_1_cif.got.tgz:1670.got - 2010.05.20 11:16:09.
