data_PCOD9580794
_publ_section_title
;
Structure prediction by ZEFSAII (Michael W. Deem and Ramdas Pophale) SiO2 
 PCOD9580794
Probable space group: P 62
;
_chemical_formula_sum "Si O2"
_cell_formula_units_Z 36
_cell_length_a 18.335358
_cell_length_b 18.335358
_cell_length_c 7.176626
_cell_angle_alpha 90.000000
_cell_angle_beta 90.000000
_cell_angle_gamma 120.000000
_cell_volume 2089.439179
_symmetry_space_group_name_H-M "P 62"
_symmetry_group_IT_number 171
_symmetry_cell_setting 'hexagonal'
loop_
_space_group_symop_operation_xyz
x,y,z
x-y,x,1/3+z
-y,x-y,2/3+z
-x,-y,z
-x+y,-x,1/3+z
y,-x+y,2/3+z
loop_
_atom_site_type_symbol
_atom_site_label
_atom_site_fract_x
_atom_site_fract_y
_atom_site_fract_z
Si Si1 0.913580 0.545438 0.222550
Si Si2 0.065967 0.430002 0.658203
Si Si3 0.404470 0.721432 0.803324
Si Si4 0.754394 0.196621 0.273570
Si Si5 0.882377 0.379567 0.717399
Si Si6 0.472460 0.107450 0.461831
O O1 0.915304 0.560079 0.440771
O O2 0.884859 0.445968 0.195411
O O3 0.007125 0.596255 0.135091
O O4 0.858750 0.581667 0.127180
O O5 0.129255 0.411035 0.774013
O O6 0.087164 0.521574 0.733269
O O7 0.965260 0.372690 0.676559
O O8 0.329861 0.709201 0.665437
O O9 0.457085 0.702686 0.647927
O O10 0.466839 0.814029 0.887479
O O11 0.845907 0.275684 0.235141
O O12 0.852831 0.342278 0.922123
#
# Coordination Sequence:
#
# PCOD9580794 Si02
#       6
#     6   6   6   6   6   6
#     4  11  22  41  54  73 107 140 176 231 274 331
#     4  11  21  38  56  72 101 138 182 220 285 326
#     4  12  27  37  51  79 110 137 187 240 288 324
#     4  12  23  36  54  79  97 136 180 229 271 327
#     4  11  21  37  53  73 101 142 172 230 280 331
#     4  11  22  38  56  73 105 140 179 224 283 326
#
# _framework density 17.229503999999999
#
# number of rings (size 3 to 8) (size 9 to 14) (size 15 to 20)
#    0.000    0.667    3.333    8.000    7.000    0.000 
#    0.000    0.000    0.000    0.000    0.000    0.000 
#    0.000    0.000    0.000    0.000    0.000   33.333 
#
# Total GULP energy -200423.038701 kJ/mol
# GULP energy per Si atom -5567.306631 kJ/mol
# Density = 1.719029 g / cm^3
# Si number density = 17.229504 Si / 1000 Ang^3
#
#
#
# Elastic Constant Matrix: (Units=GPa)
#
#
# Indices 1 2 3 4 5 6 
#
# 1 67.1482 23.8606 16.0297 0.0000 0.0000 0.0000
# 2 23.8606 67.1482 16.0297 0.0000 0.0000 0.0000
# 3 16.0297 16.0297 91.5040 0.0000 0.0000 0.0000
# 4 0.0000 0.0000 0.0000 21.0401 0.0000 0.0000
# 5 0.0000 0.0000 0.0000 0.0000 21.0401 0.0000
# 6 0.0000 0.0000 0.0000 0.0000 0.0000 21.6438
#
#
#
# Elastic Compliance Matrix: (Units=1/GPa)
#
#
# Indices 1 2 3 4 5 6 
#
# 1 0.017406 -0.005695 -0.002051 0.000000 0.000000 0.000000
# 2 -0.005695 0.017406 -0.002051 0.000000 0.000000 0.000000
# 3 -0.002051 -0.002051 0.011647 0.000000 0.000000 0.000000
# 4 0.000000 0.000000 0.000000 0.047528 0.000000 0.000000
# 5 0.000000 0.000000 0.000000 0.000000 0.047528 0.000000
# 6 0.000000 0.000000 0.000000 0.000000 0.000000 0.046203
#
#
# Mechanical properties :
#
#
# Convention : Reuss Voigt Hill
#
# Bulk Modulus (GPa) = 37.22649 37.51559 37.37104
# Shear Modulus (GPa) = 23.11937 24.07018 23.59477
#
# Velocity S-wave (km/s) = 3.66710 3.74174 3.70461
# Velocity P-wave (km/s) = 6.29153 6.36308 6.32741
#
# Compressibility (1/GPa) = 0.02686259
#
# Stress axis : x y z
#
# Youngs Moduli (GPa) = 57.45167 57.45167 85.85723
#
# Poissons Ratio (x) = 0.32721 0.17613
# Poissons Ratio (y) = 0.32721 0.17613
# Poissons Ratio (z) = 0.11786 0.11786
#
# Static dielectric constant tensor:
#      x y z
#    x 1.657770 0.000000 0.000000 
#    y 0.000000 1.657770 0.000000 
#    z 0.000000 0.000000 1.661300 
# 
# From -- ./inp_files/715.got.cif
#   From: 2010.05.17/outbox.cif.g08.bks.cpg/sg171_1_cif.got.tgz:715.got - 2010.05.20 11:16:09.
