data_PCOD9580559
_publ_section_title
;
Structure prediction by ZEFSAII (Michael W. Deem and Ramdas Pophale) SiO2 
 PCOD9580559
Probable space group: P 62
;
_chemical_formula_sum "Si O2"
_cell_formula_units_Z 30
_cell_length_a 15.588890
_cell_length_b 15.588890
_cell_length_c 5.787651
_cell_angle_alpha 90.000000
_cell_angle_beta 90.000000
_cell_angle_gamma 120.000000
_cell_volume 1218.045051
_symmetry_space_group_name_H-M "P 62"
_symmetry_group_IT_number 171
_symmetry_cell_setting 'hexagonal'
loop_
_space_group_symop_operation_xyz
x,y,z
x-y,x,1/3+z
-y,x-y,2/3+z
-x,-y,z
-x+y,-x,1/3+z
y,-x+y,2/3+z
loop_
_atom_site_type_symbol
_atom_site_label
_atom_site_fract_x
_atom_site_fract_y
_atom_site_fract_z
Si Si1 0.119515 0.562290 0.776020
Si Si2 0.586416 0.734472 0.696648
Si Si3 0.949898 0.829597 0.574517
Si Si4 0.954469 0.238886 0.233679
Si Si5 0.435896 0.556836 0.942155
O O1 0.154517 0.611698 0.527055
O O2 0.000000 0.500000 0.770087
O O3 0.151868 0.479852 0.813682
O O4 0.146855 0.618328 0.024433
O O5 0.628643 0.850453 0.663805
O O6 0.674647 0.708822 0.737182
O O7 0.512753 0.673901 0.906832
O O8 0.914748 0.870796 0.366560
O O9 0.861263 0.778204 0.753958
O O10 0.982412 0.757224 0.457450
O O11 0.500000 0.500000 0.946432
#
# Coordination Sequence:
#
# PCOD9580559 Si02
#       5
#     6   6   6   6   6
#     4   8  16  32  55  77  97 121 152 204 270 338
#     4  10  21  34  49  74  98 140 182 234 271 334
#     4  12  24  39  46  60  87 142 210 264 297 330
#     4  12  24  35  50  66  98 144 196 244 292 319
#     4   8  16  32  55  77  97 121 152 204 270 338
#
# _framework density 24.629633999999999
#
# number of rings (size 3 to 8) (size 9 to 14) (size 15 to 20)
#    1.200    0.800    4.000    0.000    2.800    4.000 
#    0.000    0.000    0.000    0.000    0.000    0.000 
#    0.000   25.600    0.000    0.000    0.000    0.000 
#
# Total GULP energy -167248.789606 kJ/mol
# GULP energy per Si atom -5574.959654 kJ/mol
# Density = 2.457358 g / cm^3
# Si number density = 24.629634 Si / 1000 Ang^3
#
#
#
# Elastic Constant Matrix: (Units=GPa)
#
#
# Indices 1 2 3 4 5 6 
#
# 1 73.4490 36.4539 32.7932 0.0000 0.0000 0.0000
# 2 36.4539 73.4490 32.7932 0.0000 0.0000 0.0000
# 3 32.7932 32.7932 199.1785 0.0000 0.0000 0.0000
# 4 0.0000 0.0000 0.0000 13.3332 0.0000 0.0000
# 5 0.0000 0.0000 0.0000 0.0000 13.3332 0.0000
# 6 0.0000 0.0000 0.0000 0.0000 0.0000 18.4976
#
#
#
# Elastic Compliance Matrix: (Units=1/GPa)
#
#
# Indices 1 2 3 4 5 6 
#
# 1 0.018560 -0.008470 -0.001661 0.000000 0.000000 0.000000
# 2 -0.008470 0.018560 -0.001661 0.000000 0.000000 0.000000
# 3 -0.001661 -0.001661 0.005568 0.000000 0.000000 0.000000
# 4 0.000000 0.000000 0.000000 0.075001 0.000000 0.000000
# 5 0.000000 0.000000 0.000000 0.000000 0.075001 0.000000
# 6 0.000000 0.000000 0.000000 0.000000 0.000000 0.054061
#
#
# Mechanical properties :
#
#
# Convention : Reuss Voigt Hill
#
# Bulk Modulus (GPa) = 52.34736 61.12859 56.73797
# Shear Modulus (GPa) = 18.06986 25.30189 21.68587
#
# Velocity S-wave (km/s) = 2.71156 3.20862 2.97051
# Velocity P-wave (km/s) = 5.57704 6.21289 5.90353
#
# Compressibility (1/GPa) = 0.01910316
#
# Stress axis : x y z
#
# Youngs Moduli (GPa) = 53.87797 53.87797 179.60853
#
# Poissons Ratio (x) = 0.45635 0.29838
# Poissons Ratio (y) = 0.45635 0.29838
# Poissons Ratio (z) = 0.08951 0.08951
#
# Static dielectric constant tensor:
#      x y z
#    x 1.948490 0.000000 0.000000 
#    y 0.000000 1.948490 0.000000 
#    z 0.000000 0.000000 1.943150 
# 
# From -- ./inp_files/694.got.cif
#   From: 2010.05.17/outbox.cif.g08.bks.cpg/sg171_1_cif.got.tgz:694.got - 2010.05.20 11:16:09.
