data_PCOD9580326
_publ_section_title
;
Structure prediction by ZEFSAII (Michael W. Deem and Ramdas Pophale) SiO2 
 PCOD9580326
Probable space group: P 65
;
_chemical_formula_sum "Si O2"
_cell_formula_units_Z 48
_cell_length_a 14.860508
_cell_length_b 14.860508
_cell_length_c 9.769267
_cell_angle_alpha 90.000000
_cell_angle_beta 90.000000
_cell_angle_gamma 120.000000
_cell_volume 1868.357255
_symmetry_space_group_name_H-M "P 65"
_symmetry_group_IT_number 170
_symmetry_cell_setting 'hexagonal'
loop_
_space_group_symop_operation_xyz
x,y,z
x-y,x,5/6+z
-y,x-y,2/3+z
-x,-y,1/2+z
-x+y,-x,1/3+z
y,-x+y,1/6+z
loop_
_atom_site_type_symbol
_atom_site_label
_atom_site_fract_x
_atom_site_fract_y
_atom_site_fract_z
Si Si1 0.356239 0.490172 0.736530
Si Si2 0.670933 0.512923 0.526372
Si Si3 0.186976 0.547321 0.718014
Si Si4 0.822920 0.018624 0.909963
Si Si5 0.721843 0.229227 0.122572
Si Si6 0.895053 0.095697 0.347094
Si Si7 0.066278 0.381586 0.495089
Si Si8 0.424545 0.358741 0.155079
O O1 0.294895 0.548166 0.692572
O O2 0.345133 0.398610 0.638829
O O3 0.479212 0.570124 0.756808
O O4 0.302546 0.433229 0.878781
O O5 0.752414 0.517092 0.635655
O O6 0.603412 0.392695 0.483668
O O7 0.610794 0.561560 0.601092
O O8 0.206007 0.662834 0.703267
O O9 0.113035 0.479046 0.595859
O O10 0.140372 0.488723 0.860312
O O11 0.743631 0.058691 0.863075
O O12 0.823592 0.936927 0.795795
O O13 0.778843 0.949324 0.049048
O O14 0.718847 0.130379 0.189182
O O15 0.791603 0.091453 0.398412
O O16 0.981022 0.125984 0.459276
#
# Coordination Sequence:
#
# PCOD9580326 Si02
#       8
#     6   6   6   6   6   6   6   6
#     4  12  28  48  72 118 165 215 276 349 419 517
#     4  12  27  47  79 117 161 220 287 343 422 513
#     4  12  27  47  74 116 158 215 275 341 419 513
#     4  10  25  51  82 122 158 212 284 352 435 522
#     4  12  25  49  77 116 157 230 274 340 422 514
#     4  10  23  47  78 109 145 204 268 338 421 508
#     4  12  24  49  75 112 163 210 276 340 427 501
#     4  12  27  50  79 118 171 220 282 353 433 524
#
# _framework density 25.691019000000001
#
# number of rings (size 3 to 8) (size 9 to 14) (size 15 to 20)
#    0.000    0.500    3.750    3.000    5.250    2.000 
#    2.250   13.750    0.000    0.000    0.000    0.000 
#    0.000    0.000    0.000    0.000    0.000    0.000 
#
# Total GULP energy -268693.963966 kJ/mol
# GULP energy per Si atom -5597.790916 kJ/mol
# Density = 2.563255 g / cm^3
# Si number density = 25.691019 Si / 1000 Ang^3
#
#
#
# Elastic Constant Matrix: (Units=GPa)
#
#
# Indices 1 2 3 4 5 6 
#
# 1 159.6653 58.1829 45.7952 0.0000 0.0000 0.0000
# 2 58.1829 159.6653 45.7952 0.0000 0.0000 0.0000
# 3 45.7952 45.7952 98.4987 0.0000 0.0000 0.0000
# 4 0.0000 0.0000 0.0000 38.5813 0.0000 0.0000
# 5 0.0000 0.0000 0.0000 0.0000 38.5813 0.0000
# 6 0.0000 0.0000 0.0000 0.0000 0.0000 50.7412
#
#
#
# Elastic Compliance Matrix: (Units=1/GPa)
#
#
# Indices 1 2 3 4 5 6 
#
# 1 0.007780 -0.002074 -0.002653 0.000000 0.000000 0.000000
# 2 -0.002074 0.007780 -0.002653 0.000000 0.000000 0.000000
# 3 -0.002653 -0.002653 0.012619 0.000000 0.000000 0.000000
# 4 0.000000 0.000000 0.000000 0.025919 0.000000 0.000000
# 5 0.000000 0.000000 0.000000 0.000000 0.025919 0.000000
# 6 0.000000 0.000000 0.000000 0.000000 0.000000 0.019708
#
#
# Mechanical properties :
#
#
# Convention : Reuss Voigt Hill
#
# Bulk Modulus (GPa) = 74.51872 79.70843 77.11358
# Shear Modulus (GPa) = 42.03181 43.45115 42.74148
#
# Velocity S-wave (km/s) = 4.04920 4.11700 4.08324
# Velocity P-wave (km/s) = 7.13653 7.32753 7.23266
#
# Compressibility (1/GPa) = 0.01341945
#
# Stress axis : x y z
#
# Youngs Moduli (GPa) = 128.53825 128.53825 79.24495
#
# Poissons Ratio (x) = 0.26661 0.21022
# Poissons Ratio (y) = 0.26661 0.21022
# Poissons Ratio (z) = 0.34098 0.34098
#
# Static dielectric constant tensor:
#      x y z
#    x 2.045030 0.000000 0.000000 
#    y 0.000000 2.045030 0.000000 
#    z 0.000000 0.000000 2.084610 
# 
# From -- ./inp_files/1080.got.cif
#   From: 2010.05.17/outbox.cif.g08.bks.cpg/sg170_cif.got.tgz:1080.got - 2010.05.20 11:14:30.
