data_PCOD9580707
_publ_section_title
;
Structure prediction by ZEFSAII (Michael W. Deem and Ramdas Pophale) SiO2 
 PCOD9580707
Probable space group: P 62
;
_chemical_formula_sum "Si O2"
_cell_formula_units_Z 48
_cell_length_a 15.360954
_cell_length_b 15.360954
_cell_length_c 11.510295
_cell_angle_alpha 90.000000
_cell_angle_beta 90.000000
_cell_angle_gamma 120.000000
_cell_volume 2352.087443
_symmetry_space_group_name_H-M "P 62"
_symmetry_group_IT_number 171
_symmetry_cell_setting 'hexagonal'
loop_
_space_group_symop_operation_xyz
x,y,z
x-y,x,1/3+z
-y,x-y,2/3+z
-x,-y,z
-x+y,-x,1/3+z
y,-x+y,2/3+z
loop_
_atom_site_type_symbol
_atom_site_label
_atom_site_fract_x
_atom_site_fract_y
_atom_site_fract_z
Si Si1 0.490130 0.090631 0.423730
Si Si2 0.392792 0.901187 0.074269
Si Si3 0.317472 0.111017 0.290040
Si Si4 0.290243 0.372116 0.983635
Si Si5 0.198805 0.895369 0.180850
Si Si6 0.302592 0.893099 0.817386
Si Si7 0.726429 0.297617 0.679809
Si Si8 0.719739 0.255225 0.425257
O O1 0.420426 0.119841 0.345528
O O2 0.435600 0.065253 0.549285
O O3 0.606732 0.168512 0.445059
O O4 0.500000 0.000000 0.369878
O O5 0.298643 0.884188 0.154626
O O6 0.500000 0.000000 0.098022
O O7 0.360125 0.908384 0.940602
O O8 0.411156 0.806862 0.082013
O O9 0.271726 0.153740 0.385166
O O10 0.345726 0.185423 0.182523
O O11 0.244286 0.998803 0.249074
O O12 0.191620 0.293048 0.914293
O O13 0.344515 0.339362 0.078083
O O14 0.241883 0.434737 0.038762
O O15 0.305952 0.808243 0.739541
O O16 0.764134 0.303853 0.549999
O O17 0.623478 0.297932 0.671925
#
# Coordination Sequence:
#
# PCOD9580707 Si02
#       8
#     6   6   6   6   6   6   6   6
#     4  11  23  39  62  94 132 173 219 271 326 392
#     4  11  23  39  62  94 132 173 219 271 326 392
#     4  10  23  44  68  96 130 167 216 271 332 402
#     4  11  24  40  62  92 132 174 220 272 330 393
#     4  10  23  44  68  96 130 167 216 271 332 402
#     4  11  24  40  62  92 132 174 220 272 330 393
#     4  12  23  36  57  86 129 177 223 267 320 382
#     4  12  23  36  57  86 129 177 223 267 320 382
#
# _framework density 20.407405000000001
#
# number of rings (size 3 to 8) (size 9 to 14) (size 15 to 20)
#    0.000    1.000    2.500    5.250    0.000    4.500 
#    0.000    0.000    0.000    2.250    0.000    0.000 
#    0.000    0.000    0.000    0.000    0.000    0.000 
#
# Total GULP energy -267750.278509 kJ/mol
# GULP energy per Si atom -5578.130802 kJ/mol
# Density = 2.036096 g / cm^3
# Si number density = 20.407405 Si / 1000 Ang^3
#
#
#
# Elastic Constant Matrix: (Units=GPa)
#
#
# Indices 1 2 3 4 5 6 
#
# 1 78.9680 35.9003 24.2051 0.0000 0.0000 0.0000
# 2 35.9003 78.9680 24.2051 0.0000 0.0000 0.0000
# 3 24.2051 24.2051 75.4180 0.0000 0.0000 0.0000
# 4 0.0000 0.0000 0.0000 43.3834 0.0000 0.0000
# 5 0.0000 0.0000 0.0000 0.0000 43.3834 0.0000
# 6 0.0000 0.0000 0.0000 0.0000 0.0000 21.5339
#
#
#
# Elastic Compliance Matrix: (Units=1/GPa)
#
#
# Indices 1 2 3 4 5 6 
#
# 1 0.016643 -0.006576 -0.003231 0.000000 0.000000 0.000000
# 2 -0.006576 0.016643 -0.003231 0.000000 0.000000 0.000000
# 3 -0.003231 -0.003231 0.015333 0.000000 0.000000 0.000000
# 4 0.000000 0.000000 0.000000 0.023050 0.000000 0.000000
# 5 0.000000 0.000000 0.000000 0.000000 0.023050 0.000000
# 6 0.000000 0.000000 0.000000 0.000000 0.000000 0.046439
#
#
# Mechanical properties :
#
#
# Convention : Reuss Voigt Hill
#
# Bulk Modulus (GPa) = 44.35806 44.66389 44.51097
# Shear Modulus (GPa) = 28.61232 31.59636 30.10434
#
# Velocity S-wave (km/s) = 3.74847 3.93909 3.84496
# Velocity P-wave (km/s) = 6.36538 6.52857 6.44749
#
# Compressibility (1/GPa) = 0.02254382
#
# Stress axis : x y z
#
# Youngs Moduli (GPa) = 60.08429 60.08429 65.21703
#
# Poissons Ratio (x) = 0.39511 0.21072
# Poissons Ratio (y) = 0.39511 0.21072
# Poissons Ratio (z) = 0.19414 0.19414
#
# Static dielectric constant tensor:
#      x y z
#    x 1.703760 0.000000 0.000000 
#    y 0.000000 1.703760 0.000000 
#    z 0.000000 0.000000 1.757400 
# 
# From -- ./inp_files/4701.got.cif
#   From: 2010.05.17/outbox.cif.g08.bks.cpg/sg171_3_cif.got.tgz:4701.got - 2010.05.20 11:16:09.
