data_PCOD9580579
_publ_section_title
;
Structure prediction by ZEFSAII (Michael W. Deem and Ramdas Pophale) SiO2 
 PCOD9580579
Probable space group: P 62
;
_chemical_formula_sum "Si O2"
_cell_formula_units_Z 30
_cell_length_a 18.403416
_cell_length_b 18.403416
_cell_length_c 5.148068
_cell_angle_alpha 90.000000
_cell_angle_beta 90.000000
_cell_angle_gamma 120.000000
_cell_volume 1509.982079
_symmetry_space_group_name_H-M "P 62"
_symmetry_group_IT_number 171
_symmetry_cell_setting 'hexagonal'
loop_
_space_group_symop_operation_xyz
x,y,z
x-y,x,1/3+z
-y,x-y,2/3+z
-x,-y,z
-x+y,-x,1/3+z
y,-x+y,2/3+z
loop_
_atom_site_type_symbol
_atom_site_label
_atom_site_fract_x
_atom_site_fract_y
_atom_site_fract_z
Si Si1 0.417442 0.595802 0.410010
Si Si2 0.697452 0.699214 0.704934
Si Si3 0.831655 0.657554 0.818329
Si Si4 0.214511 0.690402 0.233916
Si Si5 0.659190 0.058626 0.883248
O O1 0.375922 0.542100 0.669559
O O2 0.436553 0.689020 0.481252
O O3 0.504462 0.604623 0.305439
O O4 0.354600 0.562101 0.169867
O O5 0.788043 0.710505 0.747345
O O6 0.700640 0.787830 0.667184
O O7 0.657942 0.650531 0.436171
O O8 0.630902 0.650943 0.934680
O O9 0.755699 0.573576 0.937696
O O10 0.867390 0.624533 0.585048
#
# Coordination Sequence:
#
# PCOD9580579 Si02
#       5
#     6   6   6   6   6
#     4  11  21  36  52  85 111 161 200 249 282 346
#     4  10  21  39  63  85 117 151 195 238 298 358
#     4   9  24  38  64  86 119 152 198 242 295 361
#     4  11  22  34  58  81 117 157 208 245 297 333
#     4   9  22  37  60  81 124 142 198 235 295 344
#
# _framework density 19.867785000000001
#
# number of rings (size 3 to 8) (size 9 to 14) (size 15 to 20)
#    1.200    0.800    0.000    3.600    8.400    0.000 
#    0.000    6.000    0.000    0.000    0.000    7.000 
#    0.000    0.000    0.000    0.000    0.000    0.000 
#
# Total GULP energy -167311.440787 kJ/mol
# GULP energy per Si atom -5577.048026 kJ/mol
# Density = 1.982257 g / cm^3
# Si number density = 19.867785 Si / 1000 Ang^3
#
#
#
# Elastic Constant Matrix: (Units=GPa)
#
#
# Indices 1 2 3 4 5 6 
#
# 1 58.0460 51.3411 15.3560 0.0000 0.0000 0.0000
# 2 51.3411 58.0460 15.3560 0.0000 0.0000 0.0000
# 3 15.3560 15.3560 78.9842 0.0000 0.0000 0.0000
# 4 0.0000 0.0000 0.0000 14.1932 0.0000 0.0000
# 5 0.0000 0.0000 0.0000 0.0000 14.1932 0.0000
# 6 0.0000 0.0000 0.0000 0.0000 0.0000 3.3524
#
#
#
# Elastic Compliance Matrix: (Units=1/GPa)
#
#
# Indices 1 2 3 4 5 6 
#
# 1 0.079408 -0.069738 -0.001880 0.000000 0.000000 0.000000
# 2 -0.069738 0.079408 -0.001880 0.000000 0.000000 0.000000
# 3 -0.001880 -0.001880 0.013392 0.000000 0.000000 0.000000
# 4 0.000000 0.000000 0.000000 0.070456 0.000000 0.000000
# 5 0.000000 0.000000 0.000000 0.000000 0.070456 0.000000
# 6 0.000000 0.000000 0.000000 0.000000 0.000000 0.298292
#
#
# Mechanical properties :
#
#
# Convention : Reuss Voigt Hill
#
# Bulk Modulus (GPa) = 39.66485 39.90917 39.78701
# Shear Modulus (GPa) = 6.52051 13.88264 10.20158
#
# Velocity S-wave (km/s) = 1.81358 2.64626 2.26845
# Velocity P-wave (km/s) = 4.93895 5.42843 5.18946
#
# Compressibility (1/GPa) = 0.02521124
#
# Stress axis : x y z
#
# Youngs Moduli (GPa) = 12.59323 12.59323 74.67274
#
# Poissons Ratio (x) = 0.87823 0.14038
# Poissons Ratio (y) = 0.87823 0.14038
# Poissons Ratio (z) = 0.02367 0.02367
#
# Static dielectric constant tensor:
#      x y z
#    x 1.722440 0.000000 0.000000 
#    y 0.000000 1.722440 0.000000 
#    z 0.000000 0.000000 1.709910 
# 
# From -- ./inp_files/311.got.cif
#   From: 2010.05.17/outbox.cif.g08.bks.cpg/sg171_1_cif.got.tgz:311.got - 2010.05.20 11:16:09.
