data_PCOD9580833
_publ_section_title
;
Structure prediction by ZEFSAII (Michael W. Deem and Ramdas Pophale) SiO2 
 PCOD9580833
Probable space group: P 62
;
_chemical_formula_sum "Si O2"
_cell_formula_units_Z 42
_cell_length_a 8.877933
_cell_length_b 8.877933
_cell_length_c 28.687293
_cell_angle_alpha 90.000000
_cell_angle_beta 90.000000
_cell_angle_gamma 120.000000
_cell_volume 1958.140848
_symmetry_space_group_name_H-M "P 62"
_symmetry_group_IT_number 171
_symmetry_cell_setting 'hexagonal'
loop_
_space_group_symop_operation_xyz
x,y,z
x-y,x,1/3+z
-y,x-y,2/3+z
-x,-y,z
-x+y,-x,1/3+z
y,-x+y,2/3+z
loop_
_atom_site_type_symbol
_atom_site_label
_atom_site_fract_x
_atom_site_fract_y
_atom_site_fract_z
Si Si1 0.199454 0.922195 0.990690
Si Si2 0.754623 0.580606 0.190862
Si Si3 0.500000 0.000000 0.168751
Si Si4 0.286393 0.066041 0.655661
Si Si5 0.199454 0.277259 0.095073
Si Si6 0.779648 0.066040 0.096768
Si Si7 0.500000 0.000000 0.583679
Si Si8 0.825983 0.580604 0.561567
O O1 0.262689 0.845516 0.950170
O O2 0.255091 0.908417 0.042937
O O3 0.989070 0.808970 0.985239
O O4 0.257425 0.125282 0.983307
O O5 0.737313 0.582828 0.135593
O O6 0.587424 0.412578 0.209548
O O7 0.748791 0.748792 0.209548
O O8 0.907598 0.567712 0.214983
O O9 0.664171 0.101798 0.133320
O O10 0.432291 0.092405 0.204113
O O11 0.346675 0.091585 0.709493
O O12 0.437629 0.101799 0.619109
O O13 0.989070 0.180100 0.100524
O O14 0.257426 0.132145 0.102456
#
# Coordination Sequence:
#
# PCOD9580833 Si02
#       8
#     6   6   3   6   6   6   3   6
#     4   9  19  44  66  93 131 174 222 282 342 397
#     4  11  25  42  60  94 139 174 213 283 346 400
#     4  12  24  40  66 105 125 178 230 276 334 420
#     4   9  20  39  72  97 123 174 232 277 332 414
#     4   9  19  44  66  93 131 174 222 282 342 397
#     4   9  20  39  72  97 123 174 232 277 332 414
#     4  12  24  40  66 105 125 178 230 276 334 420
#     4  11  25  42  60  94 139 174 213 283 346 400
#
# _framework density 21.448919
#
# number of rings (size 3 to 8) (size 9 to 14) (size 15 to 20)
#    0.000    2.000    2.857    1.714    4.000    2.286 
#    0.000    0.000    0.000    0.000    0.000    0.000 
#    0.000    0.000    0.000    0.000    0.000    0.000 
#
# Total GULP energy -234190.033990 kJ/mol
# GULP energy per Si atom -5575.953190 kJ/mol
# Density = 2.140010 g / cm^3
# Si number density = 21.448919 Si / 1000 Ang^3
#
#
#
# Elastic Constant Matrix: (Units=GPa)
#
#
# Indices 1 2 3 4 5 6 
#
# 1 65.1292 15.9988 51.2173 0.0000 0.0000 0.0000
# 2 15.9988 65.1292 51.2173 0.0000 0.0000 0.0000
# 3 51.2173 51.2173 187.7987 0.0000 0.0000 0.0000
# 4 0.0000 0.0000 0.0000 32.6971 0.0000 0.0000
# 5 0.0000 0.0000 0.0000 0.0000 32.6971 0.0000
# 6 0.0000 0.0000 0.0000 0.0000 0.0000 24.5652
#
#
#
# Elastic Compliance Matrix: (Units=1/GPa)
#
#
# Indices 1 2 3 4 5 6 
#
# 1 0.019577 -0.000777 -0.005127 0.000000 0.000000 0.000000
# 2 -0.000777 0.019577 -0.005127 0.000000 0.000000 0.000000
# 3 -0.005127 -0.005127 0.008121 0.000000 0.000000 0.000000
# 4 0.000000 0.000000 0.000000 0.030584 0.000000 0.000000
# 5 0.000000 0.000000 0.000000 0.000000 0.030584 0.000000
# 6 0.000000 0.000000 0.000000 0.000000 0.000000 0.040708
#
#
# Mechanical properties :
#
#
# Convention : Reuss Voigt Hill
#
# Bulk Modulus (GPa) = 39.66274 61.65819 50.66047
# Shear Modulus (GPa) = 27.83683 31.30011 29.56847
#
# Velocity S-wave (km/s) = 3.60644 3.82420 3.71692
# Velocity P-wave (km/s) = 5.98947 6.95042 6.48776
#
# Compressibility (1/GPa) = 0.02521258
#
# Stress axis : x y z
#
# Youngs Moduli (GPa) = 51.08037 51.08037 123.13025
#
# Poissons Ratio (x) = 0.03969 0.63131
# Poissons Ratio (y) = 0.03969 0.63131
# Poissons Ratio (z) = 0.26190 0.26190
#
# Static dielectric constant tensor:
#      x y z
#    x 1.928540 0.000000 0.000000 
#    y 0.000000 1.928540 0.000000 
#    z 0.000000 0.000000 1.829120 
# 
# From -- ./inp_files/6138.got.cif
#   From: 2010.05.17/outbox.cif.g08.bks.cpg/sg171_4_cif.got.tgz:6138.got - 2010.05.20 11:16:09.
