data_PCOD9580481
_publ_section_title
;
Structure prediction by ZEFSAII (Michael W. Deem and Ramdas Pophale) SiO2 
 PCOD9580481
Probable space group: P 62
;
_chemical_formula_sum "Si O2"
_cell_formula_units_Z 30
_cell_length_a 7.835335
_cell_length_b 7.835335
_cell_length_c 22.770107
_cell_angle_alpha 90.000000
_cell_angle_beta 90.000000
_cell_angle_gamma 120.000000
_cell_volume 1210.628356
_symmetry_space_group_name_H-M "P 62"
_symmetry_group_IT_number 171
_symmetry_cell_setting 'hexagonal'
loop_
_space_group_symop_operation_xyz
x,y,z
x-y,x,1/3+z
-y,x-y,2/3+z
-x,-y,z
-x+y,-x,1/3+z
y,-x+y,2/3+z
loop_
_atom_site_type_symbol
_atom_site_label
_atom_site_fract_x
_atom_site_fract_y
_atom_site_fract_z
Si Si1 0.944920 0.220010 0.595500
Si Si2 0.308829 0.793653 0.125506
Si Si3 0.737083 0.445528 0.653303
Si Si4 0.261557 0.355444 0.007864
Si Si5 0.186574 0.854668 0.470328
O O1 0.822854 0.329099 0.615860
O O2 0.952695 0.207418 0.526226
O O3 0.156145 0.344092 0.623955
O O4 0.811624 0.014949 0.627151
O O5 0.271196 0.573656 0.141526
O O6 0.091012 0.758250 0.140228
O O7 0.500000 0.000000 0.147266
O O8 0.329866 0.800233 0.054714
O O9 0.505006 0.315397 0.655917
O O10 0.500000 0.500000 0.010997
O O11 0.192769 0.278096 0.073498
#
# Coordination Sequence:
#
# PCOD9580481 Si02
#       5
#     6   6   6   6   6
#     4  10  19  38  67 102 136 190 245 303 361 468
#     4  10  20  42  66  98 140 188 239 315 366 454
#     4   9  19  37  66  92 134 188 230 290 384 418
#     4   9  20  37  64 100 138 188 237 305 373 448
#     4  10  23  37  70 107 133 189 257 290 386 457
#
# _framework density 24.780522000000001
#
# number of rings (size 3 to 8) (size 9 to 14) (size 15 to 20)
#    0.000    2.400    2.000    0.000   11.200    0.000 
#    0.000    3.000    0.000    2.400    0.000    0.000 
#    0.000    0.000    0.000    0.000    0.000    0.000 
#
# Total GULP energy -167712.315922 kJ/mol
# GULP energy per Si atom -5590.410531 kJ/mol
# Density = 2.472412 g / cm^3
# Si number density = 24.780522 Si / 1000 Ang^3
#
#
#
# Elastic Constant Matrix: (Units=GPa)
#
#
# Indices 1 2 3 4 5 6 
#
# 1 123.6706 44.8744 41.3689 0.0000 0.0000 0.0000
# 2 44.8744 123.6706 41.3689 0.0000 0.0000 0.0000
# 3 41.3689 41.3689 102.9773 0.0000 0.0000 0.0000
# 4 0.0000 0.0000 0.0000 29.7610 0.0000 0.0000
# 5 0.0000 0.0000 0.0000 0.0000 29.7610 0.0000
# 6 0.0000 0.0000 0.0000 0.0000 0.0000 39.3981
#
#
#
# Elastic Compliance Matrix: (Units=1/GPa)
#
#
# Indices 1 2 3 4 5 6 
#
# 1 0.010041 -0.002650 -0.002969 0.000000 0.000000 0.000000
# 2 -0.002650 0.010041 -0.002969 0.000000 0.000000 0.000000
# 3 -0.002969 -0.002969 0.012096 0.000000 0.000000 0.000000
# 4 0.000000 0.000000 0.000000 0.033601 0.000000 0.000000
# 5 0.000000 0.000000 0.000000 0.000000 0.033601 0.000000
# 6 0.000000 0.000000 0.000000 0.000000 0.000000 0.025382
#
#
# Mechanical properties :
#
#
# Convention : Reuss Voigt Hill
#
# Bulk Modulus (GPa) = 66.65999 67.28255 66.97127
# Shear Modulus (GPa) = 34.02777 34.63112 34.32945
#
# Velocity S-wave (km/s) = 3.70965 3.74239 3.72605
# Velocity P-wave (km/s) = 6.73106 6.77379 6.75246
#
# Compressibility (1/GPa) = 0.01500150
#
# Stress axis : x y z
#
# Youngs Moduli (GPa) = 99.59383 99.59383 82.66951
#
# Poissons Ratio (x) = 0.26394 0.24545
# Poissons Ratio (y) = 0.26394 0.24545
# Poissons Ratio (z) = 0.29570 0.29570
#
# Static dielectric constant tensor:
#      x y z
#    x 1.974910 0.000000 0.000000 
#    y 0.000000 1.974910 0.000000 
#    z 0.000000 0.000000 1.857590 
# 
# From -- ./inp_files/5382.got.cif
#   From: 2010.05.17/outbox.cif.g08.bks.cpg/sg171_3_cif.got.tgz:5382.got - 2010.05.20 11:16:09.
