data_PCOD9580584
_publ_section_title
;
Structure prediction by ZEFSAII (Michael W. Deem and Ramdas Pophale) SiO2 
 PCOD9580584
Probable space group: P 62
;
_chemical_formula_sum "Si O2"
_cell_formula_units_Z 36
_cell_length_a 18.663142
_cell_length_b 18.663142
_cell_length_c 4.865854
_cell_angle_alpha 90.000000
_cell_angle_beta 90.000000
_cell_angle_gamma 120.000000
_cell_volume 1467.774122
_symmetry_space_group_name_H-M "P 62"
_symmetry_group_IT_number 171
_symmetry_cell_setting 'hexagonal'
loop_
_space_group_symop_operation_xyz
x,y,z
x-y,x,1/3+z
-y,x-y,2/3+z
-x,-y,z
-x+y,-x,1/3+z
y,-x+y,2/3+z
loop_
_atom_site_type_symbol
_atom_site_label
_atom_site_fract_x
_atom_site_fract_y
_atom_site_fract_z
Si Si1 0.576376 0.320441 0.562200
Si Si2 0.840795 0.467212 0.396716
Si Si3 0.102957 0.654278 0.542715
Si Si4 0.080131 0.799763 0.632996
Si Si5 0.968013 0.741230 0.122101
Si Si6 0.987999 0.594656 0.039004
O O1 0.606617 0.272440 0.355541
O O2 0.514268 0.335083 0.365772
O O3 0.531686 0.306333 0.855634
O O4 0.835053 0.380018 0.482359
O O5 0.925060 0.516565 0.222584
O O6 0.124521 0.744057 0.655882
O O7 0.064832 0.646985 0.242432
O O8 0.030933 0.592018 0.755827
O O9 0.140057 0.886466 0.492730
O O10 0.003733 0.750412 0.427336
O O11 0.040579 0.804325 0.920439
O O12 0.947479 0.652359 0.003533
#
# Coordination Sequence:
#
# PCOD9580584 Si02
#       6
#     6   6   6   6   6   6
#     4  12  24  44  57  80 122 162 224 288 332 398
#     4  12  23  38  68  88 118 182 220 278 362 408
#     4  10  22  40  60  94 129 160 213 274 332 414
#     4  10  21  39  65  95 132 168 211 265 330 405
#     4  10  21  39  65  95 132 168 211 265 330 405
#     4  10  22  40  60  94 129 160 213 274 332 414
#
# _framework density 24.526935999999999
#
# number of rings (size 3 to 8) (size 9 to 14) (size 15 to 20)
#    0.000    1.333    1.667    3.500    0.000    4.000 
#    0.000    0.000    0.000    5.000    0.000    0.000 
#    0.000    0.000    0.000    0.000    0.000    0.000 
#
# Total GULP energy -200430.555402 kJ/mol
# GULP energy per Si atom -5567.515428 kJ/mol
# Density = 2.447111 g / cm^3
# Si number density = 24.526936 Si / 1000 Ang^3
#
#
#
# Elastic Constant Matrix: (Units=GPa)
#
#
# Indices 1 2 3 4 5 6 
#
# 1 63.8089 20.8365 29.5933 0.0000 0.0000 0.0000
# 2 20.8365 63.8089 29.5933 0.0000 0.0000 0.0000
# 3 29.5933 29.5933 198.3489 0.0000 0.0000 0.0000
# 4 0.0000 0.0000 0.0000 29.3972 0.0000 0.0000
# 5 0.0000 0.0000 0.0000 0.0000 29.3972 0.0000
# 6 0.0000 0.0000 0.0000 0.0000 0.0000 21.4862
#
#
#
# Elastic Compliance Matrix: (Units=1/GPa)
#
#
# Indices 1 2 3 4 5 6 
#
# 1 0.018230 -0.005040 -0.001968 0.000000 0.000000 0.000000
# 2 -0.005040 0.018230 -0.001968 0.000000 0.000000 0.000000
# 3 -0.001968 -0.001968 0.005629 0.000000 0.000000 0.000000
# 4 0.000000 0.000000 0.000000 0.034017 0.000000 0.000000
# 5 0.000000 0.000000 0.000000 0.000000 0.034017 0.000000
# 6 0.000000 0.000000 0.000000 0.000000 0.000000 0.046542
#
#
# Mechanical properties :
#
#
# Convention : Reuss Voigt Hill
#
# Bulk Modulus (GPa) = 41.42988 54.00146 47.71567
# Shear Modulus (GPa) = 27.37283 32.45237 29.91260
#
# Velocity S-wave (km/s) = 3.34433 3.64143 3.49604
# Velocity P-wave (km/s) = 5.64278 6.30437 5.98273
#
# Compressibility (1/GPa) = 0.02413717
#
# Stress axis : x y z
#
# Youngs Moduli (GPa) = 54.85347 54.85347 177.65629
#
# Poissons Ratio (x) = 0.27648 0.34962
# Poissons Ratio (y) = 0.27648 0.34962
# Poissons Ratio (z) = 0.10795 0.10795
#
# Static dielectric constant tensor:
#      x y z
#    x 2.114080 0.000000 0.000000 
#    y 0.000000 2.114080 0.000000 
#    z 0.000000 0.000000 1.910580 
# 
# From -- ./inp_files/406.got.cif
#   From: 2010.05.17/outbox.cif.g08.bks.cpg/sg171_1_cif.got.tgz:406.got - 2010.05.20 11:16:09.
