data_PCOD9580305
_publ_section_title
;
Structure prediction by ZEFSAII (Michael W. Deem and Ramdas Pophale) SiO2 
 PCOD9580305
Probable space group: P 65
;
_chemical_formula_sum "Si O2"
_cell_formula_units_Z 36
_cell_length_a 11.885384
_cell_length_b 11.885384
_cell_length_c 13.795650
_cell_angle_alpha 90.000000
_cell_angle_beta 90.000000
_cell_angle_gamma 120.000000
_cell_volume 1687.715484
_symmetry_space_group_name_H-M "P 65"
_symmetry_group_IT_number 170
_symmetry_cell_setting 'hexagonal'
loop_
_space_group_symop_operation_xyz
x,y,z
x-y,x,5/6+z
-y,x-y,2/3+z
-x,-y,1/2+z
-x+y,-x,1/3+z
y,-x+y,1/6+z
loop_
_atom_site_type_symbol
_atom_site_label
_atom_site_fract_x
_atom_site_fract_y
_atom_site_fract_z
Si Si1 0.124925 0.344880 0.385460
Si Si2 0.177427 0.100310 0.809509
Si Si3 0.611353 0.514184 0.991549
Si Si4 0.854532 0.581902 0.422540
Si Si5 0.808833 0.996861 0.899238
Si Si6 0.992633 0.636139 0.228707
O O1 0.240898 0.426321 0.459735
O O2 0.182089 0.302740 0.295988
O O3 0.013410 0.208564 0.430405
O O4 0.044193 0.413161 0.354252
O O5 0.079563 0.125012 0.748068
O O6 0.306382 0.239329 0.819927
O O7 0.518096 0.445273 0.898822
O O8 0.555707 0.405854 0.076865
O O9 0.913074 0.670552 0.517036
O O10 0.953695 0.661487 0.335537
O O11 0.718371 0.570629 0.392859
O O12 0.837017 0.920406 0.812499
#
# Coordination Sequence:
#
# PCOD9580305 Si02
#       6
#     6   6   6   6   6   6
#     4  12  24  46  66 104 154 185 249 316 373 464
#     4  12  23  41  70 107 142 184 235 308 376 438
#     4  10  24  48  65 102 148 192 250 308 381 452
#     4  10  22  44  70  99 145 190 251 305 376 457
#     4  12  23  41  71 111 149 197 248 321 392 460
#     4  10  22  44  70 101 140 188 249 304 372 455
#
# _framework density 21.330608999999999
#
# number of rings (size 3 to 8) (size 9 to 14) (size 15 to 20)
#    1.000    0.000    6.667    0.000    0.000    5.333 
#    9.000    0.000    0.000    0.000    0.000    0.000 
#    0.000    0.000    0.000    0.000    0.000    0.000 
#
# Total GULP energy -200677.145292 kJ/mol
# GULP energy per Si atom -5574.365147 kJ/mol
# Density = 2.128206 g / cm^3
# Si number density = 21.330609 Si / 1000 Ang^3
#
#
#
# Elastic Constant Matrix: (Units=GPa)
#
#
# Indices 1 2 3 4 5 6 
#
# 1 85.5365 29.2450 25.4318 0.0000 0.0000 0.0000
# 2 29.2450 85.5365 25.4318 0.0000 0.0000 0.0000
# 3 25.4318 25.4318 70.7860 0.0000 0.0000 0.0000
# 4 0.0000 0.0000 0.0000 32.7604 0.0000 0.0000
# 5 0.0000 0.0000 0.0000 0.0000 32.7604 0.0000
# 6 0.0000 0.0000 0.0000 0.0000 0.0000 28.1457
#
#
#
# Elastic Compliance Matrix: (Units=1/GPa)
#
#
# Indices 1 2 3 4 5 6 
#
# 1 0.014063 -0.003701 -0.003723 0.000000 0.000000 0.000000
# 2 -0.003701 0.014063 -0.003723 0.000000 0.000000 0.000000
# 3 -0.003723 -0.003723 0.016802 0.000000 0.000000 0.000000
# 4 0.000000 0.000000 0.000000 0.030525 0.000000 0.000000
# 5 0.000000 0.000000 0.000000 0.000000 0.030525 0.000000
# 6 0.000000 0.000000 0.000000 0.000000 0.000000 0.035529
#
#
# Mechanical properties :
#
#
# Convention : Reuss Voigt Hill
#
# Bulk Modulus (GPa) = 44.17987 44.67514 44.42750
# Shear Modulus (GPa) = 29.18068 29.51667 29.34868
#
# Velocity S-wave (km/s) = 3.70269 3.72394 3.71333
# Velocity P-wave (km/s) = 6.24794 6.28331 6.26565
#
# Compressibility (1/GPa) = 0.02263474
#
# Stress axis : x y z
#
# Youngs Moduli (GPa) = 71.10714 71.10714 59.51628
#
# Poissons Ratio (x) = 0.26320 0.22157
# Poissons Ratio (y) = 0.26320 0.22157
# Poissons Ratio (z) = 0.26472 0.26472
#
# Static dielectric constant tensor:
#      x y z
#    x 1.790830 0.000000 0.000000 
#    y 0.000000 1.790830 0.000000 
#    z 0.000000 0.000000 1.828730 
# 
# From -- ./inp_files/1216.got.cif
#   From: 2010.05.17/outbox.cif.g08.bks.cpg/sg170_cif.got.tgz:1216.got - 2010.05.20 11:14:30.
