data_PCOD9580755
_publ_section_title
;
Structure prediction by ZEFSAII (Michael W. Deem and Ramdas Pophale) SiO2 
 PCOD9580755
Probable space group: P 62
;
_chemical_formula_sum "Si O2"
_cell_formula_units_Z 39
_cell_length_a 9.872549
_cell_length_b 9.872549
_cell_length_c 19.963768
_cell_angle_alpha 90.000000
_cell_angle_beta 90.000000
_cell_angle_gamma 120.000000
_cell_volume 1685.123526
_symmetry_space_group_name_H-M "P 62"
_symmetry_group_IT_number 171
_symmetry_cell_setting 'hexagonal'
loop_
_space_group_symop_operation_xyz
x,y,z
x-y,x,1/3+z
-y,x-y,2/3+z
-x,-y,z
-x+y,-x,1/3+z
y,-x+y,2/3+z
loop_
_atom_site_type_symbol
_atom_site_label
_atom_site_fract_x
_atom_site_fract_y
_atom_site_fract_z
Si Si1 0.849524 0.847876 0.553920
Si Si2 0.905650 0.168758 0.021710
Si Si3 0.671568 0.163106 0.531036
Si Si4 0.500000 0.500000 0.420961
Si Si5 0.747869 0.953772 0.773206
Si Si6 0.393805 0.183004 0.011119
Si Si7 0.791309 0.220780 0.149523
O O1 0.771875 0.723751 0.613104
O O2 0.723273 0.894987 0.528319
O O3 0.932320 0.806299 0.494577
O O4 0.000000 0.000000 0.584892
O O5 0.863258 0.265447 0.074903
O O6 0.054524 0.176613 0.058340
O O7 0.759126 0.992840 0.012595
O O8 0.809478 0.204343 0.478127
O O9 0.741409 0.182232 0.604823
O O10 0.500000 0.000000 0.521806
O O11 0.403377 0.728263 0.515528
O O12 0.377131 0.520725 0.375670
O O13 0.594314 0.645030 0.468906
O O14 0.713352 0.064754 0.725986
#
# Coordination Sequence:
#
# PCOD9580755 Si02
#       7
#     6   6   6   3   6   6   6
#     4  12  20  37  73 106 137 186 247 316 373 446
#     4  11  22  38  72 106 135 184 246 310 373 443
#     4  12  26  46  72 111 153 196 244 321 398 468
#     4  10  24  50  70  96 148 200 248 322 372 462
#     4  12  22  42  74 110 144 191 250 321 378 451
#     4  11  24  45  73 103 145 194 259 308 383 472
#     4  11  25  47  66 102 152 184 246 317 376 453
#
# _framework density 23.143702000000001
#
# number of rings (size 3 to 8) (size 9 to 14) (size 15 to 20)
#    0.000    0.615    7.692    1.385    2.154    1.231 
#    8.308    0.000    0.000    0.000    0.000    0.000 
#    0.000    0.000    0.000    0.000    0.000    0.000 
#
# Total GULP energy -217499.656391 kJ/mol
# GULP energy per Si atom -5576.914266 kJ/mol
# Density = 2.309103 g / cm^3
# Si number density = 23.143702 Si / 1000 Ang^3
#
#
#
# Elastic Constant Matrix: (Units=GPa)
#
#
# Indices 1 2 3 4 5 6 
#
# 1 94.9232 28.0459 50.8521 0.0000 0.0000 0.0000
# 2 28.0459 94.9232 50.8521 0.0000 0.0000 0.0000
# 3 50.8521 50.8521 172.9129 0.0000 0.0000 0.0000
# 4 0.0000 0.0000 0.0000 31.1369 0.0000 0.0000
# 5 0.0000 0.0000 0.0000 0.0000 31.1369 0.0000
# 6 0.0000 0.0000 0.0000 0.0000 0.0000 33.4387
#
#
#
# Elastic Compliance Matrix: (Units=1/GPa)
#
#
# Indices 1 2 3 4 5 6 
#
# 1 0.012849 -0.002103 -0.003160 0.000000 0.000000 0.000000
# 2 -0.002103 0.012849 -0.003160 0.000000 0.000000 0.000000
# 3 -0.003160 -0.003160 0.007642 0.000000 0.000000 0.000000
# 4 0.000000 0.000000 0.000000 0.032116 0.000000 0.000000
# 5 0.000000 0.000000 0.000000 0.000000 0.032116 0.000000
# 6 0.000000 0.000000 0.000000 0.000000 0.000000 0.029905
#
#
# Mechanical properties :
#
#
# Convention : Reuss Voigt Hill
#
# Bulk Modulus (GPa) = 60.63259 69.13993 64.88626
# Shear Modulus (GPa) = 33.37247 34.67647 34.02447
#
# Velocity S-wave (km/s) = 3.80144 3.87500 3.83840
# Velocity P-wave (km/s) = 6.74709 7.06823 6.90952
#
# Compressibility (1/GPa) = 0.01649278
#
# Stress axis : x y z
#
# Youngs Moduli (GPa) = 77.82516 77.82516 130.85457
#
# Poissons Ratio (x) = 0.16370 0.41354
# Poissons Ratio (y) = 0.16370 0.41354
# Poissons Ratio (z) = 0.24595 0.24595
#
# Static dielectric constant tensor:
#      x y z
#    x 2.214210 0.000000 0.000000 
#    y 0.000000 2.214210 0.000000 
#    z 0.000000 0.000000 1.845950 
# 
# From -- ./inp_files/3938.got.cif
#   From: 2010.05.17/outbox.cif.g08.bks.cpg/sg171_2_cif.got.tgz:3938.got - 2010.05.20 11:16:09.
