data_PCOD9580292
_publ_section_title
;
Structure prediction by ZEFSAII (Michael W. Deem and Ramdas Pophale) SiO2 
 PCOD9580292
Probable space group: P 65
;
_chemical_formula_sum "Si O2"
_cell_formula_units_Z 36
_cell_length_a 16.791053
_cell_length_b 16.791053
_cell_length_c 6.262755
_cell_angle_alpha 90.000000
_cell_angle_beta 90.000000
_cell_angle_gamma 120.000000
_cell_volume 1529.156443
_symmetry_space_group_name_H-M "P 65"
_symmetry_group_IT_number 170
_symmetry_cell_setting 'hexagonal'
loop_
_space_group_symop_operation_xyz
x,y,z
x-y,x,5/6+z
-y,x-y,2/3+z
-x,-y,1/2+z
-x+y,-x,1/3+z
y,-x+y,1/6+z
loop_
_atom_site_type_symbol
_atom_site_label
_atom_site_fract_x
_atom_site_fract_y
_atom_site_fract_z
Si Si1 0.503768 0.891922 0.144630
Si Si2 0.549912 0.627404 0.219101
Si Si3 0.045391 0.721433 0.567291
Si Si4 0.313466 0.732792 0.722546
Si Si5 0.706393 0.798070 0.075865
Si Si6 0.181727 0.020993 0.077772
O O1 0.570088 0.924446 0.933117
O O2 0.471614 0.785018 0.182803
O O3 0.563773 0.972017 0.312955
O O4 0.415211 0.899936 0.087851
O O5 0.485308 0.642747 0.048287
O O6 0.633830 0.729107 0.247437
O O7 0.049196 0.768216 0.343036
O O8 0.119945 0.807896 0.703879
O O9 0.950693 0.690030 0.693888
O O10 0.287140 0.673805 0.507957
O O11 0.804410 0.828787 0.179505
O O12 0.106427 0.940955 0.226951
#
# Coordination Sequence:
#
# PCOD9580292 Si02
#       6
#     6   6   6   6   6   6
#     4  10  23  41  64  95 127 165 209 263 321 379
#     4  10  23  41  64  95 127 165 209 263 321 379
#     4  11  22  42  64  90 131 165 210 265 316 382
#     4  10  22  42  64  94 128 166 212 260 322 382
#     4  11  22  42  64  90 131 165 210 265 316 382
#     4  12  26  40  66  96 124 176 216 260 328 378
#
# _framework density 23.542393000000001
#
# number of rings (size 3 to 8) (size 9 to 14) (size 15 to 20)
#    0.000    1.333    5.000    0.000    4.667    1.333 
#    0.000    6.667    0.000    0.000    0.000    0.000 
#    0.000    0.000    0.000    0.000    0.000    0.000 
#
# Total GULP energy -200969.859327 kJ/mol
# GULP energy per Si atom -5582.496092 kJ/mol
# Density = 2.348881 g / cm^3
# Si number density = 23.542393 Si / 1000 Ang^3
#
#
#
# Elastic Constant Matrix: (Units=GPa)
#
#
# Indices 1 2 3 4 5 6 
#
# 1 71.8177 2.1131 4.2706 0.0000 0.0000 0.0000
# 2 2.1131 71.8177 4.2706 0.0000 0.0000 0.0000
# 3 4.2706 4.2706 17.1098 0.0000 0.0000 0.0000
# 4 0.0000 0.0000 0.0000 20.8592 0.0000 0.0000
# 5 0.0000 0.0000 0.0000 0.0000 20.8592 0.0000
# 6 0.0000 0.0000 0.0000 0.0000 0.0000 34.8523
#
#
#
# Elastic Compliance Matrix: (Units=1/GPa)
#
#
# Indices 1 2 3 4 5 6 
#
# 1 0.014137 -0.000209 -0.003476 0.000000 0.000000 0.000000
# 2 -0.000209 0.014137 -0.003476 0.000000 0.000000 0.000000
# 3 -0.003476 -0.003476 0.060182 0.000000 0.000000 0.000000
# 4 0.000000 0.000000 0.000000 0.047941 0.000000 0.000000
# 5 0.000000 0.000000 0.000000 0.000000 0.047941 0.000000
# 6 0.000000 0.000000 0.000000 0.000000 0.000000 0.028693
#
#
# Mechanical properties :
#
#
# Convention : Reuss Voigt Hill
#
# Bulk Modulus (GPa) = 13.48954 20.22821 16.85888
# Shear Modulus (GPa) = 19.83623 25.32017 22.57820
#
# Velocity S-wave (km/s) = 2.90586 3.28306 3.10020
# Velocity P-wave (km/s) = 4.12323 4.79398 4.47120
#
# Compressibility (1/GPa) = 0.07413153
#
# Stress axis : x y z
#
# Youngs Moduli (GPa) = 70.73621 70.73621 16.61638
#
# Poissons Ratio (x) = 0.01480 0.05777
# Poissons Ratio (y) = 0.01480 0.05777
# Poissons Ratio (z) = 0.24591 0.24591
#
# Static dielectric constant tensor:
#      x y z
#    x 1.884690 0.000000 0.000000 
#    y 0.000000 1.884690 0.000000 
#    z 0.000000 0.000000 1.935220 
# 
# From -- ./inp_files/589.got.cif
#   From: 2010.05.17/outbox.cif.g08.bks.cpg/sg170_cif.got.tgz:589.got - 2010.05.20 11:14:30.
