data_PCOD9580713
_publ_section_title
;
Structure prediction by ZEFSAII (Michael W. Deem and Ramdas Pophale) SiO2 
 PCOD9580713
Probable space group: P 62
;
_chemical_formula_sum "Si O2"
_cell_formula_units_Z 33
_cell_length_a 12.509136
_cell_length_b 12.509136
_cell_length_c 9.792458
_cell_angle_alpha 90.000000
_cell_angle_beta 90.000000
_cell_angle_gamma 120.000000
_cell_volume 1327.018501
_symmetry_space_group_name_H-M "P 62"
_symmetry_group_IT_number 171
_symmetry_cell_setting 'hexagonal'
loop_
_space_group_symop_operation_xyz
x,y,z
x-y,x,1/3+z
-y,x-y,2/3+z
-x,-y,z
-x+y,-x,1/3+z
y,-x+y,2/3+z
loop_
_atom_site_type_symbol
_atom_site_label
_atom_site_fract_x
_atom_site_fract_y
_atom_site_fract_z
Si Si1 0.565012 0.311259 0.470850
Si Si2 0.500000 0.500000 0.048526
Si Si3 0.897057 0.695164 0.907336
Si Si4 0.342939 0.172406 0.289427
Si Si5 0.064057 0.304929 0.318749
Si Si6 0.308025 0.512020 0.245552
O O1 0.454370 0.272693 0.579550
O O2 0.484518 0.232303 0.339223
O O3 0.659339 0.272995 0.530579
O O4 0.638780 0.446687 0.400002
O O5 0.595734 0.615397 0.963389
O O6 0.417811 0.530331 0.148906
O O7 0.928352 0.714933 0.745105
O O8 0.026814 0.748324 0.977477
O O9 0.823450 0.765734 0.949590
O O10 0.316852 0.211075 0.143800
O O11 0.194164 0.372464 0.237965
#
# Coordination Sequence:
#
# PCOD9580713 Si02
#       6
#     6   3   6   6   6   6
#     4  10  23  47  68 111 146 188 250 306 382 466
#     4  12  24  40  76 104 146 198 244 312 388 466
#     4  10  26  47  74 108 142 202 248 313 378 459
#     4  10  25  49  74 106 148 194 254 311 382 451
#     4  12  26  46  74 105 153 195 255 321 381 466
#     4  12  24  44  72 110 146 198 247 310 397 449
#
# _framework density 24.867778000000001
#
# number of rings (size 3 to 8) (size 9 to 14) (size 15 to 20)
#    1.091    0.000    3.636    1.091    7.636    0.000 
#    3.273    2.727    0.000    0.000    0.000    0.000 
#    0.000    0.000    0.000    0.000    0.000    0.000 
#
# Total GULP energy -184353.513173 kJ/mol
# GULP energy per Si atom -5586.470096 kJ/mol
# Density = 2.481118 g / cm^3
# Si number density = 24.867778 Si / 1000 Ang^3
#
#
#
# Elastic Constant Matrix: (Units=GPa)
#
#
# Indices 1 2 3 4 5 6 
#
# 1 96.9350 44.3202 -0.5814 0.0000 0.0000 0.0000
# 2 44.3202 96.9350 -0.5814 0.0000 0.0000 0.0000
# 3 -0.5814 -0.5814 63.2953 0.0000 0.0000 0.0000
# 4 0.0000 0.0000 0.0000 34.9728 0.0000 0.0000
# 5 0.0000 0.0000 0.0000 0.0000 34.9728 0.0000
# 6 0.0000 0.0000 0.0000 0.0000 0.0000 26.3074
#
#
#
# Elastic Compliance Matrix: (Units=1/GPa)
#
#
# Indices 1 2 3 4 5 6 
#
# 1 0.013043 -0.005963 0.000065 0.000000 0.000000 0.000000
# 2 -0.005963 0.013043 0.000065 0.000000 0.000000 0.000000
# 3 0.000065 0.000065 0.015800 0.000000 0.000000 0.000000
# 4 0.000000 0.000000 0.000000 0.028594 0.000000 0.000000
# 5 0.000000 0.000000 0.000000 0.000000 0.028594 0.000000
# 6 0.000000 0.000000 0.000000 0.000000 0.000000 0.038012
#
#
# Mechanical properties :
#
#
# Convention : Reuss Voigt Hill
#
# Bulk Modulus (GPa) = 33.09057 38.16450 35.62753
# Shear Modulus (GPa) = 31.48121 33.51780 32.49950
#
# Velocity S-wave (km/s) = 3.56187 3.67528 3.61902
# Velocity P-wave (km/s) = 5.50013 5.77845 5.64101
#
# Compressibility (1/GPa) = 0.03022009
#
# Stress axis : x y z
#
# Youngs Moduli (GPa) = 76.66954 76.66954 63.29055
#
# Poissons Ratio (x) = 0.45719 -0.00412
# Poissons Ratio (y) = 0.45719 -0.00412
# Poissons Ratio (z) = -0.00499 -0.00499
#
# Static dielectric constant tensor:
#      x y z
#    x 1.986120 0.000000 0.000000 
#    y 0.000000 1.986120 0.000000 
#    z 0.000000 0.000000 2.066650 
# 
# From -- ./inp_files/1537.got.cif
#   From: 2010.05.17/outbox.cif.g08.bks.cpg/sg171_1_cif.got.tgz:1537.got - 2010.05.20 11:16:09.
