data_PCOD9580746
_publ_section_title
;
Structure prediction by ZEFSAII (Michael W. Deem and Ramdas Pophale) SiO2 
 PCOD9580746
Probable space group: P 62
;
_chemical_formula_sum "Si O2"
_cell_formula_units_Z 27
_cell_length_a 9.612009
_cell_length_b 9.612009
_cell_length_c 13.767016
_cell_angle_alpha 90.000000
_cell_angle_beta 90.000000
_cell_angle_gamma 120.000000
_cell_volume 1101.536231
_symmetry_space_group_name_H-M "P 62"
_symmetry_group_IT_number 171
_symmetry_cell_setting 'hexagonal'
loop_
_space_group_symop_operation_xyz
x,y,z
x-y,x,1/3+z
-y,x-y,2/3+z
-x,-y,z
-x+y,-x,1/3+z
y,-x+y,2/3+z
loop_
_atom_site_type_symbol
_atom_site_label
_atom_site_fract_x
_atom_site_fract_y
_atom_site_fract_z
Si Si1 0.500000 0.500000 0.051160
Si Si2 0.811394 0.906553 0.203088
Si Si3 0.629714 0.838186 0.998915
Si Si4 0.881163 0.554532 0.915205
Si Si5 0.690493 0.339495 0.086990
O O1 0.603159 0.657416 0.984070
O O2 0.602393 0.441712 0.114648
O O3 0.721838 0.884230 0.101802
O O4 0.767369 0.741176 0.256794
O O5 0.766501 0.022249 0.263320
O O6 0.000000 0.000000 0.186107
O O7 0.448880 0.800045 0.019913
O O8 0.732924 0.477225 0.839809
O O9 0.000000 0.500000 0.870247
O O10 0.825804 0.459712 0.015403
#
# Coordination Sequence:
#
# PCOD9580746 Si02
#       5
#     3   6   6   6   6
#     4   8  20  46  70 112 142 198 252 308 380 452
#     4  12  26  47  75 112 156 198 256 323 388 454
#     4  10  24  46  76 106 154 200 254 313 388 457
#     4  12  26  49  74 113 152 204 259 320 393 458
#     4  10  25  46  74 109 151 201 259 309 384 469
#
# _framework density 24.511220999999999
#
# number of rings (size 3 to 8) (size 9 to 14) (size 15 to 20)
#    1.333    0.000    2.222    2.000    6.222    0.000 
#    4.000    0.000    0.000    0.000    0.000    0.000 
#    0.000    0.000    0.000    0.000    0.000    0.000 
#
# Total GULP energy -150793.695347 kJ/mol
# GULP energy per Si atom -5584.951680 kJ/mol
# Density = 2.445543 g / cm^3
# Si number density = 24.511221 Si / 1000 Ang^3
#
#
#
# Elastic Constant Matrix: (Units=GPa)
#
#
# Indices 1 2 3 4 5 6 
#
# 1 111.8924 29.3267 17.2911 0.0000 0.0000 0.0000
# 2 29.3267 111.8924 17.2911 0.0000 0.0000 0.0000
# 3 17.2911 17.2911 62.8396 0.0000 0.0000 0.0000
# 4 0.0000 0.0000 0.0000 8.1812 0.0000 0.0000
# 5 0.0000 0.0000 0.0000 0.0000 8.1812 0.0000
# 6 0.0000 0.0000 0.0000 0.0000 0.0000 41.2829
#
#
#
# Elastic Compliance Matrix: (Units=1/GPa)
#
#
# Indices 1 2 3 4 5 6 
#
# 1 0.009852 -0.002259 -0.002089 0.000000 0.000000 0.000000
# 2 -0.002259 0.009852 -0.002089 0.000000 0.000000 0.000000
# 3 -0.002089 -0.002089 0.017063 0.000000 0.000000 0.000000
# 4 0.000000 0.000000 0.000000 0.122231 0.000000 0.000000
# 5 0.000000 0.000000 0.000000 0.000000 0.122231 0.000000
# 6 0.000000 0.000000 0.000000 0.000000 0.000000 0.024223
#
#
# Mechanical properties :
#
#
# Convention : Reuss Voigt Hill
#
# Bulk Modulus (GPa) = 41.85521 46.04917 43.95219
# Shear Modulus (GPa) = 15.32363 26.37676 20.85019
#
# Velocity S-wave (km/s) = 2.50305 3.28397 2.91974
# Velocity P-wave (km/s) = 5.04645 5.76255 5.41635
#
# Compressibility (1/GPa) = 0.02389189
#
# Stress axis : x y z
#
# Youngs Moduli (GPa) = 101.50027 101.50027 58.60531
#
# Poissons Ratio (x) = 0.22933 0.12244
# Poissons Ratio (y) = 0.22933 0.12244
# Poissons Ratio (z) = 0.21206 0.21206
#
# Static dielectric constant tensor:
#      x y z
#    x 2.031610 0.000000 0.000000 
#    y 0.000000 2.031610 0.000000 
#    z 0.000000 0.000000 1.954090 
# 
# From -- ./inp_files/2376.got.cif
#   From: 2010.05.17/outbox.cif.g08.bks.cpg/sg171_2_cif.got.tgz:2376.got - 2010.05.20 11:16:09.
