data_PCOD9580770
_publ_section_title
;
Structure prediction by ZEFSAII (Michael W. Deem and Ramdas Pophale) SiO2 
 PCOD9580770
Probable space group: P 62
;
_chemical_formula_sum "Si O2"
_cell_formula_units_Z 36
_cell_length_a 9.320728
_cell_length_b 9.320728
_cell_length_c 18.970176
_cell_angle_alpha 90.000000
_cell_angle_beta 90.000000
_cell_angle_gamma 120.000000
_cell_volume 1427.255288
_symmetry_space_group_name_H-M "P 62"
_symmetry_group_IT_number 171
_symmetry_cell_setting 'hexagonal'
loop_
_space_group_symop_operation_xyz
x,y,z
x-y,x,1/3+z
-y,x-y,2/3+z
-x,-y,z
-x+y,-x,1/3+z
y,-x+y,2/3+z
loop_
_atom_site_type_symbol
_atom_site_label
_atom_site_fract_x
_atom_site_fract_y
_atom_site_fract_z
Si Si1 0.828148 0.997919 0.915170
Si Si2 0.448333 0.740368 0.436869
Si Si3 0.548800 0.781169 0.024257
Si Si4 0.405184 0.080988 0.794415
Si Si5 0.673933 0.501208 0.928729
Si Si6 0.671103 0.648395 0.642281
O O1 0.873474 0.186369 0.920764
O O2 0.703193 0.910571 0.979689
O O3 0.734796 0.919563 0.842869
O O4 0.000000 0.000000 0.922134
O O5 0.379792 0.551994 0.412214
O O6 0.270789 0.738198 0.440357
O O7 0.512829 0.778733 0.516010
O O8 0.581889 0.877220 0.382962
O O9 0.399141 0.673189 0.968965
O O10 0.615176 0.674487 0.066787
O O11 0.500000 0.000000 0.837136
O O12 0.500000 0.500000 0.925138
O O13 0.833781 0.636966 0.972224
O O14 0.500000 0.500000 0.616384
#
# Coordination Sequence:
#
# PCOD9580770 Si02
#       6
#     6   6   6   6   6   6
#     4  12  29  51  78 116 166 212 270 343 421 493
#     4  11  25  49  83 117 163 216 281 335 423 489
#     4  11  25  49  79 113 157 219 272 335 416 497
#     4  10  25  48  81 113 155 216 270 333 414 501
#     4  12  25  49  81 114 165 219 269 342 417 492
#     4  12  29  48  77 122 165 206 281 340 405 503
#
# _framework density 25.223237999999998
#
# number of rings (size 3 to 8) (size 9 to 14) (size 15 to 20)
#    0.000    0.667    3.333    3.000    9.333    2.000 
#    0.000    0.000    0.000    0.000    0.000    0.000 
#    0.000    0.000    0.000    0.000    0.000    0.000 
#
# Total GULP energy -201147.399023 kJ/mol
# GULP energy per Si atom -5587.427751 kJ/mol
# Density = 2.516583 g / cm^3
# Si number density = 25.223238 Si / 1000 Ang^3
#
#
#
# Elastic Constant Matrix: (Units=GPa)
#
#
# Indices 1 2 3 4 5 6 
#
# 1 114.9606 38.1112 52.1102 0.0000 0.0000 0.0000
# 2 38.1112 114.9606 52.1102 0.0000 0.0000 0.0000
# 3 52.1102 52.1102 121.3330 0.0000 0.0000 0.0000
# 4 0.0000 0.0000 0.0000 24.3270 0.0000 0.0000
# 5 0.0000 0.0000 0.0000 0.0000 24.3270 0.0000
# 6 0.0000 0.0000 0.0000 0.0000 0.0000 38.4247
#
#
#
# Elastic Compliance Matrix: (Units=1/GPa)
#
#
# Indices 1 2 3 4 5 6 
#
# 1 0.011123 -0.001890 -0.003965 0.000000 0.000000 0.000000
# 2 -0.001890 0.011123 -0.003965 0.000000 0.000000 0.000000
# 3 -0.003965 -0.003965 0.011648 0.000000 0.000000 0.000000
# 4 0.000000 0.000000 0.000000 0.041107 0.000000 0.000000
# 5 0.000000 0.000000 0.000000 0.000000 0.041107 0.000000
# 6 0.000000 0.000000 0.000000 0.000000 0.000000 0.026025
#
#
# Mechanical properties :
#
#
# Convention : Reuss Voigt Hill
#
# Bulk Modulus (GPa) = 70.16513 70.65751 70.41132
# Shear Modulus (GPa) = 30.02594 31.34389 30.68491
#
# Velocity S-wave (km/s) = 3.45397 3.52896 3.49167
# Velocity P-wave (km/s) = 6.61699 6.68419 6.65068
#
# Compressibility (1/GPa) = 0.01425209
#
# Stress axis : x y z
#
# Youngs Moduli (GPa) = 89.90729 89.90729 85.85325
#
# Poissons Ratio (x) = 0.16992 0.34043
# Poissons Ratio (y) = 0.16992 0.34043
# Poissons Ratio (z) = 0.35651 0.35651
#
# Static dielectric constant tensor:
#      x y z
#    x 2.088650 0.000000 0.000000 
#    y 0.000000 2.088650 0.000000 
#    z 0.000000 0.000000 1.990340 
# 
# From -- ./inp_files/3635.got.cif
#   From: 2010.05.17/outbox.cif.g08.bks.cpg/sg171_2_cif.got.tgz:3635.got - 2010.05.20 11:16:09.
