data_PCOD9580221
_publ_section_title
;
Structure prediction by ZEFSAII (Michael W. Deem and Ramdas Pophale) SiO2 
 PCOD9580221
Probable space group: P 65
;
_chemical_formula_sum "Si O2"
_cell_formula_units_Z 48
_cell_length_a 15.606850
_cell_length_b 15.606850
_cell_length_c 13.569361
_cell_angle_alpha 90.000000
_cell_angle_beta 90.000000
_cell_angle_gamma 120.000000
_cell_volume 2862.335527
_symmetry_space_group_name_H-M "P 65"
_symmetry_group_IT_number 170
_symmetry_cell_setting 'hexagonal'
loop_
_space_group_symop_operation_xyz
x,y,z
x-y,x,5/6+z
-y,x-y,2/3+z
-x,-y,1/2+z
-x+y,-x,1/3+z
y,-x+y,1/6+z
loop_
_atom_site_type_symbol
_atom_site_label
_atom_site_fract_x
_atom_site_fract_y
_atom_site_fract_z
Si Si1 0.277515 0.545466 0.667950
Si Si2 0.110526 0.610960 0.444454
Si Si3 0.499566 0.389041 0.155364
Si Si4 0.732050 0.454534 0.931867
Si Si5 0.616058 0.763211 0.482985
Si Si6 0.679728 0.917378 0.645338
Si Si7 0.616057 0.852846 0.950165
Si Si8 0.320273 0.237650 0.287813
O O1 0.389989 0.573231 0.688762
O O2 0.262457 0.631228 0.716576
O O3 0.271838 0.543679 0.549909
O O4 0.198792 0.442297 0.717527
O O5 0.183242 0.573232 0.411054
O O6 0.104686 0.681666 0.362149
O O7 0.144697 0.680150 0.541958
O O8 0.000000 0.523112 0.466576
O O9 0.423022 0.318334 0.237670
O O10 0.464545 0.319850 0.057859
O O11 0.756496 0.557703 0.882291
O O12 0.657314 0.866430 0.539628
O O13 0.707069 0.742563 0.474180
O O14 0.718286 0.859142 0.716575
O O15 0.657314 0.790884 0.893523
O O16 0.707068 0.964507 0.958970
#
# Coordination Sequence:
#
# PCOD9580221 Si02
#       8
#     6   6   6   6   6   6   6   6
#     4  12  23  35  52  77 120 158 195 230 282 346
#     4   9  19  34  53  78 109 151 196 233 277 337
#     4   9  19  34  53  78 109 151 196 233 277 337
#     4  12  23  35  52  77 120 158 195 230 282 346
#     4  10  20  36  54  86 110 148 193 239 293 339
#     4   9  18  35  61  83 112 139 192 245 286 345
#     4  10  20  36  54  86 110 148 193 239 293 339
#     4   9  18  35  61  83 112 139 192 245 286 345
#
# _framework density 16.769521999999998
#
# number of rings (size 3 to 8) (size 9 to 14) (size 15 to 20)
#    0.000    2.000    2.500    4.500    0.000    2.000 
#    0.000    0.000    0.000    0.000    0.000   15.750 
#    0.000    0.000    0.000    0.000    0.000    0.000 
#
# Total GULP energy -267640.436237 kJ/mol
# GULP energy per Si atom -5575.842422 kJ/mol
# Density = 1.673135 g / cm^3
# Si number density = 16.769522 Si / 1000 Ang^3
#
#
#
# Elastic Constant Matrix: (Units=GPa)
#
#
# Indices 1 2 3 4 5 6 
#
# 1 89.4154 54.7310 47.1390 0.0000 0.0000 0.0000
# 2 54.7310 89.4154 47.1390 0.0000 0.0000 0.0000
# 3 47.1390 47.1390 111.9836 0.0000 0.0000 0.0000
# 4 0.0000 0.0000 0.0000 15.3240 0.0000 0.0000
# 5 0.0000 0.0000 0.0000 0.0000 15.3240 0.0000
# 6 0.0000 0.0000 0.0000 0.0000 0.0000 17.3422
#
#
#
# Elastic Compliance Matrix: (Units=1/GPa)
#
#
# Indices 1 2 3 4 5 6 
#
# 1 0.019202 -0.009629 -0.004030 0.000000 0.000000 0.000000
# 2 -0.009629 0.019202 -0.004030 0.000000 0.000000 0.000000
# 3 -0.004030 -0.004030 0.012322 0.000000 0.000000 0.000000
# 4 0.000000 0.000000 0.000000 0.065257 0.000000 0.000000
# 5 0.000000 0.000000 0.000000 0.000000 0.065257 0.000000
# 6 0.000000 0.000000 0.000000 0.000000 0.000000 0.057663
#
#
# Mechanical properties :
#
#
# Convention : Reuss Voigt Hill
#
# Bulk Modulus (GPa) = 65.14825 65.42583 65.28704
# Shear Modulus (GPa) = 17.89563 19.05173 18.47368
#
# Velocity S-wave (km/s) = 3.27027 3.37425 3.32267
# Velocity P-wave (km/s) = 7.29336 7.36751 7.33053
#
# Compressibility (1/GPa) = 0.01534961
#
# Stress axis : x y z
#
# Youngs Moduli (GPa) = 52.07733 52.07733 81.15264
#
# Poissons Ratio (x) = 0.50146 0.32702
# Poissons Ratio (y) = 0.50146 0.32702
# Poissons Ratio (z) = 0.20986 0.20986
#
# Static dielectric constant tensor:
#      x y z
#    x 1.570520 0.000000 0.000000 
#    y 0.000000 1.570520 0.000000 
#    z 0.000000 0.000000 1.580370 
# 
# From -- ./inp_files/1272.got.cif
#   From: 2010.05.17/outbox.cif.g08.bks.cpg/sg170_cif.got.tgz:1272.got - 2010.05.20 11:14:30.
