data_PCOD9580753
_publ_section_title
;
Structure prediction by ZEFSAII (Michael W. Deem and Ramdas Pophale) SiO2 
 PCOD9580753
Probable space group: P 62
;
_chemical_formula_sum "Si O2"
_cell_formula_units_Z 24
_cell_length_a 12.035458
_cell_length_b 12.035458
_cell_length_c 6.936496
_cell_angle_alpha 90.000000
_cell_angle_beta 90.000000
_cell_angle_gamma 120.000000
_cell_volume 870.153788
_symmetry_space_group_name_H-M "P 62"
_symmetry_group_IT_number 171
_symmetry_cell_setting 'hexagonal'
loop_
_space_group_symop_operation_xyz
x,y,z
x-y,x,1/3+z
-y,x-y,2/3+z
-x,-y,z
-x+y,-x,1/3+z
y,-x+y,2/3+z
loop_
_atom_site_type_symbol
_atom_site_label
_atom_site_fract_x
_atom_site_fract_y
_atom_site_fract_z
Si Si1 0.451768 0.705390 0.419250
Si Si2 0.885848 0.090093 0.791739
Si Si3 0.411312 0.062124 0.710154
Si Si4 0.368906 0.398141 0.458869
O O1 0.395864 0.736382 0.229685
O O2 0.532167 0.823886 0.559947
O O3 0.233844 0.296843 0.547031
O O4 0.742849 0.025977 0.697119
O O5 0.990080 0.120329 0.624318
O O6 0.670726 0.111325 0.026575
O O7 0.500000 0.000000 0.680316
O O8 0.442726 0.115195 0.931175
O O9 0.500000 0.500000 0.570912
#
# Coordination Sequence:
#
# PCOD9580753 Si02
#       4
#     6   6   6   6
#     4  12  28  50  88 126 170 230 300 376 458 528
#     4  10  24  50  85 122 178 234 301 358 442 535
#     4  10  24  48  81 117 170 219 296 363 441 511
#     4  10  24  48  81 117 170 219 296 363 441 511
#
# _framework density 27.581330999999999
#
# number of rings (size 3 to 8) (size 9 to 14) (size 15 to 20)
#    0.000    1.500    0.000    3.000   17.500    1.000 
#    0.000    6.250    5.500    0.000    0.000    0.000 
#    0.000    0.000    0.000    0.000    0.000    0.000 
#
# Total GULP energy -134122.221508 kJ/mol
# GULP energy per Si atom -5588.425896 kJ/mol
# Density = 2.751855 g / cm^3
# Si number density = 27.581331 Si / 1000 Ang^3
#
#
#
# Elastic Constant Matrix: (Units=GPa)
#
#
# Indices 1 2 3 4 5 6 
#
# 1 175.8951 58.7838 64.3053 0.0000 0.0000 0.0000
# 2 58.7838 175.8951 64.3053 0.0000 0.0000 0.0000
# 3 64.3053 64.3053 182.3356 0.0000 0.0000 0.0000
# 4 0.0000 0.0000 0.0000 49.4789 0.0000 0.0000
# 5 0.0000 0.0000 0.0000 0.0000 49.4789 0.0000
# 6 0.0000 0.0000 0.0000 0.0000 0.0000 58.5557
#
#
#
# Elastic Compliance Matrix: (Units=1/GPa)
#
#
# Indices 1 2 3 4 5 6 
#
# 1 0.006910 -0.001628 -0.001863 0.000000 0.000000 0.000000
# 2 -0.001628 0.006910 -0.001863 0.000000 0.000000 0.000000
# 3 -0.001863 -0.001863 0.006798 0.000000 0.000000 0.000000
# 4 0.000000 0.000000 0.000000 0.020211 0.000000 0.000000
# 5 0.000000 0.000000 0.000000 0.000000 0.020211 0.000000
# 6 0.000000 0.000000 0.000000 0.000000 0.000000 0.017078
#
#
# Mechanical properties :
#
#
# Convention : Reuss Voigt Hill
#
# Bulk Modulus (GPa) = 100.89755 100.99049 100.94402
# Shear Modulus (GPa) = 54.27103 54.61814 54.44458
#
# Velocity S-wave (km/s) = 4.44066 4.45484 4.44775
# Velocity P-wave (km/s) = 7.93435 7.94706 7.94071
#
# Compressibility (1/GPa) = 0.00991104
#
# Stress axis : x y z
#
# Youngs Moduli (GPa) = 144.70825 144.70825 147.09449
#
# Poissons Ratio (x) = 0.23565 0.27401
# Poissons Ratio (y) = 0.23565 0.27401
# Poissons Ratio (z) = 0.26957 0.26957
#
# Static dielectric constant tensor:
#      x y z
#    x 2.370460 0.000000 0.000000 
#    y 0.000000 2.370460 0.000000 
#    z 0.000000 0.000000 2.116240 
# 
# From -- ./inp_files/1000.got.cif
#   From: 2010.05.17/outbox.cif.g08.bks.cpg/sg171_1_cif.got.tgz:1000.got - 2010.05.20 11:16:09.
