data_PCOD9580294
_publ_section_title
;
Structure prediction by ZEFSAII (Michael W. Deem and Ramdas Pophale) SiO2 
 PCOD9580294
Probable space group: P 65
;
_chemical_formula_sum "Si O2"
_cell_formula_units_Z 48
_cell_length_a 19.106898
_cell_length_b 19.106898
_cell_length_c 7.919332
_cell_angle_alpha 90.000000
_cell_angle_beta 90.000000
_cell_angle_gamma 120.000000
_cell_volume 2503.799522
_symmetry_space_group_name_H-M "P 65"
_symmetry_group_IT_number 170
_symmetry_cell_setting 'hexagonal'
loop_
_space_group_symop_operation_xyz
x,y,z
x-y,x,5/6+z
-y,x-y,2/3+z
-x,-y,1/2+z
-x+y,-x,1/3+z
y,-x+y,1/6+z
loop_
_atom_site_type_symbol
_atom_site_label
_atom_site_fract_x
_atom_site_fract_y
_atom_site_fract_z
Si Si1 0.555395 0.626593 0.586240
Si Si2 0.120815 0.440108 0.302104
Si Si3 0.189144 0.707535 0.729055
Si Si4 0.620238 0.224519 0.764186
Si Si5 0.695933 0.493254 0.397029
Si Si6 0.426379 0.517217 0.138046
Si Si7 0.788912 0.646596 0.192853
Si Si8 0.720224 0.041446 0.448793
O O1 0.575533 0.662713 0.777370
O O2 0.477442 0.629353 0.522675
O O3 0.529046 0.533467 0.618251
O O4 0.622450 0.666769 0.439590
O O5 0.212359 0.456892 0.288823
O O6 0.122528 0.516129 0.398712
O O7 0.069339 0.369436 0.436931
O O8 0.250335 0.679998 0.808860
O O9 0.122923 0.624230 0.643649
O O10 0.147611 0.738596 0.865132
O O11 0.559431 0.192026 0.918943
O O12 0.712272 0.285465 0.809915
O O13 0.649984 0.522579 0.515044
O O14 0.770909 0.574418 0.324686
O O15 0.750461 0.700028 0.255823
O O16 0.884558 0.695167 0.155662
#
# Coordination Sequence:
#
# PCOD9580294 Si02
#       8
#     6   6   6   6   6   6   6   6
#     4  12  24  40  59  86 120 162 209 257 312 368
#     4  11  26  40  59  87 119 171 210 262 309 364
#     4  10  25  40  58  84 120 162 214 259 312 356
#     4  11  24  37  55  80 116 161 209 266 302 357
#     4  11  23  36  54  79 116 159 212 251 309 344
#     4  12  25  35  57  82 114 160 209 259 301 363
#     4  10  22  43  62  91 117 159 194 257 310 377
#     4  11  23  43  66  87 128 152 207 253 313 379
#
# _framework density 19.170863000000001
#
# number of rings (size 3 to 8) (size 9 to 14) (size 15 to 20)
#    0.000    1.000    3.750    2.250   12.250    0.000 
#    0.000    0.000    0.000    0.000    0.000    0.000 
#   11.250    0.000    0.000    0.000    0.000    0.000 
#
# Total GULP energy -267384.756030 kJ/mol
# GULP energy per Si atom -5570.515751 kJ/mol
# Density = 1.912723 g / cm^3
# Si number density = 19.170863 Si / 1000 Ang^3
#
#
#
# Elastic Constant Matrix: (Units=GPa)
#
#
# Indices 1 2 3 4 5 6 
#
# 1 90.8874 32.2550 18.8064 0.0000 0.0000 0.0000
# 2 32.2550 90.8874 18.8064 0.0000 0.0000 0.0000
# 3 18.8064 18.8064 65.5184 0.0000 0.0000 0.0000
# 4 0.0000 0.0000 0.0000 36.9378 0.0000 0.0000
# 5 0.0000 0.0000 0.0000 0.0000 36.9378 0.0000
# 6 0.0000 0.0000 0.0000 0.0000 0.0000 29.3162
#
#
#
# Elastic Compliance Matrix: (Units=1/GPa)
#
#
# Indices 1 2 3 4 5 6 
#
# 1 0.012978 -0.004077 -0.002555 0.000000 0.000000 0.000000
# 2 -0.004077 0.012978 -0.002555 0.000000 0.000000 0.000000
# 3 -0.002555 -0.002555 0.016730 0.000000 0.000000 0.000000
# 4 0.000000 0.000000 0.000000 0.027073 0.000000 0.000000
# 5 0.000000 0.000000 0.000000 0.000000 0.027073 0.000000
# 6 0.000000 0.000000 0.000000 0.000000 0.000000 0.034111
#
#
# Mechanical properties :
#
#
# Convention : Reuss Voigt Hill
#
# Bulk Modulus (GPa) = 41.13210 43.00324 42.06767
# Shear Modulus (GPa) = 31.76212 32.46672 32.11442
#
# Velocity S-wave (km/s) = 4.07479 4.11973 4.09732
# Velocity P-wave (km/s) = 6.60610 6.71639 6.66147
#
# Compressibility (1/GPa) = 0.02431191
#
# Stress axis : x y z
#
# Youngs Moduli (GPa) = 77.05205 77.05205 59.77414
#
# Poissons Ratio (x) = 0.31415 0.15272
# Poissons Ratio (y) = 0.31415 0.15272
# Poissons Ratio (z) = 0.19687 0.19687
#
# Static dielectric constant tensor:
#      x y z
#    x 1.650240 0.000000 0.000000 
#    y 0.000000 1.650240 0.000000 
#    z 0.000000 0.000000 1.812780 
# 
# From -- ./inp_files/756.got.cif
#   From: 2010.05.17/outbox.cif.g08.bks.cpg/sg170_cif.got.tgz:756.got - 2010.05.20 11:14:30.
