data_PCOD9580715
_publ_section_title
;
Structure prediction by ZEFSAII (Michael W. Deem and Ramdas Pophale) SiO2 
 PCOD9580715
Probable space group: P 62
;
_chemical_formula_sum "Si O2"
_cell_formula_units_Z 18
_cell_length_a 10.684691
_cell_length_b 10.684691
_cell_length_c 6.883436
_cell_angle_alpha 90.000000
_cell_angle_beta 90.000000
_cell_angle_gamma 120.000000
_cell_volume 680.549696
_symmetry_space_group_name_H-M "P 62"
_symmetry_group_IT_number 171
_symmetry_cell_setting 'hexagonal'
loop_
_space_group_symop_operation_xyz
x,y,z
x-y,x,1/3+z
-y,x-y,2/3+z
-x,-y,z
-x+y,-x,1/3+z
y,-x+y,2/3+z
loop_
_atom_site_type_symbol
_atom_site_label
_atom_site_fract_x
_atom_site_fract_y
_atom_site_fract_z
Si Si1 0.631570 0.146149 0.387710
Si Si2 0.659053 0.525417 0.343117
Si Si3 0.210953 0.179275 0.516854
O O1 0.729412 0.265160 0.539881
O O2 0.500000 0.000000 0.482423
O O3 0.747540 0.122008 0.265537
O O4 0.541300 0.173701 0.225056
O O5 0.500000 0.500000 0.283591
O O6 0.774869 0.693854 0.374975
O O7 0.162612 0.044156 0.375533
#
# Coordination Sequence:
#
# PCOD9580715 Si02
#       3
#     6   6   6
#     4   9  21  48  78 110 155 206 266 337 415 503
#     4   9  21  48  78 110 155 206 266 337 415 503
#     4  10  23  48  75 108 150 198 258 324 402 494
#
# _framework density 26.449204999999999
#
# number of rings (size 3 to 8) (size 9 to 14) (size 15 to 20)
#    0.000    3.333    0.000    0.000    0.000    2.667 
#    0.000  108.333    0.000    0.000    0.000    0.000 
#    0.000    0.000    0.000    0.000    0.000    0.000 
#
# Total GULP energy -100780.029530 kJ/mol
# GULP energy per Si atom -5598.890529 kJ/mol
# Density = 2.638901 g / cm^3
# Si number density = 26.449205 Si / 1000 Ang^3
#
#
#
# Elastic Constant Matrix: (Units=GPa)
#
#
# Indices 1 2 3 4 5 6 
#
# 1 99.0230 50.3797 60.8145 0.0000 0.0000 0.0000
# 2 50.3797 99.0230 60.8145 0.0000 0.0000 0.0000
# 3 60.8145 60.8145 130.9570 0.0000 0.0000 0.0000
# 4 0.0000 0.0000 0.0000 51.3205 0.0000 0.0000
# 5 0.0000 0.0000 0.0000 0.0000 51.3205 0.0000
# 6 0.0000 0.0000 0.0000 0.0000 0.0000 24.3217
#
#
#
# Elastic Compliance Matrix: (Units=1/GPa)
#
#
# Indices 1 2 3 4 5 6 
#
# 1 0.015660 -0.004898 -0.004998 0.000000 0.000000 0.000000
# 2 -0.004898 0.015660 -0.004998 0.000000 0.000000 0.000000
# 3 -0.004998 -0.004998 0.012278 0.000000 0.000000 0.000000
# 4 0.000000 0.000000 0.000000 0.019485 0.000000 0.000000
# 5 0.000000 0.000000 0.000000 0.000000 0.019485 0.000000
# 6 0.000000 0.000000 0.000000 0.000000 0.000000 0.041116
#
#
# Mechanical properties :
#
#
# Convention : Reuss Voigt Hill
#
# Bulk Modulus (GPa) = 72.40638 74.78005 73.59321
# Shear Modulus (GPa) = 31.63072 35.85884 33.74478
#
# Velocity S-wave (km/s) = 3.46194 3.68606 3.57576
# Velocity P-wave (km/s) = 6.58901 6.81546 6.70319
#
# Compressibility (1/GPa) = 0.01381094
#
# Stress axis : x y z
#
# Youngs Moduli (GPa) = 63.85745 63.85745 81.44779
#
# Poissons Ratio (x) = 0.31277 0.40705
# Poissons Ratio (y) = 0.31277 0.40705
# Poissons Ratio (z) = 0.31914 0.31914
#
# Static dielectric constant tensor:
#      x y z
#    x 2.151310 0.000000 0.000000 
#    y 0.000000 2.151310 0.000000 
#    z 0.000000 0.000000 2.062370 
# 
# From -- ./inp_files/475.got.cif
#   From: 2010.05.17/outbox.cif.g08.bks.cpg/sg171_1_cif.got.tgz:475.got - 2010.05.20 11:16:09.
