data_PCOD9580710
_publ_section_title
;
Structure prediction by ZEFSAII (Michael W. Deem and Ramdas Pophale) SiO2 
 PCOD9580710
Probable space group: P 62
;
_chemical_formula_sum "Si O2"
_cell_formula_units_Z 39
_cell_length_a 9.084099
_cell_length_b 9.084099
_cell_length_c 23.219956
_cell_angle_alpha 90.000000
_cell_angle_beta 90.000000
_cell_angle_gamma 120.000000
_cell_volume 1659.417789
_symmetry_space_group_name_H-M "P 62"
_symmetry_group_IT_number 171
_symmetry_cell_setting 'hexagonal'
loop_
_space_group_symop_operation_xyz
x,y,z
x-y,x,1/3+z
-y,x-y,2/3+z
-x,-y,z
-x+y,-x,1/3+z
y,-x+y,2/3+z
loop_
_atom_site_type_symbol
_atom_site_label
_atom_site_fract_x
_atom_site_fract_y
_atom_site_fract_z
Si Si1 0.500000 0.000000 0.945461
Si Si2 0.784945 0.653452 0.182434
Si Si3 0.367844 0.220656 0.086342
Si Si4 0.882061 0.729184 0.806893
Si Si5 0.365591 0.638242 0.639156
Si Si6 0.000000 0.500000 0.877509
Si Si7 0.626440 0.384312 0.765866
Si Si8 0.000000 0.500000 0.322168
O O1 0.397668 0.069741 0.906898
O O2 0.620868 0.163831 0.982730
O O3 0.671688 0.689404 0.138080
O O4 0.787269 0.494661 0.153005
O O5 0.978987 0.812925 0.177243
O O6 0.553202 0.243843 0.098160
O O7 0.394487 0.334539 0.029796
O O8 0.210239 0.030284 0.092229
O O9 0.950636 0.625330 0.844548
O O10 0.720139 0.583354 0.774533
O O11 0.386518 0.537547 0.587654
O O12 0.450508 0.654101 0.701458
O O13 0.451207 0.833725 0.619425
#
# Coordination Sequence:
#
# PCOD9580710 Si02
#       8
#     3   6   6   6   6   3   6   3
#     4  12  25  45  72 104 146 193 236 301 372 446
#     4  12  23  44  71 102 135 188 242 294 356 436
#     4  11  19  43  69  98 137 169 243 303 340 408
#     4  12  26  40  75 101 137 190 246 297 365 438
#     4  11  27  42  70  99 147 188 233 301 378 429
#     4  12  26  47  60 107 157 181 236 314 368 440
#     4  11  22  45  69 103 135 187 246 297 355 432
#     4  10  23  44  74  97 137 198 240 299 360 450
#
# _framework density 23.502217999999999
#
# number of rings (size 3 to 8) (size 9 to 14) (size 15 to 20)
#    0.000    0.615    6.154    2.769    8.615    0.000 
#    0.000    0.000    0.000    0.000    0.000    0.000 
#    0.000    0.000    0.000    0.000    0.000    0.000 
#
# Total GULP energy -217781.564881 kJ/mol
# GULP energy per Si atom -5584.142689 kJ/mol
# Density = 2.344873 g / cm^3
# Si number density = 23.502218 Si / 1000 Ang^3
#
#
#
# Elastic Constant Matrix: (Units=GPa)
#
#
# Indices 1 2 3 4 5 6 
#
# 1 110.5473 33.5821 24.6542 0.0000 0.0000 0.0000
# 2 33.5821 110.5473 24.6542 0.0000 0.0000 0.0000
# 3 24.6542 24.6542 66.4256 0.0000 0.0000 0.0000
# 4 0.0000 0.0000 0.0000 22.0467 0.0000 0.0000
# 5 0.0000 0.0000 0.0000 0.0000 22.0467 0.0000
# 6 0.0000 0.0000 0.0000 0.0000 0.0000 38.4826
#
#
#
# Elastic Compliance Matrix: (Units=1/GPa)
#
#
# Indices 1 2 3 4 5 6 
#
# 1 0.010470 -0.002523 -0.002950 0.000000 0.000000 0.000000
# 2 -0.002523 0.010470 -0.002950 0.000000 0.000000 0.000000
# 3 -0.002950 -0.002950 0.017244 0.000000 0.000000 0.000000
# 4 0.000000 0.000000 0.000000 0.045358 0.000000 0.000000
# 5 0.000000 0.000000 0.000000 0.000000 0.045358 0.000000
# 6 0.000000 0.000000 0.000000 0.000000 0.000000 0.025986
#
#
# Mechanical properties :
#
#
# Convention : Reuss Voigt Hill
#
# Bulk Modulus (GPa) = 46.86052 50.36680 48.61366
# Shear Modulus (GPa) = 27.95728 30.15718 29.05723
#
# Velocity S-wave (km/s) = 3.45274 3.58601 3.52001
# Velocity P-wave (km/s) = 5.98976 6.21475 6.10330
#
# Compressibility (1/GPa) = 0.02133992
#
# Stress axis : x y z
#
# Youngs Moduli (GPa) = 95.51004 95.51004 57.99116
#
# Poissons Ratio (x) = 0.24095 0.17106
# Poissons Ratio (y) = 0.24095 0.17106
# Poissons Ratio (z) = 0.28172 0.28172
#
# Static dielectric constant tensor:
#      x y z
#    x 2.004360 0.000000 0.000000 
#    y 0.000000 2.004360 0.000000 
#    z 0.000000 0.000000 1.873800 
# 
# From -- ./inp_files/6100.got.cif
#   From: 2010.05.17/outbox.cif.g08.bks.cpg/sg171_4_cif.got.tgz:6100.got - 2010.05.20 11:16:09.
