data_PCOD9580542
_publ_section_title
;
Structure prediction by ZEFSAII (Michael W. Deem and Ramdas Pophale) SiO2 
 PCOD9580542
Probable space group: P 62
;
_chemical_formula_sum "Si O2"
_cell_formula_units_Z 33
_cell_length_a 11.684390
_cell_length_b 11.684390
_cell_length_c 11.428643
_cell_angle_alpha 90.000000
_cell_angle_beta 90.000000
_cell_angle_gamma 120.000000
_cell_volume 1351.255228
_symmetry_space_group_name_H-M "P 62"
_symmetry_group_IT_number 171
_symmetry_cell_setting 'hexagonal'
loop_
_space_group_symop_operation_xyz
x,y,z
x-y,x,1/3+z
-y,x-y,2/3+z
-x,-y,z
-x+y,-x,1/3+z
y,-x+y,2/3+z
loop_
_atom_site_type_symbol
_atom_site_label
_atom_site_fract_x
_atom_site_fract_y
_atom_site_fract_z
Si Si1 0.500000 0.000000 0.702471
Si Si2 0.378937 0.775926 0.283548
Si Si3 0.022985 0.175122 0.053681
Si Si4 0.101162 0.202658 0.296140
Si Si5 0.758327 0.508324 0.403273
Si Si6 0.688565 0.565977 0.825420
O O1 0.388767 0.883793 0.776183
O O2 0.572470 0.955294 0.609054
O O3 0.315815 0.618916 0.316763
O O4 0.489873 0.816064 0.184814
O O5 0.265479 0.790429 0.216163
O O6 0.441949 0.846279 0.406168
O O7 0.961231 0.267216 0.078864
O O8 0.126550 0.200485 0.158963
O O9 0.123245 0.184215 0.952427
O O10 0.895982 0.031083 0.031588
O O11 0.184968 0.350018 0.343623
#
# Coordination Sequence:
#
# PCOD9580542 Si02
#       6
#     3   6   6   6   6   6
#     4  10  20  40  64  92 120 178 212 254 344 394
#     4   9  22  41  66  95 130 163 216 278 330 393
#     4  11  24  41  64  93 128 171 216 265 319 383
#     4  11  24  41  64  93 128 171 216 265 319 383
#     4  10  21  42  64  94 129 167 216 270 327 397
#     4  10  21  42  64  94 129 167 216 270 327 397
#
# _framework density 24.421738000000001
#
# number of rings (size 3 to 8) (size 9 to 14) (size 15 to 20)
#    0.000    1.818    1.818    2.182    5.091    2.909 
#    0.000    1.818    0.000    0.000    0.000    0.000 
#    0.000    0.000    0.000    0.000    0.000    0.000 
#
# Total GULP energy -183942.956344 kJ/mol
# GULP energy per Si atom -5574.028980 kJ/mol
# Density = 2.436615 g / cm^3
# Si number density = 24.421738 Si / 1000 Ang^3
#
#
#
# Elastic Constant Matrix: (Units=GPa)
#
#
# Indices 1 2 3 4 5 6 
#
# 1 82.7380 12.2793 -5.8491 0.0000 0.0000 0.0000
# 2 12.2793 82.7380 -5.8491 0.0000 0.0000 0.0000
# 3 -5.8491 -5.8491 50.9923 0.0000 0.0000 0.0000
# 4 0.0000 0.0000 0.0000 22.9006 0.0000 0.0000
# 5 0.0000 0.0000 0.0000 0.0000 22.9006 0.0000
# 6 0.0000 0.0000 0.0000 0.0000 0.0000 35.2294
#
#
#
# Elastic Compliance Matrix: (Units=1/GPa)
#
#
# Indices 1 2 3 4 5 6 
#
# 1 0.012434 -0.001759 0.001225 0.000000 0.000000 0.000000
# 2 -0.001759 0.012434 0.001225 0.000000 0.000000 0.000000
# 3 0.001225 0.001225 0.019892 0.000000 0.000000 0.000000
# 4 0.000000 0.000000 0.000000 0.043667 0.000000 0.000000
# 5 0.000000 0.000000 0.000000 0.000000 0.043667 0.000000
# 6 0.000000 0.000000 0.000000 0.000000 0.000000 0.028385
#
#
# Mechanical properties :
#
#
# Convention : Reuss Voigt Hill
#
# Bulk Modulus (GPa) = 21.67314 24.18115 22.92714
# Shear Modulus (GPa) = 28.65683 30.59860 29.62772
#
# Velocity S-wave (km/s) = 3.42923 3.54351 3.48684
# Velocity P-wave (km/s) = 4.95715 5.16381 5.06153
#
# Compressibility (1/GPa) = 0.04614007
#
# Stress axis : x y z
#
# Youngs Moduli (GPa) = 80.42509 80.42509 50.27216
#
# Poissons Ratio (x) = 0.14145 -0.06156
# Poissons Ratio (y) = 0.14145 -0.06156
# Poissons Ratio (z) = -0.09848 -0.09848
#
# Static dielectric constant tensor:
#      x y z
#    x 2.006010 0.000000 0.000000 
#    y 0.000000 2.006010 0.000000 
#    z 0.000000 0.000000 1.849100 
# 
# From -- ./inp_files/1528.got.cif
#   From: 2010.05.17/outbox.cif.g08.bks.cpg/sg171_1_cif.got.tgz:1528.got - 2010.05.20 11:16:09.
