data_PCOD9580320
_publ_section_title
;
Structure prediction by ZEFSAII (Michael W. Deem and Ramdas Pophale) SiO2 
 PCOD9580320
Probable space group: P 65
;
_chemical_formula_sum "Si O2"
_cell_formula_units_Z 36
_cell_length_a 13.902762
_cell_length_b 13.902762
_cell_length_c 9.663266
_cell_angle_alpha 90.000000
_cell_angle_beta 90.000000
_cell_angle_gamma 120.000000
_cell_volume 1617.546382
_symmetry_space_group_name_H-M "P 65"
_symmetry_group_IT_number 170
_symmetry_cell_setting 'hexagonal'
loop_
_space_group_symop_operation_xyz
x,y,z
x-y,x,5/6+z
-y,x-y,2/3+z
-x,-y,1/2+z
-x+y,-x,1/3+z
y,-x+y,1/6+z
loop_
_atom_site_type_symbol
_atom_site_label
_atom_site_fract_x
_atom_site_fract_y
_atom_site_fract_z
Si Si1 0.027579 0.687723 0.126240
Si Si2 0.554613 0.759357 0.316755
Si Si3 0.195297 0.735292 0.534379
Si Si4 0.862948 0.408383 0.307443
Si Si5 0.888254 0.444219 0.801597
Si Si6 0.777621 0.940965 0.723909
O O1 0.079779 0.614142 0.179663
O O2 0.016596 0.749609 0.261704
O O3 0.907263 0.611574 0.061683
O O4 0.120100 0.772936 0.024851
O O5 0.463927 0.777333 0.240838
O O6 0.497596 0.672519 0.441008
O O7 0.139590 0.656086 0.667142
O O8 0.321419 0.821647 0.574637
O O9 0.183352 0.651240 0.411968
O O10 0.133342 0.800499 0.482304
O O11 0.988823 0.471562 0.360880
O O12 0.823579 0.866542 0.651334
#
# Coordination Sequence:
#
# PCOD9580320 Si02
#       6
#     6   6   6   6   6   6
#     4  10  23  43  70  98 134 181 232 278 354 417
#     4  11  25  44  67 102 139 188 228 295 347 430
#     4  11  24  45  69 102 141 183 233 288 366 423
#     4  11  26  43  68 100 140 181 240 287 355 425
#     4  10  25  42  67  99 137 177 226 292 346 441
#     4  11  23  47  75 101 137 186 239 296 354 420
#
# _framework density 22.255929999999999
#
# number of rings (size 3 to 8) (size 9 to 14) (size 15 to 20)
#    0.000    1.333    1.667    2.000   11.667    1.333 
#    0.000    3.333    0.000    0.000    0.000    0.000 
#    0.000    0.000    0.000    0.000    0.000    0.000 
#
# Total GULP energy -201398.729854 kJ/mol
# GULP energy per Si atom -5594.409163 kJ/mol
# Density = 2.220527 g / cm^3
# Si number density = 22.255930 Si / 1000 Ang^3
#
#
#
# Elastic Constant Matrix: (Units=GPa)
#
#
# Indices 1 2 3 4 5 6 
#
# 1 139.3898 64.2862 19.5846 0.0000 0.0000 0.0000
# 2 64.2862 139.3898 19.5846 0.0000 0.0000 0.0000
# 3 19.5846 19.5846 34.6633 0.0000 0.0000 0.0000
# 4 0.0000 0.0000 0.0000 36.8880 0.0000 0.0000
# 5 0.0000 0.0000 0.0000 0.0000 36.8880 0.0000
# 6 0.0000 0.0000 0.0000 0.0000 0.0000 37.5518
#
#
#
# Elastic Compliance Matrix: (Units=1/GPa)
#
#
# Indices 1 2 3 4 5 6 
#
# 1 0.009412 -0.003903 -0.003112 0.000000 0.000000 0.000000
# 2 -0.003903 0.009412 -0.003112 0.000000 0.000000 0.000000
# 3 -0.003112 -0.003112 0.032366 0.000000 0.000000 0.000000
# 4 0.000000 0.000000 0.000000 0.027109 0.000000 0.000000
# 5 0.000000 0.000000 0.000000 0.000000 0.027109 0.000000
# 6 0.000000 0.000000 0.000000 0.000000 0.000000 0.026630
#
#
# Mechanical properties :
#
#
# Convention : Reuss Voigt Hill
#
# Bulk Modulus (GPa) = 32.32731 57.81706 45.07218
# Shear Modulus (GPa) = 30.74967 36.26471 33.50719
#
# Velocity S-wave (km/s) = 3.72107 4.04101 3.88434
# Velocity P-wave (km/s) = 5.74618 6.91431 6.35714
#
# Compressibility (1/GPa) = 0.03093360
#
# Stress axis : x y z
#
# Youngs Moduli (GPa) = 106.25185 106.25185 30.89697
#
# Poissons Ratio (x) = 0.41474 0.09616
# Poissons Ratio (y) = 0.41474 0.09616
# Poissons Ratio (z) = 0.33067 0.33067
#
# Static dielectric constant tensor:
#      x y z
#    x 1.831250 0.000000 0.000000 
#    y 0.000000 1.831250 0.000000 
#    z 0.000000 0.000000 1.867070 
# 
# From -- ./inp_files/626.got.cif
#   From: 2010.05.17/outbox.cif.g08.bks.cpg/sg170_cif.got.tgz:626.got - 2010.05.20 11:14:30.
