data_PCOD9580983
_publ_section_title
;
Structure prediction by ZEFSAII (Michael W. Deem and Ramdas Pophale) SiO2 
 PCOD9580983
Probable space group: P 64
;
_chemical_formula_sum "Si O2"
_cell_formula_units_Z 48
_cell_length_a 11.125160
_cell_length_b 11.125160
_cell_length_c 22.268920
_cell_angle_alpha 90.000000
_cell_angle_beta 90.000000
_cell_angle_gamma 120.000000
_cell_volume 2386.944483
_symmetry_space_group_name_H-M "P 64"
_symmetry_group_IT_number 172
_symmetry_cell_setting 'hexagonal'
loop_
_space_group_symop_operation_xyz
x,y,z
x-y,x,2/3+z
-y,x-y,1/3+z
-x,-y,z
-x+y,-x,2/3+z
y,-x+y,1/3+z
loop_
_atom_site_type_symbol
_atom_site_label
_atom_site_fract_x
_atom_site_fract_y
_atom_site_fract_z
Si Si1 0.543679 0.157598 0.004690
Si Si2 0.137231 0.142060 0.058245
Si Si3 0.014531 0.331042 0.051038
Si Si4 0.864496 0.729224 0.613099
Si Si5 0.512130 0.358269 0.546532
Si Si6 0.642563 0.413808 0.424596
Si Si7 0.275696 0.087935 0.591107
Si Si8 0.881885 0.835753 0.843461
O O1 0.627162 0.263680 0.057503
O O2 0.500000 0.000000 0.022442
O O3 0.414856 0.157559 0.971749
O O4 0.647125 0.198484 0.948472
O O5 0.081099 0.243249 0.077325
O O6 0.212969 0.099668 0.109209
O O7 0.222953 0.203179 0.997716
O O8 0.000000 0.000000 0.042524
O O9 0.132082 0.491379 0.060314
O O10 0.874164 0.294818 0.086378
O O11 0.962410 0.287357 0.982524
O O12 0.807354 0.837098 0.615620
O O13 0.927915 0.749151 0.546090
O O14 0.500000 0.500000 0.541554
O O15 0.614821 0.372221 0.494026
O O16 0.377291 0.206356 0.543990
O O17 0.177256 0.950918 0.553845
O O18 0.000000 0.000000 0.840714
#
# Coordination Sequence:
#
# PCOD9580983 Si02
#       8
#     6   6   6   6   6   6   6   6
#     4  11  23  42  63  88 125 172 218 268 324 395
#     4  11  20  33  59  96 123 163 203 272 327 379
#     4  11  20  36  63  91 134 162 211 270 333 377
#     4  11  19  37  57  86 128 163 209 259 324 386
#     4  11  20  36  63  96 124 161 215 269 325 388
#     4  11  24  39  62  99 123 171 220 272 314 401
#     4  11  18  36  60  93 124 159 206 267 321 380
#     4   9  20  30  53  90 124 154 203 258 322 373
#
# _framework density 20.109393000000001
#
# number of rings (size 3 to 8) (size 9 to 14) (size 15 to 20)
#    0.000    1.250    7.500    1.125    0.000    1.000 
#    0.000    1.875    0.000    0.000    0.000    0.000 
#    0.000    0.000    0.000    0.000    0.000    0.000 
#
# Total GULP energy -267268.439451 kJ/mol
# GULP energy per Si atom -5568.092489 kJ/mol
# Density = 2.006362 g / cm^3
# Si number density = 20.109393 Si / 1000 Ang^3
#
#
#
# Elastic Constant Matrix: (Units=GPa)
#
#
# Indices 1 2 3 4 5 6 
#
# 1 44.1100 17.4659 7.9493 0.0000 0.0000 0.0000
# 2 17.4659 44.1100 7.9493 0.0000 0.0000 0.0000
# 3 7.9493 7.9493 88.7181 0.0000 0.0000 0.0000
# 4 0.0000 0.0000 0.0000 -0.7709 0.0000 0.0000
# 5 0.0000 0.0000 0.0000 0.0000 -0.7709 0.0000
# 6 0.0000 0.0000 0.0000 0.0000 0.0000 13.3221
#
#
#
# Elastic Compliance Matrix: (Units=1/GPa)
#
#
# Indices 1 2 3 4 5 6 
#
# 1 0.027078 -0.010453 -0.001490 0.000000 0.000000 0.000000
# 2 -0.010453 0.027078 -0.001490 0.000000 0.000000 0.000000
# 3 -0.001490 -0.001490 0.011539 0.000000 0.000000 0.000000
# 4 0.000000 0.000000 0.000000 -1.297216 0.000000 0.000000
# 5 0.000000 0.000000 0.000000 0.000000 -1.297216 0.000000
# 6 0.000000 0.000000 0.000000 0.000000 0.000000 0.075063
#
#
# Mechanical properties :
#
#
# Convention : Reuss Voigt Hill
#
# Bulk Modulus (GPa) = 25.75353 27.07413 26.41383
# Shear Modulus (GPa) = -2.07137 11.92764 4.92814
#
# Velocity S-wave (km/s) = -1.01601 2.43808 1.56716
# Velocity P-wave (km/s) = 3.38499 4.62799 4.05441
#
# Compressibility (1/GPa) = 0.03882963
#
# Stress axis : x y z
#
# Youngs Moduli (GPa) = 36.93006 36.93006 86.66561
#
# Poissons Ratio (x) = 0.38605 0.12910
# Poissons Ratio (y) = 0.38605 0.12910
# Poissons Ratio (z) = 0.05501 0.05501
#
# Static dielectric constant tensor:
#      x y z
#    x 1.941940 0.000000 0.000000 
#    y 0.000000 1.941940 0.000000 
#    z 0.000000 0.000000 1.787030 
# 
# From -- ./inp_files/2090.got.cif
#   From: 2010.05.17/outbox.cif.g08.bks.cpg/sg172_2_cif.got.tgz:2090.got - 2010.05.20 11:19:57.
