data_PCOD9580313
_publ_section_title
;
Structure prediction by ZEFSAII (Michael W. Deem and Ramdas Pophale) SiO2 
 PCOD9580313
Probable space group: P 65
;
_chemical_formula_sum "Si O2"
_cell_formula_units_Z 48
_cell_length_a 15.972493
_cell_length_b 15.972493
_cell_length_c 11.128107
_cell_angle_alpha 90.000000
_cell_angle_beta 90.000000
_cell_angle_gamma 120.000000
_cell_volume 2458.653556
_symmetry_space_group_name_H-M "P 65"
_symmetry_group_IT_number 170
_symmetry_cell_setting 'hexagonal'
loop_
_space_group_symop_operation_xyz
x,y,z
x-y,x,5/6+z
-y,x-y,2/3+z
-x,-y,1/2+z
-x+y,-x,1/3+z
y,-x+y,1/6+z
loop_
_atom_site_type_symbol
_atom_site_label
_atom_site_fract_x
_atom_site_fract_y
_atom_site_fract_z
Si Si1 0.664824 0.663818 0.401780
Si Si2 0.150359 0.796455 0.039784
Si Si3 0.557117 0.891230 0.785871
Si Si4 0.444597 0.531626 0.370569
Si Si5 0.056163 0.716136 0.803639
Si Si6 0.380859 0.777881 0.605033
Si Si7 0.780163 0.162278 0.110311
Si Si8 0.712682 0.429069 0.207536
O O1 0.680390 0.770973 0.385466
O O2 0.746640 0.652761 0.329699
O O3 0.655110 0.635681 0.542439
O O4 0.559430 0.581381 0.354146
O O5 0.215312 0.750984 0.992270
O O6 0.071725 0.762740 0.934951
O O7 0.511827 0.907274 0.907529
O O8 0.469410 0.829852 0.695408
O O9 0.607618 0.831244 0.826045
O O10 0.386204 0.441838 0.460714
O O11 0.431689 0.620460 0.417244
O O12 0.142916 0.790589 0.718194
O O13 0.950212 0.688980 0.760626
O O14 0.307310 0.815784 0.631296
O O15 0.329854 0.662763 0.622623
O O16 0.413787 0.783822 0.468465
#
# Coordination Sequence:
#
# PCOD9580313 Si02
#       8
#     6   6   6   6   6   6   6   6
#     4  11  25  42  63  98 127 178 212 275 332 382
#     4  11  25  41  64  94 129 169 220 271 325 392
#     4  11  23  41  62  92 133 170 218 265 318 390
#     4  10  23  39  61  93 131 176 218 256 307 388
#     4  11  23  43  63  93 122 173 216 273 323 387
#     4  12  20  36  58  91 137 175 215 251 308 387
#     4  11  25  40  65  91 125 172 219 271 324 387
#     4  11  20  36  58  90 132 175 214 246 315 369
#
# _framework density 19.522880000000001
#
# number of rings (size 3 to 8) (size 9 to 14) (size 15 to 20)
#    0.000    1.000    5.000    2.250    7.000    2.000 
#    0.000    0.000    0.000    0.000   16.250    0.000 
#    0.000    0.000    0.000    0.000    0.000    0.000 
#
# Total GULP energy -267759.951332 kJ/mol
# GULP energy per Si atom -5578.332319 kJ/mol
# Density = 1.947844 g / cm^3
# Si number density = 19.522880 Si / 1000 Ang^3
#
#
#
# Elastic Constant Matrix: (Units=GPa)
#
#
# Indices 1 2 3 4 5 6 
#
# 1 73.3559 43.9579 20.7566 0.0000 0.0000 0.0000
# 2 43.9579 73.3559 20.7566 0.0000 0.0000 0.0000
# 3 20.7566 20.7566 53.1429 0.0000 0.0000 0.0000
# 4 0.0000 0.0000 0.0000 25.5345 0.0000 0.0000
# 5 0.0000 0.0000 0.0000 0.0000 25.5345 0.0000
# 6 0.0000 0.0000 0.0000 0.0000 0.0000 14.6990
#
#
#
# Elastic Compliance Matrix: (Units=1/GPa)
#
#
# Indices 1 2 3 4 5 6 
#
# 1 0.021954 -0.012062 -0.003863 0.000000 0.000000 0.000000
# 2 -0.012062 0.021954 -0.003863 0.000000 0.000000 0.000000
# 3 -0.003863 -0.003863 0.021835 0.000000 0.000000 0.000000
# 4 0.000000 0.000000 0.000000 0.039163 0.000000 0.000000
# 5 0.000000 0.000000 0.000000 0.000000 0.039163 0.000000
# 6 0.000000 0.000000 0.000000 0.000000 0.000000 0.068032
#
#
# Mechanical properties :
#
#
# Convention : Reuss Voigt Hill
#
# Bulk Modulus (GPa) = 38.22009 41.19963 39.70986
# Shear Modulus (GPa) = 19.20130 20.77916 19.99023
#
# Velocity S-wave (km/s) = 3.13953 3.26598 3.20338
# Velocity P-wave (km/s) = 5.72379 5.94737 5.83665
#
# Compressibility (1/GPa) = 0.02616425
#
# Stress axis : x y z
#
# Youngs Moduli (GPa) = 45.55064 45.55064 45.79786
#
# Poissons Ratio (x) = 0.54945 0.17693
# Poissons Ratio (y) = 0.54945 0.17693
# Poissons Ratio (z) = 0.17598 0.17598
#
# Static dielectric constant tensor:
#      x y z
#    x 1.710460 0.000000 0.000000 
#    y 0.000000 1.710460 0.000000 
#    z 0.000000 0.000000 1.705540 
# 
# From -- ./inp_files/1073.got.cif
#   From: 2010.05.17/outbox.cif.g08.bks.cpg/sg170_cif.got.tgz:1073.got - 2010.05.20 11:14:30.
