data_PCOD9580854
_publ_section_title
;
Structure prediction by ZEFSAII (Michael W. Deem and Ramdas Pophale) SiO2 
 PCOD9580854
Probable space group: P 62
;
_chemical_formula_sum "Si O2"
_cell_formula_units_Z 36
_cell_length_a 20.174981
_cell_length_b 20.174981
_cell_length_c 4.940266
_cell_angle_alpha 90.000000
_cell_angle_beta 90.000000
_cell_angle_gamma 120.000000
_cell_volume 1741.434860
_symmetry_space_group_name_H-M "P 62"
_symmetry_group_IT_number 171
_symmetry_cell_setting 'hexagonal'
loop_
_space_group_symop_operation_xyz
x,y,z
x-y,x,1/3+z
-y,x-y,2/3+z
-x,-y,z
-x+y,-x,1/3+z
y,-x+y,2/3+z
loop_
_atom_site_type_symbol
_atom_site_label
_atom_site_fract_x
_atom_site_fract_y
_atom_site_fract_z
Si Si1 0.866897 0.726149 0.022340
Si Si2 0.496181 0.360642 0.268668
Si Si3 0.600914 0.977885 0.214238
Si Si4 0.197957 0.452651 0.086965
Si Si5 0.117666 0.632218 0.397009
Si Si6 0.249609 0.033853 0.196313
O O1 0.850513 0.639566 0.050535
O O2 0.835226 0.752386 0.276353
O O3 0.816131 0.724801 0.776422
O O4 0.955378 0.781485 0.943998
O O5 0.446365 0.395791 0.400066
O O6 0.503915 0.321814 0.541842
O O7 0.564711 0.428039 0.099536
O O8 0.461472 0.291626 0.050683
O O9 0.565741 0.951016 0.516055
O O10 0.684275 0.988067 0.171235
O O11 0.546332 0.907137 0.030997
O O12 0.284973 0.475866 0.022079
#
# Coordination Sequence:
#
# PCOD9580854 Si02
#       6
#     6   6   6   6   6   6
#     4  12  25  44  73 108 145 181 232 294 358 435
#     4  12  27  43  69 102 143 187 241 297 362 435
#     4  12  23  43  71 104 138 184 227 310 369 423
#     4  12  24  45  70  99 142 190 239 306 354 422
#     4  12  26  46  67 101 143 187 242 294 369 421
#     4  12  24  43  73 106 145 179 229 294 368 428
#
# _framework density 20.672608
#
# number of rings (size 3 to 8) (size 9 to 14) (size 15 to 20)
#    0.000    0.000    5.000    5.500    2.333    1.333 
#    3.000    0.000    0.000    5.000    0.000    0.000 
#    0.000    0.000    0.000    0.000    0.000    0.000 
#
# Total GULP energy -200793.807289 kJ/mol
# GULP energy per Si atom -5577.605758 kJ/mol
# Density = 2.062556 g / cm^3
# Si number density = 20.672608 Si / 1000 Ang^3
#
#
#
# Elastic Constant Matrix: (Units=GPa)
#
#
# Indices 1 2 3 4 5 6 
#
# 1 44.0745 90.7530 28.4714 0.0000 0.0000 0.0000
# 2 90.7530 44.0745 28.4714 0.0000 0.0000 0.0000
# 3 28.4714 28.4714 122.1738 0.0000 0.0000 0.0000
# 4 0.0000 0.0000 0.0000 37.9375 0.0000 0.0000
# 5 0.0000 0.0000 0.0000 0.0000 37.9375 0.0000
# 6 0.0000 0.0000 0.0000 0.0000 0.0000 -23.3392
#
#
#
# Elastic Compliance Matrix: (Units=1/GPa)
#
#
# Indices 1 2 3 4 5 6 
#
# 1 -0.006598 0.014825 -0.001917 0.000000 0.000000 0.000000
# 2 0.014825 -0.006598 -0.001917 0.000000 0.000000 0.000000
# 3 -0.001917 -0.001917 0.009079 0.000000 0.000000 0.000000
# 4 0.000000 0.000000 0.000000 0.026359 0.000000 0.000000
# 5 0.000000 0.000000 0.000000 0.000000 0.026359 0.000000
# 6 0.000000 0.000000 0.000000 0.000000 0.000000 -0.042846
#
#
# Mechanical properties :
#
#
# Convention : Reuss Voigt Hill
#
# Bulk Modulus (GPa) = 55.98091 56.19049 56.08570
# Shear Modulus (GPa) = -486.71789 14.68229 -236.01780
#
# Velocity S-wave (km/s) = -15.36073 2.66790 -10.69660
# Velocity P-wave (km/s) = 16.95477 6.06056 11.19674
#
# Compressibility (1/GPa) = 0.01786323
#
# Stress axis : x y z
#
# Youngs Moduli (GPa) = -151.55406 -151.55406 110.14930
#
# Poissons Ratio (x) = 2.24677 0.21117
# Poissons Ratio (y) = 2.24677 0.21117
# Poissons Ratio (z) = -0.29055 -0.29055
#
# Static dielectric constant tensor:
#      x y z
#    x 1.725360 0.000000 0.000000 
#    y 0.000000 1.725360 0.000000 
#    z 0.000000 0.000000 1.694300 
# 
# From -- ./inp_files/418.got.cif
#   From: 2010.05.17/outbox.cif.g08.bks.cpg/sg171_1_cif.got.tgz:418.got - 2010.05.20 11:16:09.
