data_PCOD9580871
_publ_section_title
;
Structure prediction by ZEFSAII (Michael W. Deem and Ramdas Pophale) SiO2 
 PCOD9580871
Probable space group: P 62
;
_chemical_formula_sum "Si O2"
_cell_formula_units_Z 39
_cell_length_a 19.125283
_cell_length_b 19.125283
_cell_length_c 4.996096
_cell_angle_alpha 90.000000
_cell_angle_beta 90.000000
_cell_angle_gamma 120.000000
_cell_volume 1582.621812
_symmetry_space_group_name_H-M "P 62"
_symmetry_group_IT_number 171
_symmetry_cell_setting 'hexagonal'
loop_
_space_group_symop_operation_xyz
x,y,z
x-y,x,1/3+z
-y,x-y,2/3+z
-x,-y,z
-x+y,-x,1/3+z
y,-x+y,2/3+z
loop_
_atom_site_type_symbol
_atom_site_label
_atom_site_fract_x
_atom_site_fract_y
_atom_site_fract_z
Si Si1 0.737352 0.821572 0.163060
Si Si2 0.327813 0.462565 0.027176
Si Si3 0.495345 0.304957 0.749844
Si Si4 0.500000 0.000000 0.661375
Si Si5 0.089378 0.811268 0.337434
Si Si6 0.599297 0.246649 0.104767
Si Si7 0.094036 0.423627 0.599621
O O1 0.740604 0.884441 0.384066
O O2 0.807140 0.800887 0.096201
O O3 0.669031 0.734822 0.264364
O O4 0.711494 0.844058 0.886120
O O5 0.414916 0.491648 0.888259
O O6 0.274332 0.363860 0.015237
O O7 0.344856 0.517893 0.303343
O O8 0.257314 0.480669 0.933452
O O9 0.587091 0.369534 0.687608
O O10 0.447917 0.336212 0.572685
O O11 0.461050 0.294636 0.046319
O O12 0.580487 0.038597 0.836204
O O13 0.607202 0.329808 0.214389
#
# Coordination Sequence:
#
# PCOD9580871 Si02
#       7
#     6   6   6   3   6   6   6
#     4  12  25  51  80 119 153 210 253 329 393 503
#     4  12  25  46  71 104 151 206 262 334 399 467
#     4  12  26  46  69  99 141 203 260 329 387 469
#     4  12  28  46  68 116 158 206 270 342 398 452
#     4  12  27  49  84 116 161 203 263 315 412 487
#     4  12  26  42  68  98 141 200 273 328 389 456
#     4  12  25  49  70 103 152 200 266 322 396 463
#
# _framework density 24.642654
#
# number of rings (size 3 to 8) (size 9 to 14) (size 15 to 20)
#    0.000    0.000    7.692    1.846    2.154    0.615 
#    0.000    0.000    0.000    4.615    0.000    0.000 
#    0.000    0.000    0.000    0.000    0.000    0.000 
#
# Total GULP energy -217253.766790 kJ/mol
# GULP energy per Si atom -5570.609405 kJ/mol
# Density = 2.458657 g / cm^3
# Si number density = 24.642654 Si / 1000 Ang^3
#
#
#
# Elastic Constant Matrix: (Units=GPa)
#
#
# Indices 1 2 3 4 5 6 
#
# 1 93.9228 27.2744 12.5875 0.0000 0.0000 0.0000
# 2 27.2744 93.9228 12.5875 0.0000 0.0000 0.0000
# 3 12.5875 12.5875 94.2235 0.0000 0.0000 0.0000
# 4 0.0000 0.0000 0.0000 -28.1837 0.0000 0.0000
# 5 0.0000 0.0000 0.0000 0.0000 -28.1837 0.0000
# 6 0.0000 0.0000 0.0000 0.0000 0.0000 33.3242
#
#
#
# Elastic Compliance Matrix: (Units=1/GPa)
#
#
# Indices 1 2 3 4 5 6 
#
# 1 0.011745 -0.003259 -0.001134 0.000000 0.000000 0.000000
# 2 -0.003259 0.011745 -0.001134 0.000000 0.000000 0.000000
# 3 -0.001134 -0.001134 0.010916 0.000000 0.000000 0.000000
# 4 0.000000 0.000000 0.000000 -0.035482 0.000000 0.000000
# 5 0.000000 0.000000 0.000000 0.000000 -0.035482 0.000000
# 6 0.000000 0.000000 0.000000 0.000000 0.000000 0.030008
#
#
# Mechanical properties :
#
#
# Convention : Reuss Voigt Hill
#
# Bulk Modulus (GPa) = 42.81908 42.99645 42.90776
# Shear Modulus (GPa) = 406.86770 10.69934 208.78352
#
# Velocity S-wave (km/s) = 12.86334 2.08596 9.21457
# Velocity P-wave (km/s) = 15.42836 4.82571 11.43070
#
# Compressibility (1/GPa) = 0.02335408
#
# Stress axis : x y z
#
# Youngs Moduli (GPa) = 85.14034 85.14034 91.60882
#
# Poissons Ratio (x) = 0.27746 0.10386
# Poissons Ratio (y) = 0.27746 0.10386
# Poissons Ratio (z) = 0.09653 0.09653
#
# Static dielectric constant tensor:
#      x y z
#    x 2.112150 0.000000 0.000000 
#    y 0.000000 2.112150 0.000000 
#    z 0.000000 0.000000 1.955050 
# 
# From -- ./inp_files/466.got.cif
#   From: 2010.05.17/outbox.cif.g08.bks.cpg/sg171_1_cif.got.tgz:466.got - 2010.05.20 11:16:09.
