data_PCOD9580316
_publ_section_title
;
Structure prediction by ZEFSAII (Michael W. Deem and Ramdas Pophale) SiO2 
 PCOD9580316
Probable space group: P 65
;
_chemical_formula_sum "Si O2"
_cell_formula_units_Z 48
_cell_length_a 12.551916
_cell_length_b 12.551916
_cell_length_c 14.351716
_cell_angle_alpha 90.000000
_cell_angle_beta 90.000000
_cell_angle_gamma 120.000000
_cell_volume 1958.188573
_symmetry_space_group_name_H-M "P 65"
_symmetry_group_IT_number 170
_symmetry_cell_setting 'hexagonal'
loop_
_space_group_symop_operation_xyz
x,y,z
x-y,x,5/6+z
-y,x-y,2/3+z
-x,-y,1/2+z
-x+y,-x,1/3+z
y,-x+y,1/6+z
loop_
_atom_site_type_symbol
_atom_site_label
_atom_site_fract_x
_atom_site_fract_y
_atom_site_fract_z
Si Si1 0.539298 0.851174 0.972280
Si Si2 0.809997 0.164092 0.444901
Si Si3 0.522783 0.749516 0.794007
Si Si4 0.081871 0.376724 0.415883
Si Si5 0.796107 0.573682 0.412836
Si Si6 0.538759 0.049097 0.087196
Si Si7 0.057671 0.897183 0.191112
Si Si8 0.579610 0.338364 0.909413
O O1 0.564357 0.866686 0.863362
O O2 0.632967 0.823860 0.028641
O O3 0.408290 0.729059 0.985083
O O4 0.479082 0.909671 0.045899
O O5 0.720545 0.126686 0.355368
O O6 0.768672 0.227463 0.522279
O O7 0.949819 0.255568 0.414406
O O8 0.808980 0.043754 0.483048
O O9 0.573409 0.764379 0.690743
O O10 0.555818 0.659892 0.853745
O O11 0.377617 0.671360 0.784674
O O12 0.062443 0.475538 0.358224
O O13 0.653286 0.541269 0.401006
O O14 0.887852 0.710295 0.377014
O O15 0.818766 0.483323 0.347406
O O16 0.001945 0.915554 0.284489
#
# Coordination Sequence:
#
# PCOD9580316 Si02
#       8
#     6   6   6   6   6   6   6   6
#     4  11  24  42  66 104 143 187 233 287 352 438
#     4  12  23  42  75 102 140 187 241 306 353 428
#     4  10  24  42  64  98 148 183 229 286 351 432
#     4  11  23  41  69 107 141 183 240 298 357 420
#     4  11  24  45  67 103 143 185 232 295 356 437
#     4  10  23  42  65 103 137 188 234 280 366 434
#     4  12  26  50  73 103 136 186 252 312 367 429
#     4  11  23  42  67 106 144 185 233 280 356 434
#
# _framework density 24.512452
#
# number of rings (size 3 to 8) (size 9 to 14) (size 15 to 20)
#    0.000    1.000    3.750    3.000    5.250    2.000 
#    0.000    3.750    0.000    0.000    0.000    0.000 
#    0.000    0.000    0.000    0.000    0.000    0.000 
#
# Total GULP energy -267634.005056 kJ/mol
# GULP energy per Si atom -5575.708439 kJ/mol
# Density = 2.445666 g / cm^3
# Si number density = 24.512452 Si / 1000 Ang^3
#
#
#
# Elastic Constant Matrix: (Units=GPa)
#
#
# Indices 1 2 3 4 5 6 
#
# 1 58.2344 19.5208 28.1262 0.0000 0.0000 0.0000
# 2 19.5208 58.2344 28.1262 0.0000 0.0000 0.0000
# 3 28.1262 28.1262 181.4671 0.0000 0.0000 0.0000
# 4 0.0000 0.0000 0.0000 40.2842 0.0000 0.0000
# 5 0.0000 0.0000 0.0000 0.0000 40.2842 0.0000
# 6 0.0000 0.0000 0.0000 0.0000 0.0000 19.3568
#
#
#
# Elastic Compliance Matrix: (Units=1/GPa)
#
#
# Indices 1 2 3 4 5 6 
#
# 1 0.020158 -0.005673 -0.002245 0.000000 0.000000 0.000000
# 2 -0.005673 0.020158 -0.002245 0.000000 0.000000 0.000000
# 3 -0.002245 -0.002245 0.006207 0.000000 0.000000 0.000000
# 4 0.000000 0.000000 0.000000 0.024824 0.000000 0.000000
# 5 0.000000 0.000000 0.000000 0.000000 0.024824 0.000000
# 6 0.000000 0.000000 0.000000 0.000000 0.000000 0.051661
#
#
# Mechanical properties :
#
#
# Convention : Reuss Voigt Hill
#
# Bulk Modulus (GPa) = 38.17316 49.94247 44.05781
# Shear Modulus (GPa) = 28.26628 34.79590 31.53109
#
# Velocity S-wave (km/s) = 3.39948 3.77174 3.59043
# Velocity P-wave (km/s) = 5.56914 6.27587 5.93304
#
# Compressibility (1/GPa) = 0.02619642
#
# Stress axis : x y z
#
# Youngs Moduli (GPa) = 49.60832 49.60832 161.11903
#
# Poissons Ratio (x) = 0.28142 0.36173
# Poissons Ratio (y) = 0.28142 0.36173
# Poissons Ratio (z) = 0.11138 0.11138
#
# Static dielectric constant tensor:
#      x y z
#    x 2.132530 0.000000 0.000000 
#    y 0.000000 2.132530 0.000000 
#    z 0.000000 0.000000 2.021580 
# 
# From -- ./inp_files/1092.got.cif
#   From: 2010.05.17/outbox.cif.g08.bks.cpg/sg170_cif.got.tgz:1092.got - 2010.05.20 11:14:30.
