data_PCOD9580966
_publ_section_title
;
Structure prediction by ZEFSAII (Michael W. Deem and Ramdas Pophale) SiO2 
 PCOD9580966
Probable space group: P 64
;
_chemical_formula_sum "Si O2"
_cell_formula_units_Z 42
_cell_length_a 20.326298
_cell_length_b 20.326298
_cell_length_c 5.290666
_cell_angle_alpha 90.000000
_cell_angle_beta 90.000000
_cell_angle_gamma 120.000000
_cell_volume 1893.030250
_symmetry_space_group_name_H-M "P 64"
_symmetry_group_IT_number 172
_symmetry_cell_setting 'hexagonal'
loop_
_space_group_symop_operation_xyz
x,y,z
x-y,x,2/3+z
-y,x-y,1/3+z
-x,-y,z
-x+y,-x,2/3+z
y,-x+y,1/3+z
loop_
_atom_site_type_symbol
_atom_site_label
_atom_site_fract_x
_atom_site_fract_y
_atom_site_fract_z
Si Si1 0.778900 0.977516 0.272320
Si Si2 0.950133 0.300358 0.965100
Si Si3 0.079031 0.936348 0.002655
Si Si4 0.113299 0.412222 0.047255
Si Si5 0.789997 0.640346 0.702501
Si Si6 0.079282 0.618891 0.568112
Si Si7 0.616038 0.098412 0.198133
O O1 0.712294 0.983644 0.407983
O O2 0.824528 0.957018 0.473522
O O3 0.728293 0.904866 0.103178
O O4 0.839483 0.046403 0.107072
O O5 0.928284 0.360987 0.859525
O O6 0.028693 0.343137 0.119764
O O7 0.873409 0.228383 0.071521
O O8 0.100438 0.016380 0.880515
O O9 0.162267 0.383983 0.884409
O O10 0.106627 0.463148 0.822479
O O11 0.138954 0.458031 0.314529
O O12 0.701769 0.582139 0.776860
O O13 0.119538 0.569862 0.521207
O O14 0.992181 0.567328 0.481446
#
# Coordination Sequence:
#
# PCOD9580966 Si02
#       7
#     6   6   6   6   6   6   6
#     4  11  27  41  63  90 125 178 231 306 368 442
#     4  10  23  41  62  98 135 184 231 281 363 427
#     4  12  28  46  63  86 117 176 248 310 380 438
#     4  11  25  39  67 102 140 178 231 289 344 426
#     4  11  24  40  66  97 141 180 228 286 354 428
#     4   9  21  40  68  93 134 180 221 281 338 416
#     4  10  22  42  67 101 133 174 234 280 342 413
#
# _framework density 22.18665
#
# number of rings (size 3 to 8) (size 9 to 14) (size 15 to 20)
#    0.000    1.429    1.429    1.714   14.000    4.000 
#    0.000    0.000    0.000    1.714    0.000    0.000 
#    0.000    0.000    0.000    0.000    0.000    0.000 
#
# Total GULP energy -233858.448035 kJ/mol
# GULP energy per Si atom -5568.058287 kJ/mol
# Density = 2.213615 g / cm^3
# Si number density = 22.186650 Si / 1000 Ang^3
#
#
#
# Elastic Constant Matrix: (Units=GPa)
#
#
# Indices 1 2 3 4 5 6 
#
# 1 56.3959 30.1118 12.6181 0.0000 0.0000 0.0000
# 2 30.1118 56.3959 12.6181 0.0000 0.0000 0.0000
# 3 12.6181 12.6181 75.3609 0.0000 0.0000 0.0000
# 4 0.0000 0.0000 0.0000 20.8668 0.0000 0.0000
# 5 0.0000 0.0000 0.0000 0.0000 20.8668 0.0000
# 6 0.0000 0.0000 0.0000 0.0000 0.0000 13.1420
#
#
#
# Elastic Compliance Matrix: (Units=1/GPa)
#
#
# Indices 1 2 3 4 5 6 
#
# 1 0.025100 -0.012946 -0.002035 0.000000 0.000000 0.000000
# 2 -0.012946 0.025100 -0.002035 0.000000 0.000000 0.000000
# 3 -0.002035 -0.002035 0.013951 0.000000 0.000000 0.000000
# 4 0.000000 0.000000 0.000000 0.047923 0.000000 0.000000
# 5 0.000000 0.000000 0.000000 0.000000 0.047923 0.000000
# 6 0.000000 0.000000 0.000000 0.000000 0.000000 0.076092
#
#
# Mechanical properties :
#
#
# Convention : Reuss Voigt Hill
#
# Bulk Modulus (GPa) = 33.20287 33.20544 33.20416
# Shear Modulus (GPa) = 17.84700 19.82878 18.83789
#
# Velocity S-wave (km/s) = 2.83928 2.99277 2.91703
# Velocity P-wave (km/s) = 5.07409 5.19048 5.13262
#
# Compressibility (1/GPa) = 0.03011788
#
# Stress axis : x y z
#
# Youngs Moduli (GPa) = 39.84134 39.84134 71.67993
#
# Poissons Ratio (x) = 0.51580 0.14586
# Poissons Ratio (y) = 0.51580 0.14586
# Poissons Ratio (z) = 0.08107 0.08107
#
# Static dielectric constant tensor:
#      x y z
#    x 1.836400 0.000000 0.000000 
#    y 0.000000 1.836400 0.000000 
#    z 0.000000 0.000000 2.047780 
# 
# From -- ./inp_files/333.got.cif
#   From: 2010.05.17/outbox.cif.g08.bks.cpg/sg172_1_cif.got.tgz:333.got - 2010.05.20 11:19:57.
