data_PCOD9580952
_publ_section_title
;
Structure prediction by ZEFSAII (Michael W. Deem and Ramdas Pophale) SiO2 
 PCOD9580952
Probable space group: P 64
;
_chemical_formula_sum "Si O2"
_cell_formula_units_Z 48
_cell_length_a 14.230782
_cell_length_b 14.230782
_cell_length_c 12.595226
_cell_angle_alpha 90.000000
_cell_angle_beta 90.000000
_cell_angle_gamma 120.000000
_cell_volume 2208.991923
_symmetry_space_group_name_H-M "P 64"
_symmetry_group_IT_number 172
_symmetry_cell_setting 'hexagonal'
loop_
_space_group_symop_operation_xyz
x,y,z
x-y,x,2/3+z
-y,x-y,1/3+z
-x,-y,z
-x+y,-x,2/3+z
y,-x+y,1/3+z
loop_
_atom_site_type_symbol
_atom_site_label
_atom_site_fract_x
_atom_site_fract_y
_atom_site_fract_z
Si Si1 0.484613 0.100356 0.368210
Si Si2 0.088988 0.263055 0.331225
Si Si3 0.864096 0.169120 0.400334
Si Si4 0.407076 0.748813 0.798519
Si Si5 0.730135 0.272331 0.352465
Si Si6 0.806409 0.743951 0.963942
Si Si7 0.012091 0.118858 0.130047
Si Si8 0.811438 0.294448 0.918035
O O1 0.599905 0.204419 0.340304
O O2 0.381469 0.097375 0.314685
O O3 0.464240 0.100900 0.495045
O O4 0.500000 0.000000 0.338645
O O5 0.116564 0.215492 0.434235
O O6 0.188852 0.373177 0.288937
O O7 0.978763 0.264470 0.355956
O O8 0.053104 0.166572 0.245990
O O9 0.776063 0.206330 0.412888
O O10 0.894570 0.142791 0.515295
O O11 0.812335 0.065449 0.323805
O O12 0.483797 0.779206 0.900858
O O13 0.373951 0.628534 0.754743
O O14 0.456786 0.817485 0.691490
O O15 0.301142 0.742453 0.853534
O O16 0.901051 0.792578 0.050028
O O17 0.000000 0.000000 0.117769
#
# Coordination Sequence:
#
# PCOD9580952 Si02
#       8
#     6   6   6   6   6   6   6   6
#     4  11  22  42  69 101 132 173 237 298 355 415
#     4  12  26  42  66 100 136 182 232 289 345 427
#     4  12  26  41  68 102 138 180 234 292 350 422
#     4   9  21  44  68  93 132 179 219 276 361 421
#     4  10  21  42  70  96 134 177 224 291 356 426
#     4  12  25  45  67 103 136 185 239 291 350 425
#     4  12  25  44  66  91 138 186 229 278 347 411
#     4  10  23  44  67  98 133 180 226 283 351 426
#
# _framework density 21.729369999999999
#
# number of rings (size 3 to 8) (size 9 to 14) (size 15 to 20)
#    0.000    1.000    3.750    2.625    3.500    1.000 
#    2.250    2.500    0.000    0.000    0.000    0.000 
#    0.000    0.000    0.000    0.000    0.000    0.000 
#
# Total GULP energy -267960.925474 kJ/mol
# GULP energy per Si atom -5582.519281 kJ/mol
# Density = 2.167991 g / cm^3
# Si number density = 21.729370 Si / 1000 Ang^3
#
#
#
# Elastic Constant Matrix: (Units=GPa)
#
#
# Indices 1 2 3 4 5 6 
#
# 1 59.8089 8.4719 10.5705 0.0000 0.0000 0.0000
# 2 8.4719 59.8089 10.5705 0.0000 0.0000 0.0000
# 3 10.5705 10.5705 114.3396 0.0000 0.0000 0.0000
# 4 0.0000 0.0000 0.0000 27.9937 0.0000 0.0000
# 5 0.0000 0.0000 0.0000 0.0000 27.9937 0.0000
# 6 0.0000 0.0000 0.0000 0.0000 0.0000 25.6685
#
#
#
# Elastic Compliance Matrix: (Units=1/GPa)
#
#
# Indices 1 2 3 4 5 6 
#
# 1 0.017278 -0.002201 -0.001394 0.000000 0.000000 0.000000
# 2 -0.002201 0.017278 -0.001394 0.000000 0.000000 0.000000
# 3 -0.001394 -0.001394 0.009004 0.000000 0.000000 0.000000
# 4 0.000000 0.000000 0.000000 0.035722 0.000000 0.000000
# 5 0.000000 0.000000 0.000000 0.000000 0.035722 0.000000
# 6 0.000000 0.000000 0.000000 0.000000 0.000000 0.038958
#
#
# Mechanical properties :
#
#
# Convention : Reuss Voigt Hill
#
# Bulk Modulus (GPa) = 29.77771 32.57591 31.17681
# Shear Modulus (GPa) = 28.54953 29.95414 29.25184
#
# Velocity S-wave (km/s) = 3.62866 3.71686 3.67303
# Velocity P-wave (km/s) = 5.59374 5.78310 5.68921
#
# Compressibility (1/GPa) = 0.03358216
#
# Stress axis : x y z
#
# Youngs Moduli (GPa) = 57.87691 57.87691 111.06679
#
# Poissons Ratio (x) = 0.12739 0.15481
# Poissons Ratio (y) = 0.12739 0.15481
# Poissons Ratio (z) = 0.08067 0.08067
#
# Static dielectric constant tensor:
#      x y z
#    x 1.795650 0.000000 0.000000 
#    y 0.000000 1.795650 0.000000 
#    z 0.000000 0.000000 1.810260 
# 
# From -- ./inp_files/1145.got.cif
#   From: 2010.05.17/outbox.cif.g08.bks.cpg/sg172_1_cif.got.tgz:1145.got - 2010.05.20 11:19:57.
