data_PCOD9580971
_publ_section_title
;
Structure prediction by ZEFSAII (Michael W. Deem and Ramdas Pophale) SiO2 
 PCOD9580971
Probable space group: P 64
;
_chemical_formula_sum "Si O2"
_cell_formula_units_Z 45
_cell_length_a 11.576581
_cell_length_b 11.576581
_cell_length_c 16.295410
_cell_angle_alpha 90.000000
_cell_angle_beta 90.000000
_cell_angle_gamma 120.000000
_cell_volume 1891.283150
_symmetry_space_group_name_H-M "P 64"
_symmetry_group_IT_number 172
_symmetry_cell_setting 'hexagonal'
loop_
_space_group_symop_operation_xyz
x,y,z
x-y,x,2/3+z
-y,x-y,1/3+z
-x,-y,z
-x+y,-x,2/3+z
y,-x+y,1/3+z
loop_
_atom_site_type_symbol
_atom_site_label
_atom_site_fract_x
_atom_site_fract_y
_atom_site_fract_z
Si Si1 0.661491 0.092007 0.276550
Si Si2 0.482980 0.356188 0.129410
Si Si3 0.308409 0.268537 0.284392
Si Si4 0.000000 0.500000 0.372961
Si Si5 0.118429 0.977869 0.263227
Si Si6 0.394497 0.032933 0.780372
Si Si7 0.064429 0.303392 0.271784
Si Si8 0.673214 0.259318 0.137912
O O1 0.693073 0.112624 0.373008
O O2 0.758229 0.045323 0.232958
O O3 0.691996 0.227883 0.231566
O O4 0.500000 0.000000 0.270753
O O5 0.500000 0.500000 0.141452
O O6 0.392325 0.272006 0.205732
O O7 0.626983 0.366990 0.131769
O O8 0.392764 0.343310 0.363617
O O9 0.214336 0.331879 0.266153
O O10 0.207065 0.116583 0.308957
O O11 0.034198 0.405303 0.319128
O O12 0.128323 0.577541 0.431260
O O13 0.026383 0.842023 0.311923
O O14 0.000000 0.000000 0.219694
O O15 0.478766 0.189935 0.762838
O O16 0.500000 0.000000 0.820584
O O17 0.278005 0.991488 0.845660
#
# Coordination Sequence:
#
# PCOD9580971 Si02
#       8
#     6   6   6   3   6   6   6   6
#     4  11  23  45  72 107 146 191 252 308 382 457
#     4  11  28  45  71 106 150 200 244 316 384 458
#     4  11  26  48  69 106 152 193 248 309 385 455
#     4  12  24  48  78 106 146 188 256 308 374 446
#     4  10  23  46  70 106 145 191 245 305 377 448
#     4  12  27  45  73 105 147 195 248 306 380 458
#     4  11  24  47  72 108 144 194 246 308 376 461
#     4  12  26  46  76 109 146 193 255 317 372 461
#
# _framework density 23.793368999999998
#
# number of rings (size 3 to 8) (size 9 to 14) (size 15 to 20)
#    0.000    0.800    4.000    2.000    3.733    3.200 
#    4.800    0.000    0.000    0.000    0.000    0.000 
#    0.000    0.000    0.000    0.000    0.000    0.000 
#
# Total GULP energy -250971.930373 kJ/mol
# GULP energy per Si atom -5577.154008 kJ/mol
# Density = 2.373921 g / cm^3
# Si number density = 23.793369 Si / 1000 Ang^3
#
#
#
# Elastic Constant Matrix: (Units=GPa)
#
#
# Indices 1 2 3 4 5 6 
#
# 1 80.9784 -9.1198 20.6099 0.0000 0.0000 0.0000
# 2 -9.1198 80.9784 20.6099 0.0000 0.0000 0.0000
# 3 20.6099 20.6099 100.7775 0.0000 0.0000 0.0000
# 4 0.0000 0.0000 0.0000 4.4087 0.0000 0.0000
# 5 0.0000 0.0000 0.0000 0.0000 4.4087 0.0000
# 6 0.0000 0.0000 0.0000 0.0000 0.0000 45.0491
#
#
#
# Elastic Compliance Matrix: (Units=1/GPa)
#
#
# Indices 1 2 3 4 5 6 
#
# 1 0.013432 0.002333 -0.003224 0.000000 0.000000 0.000000
# 2 0.002333 0.013432 -0.003224 0.000000 0.000000 0.000000
# 3 -0.003224 -0.003224 0.011242 0.000000 0.000000 0.000000
# 4 0.000000 0.000000 0.000000 0.226826 0.000000 0.000000
# 5 0.000000 0.000000 0.000000 0.000000 0.226826 0.000000
# 6 0.000000 0.000000 0.000000 0.000000 0.000000 0.022198
#
#
# Mechanical properties :
#
#
# Convention : Reuss Voigt Hill
#
# Bulk Modulus (GPa) = 33.47152 36.32601 34.89876
# Shear Modulus (GPa) = 9.39591 26.14890 17.77241
#
# Velocity S-wave (km/s) = 1.98936 3.31871 2.73600
# Velocity P-wave (km/s) = 4.40169 5.47591 4.96792
#
# Compressibility (1/GPa) = 0.02987615
#
# Stress axis : x y z
#
# Youngs Moduli (GPa) = 74.44707 74.44707 88.95519
#
# Poissons Ratio (x) = -0.17371 0.28681
# Poissons Ratio (y) = -0.17371 0.28681
# Poissons Ratio (z) = 0.24003 0.24003
#
# Static dielectric constant tensor:
#      x y z
#    x 1.947220 0.000000 0.000000 
#    y 0.000000 1.947220 0.000000 
#    z 0.000000 0.000000 1.860360 
# 
# From -- ./inp_files/1718.got.cif
#   From: 2010.05.17/outbox.cif.g08.bks.cpg/sg172_1_cif.got.tgz:1718.got - 2010.05.20 11:19:57.
