data_PCOD9580959
_publ_section_title
;
Structure prediction by ZEFSAII (Michael W. Deem and Ramdas Pophale) SiO2 
 PCOD9580959
Probable space group: P 64
;
_chemical_formula_sum "Si O2"
_cell_formula_units_Z 48
_cell_length_a 20.558494
_cell_length_b 20.558494
_cell_length_c 5.251911
_cell_angle_alpha 90.000000
_cell_angle_beta 90.000000
_cell_angle_gamma 120.000000
_cell_volume 1922.341690
_symmetry_space_group_name_H-M "P 64"
_symmetry_group_IT_number 172
_symmetry_cell_setting 'hexagonal'
loop_
_space_group_symop_operation_xyz
x,y,z
x-y,x,2/3+z
-y,x-y,1/3+z
-x,-y,z
-x+y,-x,2/3+z
y,-x+y,1/3+z
loop_
_atom_site_type_symbol
_atom_site_label
_atom_site_fract_x
_atom_site_fract_y
_atom_site_fract_z
Si Si1 0.802389 0.791307 0.433860
Si Si2 0.255519 0.601298 0.283997
Si Si3 0.406361 0.079913 0.270300
Si Si4 0.765084 0.621369 0.435392
Si Si5 0.090076 0.952937 0.400115
Si Si6 0.107987 0.543945 0.556394
Si Si7 0.114570 0.471358 0.068268
Si Si8 0.070289 0.337028 0.407590
O O1 0.783468 0.706908 0.408615
O O2 0.797599 0.832288 0.183187
O O3 0.886971 0.835417 0.531965
O O4 0.745781 0.790563 0.642053
O O5 0.328770 0.611088 0.426357
O O6 0.197088 0.598928 0.496137
O O7 0.203733 0.523197 0.134372
O O8 0.409838 0.133419 0.500364
O O9 0.478083 0.069689 0.297979
O O10 0.329873 0.998731 0.240165
O O11 0.413399 0.122236 0.004484
O O12 0.843343 0.623860 0.499239
O O13 0.030819 0.925104 0.625697
O O14 0.080773 0.502620 0.285147
O O15 0.102465 0.490086 0.785357
O O16 0.079280 0.385635 0.151027
#
# Coordination Sequence:
#
# PCOD9580959 Si02
#       8
#     6   6   6   6   6   6   6   6
#     4  11  28  46  73 103 150 195 247 314 376 450
#     4  10  22  39  73 103 149 189 245 307 385 449
#     4  11  27  48  77 110 150 204 254 323 389 458
#     4  11  27  45  77 109 149 200 255 321 379 460
#     4  12  26  46  73 106 143 191 240 310 376 445
#     4  10  24  47  72 110 149 194 248 314 385 454
#     4  10  25  44  74 108 146 200 241 318 373 463
#     4  11  27  49  74 110 148 202 265 310 385 465
#
# _framework density 24.969545
#
# number of rings (size 3 to 8) (size 9 to 14) (size 15 to 20)
#    0.750    0.500    0.000    3.750   10.500    9.000 
#    0.000    1.250    0.000    0.000    0.000    0.000 
#    0.000    0.000    0.000    0.000    0.000    0.000 
#
# Total GULP energy -268630.069241 kJ/mol
# GULP energy per Si atom -5596.459776 kJ/mol
# Density = 2.491271 g / cm^3
# Si number density = 24.969545 Si / 1000 Ang^3
#
#
#
# Elastic Constant Matrix: (Units=GPa)
#
#
# Indices 1 2 3 4 5 6 
#
# 1 227.2666 -119.8889 29.2913 0.0000 0.0000 0.0000
# 2 -119.8889 227.2666 29.2913 0.0000 0.0000 0.0000
# 3 29.2913 29.2913 121.4236 0.0000 0.0000 0.0000
# 4 0.0000 0.0000 0.0000 27.2421 0.0000 0.0000
# 5 0.0000 0.0000 0.0000 0.0000 27.2421 0.0000
# 6 0.0000 0.0000 0.0000 0.0000 0.0000 173.5778
#
#
#
# Elastic Compliance Matrix: (Units=1/GPa)
#
#
# Indices 1 2 3 4 5 6 
#
# 1 0.006802 0.003922 -0.002587 0.000000 0.000000 0.000000
# 2 0.003922 0.006802 -0.002587 0.000000 0.000000 0.000000
# 3 -0.002587 -0.002587 0.009484 0.000000 0.000000 0.000000
# 4 0.000000 0.000000 0.000000 0.036708 0.000000 0.000000
# 5 0.000000 0.000000 0.000000 0.000000 0.036708 0.000000
# 6 0.000000 0.000000 0.000000 0.000000 0.000000 0.005761
#
#
# Mechanical properties :
#
#
# Convention : Reuss Voigt Hill
#
# Bulk Modulus (GPa) = 48.58082 50.37159 49.47621
# Shear Modulus (GPa) = 44.79025 88.09660 66.44342
#
# Velocity S-wave (km/s) = 4.23992 5.94628 5.16406
# Velocity P-wave (km/s) = 6.59299 8.20739 7.44408
#
# Compressibility (1/GPa) = 0.02058425
#
# Stress axis : x y z
#
# Youngs Moduli (GPa) = 147.00586 147.00586 105.44299
#
# Poissons Ratio (x) = -0.57654 0.27279
# Poissons Ratio (y) = -0.57654 0.27279
# Poissons Ratio (z) = 0.38031 0.38031
#
# Static dielectric constant tensor:
#      x y z
#    x 1.970120 0.000000 0.000000 
#    y 0.000000 1.970120 0.000000 
#    z 0.000000 0.000000 1.945370 
# 
# From -- ./inp_files/386.got.cif
#   From: 2010.05.17/outbox.cif.g08.bks.cpg/sg172_1_cif.got.tgz:386.got - 2010.05.20 11:19:57.
