data_PCOD9580172
_publ_section_title
;
Structure prediction by ZEFSAII (Michael W. Deem and Ramdas Pophale) SiO2 
 PCOD9580172
Probable space group: P 65
;
_chemical_formula_sum "Si O2"
_cell_formula_units_Z 42
_cell_length_a 14.849333
_cell_length_b 14.849333
_cell_length_c 8.201511
_cell_angle_alpha 90.000000
_cell_angle_beta 90.000000
_cell_angle_gamma 120.000000
_cell_volume 1566.168181
_symmetry_space_group_name_H-M "P 65"
_symmetry_group_IT_number 170
_symmetry_cell_setting 'hexagonal'
loop_
_space_group_symop_operation_xyz
x,y,z
x-y,x,5/6+z
-y,x-y,2/3+z
-x,-y,1/2+z
-x+y,-x,1/3+z
y,-x+y,1/6+z
loop_
_atom_site_type_symbol
_atom_site_label
_atom_site_fract_x
_atom_site_fract_y
_atom_site_fract_z
Si Si1 0.808264 0.835554 0.950740
Si Si2 0.485560 0.956068 0.318679
Si Si3 0.895589 0.279251 0.296373
Si Si4 0.748841 0.429883 0.668188
Si Si5 0.673085 0.180016 0.360806
Si Si6 0.896173 0.295915 0.913536
Si Si7 0.205116 0.068463 0.102870
O O1 0.726075 0.722669 0.011693
O O2 0.789643 0.869474 0.771990
O O3 0.909165 0.827409 0.917699
O O4 0.527745 0.923221 0.163241
O O5 0.419426 0.846677 0.415453
O O6 0.585129 0.060972 0.394052
O O7 0.416708 0.006126 0.262794
O O8 0.791004 0.210202 0.399701
O O9 0.887568 0.256105 0.102078
O O10 0.806589 0.487056 0.832708
O O11 0.627118 0.353467 0.738808
O O12 0.719904 0.501378 0.554119
O O13 0.917512 0.235722 0.772673
O O14 0.172324 0.121657 0.966962
#
# Coordination Sequence:
#
# PCOD9580172 Si02
#       7
#     6   6   6   6   6   6   6
#     4  10  19  32  58  97 117 154 202 252 297 357
#     4  11  22  33  58  92 118 157 201 266 308 364
#     4  11  20  36  60  89 125 157 212 250 308 371
#     4  10  21  37  57  86 120 157 209 254 315 372
#     4  10  22  38  59  89 120 169 206 255 317 382
#     4  10  20  35  56  86 116 156 202 253 304 372
#     4  10  18  31  56  93 114 148 198 242 293 354
#
# _framework density 26.817043999999999
#
# number of rings (size 3 to 8) (size 9 to 14) (size 15 to 20)
#    0.000    1.714    2.857    3.429    2.000    0.000 
#    0.000    1.429    0.000    0.000  226.571    0.000 
#    0.000    0.000    0.000    0.000    0.000    0.000 
#
# Total GULP energy -234352.366466 kJ/mol
# GULP energy per Si atom -5579.818249 kJ/mol
# Density = 2.675601 g / cm^3
# Si number density = 26.817044 Si / 1000 Ang^3
#
#
#
# Elastic Constant Matrix: (Units=GPa)
#
#
# Indices 1 2 3 4 5 6 
#
# 1 98.3380 5.5698 4.7585 0.0000 0.0000 0.0000
# 2 5.5698 98.3380 4.7585 0.0000 0.0000 0.0000
# 3 4.7585 4.7585 53.9966 0.0000 0.0000 0.0000
# 4 0.0000 0.0000 0.0000 11.6949 0.0000 0.0000
# 5 0.0000 0.0000 0.0000 0.0000 11.6949 0.0000
# 6 0.0000 0.0000 0.0000 0.0000 0.0000 46.3841
#
#
#
# Elastic Compliance Matrix: (Units=1/GPa)
#
#
# Indices 1 2 3 4 5 6 
#
# 1 0.010241 -0.000539 -0.000855 0.000000 0.000000 0.000000
# 2 -0.000539 0.010241 -0.000855 0.000000 0.000000 0.000000
# 3 -0.000855 -0.000855 0.018670 0.000000 0.000000 0.000000
# 4 0.000000 0.000000 0.000000 0.085507 0.000000 0.000000
# 5 0.000000 0.000000 0.000000 0.000000 0.085507 0.000000
# 6 0.000000 0.000000 0.000000 0.000000 0.000000 0.021559
#
#
# Mechanical properties :
#
#
# Convention : Reuss Voigt Hill
#
# Bulk Modulus (GPa) = 28.85606 31.20514 30.03060
# Shear Modulus (GPa) = 20.17960 29.66052 24.92006
#
# Velocity S-wave (km/s) = 2.74613 3.32931 3.05169
# Velocity P-wave (km/s) = 4.56494 5.14205 4.86207
#
# Compressibility (1/GPa) = 0.03465477
#
# Stress axis : x y z
#
# Youngs Moduli (GPa) = 97.64780 97.64780 53.56080
#
# Poissons Ratio (x) = 0.05260 0.04580
# Poissons Ratio (y) = 0.05260 0.04580
# Poissons Ratio (z) = 0.08349 0.08349
#
# Static dielectric constant tensor:
#      x y z
#    x 2.198480 0.000000 0.000000 
#    y 0.000000 2.198480 0.000000 
#    z 0.000000 0.000000 2.104980 
# 
# From -- ./inp_files/986.got.cif
#   From: 2010.05.17/outbox.cif.g08.bks.cpg/sg170_cif.got.tgz:986.got - 2010.05.20 11:14:30.
