data_PCOD9580660
_publ_section_title
;
Structure prediction by ZEFSAII (Michael W. Deem and Ramdas Pophale) SiO2 
 PCOD9580660
Probable space group: P 62
;
_chemical_formula_sum "Si O2"
_cell_formula_units_Z 42
_cell_length_a 13.915113
_cell_length_b 13.915113
_cell_length_c 12.887784
_cell_angle_alpha 90.000000
_cell_angle_beta 90.000000
_cell_angle_gamma 120.000000
_cell_volume 2161.137281
_symmetry_space_group_name_H-M "P 62"
_symmetry_group_IT_number 171
_symmetry_cell_setting 'hexagonal'
loop_
_space_group_symop_operation_xyz
x,y,z
x-y,x,1/3+z
-y,x-y,2/3+z
-x,-y,z
-x+y,-x,1/3+z
y,-x+y,2/3+z
loop_
_atom_site_type_symbol
_atom_site_label
_atom_site_fract_x
_atom_site_fract_y
_atom_site_fract_z
Si Si1 0.635737 0.368212 0.745620
Si Si2 0.845549 0.464245 0.866199
Si Si3 0.886466 0.075714 0.830011
Si Si4 0.500000 0.500000 0.081954
Si Si5 0.696288 0.636007 0.238587
Si Si6 0.310397 0.802169 0.626128
Si Si7 0.960481 0.331006 0.794874
Si Si8 0.000000 0.000000 0.994268
O O1 0.747531 0.461205 0.798824
O O2 0.587535 0.396453 0.646090
O O3 0.666707 0.278714 0.699709
O O4 0.551146 0.331068 0.841192
O O5 0.941231 0.590680 0.872090
O O6 0.881535 0.383836 0.809200
O O7 0.756738 0.994596 0.854230
O O8 0.911723 0.201531 0.816356
O O9 0.923521 0.030672 0.731381
O O10 0.961385 0.069175 0.922477
O O11 0.606404 0.547544 0.158905
O O12 0.773209 0.589870 0.286250
O O13 0.640249 0.647592 0.344011
O O14 0.397589 0.920106 0.674523
#
# Coordination Sequence:
#
# PCOD9580660 Si02
#       8
#     6   6   6   3   6   6   6   3
#     4  10  22  41  63  93 136 175 207 273 337 401
#     4  10  23  38  64  95 135 170 222 269 336 410
#     4  11  24  44  70  92 132 172 228 281 343 396
#     4  12  26  40  72 104 140 176 230 276 346 414
#     4  12  24  41  69 101 131 176 222 282 334 415
#     4  11  23  44  64 100 135 175 221 272 341 408
#     4  11  23  41  64  99 127 177 226 274 335 403
#     4  10  24  46  64  98 122 172 228 288 336 396
#
# _framework density 19.434211999999999
#
# number of rings (size 3 to 8) (size 9 to 14) (size 15 to 20)
#    0.000    1.143    4.286    1.714    2.000    2.286 
#    0.000    0.000    0.000    0.000    0.000    0.000 
#    0.000    0.000    0.000    0.000    0.000    0.000 
#
# Total GULP energy -234137.032054 kJ/mol
# GULP energy per Si atom -5574.691239 kJ/mol
# Density = 1.938998 g / cm^3
# Si number density = 19.434212 Si / 1000 Ang^3
#
#
#
# Elastic Constant Matrix: (Units=GPa)
#
#
# Indices 1 2 3 4 5 6 
#
# 1 98.1093 50.9040 45.1424 0.0000 0.0000 0.0000
# 2 50.9040 98.1093 45.1424 0.0000 0.0000 0.0000
# 3 45.1424 45.1424 118.9932 0.0000 0.0000 0.0000
# 4 0.0000 0.0000 0.0000 17.5969 0.0000 0.0000
# 5 0.0000 0.0000 0.0000 0.0000 17.5969 0.0000
# 6 0.0000 0.0000 0.0000 0.0000 0.0000 23.6027
#
#
#
# Elastic Compliance Matrix: (Units=1/GPa)
#
#
# Indices 1 2 3 4 5 6 
#
# 1 0.014949 -0.006235 -0.003306 0.000000 0.000000 0.000000
# 2 -0.006235 0.014949 -0.003306 0.000000 0.000000 0.000000
# 3 -0.003306 -0.003306 0.010912 0.000000 0.000000 0.000000
# 4 0.000000 0.000000 0.000000 0.056828 0.000000 0.000000
# 5 0.000000 0.000000 0.000000 0.000000 0.056828 0.000000
# 6 0.000000 0.000000 0.000000 0.000000 0.000000 0.042368
#
#
# Mechanical properties :
#
#
# Convention : Reuss Voigt Hill
#
# Bulk Modulus (GPa) = 66.15265 66.39884 66.27575
# Shear Modulus (GPa) = 21.97160 23.36082 22.66621
#
# Velocity S-wave (km/s) = 3.36603 3.47081 3.41883
# Velocity P-wave (km/s) = 7.01570 7.09240 7.05416
#
# Compressibility (1/GPa) = 0.01511655
#
# Stress axis : x y z
#
# Youngs Moduli (GPa) = 66.89469 66.89469 91.64214
#
# Poissons Ratio (x) = 0.41710 0.30294
# Poissons Ratio (y) = 0.41710 0.30294
# Poissons Ratio (z) = 0.22113 0.22113
#
# Static dielectric constant tensor:
#      x y z
#    x 1.700450 0.000000 0.000000 
#    y 0.000000 1.700450 0.000000 
#    z 0.000000 0.000000 1.697450 
# 
# From -- ./inp_files/4692.got.cif
#   From: 2010.05.17/outbox.cif.g08.bks.cpg/sg171_3_cif.got.tgz:4692.got - 2010.05.20 11:16:09.
