data_PCOD9580804
_publ_section_title
;
Structure prediction by ZEFSAII (Michael W. Deem and Ramdas Pophale) SiO2 
 PCOD9580804
Probable space group: P 62
;
_chemical_formula_sum "Si O2"
_cell_formula_units_Z 24
_cell_length_a 16.362862
_cell_length_b 16.362862
_cell_length_c 5.057507
_cell_angle_alpha 90.000000
_cell_angle_beta 90.000000
_cell_angle_gamma 120.000000
_cell_volume 1172.696583
_symmetry_space_group_name_H-M "P 62"
_symmetry_group_IT_number 171
_symmetry_cell_setting 'hexagonal'
loop_
_space_group_symop_operation_xyz
x,y,z
x-y,x,1/3+z
-y,x-y,2/3+z
-x,-y,z
-x+y,-x,1/3+z
y,-x+y,2/3+z
loop_
_atom_site_type_symbol
_atom_site_label
_atom_site_fract_x
_atom_site_fract_y
_atom_site_fract_z
Si Si1 0.690478 0.752886 0.695620
Si Si2 0.173947 0.641375 0.458365
Si Si3 0.361207 0.830578 0.304537
Si Si4 0.751494 0.688007 0.200167
O O1 0.581567 0.686168 0.614018
O O2 0.753023 0.738293 0.474793
O O3 0.709742 0.858126 0.745735
O O4 0.703514 0.719341 0.979844
O O5 0.277264 0.728500 0.395289
O O6 0.136306 0.578648 0.193416
O O7 0.113280 0.688210 0.556179
O O8 0.177540 0.577925 0.690903
#
# Coordination Sequence:
#
# PCOD9580804 Si02
#       4
#     6   6   6   6
#     4  11  24  42  64  90 120 157 200 250 310 367
#     4  11  22  36  57  87 126 170 210 246 286 337
#     4  11  22  36  57  87 126 170 210 246 286 337
#     4  11  24  42  64  90 120 157 200 250 310 367
#
# _framework density 20.465653
#
# number of rings (size 3 to 8) (size 9 to 14) (size 15 to 20)
#    0.000    1.000    0.000    7.500    0.000   14.000 
#    0.000    0.000    0.000    7.500    0.000    0.000 
#    0.000    0.000    0.000    0.000    0.000    0.000 
#
# Total GULP energy -134309.458342 kJ/mol
# GULP energy per Si atom -5596.227431 kJ/mol
# Density = 2.041907 g / cm^3
# Si number density = 20.465653 Si / 1000 Ang^3
#
#
#
# Elastic Constant Matrix: (Units=GPa)
#
#
# Indices 1 2 3 4 5 6 
#
# 1 56.0911 9.1024 -8.6615 0.0000 0.0000 0.0000
# 2 9.1024 56.0911 -8.6615 0.0000 0.0000 0.0000
# 3 -8.6615 -8.6615 77.3737 0.0000 0.0000 0.0000
# 4 0.0000 0.0000 0.0000 23.3289 0.0000 0.0000
# 5 0.0000 0.0000 0.0000 0.0000 23.3289 0.0000
# 6 0.0000 0.0000 0.0000 0.0000 0.0000 23.4944
#
#
#
# Elastic Compliance Matrix: (Units=1/GPa)
#
#
# Indices 1 2 3 4 5 6 
#
# 1 0.018545 -0.002736 0.001770 0.000000 0.000000 0.000000
# 2 -0.002736 0.018545 0.001770 0.000000 0.000000 0.000000
# 3 0.001770 0.001770 0.013321 0.000000 0.000000 0.000000
# 4 0.000000 0.000000 0.000000 0.042865 0.000000 0.000000
# 5 0.000000 0.000000 0.000000 0.000000 0.042865 0.000000
# 6 0.000000 0.000000 0.000000 0.000000 0.000000 0.042563
#
#
# Mechanical properties :
#
#
# Convention : Reuss Voigt Hill
#
# Bulk Modulus (GPa) = 19.22417 19.23498 19.22958
# Shear Modulus (GPa) = 25.71510 27.21553 26.46532
#
# Velocity S-wave (km/s) = 3.54856 3.65062 3.59995
# Velocity P-wave (km/s) = 5.11893 5.21425 5.16681
#
# Compressibility (1/GPa) = 0.05201784
#
# Stress axis : x y z
#
# Youngs Moduli (GPa) = 53.92160 53.92160 75.07219
#
# Poissons Ratio (x) = 0.14754 -0.13286
# Poissons Ratio (y) = 0.14754 -0.13286
# Poissons Ratio (z) = -0.09543 -0.09543
#
# Static dielectric constant tensor:
#      x y z
#    x 1.767240 0.000000 0.000000 
#    y 0.000000 1.767240 0.000000 
#    z 0.000000 0.000000 1.689110 
# 
# From -- ./inp_files/235.got.cif
#   From: 2010.05.17/outbox.cif.g08.bks.cpg/sg171_1_cif.got.tgz:235.got - 2010.05.20 11:16:09.
