data_PCOD9580397
_publ_section_title
;
Structure prediction by ZEFSAII (Michael W. Deem and Ramdas Pophale) SiO2 
 PCOD9580397
Probable space group: P 65
;
_chemical_formula_sum "Si O2"
_cell_formula_units_Z 48
_cell_length_a 11.987257
_cell_length_b 11.987257
_cell_length_c 16.249684
_cell_angle_alpha 90.000000
_cell_angle_beta 90.000000
_cell_angle_gamma 120.000000
_cell_volume 2022.158459
_symmetry_space_group_name_H-M "P 65"
_symmetry_group_IT_number 170
_symmetry_cell_setting 'hexagonal'
loop_
_space_group_symop_operation_xyz
x,y,z
x-y,x,5/6+z
-y,x-y,2/3+z
-x,-y,1/2+z
-x+y,-x,1/3+z
y,-x+y,1/6+z
loop_
_atom_site_type_symbol
_atom_site_label
_atom_site_fract_x
_atom_site_fract_y
_atom_site_fract_z
Si Si1 0.709361 0.684577 0.203050
Si Si2 0.411535 0.699093 0.088179
Si Si3 0.182908 0.377919 0.963400
Si Si4 0.257969 0.840208 0.598306
Si Si5 0.422749 0.085362 0.299944
Si Si6 0.612097 0.472995 0.321953
Si Si7 0.982239 0.887411 0.247692
Si Si8 0.634177 0.900952 0.188748
O O1 0.614322 0.587152 0.270696
O O2 0.692393 0.806703 0.187502
O O3 0.695066 0.616326 0.116875
O O4 0.855766 0.746521 0.236818
O O5 0.416918 0.578169 0.129936
O O6 0.263829 0.661392 0.096600
O O7 0.501275 0.827489 0.139251
O O8 0.471631 0.718186 0.997762
O O9 0.288822 0.465583 0.897126
O O10 0.123645 0.230724 0.933953
O O11 0.067965 0.409778 0.965580
O O12 0.250279 0.390724 0.051022
O O13 0.129775 0.751901 0.547529
O O14 0.369848 0.890561 0.529529
O O15 0.272451 0.962067 0.647114
O O16 0.956159 0.951542 0.326382
#
# Coordination Sequence:
#
# PCOD9580397 Si02
#       8
#     6   6   6   6   6   6   6   6
#     4  12  25  46  77 112 146 195 258 310 384 451
#     4  11  27  47  72 105 149 196 246 307 375 445
#     4  12  23  46  73 108 144 193 248 309 375 447
#     4  11  27  51  68 110 152 192 245 305 382 455
#     4  11  27  44  72 107 144 190 250 301 376 448
#     4  11  26  47  78 105 146 195 253 314 370 450
#     4  12  24  44  70 112 149 192 255 317 380 457
#     4  12  27  47  74 109 154 197 247 311 380 459
#
# _framework density 23.737010999999999
#
# number of rings (size 3 to 8) (size 9 to 14) (size 15 to 20)
#    0.000    0.500    6.250    0.000    7.000    5.000 
#    0.000    0.000    0.000    0.000    0.000    0.000 
#    0.000    0.000    0.000    0.000    0.000    0.000 
#
# Total GULP energy -268947.177330 kJ/mol
# GULP energy per Si atom -5603.066194 kJ/mol
# Density = 2.368298 g / cm^3
# Si number density = 23.737011 Si / 1000 Ang^3
#
#
#
# Elastic Constant Matrix: (Units=GPa)
#
#
# Indices 1 2 3 4 5 6 
#
# 1 50.5447 1.8419 32.2606 0.0000 0.0000 0.0000
# 2 1.8419 50.5447 32.2606 0.0000 0.0000 0.0000
# 3 32.2606 32.2606 155.4961 0.0000 0.0000 0.0000
# 4 0.0000 0.0000 0.0000 38.6091 0.0000 0.0000
# 5 0.0000 0.0000 0.0000 0.0000 38.6091 0.0000
# 6 0.0000 0.0000 0.0000 0.0000 0.0000 24.3514
#
#
#
# Elastic Compliance Matrix: (Units=1/GPa)
#
#
# Indices 1 2 3 4 5 6 
#
# 1 0.023087 0.002554 -0.005320 0.000000 0.000000 0.000000
# 2 0.002554 0.023087 -0.005320 0.000000 0.000000 0.000000
# 3 -0.005320 -0.005320 0.008638 0.000000 0.000000 0.000000
# 4 0.000000 0.000000 0.000000 0.025901 0.000000 0.000000
# 5 0.000000 0.000000 0.000000 0.000000 0.025901 0.000000
# 6 0.000000 0.000000 0.000000 0.000000 0.000000 0.041065
#
#
# Mechanical properties :
#
#
# Convention : Reuss Voigt Hill
#
# Bulk Modulus (GPa) = 25.87911 43.25686 34.56799
# Shear Modulus (GPa) = 28.29185 32.99541 30.64363
#
# Velocity S-wave (km/s) = 3.45612 3.73237 3.59690
# Velocity P-wave (km/s) = 5.18193 6.06935 5.64311
#
# Compressibility (1/GPa) = 0.03864120
#
# Stress axis : x y z
#
# Youngs Moduli (GPa) = 43.31498 43.31498 115.76277
#
# Poissons Ratio (x) = -0.11063 0.61582
# Poissons Ratio (y) = -0.11063 0.61582
# Poissons Ratio (z) = 0.23042 0.23042
#
# Static dielectric constant tensor:
#      x y z
#    x 1.900240 0.000000 0.000000 
#    y 0.000000 1.900240 0.000000 
#    z 0.000000 0.000000 1.876040 
# 
# From -- ./inp_files/1444.got.cif
#   From: 2010.05.17/outbox.cif.g08.bks.cpg/sg170_cif.got.tgz:1444.got - 2010.05.20 11:14:30.
