data_PCOD9580493
_publ_section_title
;
Structure prediction by ZEFSAII (Michael W. Deem and Ramdas Pophale) SiO2 
 PCOD9580493
Probable space group: P 62
;
_chemical_formula_sum "Si O2"
_cell_formula_units_Z 48
_cell_length_a 22.617324
_cell_length_b 22.617324
_cell_length_c 5.177457
_cell_angle_alpha 90.000000
_cell_angle_beta 90.000000
_cell_angle_gamma 120.000000
_cell_volume 2293.662802
_symmetry_space_group_name_H-M "P 62"
_symmetry_group_IT_number 171
_symmetry_cell_setting 'hexagonal'
loop_
_space_group_symop_operation_xyz
x,y,z
x-y,x,1/3+z
-y,x-y,2/3+z
-x,-y,z
-x+y,-x,1/3+z
y,-x+y,2/3+z
loop_
_atom_site_type_symbol
_atom_site_label
_atom_site_fract_x
_atom_site_fract_y
_atom_site_fract_z
Si Si1 0.975354 0.354519 0.285950
Si Si2 0.152937 0.586506 0.659194
Si Si3 0.852219 0.141954 0.640298
Si Si4 0.238462 0.994969 0.832777
Si Si5 0.774081 0.122710 0.133424
Si Si6 0.163214 0.665897 0.166368
Si Si7 0.283851 0.593243 0.864402
Si Si8 0.947385 0.565698 0.781673
O O1 0.997376 0.298240 0.326428
O O2 0.895360 0.316652 0.224569
O O3 0.998300 0.397239 0.552158
O O4 0.015376 0.405670 0.052997
O O5 0.143935 0.604230 0.368657
O O6 0.223486 0.584584 0.678061
O O7 0.090533 0.514983 0.749812
O O8 0.160383 0.642944 0.869625
O O9 0.931173 0.184145 0.572704
O O10 0.808523 0.147556 0.407546
O O11 0.829079 0.062346 0.690396
O O12 0.826741 0.162390 0.900413
O O13 0.239307 0.954388 0.087987
O O14 0.698699 0.111000 0.096383
O O15 0.241288 0.719948 0.241314
O O16 0.360908 0.641745 0.759845
#
# Coordination Sequence:
#
# PCOD9580493 Si02
#       8
#     6   6   6   6   6   6   6   6
#     4  11  23  40  60  83 131 156 199 258 301 373
#     4  11  24  38  63  88 111 160 205 249 322 371
#     4  10  20  34  62  84 121 153 204 231 301 348
#     4   9  22  37  60  90 119 166 194 249 296 354
#     4   9  20  36  55  87 117 159 190 245 292 345
#     4  11  24  39  58  92 110 162 204 246 325 370
#     4  10  20  41  63  81 122 148 206 266 305 362
#     4  11  21  41  59  85 124 157 198 253 303 373
#
# _framework density 20.927225
#
# number of rings (size 3 to 8) (size 9 to 14) (size 15 to 20)
#    0.750    1.000    2.500    1.500    1.750    4.000 
#    0.000    3.750    0.000    0.000    0.000    4.375 
#    0.000    0.000    0.000    0.000    0.000    0.000 
#
# Total GULP energy -267797.826597 kJ/mol
# GULP energy per Si atom -5579.121387 kJ/mol
# Density = 2.087959 g / cm^3
# Si number density = 20.927225 Si / 1000 Ang^3
#
#
#
# Elastic Constant Matrix: (Units=GPa)
#
#
# Indices 1 2 3 4 5 6 
#
# 1 31.9988 9.4783 -1.3706 0.0000 0.0000 0.0000
# 2 9.4783 31.9988 -1.3706 0.0000 0.0000 0.0000
# 3 -1.3706 -1.3706 91.1207 0.0000 0.0000 0.0000
# 4 0.0000 0.0000 0.0000 20.0939 0.0000 0.0000
# 5 0.0000 0.0000 0.0000 0.0000 20.0939 0.0000
# 6 0.0000 0.0000 0.0000 0.0000 0.0000 11.2602
#
#
#
# Elastic Compliance Matrix: (Units=1/GPa)
#
#
# Indices 1 2 3 4 5 6 
#
# 1 0.034269 -0.010135 0.000363 0.000000 0.000000 0.000000
# 2 -0.010135 0.034269 0.000363 0.000000 0.000000 0.000000
# 3 0.000363 0.000363 0.010985 0.000000 0.000000 0.000000
# 4 0.000000 0.000000 0.000000 0.049766 0.000000 0.000000
# 5 0.000000 0.000000 0.000000 0.000000 0.049766 0.000000
# 6 0.000000 0.000000 0.000000 0.000000 0.000000 0.088808
#
#
# Mechanical properties :
#
#
# Convention : Reuss Voigt Hill
#
# Bulk Modulus (GPa) = 16.47318 18.73252 17.60285
# Shear Modulus (GPa) = 16.29103 20.18168 18.23636
#
# Velocity S-wave (km/s) = 2.79312 3.10881 2.95518
# Velocity P-wave (km/s) = 4.27677 4.67514 4.48038
#
# Compressibility (1/GPa) = 0.06070472
#
# Stress axis : x y z
#
# Youngs Moduli (GPa) = 29.18098 29.18098 91.03015
#
# Poissons Ratio (x) = 0.29576 -0.03304
# Poissons Ratio (y) = 0.29576 -0.03304
# Poissons Ratio (z) = -0.01059 -0.01059
#
# Static dielectric constant tensor:
#      x y z
#    x 1.774710 0.000000 0.000000 
#    y 0.000000 1.774710 0.000000 
#    z 0.000000 0.000000 1.754780 
# 
# From -- ./inp_files/4315.got.cif
#   From: 2010.05.17/outbox.cif.g08.bks.cpg/sg171_3_cif.got.tgz:4315.got - 2010.05.20 11:16:09.
