data_PCOD9580882
_publ_section_title
;
Structure prediction by ZEFSAII (Michael W. Deem and Ramdas Pophale) SiO2 
 PCOD9580882
Probable space group: P 62
;
_chemical_formula_sum "Si O2"
_cell_formula_units_Z 15
_cell_length_a 7.148543
_cell_length_b 7.148543
_cell_length_c 13.826038
_cell_angle_alpha 90.000000
_cell_angle_beta 90.000000
_cell_angle_gamma 120.000000
_cell_volume 611.876038
_symmetry_space_group_name_H-M "P 62"
_symmetry_group_IT_number 171
_symmetry_cell_setting 'hexagonal'
loop_
_space_group_symop_operation_xyz
x,y,z
x-y,x,1/3+z
-y,x-y,2/3+z
-x,-y,z
-x+y,-x,1/3+z
y,-x+y,2/3+z
loop_
_atom_site_type_symbol
_atom_site_label
_atom_site_fract_x
_atom_site_fract_y
_atom_site_fract_z
Si Si1 0.493340 0.699528 0.247130
Si Si2 0.500000 0.500000 0.896865
Si Si3 0.754928 0.832071 0.444500
O O1 0.500000 0.500000 0.197792
O O2 0.620350 0.748538 0.347149
O O3 0.242549 0.615936 0.274340
O O4 0.634921 0.903816 0.177626
O O5 0.699169 0.673024 0.833974
O O6 0.000000 0.000000 0.418583
#
# Coordination Sequence:
#
# PCOD9580882 Si02
#       3
#     6   3   6
#     4  12  27  54  83 124 168 226 283 357 425 507
#     4  12  28  50  84 116 164 220 276 350 424 512
#     4  12  28  54  84 123 171 218 288 353 428 510
#
# _framework density 24.514769999999999
#
# number of rings (size 3 to 8) (size 9 to 14) (size 15 to 20)
#    0.000    0.000    4.000    4.800    5.600    0.000 
#    7.200    0.000    0.000    0.000    0.000    0.000 
#    0.000    0.000    0.000    0.000    0.000    0.000 
#
# Total GULP energy -83940.465143 kJ/mol
# GULP energy per Si atom -5596.031010 kJ/mol
# Density = 2.445897 g / cm^3
# Si number density = 24.514770 Si / 1000 Ang^3
#
#
#
# Elastic Constant Matrix: (Units=GPa)
#
#
# Indices 1 2 3 4 5 6 
#
# 1 221.1507 84.2730 81.2715 0.0000 0.0000 0.0000
# 2 84.2730 221.1507 81.2715 0.0000 0.0000 0.0000
# 3 81.2715 81.2715 140.0937 0.0000 0.0000 0.0000
# 4 0.0000 0.0000 0.0000 64.6037 0.0000 0.0000
# 5 0.0000 0.0000 0.0000 0.0000 64.6037 0.0000
# 6 0.0000 0.0000 0.0000 0.0000 0.0000 68.4388
#
#
#
# Elastic Compliance Matrix: (Units=1/GPa)
#
#
# Indices 1 2 3 4 5 6 
#
# 1 0.006021 -0.001285 -0.002748 0.000000 0.000000 0.000000
# 2 -0.001285 0.006021 -0.002748 0.000000 0.000000 0.000000
# 3 -0.002748 -0.002748 0.010326 0.000000 0.000000 0.000000
# 4 0.000000 0.000000 0.000000 0.015479 0.000000 0.000000
# 5 0.000000 0.000000 0.000000 0.000000 0.015479 0.000000
# 6 0.000000 0.000000 0.000000 0.000000 0.000000 0.014612
#
#
# Mechanical properties :
#
#
# Convention : Reuss Voigt Hill
#
# Bulk Modulus (GPa) = 113.53159 119.55858 116.54509
# Shear Modulus (GPa) = 59.21774 61.90120 60.55947
#
# Velocity S-wave (km/s) = 4.92020 5.03045 4.97563
# Velocity P-wave (km/s) = 8.87073 9.08936 8.98071
#
# Compressibility (1/GPa) = 0.00880812
#
# Stress axis : x y z
#
# Youngs Moduli (GPa) = 166.08206 166.08206 96.84192
#
# Poissons Ratio (x) = 0.21336 0.26609
# Poissons Ratio (y) = 0.21336 0.26609
# Poissons Ratio (z) = 0.45635 0.45635
#
# Static dielectric constant tensor:
#      x y z
#    x 1.870430 0.000000 0.000000 
#    y 0.000000 1.870430 0.000000 
#    z 0.000000 0.000000 1.906850 
# 
# From -- ./inp_files/2213.got.cif
#   From: 2010.05.17/outbox.cif.g08.bks.cpg/sg171_2_cif.got.tgz:2213.got - 2010.05.20 11:16:09.
