data_PCOD9580777
_publ_section_title
;
Structure prediction by ZEFSAII (Michael W. Deem and Ramdas Pophale) SiO2 
 PCOD9580777
Probable space group: P 62
;
_chemical_formula_sum "Si O2"
_cell_formula_units_Z 33
_cell_length_a 9.753659
_cell_length_b 9.753659
_cell_length_c 17.165367
_cell_angle_alpha 90.000000
_cell_angle_beta 90.000000
_cell_angle_gamma 120.000000
_cell_volume 1414.226142
_symmetry_space_group_name_H-M "P 62"
_symmetry_group_IT_number 171
_symmetry_cell_setting 'hexagonal'
loop_
_space_group_symop_operation_xyz
x,y,z
x-y,x,1/3+z
-y,x-y,2/3+z
-x,-y,z
-x+y,-x,1/3+z
y,-x+y,2/3+z
loop_
_atom_site_type_symbol
_atom_site_label
_atom_site_fract_x
_atom_site_fract_y
_atom_site_fract_z
Si Si1 0.500000 0.000000 0.268930
Si Si2 0.000000 0.000000 0.010769
Si Si3 0.605134 0.371695 0.076584
Si Si4 0.274164 0.953166 0.401683
Si Si5 0.000000 0.500000 0.546103
Si Si6 0.729150 0.153530 0.128326
Si Si7 0.888923 0.223492 0.666874
O O1 0.605664 0.962760 0.328542
O O2 0.636079 0.116678 0.209455
O O3 0.956087 0.842759 0.058736
O O4 0.837801 0.941357 0.966357
O O5 0.773229 0.534734 0.069104
O O6 0.530779 0.387091 0.156778
O O7 0.652503 0.236575 0.078068
O O8 0.455347 0.296284 0.017970
O O9 0.362928 0.083485 0.469259
O O10 0.942877 0.353547 0.601745
O O11 0.698407 0.996653 0.079699
#
# Coordination Sequence:
#
# PCOD9580777 Si02
#       7
#     3   3   6   6   3   6   6
#     4  12  23  42  78 101 146 208 236 320 396 441
#     4  10  26  46  70  98 148 194 232 314 388 446
#     4  12  23  44  71 109 144 194 257 315 370 471
#     4  11  26  47  70 111 151 188 259 322 377 459
#     4  12  27  40  76 101 148 208 244 324 390 443
#     4  11  23  42  73 108 143 194 249 309 384 466
#     4  11  24  47  71 111 151 194 257 314 387 466
#
# _framework density 23.334315
#
# number of rings (size 3 to 8) (size 9 to 14) (size 15 to 20)
#    0.000    0.727    5.455    1.091    7.636    1.455 
#    0.000    7.273    0.000    0.000    0.000    0.000 
#    0.000    0.000    0.000    0.000    0.000    0.000 
#
# Total GULP energy -183956.055754 kJ/mol
# GULP energy per Si atom -5574.425932 kJ/mol
# Density = 2.328121 g / cm^3
# Si number density = 23.334315 Si / 1000 Ang^3
#
#
#
# Elastic Constant Matrix: (Units=GPa)
#
#
# Indices 1 2 3 4 5 6 
#
# 1 127.4647 60.9075 39.6033 0.0000 0.0000 0.0000
# 2 60.9075 127.4647 39.6033 0.0000 0.0000 0.0000
# 3 39.6033 39.6033 78.2626 0.0000 0.0000 0.0000
# 4 0.0000 0.0000 0.0000 5.1517 0.0000 0.0000
# 5 0.0000 0.0000 0.0000 0.0000 5.1517 0.0000
# 6 0.0000 0.0000 0.0000 0.0000 0.0000 33.2786
#
#
#
# Elastic Compliance Matrix: (Units=1/GPa)
#
#
# Indices 1 2 3 4 5 6 
#
# 1 0.010884 -0.004141 -0.003412 0.000000 0.000000 0.000000
# 2 -0.004141 0.010884 -0.003412 0.000000 0.000000 0.000000
# 3 -0.003412 -0.003412 0.016231 0.000000 0.000000 0.000000
# 4 0.000000 0.000000 0.000000 0.194111 0.000000 0.000000
# 5 0.000000 0.000000 0.000000 0.000000 0.194111 0.000000
# 6 0.000000 0.000000 0.000000 0.000000 0.000000 0.030049
#
#
# Mechanical properties :
#
#
# Convention : Reuss Voigt Hill
#
# Bulk Modulus (GPa) = 62.23402 68.15782 65.19592
# Shear Modulus (GPa) = 10.34004 21.58825 15.96414
#
# Velocity S-wave (km/s) = 2.10734 3.04496 2.61846
# Velocity P-wave (km/s) = 5.71399 6.45253 6.09445
#
# Compressibility (1/GPa) = 0.01606838
#
# Stress axis : x y z
#
# Youngs Moduli (GPa) = 91.87726 91.87726 61.61022
#
# Poissons Ratio (x) = 0.38043 0.21024
# Poissons Ratio (y) = 0.38043 0.21024
# Poissons Ratio (z) = 0.31352 0.31352
#
# Static dielectric constant tensor:
#      x y z
#    x 1.968440 0.000000 0.000000 
#    y 0.000000 1.968440 0.000000 
#    z 0.000000 0.000000 1.850640 
# 
# From -- ./inp_files/2933.got.cif
#   From: 2010.05.17/outbox.cif.g08.bks.cpg/sg171_2_cif.got.tgz:2933.got - 2010.05.20 11:16:09.
