data_PCOD9580286
_publ_section_title
;
Structure prediction by ZEFSAII (Michael W. Deem and Ramdas Pophale) SiO2 
 PCOD9580286
Probable space group: P 65
;
_chemical_formula_sum "Si O2"
_cell_formula_units_Z 36
_cell_length_a 20.274239
_cell_length_b 20.274239
_cell_length_c 4.923401
_cell_angle_alpha 90.000000
_cell_angle_beta 90.000000
_cell_angle_gamma 120.000000
_cell_volume 1752.608707
_symmetry_space_group_name_H-M "P 65"
_symmetry_group_IT_number 170
_symmetry_cell_setting 'hexagonal'
loop_
_space_group_symop_operation_xyz
x,y,z
x-y,x,5/6+z
-y,x-y,2/3+z
-x,-y,1/2+z
-x+y,-x,1/3+z
y,-x+y,1/6+z
loop_
_atom_site_type_symbol
_atom_site_label
_atom_site_fract_x
_atom_site_fract_y
_atom_site_fract_z
Si Si1 0.066106 0.384474 0.303130
Si Si2 0.095392 0.724958 0.913271
Si Si3 0.507628 0.303711 0.840722
Si Si4 0.356612 0.533065 0.435844
Si Si5 0.472092 0.025202 0.301334
Si Si6 0.185112 0.809208 0.375835
O O1 0.130863 0.450499 0.490286
O O2 0.107366 0.345015 0.154283
O O3 0.993534 0.320935 0.459360
O O4 0.026712 0.413550 0.084138
O O5 0.125083 0.664800 0.962301
O O6 0.130547 0.757043 0.616585
O O7 0.133886 0.795031 0.115817
O O8 0.536016 0.257469 0.647220
O O9 0.575250 0.380844 0.967396
O O10 0.458581 0.248059 0.087204
O O11 0.390504 0.506071 0.183299
O O12 0.480567 0.998549 0.006167
#
# Coordination Sequence:
#
# PCOD9580286 Si02
#       6
#     6   6   6   6   6   6
#     4  11  23  41  66  88 123 163 212 266 319 375
#     4  10  25  40  66  89 124 163 212 258 321 384
#     4  11  23  43  58  91 120 166 213 274 325 384
#     4  10  22  41  57  89 115 164 205 271 319 371
#     4  11  23  39  61  84 114 155 215 258 307 376
#     4  11  22  44  60  93 124 157 211 263 317 380
#
# _framework density 20.540808999999999
#
# number of rings (size 3 to 8) (size 9 to 14) (size 15 to 20)
#    0.000    1.333    5.000    1.000    2.333    8.000 
#    9.000    0.000    0.000    0.000    0.000    0.000 
#    0.000    0.000    0.000    3.000    5.333    0.333 
#
# Total GULP energy -200700.928954 kJ/mol
# GULP energy per Si atom -5575.025804 kJ/mol
# Density = 2.049406 g / cm^3
# Si number density = 20.540809 Si / 1000 Ang^3
#
#
#
# Elastic Constant Matrix: (Units=GPa)
#
#
# Indices 1 2 3 4 5 6 
#
# 1 95.2884 35.7055 10.6927 0.0000 0.0000 0.0000
# 2 35.7055 95.2884 10.6927 0.0000 0.0000 0.0000
# 3 10.6927 10.6927 65.9681 0.0000 0.0000 0.0000
# 4 0.0000 0.0000 0.0000 21.9940 0.0000 0.0000
# 5 0.0000 0.0000 0.0000 0.0000 21.9940 0.0000
# 6 0.0000 0.0000 0.0000 0.0000 0.0000 29.7914
#
#
#
# Elastic Compliance Matrix: (Units=1/GPa)
#
#
# Indices 1 2 3 4 5 6 
#
# 1 0.012312 -0.004471 -0.001271 0.000000 0.000000 0.000000
# 2 -0.004471 0.012312 -0.001271 0.000000 0.000000 0.000000
# 3 -0.001271 -0.001271 0.015571 0.000000 0.000000 0.000000
# 4 0.000000 0.000000 0.000000 0.045467 0.000000 0.000000
# 5 0.000000 0.000000 0.000000 0.000000 0.045467 0.000000
# 6 0.000000 0.000000 0.000000 0.000000 0.000000 0.033567
#
#
# Mechanical properties :
#
#
# Convention : Reuss Voigt Hill
#
# Bulk Modulus (GPa) = 38.21212 41.19187 39.70200
# Shear Modulus (GPa) = 26.67442 28.05281 27.36362
#
# Velocity S-wave (km/s) = 3.60753 3.69956 3.65383
# Velocity P-wave (km/s) = 5.99965 6.19243 6.09680
#
# Compressibility (1/GPa) = 0.02616970
#
# Stress axis : x y z
#
# Youngs Moduli (GPa) = 81.21899 81.21899 64.22251
#
# Poissons Ratio (x) = 0.36313 0.08163
# Poissons Ratio (y) = 0.36313 0.08163
# Poissons Ratio (z) = 0.10323 0.10323
#
# Static dielectric constant tensor:
#      x y z
#    x 1.792180 0.000000 0.000000 
#    y 0.000000 1.792180 0.000000 
#    z 0.000000 0.000000 1.839960 
# 
# From -- ./inp_files/244.got.cif
#   From: 2010.05.17/outbox.cif.g08.bks.cpg/sg170_cif.got.tgz:244.got - 2010.05.20 11:14:30.
