data_PCOD9580247
_publ_section_title
;
Structure prediction by ZEFSAII (Michael W. Deem and Ramdas Pophale) SiO2 
 PCOD9580247
Probable space group: P 65
;
_chemical_formula_sum "Si O2"
_cell_formula_units_Z 48
_cell_length_a 16.601921
_cell_length_b 16.601921
_cell_length_c 7.485724
_cell_angle_alpha 90.000000
_cell_angle_beta 90.000000
_cell_angle_gamma 120.000000
_cell_volume 1786.821330
_symmetry_space_group_name_H-M "P 65"
_symmetry_group_IT_number 170
_symmetry_cell_setting 'hexagonal'
loop_
_space_group_symop_operation_xyz
x,y,z
x-y,x,5/6+z
-y,x-y,2/3+z
-x,-y,1/2+z
-x+y,-x,1/3+z
y,-x+y,1/6+z
loop_
_atom_site_type_symbol
_atom_site_label
_atom_site_fract_x
_atom_site_fract_y
_atom_site_fract_z
Si Si1 0.300699 0.321701 0.308840
Si Si2 0.187657 0.045960 0.660652
Si Si3 0.901401 0.550167 0.951862
Si Si4 0.725299 0.648307 0.434235
Si Si5 0.201385 0.712117 0.674884
Si Si6 0.272187 0.596346 0.050757
Si Si7 0.087201 0.579549 0.993791
Si Si8 0.887271 0.681625 0.240271
O O1 0.216495 0.219211 0.334617
O O2 0.374480 0.332428 0.459787
O O3 0.246329 0.379980 0.334639
O O4 0.335571 0.361051 0.112127
O O5 0.150235 0.110344 0.595723
O O6 0.274166 0.112285 0.789117
O O7 0.792287 0.489788 0.907397
O O8 0.975480 0.514760 0.979466
O O9 0.891973 0.600308 0.129844
O O10 0.660196 0.569138 0.290793
O O11 0.822661 0.647774 0.416592
O O12 0.753590 0.756994 0.413207
O O13 0.225314 0.692902 0.478736
O O14 0.139655 0.627323 0.807330
O O15 0.309925 0.686227 0.184065
O O16 0.159712 0.548550 0.059125
#
# Coordination Sequence:
#
# PCOD9580247 Si02
#       8
#     6   6   6   6   6   6   6   6
#     4  11  22  38  65  94 125 165 225 284 336 396
#     4  12  22  40  54  77 119 174 220 273 336 401
#     4  10  20  41  69  95 128 178 225 280 344 399
#     4  11  23  35  59  94 124 163 220 282 330 395
#     4  11  21  42  73  97 134 179 222 271 337 413
#     4  12  25  46  72 104 137 181 225 268 341 430
#     4  10  22  44  66  99 139 174 221 274 337 406
#     4  11  19  36  60  80 118 168 216 268 335 394
#
# _framework density 26.863347999999998
#
# number of rings (size 3 to 8) (size 9 to 14) (size 15 to 20)
#    0.000    1.000    6.250    1.500    3.500    0.000 
#    2.250    5.000    0.000    0.000    0.000    0.000 
#    0.000    0.000    0.000    0.000    0.000    0.000 
#
# Total GULP energy -267519.198125 kJ/mol
# GULP energy per Si atom -5573.316628 kJ/mol
# Density = 2.680221 g / cm^3
# Si number density = 26.863348 Si / 1000 Ang^3
#
#
#
# Elastic Constant Matrix: (Units=GPa)
#
#
# Indices 1 2 3 4 5 6 
#
# 1 84.9529 21.7441 26.7775 0.0000 0.0000 0.0000
# 2 21.7441 84.9529 26.7775 0.0000 0.0000 0.0000
# 3 26.7775 26.7775 112.9794 0.0000 0.0000 0.0000
# 4 0.0000 0.0000 0.0000 33.7534 0.0000 0.0000
# 5 0.0000 0.0000 0.0000 0.0000 33.7534 0.0000
# 6 0.0000 0.0000 0.0000 0.0000 0.0000 31.6044
#
#
#
# Elastic Compliance Matrix: (Units=1/GPa)
#
#
# Indices 1 2 3 4 5 6 
#
# 1 0.013229 -0.002591 -0.002521 0.000000 0.000000 0.000000
# 2 -0.002591 0.013229 -0.002521 0.000000 0.000000 0.000000
# 3 -0.002521 -0.002521 0.010046 0.000000 0.000000 0.000000
# 4 0.000000 0.000000 0.000000 0.029627 0.000000 0.000000
# 5 0.000000 0.000000 0.000000 0.000000 0.029627 0.000000
# 6 0.000000 0.000000 0.000000 0.000000 0.000000 0.031641
#
#
# Mechanical properties :
#
#
# Convention : Reuss Voigt Hill
#
# Bulk Modulus (GPa) = 47.08794 48.16479 47.62637
# Shear Modulus (GPa) = 33.38985 33.66132 33.52558
#
# Velocity S-wave (km/s) = 3.52938 3.54370 3.53654
# Velocity P-wave (km/s) = 5.84597 5.89170 5.86888
#
# Compressibility (1/GPa) = 0.02123686
#
# Stress axis : x y z
#
# Youngs Moduli (GPa) = 75.59021 75.59021 99.53889
#
# Poissons Ratio (x) = 0.19588 0.25097
# Poissons Ratio (y) = 0.19588 0.25097
# Poissons Ratio (z) = 0.19059 0.19059
#
# Static dielectric constant tensor:
#      x y z
#    x 2.132420 0.000000 0.000000 
#    y 0.000000 2.132420 0.000000 
#    z 0.000000 0.000000 2.443500 
# 
# From -- ./inp_files/757.got.cif
#   From: 2010.05.17/outbox.cif.g08.bks.cpg/sg170_cif.got.tgz:757.got - 2010.05.20 11:14:30.
