data_PCOD9580210
_publ_section_title
;
Structure prediction by ZEFSAII (Michael W. Deem and Ramdas Pophale) SiO2 
 PCOD9580210
Probable space group: P 65
;
_chemical_formula_sum "Si O2"
_cell_formula_units_Z 30
_cell_length_a 7.899828
_cell_length_b 7.899828
_cell_length_c 24.565299
_cell_angle_alpha 90.000000
_cell_angle_beta 90.000000
_cell_angle_gamma 120.000000
_cell_volume 1327.663322
_symmetry_space_group_name_H-M "P 65"
_symmetry_group_IT_number 170
_symmetry_cell_setting 'hexagonal'
loop_
_space_group_symop_operation_xyz
x,y,z
x-y,x,5/6+z
-y,x-y,2/3+z
-x,-y,1/2+z
-x+y,-x,1/3+z
y,-x+y,1/6+z
loop_
_atom_site_type_symbol
_atom_site_label
_atom_site_fract_x
_atom_site_fract_y
_atom_site_fract_z
Si Si1 0.182668 0.403007 0.885790
Si Si2 0.932658 0.466330 0.489480
Si Si3 0.144780 0.982157 0.781105
Si Si4 0.779662 0.596989 0.259834
Si Si5 0.162626 0.017849 0.364519
O O1 0.321907 0.321907 0.906145
O O2 0.235076 0.470159 0.822812
O O3 0.183155 0.540087 0.934244
O O4 0.963514 0.208524 0.884810
O O5 0.052754 0.361430 0.472541
O O6 0.816840 0.356934 0.544715
O O7 0.052760 0.691326 0.506418
O O8 0.245013 0.208530 0.760815
O O9 0.990486 0.980976 0.822811
O O10 0.000005 0.819470 0.739478
#
# Coordination Sequence:
#
# PCOD9580210 Si02
#       5
#     6   6   6   6   6
#     4  10  19  39  65 106 148 202 267 331 396 479
#     4  12  20  36  78 100 144 222 256 316 428 464
#     4  10  19  39  67 103 146 196 263 324 390 477
#     4  10  19  39  65 106 148 202 267 331 396 479
#     4  10  19  39  67 103 146 196 263 324 390 477
#
# _framework density 22.59609
#
# number of rings (size 3 to 8) (size 9 to 14) (size 15 to 20)
#    0.000    1.600   12.000    0.000    0.000    0.000 
#    3.600    0.000    4.400    4.800    0.000    0.000 
#    0.000    0.000    0.000    0.000    0.000    0.000 
#
# Total GULP energy -167142.056760 kJ/mol
# GULP energy per Si atom -5571.401892 kJ/mol
# Density = 2.254466 g / cm^3
# Si number density = 22.596090 Si / 1000 Ang^3
#
#
#
# Elastic Constant Matrix: (Units=GPa)
#
#
# Indices 1 2 3 4 5 6 
#
# 1 95.6074 51.7410 61.4395 0.0000 0.0000 0.0000
# 2 51.7410 95.6074 61.4395 0.0000 0.0000 0.0000
# 3 61.4395 61.4395 214.8798 0.0000 0.0000 0.0000
# 4 0.0000 0.0000 0.0000 18.5756 0.0000 0.0000
# 5 0.0000 0.0000 0.0000 0.0000 18.5756 0.0000
# 6 0.0000 0.0000 0.0000 0.0000 0.0000 21.9332
#
#
#
# Elastic Compliance Matrix: (Units=1/GPa)
#
#
# Indices 1 2 3 4 5 6 
#
# 1 0.015854 -0.006943 -0.002548 0.000000 0.000000 0.000000
# 2 -0.006943 0.015854 -0.002548 0.000000 0.000000 0.000000
# 3 -0.002548 -0.002548 0.006111 0.000000 0.000000 0.000000
# 4 0.000000 0.000000 0.000000 0.053834 0.000000 0.000000
# 5 0.000000 0.000000 0.000000 0.000000 0.053834 0.000000
# 6 0.000000 0.000000 0.000000 0.000000 0.000000 0.045593
#
#
# Mechanical properties :
#
#
# Convention : Reuss Voigt Hill
#
# Bulk Modulus (GPa) = 72.77070 83.92608 78.34839
# Shear Modulus (GPa) = 22.75439 27.24851 25.00145
#
# Velocity S-wave (km/s) = 3.17678 3.47637 3.32994
# Velocity P-wave (km/s) = 6.76246 7.30315 7.03800
#
# Compressibility (1/GPa) = 0.01374179
#
# Stress axis : x y z
#
# Youngs Moduli (GPa) = 63.07544 63.07544 163.64326
#
# Poissons Ratio (x) = 0.43790 0.41697
# Poissons Ratio (y) = 0.43790 0.41697
# Poissons Ratio (z) = 0.16072 0.16072
#
# Static dielectric constant tensor:
#      x y z
#    x 1.865360 0.000000 0.000000 
#    y 0.000000 1.865360 0.000000 
#    z 0.000000 0.000000 1.858980 
# 
# From -- ./inp_files/1767.got.cif
#   From: 2010.05.17/outbox.cif.g08.bks.cpg/sg170_cif.got.tgz:1767.got - 2010.05.20 11:14:30.
