data_PCOD9580429
_publ_section_title
;
Structure prediction by ZEFSAII (Michael W. Deem and Ramdas Pophale) SiO2 
 PCOD9580429
Probable space group: P 62
;
_chemical_formula_sum "Si O2"
_cell_formula_units_Z 30
_cell_length_a 18.814707
_cell_length_b 18.814707
_cell_length_c 4.951427
_cell_angle_alpha 90.000000
_cell_angle_beta 90.000000
_cell_angle_gamma 120.000000
_cell_volume 1517.944634
_symmetry_space_group_name_H-M "P 62"
_symmetry_group_IT_number 171
_symmetry_cell_setting 'hexagonal'
loop_
_space_group_symop_operation_xyz
x,y,z
x-y,x,1/3+z
-y,x-y,2/3+z
-x,-y,z
-x+y,-x,1/3+z
y,-x+y,2/3+z
loop_
_atom_site_type_symbol
_atom_site_label
_atom_site_fract_x
_atom_site_fract_y
_atom_site_fract_z
Si Si1 0.741554 0.551573 0.134410
Si Si2 0.279909 0.839407 0.977726
Si Si3 0.618763 0.379559 0.353148
Si Si4 0.788348 0.725834 0.071408
Si Si5 0.777594 0.046116 0.213188
O O1 0.813812 0.557295 0.332117
O O2 0.663978 0.461899 0.176505
O O3 0.768591 0.560612 0.824719
O O4 0.737918 0.633212 0.191252
O O5 0.358752 0.832629 0.067978
O O6 0.276026 0.918607 0.069429
O O7 0.687804 0.395039 0.571414
O O8 0.743938 0.736963 0.812585
O O9 0.875995 0.739207 0.973860
O O10 0.794393 0.785235 0.313574
#
# Coordination Sequence:
#
# PCOD9580429 Si02
#       5
#     6   6   6   6   6
#     4  10  20  34  56  87 121 156 203 245 289 342
#     4  10  20  34  56  87 121 156 203 245 289 342
#     4  10  18  32  55  84 122 164 212 248 285 312
#     4  11  22  40  64  90 116 152 193 241 299 370
#     4  11  22  40  64  90 116 152 193 241 299 370
#
# _framework density 19.763567999999999
#
# number of rings (size 3 to 8) (size 9 to 14) (size 15 to 20)
#    0.000    1.600    2.000    6.000    0.000    0.000 
#    0.000    1.000    0.000   18.000    0.000    0.000 
#    0.000    0.000    0.000    0.000    0.000    0.000 
#
# Total GULP energy -167036.232974 kJ/mol
# GULP energy per Si atom -5567.874432 kJ/mol
# Density = 1.971859 g / cm^3
# Si number density = 19.763568 Si / 1000 Ang^3
#
#
#
# Elastic Constant Matrix: (Units=GPa)
#
#
# Indices 1 2 3 4 5 6 
#
# 1 81.4756 45.3440 23.7835 0.0000 0.0000 0.0000
# 2 45.3440 81.4756 23.7835 0.0000 0.0000 0.0000
# 3 23.7835 23.7835 80.5043 0.0000 0.0000 0.0000
# 4 0.0000 0.0000 0.0000 34.0386 0.0000 0.0000
# 5 0.0000 0.0000 0.0000 0.0000 34.0386 0.0000
# 6 0.0000 0.0000 0.0000 0.0000 0.0000 18.0658
#
#
#
# Elastic Compliance Matrix: (Units=1/GPa)
#
#
# Indices 1 2 3 4 5 6 
#
# 1 0.018272 -0.009404 -0.002620 0.000000 0.000000 0.000000
# 2 -0.009404 0.018272 -0.002620 0.000000 0.000000 0.000000
# 3 -0.002620 -0.002620 0.013970 0.000000 0.000000 0.000000
# 4 0.000000 0.000000 0.000000 0.029378 0.000000 0.000000
# 5 0.000000 0.000000 0.000000 0.000000 0.029378 0.000000
# 6 0.000000 0.000000 0.000000 0.000000 0.000000 0.055353
#
#
# Mechanical properties :
#
#
# Convention : Reuss Voigt Hill
#
# Bulk Modulus (GPa) = 47.11204 47.69752 47.40478
# Shear Modulus (GPa) = 24.87716 27.26489 26.07103
#
# Velocity S-wave (km/s) = 3.55172 3.71826 3.63594
# Velocity P-wave (km/s) = 6.38038 6.52843 6.45483
#
# Compressibility (1/GPa) = 0.02122599
#
# Stress axis : x y z
#
# Youngs Moduli (GPa) = 54.72791 54.72791 71.58365
#
# Poissons Ratio (x) = 0.51468 0.18754
# Poissons Ratio (y) = 0.51468 0.18754
# Poissons Ratio (z) = 0.14338 0.14338
#
# Static dielectric constant tensor:
#      x y z
#    x 1.744170 0.000000 0.000000 
#    y 0.000000 1.744170 0.000000 
#    z 0.000000 0.000000 1.747470 
# 
# From -- ./inp_files/303.got.cif
#   From: 2010.05.17/outbox.cif.g08.bks.cpg/sg171_1_cif.got.tgz:303.got - 2010.05.20 11:16:09.
