data_PCOD9580105
_publ_section_title
;
Structure prediction by ZEFSAII (Michael W. Deem and Ramdas Pophale) SiO2 
 PCOD9580105
Probable space group: P 61
;
_chemical_formula_sum "Si O2"
_cell_formula_units_Z 48
_cell_length_a 14.419710
_cell_length_b 14.419710
_cell_length_c 12.206672
_cell_angle_alpha 90.000000
_cell_angle_beta 90.000000
_cell_angle_gamma 120.000000
_cell_volume 2198.067167
_symmetry_space_group_name_H-M "P 61"
_symmetry_group_IT_number 169
_symmetry_cell_setting 'hexagonal'
loop_
_space_group_symop_operation_xyz
x,y,z
x-y,x,1/6+z
-y,x-y,1/3+z
-x,-y,1/2+z
-x+y,-x,2/3+z
y,-x+y,5/6+z
loop_
_atom_site_type_symbol
_atom_site_label
_atom_site_fract_x
_atom_site_fract_y
_atom_site_fract_z
Si Si1 0.143906 0.761916 0.210050
Si Si2 0.202315 0.577770 0.236061
Si Si3 0.799471 0.863291 0.721301
Si Si4 0.323963 0.913891 0.366172
Si Si5 0.001501 0.652456 0.770551
Si Si6 0.600586 0.501899 0.404543
Si Si7 0.682469 0.284921 0.189201
Si Si8 0.478526 0.549017 0.241786
O O1 0.171684 0.666124 0.196022
O O2 0.158763 0.847519 0.115714
O O3 0.215136 0.825982 0.313307
O O4 0.017719 0.700455 0.226944
O O5 0.108576 0.459161 0.255127
O O6 0.270449 0.621327 0.345753
O O7 0.283081 0.572221 0.148187
O O8 0.876501 0.850746 0.814104
O O9 0.753939 0.761992 0.638318
O O10 0.417967 0.938569 0.278577
O O11 0.369939 0.888945 0.473416
O O12 0.057649 0.659492 0.654456
O O13 0.055102 0.618587 0.867547
O O14 0.663129 0.439659 0.433928
O O15 0.576701 0.534787 0.287185
O O16 0.605970 0.159916 0.165948
#
# Coordination Sequence:
#
# PCOD9580105 Si02
#       8
#     6   6   6   6   6   6   6   6
#     4  12  22  44  70 107 142 181 241 301 357 436
#     4  12  24  40  65 105 148 194 235 292 359 435
#     4  12  29  50  85 108 139 191 256 321 375 430
#     4  11  23  40  67  99 140 187 238 298 362 429
#     4  11  25  43  70 103 145 186 244 304 370 438
#     4  11  23  42  63  99 144 190 242 295 363 449
#     4  12  26  38  65  97 144 190 239 289 362 436
#     4  11  24  41  63  98 146 195 239 298 360 453
#
# _framework density 21.837368000000001
#
# number of rings (size 3 to 8) (size 9 to 14) (size 15 to 20)
#    0.000    0.500    6.250    3.000    8.750    0.000 
#    0.000    0.000    5.500    0.000    0.000    0.000 
#    0.000    0.000    0.000    0.000    0.000    0.000 
#
# Total GULP energy -267872.888878 kJ/mol
# GULP energy per Si atom -5580.685185 kJ/mol
# Density = 2.178766 g / cm^3
# Si number density = 21.837368 Si / 1000 Ang^3
#
#
#
# Elastic Constant Matrix: (Units=GPa)
#
#
# Indices 1 2 3 4 5 6 
#
# 1 91.7499 25.5743 30.9983 0.0000 0.0000 0.0000
# 2 25.5743 91.7499 30.9983 0.0000 0.0000 0.0000
# 3 30.9983 30.9983 72.9681 0.0000 0.0000 0.0000
# 4 0.0000 0.0000 0.0000 33.0311 0.0000 0.0000
# 5 0.0000 0.0000 0.0000 0.0000 33.0311 0.0000
# 6 0.0000 0.0000 0.0000 0.0000 0.0000 33.0878
#
#
#
# Elastic Compliance Matrix: (Units=1/GPa)
#
#
# Indices 1 2 3 4 5 6 
#
# 1 0.013051 -0.002060 -0.004669 0.000000 0.000000 0.000000
# 2 -0.002060 0.013051 -0.004669 0.000000 0.000000 0.000000
# 3 -0.004669 -0.004669 0.017672 0.000000 0.000000 0.000000
# 4 0.000000 0.000000 0.000000 0.030275 0.000000 0.000000
# 5 0.000000 0.000000 0.000000 0.000000 0.030275 0.000000
# 6 0.000000 0.000000 0.000000 0.000000 0.000000 0.030223
#
#
# Mechanical properties :
#
#
# Convention : Reuss Voigt Hill
#
# Bulk Modulus (GPa) = 47.67192 47.95663 47.81427
# Shear Modulus (GPa) = 30.42580 31.08979 30.75780
#
# Velocity S-wave (km/s) = 3.73673 3.77728 3.75706
# Velocity P-wave (km/s) = 6.36360 6.40565 6.38466
#
# Compressibility (1/GPa) = 0.02097671
#
# Stress axis : x y z
#
# Youngs Moduli (GPa) = 76.62277 76.62277 56.58793
#
# Poissons Ratio (x) = 0.15787 0.26421
# Poissons Ratio (y) = 0.15787 0.26421
# Poissons Ratio (z) = 0.35775 0.35775
#
# Static dielectric constant tensor:
#      x y z
#    x 1.843680 0.000000 0.000000 
#    y 0.000000 1.843680 0.000000 
#    z 0.000000 0.000000 1.874660 
# 
# From -- ./inp_files/1259.got.cif
#   From: 2010.05.17/outbox.cif.g08.bks.cpg/sg169_cif.got.tgz:1259.got - 2010.05.20 11:12:54.
