data_PCOD9580693
_publ_section_title
;
Structure prediction by ZEFSAII (Michael W. Deem and Ramdas Pophale) SiO2 
 PCOD9580693
Probable space group: P 62
;
_chemical_formula_sum "Si O2"
_cell_formula_units_Z 42
_cell_length_a 9.051308
_cell_length_b 9.051308
_cell_length_c 28.054567
_cell_angle_alpha 90.000000
_cell_angle_beta 90.000000
_cell_angle_gamma 120.000000
_cell_volume 1990.475739
_symmetry_space_group_name_H-M "P 62"
_symmetry_group_IT_number 171
_symmetry_cell_setting 'hexagonal'
loop_
_space_group_symop_operation_xyz
x,y,z
x-y,x,1/3+z
-y,x-y,2/3+z
-x,-y,z
-x+y,-x,1/3+z
y,-x+y,2/3+z
loop_
_atom_site_type_symbol
_atom_site_label
_atom_site_fract_x
_atom_site_fract_y
_atom_site_fract_z
Si Si1 0.770963 0.626210 0.267650
Si Si2 0.801386 0.595499 0.544593
Si Si3 0.827883 0.816364 0.370014
Si Si4 0.486641 0.832146 0.386373
Si Si5 0.239664 0.563008 0.949841
Si Si6 0.512151 0.828705 0.110423
Si Si7 0.907970 0.103983 0.243800
O O1 0.635222 0.667568 0.242268
O O2 0.806765 0.718387 0.319589
O O3 0.747760 0.441952 0.277192
O O4 0.929250 0.718675 0.230873
O O5 0.640456 0.468267 0.576174
O O6 0.780719 0.522165 0.492283
O O7 0.800692 0.773505 0.540035
O O8 0.669269 0.848522 0.376700
O O9 0.797219 0.677888 0.411023
O O10 0.000000 0.000000 0.372994
O O11 0.401893 0.810320 0.335016
O O12 0.370858 0.660657 0.415452
O O13 0.500000 0.000000 0.409531
O O14 0.163711 0.361195 0.943448
O O15 0.500000 0.000000 0.121276
O O16 0.000000 0.000000 0.263196
#
# Coordination Sequence:
#
# PCOD9580693 Si02
#       7
#     6   6   6   6   6   6   6
#     4  11  23  40  65 102 140 175 241 303 354 431
#     4  11  22  41  71  99 136 179 238 294 363 433
#     4  11  23  43  67  99 141 186 240 301 358 435
#     4  11  24  42  69 101 137 190 245 295 362 444
#     4  12  22  40  68 100 134 186 235 297 360 423
#     4  10  23  45  68 100 142 193 240 293 371 447
#     4  10  23  39  62 101 135 173 231 295 353 429
#
# _framework density 21.100480999999998
#
# number of rings (size 3 to 8) (size 9 to 14) (size 15 to 20)
#    0.000    1.143    2.857    4.286    4.000    1.714 
#    0.000    7.857    0.000    0.000    0.000    0.000 
#    0.000    0.000    0.000    0.000    0.000    0.000 
#
# Total GULP energy -234167.351652 kJ/mol
# GULP energy per Si atom -5575.413135 kJ/mol
# Density = 2.105246 g / cm^3
# Si number density = 21.100481 Si / 1000 Ang^3
#
#
#
# Elastic Constant Matrix: (Units=GPa)
#
#
# Indices 1 2 3 4 5 6 
#
# 1 134.6295 61.2726 36.2537 0.0000 0.0000 0.0000
# 2 61.2726 134.6295 36.2537 0.0000 0.0000 0.0000
# 3 36.2537 36.2537 93.7221 0.0000 0.0000 0.0000
# 4 0.0000 0.0000 0.0000 -60.7073 0.0000 0.0000
# 5 0.0000 0.0000 0.0000 0.0000 -60.7073 0.0000
# 6 0.0000 0.0000 0.0000 0.0000 0.0000 36.6784
#
#
#
# Elastic Compliance Matrix: (Units=1/GPa)
#
#
# Indices 1 2 3 4 5 6 
#
# 1 0.009795 -0.003837 -0.002305 0.000000 0.000000 0.000000
# 2 -0.003837 0.009795 -0.002305 0.000000 0.000000 0.000000
# 3 -0.002305 -0.002305 0.012453 0.000000 0.000000 0.000000
# 4 0.000000 0.000000 0.000000 -0.016472 0.000000 0.000000
# 5 0.000000 0.000000 0.000000 0.000000 -0.016472 0.000000
# 6 0.000000 0.000000 0.000000 0.000000 0.000000 0.027264
#
#
# Mechanical properties :
#
#
# Convention : Reuss Voigt Hill
#
# Bulk Modulus (GPa) = 66.00765 70.06015 68.03390
# Shear Modulus (GPa) = 103.51188 -1.66718 50.92235
#
# Velocity S-wave (km/s) = 7.01164 -0.88985 4.91789
# Velocity P-wave (km/s) = 9.84385 5.67621 8.03495
#
# Compressibility (1/GPa) = 0.01514976
#
# Stress axis : x y z
#
# Youngs Moduli (GPa) = 102.09540 102.09540 80.30387
#
# Poissons Ratio (x) = 0.39176 0.18506
# Poissons Ratio (y) = 0.39176 0.18506
# Poissons Ratio (z) = 0.23528 0.23528
#
# Static dielectric constant tensor:
#      x y z
#    x 1.870080 0.000000 0.000000 
#    y 0.000000 1.870080 0.000000 
#    z 0.000000 0.000000 1.722520 
# 
# From -- ./inp_files/6131.got.cif
#   From: 2010.05.17/outbox.cif.g08.bks.cpg/sg171_4_cif.got.tgz:6131.got - 2010.05.20 11:16:09.
