data_PCOD9580025
_publ_section_title
;
Structure prediction by ZEFSAII (Michael W. Deem and Ramdas Pophale) SiO2 
 PCOD9580025
Probable space group: P 61
;
_chemical_formula_sum "Si O2"
_cell_formula_units_Z 30
_cell_length_a 18.338965
_cell_length_b 18.338965
_cell_length_c 5.512935
_cell_angle_alpha 90.000000
_cell_angle_beta 90.000000
_cell_angle_gamma 120.000000
_cell_volume 1605.695340
_symmetry_space_group_name_H-M "P 61"
_symmetry_group_IT_number 169
_symmetry_cell_setting 'hexagonal'
loop_
_space_group_symop_operation_xyz
x,y,z
x-y,x,1/6+z
-y,x-y,1/3+z
-x,-y,1/2+z
-x+y,-x,2/3+z
y,-x+y,5/6+z
loop_
_atom_site_type_symbol
_atom_site_label
_atom_site_fract_x
_atom_site_fract_y
_atom_site_fract_z
Si Si1 0.857979 0.296021 0.011910
Si Si2 0.642944 0.679484 0.505641
Si Si3 0.882083 0.470969 0.893004
Si Si4 0.605744 0.727449 0.000228
Si Si5 0.420742 0.707713 0.454742
O O1 0.938177 0.297363 0.127653
O O2 0.791010 0.286887 0.214258
O O3 0.889988 0.388501 0.898546
O O4 0.802692 0.218111 0.834159
O O5 0.546397 0.602527 0.548162
O O6 0.656755 0.730135 0.757520
O O7 0.644232 0.727971 0.261675
O O8 0.787297 0.440645 0.805975
O O9 0.888358 0.522508 0.137668
O O10 0.352764 0.728832 0.561876
#
# Coordination Sequence:
#
# PCOD9580025 Si02
#       5
#     6   6   6   6   6
#     4  12  22  39  63  77 119 166 187 270 331 341
#     4  10  26  40  58  84 119 142 210 257 299 383
#     4  10  23  36  55  84 115 147 208 257 302 370
#     4  10  23  44  52  88 111 145 206 248 302 376
#     4  12  22  35  56  85 108 154 211 256 302 368
#
# _framework density 18.683496000000002
#
# number of rings (size 3 to 8) (size 9 to 14) (size 15 to 20)
#    1.200    0.000    4.000    2.400    2.800    4.800 
#    0.000    0.000    0.000    0.000    0.000    0.000 
#    0.000    0.000    0.000    3.600    0.000    3.200 
#
# Total GULP energy -167237.325333 kJ/mol
# GULP energy per Si atom -5574.577511 kJ/mol
# Density = 1.864097 g / cm^3
# Si number density = 18.683496 Si / 1000 Ang^3
#
#
#
# Elastic Constant Matrix: (Units=GPa)
#
#
# Indices 1 2 3 4 5 6 
#
# 1 47.0080 29.4481 25.2891 0.0000 0.0000 0.0000
# 2 29.4481 47.0080 25.2891 0.0000 0.0000 0.0000
# 3 25.2891 25.2891 104.5403 0.0000 0.0000 0.0000
# 4 0.0000 0.0000 0.0000 11.5655 0.0000 0.0000
# 5 0.0000 0.0000 0.0000 0.0000 11.5655 0.0000
# 6 0.0000 0.0000 0.0000 0.0000 0.0000 8.7800
#
#
#
# Elastic Compliance Matrix: (Units=1/GPa)
#
#
# Indices 1 2 3 4 5 6 
#
# 1 0.036260 -0.020688 -0.003767 0.000000 0.000000 0.000000
# 2 -0.020688 0.036260 -0.003767 0.000000 0.000000 0.000000
# 3 -0.003767 -0.003767 0.011388 0.000000 0.000000 0.000000
# 4 0.000000 0.000000 0.000000 0.086464 0.000000 0.000000
# 5 0.000000 0.000000 0.000000 0.000000 0.086464 0.000000
# 6 0.000000 0.000000 0.000000 0.000000 0.000000 0.113896
#
#
# Mechanical properties :
#
#
# Convention : Reuss Voigt Hill
#
# Bulk Modulus (GPa) = 36.41204 39.84541 38.12873
# Shear Modulus (GPa) = 11.45923 14.28420 12.87172
#
# Velocity S-wave (km/s) = 2.47925 2.76802 2.62760
# Velocity P-wave (km/s) = 5.26562 5.62039 5.44589
#
# Compressibility (1/GPa) = 0.02746344
#
# Stress axis : x y z
#
# Youngs Moduli (GPa) = 27.57895 27.57895 87.81081
#
# Poissons Ratio (x) = 0.57056 0.33077
# Poissons Ratio (y) = 0.57056 0.33077
# Poissons Ratio (z) = 0.10388 0.10388
#
# Static dielectric constant tensor:
#      x y z
#    x 1.653240 0.000000 0.000000 
#    y 0.000000 1.653240 0.000000 
#    z 0.000000 0.000000 1.727150 
# 
# From -- ./inp_files/175.got.cif
#   From: 2010.05.17/outbox.cif.g08.bks.cpg/sg169_cif.got.tgz:175.got - 2010.05.20 11:12:54.
