data_PCOD9580595
_publ_section_title
;
Structure prediction by ZEFSAII (Michael W. Deem and Ramdas Pophale) SiO2 
 PCOD9580595
Probable space group: P 62
;
_chemical_formula_sum "Si O2"
_cell_formula_units_Z 42
_cell_length_a 10.318882
_cell_length_b 10.318882
_cell_length_c 21.761335
_cell_angle_alpha 90.000000
_cell_angle_beta 90.000000
_cell_angle_gamma 120.000000
_cell_volume 2006.695416
_symmetry_space_group_name_H-M "P 62"
_symmetry_group_IT_number 171
_symmetry_cell_setting 'hexagonal'
loop_
_space_group_symop_operation_xyz
x,y,z
x-y,x,1/3+z
-y,x-y,2/3+z
-x,-y,z
-x+y,-x,1/3+z
y,-x+y,2/3+z
loop_
_atom_site_type_symbol
_atom_site_label
_atom_site_fract_x
_atom_site_fract_y
_atom_site_fract_z
Si Si1 0.866363 0.835406 0.471800
Si Si2 0.219606 0.302356 0.205481
Si Si3 0.366992 0.092305 0.503494
Si Si4 0.499772 0.850029 0.367808
Si Si5 0.775154 0.473794 0.369876
Si Si6 0.269269 0.265042 0.343674
Si Si7 0.500000 0.000000 0.809562
Si Si8 0.500000 0.000000 0.604590
O O1 0.845612 0.825787 0.398604
O O2 0.932138 0.741569 0.501867
O O3 0.711998 0.807566 0.500889
O O4 0.000000 0.000000 0.487788
O O5 0.076202 0.303173 0.177727
O O6 0.203658 0.253275 0.275931
O O7 0.362887 0.458500 0.189054
O O8 0.468496 0.106253 0.560726
O O9 0.450795 0.116268 0.439379
O O10 0.337671 0.702757 0.363468
O O11 0.613689 0.796350 0.341308
O O12 0.500000 0.000000 0.344193
O O13 0.686010 0.565958 0.365952
O O14 0.877959 0.501058 0.429421
O O15 0.894180 0.532291 0.314239
#
# Coordination Sequence:
#
# PCOD9580595 Si02
#       8
#     6   6   6   6   6   6   3   3
#     4   9  21  40  62  94 126 168 220 277 343 401
#     4  11  22  40  66  93 130 172 222 273 344 412
#     4  10  21  40  66  91 125 173 222 272 330 418
#     4  11  24  43  66  94 135 180 222 278 351 416
#     4  11  24  42  65 100 135 172 222 287 345 414
#     4  11  23  42  65  98 133 174 223 286 346 415
#     4  11  24  38  64  92 132 169 220 270 338 417
#     4  11  22  40  68  96 126 171 232 270 344 417
#
# _framework density 20.929931
#
# number of rings (size 3 to 8) (size 9 to 14) (size 15 to 20)
#    0.000    1.429    3.571    1.286    2.000    2.857 
#    0.000    0.000    0.000    0.000    0.000    0.000 
#    0.000    0.000    0.000    0.000    0.000    0.000 
#
# Total GULP energy -233892.421381 kJ/mol
# GULP energy per Si atom -5568.867176 kJ/mol
# Density = 2.088229 g / cm^3
# Si number density = 20.929931 Si / 1000 Ang^3
#
#
#
# Elastic Constant Matrix: (Units=GPa)
#
#
# Indices 1 2 3 4 5 6 
#
# 1 63.5881 26.7477 2.0905 0.0000 0.0000 0.0000
# 2 26.7477 63.5881 2.0905 0.0000 0.0000 0.0000
# 3 2.0905 2.0905 54.7964 0.0000 0.0000 0.0000
# 4 0.0000 0.0000 0.0000 -5.9762 0.0000 0.0000
# 5 0.0000 0.0000 0.0000 0.0000 -5.9762 0.0000
# 6 0.0000 0.0000 0.0000 0.0000 0.0000 18.4202
#
#
#
# Elastic Compliance Matrix: (Units=1/GPa)
#
#
# Indices 1 2 3 4 5 6 
#
# 1 0.019117 -0.008027 -0.000423 0.000000 0.000000 0.000000
# 2 -0.008027 0.019117 -0.000423 0.000000 0.000000 0.000000
# 3 -0.000423 -0.000423 0.018282 0.000000 0.000000 0.000000
# 4 0.000000 0.000000 0.000000 -0.167331 0.000000 0.000000
# 5 0.000000 0.000000 0.000000 0.000000 -0.167331 0.000000
# 6 0.000000 0.000000 0.000000 0.000000 0.000000 0.054288
#
#
# Mechanical properties :
#
#
# Convention : Reuss Voigt Hill
#
# Bulk Modulus (GPa) = 25.79434 27.09222 26.44328
# Shear Modulus (GPa) = -25.88131 11.36315 -7.25908
#
# Velocity S-wave (km/s) = -3.52030 2.33258 -1.86435
# Velocity P-wave (km/s) = 2.04267 4.49743 2.83323
#
# Compressibility (1/GPa) = 0.03876819
#
# Stress axis : x y z
#
# Youngs Moduli (GPa) = 52.31005 52.31005 54.69965
#
# Poissons Ratio (x) = 0.41991 0.02314
# Poissons Ratio (y) = 0.41991 0.02314
# Poissons Ratio (z) = 0.02213 0.02213
#
# Static dielectric constant tensor:
#      x y z
#    x 1.833290 0.000000 0.000000 
#    y 0.000000 1.833290 0.000000 
#    z 0.000000 0.000000 1.726660 
# 
# From -- ./inp_files/3998.got.cif
#   From: 2010.05.17/outbox.cif.g08.bks.cpg/sg171_2_cif.got.tgz:3998.got - 2010.05.20 11:16:09.
