data_PCOD9580249
_publ_section_title
;
Structure prediction by ZEFSAII (Michael W. Deem and Ramdas Pophale) SiO2 
 PCOD9580249
Probable space group: P 65
;
_chemical_formula_sum "Si O2"
_cell_formula_units_Z 48
_cell_length_a 16.566175
_cell_length_b 16.566175
_cell_length_c 10.217405
_cell_angle_alpha 90.000000
_cell_angle_beta 90.000000
_cell_angle_gamma 120.000000
_cell_volume 2428.374869
_symmetry_space_group_name_H-M "P 65"
_symmetry_group_IT_number 170
_symmetry_cell_setting 'hexagonal'
loop_
_space_group_symop_operation_xyz
x,y,z
x-y,x,5/6+z
-y,x-y,2/3+z
-x,-y,1/2+z
-x+y,-x,1/3+z
y,-x+y,1/6+z
loop_
_atom_site_type_symbol
_atom_site_label
_atom_site_fract_x
_atom_site_fract_y
_atom_site_fract_z
Si Si1 0.110715 0.384452 0.600280
Si Si2 0.544202 0.213022 0.048768
Si Si3 0.165695 0.472760 0.317426
Si Si4 0.140600 0.526853 0.807729
Si Si5 0.627953 0.903228 0.364283
Si Si6 0.679979 0.028346 0.815015
Si Si7 0.593123 0.958094 0.096329
Si Si8 0.166708 0.784144 0.413395
O O1 0.161345 0.430865 0.462018
O O2 0.112234 0.469649 0.674485
O O3 0.171539 0.355797 0.691997
O O4 0.002837 0.305130 0.593628
O O5 0.639337 0.218214 0.096520
O O6 0.561622 0.314116 0.006535
O O7 0.476188 0.185834 0.173122
O O8 0.475941 0.140652 0.933687
O O9 0.191784 0.413311 0.218330
O O10 0.059089 0.450412 0.301260
O O11 0.121285 0.609366 0.781765
O O12 0.073195 0.450887 0.915705
O O13 0.641532 0.933712 0.211782
O O14 0.780053 0.117631 0.839364
O O15 0.680538 0.944003 0.741566
O O16 0.632591 0.977234 0.951289
#
# Coordination Sequence:
#
# PCOD9580249 Si02
#       8
#     6   6   6   6   6   6   6   6
#     4  10  21  38  57  86 114 155 200 251 304 367
#     4  10  22  38  55  81 118 156 197 248 293 355
#     4  10  21  37  55  80 117 153 197 242 295 353
#     4  10  22  37  59  83 114 158 200 244 302 349
#     4  10  21  37  58  82 118 148 205 246 304 369
#     4  10  21  37  57  85 115 150 200 240 300 357
#     4  10  21  33  58  78 111 153 191 241 286 355
#     4  10  21  37  57  83 117 153 196 244 298 355
#
# _framework density 19.766304000000002
#
# number of rings (size 3 to 8) (size 9 to 14) (size 15 to 20)
#    0.000    2.000    0.000    3.000   10.500    0.000 
#    4.500    0.000    0.000    0.000    0.000    0.000 
#  191.250    0.000    0.000    0.000    0.000    0.000 
#
# Total GULP energy -267277.167326 kJ/mol
# GULP energy per Si atom -5568.274319 kJ/mol
# Density = 1.972132 g / cm^3
# Si number density = 19.766304 Si / 1000 Ang^3
#
#
#
# Elastic Constant Matrix: (Units=GPa)
#
#
# Indices 1 2 3 4 5 6 
#
# 1 75.4866 45.0696 4.9966 0.0000 0.0000 0.0000
# 2 45.0696 75.4866 4.9966 0.0000 0.0000 0.0000
# 3 4.9966 4.9966 93.6647 0.0000 0.0000 0.0000
# 4 0.0000 0.0000 0.0000 9.1331 0.0000 0.0000
# 5 0.0000 0.0000 0.0000 0.0000 9.1331 0.0000
# 6 0.0000 0.0000 0.0000 0.0000 0.0000 15.2085
#
#
#
# Elastic Compliance Matrix: (Units=1/GPa)
#
#
# Indices 1 2 3 4 5 6 
#
# 1 0.020604 -0.012272 -0.000444 0.000000 0.000000 0.000000
# 2 -0.012272 0.020604 -0.000444 0.000000 0.000000 0.000000
# 3 -0.000444 -0.000444 0.010724 0.000000 0.000000 0.000000
# 4 0.000000 0.000000 0.000000 0.109492 0.000000 0.000000
# 5 0.000000 0.000000 0.000000 0.000000 0.109492 0.000000
# 6 0.000000 0.000000 0.000000 0.000000 0.000000 0.065753
#
#
# Mechanical properties :
#
#
# Convention : Reuss Voigt Hill
#
# Bulk Modulus (GPa) = 39.04816 39.41818 39.23317
# Shear Modulus (GPa) = 13.45793 19.33327 16.39560
#
# Velocity S-wave (km/s) = 2.61214 3.13084 2.88318
# Velocity P-wave (km/s) = 5.37546 5.74934 5.56554
#
# Compressibility (1/GPa) = 0.02560940
#
# Stress axis : x y z
#
# Youngs Moduli (GPa) = 48.53418 48.53418 93.25055
#
# Poissons Ratio (x) = 0.59563 0.04145
# Poissons Ratio (y) = 0.59563 0.04145
# Poissons Ratio (z) = 0.02157 0.02157
#
# Static dielectric constant tensor:
#      x y z
#    x 1.775950 0.000000 0.000000 
#    y 0.000000 1.775950 0.000000 
#    z 0.000000 0.000000 1.791000 
# 
# From -- ./inp_files/1078.got.cif
#   From: 2010.05.17/outbox.cif.g08.bks.cpg/sg170_cif.got.tgz:1078.got - 2010.05.20 11:14:30.
