data_PCOD9580536
_publ_section_title
;
Structure prediction by ZEFSAII (Michael W. Deem and Ramdas Pophale) SiO2 
 PCOD9580536
Probable space group: P 62
;
_chemical_formula_sum "Si O2"
_cell_formula_units_Z 21
_cell_length_a 7.256442
_cell_length_b 7.256442
_cell_length_c 19.861241
_cell_angle_alpha 90.000000
_cell_angle_beta 90.000000
_cell_angle_gamma 120.000000
_cell_volume 905.700212
_symmetry_space_group_name_H-M "P 62"
_symmetry_group_IT_number 171
_symmetry_cell_setting 'hexagonal'
loop_
_space_group_symop_operation_xyz
x,y,z
x-y,x,1/3+z
-y,x-y,2/3+z
-x,-y,z
-x+y,-x,1/3+z
y,-x+y,2/3+z
loop_
_atom_site_type_symbol
_atom_site_label
_atom_site_fract_x
_atom_site_fract_y
_atom_site_fract_z
Si Si1 0.822540 0.069046 0.420610
Si Si2 0.500000 0.500000 0.007021
Si Si3 0.140314 0.328350 0.236368
Si Si4 0.060501 0.735406 0.946167
O O1 0.927882 0.300232 0.387620
O O2 0.741685 0.095550 0.492729
O O3 0.668740 0.917905 0.361222
O O4 0.000000 0.000000 0.432709
O O5 0.487857 0.667326 0.955631
O O6 0.313841 0.253901 0.244373
O O7 0.910919 0.135919 0.262090
O O8 0.000000 0.500000 0.923981
#
# Coordination Sequence:
#
# PCOD9580536 Si02
#       4
#     6   3   6   6
#     4  11  20  43  71  96 147 196 230 310 379 432
#     4  10  22  42  68 104 134 188 248 290 374 446
#     4  10  21  42  66  97 150 187 238 313 363 435
#     4  10  20  39  68 100 137 188 243 292 371 437
#
# _framework density 23.186481000000001
#
# number of rings (size 3 to 8) (size 9 to 14) (size 15 to 20)
#    0.000    1.714    8.571    0.000    2.000    0.000 
#   10.286    0.000    0.000    0.000    0.000    0.000 
#    0.000    0.000    0.000    0.000    0.000    0.000 
#
# Total GULP energy -117193.524706 kJ/mol
# GULP energy per Si atom -5580.644034 kJ/mol
# Density = 2.313371 g / cm^3
# Si number density = 23.186481 Si / 1000 Ang^3
#
#
#
# Elastic Constant Matrix: (Units=GPa)
#
#
# Indices 1 2 3 4 5 6 
#
# 1 117.1214 31.4484 22.9208 0.0000 0.0000 0.0000
# 2 31.4484 117.1214 22.9208 0.0000 0.0000 0.0000
# 3 22.9208 22.9208 187.4767 0.0000 0.0000 0.0000
# 4 0.0000 0.0000 0.0000 -13.9598 0.0000 0.0000
# 5 0.0000 0.0000 0.0000 0.0000 -13.9598 0.0000
# 6 0.0000 0.0000 0.0000 0.0000 0.0000 42.8365
#
#
#
# Elastic Compliance Matrix: (Units=1/GPa)
#
#
# Indices 1 2 3 4 5 6 
#
# 1 0.009333 -0.002339 -0.000855 0.000000 0.000000 0.000000
# 2 -0.002339 0.009333 -0.000855 0.000000 0.000000 0.000000
# 3 -0.000855 -0.000855 0.005543 0.000000 0.000000 0.000000
# 4 0.000000 0.000000 0.000000 -0.071634 0.000000 0.000000
# 5 0.000000 0.000000 0.000000 0.000000 -0.071634 0.000000
# 6 0.000000 0.000000 0.000000 0.000000 0.000000 0.023345
#
#
# Mechanical properties :
#
#
# Convention : Reuss Voigt Hill
#
# Bulk Modulus (GPa) = 62.06616 64.03327 63.04972
# Shear Modulus (GPa) = -60.79362 25.94538 -17.42412
#
# Velocity S-wave (km/s) = -5.12605 3.34876 -2.74428
# Velocity P-wave (km/s) = 2.86509 6.52907 4.14850
#
# Compressibility (1/GPa) = 0.01611184
#
# Stress axis : x y z
#
# Youngs Moduli (GPa) = 107.14102 107.14102 180.40449
#
# Poissons Ratio (x) = 0.25058 0.15428
# Poissons Ratio (y) = 0.25058 0.15428
# Poissons Ratio (z) = 0.09162 0.09162
#
# Static dielectric constant tensor:
#      x y z
#    x 1.973760 0.000000 0.000000 
#    y 0.000000 1.973760 0.000000 
#    z 0.000000 0.000000 1.872500 
# 
# From -- ./inp_files/3331.got.cif
#   From: 2010.05.17/outbox.cif.g08.bks.cpg/sg171_2_cif.got.tgz:3331.got - 2010.05.20 11:16:09.
