data_PCOD9580048
_publ_section_title
;
Structure prediction by ZEFSAII (Michael W. Deem and Ramdas Pophale) SiO2 
 PCOD9580048
Probable space group: P 61
;
_chemical_formula_sum "Si O2"
_cell_formula_units_Z 42
_cell_length_a 8.605534
_cell_length_b 8.605534
_cell_length_c 27.759625
_cell_angle_alpha 90.000000
_cell_angle_beta 90.000000
_cell_angle_gamma 120.000000
_cell_volume 1780.327402
_symmetry_space_group_name_H-M "P 61"
_symmetry_group_IT_number 169
_symmetry_cell_setting 'hexagonal'
loop_
_space_group_symop_operation_xyz
x,y,z
x-y,x,1/6+z
-y,x-y,1/3+z
-x,-y,1/2+z
-x+y,-x,2/3+z
y,-x+y,5/6+z
loop_
_atom_site_type_symbol
_atom_site_label
_atom_site_fract_x
_atom_site_fract_y
_atom_site_fract_z
Si Si1 0.562306 0.290377 0.426120
Si Si2 0.884717 0.358992 0.597395
Si Si3 0.945296 0.060475 0.643860
Si Si4 0.330976 0.213100 0.069749
Si Si5 0.847870 0.281687 0.308876
Si Si6 0.768175 0.819311 0.074689
Si Si7 0.442590 0.831083 0.027042
O O1 0.517896 0.443468 0.409729
O O2 0.724482 0.266547 0.406862
O O3 0.388437 0.097522 0.414007
O O4 0.588170 0.305140 0.483715
O O5 0.949098 0.243813 0.628024
O O6 0.783047 0.425224 0.632852
O O7 0.739295 0.240207 0.557300
O O8 0.964300 0.077027 0.700704
O O9 0.125560 0.075737 0.622034
O O10 0.772321 0.920172 0.614038
O O11 0.292737 0.368319 0.088047
O O12 0.291165 0.151888 0.014303
O O13 0.985153 0.471691 0.333177
O O14 0.606451 0.848408 0.058730
#
# Coordination Sequence:
#
# PCOD9580048 Si02
#       7
#     6   6   6   6   6   6   6
#     4  10  24  40  72  99 141 186 239 297 360 448
#     4  11  23  41  69 101 133 193 235 292 359 438
#     4  11  23  41  73  97 136 183 238 286 361 437
#     4  11  23  46  66 103 137 188 239 302 367 430
#     4  11  25  42  72  99 145 186 239 309 362 439
#     4  11  21  42  69 104 136 188 236 285 366 442
#     4  11  21  42  69 101 142 188 236 293 369 436
#
# _framework density 23.591169000000001
#
# number of rings (size 3 to 8) (size 9 to 14) (size 15 to 20)
#    0.000    1.143    4.286    3.429    8.000    0.000 
#    2.571    0.000    3.143    0.000    0.000    0.000 
#    0.000    0.000    0.000    0.000    0.000    0.000 
#
# Total GULP energy -234385.205871 kJ/mol
# GULP energy per Si atom -5580.600140 kJ/mol
# Density = 2.353747 g / cm^3
# Si number density = 23.591169 Si / 1000 Ang^3
#
#
#
# Elastic Constant Matrix: (Units=GPa)
#
#
# Indices 1 2 3 4 5 6 
#
# 1 65.8112 13.3978 3.3002 0.0000 0.0000 0.0000
# 2 13.3978 65.8112 3.3002 0.0000 0.0000 0.0000
# 3 3.3002 3.3002 81.7583 0.0000 0.0000 0.0000
# 4 0.0000 0.0000 0.0000 38.7630 0.0000 0.0000
# 5 0.0000 0.0000 0.0000 0.0000 38.7630 0.0000
# 6 0.0000 0.0000 0.0000 0.0000 0.0000 26.2067
#
#
#
# Elastic Compliance Matrix: (Units=1/GPa)
#
#
# Indices 1 2 3 4 5 6 
#
# 1 0.015873 -0.003206 -0.000511 0.000000 0.000000 0.000000
# 2 -0.003206 0.015873 -0.000511 0.000000 0.000000 0.000000
# 3 -0.000511 -0.000511 0.012272 0.000000 0.000000 0.000000
# 4 0.000000 0.000000 0.000000 0.025798 0.000000 0.000000
# 5 0.000000 0.000000 0.000000 0.000000 0.025798 0.000000
# 6 0.000000 0.000000 0.000000 0.000000 0.000000 0.038158
#
#
# Mechanical properties :
#
#
# Convention : Reuss Voigt Hill
#
# Bulk Modulus (GPa) = 28.11990 28.15303 28.13646
# Shear Modulus (GPa) = 32.44987 33.63869 33.04428
#
# Velocity S-wave (km/s) = 3.71281 3.78021 3.74666
# Velocity P-wave (km/s) = 5.50686 5.56892 5.53798
#
# Compressibility (1/GPa) = 0.03556201
#
# Stress axis : x y z
#
# Youngs Moduli (GPa) = 62.99898 62.99898 81.48329
#
# Poissons Ratio (x) = 0.20196 0.04166
# Poissons Ratio (y) = 0.20196 0.04166
# Poissons Ratio (z) = 0.03221 0.03221
#
# Static dielectric constant tensor:
#      x y z
#    x 1.977600 0.000000 0.000000 
#    y 0.000000 1.977600 0.000000 
#    z 0.000000 0.000000 1.935630 
# 
# From -- ./inp_files/1891.got.cif
#   From: 2010.05.17/outbox.cif.g08.bks.cpg/sg169_cif.got.tgz:1891.got - 2010.05.20 11:12:54.
