data_PCOD9580626
_publ_section_title
;
Structure prediction by ZEFSAII (Michael W. Deem and Ramdas Pophale) SiO2 
 PCOD9580626
Probable space group: P 62
;
_chemical_formula_sum "Si O2"
_cell_formula_units_Z 33
_cell_length_a 19.815448
_cell_length_b 19.815448
_cell_length_c 4.755256
_cell_angle_alpha 90.000000
_cell_angle_beta 90.000000
_cell_angle_gamma 120.000000
_cell_volume 1617.008583
_symmetry_space_group_name_H-M "P 62"
_symmetry_group_IT_number 171
_symmetry_cell_setting 'hexagonal'
loop_
_space_group_symop_operation_xyz
x,y,z
x-y,x,1/3+z
-y,x-y,2/3+z
-x,-y,z
-x+y,-x,1/3+z
y,-x+y,2/3+z
loop_
_atom_site_type_symbol
_atom_site_label
_atom_site_fract_x
_atom_site_fract_y
_atom_site_fract_z
Si Si1 0.500000 0.500000 0.125000
Si Si2 0.717980 0.422619 0.592344
Si Si3 0.136423 0.486861 0.195880
Si Si4 0.893892 0.617740 0.689358
Si Si5 0.162144 0.736344 0.234215
Si Si6 0.940622 0.335339 0.745565
O O1 0.490140 0.562712 0.942775
O O2 0.577492 0.547141 0.309475
O O3 0.634415 0.369318 0.448036
O O4 0.780651 0.455597 0.338021
O O5 0.717301 0.489497 0.784691
O O6 0.115548 0.407758 0.366163
O O7 0.126342 0.460563 0.873007
O O8 0.825318 0.631399 0.800226
O O9 0.985047 0.676887 0.723953
O O10 0.135349 0.719909 0.556356
O O11 0.085175 0.678061 0.065597
#
# Coordination Sequence:
#
# PCOD9580626 Si02
#       6
#     3   6   6   6   6   6
#     4  10  22  36  58  78 106 142 198 242 278 356
#     4  11  26  37  54  81 118 157 200 265 319 378
#     4  10  22  37  55  74 106 143 188 244 308 343
#     4  10  22  41  57  83 110 142 190 249 291 358
#     4  11  24  40  61  81 115 153 199 244 310 363
#     4  11  23  39  60  85 108 154 194 243 300 358
#
# _framework density 20.408055000000001
#
# number of rings (size 3 to 8) (size 9 to 14) (size 15 to 20)
#    0.000    1.455    0.000    5.455   10.182    6.545 
#    0.000    0.000    0.000    0.000    0.000    0.000 
#    0.000    0.000    0.000    8.182    0.000    0.364 
#
# Total GULP energy -184516.135693 kJ/mol
# GULP energy per Si atom -5591.398051 kJ/mol
# Density = 2.036161 g / cm^3
# Si number density = 20.408055 Si / 1000 Ang^3
#
#
#
# Elastic Constant Matrix: (Units=GPa)
#
#
# Indices 1 2 3 4 5 6 
#
# 1 74.7758 23.4064 9.2834 0.0000 0.0000 0.0000
# 2 23.4064 74.7758 9.2834 0.0000 0.0000 0.0000
# 3 9.2834 9.2834 74.1526 0.0000 0.0000 0.0000
# 4 0.0000 0.0000 0.0000 31.6425 0.0000 0.0000
# 5 0.0000 0.0000 0.0000 0.0000 31.6425 0.0000
# 6 0.0000 0.0000 0.0000 0.0000 0.0000 25.6847
#
#
#
# Elastic Compliance Matrix: (Units=1/GPa)
#
#
# Indices 1 2 3 4 5 6 
#
# 1 0.014949 -0.004517 -0.001306 0.000000 0.000000 0.000000
# 2 -0.004517 0.014949 -0.001306 0.000000 0.000000 0.000000
# 3 -0.001306 -0.001306 0.013813 0.000000 0.000000 0.000000
# 4 0.000000 0.000000 0.000000 0.031603 0.000000 0.000000
# 5 0.000000 0.000000 0.000000 0.000000 0.031603 0.000000
# 6 0.000000 0.000000 0.000000 0.000000 0.000000 0.038934
#
#
# Mechanical properties :
#
#
# Convention : Reuss Voigt Hill
#
# Bulk Modulus (GPa) = 33.95260 34.18342 34.06801
# Shear Modulus (GPa) = 29.42424 29.90935 29.66680
#
# Velocity S-wave (km/s) = 3.80122 3.83242 3.81685
# Velocity P-wave (km/s) = 5.99489 6.03072 6.01283
#
# Compressibility (1/GPa) = 0.02945282
#
# Stress axis : x y z
#
# Youngs Moduli (GPa) = 66.89197 66.89197 72.39700
#
# Poissons Ratio (x) = 0.30218 0.09455
# Poissons Ratio (y) = 0.30218 0.09455
# Poissons Ratio (z) = 0.08736 0.08736
#
# Static dielectric constant tensor:
#      x y z
#    x 1.784380 0.000000 0.000000 
#    y 0.000000 1.784380 0.000000 
#    z 0.000000 0.000000 1.745480 
# 
# From -- ./inp_files/371.got.cif
#   From: 2010.05.17/outbox.cif.g08.bks.cpg/sg171_1_cif.got.tgz:371.got - 2010.05.20 11:16:09.
