data_PCOD9580120
_publ_section_title
;
Structure prediction by ZEFSAII (Michael W. Deem and Ramdas Pophale) SiO2 
 PCOD9580120
Probable space group: P 61
;
_chemical_formula_sum "Si O2"
_cell_formula_units_Z 48
_cell_length_a 16.779452
_cell_length_b 16.779452
_cell_length_c 7.863495
_cell_angle_alpha 90.000000
_cell_angle_beta 90.000000
_cell_angle_gamma 120.000000
_cell_volume 1917.351744
_symmetry_space_group_name_H-M "P 61"
_symmetry_group_IT_number 169
_symmetry_cell_setting 'hexagonal'
loop_
_space_group_symop_operation_xyz
x,y,z
x-y,x,1/6+z
-y,x-y,1/3+z
-x,-y,1/2+z
-x+y,-x,2/3+z
y,-x+y,5/6+z
loop_
_atom_site_type_symbol
_atom_site_label
_atom_site_fract_x
_atom_site_fract_y
_atom_site_fract_z
Si Si1 0.362188 0.120525 0.711890
Si Si2 0.327677 0.854944 0.421623
Si Si3 0.387248 0.987721 0.949542
Si Si4 0.903362 0.723203 0.910256
Si Si5 0.052054 0.878922 0.675497
Si Si6 0.300148 0.708346 0.183281
Si Si7 0.890788 0.423473 0.551956
Si Si8 0.017509 0.722536 0.197510
O O1 0.432619 0.222696 0.651787
O O2 0.403538 0.067832 0.816234
O O3 0.282464 0.116128 0.831365
O O4 0.308155 0.058518 0.551248
O O5 0.341191 0.811992 0.249283
O O6 0.391294 0.853792 0.569971
O O7 0.344752 0.956801 0.394536
O O8 0.430062 0.931757 0.862127
O O9 0.278280 0.927755 0.992315
O O10 0.442156 0.038310 0.118145
O O11 0.970724 0.818985 0.813811
O O12 0.939105 0.736040 0.105029
O O13 0.795367 0.690160 0.915486
O O14 0.985880 0.866095 0.521970
O O15 0.193809 0.666378 0.132278
O O16 0.302105 0.652549 0.350762
#
# Coordination Sequence:
#
# PCOD9580120 Si02
#       8
#     6   6   6   6   6   6   6   6
#     4  11  26  47  77 108 159 208 275 343 416 495
#     4  12  28  49  83 120 166 223 288 350 440 521
#     4  11  30  48  78 117 164 216 282 352 420 509
#     4  11  26  46  76 110 161 204 273 333 425 491
#     4  11  24  48  67 104 152 208 265 332 408 493
#     4  12  30  56  85 126 178 229 288 366 448 531
#     4  12  30  51  83 121 172 223 289 353 439 517
#     4  12  24  47  77 118 152 213 266 343 414 501
#
# _framework density 25.034528000000002
#
# number of rings (size 3 to 8) (size 9 to 14) (size 15 to 20)
#    0.000    0.500    5.000    0.750   12.250    0.000 
#    4.500    0.000    0.000    0.000    0.000    0.000 
#    0.000    0.000    0.000    0.000    0.000    0.000 
#
# Total GULP energy -268507.151037 kJ/mol
# GULP energy per Si atom -5593.898980 kJ/mol
# Density = 2.497755 g / cm^3
# Si number density = 25.034528 Si / 1000 Ang^3
#
#
#
# Elastic Constant Matrix: (Units=GPa)
#
#
# Indices 1 2 3 4 5 6 
#
# 1 95.0245 41.3398 34.0923 0.0000 0.0000 0.0000
# 2 41.3398 95.0245 34.0923 0.0000 0.0000 0.0000
# 3 34.0923 34.0923 104.4905 0.0000 0.0000 0.0000
# 4 0.0000 0.0000 0.0000 47.2596 0.0000 0.0000
# 5 0.0000 0.0000 0.0000 0.0000 47.2596 0.0000
# 6 0.0000 0.0000 0.0000 0.0000 0.0000 26.8423
#
#
#
# Elastic Compliance Matrix: (Units=1/GPa)
#
#
# Indices 1 2 3 4 5 6 
#
# 1 0.013695 -0.004932 -0.002859 0.000000 0.000000 0.000000
# 2 -0.004932 0.013695 -0.002859 0.000000 0.000000 0.000000
# 3 -0.002859 -0.002859 0.011436 0.000000 0.000000 0.000000
# 4 0.000000 0.000000 0.000000 0.021160 0.000000 0.000000
# 5 0.000000 0.000000 0.000000 0.000000 0.021160 0.000000
# 6 0.000000 0.000000 0.000000 0.000000 0.000000 0.037255
#
#
# Mechanical properties :
#
#
# Convention : Reuss Voigt Hill
#
# Bulk Modulus (GPa) = 57.06013 57.06536 57.06274
# Shear Modulus (GPa) = 34.35419 36.60665 35.48042
#
# Velocity S-wave (km/s) = 3.70844 3.82808 3.76873
# Velocity P-wave (km/s) = 6.41707 6.51023 6.46382
#
# Compressibility (1/GPa) = 0.01752537
#
# Stress axis : x y z
#
# Youngs Moduli (GPa) = 73.01887 73.01887 87.44370
#
# Poissons Ratio (x) = 0.36014 0.25001
# Poissons Ratio (y) = 0.36014 0.25001
# Poissons Ratio (z) = 0.20877 0.20877
#
# Static dielectric constant tensor:
#      x y z
#    x 1.988060 0.000000 0.000000 
#    y 0.000000 1.988060 0.000000 
#    z 0.000000 0.000000 2.055790 
# 
# From -- ./inp_files/749.got.cif
#   From: 2010.05.17/outbox.cif.g08.bks.cpg/sg169_cif.got.tgz:749.got - 2010.05.20 11:12:54.
