data_PCOD9580063
_publ_section_title
;
Structure prediction by ZEFSAII (Michael W. Deem and Ramdas Pophale) SiO2 
 PCOD9580063
Probable space group: P 61
;
_chemical_formula_sum "Si O2"
_cell_formula_units_Z 48
_cell_length_a 15.708711
_cell_length_b 15.708711
_cell_length_c 11.016159
_cell_angle_alpha 90.000000
_cell_angle_beta 90.000000
_cell_angle_gamma 120.000000
_cell_volume 2354.192257
_symmetry_space_group_name_H-M "P 61"
_symmetry_group_IT_number 169
_symmetry_cell_setting 'hexagonal'
loop_
_space_group_symop_operation_xyz
x,y,z
x-y,x,1/6+z
-y,x-y,1/3+z
-x,-y,1/2+z
-x+y,-x,2/3+z
y,-x+y,5/6+z
loop_
_atom_site_type_symbol
_atom_site_label
_atom_site_fract_x
_atom_site_fract_y
_atom_site_fract_z
Si Si1 0.814395 0.959942 0.724620
Si Si2 0.759071 0.431103 0.775052
Si Si3 0.980785 0.277403 0.787190
Si Si4 0.643233 0.540734 0.506908
Si Si5 0.189274 0.371513 0.813333
Si Si6 0.409701 0.664758 0.098911
Si Si7 0.511354 0.932783 0.815630
Si Si8 0.607952 0.871042 0.604081
O O1 0.851168 0.896025 0.803343
O O2 0.765451 0.992147 0.832516
O O3 0.718914 0.901710 0.637854
O O4 0.649990 0.385058 0.719858
O O5 0.742694 0.365256 0.891583
O O6 0.830280 0.414108 0.687107
O O7 0.790742 0.543682 0.790578
O O8 0.886015 0.206592 0.864572
O O9 0.966578 0.368954 0.749281
O O10 0.079334 0.308969 0.862795
O O11 0.724105 0.602423 0.407085
O O12 0.624532 0.429530 0.512854
O O13 0.536881 0.526433 0.477472
O O14 0.690108 0.590473 0.636648
O O15 0.198464 0.474378 0.774800
O O16 0.561709 0.917954 0.696383
#
# Coordination Sequence:
#
# PCOD9580063 Si02
#       8
#     6   6   6   6   6   6   6   6
#     4  11  25  52  81 105 133 176 233 308 366 440
#     4  11  21  38  63  95 140 185 227 278 341 413
#     4  11  24  43  71 102 133 176 239 286 356 419
#     4  11  26  40  64  97 146 185 231 294 341 422
#     4  12  24  42  68  98 138 184 233 291 349 420
#     4  11  21  37  60  95 135 187 235 275 333 411
#     4  11  23  39  67  98 136 187 232 281 344 417
#     4  10  26  43  66 104 143 184 232 285 354 428
#
# _framework density 20.38916
#
# number of rings (size 3 to 8) (size 9 to 14) (size 15 to 20)
#    0.000    1.000    6.250    0.000    3.500    2.000 
#    2.250    1.250    0.000    0.000    0.000    0.000 
#    0.000    0.000    0.000    0.000    0.000    0.000 
#
# Total GULP energy -267714.797613 kJ/mol
# GULP energy per Si atom -5577.391617 kJ/mol
# Density = 2.034275 g / cm^3
# Si number density = 20.389160 Si / 1000 Ang^3
#
#
#
# Elastic Constant Matrix: (Units=GPa)
#
#
# Indices 1 2 3 4 5 6 
#
# 1 103.1344 56.0821 31.5203 0.0000 0.0000 0.0000
# 2 56.0821 103.1344 31.5203 0.0000 0.0000 0.0000
# 3 31.5203 31.5203 73.9473 0.0000 0.0000 0.0000
# 4 0.0000 0.0000 0.0000 27.9686 0.0000 0.0000
# 5 0.0000 0.0000 0.0000 0.0000 27.9686 0.0000
# 6 0.0000 0.0000 0.0000 0.0000 0.0000 23.5261
#
#
#
# Elastic Compliance Matrix: (Units=1/GPa)
#
#
# Indices 1 2 3 4 5 6 
#
# 1 0.014404 -0.006848 -0.003221 0.000000 0.000000 0.000000
# 2 -0.006848 0.014404 -0.003221 0.000000 0.000000 0.000000
# 3 -0.003221 -0.003221 0.016269 0.000000 0.000000 0.000000
# 4 0.000000 0.000000 0.000000 0.035754 0.000000 0.000000
# 5 0.000000 0.000000 0.000000 0.000000 0.035754 0.000000
# 6 0.000000 0.000000 0.000000 0.000000 0.000000 0.042506
#
#
# Mechanical properties :
#
#
# Convention : Reuss Voigt Hill
#
# Bulk Modulus (GPa) = 54.06050 57.60680 55.83365
# Shear Modulus (GPa) = 26.06358 26.63221 26.34790
#
# Velocity S-wave (km/s) = 3.57922 3.61805 3.59869
# Velocity P-wave (km/s) = 6.60704 6.76526 6.68662
#
# Compressibility (1/GPa) = 0.01849780
#
# Stress axis : x y z
#
# Youngs Moduli (GPa) = 69.42287 69.42287 61.46711
#
# Poissons Ratio (x) = 0.47544 0.19797
# Poissons Ratio (y) = 0.47544 0.19797
# Poissons Ratio (z) = 0.22359 0.22359
#
# Static dielectric constant tensor:
#      x y z
#    x 1.745660 0.000000 0.000000 
#    y 0.000000 1.745660 0.000000 
#    z 0.000000 0.000000 1.741300 
# 
# From -- ./inp_files/1054.got.cif
#   From: 2010.05.17/outbox.cif.g08.bks.cpg/sg169_cif.got.tgz:1054.got - 2010.05.20 11:12:54.
