data_PCOD9580204
_publ_section_title
;
Structure prediction by ZEFSAII (Michael W. Deem and Ramdas Pophale) SiO2 
 PCOD9580204
Probable space group: P 65
;
_chemical_formula_sum "Si O2"
_cell_formula_units_Z 48
_cell_length_a 12.242658
_cell_length_b 12.242658
_cell_length_c 16.324936
_cell_angle_alpha 90.000000
_cell_angle_beta 90.000000
_cell_angle_gamma 120.000000
_cell_volume 2119.012674
_symmetry_space_group_name_H-M "P 65"
_symmetry_group_IT_number 170
_symmetry_cell_setting 'hexagonal'
loop_
_space_group_symop_operation_xyz
x,y,z
x-y,x,5/6+z
-y,x-y,2/3+z
-x,-y,1/2+z
-x+y,-x,1/3+z
y,-x+y,1/6+z
loop_
_atom_site_type_symbol
_atom_site_label
_atom_site_fract_x
_atom_site_fract_y
_atom_site_fract_z
Si Si1 0.213760 0.849576 0.673540
Si Si2 0.133925 0.449287 0.655058
Si Si3 0.438566 0.293197 0.254172
Si Si4 0.115708 0.681167 0.104140
Si Si5 0.123604 0.981609 0.462334
Si Si6 0.215052 0.522468 0.912336
Si Si7 0.327573 0.553593 0.219455
Si Si8 0.622159 0.527619 0.957820
O O1 0.168876 0.744060 0.601905
O O2 0.185290 0.762194 0.753901
O O3 0.118064 0.902135 0.669245
O O4 0.351642 0.959705 0.646128
O O5 0.249525 0.437050 0.688510
O O6 0.158815 0.527814 0.572027
O O7 0.101248 0.526598 0.723685
O O8 0.010966 0.322305 0.630439
O O9 0.538909 0.441871 0.273125
O O10 0.296819 0.210589 0.288790
O O11 0.438911 0.287430 0.157086
O O12 0.520608 0.235435 0.293533
O O13 0.212041 0.764052 0.174219
O O14 0.014222 0.909430 0.533159
O O15 0.356187 0.637892 0.928353
O O16 0.141428 0.586273 0.872725
#
# Coordination Sequence:
#
# PCOD9580204 Si02
#       8
#     6   6   6   6   6   6   6   6
#     4  11  19  39  68 101 140 185 245 312 371 450
#     4  10  20  39  62  99 146 197 233 301 378 463
#     4  11  21  41  67 104 147 192 239 314 384 468
#     4  10  21  39  64  97 149 195 237 301 377 467
#     4  12  25  46  76 114 149 201 277 337 391 469
#     4  10  22  40  58 103 146 185 229 297 386 463
#     4  10  19  37  65  98 144 180 231 301 374 450
#     4  10  21  37  62 100 145 189 237 305 387 456
#
# _framework density 22.652059999999999
#
# number of rings (size 3 to 8) (size 9 to 14) (size 15 to 20)
#    0.000    1.500    3.750    3.000    1.750    0.000 
#   11.250    0.000    0.000    4.500    0.000    0.000 
#    0.000    0.000    0.750    0.000    0.000    0.000 
#
# Total GULP energy -267302.944293 kJ/mol
# GULP energy per Si atom -5568.811339 kJ/mol
# Density = 2.260050 g / cm^3
# Si number density = 22.652060 Si / 1000 Ang^3
#
#
#
# Elastic Constant Matrix: (Units=GPa)
#
#
# Indices 1 2 3 4 5 6 
#
# 1 53.1214 3.7599 35.0280 0.0000 0.0000 0.0000
# 2 3.7599 53.1214 35.0280 0.0000 0.0000 0.0000
# 3 35.0280 35.0280 119.0196 0.0000 0.0000 0.0000
# 4 0.0000 0.0000 0.0000 29.0161 0.0000 0.0000
# 5 0.0000 0.0000 0.0000 0.0000 29.0161 0.0000
# 6 0.0000 0.0000 0.0000 0.0000 0.0000 24.6808
#
#
#
# Elastic Compliance Matrix: (Units=1/GPa)
#
#
# Indices 1 2 3 4 5 6 
#
# 1 0.023917 0.003659 -0.008116 0.000000 0.000000 0.000000
# 2 0.003659 0.023917 -0.008116 0.000000 0.000000 0.000000
# 3 -0.008116 -0.008116 0.013179 0.000000 0.000000 0.000000
# 4 0.000000 0.000000 0.000000 0.034464 0.000000 0.000000
# 5 0.000000 0.000000 0.000000 0.000000 0.034464 0.000000
# 6 0.000000 0.000000 0.000000 0.000000 0.000000 0.040517
#
#
# Mechanical properties :
#
#
# Convention : Reuss Voigt Hill
#
# Bulk Modulus (GPa) = 27.88002 41.43270 34.65636
# Shear Modulus (GPa) = 24.08943 26.63904 25.36424
#
# Velocity S-wave (km/s) = 3.26460 3.43302 3.34987
# Velocity P-wave (km/s) = 5.15217 5.83479 5.50407
#
# Compressibility (1/GPa) = 0.03586798
#
# Stress axis : x y z
#
# Youngs Moduli (GPa) = 41.81066 41.81066 75.87839
#
# Poissons Ratio (x) = -0.15297 0.61581
# Poissons Ratio (y) = -0.15297 0.61581
# Poissons Ratio (z) = 0.33932 0.33932
#
# Static dielectric constant tensor:
#      x y z
#    x 1.937370 0.000000 0.000000 
#    y 0.000000 1.937370 0.000000 
#    z 0.000000 0.000000 1.891490 
# 
# From -- ./inp_files/1475.got.cif
#   From: 2010.05.17/outbox.cif.g08.bks.cpg/sg170_cif.got.tgz:1475.got - 2010.05.20 11:14:30.
