data_PCOD9580514
_publ_section_title
;
Structure prediction by ZEFSAII (Michael W. Deem and Ramdas Pophale) SiO2 
 PCOD9580514
Probable space group: P 62
;
_chemical_formula_sum "Si O2"
_cell_formula_units_Z 45
_cell_length_a 14.672746
_cell_length_b 14.672746
_cell_length_c 10.418759
_cell_angle_alpha 90.000000
_cell_angle_beta 90.000000
_cell_angle_gamma 120.000000
_cell_volume 1942.537552
_symmetry_space_group_name_H-M "P 62"
_symmetry_group_IT_number 171
_symmetry_cell_setting 'hexagonal'
loop_
_space_group_symop_operation_xyz
x,y,z
x-y,x,1/3+z
-y,x-y,2/3+z
-x,-y,z
-x+y,-x,1/3+z
y,-x+y,2/3+z
loop_
_atom_site_type_symbol
_atom_site_label
_atom_site_fract_x
_atom_site_fract_y
_atom_site_fract_z
Si Si1 0.979584 0.815216 0.443480
Si Si2 0.347866 0.493071 0.791563
Si Si3 0.827875 0.169401 0.587566
Si Si4 0.500000 0.500000 0.009305
Si Si5 0.272020 0.998653 0.366599
Si Si6 0.065462 0.175753 0.856570
Si Si7 0.221274 0.531205 0.402675
Si Si8 0.401412 0.650011 0.596068
O O1 0.889972 0.706205 0.388082
O O2 0.925979 0.879961 0.495218
O O3 0.055256 0.797177 0.538145
O O4 0.041885 0.875644 0.315159
O O5 0.401280 0.470350 0.914255
O O6 0.309349 0.391929 0.704737
O O7 0.430689 0.592207 0.705937
O O8 0.253917 0.515817 0.831961
O O9 0.780108 0.240824 0.630855
O O10 0.758689 0.091991 0.472521
O O11 0.507650 0.602869 0.081196
O O12 0.225100 0.954580 0.228060
O O13 0.210479 0.059682 0.412271
O O14 0.297055 0.558067 0.525686
O O15 0.274392 0.645398 0.338763
#
# Coordination Sequence:
#
# PCOD9580514 Si02
#       8
#     6   6   6   3   6   6   6   6
#     4  10  22  36  54  83 114 160 193 244 292 353
#     4  10  20  40  60  93 114 160 195 252 304 360
#     4  10  21  36  56  84 117 150 199 244 287 350
#     4  10  20  36  68  86 114 148 220 242 296 364
#     4  10  21  36  56  84 117 150 199 244 287 350
#     4  10  22  36  54  83 114 160 193 244 292 353
#     4  10  20  40  60  93 114 160 195 252 304 360
#     4   9  22  39  64  84 128 155 192 249 312 364
#
# _framework density 23.165572999999998
#
# number of rings (size 3 to 8) (size 9 to 14) (size 15 to 20)
#    0.000    2.133    1.333    0.800    1.867   12.267 
#   14.400    0.000    0.000    1.600    0.000    0.000 
#    0.000    0.000    0.000    0.000    0.000    0.000 
#
# Total GULP energy -250879.893340 kJ/mol
# GULP energy per Si atom -5575.108741 kJ/mol
# Density = 2.311285 g / cm^3
# Si number density = 23.165573 Si / 1000 Ang^3
#
#
#
# Elastic Constant Matrix: (Units=GPa)
#
#
# Indices 1 2 3 4 5 6 
#
# 1 51.2638 5.7402 11.1349 0.0000 0.0000 0.0000
# 2 5.7402 51.2638 11.1349 0.0000 0.0000 0.0000
# 3 11.1349 11.1349 33.0571 0.0000 0.0000 0.0000
# 4 0.0000 0.0000 0.0000 18.3616 0.0000 0.0000
# 5 0.0000 0.0000 0.0000 0.0000 18.3616 0.0000
# 6 0.0000 0.0000 0.0000 0.0000 0.0000 22.7618
#
#
#
# Elastic Compliance Matrix: (Units=1/GPa)
#
#
# Indices 1 2 3 4 5 6 
#
# 1 0.021084 -0.000883 -0.006804 0.000000 0.000000 0.000000
# 2 -0.000883 0.021084 -0.006804 0.000000 0.000000 0.000000
# 3 -0.006804 -0.006804 0.034835 0.000000 0.000000 0.000000
# 4 0.000000 0.000000 0.000000 0.054462 0.000000 0.000000
# 5 0.000000 0.000000 0.000000 0.000000 0.054462 0.000000
# 6 0.000000 0.000000 0.000000 0.000000 0.000000 0.043933
#
#
# Mechanical properties :
#
#
# Convention : Reuss Voigt Hill
#
# Bulk Modulus (GPa) = 20.82522 21.28943 21.05732
# Shear Modulus (GPa) = 18.19185 19.06865 18.63025
#
# Velocity S-wave (km/s) = 2.80536 2.87216 2.83896
# Velocity P-wave (km/s) = 4.41617 4.49546 4.45599
#
# Compressibility (1/GPa) = 0.04801871
#
# Stress axis : x y z
#
# Youngs Moduli (GPa) = 47.42983 47.42983 28.70701
#
# Poissons Ratio (x) = 0.04187 0.19534
# Poissons Ratio (y) = 0.04187 0.19534
# Poissons Ratio (z) = 0.32273 0.32273
#
# Static dielectric constant tensor:
#      x y z
#    x 1.977600 0.000000 0.000000 
#    y 0.000000 1.977600 0.000000 
#    z 0.000000 0.000000 1.932690 
# 
# From -- ./inp_files/2118.got.cif
#   From: 2010.05.17/outbox.cif.g08.bks.cpg/sg171_2_cif.got.tgz:2118.got - 2010.05.20 11:16:09.
