data_PCOD9580844
_publ_section_title
;
Structure prediction by ZEFSAII (Michael W. Deem and Ramdas Pophale) SiO2 
 PCOD9580844
Probable space group: P 62
;
_chemical_formula_sum "Si O2"
_cell_formula_units_Z 30
_cell_length_a 9.687972
_cell_length_b 9.687972
_cell_length_c 16.026635
_cell_angle_alpha 90.000000
_cell_angle_beta 90.000000
_cell_angle_gamma 120.000000
_cell_volume 1302.682946
_symmetry_space_group_name_H-M "P 62"
_symmetry_group_IT_number 171
_symmetry_cell_setting 'hexagonal'
loop_
_space_group_symop_operation_xyz
x,y,z
x-y,x,1/3+z
-y,x-y,2/3+z
-x,-y,z
-x+y,-x,1/3+z
y,-x+y,2/3+z
loop_
_atom_site_type_symbol
_atom_site_label
_atom_site_fract_x
_atom_site_fract_y
_atom_site_fract_z
Si Si1 0.314926 0.920751 0.824390
Si Si2 0.228307 0.078516 0.689311
Si Si3 0.943700 0.734534 0.668805
Si Si4 0.657117 0.174750 0.265746
Si Si5 0.595634 0.354934 0.416982
O O1 0.250556 0.766292 0.764440
O O2 0.500000 0.000000 0.848486
O O3 0.304627 0.054353 0.771687
O O4 0.215489 0.883143 0.909200
O O5 0.149246 0.185516 0.711377
O O6 0.355313 0.185647 0.621322
O O7 0.111050 0.898835 0.657406
O O8 0.908186 0.577719 0.721909
O O9 0.623149 0.255616 0.345084
O O10 0.697831 0.272432 0.180097
O O11 0.500000 0.000000 0.253028
#
# Coordination Sequence:
#
# PCOD9580844 Si02
#       5
#     6   6   6   6   6
#     4  12  27  48  74 118 161 205 281 343 415 500
#     4  11  27  48  74 116 156 209 276 334 410 489
#     4  11  28  47  79 111 158 215 262 343 409 499
#     4  12  26  51  78 117 160 219 273 341 422 500
#     4  12  26  49  76 115 162 213 268 334 417 504
#
# _framework density 23.029394
#
# number of rings (size 3 to 8) (size 9 to 14) (size 15 to 20)
#    0.000    0.400    6.000    0.000   11.200    1.600 
#    3.600    0.000    0.000    0.000    0.000    0.000 
#    0.000    0.000    0.000    0.000    0.000    0.000 
#
# Total GULP energy -167297.372253 kJ/mol
# GULP energy per Si atom -5576.579075 kJ/mol
# Density = 2.297698 g / cm^3
# Si number density = 23.029394 Si / 1000 Ang^3
#
#
#
# Elastic Constant Matrix: (Units=GPa)
#
#
# Indices 1 2 3 4 5 6 
#
# 1 115.8611 58.8647 33.5707 0.0000 0.0000 0.0000
# 2 58.8647 115.8611 33.5707 0.0000 0.0000 0.0000
# 3 33.5707 33.5707 110.6179 0.0000 0.0000 0.0000
# 4 0.0000 0.0000 0.0000 18.1428 0.0000 0.0000
# 5 0.0000 0.0000 0.0000 0.0000 18.1428 0.0000
# 6 0.0000 0.0000 0.0000 0.0000 0.0000 28.4982
#
#
#
# Elastic Compliance Matrix: (Units=1/GPa)
#
#
# Indices 1 2 3 4 5 6 
#
# 1 0.012012 -0.005533 -0.001966 0.000000 0.000000 0.000000
# 2 -0.005533 0.012012 -0.001966 0.000000 0.000000 0.000000
# 3 -0.001966 -0.001966 0.010234 0.000000 0.000000 0.000000
# 4 0.000000 0.000000 0.000000 0.055118 0.000000 0.000000
# 5 0.000000 0.000000 0.000000 0.000000 0.055118 0.000000
# 6 0.000000 0.000000 0.000000 0.000000 0.000000 0.035090
#
#
# Mechanical properties :
#
#
# Convention : Reuss Voigt Hill
#
# Bulk Modulus (GPa) = 65.24724 66.03915 65.64319
# Shear Modulus (GPa) = 24.55512 27.37902 25.96707
#
# Velocity S-wave (km/s) = 3.26889 3.45174 3.36156
# Velocity P-wave (km/s) = 6.53002 6.68014 6.60551
#
# Compressibility (1/GPa) = 0.01532632
#
# Stress axis : x y z
#
# Youngs Moduli (GPa) = 83.25080 83.25080 97.71780
#
# Poissons Ratio (x) = 0.46063 0.19213
# Poissons Ratio (y) = 0.46063 0.19213
# Poissons Ratio (z) = 0.16369 0.16369
#
# Static dielectric constant tensor:
#      x y z
#    x 1.956030 0.000000 0.000000 
#    y 0.000000 1.956030 0.000000 
#    z 0.000000 0.000000 1.793620 
# 
# From -- ./inp_files/2345.got.cif
#   From: 2010.05.17/outbox.cif.g08.bks.cpg/sg171_2_cif.got.tgz:2345.got - 2010.05.20 11:16:09.
