data_PCOD9580925
_publ_section_title
;
Structure prediction by ZEFSAII (Michael W. Deem and Ramdas Pophale) SiO2 
 PCOD9580925
Probable space group: P 64
;
_chemical_formula_sum "Si O2"
_cell_formula_units_Z 42
_cell_length_a 15.390046
_cell_length_b 15.390046
_cell_length_c 10.534605
_cell_angle_alpha 90.000000
_cell_angle_beta 90.000000
_cell_angle_gamma 120.000000
_cell_volume 2160.870416
_symmetry_space_group_name_H-M "P 64"
_symmetry_group_IT_number 172
_symmetry_cell_setting 'hexagonal'
loop_
_space_group_symop_operation_xyz
x,y,z
x-y,x,2/3+z
-y,x-y,1/3+z
-x,-y,z
-x+y,-x,2/3+z
y,-x+y,1/3+z
loop_
_atom_site_type_symbol
_atom_site_label
_atom_site_fract_x
_atom_site_fract_y
_atom_site_fract_z
Si Si1 0.924157 0.243482 0.382590
Si Si2 0.104621 0.745912 0.816561
Si Si3 0.317570 0.908575 0.907168
Si Si4 0.063287 0.446833 0.955840
Si Si5 0.954925 0.713719 0.611133
Si Si6 0.894117 0.499211 0.508288
Si Si7 0.716683 0.505991 0.915600
O O1 0.858596 0.137592 0.322996
O O2 0.859497 0.270910 0.477653
O O3 0.978702 0.326344 0.276775
O O4 0.009139 0.245900 0.471583
O O5 0.197692 0.837097 0.887541
O O6 0.162033 0.706235 0.722539
O O7 0.014437 0.666002 0.905933
O O8 0.045012 0.770516 0.710218
O O9 0.370352 0.917328 0.773507
O O10 0.352953 0.873115 0.031021
O O11 0.177836 0.493144 0.905450
O O12 0.000000 0.500000 0.919748
O O13 0.916851 0.594137 0.596985
O O14 0.803796 0.392255 0.553560
O O15 0.000000 0.500000 0.509016
#
# Coordination Sequence:
#
# PCOD9580925 Si02
#       7
#     6   6   6   6   6   6   6
#     4  10  20  38  63  95 117 169 216 261 329 385
#     4  10  21  38  59  91 119 170 215 256 327 388
#     4  10  23  38  62  95 130 164 215 273 331 388
#     4  11  24  39  63  91 138 172 211 273 329 393
#     4  10  21  37  67  90 124 172 222 265 321 403
#     4  11  19  38  67  92 128 169 222 274 321 397
#     4  10  21  39  64  93 120 174 226 256 319 406
#
# _framework density 19.436610999999999
#
# number of rings (size 3 to 8) (size 9 to 14) (size 15 to 20)
#    0.000    1.714    5.714    0.429    6.000    0.000 
#    0.000    4.286    0.000    4.286    0.000    0.000 
#    0.000    0.000    0.000    0.000    0.000    0.000 
#
# Total GULP energy -233921.071335 kJ/mol
# GULP energy per Si atom -5569.549317 kJ/mol
# Density = 1.939237 g / cm^3
# Si number density = 19.436611 Si / 1000 Ang^3
#
#
#
# Elastic Constant Matrix: (Units=GPa)
#
#
# Indices 1 2 3 4 5 6 
#
# 1 92.7005 37.3111 20.3788 0.0000 0.0000 0.0000
# 2 37.3111 92.7005 20.3788 0.0000 0.0000 0.0000
# 3 20.3788 20.3788 46.4956 0.0000 0.0000 0.0000
# 4 0.0000 0.0000 0.0000 18.2426 0.0000 0.0000
# 5 0.0000 0.0000 0.0000 0.0000 18.2426 0.0000
# 6 0.0000 0.0000 0.0000 0.0000 0.0000 27.6947
#
#
#
# Elastic Compliance Matrix: (Units=1/GPa)
#
#
# Indices 1 2 3 4 5 6 
#
# 1 0.013485 -0.004569 -0.003908 0.000000 0.000000 0.000000
# 2 -0.004569 0.013485 -0.003908 0.000000 0.000000 0.000000
# 3 -0.003908 -0.003908 0.024933 0.000000 0.000000 0.000000
# 4 0.000000 0.000000 0.000000 0.054817 0.000000 0.000000
# 5 0.000000 0.000000 0.000000 0.000000 0.054817 0.000000
# 6 0.000000 0.000000 0.000000 0.000000 0.000000 0.036108
#
#
# Mechanical properties :
#
#
# Convention : Reuss Voigt Hill
#
# Bulk Modulus (GPa) = 36.85395 43.11487 39.98441
# Shear Modulus (GPa) = 21.60199 23.09118 22.34658
#
# Velocity S-wave (km/s) = 3.33739 3.45051 3.39442
# Velocity P-wave (km/s) = 5.81835 6.17294 5.99827
#
# Compressibility (1/GPa) = 0.02713414
#
# Stress axis : x y z
#
# Youngs Moduli (GPa) = 74.15423 74.15423 40.10700
#
# Poissons Ratio (x) = 0.33878 0.15675
# Poissons Ratio (y) = 0.33878 0.15675
# Poissons Ratio (z) = 0.28981 0.28981
#
# Static dielectric constant tensor:
#      x y z
#    x 1.700900 0.000000 0.000000 
#    y 0.000000 1.700900 0.000000 
#    z 0.000000 0.000000 1.699230 
# 
# From -- ./inp_files/1095.got.cif
#   From: 2010.05.17/outbox.cif.g08.bks.cpg/sg172_1_cif.got.tgz:1095.got - 2010.05.20 11:19:57.
