data_PCOD9580554
_publ_section_title
;
Structure prediction by ZEFSAII (Michael W. Deem and Ramdas Pophale) SiO2 
 PCOD9580554
Probable space group: P 62
;
_chemical_formula_sum "Si O2"
_cell_formula_units_Z 36
_cell_length_a 9.762836
_cell_length_b 9.762836
_cell_length_c 20.350974
_cell_angle_alpha 90.000000
_cell_angle_beta 90.000000
_cell_angle_gamma 120.000000
_cell_volume 1679.839616
_symmetry_space_group_name_H-M "P 62"
_symmetry_group_IT_number 171
_symmetry_cell_setting 'hexagonal'
loop_
_space_group_symop_operation_xyz
x,y,z
x-y,x,1/3+z
-y,x-y,2/3+z
-x,-y,z
-x+y,-x,1/3+z
y,-x+y,2/3+z
loop_
_atom_site_type_symbol
_atom_site_label
_atom_site_fract_x
_atom_site_fract_y
_atom_site_fract_z
Si Si1 0.882804 0.570124 0.253610
Si Si2 0.592175 0.901613 0.271457
Si Si3 0.684231 0.348989 0.836583
Si Si4 0.873667 0.146784 0.188384
Si Si5 0.855659 0.320001 0.711419
Si Si6 0.821925 0.898078 0.381738
O O1 0.783844 0.497041 0.186768
O O2 0.759787 0.520950 0.312190
O O3 0.000000 0.500000 0.264768
O O4 0.995380 0.755125 0.242945
O O5 0.460446 0.753801 0.230079
O O6 0.680412 0.885674 0.335525
O O7 0.500000 0.000000 0.285665
O O8 0.736824 0.988347 0.220303
O O9 0.762594 0.538945 0.839077
O O10 0.738239 0.310883 0.768486
O O11 0.956028 0.141777 0.121573
O O12 0.000000 0.500000 0.704264
O O13 0.938843 0.219195 0.728422
O O14 0.000000 0.000000 0.355207
#
# Coordination Sequence:
#
# PCOD9580554 Si02
#       6
#     6   6   6   6   6   6
#     4  10  24  43  66  99 135 170 227 294 330 381
#     4  10  21  42  69  93 128 178 227 266 330 409
#     4  10  20  42  69  94 128 179 224 275 330 397
#     4  10  21  44  64  92 136 175 221 274 335 403
#     4  12  22  45  71  97 135 182 231 275 334 410
#     4  12  25  40  66 102 137 181 219 277 343 401
#
# _framework density 21.430619
#
# number of rings (size 3 to 8) (size 9 to 14) (size 15 to 20)
#    0.000    1.333    3.333    2.500    0.000    4.000 
#   12.000    0.000    0.000    0.000    0.000    0.000 
#    0.000    0.000    0.000    0.000    0.000    0.000 
#
# Total GULP energy -200869.124232 kJ/mol
# GULP energy per Si atom -5579.697895 kJ/mol
# Density = 2.138184 g / cm^3
# Si number density = 21.430619 Si / 1000 Ang^3
#
#
#
# Elastic Constant Matrix: (Units=GPa)
#
#
# Indices 1 2 3 4 5 6 
#
# 1 69.6576 42.0886 34.4111 0.0000 0.0000 0.0000
# 2 42.0886 69.6576 34.4111 0.0000 0.0000 0.0000
# 3 34.4111 34.4111 117.0640 0.0000 0.0000 0.0000
# 4 0.0000 0.0000 0.0000 17.2985 0.0000 0.0000
# 5 0.0000 0.0000 0.0000 0.0000 17.2985 0.0000
# 6 0.0000 0.0000 0.0000 0.0000 0.0000 13.7845
#
#
#
# Elastic Compliance Matrix: (Units=1/GPa)
#
#
# Indices 1 2 3 4 5 6 
#
# 1 0.023600 -0.012673 -0.003212 0.000000 0.000000 0.000000
# 2 -0.012673 0.023600 -0.003212 0.000000 0.000000 0.000000
# 3 -0.003212 -0.003212 0.010431 0.000000 0.000000 0.000000
# 4 0.000000 0.000000 0.000000 0.057809 0.000000 0.000000
# 5 0.000000 0.000000 0.000000 0.000000 0.057809 0.000000
# 6 0.000000 0.000000 0.000000 0.000000 0.000000 0.072545
#
#
# Mechanical properties :
#
#
# Convention : Reuss Voigt Hill
#
# Bulk Modulus (GPa) = 51.44897 53.13341 52.29119
# Shear Modulus (GPa) = 17.21375 19.37419 18.29397
#
# Velocity S-wave (km/s) = 2.83721 3.00999 2.92488
# Velocity P-wave (km/s) = 5.89850 6.07677 5.98830
#
# Compressibility (1/GPa) = 0.01943673
#
# Stress axis : x y z
#
# Youngs Moduli (GPa) = 42.37316 42.37316 95.87099
#
# Poissons Ratio (x) = 0.53699 0.30794
# Poissons Ratio (y) = 0.53699 0.30794
# Poissons Ratio (z) = 0.13610 0.13610
#
# Static dielectric constant tensor:
#      x y z
#    x 1.798680 0.000000 0.000000 
#    y 0.000000 1.798680 0.000000 
#    z 0.000000 0.000000 1.809640 
# 
# From -- ./inp_files/3616.got.cif
#   From: 2010.05.17/outbox.cif.g08.bks.cpg/sg171_2_cif.got.tgz:3616.got - 2010.05.20 11:16:09.
