data_PCOD9580734
_publ_section_title
;
Structure prediction by ZEFSAII (Michael W. Deem and Ramdas Pophale) SiO2 
 PCOD9580734
Probable space group: P 62
;
_chemical_formula_sum "Si O2"
_cell_formula_units_Z 39
_cell_length_a 12.106348
_cell_length_b 12.106348
_cell_length_c 12.179334
_cell_angle_alpha 90.000000
_cell_angle_beta 90.000000
_cell_angle_gamma 120.000000
_cell_volume 1545.896734
_symmetry_space_group_name_H-M "P 62"
_symmetry_group_IT_number 171
_symmetry_cell_setting 'hexagonal'
loop_
_space_group_symop_operation_xyz
x,y,z
x-y,x,1/3+z
-y,x-y,2/3+z
-x,-y,z
-x+y,-x,1/3+z
y,-x+y,2/3+z
loop_
_atom_site_type_symbol
_atom_site_label
_atom_site_fract_x
_atom_site_fract_y
_atom_site_fract_z
Si Si1 0.732155 0.306823 0.778660
Si Si2 0.657392 0.762169 0.233821
Si Si3 0.941217 0.261689 0.365977
Si Si4 0.500000 0.500000 0.486570
Si Si5 0.587049 0.164246 0.566189
Si Si6 0.040801 0.284346 0.816683
Si Si7 0.966054 0.706085 0.161733
O O1 0.738258 0.223296 0.880076
O O2 0.675739 0.221528 0.672503
O O3 0.660128 0.380453 0.817340
O O4 0.876016 0.408953 0.752844
O O5 0.671355 0.670894 0.146759
O O6 0.689474 0.733985 0.353263
O O7 0.749235 0.911189 0.194703
O O8 0.888251 0.339495 0.296374
O O9 0.836919 0.120451 0.401985
O O10 0.052637 0.267361 0.289165
O O11 0.596471 0.634904 0.544603
O O12 0.632477 0.077066 0.499847
O O13 0.174348 0.284438 0.820942
#
# Coordination Sequence:
#
# PCOD9580734 Si02
#       7
#     6   6   6   3   6   6   6
#     4  11  24  45  70 112 154 212 266 336 416 487
#     4  11  25  46  75 110 155 209 269 338 416 491
#     4  12  26  46  78 115 164 213 280 344 423 511
#     4  10  24  44  72 102 154 198 258 326 404 494
#     4  12  25  47  76 121 166 215 276 346 416 514
#     4  11  25  48  76 112 154 210 269 340 414 498
#     4  12  26  48  78 116 163 217 279 346 421 505
#
# _framework density 25.228076999999999
#
# number of rings (size 3 to 8) (size 9 to 14) (size 15 to 20)
#    0.000    0.615    3.077    4.154    2.154    3.077 
#    2.769    3.077    0.000    0.000    0.000    0.000 
#    0.000    0.000    0.000    0.000    0.000    0.000 
#
# Total GULP energy -217463.289668 kJ/mol
# GULP energy per Si atom -5575.981786 kJ/mol
# Density = 2.517066 g / cm^3
# Si number density = 25.228077 Si / 1000 Ang^3
#
#
#
# Elastic Constant Matrix: (Units=GPa)
#
#
# Indices 1 2 3 4 5 6 
#
# 1 138.1054 61.3776 19.1107 0.0000 0.0000 0.0000
# 2 61.3776 138.1054 19.1107 0.0000 0.0000 0.0000
# 3 19.1107 19.1107 92.2979 0.0000 0.0000 0.0000
# 4 0.0000 0.0000 0.0000 44.8250 0.0000 0.0000
# 5 0.0000 0.0000 0.0000 0.0000 44.8250 0.0000
# 6 0.0000 0.0000 0.0000 0.0000 0.0000 38.3639
#
#
#
# Elastic Compliance Matrix: (Units=1/GPa)
#
#
# Indices 1 2 3 4 5 6 
#
# 1 0.009127 -0.003907 -0.001081 0.000000 0.000000 0.000000
# 2 -0.003907 0.009127 -0.001081 0.000000 0.000000 0.000000
# 3 -0.001081 -0.001081 0.011282 0.000000 0.000000 0.000000
# 4 0.000000 0.000000 0.000000 0.022309 0.000000 0.000000
# 5 0.000000 0.000000 0.000000 0.000000 0.022309 0.000000
# 6 0.000000 0.000000 0.000000 0.000000 0.000000 0.026066
#
#
# Mechanical properties :
#
#
# Convention : Reuss Voigt Hill
#
# Bulk Modulus (GPa) = 57.47514 63.07852 60.27683
# Shear Modulus (GPa) = 42.31718 43.53009 42.92363
#
# Velocity S-wave (km/s) = 4.10003 4.15837 4.12931
# Velocity P-wave (km/s) = 6.72647 6.93640 6.83224
#
# Compressibility (1/GPa) = 0.01739883
#
# Stress axis : x y z
#
# Youngs Moduli (GPa) = 109.57027 109.57027 88.63622
#
# Poissons Ratio (x) = 0.42804 0.09580
# Poissons Ratio (y) = 0.42804 0.09580
# Poissons Ratio (z) = 0.11843 0.11843
#
# Static dielectric constant tensor:
#      x y z
#    x 2.134660 0.000000 0.000000 
#    y 0.000000 2.134660 0.000000 
#    z 0.000000 0.000000 2.064060 
# 
# From -- ./inp_files/1988.got.cif
#   From: 2010.05.17/outbox.cif.g08.bks.cpg/sg171_1_cif.got.tgz:1988.got - 2010.05.20 11:16:09.
