data_PCOD9580757
_publ_section_title
;
Structure prediction by ZEFSAII (Michael W. Deem and Ramdas Pophale) SiO2 
 PCOD9580757
Probable space group: P 62
;
_chemical_formula_sum "Si O2"
_cell_formula_units_Z 18
_cell_length_a 14.397676
_cell_length_b 14.397676
_cell_length_c 4.913204
_cell_angle_alpha 90.000000
_cell_angle_beta 90.000000
_cell_angle_gamma 120.000000
_cell_volume 882.023631
_symmetry_space_group_name_H-M "P 62"
_symmetry_group_IT_number 171
_symmetry_cell_setting 'hexagonal'
loop_
_space_group_symop_operation_xyz
x,y,z
x-y,x,1/3+z
-y,x-y,2/3+z
-x,-y,z
-x+y,-x,1/3+z
y,-x+y,2/3+z
loop_
_atom_site_type_symbol
_atom_site_label
_atom_site_fract_x
_atom_site_fract_y
_atom_site_fract_z
Si Si1 0.546780 0.159774 0.262530
Si Si2 0.655675 0.593273 0.112185
Si Si3 0.451315 0.273425 0.994100
O O1 0.451501 0.087372 0.473675
O O2 0.651151 0.175749 0.415196
O O3 0.509955 0.098993 0.975240
O O4 0.533826 0.263241 0.201776
O O5 0.773958 0.621380 0.210246
O O6 0.620642 0.681912 0.122307
#
# Coordination Sequence:
#
# PCOD9580757 Si02
#       3
#     6   6   6
#     4  10  25  40  67  91 142 177 235 278 353 418
#     4  10  25  40  70  90 147 171 246 273 360 415
#     4  10  25  46  62 107 131 197 222 299 341 439
#
# _framework density 20.407613000000001
#
# number of rings (size 3 to 8) (size 9 to 14) (size 15 to 20)
#    2.000    0.000    0.000    1.000    9.333    5.333 
#    6.000    0.000    0.000    0.000    0.000   11.667 
#    0.000    0.000    0.000    0.000    0.000    0.000 
#
# Total GULP energy -100356.006459 kJ/mol
# GULP energy per Si atom -5575.333692 kJ/mol
# Density = 2.036116 g / cm^3
# Si number density = 20.407613 Si / 1000 Ang^3
#
#
#
# Elastic Constant Matrix: (Units=GPa)
#
#
# Indices 1 2 3 4 5 6 
#
# 1 136.0917 78.3170 19.1836 0.0000 0.0000 0.0000
# 2 78.3170 136.0917 19.1836 0.0000 0.0000 0.0000
# 3 19.1836 19.1836 79.5864 0.0000 0.0000 0.0000
# 4 0.0000 0.0000 0.0000 20.0060 0.0000 0.0000
# 5 0.0000 0.0000 0.0000 0.0000 20.0060 0.0000
# 6 0.0000 0.0000 0.0000 0.0000 0.0000 28.8873
#
#
#
# Elastic Compliance Matrix: (Units=1/GPa)
#
#
# Indices 1 2 3 4 5 6 
#
# 1 0.011091 -0.006217 -0.001175 0.000000 0.000000 0.000000
# 2 -0.006217 0.011091 -0.001175 0.000000 0.000000 0.000000
# 3 -0.001175 -0.001175 0.013131 0.000000 0.000000 0.000000
# 4 0.000000 0.000000 0.000000 0.049985 0.000000 0.000000
# 5 0.000000 0.000000 0.000000 0.000000 0.049985 0.000000
# 6 0.000000 0.000000 0.000000 0.000000 0.000000 0.034617
#
#
# Mechanical properties :
#
#
# Convention : Reuss Voigt Hill
#
# Bulk Modulus (GPa) = 55.00472 65.01534 60.01003
# Shear Modulus (GPa) = 25.89393 29.45224 27.67309
#
# Velocity S-wave (km/s) = 3.56594 3.80307 3.68641
# Velocity P-wave (km/s) = 6.63069 7.15625 6.89848
#
# Compressibility (1/GPa) = 0.01818026
#
# Stress axis : x y z
#
# Youngs Moduli (GPa) = 90.15970 90.15970 76.15360
#
# Poissons Ratio (x) = 0.56054 0.08947
# Poissons Ratio (y) = 0.56054 0.08947
# Poissons Ratio (z) = 0.10593 0.10593
#
# Static dielectric constant tensor:
#      x y z
#    x 1.793120 0.000000 0.000000 
#    y 0.000000 1.793120 0.000000 
#    z 0.000000 0.000000 1.768120 
# 
# From -- ./inp_files/143.got.cif
#   From: 2010.05.17/outbox.cif.g08.bks.cpg/sg171_1_cif.got.tgz:143.got - 2010.05.20 11:16:09.
