data_PCOD9580145
_publ_section_title
;
Structure prediction by ZEFSAII (Michael W. Deem and Ramdas Pophale) SiO2 
 PCOD9580145
Probable space group: P 61
;
_chemical_formula_sum "Si O2"
_cell_formula_units_Z 24
_cell_length_a 15.140583
_cell_length_b 15.140583
_cell_length_c 4.889356
_cell_angle_alpha 90.000000
_cell_angle_beta 90.000000
_cell_angle_gamma 120.000000
_cell_volume 970.660794
_symmetry_space_group_name_H-M "P 61"
_symmetry_group_IT_number 169
_symmetry_cell_setting 'hexagonal'
loop_
_space_group_symop_operation_xyz
x,y,z
x-y,x,1/6+z
-y,x-y,1/3+z
-x,-y,1/2+z
-x+y,-x,2/3+z
y,-x+y,5/6+z
loop_
_atom_site_type_symbol
_atom_site_label
_atom_site_fract_x
_atom_site_fract_y
_atom_site_fract_z
Si Si1 0.769735 0.914959 0.521630
Si Si2 0.971387 0.540430 0.633896
Si Si3 0.307157 0.752284 0.573377
Si Si4 0.243194 0.363978 0.699782
O O1 0.820966 0.852509 0.634868
O O2 0.686414 0.907044 0.738317
O O3 0.713075 0.867341 0.236686
O O4 0.851952 0.497717 0.594767
O O5 0.999069 0.528477 0.941875
O O6 0.035537 0.653050 0.509190
O O7 0.251060 0.648588 0.745935
O O8 0.225269 0.754298 0.370576
#
# Coordination Sequence:
#
# PCOD9580145 Si02
#       4
#     6   6   6   6
#     4  12  27  50  79 114 151 198 253 317 385 459
#     4  12  25  47  71 105 150 198 253 309 381 445
#     4  12  27  46  74 110 150 198 262 309 376 455
#     4  12  27  49  74 113 155 202 250 313 388 451
#
# _framework density 24.725425000000001
#
# number of rings (size 3 to 8) (size 9 to 14) (size 15 to 20)
#    0.000    0.000    2.500    7.500    3.500    2.000 
#    0.000    0.000    0.000    0.000    0.000    0.000 
#    0.000    0.000    0.000    0.000    0.000    0.000 
#
# Total GULP energy -134871.302740 kJ/mol
# GULP energy per Si atom -5619.637614 kJ/mol
# Density = 2.466915 g / cm^3
# Si number density = 24.725425 Si / 1000 Ang^3
#
#
#
# Elastic Constant Matrix: (Units=GPa)
#
#
# Indices 1 2 3 4 5 6 
#
# 1 123.0906 51.4687 16.0094 0.0000 0.0000 0.0000
# 2 51.4687 123.0906 16.0094 0.0000 0.0000 0.0000
# 3 16.0094 16.0094 101.6507 0.0000 0.0000 0.0000
# 4 0.0000 0.0000 0.0000 40.6855 0.0000 0.0000
# 5 0.0000 0.0000 0.0000 0.0000 40.6855 0.0000
# 6 0.0000 0.0000 0.0000 0.0000 0.0000 35.8109
#
#
#
# Elastic Compliance Matrix: (Units=1/GPa)
#
#
# Indices 1 2 3 4 5 6 
#
# 1 0.009931 -0.004032 -0.000929 0.000000 0.000000 0.000000
# 2 -0.004032 0.009931 -0.000929 0.000000 0.000000 0.000000
# 3 -0.000929 -0.000929 0.010130 0.000000 0.000000 0.000000
# 4 0.000000 0.000000 0.000000 0.024579 0.000000 0.000000
# 5 0.000000 0.000000 0.000000 0.000000 0.024579 0.000000
# 6 0.000000 0.000000 0.000000 0.000000 0.000000 0.027924
#
#
# Mechanical properties :
#
#
# Convention : Reuss Voigt Hill
#
# Bulk Modulus (GPa) = 54.90823 57.20075 56.05449
# Shear Modulus (GPa) = 40.02442 41.05935 40.54188
#
# Velocity S-wave (km/s) = 4.02774 4.07948 4.05369
# Velocity P-wave (km/s) = 6.62463 6.73604 6.68056
#
# Compressibility (1/GPa) = 0.01821221
#
# Stress axis : x y z
#
# Youngs Moduli (GPa) = 100.69811 100.69811 98.71420
#
# Poissons Ratio (x) = 0.40597 0.09171
# Poissons Ratio (y) = 0.40597 0.09171
# Poissons Ratio (z) = 0.09356 0.09356
#
# Static dielectric constant tensor:
#      x y z
#    x 1.942320 0.000000 0.000000 
#    y 0.000000 1.942320 0.000000 
#    z 0.000000 0.000000 1.891280 
# 
# From -- ./inp_files/61.got.cif
#   From: 2010.05.17/outbox.cif.g08.bks.cpg/sg169_cif.got.tgz:61.got - 2010.05.20 11:12:54.
