data_PCOD9580816
_publ_section_title
;
Structure prediction by ZEFSAII (Michael W. Deem and Ramdas Pophale) SiO2 
 PCOD9580816
Probable space group: P 62
;
_chemical_formula_sum "Si O2"
_cell_formula_units_Z 36
_cell_length_a 11.571936
_cell_length_b 11.571936
_cell_length_c 13.868625
_cell_angle_alpha 90.000000
_cell_angle_beta 90.000000
_cell_angle_gamma 120.000000
_cell_volume 1608.333408
_symmetry_space_group_name_H-M "P 62"
_symmetry_group_IT_number 171
_symmetry_cell_setting 'hexagonal'
loop_
_space_group_symop_operation_xyz
x,y,z
x-y,x,1/3+z
-y,x-y,2/3+z
-x,-y,z
-x+y,-x,1/3+z
y,-x+y,2/3+z
loop_
_atom_site_type_symbol
_atom_site_label
_atom_site_fract_x
_atom_site_fract_y
_atom_site_fract_z
Si Si1 0.000000 0.500000 0.287980
Si Si2 0.104539 0.895461 0.290386
Si Si3 0.279351 0.384498 0.105786
Si Si4 0.000000 0.500000 0.959459
Si Si5 0.279351 0.894854 0.141654
Si Si6 0.611085 0.222170 0.457053
Si Si7 0.204517 0.000000 0.957053
O O1 0.988342 0.386433 0.360272
O O2 0.872356 0.440352 0.218084
O O3 0.163046 0.862082 0.384208
O O4 0.137918 0.836954 0.196565
O O5 0.946575 0.826709 0.306688
O O6 0.173291 0.053426 0.274085
O O7 0.302813 0.531817 0.124254
O O8 0.269242 0.301801 0.199929
O O9 0.988342 0.601909 0.887167
O O10 0.872356 0.432004 0.029356
O O11 0.302813 0.770996 0.123185
O O12 0.269242 0.967441 0.047511
#
# Coordination Sequence:
#
# PCOD9580816 Si02
#       7
#     3   6   6   3   6   6   6
#     4  11  24  45  70  98 136 191 242 289 352 442
#     4  11  22  46  70 106 140 183 232 300 372 437
#     4  12  24  47  68 107 139 189 240 296 364 437
#     4  11  24  45  70  98 136 191 242 289 352 442
#     4  12  24  47  68 107 139 189 240 296 364 437
#     4  11  24  46  74  96 140 194 241 290 356 461
#     4  11  26  41  74 106 146 175 234 309 368 428
#
# _framework density 22.383417999999999
#
# number of rings (size 3 to 8) (size 9 to 14) (size 15 to 20)
#    0.000    0.667    3.333    4.000    4.667    3.333 
#   18.000    0.000    0.000    0.000    0.000    0.000 
#    0.000    0.000    0.000    0.000    0.000    0.000 
#
# Total GULP energy -201357.179056 kJ/mol
# GULP energy per Si atom -5593.254974 kJ/mol
# Density = 2.233247 g / cm^3
# Si number density = 22.383418 Si / 1000 Ang^3
#
#
#
# Elastic Constant Matrix: (Units=GPa)
#
#
# Indices 1 2 3 4 5 6 
#
# 1 89.0330 36.9999 54.9168 0.0000 0.0000 0.0000
# 2 36.9999 89.0330 54.9168 0.0000 0.0000 0.0000
# 3 54.9168 54.9168 182.7857 0.0000 0.0000 0.0000
# 4 0.0000 0.0000 0.0000 36.9116 0.0000 0.0000
# 5 0.0000 0.0000 0.0000 0.0000 36.9116 0.0000
# 6 0.0000 0.0000 0.0000 0.0000 0.0000 26.0166
#
#
#
# Elastic Compliance Matrix: (Units=1/GPa)
#
#
# Indices 1 2 3 4 5 6 
#
# 1 0.014984 -0.004235 -0.003229 0.000000 0.000000 0.000000
# 2 -0.004235 0.014984 -0.003229 0.000000 0.000000 0.000000
# 3 -0.003229 -0.003229 0.007411 0.000000 0.000000 0.000000
# 4 0.000000 0.000000 0.000000 0.027092 0.000000 0.000000
# 5 0.000000 0.000000 0.000000 0.000000 0.027092 0.000000
# 6 0.000000 0.000000 0.000000 0.000000 0.000000 0.038437
#
#
# Mechanical properties :
#
#
# Convention : Reuss Voigt Hill
#
# Bulk Modulus (GPa) = 62.53394 72.72430 67.62912
# Shear Modulus (GPa) = 31.90462 34.23582 33.07022
#
# Velocity S-wave (km/s) = 3.77950 3.91515 3.84792
# Velocity P-wave (km/s) = 6.85890 7.28002 7.07259
#
# Compressibility (1/GPa) = 0.01599132
#
# Stress axis : x y z
#
# Youngs Moduli (GPa) = 66.73943 66.73943 134.92735
#
# Poissons Ratio (x) = 0.28263 0.43573
# Poissons Ratio (y) = 0.28263 0.43573
# Poissons Ratio (z) = 0.21553 0.21553
#
# Static dielectric constant tensor:
#      x y z
#    x 1.874990 0.000000 0.000000 
#    y 0.000000 1.874990 0.000000 
#    z 0.000000 0.000000 1.790880 
# 
# From -- ./inp_files/1970.got.cif
#   From: 2010.05.17/outbox.cif.g08.bks.cpg/sg171_1_cif.got.tgz:1970.got - 2010.05.20 11:16:09.
