data_PCOD9580893
_publ_section_title
;
Structure prediction by ZEFSAII (Michael W. Deem and Ramdas Pophale) SiO2 
 PCOD9580893
Probable space group: P 64
;
_chemical_formula_sum "Si O2"
_cell_formula_units_Z 33
_cell_length_a 10.021616
_cell_length_b 10.021616
_cell_length_c 15.750253
_cell_angle_alpha 90.000000
_cell_angle_beta 90.000000
_cell_angle_gamma 120.000000
_cell_volume 1369.915191
_symmetry_space_group_name_H-M "P 64"
_symmetry_group_IT_number 172
_symmetry_cell_setting 'hexagonal'
loop_
_space_group_symop_operation_xyz
x,y,z
x-y,x,2/3+z
-y,x-y,1/3+z
-x,-y,z
-x+y,-x,2/3+z
y,-x+y,1/3+z
loop_
_atom_site_type_symbol
_atom_site_label
_atom_site_fract_x
_atom_site_fract_y
_atom_site_fract_z
Si Si1 0.000000 0.500000 0.128920
Si Si2 0.377366 0.669711 0.711992
Si Si3 0.342006 0.769413 0.552133
Si Si4 0.936150 0.188927 0.220473
Si Si5 0.718677 0.774787 0.726791
Si Si6 0.741323 0.710497 0.255774
O O1 0.028319 0.643418 0.187497
O O2 0.154840 0.572762 0.071502
O O3 0.300217 0.634444 0.619950
O O4 0.276205 0.572852 0.789535
O O5 0.535817 0.666802 0.712609
O O6 0.529034 0.865689 0.562598
O O7 0.259817 0.862908 0.579126
O O8 0.922993 0.188187 0.323776
O O9 0.099244 0.194236 0.206051
O O10 0.807654 0.061647 0.159568
O O11 0.738276 0.933367 0.685200
#
# Coordination Sequence:
#
# PCOD9580893 Si02
#       6
#     3   6   6   6   6   6
#     4  10  14  24  38  60  94 132 178 228 270 314
#     4  10  16  23  39  59  91 132 183 230 260 324
#     4  10  16  24  36  60  90 129 181 224 266 322
#     4   9  15  25  40  62  98 138 183 228 272 333
#     4   8  16  26  41  64  95 134 186 223 278 320
#     4   8  16  24  36  58  90 128 180 224 265 320
#
# _framework density 24.089082000000001
#
# number of rings (size 3 to 8) (size 9 to 14) (size 15 to 20)
#    1.091    1.818    1.818    3.273    0.000    0.000 
#    0.000    0.000    0.000    0.000    0.000   15.273 
#    0.000    0.000    0.000   44.182   68.727    0.364 
#
# Total GULP energy -183837.790599 kJ/mol
# GULP energy per Si atom -5570.842139 kJ/mol
# Density = 2.403425 g / cm^3
# Si number density = 24.089082 Si / 1000 Ang^3
#
#
#
# Elastic Constant Matrix: (Units=GPa)
#
#
# Indices 1 2 3 4 5 6 
#
# 1 47.1944 9.3847 21.6072 0.0000 0.0000 0.0000
# 2 9.3847 47.1944 21.6072 0.0000 0.0000 0.0000
# 3 21.6072 21.6072 134.1852 0.0000 0.0000 0.0000
# 4 0.0000 0.0000 0.0000 31.4067 0.0000 0.0000
# 5 0.0000 0.0000 0.0000 0.0000 31.4067 0.0000
# 6 0.0000 0.0000 0.0000 0.0000 0.0000 18.9049
#
#
#
# Elastic Compliance Matrix: (Units=1/GPa)
#
#
# Indices 1 2 3 4 5 6 
#
# 1 0.023301 -0.003148 -0.003245 0.000000 0.000000 0.000000
# 2 -0.003148 0.023301 -0.003245 0.000000 0.000000 0.000000
# 3 -0.003245 -0.003245 0.008497 0.000000 0.000000 0.000000
# 4 0.000000 0.000000 0.000000 0.031840 0.000000 0.000000
# 5 0.000000 0.000000 0.000000 0.000000 0.031840 0.000000
# 6 0.000000 0.000000 0.000000 0.000000 0.000000 0.052896
#
#
# Mechanical properties :
#
#
# Convention : Reuss Voigt Hill
#
# Bulk Modulus (GPa) = 27.91510 37.08579 32.50044
# Shear Modulus (GPa) = 24.64359 28.07533 26.35946
#
# Velocity S-wave (km/s) = 3.20194 3.41762 3.31153
# Velocity P-wave (km/s) = 5.02825 5.56796 5.30497
#
# Compressibility (1/GPa) = 0.03582291
#
# Stress axis : x y z
#
# Youngs Moduli (GPa) = 42.91734 42.91734 117.68193
#
# Poissons Ratio (x) = 0.13509 0.38189
# Poissons Ratio (y) = 0.13509 0.38189
# Poissons Ratio (z) = 0.13927 0.13927
#
# Static dielectric constant tensor:
#      x y z
#    x 1.975580 0.000000 0.000000 
#    y 0.000000 1.975580 0.000000 
#    z 0.000000 0.000000 2.000450 
# 
# From -- ./inp_files/1272.got.cif
#   From: 2010.05.17/outbox.cif.g08.bks.cpg/sg172_1_cif.got.tgz:1272.got - 2010.05.20 11:19:57.
