data_PCOD9580368
_publ_section_title
;
Structure prediction by ZEFSAII (Michael W. Deem and Ramdas Pophale) SiO2 
 PCOD9580368
Probable space group: P 65
;
_chemical_formula_sum "Si O2"
_cell_formula_units_Z 48
_cell_length_a 14.766586
_cell_length_b 14.766586
_cell_length_c 12.792613
_cell_angle_alpha 90.000000
_cell_angle_beta 90.000000
_cell_angle_gamma 120.000000
_cell_volume 2415.739451
_symmetry_space_group_name_H-M "P 65"
_symmetry_group_IT_number 170
_symmetry_cell_setting 'hexagonal'
loop_
_space_group_symop_operation_xyz
x,y,z
x-y,x,5/6+z
-y,x-y,2/3+z
-x,-y,1/2+z
-x+y,-x,1/3+z
y,-x+y,1/6+z
loop_
_atom_site_type_symbol
_atom_site_label
_atom_site_fract_x
_atom_site_fract_y
_atom_site_fract_z
Si Si1 0.215105 0.610575 0.156550
Si Si2 0.983174 0.663417 0.194347
Si Si3 0.633750 0.972105 0.165182
Si Si4 0.494317 0.442495 0.143655
Si Si5 0.868843 0.631556 0.986340
Si Si6 0.578498 0.323909 0.550437
Si Si7 0.089604 0.576642 0.651905
Si Si8 0.402936 0.224178 0.029298
O O1 0.194369 0.568974 0.275383
O O2 0.251234 0.732597 0.162398
O O3 0.121252 0.558475 0.075937
O O4 0.308903 0.605209 0.100327
O O5 0.952877 0.541122 0.195252
O O6 0.896735 0.665167 0.268743
O O7 0.101575 0.747427 0.227435
O O8 0.957078 0.675549 0.074690
O O9 0.530879 0.951858 0.232667
O O10 0.658374 0.878640 0.176968
O O11 0.596584 0.968939 0.047653
O O12 0.734407 0.074440 0.207989
O O13 0.425166 0.485827 0.197157
O O14 0.426536 0.324488 0.100731
O O15 0.804061 0.505887 0.974527
O O16 0.561618 0.211261 0.513514
#
# Coordination Sequence:
#
# PCOD9580368 Si02
#       8
#     6   6   6   6   6   6   6   6
#     4  12  21  35  54  88 121 170 207 249 300 370
#     4  12  22  40  61  87 124 165 209 265 311 377
#     4  11  23  39  62  90 123 167 209 260 313 377
#     4  12  23  37  56  87 124 164 207 250 311 378
#     4  11  22  39  60  89 121 166 210 261 310 370
#     4  11  24  34  59  88 129 170 210 249 303 382
#     4  11  22  37  58  85 123 164 205 247 308 372
#     4  12  25  39  60  88 123 166 215 259 318 378
#
# _framework density 19.869693000000002
#
# number of rings (size 3 to 8) (size 9 to 14) (size 15 to 20)
#    0.000    0.500    6.250    3.750    0.000    1.000 
#    0.000    0.000    0.000    0.000    0.000   17.500 
#    0.000    0.000    0.000    0.000    0.000    0.000 
#
# Total GULP energy -267791.965366 kJ/mol
# GULP energy per Si atom -5578.999278 kJ/mol
# Density = 1.982447 g / cm^3
# Si number density = 19.869693 Si / 1000 Ang^3
#
#
#
# Elastic Constant Matrix: (Units=GPa)
#
#
# Indices 1 2 3 4 5 6 
#
# 1 65.6960 27.0393 6.9373 0.0000 0.0000 0.0000
# 2 27.0393 65.6960 6.9373 0.0000 0.0000 0.0000
# 3 6.9373 6.9373 47.8172 0.0000 0.0000 0.0000
# 4 0.0000 0.0000 0.0000 32.4112 0.0000 0.0000
# 5 0.0000 0.0000 0.0000 0.0000 32.4112 0.0000
# 6 0.0000 0.0000 0.0000 0.0000 0.0000 19.3283
#
#
#
# Elastic Compliance Matrix: (Units=1/GPa)
#
#
# Indices 1 2 3 4 5 6 
#
# 1 0.018446 -0.007423 -0.001599 0.000000 0.000000 0.000000
# 2 -0.007423 0.018446 -0.001599 0.000000 0.000000 0.000000
# 3 -0.001599 -0.001599 0.021377 0.000000 0.000000 0.000000
# 4 0.000000 0.000000 0.000000 0.030853 0.000000 0.000000
# 5 0.000000 0.000000 0.000000 0.000000 0.030853 0.000000
# 6 0.000000 0.000000 0.000000 0.000000 0.000000 0.051738
#
#
# Mechanical properties :
#
#
# Convention : Reuss Voigt Hill
#
# Bulk Modulus (GPa) = 27.00832 29.00412 28.00622
# Shear Modulus (GPa) = 24.35490 26.04985 25.20237
#
# Velocity S-wave (km/s) = 3.50484 3.62475 3.56530
# Velocity P-wave (km/s) = 5.47730 5.66986 5.57441
#
# Compressibility (1/GPa) = 0.03702562
#
# Stress axis : x y z
#
# Youngs Moduli (GPa) = 54.21318 54.21318 46.77929
#
# Poissons Ratio (x) = 0.40243 0.07481
# Poissons Ratio (y) = 0.40243 0.07481
# Poissons Ratio (z) = 0.08670 0.08670
#
# Static dielectric constant tensor:
#      x y z
#    x 1.742030 0.000000 0.000000 
#    y 0.000000 1.742030 0.000000 
#    z 0.000000 0.000000 1.751340 
# 
# From -- ./inp_files/1061.got.cif
#   From: 2010.05.17/outbox.cif.g08.bks.cpg/sg170_cif.got.tgz:1061.got - 2010.05.20 11:14:30.
