data_PCOD9580817
_publ_section_title
;
Structure prediction by ZEFSAII (Michael W. Deem and Ramdas Pophale) SiO2 
 PCOD9580817
Probable space group: P 62
;
_chemical_formula_sum "Si O2"
_cell_formula_units_Z 42
_cell_length_a 15.300080
_cell_length_b 15.300080
_cell_length_c 10.819547
_cell_angle_alpha 90.000000
_cell_angle_beta 90.000000
_cell_angle_gamma 120.000000
_cell_volume 2193.446837
_symmetry_space_group_name_H-M "P 62"
_symmetry_group_IT_number 171
_symmetry_cell_setting 'hexagonal'
loop_
_space_group_symop_operation_xyz
x,y,z
x-y,x,1/3+z
-y,x-y,2/3+z
-x,-y,z
-x+y,-x,1/3+z
y,-x+y,2/3+z
loop_
_atom_site_type_symbol
_atom_site_label
_atom_site_fract_x
_atom_site_fract_y
_atom_site_fract_z
Si Si1 0.778567 0.260775 0.342780
Si Si2 0.000000 0.500000 0.615438
Si Si3 0.355477 0.831216 0.568762
Si Si4 0.647917 0.813501 0.063807
Si Si5 0.049489 0.715344 0.502616
Si Si6 0.500000 0.000000 0.403545
Si Si7 0.183172 0.525587 0.781413
Si Si8 0.684455 0.511984 0.587323
O O1 0.712782 0.248324 0.464331
O O2 0.812732 0.369420 0.283987
O O3 0.871593 0.250372 0.390115
O O4 0.711276 0.177789 0.240257
O O5 0.033283 0.603461 0.539088
O O6 0.085362 0.503719 0.704886
O O7 0.283262 0.831697 0.673943
O O8 0.406738 0.936401 0.494822
O O9 0.708857 0.762686 0.123283
O O10 0.610051 0.856232 0.174249
O O11 0.686478 0.895551 0.952290
O O12 0.514810 0.922774 0.319004
O O13 0.222475 0.637973 0.830437
O O14 0.252837 0.506676 0.690161
#
# Coordination Sequence:
#
# PCOD9580817 Si02
#       8
#     6   3   6   6   6   3   6   6
#     4  11  23  36  56  85 129 174 226 271 321 391
#     4  12  23  39  66  92 136 177 233 274 338 406
#     4  11  24  35  57  84 125 174 223 269 329 380
#     4  11  25  40  62  87 126 170 222 273 342 401
#     4  11  24  42  62  92 128 179 221 282 334 412
#     4  12  23  39  56  90 126 173 225 282 316 398
#     4  12  24  38  57  92 129 182 228 271 331 393
#     4  12  26  37  61  87 133 181 231 272 332 392
#
# _framework density 19.147943999999999
#
# number of rings (size 3 to 8) (size 9 to 14) (size 15 to 20)
#    0.000    0.571    5.714    2.143    4.000    0.000 
#    0.000    0.000    0.000    0.000    0.000    0.000 
#    0.000   42.286    0.000    0.000    0.000    0.000 
#
# Total GULP energy -234636.370197 kJ/mol
# GULP energy per Si atom -5586.580243 kJ/mol
# Density = 1.910436 g / cm^3
# Si number density = 19.147944 Si / 1000 Ang^3
#
#
#
# Elastic Constant Matrix: (Units=GPa)
#
#
# Indices 1 2 3 4 5 6 
#
# 1 86.3958 40.3982 42.0694 0.0000 0.0000 0.0000
# 2 40.3982 86.3958 42.0694 0.0000 0.0000 0.0000
# 3 42.0694 42.0694 79.0955 0.0000 0.0000 0.0000
# 4 0.0000 0.0000 0.0000 31.2428 0.0000 0.0000
# 5 0.0000 0.0000 0.0000 0.0000 31.2428 0.0000
# 6 0.0000 0.0000 0.0000 0.0000 0.0000 22.9988
#
#
#
# Elastic Compliance Matrix: (Units=1/GPa)
#
#
# Indices 1 2 3 4 5 6 
#
# 1 0.016965 -0.004776 -0.006483 0.000000 0.000000 0.000000
# 2 -0.004776 0.016965 -0.006483 0.000000 0.000000 0.000000
# 3 -0.006483 -0.006483 0.019539 0.000000 0.000000 0.000000
# 4 0.000000 0.000000 0.000000 0.032007 0.000000 0.000000
# 5 0.000000 0.000000 0.000000 0.000000 0.032007 0.000000
# 6 0.000000 0.000000 0.000000 0.000000 0.000000 0.043481
#
#
# Mechanical properties :
#
#
# Convention : Reuss Voigt Hill
#
# Bulk Modulus (GPa) = 55.60200 55.66234 55.63217
# Shear Modulus (GPa) = 24.69841 25.58690 25.14265
#
# Velocity S-wave (km/s) = 3.59538 3.65947 3.62757
# Velocity P-wave (km/s) = 6.80711 6.85481 6.83100
#
# Compressibility (1/GPa) = 0.01798496
#
# Stress axis : x y z
#
# Youngs Moduli (GPa) = 58.94641 58.94641 51.17879
#
# Poissons Ratio (x) = 0.28151 0.33179
# Poissons Ratio (y) = 0.28151 0.33179
# Poissons Ratio (z) = 0.38215 0.38215
#
# Static dielectric constant tensor:
#      x y z
#    x 1.699820 0.000000 0.000000 
#    y 0.000000 1.699820 0.000000 
#    z 0.000000 0.000000 1.720510 
# 
# From -- ./inp_files/1686.got.cif
#   From: 2010.05.17/outbox.cif.g08.bks.cpg/sg171_1_cif.got.tgz:1686.got - 2010.05.20 11:16:09.
