data_PCOD9580955
_publ_section_title
;
Structure prediction by ZEFSAII (Michael W. Deem and Ramdas Pophale) SiO2 
 PCOD9580955
Probable space group: P 64
;
_chemical_formula_sum "Si O2"
_cell_formula_units_Z 45
_cell_length_a 13.390068
_cell_length_b 13.390068
_cell_length_c 11.574243
_cell_angle_alpha 90.000000
_cell_angle_beta 90.000000
_cell_angle_gamma 120.000000
_cell_volume 1797.168479
_symmetry_space_group_name_H-M "P 64"
_symmetry_group_IT_number 172
_symmetry_cell_setting 'hexagonal'
loop_
_space_group_symop_operation_xyz
x,y,z
x-y,x,2/3+z
-y,x-y,1/3+z
-x,-y,z
-x+y,-x,2/3+z
y,-x+y,1/3+z
loop_
_atom_site_type_symbol
_atom_site_label
_atom_site_fract_x
_atom_site_fract_y
_atom_site_fract_z
Si Si1 0.064812 0.774007 0.347540
Si Si2 0.181459 0.638376 0.636722
Si Si3 0.281168 0.013212 0.278180
Si Si4 0.559715 0.378543 0.474679
Si Si5 0.774904 0.321199 0.367666
Si Si6 0.045749 0.685396 0.108909
Si Si7 0.000000 0.000000 0.776275
Si Si8 0.827699 0.829524 0.287345
O O1 0.999802 0.737156 0.471691
O O2 0.109309 0.681567 0.345651
O O3 0.023358 0.754873 0.213289
O O4 0.181466 0.900092 0.341699
O O5 0.067636 0.650463 0.641563
O O6 0.279446 0.728631 0.723897
O O7 0.222198 0.657984 0.503636
O O8 0.194829 0.529394 0.672070
O O9 0.254573 0.116228 0.307239
O O10 0.585542 0.366116 0.609074
O O11 0.439859 0.374178 0.453306
O O12 0.662044 0.509305 0.446876
O O13 0.052904 0.751130 0.989285
O O14 0.002366 0.897022 0.840790
O O15 0.885892 0.943677 0.700245
#
# Coordination Sequence:
#
# PCOD9580955 Si02
#       8
#     6   6   6   6   6   6   3   6
#     4  10  24  43  64  95 134 174 229 282 337 413
#     4  11  21  41  67  97 135 176 219 286 343 413
#     4  11  23  42  64  93 136 176 226 282 336 410
#     4  10  21  44  66 101 134 172 230 282 341 429
#     4  10  22  40  68  97 134 176 223 280 353 407
#     4  10  22  41  69  96 130 175 224 284 344 403
#     4  10  24  38  62  86 130 172 228 270 328 408
#     4  11  21  41  60  90 124 177 219 276 333 392
#
# _framework density 25.039390000000001
#
# number of rings (size 3 to 8) (size 9 to 14) (size 15 to 20)
#    0.000    1.600    2.667    1.600    0.000    4.800 
#    7.200    2.667    0.000    0.000    0.000    0.000 
#    0.000    0.000    0.000    0.000    0.000    0.000 
#
# Total GULP energy -250670.729207 kJ/mol
# GULP energy per Si atom -5570.460649 kJ/mol
# Density = 2.498240 g / cm^3
# Si number density = 25.039390 Si / 1000 Ang^3
#
#
#
# Elastic Constant Matrix: (Units=GPa)
#
#
# Indices 1 2 3 4 5 6 
#
# 1 64.6523 -5.7213 27.7789 0.0000 0.0000 0.0000
# 2 -5.7213 64.6523 27.7789 0.0000 0.0000 0.0000
# 3 27.7789 27.7789 116.9811 0.0000 0.0000 0.0000
# 4 0.0000 0.0000 0.0000 29.2450 0.0000 0.0000
# 5 0.0000 0.0000 0.0000 0.0000 29.2450 0.0000
# 6 0.0000 0.0000 0.0000 0.0000 0.0000 35.1868
#
#
#
# Elastic Compliance Matrix: (Units=1/GPa)
#
#
# Indices 1 2 3 4 5 6 
#
# 1 0.018037 0.003827 -0.005192 0.000000 0.000000 0.000000
# 2 0.003827 0.018037 -0.005192 0.000000 0.000000 0.000000
# 3 -0.005192 -0.005192 0.011014 0.000000 0.000000 0.000000
# 4 0.000000 0.000000 0.000000 0.034194 0.000000 0.000000
# 5 0.000000 0.000000 0.000000 0.000000 0.034194 0.000000
# 6 0.000000 0.000000 0.000000 0.000000 0.000000 0.028420
#
#
# Mechanical properties :
#
#
# Convention : Reuss Voigt Hill
#
# Bulk Modulus (GPa) = 29.43422 38.43985 33.93703
# Shear Modulus (GPa) = 29.70296 31.83198 30.76747
#
# Velocity S-wave (km/s) = 3.44793 3.56936 3.50917
# Velocity P-wave (km/s) = 5.25658 5.68966 5.47740
#
# Compressibility (1/GPa) = 0.03397406
#
# Stress axis : x y z
#
# Youngs Moduli (GPa) = 55.44233 55.44233 90.79228
#
# Poissons Ratio (x) = -0.21217 0.47138
# Poissons Ratio (y) = -0.21217 0.47138
# Poissons Ratio (z) = 0.28785 0.28785
#
# Static dielectric constant tensor:
#      x y z
#    x 2.188070 0.000000 0.000000 
#    y 0.000000 2.188070 0.000000 
#    z 0.000000 0.000000 2.129300 
# 
# From -- ./inp_files/1139.got.cif
#   From: 2010.05.17/outbox.cif.g08.bks.cpg/sg172_1_cif.got.tgz:1139.got - 2010.05.20 11:19:57.
