data_PCOD9580008
_publ_section_title
;
Structure prediction by ZEFSAII (Michael W. Deem and Ramdas Pophale) SiO2 
 PCOD9580008
Probable space group: P 61
;
_chemical_formula_sum "Si O2"
_cell_formula_units_Z 48
_cell_length_a 15.370258
_cell_length_b 15.370258
_cell_length_c 11.291968
_cell_angle_alpha 90.000000
_cell_angle_beta 90.000000
_cell_angle_gamma 120.000000
_cell_volume 2310.269185
_symmetry_space_group_name_H-M "P 61"
_symmetry_group_IT_number 169
_symmetry_cell_setting 'hexagonal'
loop_
_space_group_symop_operation_xyz
x,y,z
x-y,x,1/6+z
-y,x-y,1/3+z
-x,-y,1/2+z
-x+y,-x,2/3+z
y,-x+y,5/6+z
loop_
_atom_site_type_symbol
_atom_site_label
_atom_site_fract_x
_atom_site_fract_y
_atom_site_fract_z
Si Si1 0.101381 0.917602 0.567550
Si Si2 0.113384 0.392597 0.823619
Si Si3 0.814723 0.330934 0.879207
Si Si4 0.990145 0.286406 0.218522
Si Si5 0.635740 0.856605 0.613568
Si Si6 0.021112 0.446128 0.015945
Si Si7 0.638509 0.021892 0.746219
Si Si8 0.241898 0.514660 0.464351
O O1 0.203965 0.926738 0.521175
O O2 0.018598 0.890916 0.468112
O O3 0.055551 0.820276 0.652840
O O4 0.224036 0.444219 0.771204
O O5 0.046454 0.394493 0.717039
O O6 0.111029 0.449951 0.940811
O O7 0.928229 0.397814 0.923686
O O8 0.792059 0.313799 0.738982
O O9 0.755226 0.381884 0.936788
O O10 0.101240 0.313556 0.262681
O O11 0.913589 0.271331 0.324591
O O12 0.000373 0.372011 0.127070
O O13 0.528887 0.783162 0.673695
O O14 0.681145 0.949705 0.706488
O O15 0.029709 0.550243 0.051205
O O16 0.693182 0.128435 0.677005
#
# Coordination Sequence:
#
# PCOD9580008 Si02
#       8
#     6   6   6   6   6   6   6   6
#     4  12  24  47  69 105 140 191 246 303 362 433
#     4  11  21  43  73  97 139 189 239 293 364 430
#     4  10  22  43  67 100 139 178 235 293 353 435
#     4  12  24  42  73 101 138 185 241 296 357 431
#     4  12  24  44  68  99 143 183 234 290 365 423
#     4  11  23  43  70 102 138 184 241 289 355 434
#     4  10  25  42  68 100 135 184 231 290 357 434
#     4  10  23  44  66  98 142 178 231 292 355 426
#
# _framework density 20.776797999999999
#
# number of rings (size 3 to 8) (size 9 to 14) (size 15 to 20)
#    0.000    1.000    5.000    0.750    1.750    3.000 
#    6.750    0.000    0.000    0.000    0.000    0.000 
#    0.000    0.000    0.000    0.000    0.000    0.000 
#
# Total GULP energy -268109.089928 kJ/mol
# GULP energy per Si atom -5585.606040 kJ/mol
# Density = 2.072951 g / cm^3
# Si number density = 20.776798 Si / 1000 Ang^3
#
#
#
# Elastic Constant Matrix: (Units=GPa)
#
#
# Indices 1 2 3 4 5 6 
#
# 1 65.5199 10.4727 30.1145 0.0000 0.0000 0.0000
# 2 10.4727 65.5199 30.1145 0.0000 0.0000 0.0000
# 3 30.1145 30.1145 100.0111 0.0000 0.0000 0.0000
# 4 0.0000 0.0000 0.0000 30.8462 0.0000 0.0000
# 5 0.0000 0.0000 0.0000 0.0000 30.8462 0.0000
# 6 0.0000 0.0000 0.0000 0.0000 0.0000 27.5236
#
#
#
# Elastic Compliance Matrix: (Units=1/GPa)
#
#
# Indices 1 2 3 4 5 6 
#
# 1 0.017725 -0.000441 -0.005204 0.000000 0.000000 0.000000
# 2 -0.000441 0.017725 -0.005204 0.000000 0.000000 0.000000
# 3 -0.005204 -0.005204 0.013133 0.000000 0.000000 0.000000
# 4 0.000000 0.000000 0.000000 0.032419 0.000000 0.000000
# 5 0.000000 0.000000 0.000000 0.000000 0.032419 0.000000
# 6 0.000000 0.000000 0.000000 0.000000 0.000000 0.036332
#
#
# Mechanical properties :
#
#
# Convention : Reuss Voigt Hill
#
# Bulk Modulus (GPa) = 37.19760 41.38383 39.29072
# Shear Modulus (GPa) = 27.71395 28.53316 28.12355
#
# Velocity S-wave (km/s) = 3.65621 3.70985 3.68313
# Velocity P-wave (km/s) = 5.98048 6.18968 6.08598
#
# Compressibility (1/GPa) = 0.02688345
#
# Stress axis : x y z
#
# Youngs Moduli (GPa) = 56.41714 56.41714 76.14346
#
# Poissons Ratio (x) = 0.02489 0.39628
# Poissons Ratio (y) = 0.02489 0.39628
# Poissons Ratio (z) = 0.29362 0.29362
#
# Static dielectric constant tensor:
#      x y z
#    x 1.751710 0.000000 0.000000 
#    y 0.000000 1.751710 0.000000 
#    z 0.000000 0.000000 1.755060 
# 
# From -- ./inp_files/1043.got.cif
#   From: 2010.05.17/outbox.cif.g08.bks.cpg/sg169_cif.got.tgz:1043.got - 2010.05.20 11:12:54.
