data_PCOD9580227
_publ_section_title
;
Structure prediction by ZEFSAII (Michael W. Deem and Ramdas Pophale) SiO2 
 PCOD9580227
Probable space group: P 65
;
_chemical_formula_sum "Si O2"
_cell_formula_units_Z 42
_cell_length_a 16.638337
_cell_length_b 16.638337
_cell_length_c 9.418110
_cell_angle_alpha 90.000000
_cell_angle_beta 90.000000
_cell_angle_gamma 120.000000
_cell_volume 2257.949493
_symmetry_space_group_name_H-M "P 65"
_symmetry_group_IT_number 170
_symmetry_cell_setting 'hexagonal'
loop_
_space_group_symop_operation_xyz
x,y,z
x-y,x,5/6+z
-y,x-y,2/3+z
-x,-y,1/2+z
-x+y,-x,1/3+z
y,-x+y,1/6+z
loop_
_atom_site_type_symbol
_atom_site_label
_atom_site_fract_x
_atom_site_fract_y
_atom_site_fract_z
Si Si1 0.926375 0.115285 0.535690
Si Si2 0.627511 0.468037 0.932016
Si Si3 0.463950 0.381221 0.743486
Si Si4 0.773632 0.419238 0.832392
Si Si5 0.323931 0.798772 0.352204
Si Si6 0.626585 0.913734 0.289875
Si Si7 0.369894 0.223595 0.982012
O O1 0.942632 0.207785 0.450527
O O2 0.844145 0.103385 0.643924
O O3 0.022099 0.139558 0.610314
O O4 0.545056 0.462402 0.836438
O O5 0.678167 0.421754 0.848707
O O6 0.582597 0.406248 0.073032
O O7 0.703305 0.569940 0.981868
O O8 0.518466 0.356624 0.626734
O O9 0.389288 0.395651 0.660594
O O10 0.403270 0.300749 0.858110
O O11 0.745212 0.312126 0.842253
O O12 0.818144 0.460514 0.679990
O O13 0.270792 0.850602 0.293620
O O14 0.591556 0.841805 0.421404
#
# Coordination Sequence:
#
# PCOD9580227 Si02
#       7
#     6   6   6   6   6   6   6
#     4  10  20  40  74  95 115 156 206 269 332 405
#     4  11  21  34  54  85 125 166 215 248 293 369
#     4  11  21  37  57  85 120 166 211 251 310 370
#     4  12  20  33  54  83 121 166 211 257 286 353
#     4  11  21  32  56  84 122 172 213 245 292 353
#     4  10  20  37  61  87 122 158 202 261 317 376
#     4   9  19  37  60  85 117 160 198 255 310 378
#
# _framework density 18.600946
#
# number of rings (size 3 to 8) (size 9 to 14) (size 15 to 20)
#    0.857    0.571    5.714    0.857    0.000    2.286 
#    0.000    0.000    6.286    0.000    0.000    0.000 
#    0.000    0.000    0.000    0.000    0.000    0.000 
#
# Total GULP energy -233970.705534 kJ/mol
# GULP energy per Si atom -5570.731084 kJ/mol
# Density = 1.855861 g / cm^3
# Si number density = 18.600946 Si / 1000 Ang^3
#
#
#
# Elastic Constant Matrix: (Units=GPa)
#
#
# Indices 1 2 3 4 5 6 
#
# 1 44.7017 5.3967 18.1489 0.0000 0.0000 0.0000
# 2 5.3967 44.7017 18.1489 0.0000 0.0000 0.0000
# 3 18.1489 18.1489 82.8093 0.0000 0.0000 0.0000
# 4 0.0000 0.0000 0.0000 18.5291 0.0000 0.0000
# 5 0.0000 0.0000 0.0000 0.0000 18.5291 0.0000
# 6 0.0000 0.0000 0.0000 0.0000 0.0000 19.6525
#
#
#
# Elastic Compliance Matrix: (Units=1/GPa)
#
#
# Indices 1 2 3 4 5 6 
#
# 1 0.024585 -0.000857 -0.005200 0.000000 0.000000 0.000000
# 2 -0.000857 0.024585 -0.005200 0.000000 0.000000 0.000000
# 3 -0.005200 -0.005200 0.014355 0.000000 0.000000 0.000000
# 4 0.000000 0.000000 0.000000 0.053969 0.000000 0.000000
# 5 0.000000 0.000000 0.000000 0.000000 0.053969 0.000000
# 6 0.000000 0.000000 0.000000 0.000000 0.000000 0.050884
#
#
# Mechanical properties :
#
#
# Convention : Reuss Voigt Hill
#
# Bulk Modulus (GPa) = 24.38381 28.40017 26.39199
# Shear Modulus (GPa) = 19.33981 20.04336 19.69159
#
# Velocity S-wave (km/s) = 3.22797 3.28616 3.25719
# Velocity P-wave (km/s) = 5.19908 5.44975 5.32589
#
# Compressibility (1/GPa) = 0.04101082
#
# Stress axis : x y z
#
# Youngs Moduli (GPa) = 40.67462 40.67462 69.65986
#
# Poissons Ratio (x) = 0.03485 0.36227
# Poissons Ratio (y) = 0.03485 0.36227
# Poissons Ratio (z) = 0.21153 0.21153
#
# Static dielectric constant tensor:
#      x y z
#    x 1.683730 0.000000 0.000000 
#    y 0.000000 1.683730 0.000000 
#    z 0.000000 0.000000 1.641920 
# 
# From -- ./inp_files/680.got.cif
#   From: 2010.05.17/outbox.cif.g08.bks.cpg/sg170_cif.got.tgz:680.got - 2010.05.20 11:14:30.
