data_PCOD9580877
_publ_section_title
;
Structure prediction by ZEFSAII (Michael W. Deem and Ramdas Pophale) SiO2 
 PCOD9580877
Probable space group: P 62
;
_chemical_formula_sum "Si O2"
_cell_formula_units_Z 18
_cell_length_a 5.020434
_cell_length_b 5.020434
_cell_length_c 34.151886
_cell_angle_alpha 90.000000
_cell_angle_beta 90.000000
_cell_angle_gamma 120.000000
_cell_volume 745.466013
_symmetry_space_group_name_H-M "P 62"
_symmetry_group_IT_number 171
_symmetry_cell_setting 'hexagonal'
loop_
_space_group_symop_operation_xyz
x,y,z
x-y,x,1/3+z
-y,x-y,2/3+z
-x,-y,z
-x+y,-x,1/3+z
y,-x+y,2/3+z
loop_
_atom_site_type_symbol
_atom_site_label
_atom_site_fract_x
_atom_site_fract_y
_atom_site_fract_z
Si Si1 0.500000 0.000000 0.489861
Si Si2 0.000000 0.000000 0.545496
Si Si3 0.000000 0.500000 0.321240
Si Si4 0.000000 0.000000 0.045496
Si Si5 0.000000 0.500000 0.934465
Si Si6 0.500000 0.500000 0.436419
O O1 0.781125 0.058741 0.517330
O O2 0.398901 0.694085 0.464073
O O3 0.781125 0.722384 0.573662
O O4 0.295184 0.694085 0.293586
O O5 0.031961 0.767898 0.349739
O O6 0.767898 0.031961 0.074587
#
# Coordination Sequence:
#
# PCOD9580877 Si02
#       6
#     3   3   3   3   3   3
#     4  12  29  51  80 114 155 204 256 318 383 456
#     4  12  30  52  80 116 156 204 258 318 384 458
#     4  12  27  48  78 112 153 201 254 315 381 454
#     4  12  26  48  76 112 152 200 254 314 380 454
#     4  12  29  51  80 114 155 204 256 318 383 456
#     4  12  27  48  78 112 153 201 254 315 381 454
#
# _framework density 24.145966999999999
#
# number of rings (size 3 to 8) (size 9 to 14) (size 15 to 20)
#    0.000    0.000    0.000    8.000    0.000   22.667 
#    0.000    0.000    0.000    0.000    0.000    0.000 
#    0.000    0.000    0.000    0.000    0.000    0.000 
#
# Total GULP energy -100940.140712 kJ/mol
# GULP energy per Si atom -5607.785595 kJ/mol
# Density = 2.409101 g / cm^3
# Si number density = 24.145967 Si / 1000 Ang^3
#
#
#
# Elastic Constant Matrix: (Units=GPa)
#
#
# Indices 1 2 3 4 5 6 
#
# 1 219.2880 102.6241 132.3866 0.0000 0.0000 0.0000
# 2 102.6241 219.2880 132.3866 0.0000 0.0000 0.0000
# 3 132.3866 132.3866 222.3306 0.0000 0.0000 0.0000
# 4 0.0000 0.0000 0.0000 60.0178 0.0000 0.0000
# 5 0.0000 0.0000 0.0000 0.0000 60.0178 0.0000
# 6 0.0000 0.0000 0.0000 0.0000 0.0000 58.3320
#
#
#
# Elastic Compliance Matrix: (Units=1/GPa)
#
#
# Indices 1 2 3 4 5 6 
#
# 1 0.007330 -0.001242 -0.003625 0.000000 0.000000 0.000000
# 2 -0.001242 0.007330 -0.003625 0.000000 0.000000 0.000000
# 3 -0.003625 -0.003625 0.008815 0.000000 0.000000 0.000000
# 4 0.000000 0.000000 0.000000 0.016662 0.000000 0.000000
# 5 0.000000 0.000000 0.000000 0.000000 0.016662 0.000000
# 6 0.000000 0.000000 0.000000 0.000000 0.000000 0.017143
#
#
# Mechanical properties :
#
#
# Convention : Reuss Voigt Hill
#
# Bulk Modulus (GPa) = 154.06896 155.07792 154.57344
# Shear Modulus (GPa) = 53.71185 55.24080 54.47632
#
# Velocity S-wave (km/s) = 4.72154 4.78827 4.75502
# Velocity P-wave (km/s) = 9.67831 9.74344 9.71093
#
# Compressibility (1/GPa) = 0.00649060
#
# Stress axis : x y z
#
# Youngs Moduli (GPa) = 136.42753 136.42753 113.44239
#
# Poissons Ratio (x) = 0.16941 0.41125
# Poissons Ratio (y) = 0.16941 0.41125
# Poissons Ratio (z) = 0.49458 0.49458
#
# Static dielectric constant tensor:
#      x y z
#    x 1.882510 0.000000 0.000000 
#    y 0.000000 1.882510 0.000000 
#    z 0.000000 0.000000 1.914010 
# 
# From -- ./inp_files/5539.got.cif
#   From: 2010.05.17/outbox.cif.g08.bks.cpg/sg171_3_cif.got.tgz:5539.got - 2010.05.20 11:16:09.
