data_PCOD9580215
_publ_section_title
;
Structure prediction by ZEFSAII (Michael W. Deem and Ramdas Pophale) SiO2 
 PCOD9580215
Probable space group: P 65
;
_chemical_formula_sum "Si O2"
_cell_formula_units_Z 36
_cell_length_a 14.274101
_cell_length_b 14.274101
_cell_length_c 7.842527
_cell_angle_alpha 90.000000
_cell_angle_beta 90.000000
_cell_angle_gamma 120.000000
_cell_volume 1383.834600
_symmetry_space_group_name_H-M "P 65"
_symmetry_group_IT_number 170
_symmetry_cell_setting 'hexagonal'
loop_
_space_group_symop_operation_xyz
x,y,z
x-y,x,5/6+z
-y,x-y,2/3+z
-x,-y,1/2+z
-x+y,-x,1/3+z
y,-x+y,1/6+z
loop_
_atom_site_type_symbol
_atom_site_label
_atom_site_fract_x
_atom_site_fract_y
_atom_site_fract_z
Si Si1 0.821169 0.008765 0.111730
Si Si2 0.707711 0.227193 0.212457
Si Si3 0.114758 0.538224 0.060080
Si Si4 0.031891 0.830937 0.310279
Si Si5 0.526131 0.288920 0.907668
Si Si6 0.682436 0.622549 0.721440
O O1 0.888686 0.082962 0.270870
O O2 0.904954 0.085491 0.965739
O O3 0.710355 0.998284 0.041746
O O4 0.693184 0.174300 0.397525
O O5 0.711837 0.342601 0.235953
O O6 0.817683 0.258838 0.114148
O O7 0.615959 0.153091 0.083697
O O8 0.172384 0.498983 0.917525
O O9 0.165783 0.666321 0.041768
O O10 0.992148 0.445587 0.046725
O O11 0.043151 0.729916 0.377080
O O12 0.906226 0.799393 0.322923
#
# Coordination Sequence:
#
# PCOD9580215 Si02
#       6
#     6   6   6   6   6   6
#     4   8  14  28  50  77 107 150 195 235 282 376
#     4  11  19  41  63  84 115 165 193 249 310 368
#     4  11  19  41  63  84 115 165 193 249 310 368
#     4   8  14  28  50  77 107 150 195 235 282 376
#     4  10  22  40  60  84 116 150 214 238 296 388
#     4  10  20  30  60  86 114 146 208 252 310 354
#
# _framework density 26.014669999999999
#
# number of rings (size 3 to 8) (size 9 to 14) (size 15 to 20)
#    0.000    2.667    3.333    3.000    0.000    0.000 
#   12.000    0.000   25.667    0.000    0.000    0.000 
#    0.000    0.000    0.000    0.000    0.000    0.000 
#
# Total GULP energy -200648.603562 kJ/mol
# GULP energy per Si atom -5573.572321 kJ/mol
# Density = 2.595546 g / cm^3
# Si number density = 26.014670 Si / 1000 Ang^3
#
#
#
# Elastic Constant Matrix: (Units=GPa)
#
#
# Indices 1 2 3 4 5 6 
#
# 1 52.9941 38.6639 4.3699 0.0000 0.0000 0.0000
# 2 38.6639 52.9941 4.3699 0.0000 0.0000 0.0000
# 3 4.3699 4.3699 138.5888 0.0000 0.0000 0.0000
# 4 0.0000 0.0000 0.0000 16.2252 0.0000 0.0000
# 5 0.0000 0.0000 0.0000 0.0000 16.2252 0.0000
# 6 0.0000 0.0000 0.0000 0.0000 0.0000 7.1651
#
#
#
# Elastic Compliance Matrix: (Units=1/GPa)
#
#
# Indices 1 2 3 4 5 6 
#
# 1 0.040363 -0.029420 -0.000345 0.000000 0.000000 0.000000
# 2 -0.029420 0.040363 -0.000345 0.000000 0.000000 0.000000
# 3 -0.000345 -0.000345 0.007237 0.000000 0.000000 0.000000
# 4 0.000000 0.000000 0.000000 0.061632 0.000000 0.000000
# 5 0.000000 0.000000 0.000000 0.000000 0.061632 0.000000
# 6 0.000000 0.000000 0.000000 0.000000 0.000000 0.139565
#
#
# Mechanical properties :
#
#
# Convention : Reuss Voigt Hill
#
# Bulk Modulus (GPa) = 36.04487 37.70939 36.87713
# Shear Modulus (GPa) = 11.89741 21.06800 16.48270
#
# Velocity S-wave (km/s) = 2.14086 2.84887 2.51986
# Velocity P-wave (km/s) = 4.47177 5.03471 4.76157
#
# Compressibility (1/GPa) = 0.02774320
#
# Stress axis : x y z
#
# Youngs Moduli (GPa) = 24.77536 24.77536 138.17209
#
# Poissons Ratio (x) = 0.72888 0.04768
# Poissons Ratio (y) = 0.72888 0.04768
# Poissons Ratio (z) = 0.00855 0.00855
#
# Static dielectric constant tensor:
#      x y z
#    x 2.114840 0.000000 0.000000 
#    y 0.000000 2.114840 0.000000 
#    z 0.000000 0.000000 2.295490 
# 
# From -- ./inp_files/579.got.cif
#   From: 2010.05.17/outbox.cif.g08.bks.cpg/sg170_cif.got.tgz:579.got - 2010.05.20 11:14:30.
