data_PCOD9580837
_publ_section_title
;
Structure prediction by ZEFSAII (Michael W. Deem and Ramdas Pophale) SiO2 
 PCOD9580837
Probable space group: P 62
;
_chemical_formula_sum "Si O2"
_cell_formula_units_Z 24
_cell_length_a 8.007650
_cell_length_b 8.007650
_cell_length_c 18.845202
_cell_angle_alpha 90.000000
_cell_angle_beta 90.000000
_cell_angle_gamma 120.000000
_cell_volume 1046.505690
_symmetry_space_group_name_H-M "P 62"
_symmetry_group_IT_number 171
_symmetry_cell_setting 'hexagonal'
loop_
_space_group_symop_operation_xyz
x,y,z
x-y,x,1/3+z
-y,x-y,2/3+z
-x,-y,z
-x+y,-x,1/3+z
y,-x+y,2/3+z
loop_
_atom_site_type_symbol
_atom_site_label
_atom_site_fract_x
_atom_site_fract_y
_atom_site_fract_z
Si Si1 0.500000 0.000000 0.674780
Si Si2 0.304499 0.244681 0.141939
Si Si3 0.915647 0.213494 0.134286
Si Si4 0.500000 0.500000 0.676694
Si Si5 0.317103 0.655429 0.233432
O O1 0.356762 0.007548 0.733948
O O2 0.342142 0.841427 0.620852
O O3 0.496066 0.327062 0.191912
O O4 0.118591 0.256202 0.169168
O O5 0.222375 0.016903 0.130308
O O6 0.802295 0.300562 0.175591
O O7 0.963631 0.321798 0.059289
O O8 0.573556 0.398037 0.624145
#
# Coordination Sequence:
#
# PCOD9580837 Si02
#       5
#     3   6   6   3   6
#     4  12  27  46  76 115 152 204 256 328 394 463
#     4  11  26  49  73 108 151 197 261 312 393 479
#     4  11  25  49  76 107 151 202 257 323 384 486
#     4  12  23  48  74 105 156 194 258 326 388 459
#     4  12  25  47  74 110 153 201 255 327 396 460
#
# _framework density 22.933463
#
# number of rings (size 3 to 8) (size 9 to 14) (size 15 to 20)
#    0.000    0.500    5.000    2.250    3.500    2.000 
#    0.000    0.000    0.000    0.000    0.000    0.000 
#    0.000    0.000    0.000    0.000    0.000    0.000 
#
# Total GULP energy -133678.086224 kJ/mol
# GULP energy per Si atom -5569.920259 kJ/mol
# Density = 2.288127 g / cm^3
# Si number density = 22.933463 Si / 1000 Ang^3
#
#
#
# Elastic Constant Matrix: (Units=GPa)
#
#
# Indices 1 2 3 4 5 6 
#
# 1 89.3268 52.2743 59.4877 0.0000 0.0000 0.0000
# 2 52.2743 89.3268 59.4877 0.0000 0.0000 0.0000
# 3 59.4877 59.4877 150.2505 0.0000 0.0000 0.0000
# 4 0.0000 0.0000 0.0000 47.3326 0.0000 0.0000
# 5 0.0000 0.0000 0.0000 0.0000 47.3326 0.0000
# 6 0.0000 0.0000 0.0000 0.0000 0.0000 18.5263
#
#
#
# Elastic Compliance Matrix: (Units=1/GPa)
#
#
# Indices 1 2 3 4 5 6 
#
# 1 0.018786 -0.008203 -0.004190 0.000000 0.000000 0.000000
# 2 -0.008203 0.018786 -0.004190 0.000000 0.000000 0.000000
# 3 -0.004190 -0.004190 0.009973 0.000000 0.000000 0.000000
# 4 0.000000 0.000000 0.000000 0.021127 0.000000 0.000000
# 5 0.000000 0.000000 0.000000 0.000000 0.021127 0.000000
# 6 0.000000 0.000000 0.000000 0.000000 0.000000 0.053977
#
#
# Mechanical properties :
#
#
# Convention : Reuss Voigt Hill
#
# Bulk Modulus (GPa) = 69.54679 74.60040 72.07360
# Shear Modulus (GPa) = 27.51263 33.14857 30.33060
#
# Velocity S-wave (km/s) = 3.46739 3.80600 3.64063
# Velocity P-wave (km/s) = 6.81334 7.20513 7.01197
#
# Compressibility (1/GPa) = 0.01437881
#
# Stress axis : x y z
#
# Youngs Moduli (GPa) = 53.23228 53.23228 100.26800
#
# Poissons Ratio (x) = 0.43667 0.42011
# Poissons Ratio (y) = 0.43667 0.42011
# Poissons Ratio (z) = 0.22304 0.22304
#
# Static dielectric constant tensor:
#      x y z
#    x 2.118540 0.000000 0.000000 
#    y 0.000000 2.118540 0.000000 
#    z 0.000000 0.000000 1.804160 
# 
# From -- ./inp_files/2788.got.cif
#   From: 2010.05.17/outbox.cif.g08.bks.cpg/sg171_2_cif.got.tgz:2788.got - 2010.05.20 11:16:09.
