data_PCOD9580687
_publ_section_title
;
Structure prediction by ZEFSAII (Michael W. Deem and Ramdas Pophale) SiO2 
 PCOD9580687
Probable space group: P 62
;
_chemical_formula_sum "Si O2"
_cell_formula_units_Z 39
_cell_length_a 12.543903
_cell_length_b 12.543903
_cell_length_c 13.264437
_cell_angle_alpha 90.000000
_cell_angle_beta 90.000000
_cell_angle_gamma 120.000000
_cell_volume 1807.527141
_symmetry_space_group_name_H-M "P 62"
_symmetry_group_IT_number 171
_symmetry_cell_setting 'hexagonal'
loop_
_space_group_symop_operation_xyz
x,y,z
x-y,x,1/3+z
-y,x-y,2/3+z
-x,-y,z
-x+y,-x,1/3+z
y,-x+y,2/3+z
loop_
_atom_site_type_symbol
_atom_site_label
_atom_site_fract_x
_atom_site_fract_y
_atom_site_fract_z
Si Si1 0.907163 0.133840 0.614790
Si Si2 0.263960 0.130503 0.708558
Si Si3 0.791190 0.514216 0.350684
Si Si4 0.500000 0.500000 0.893384
Si Si5 0.205011 0.756853 0.209612
Si Si6 0.319235 0.142497 0.350462
Si Si7 0.291606 0.715947 0.902090
O O1 0.883729 0.140562 0.495764
O O2 0.841322 0.193619 0.678647
O O3 0.050836 0.218958 0.632691
O O4 0.844441 0.993307 0.655491
O O5 0.389980 0.159224 0.653428
O O6 0.254860 0.251001 0.687080
O O7 0.909578 0.527509 0.292955
O O8 0.667048 0.415719 0.294695
O O9 0.783475 0.464612 0.462148
O O10 0.377771 0.477569 0.836044
O O11 0.196625 0.848801 0.131028
O O12 0.337068 0.767513 0.215889
O O13 0.450509 0.207040 0.295366
#
# Coordination Sequence:
#
# PCOD9580687 Si02
#       7
#     6   6   6   3   6   6   6
#     4  12  28  45  77 108 148 198 248 303 370 447
#     4  12  26  49  74 109 144 201 249 301 366 448
#     4  11  24  44  71 105 146 190 245 311 367 447
#     4  10  22  44  78  96 142 186 254 286 370 444
#     4  11  25  48  73 111 143 195 248 305 373 446
#     4  12  27  46  73 106 152 190 241 307 373 438
#     4  11  26  45  70 107 147 191 245 304 377 437
#
# _framework density 21.576440999999999
#
# number of rings (size 3 to 8) (size 9 to 14) (size 15 to 20)
#    0.000    0.615    4.615    1.385    8.615    3.692 
#    0.000    0.000    0.000    0.000    0.000    0.000 
#    0.000    0.000    0.000    0.000    0.000    0.000 
#
# Total GULP energy -218012.265940 kJ/mol
# GULP energy per Si atom -5590.058101 kJ/mol
# Density = 2.152733 g / cm^3
# Si number density = 21.576441 Si / 1000 Ang^3
#
#
#
# Elastic Constant Matrix: (Units=GPa)
#
#
# Indices 1 2 3 4 5 6 
#
# 1 66.8672 7.4332 -10.2237 0.0000 0.0000 0.0000
# 2 7.4332 66.8672 -10.2237 0.0000 0.0000 0.0000
# 3 -10.2237 -10.2237 62.8027 0.0000 0.0000 0.0000
# 4 0.0000 0.0000 0.0000 24.6724 0.0000 0.0000
# 5 0.0000 0.0000 0.0000 0.0000 24.6724 0.0000
# 6 0.0000 0.0000 0.0000 0.0000 0.0000 29.7170
#
#
#
# Elastic Compliance Matrix: (Units=1/GPa)
#
#
# Indices 1 2 3 4 5 6 
#
# 1 0.015458 -0.001368 0.002294 0.000000 0.000000 0.000000
# 2 -0.001368 0.015458 0.002294 0.000000 0.000000 0.000000
# 3 0.002294 0.002294 0.016670 0.000000 0.000000 0.000000
# 4 0.000000 0.000000 0.000000 0.040531 0.000000 0.000000
# 5 0.000000 0.000000 0.000000 0.000000 0.040531 0.000000
# 6 0.000000 0.000000 0.000000 0.000000 0.000000 0.033651
#
#
# Mechanical properties :
#
#
# Convention : Reuss Voigt Hill
#
# Bulk Modulus (GPa) = 18.50999 18.94540 18.72770
# Shear Modulus (GPa) = 28.75768 29.78248 29.27008
#
# Velocity S-wave (km/s) = 3.65475 3.71930 3.68717
# Velocity P-wave (km/s) = 5.13878 5.21957 5.17933
#
# Compressibility (1/GPa) = 0.05402488
#
# Stress axis : x y z
#
# Youngs Moduli (GPa) = 64.69250 64.69250 59.98919
#
# Poissons Ratio (x) = 0.08847 -0.13760
# Poissons Ratio (y) = 0.08847 -0.13760
# Poissons Ratio (z) = -0.14839 -0.14839
#
# Static dielectric constant tensor:
#      x y z
#    x 1.812980 0.000000 0.000000 
#    y 0.000000 1.812980 0.000000 
#    z 0.000000 0.000000 1.817850 
# 
# From -- ./inp_files/2016.got.cif
#   From: 2010.05.17/outbox.cif.g08.bks.cpg/sg171_2_cif.got.tgz:2016.got - 2010.05.20 11:16:09.
