data_PCOD9580430
_publ_section_title
;
Structure prediction by ZEFSAII (Michael W. Deem and Ramdas Pophale) SiO2 
 PCOD9580430
Probable space group: P 62
;
_chemical_formula_sum "Si O2"
_cell_formula_units_Z 48
_cell_length_a 10.607541
_cell_length_b 10.607541
_cell_length_c 18.335958
_cell_angle_alpha 90.000000
_cell_angle_beta 90.000000
_cell_angle_gamma 120.000000
_cell_volume 1786.749525
_symmetry_space_group_name_H-M "P 62"
_symmetry_group_IT_number 171
_symmetry_cell_setting 'hexagonal'
loop_
_space_group_symop_operation_xyz
x,y,z
x-y,x,1/3+z
-y,x-y,2/3+z
-x,-y,z
-x+y,-x,1/3+z
y,-x+y,2/3+z
loop_
_atom_site_type_symbol
_atom_site_label
_atom_site_fract_x
_atom_site_fract_y
_atom_site_fract_z
Si Si1 0.921459 0.704494 0.353730
Si Si2 0.815306 0.374178 0.343604
Si Si3 0.929559 0.780379 0.618805
Si Si4 0.389053 0.740236 0.833954
Si Si5 0.543219 0.395170 0.314535
Si Si6 0.161538 0.133775 0.767365
Si Si7 0.082174 0.726814 0.822935
Si Si8 0.582335 0.823684 0.526577
O O1 0.902974 0.550176 0.330002
O O2 0.894518 0.792364 0.289464
O O3 0.786401 0.669569 0.407513
O O4 0.053163 0.805185 0.407627
O O5 0.830888 0.363963 0.429773
O O6 0.645682 0.337506 0.344616
O O7 0.829040 0.272791 0.281246
O O8 0.883836 0.614740 0.630210
O O9 0.862039 0.814355 0.688367
O O10 0.850323 0.764847 0.543123
O O11 0.466236 0.836042 0.905623
O O12 0.222924 0.710811 0.839165
O O13 0.367829 0.578450 0.834435
O O14 0.500000 0.500000 0.357307
O O15 0.233579 0.276192 0.820176
O O16 0.000000 0.000000 0.786998
O O17 0.916412 0.602607 0.837768
#
# Coordination Sequence:
#
# PCOD9580430 Si02
#       8
#     6   6   6   6   6   6   6   6
#     4  10  20  40  61 103 150 201 257 315 395 467
#     4  10  21  35  67 103 149 192 252 314 383 464
#     4  10  19  35  62 101 138 193 255 310 378 459
#     4   9  21  35  60 104 150 200 245 305 385 462
#     4  10  18  33  62  99 138 191 241 299 377 461
#     4  10  20  38  61  99 151 200 255 321 390 459
#     4  10  20  36  65 103 150 198 252 315 380 475
#     4  11  20  38  65 106 153 194 254 318 389 466
#
# _framework density 26.864424
#
# number of rings (size 3 to 8) (size 9 to 14) (size 15 to 20)
#    0.000    2.000    3.750    1.125    0.000    0.000 
#    6.750    0.000    8.250    3.000    3.250    0.000 
#    0.000    1.000    0.000    0.000    0.000    0.000 
#
# Total GULP energy -267784.203254 kJ/mol
# GULP energy per Si atom -5578.837568 kJ/mol
# Density = 2.680328 g / cm^3
# Si number density = 26.864424 Si / 1000 Ang^3
#
#
#
# Elastic Constant Matrix: (Units=GPa)
#
#
# Indices 1 2 3 4 5 6 
#
# 1 136.0556 57.9738 41.5214 0.0000 0.0000 0.0000
# 2 57.9738 136.0556 41.5214 0.0000 0.0000 0.0000
# 3 41.5214 41.5214 120.0966 0.0000 0.0000 0.0000
# 4 0.0000 0.0000 0.0000 46.7715 0.0000 0.0000
# 5 0.0000 0.0000 0.0000 0.0000 46.7715 0.0000
# 6 0.0000 0.0000 0.0000 0.0000 0.0000 39.0409
#
#
#
# Elastic Compliance Matrix: (Units=1/GPa)
#
#
# Indices 1 2 3 4 5 6 
#
# 1 0.009428 -0.003379 -0.002091 0.000000 0.000000 0.000000
# 2 -0.003379 0.009428 -0.002091 0.000000 0.000000 0.000000
# 3 -0.002091 -0.002091 0.009773 0.000000 0.000000 0.000000
# 4 0.000000 0.000000 0.000000 0.021381 0.000000 0.000000
# 5 0.000000 0.000000 0.000000 0.000000 0.021381 0.000000
# 6 0.000000 0.000000 0.000000 0.000000 0.000000 0.025614
#
#
# Mechanical properties :
#
#
# Convention : Reuss Voigt Hill
#
# Bulk Modulus (GPa) = 74.04507 74.91568 74.48037
# Shear Modulus (GPa) = 42.87093 43.26285 43.06689
#
# Velocity S-wave (km/s) = 3.99911 4.01735 4.00824
# Velocity P-wave (km/s) = 6.99616 7.03320 7.01470
#
# Compressibility (1/GPa) = 0.01350529
#
# Stress axis : x y z
#
# Youngs Moduli (GPa) = 106.06704 106.06704 102.32583
#
# Poissons Ratio (x) = 0.35841 0.21400
# Poissons Ratio (y) = 0.35841 0.21400
# Poissons Ratio (z) = 0.22182 0.22182
#
# Static dielectric constant tensor:
#      x y z
#    x 2.243190 0.000000 0.000000 
#    y 0.000000 2.243190 0.000000 
#    z 0.000000 0.000000 2.152750 
# 
# From -- ./inp_files/5211.got.cif
#   From: 2010.05.17/outbox.cif.g08.bks.cpg/sg171_3_cif.got.tgz:5211.got - 2010.05.20 11:16:09.
