data_PCOD9580954
_publ_section_title
;
Structure prediction by ZEFSAII (Michael W. Deem and Ramdas Pophale) SiO2 
 PCOD9580954
Probable space group: P 64
;
_chemical_formula_sum "Si O2"
_cell_formula_units_Z 45
_cell_length_a 10.439022
_cell_length_b 10.439022
_cell_length_c 20.353317
_cell_angle_alpha 90.000000
_cell_angle_beta 90.000000
_cell_angle_gamma 120.000000
_cell_volume 1920.814627
_symmetry_space_group_name_H-M "P 64"
_symmetry_group_IT_number 172
_symmetry_cell_setting 'hexagonal'
loop_
_space_group_symop_operation_xyz
x,y,z
x-y,x,2/3+z
-y,x-y,1/3+z
-x,-y,z
-x+y,-x,2/3+z
y,-x+y,1/3+z
loop_
_atom_site_type_symbol
_atom_site_label
_atom_site_fract_x
_atom_site_fract_y
_atom_site_fract_z
Si Si1 0.189758 0.864780 0.481410
Si Si2 0.740628 0.719628 0.557766
Si Si3 0.622877 0.246108 0.656003
Si Si4 0.000000 0.000000 0.508739
Si Si5 0.533533 0.167628 0.797525
Si Si6 0.315662 0.472177 0.185827
Si Si7 0.607105 0.932298 0.281014
Si Si8 0.829277 0.242744 0.342222
O O1 0.127327 0.771806 0.548293
O O2 0.159947 0.759256 0.419816
O O3 0.099985 0.951487 0.468302
O O4 0.363118 0.992237 0.490159
O O5 0.898632 0.863236 0.554422
O O6 0.747248 0.592006 0.514249
O O7 0.638324 0.779022 0.529399
O O8 0.690570 0.665101 0.631353
O O9 0.521462 0.180176 0.719813
O O10 0.540235 0.161370 0.590321
O O11 0.784354 0.258462 0.659650
O O12 0.671741 0.417926 0.652319
O O13 0.700355 0.299969 0.813503
O O14 0.500000 0.000000 0.808014
O O15 0.500000 0.000000 0.265546
O O16 0.737191 0.070227 0.319677
#
# Coordination Sequence:
#
# PCOD9580954 Si02
#       8
#     6   6   6   3   6   6   6   6
#     4  11  24  42  70  99 131 180 230 279 348 421
#     4  10  21  43  65  89 138 174 220 286 335 407
#     4  11  24  40  66  98 130 178 221 276 341 406
#     4  10  22  44  66  96 130 172 220 282 338 406
#     4  10  22  41  63  91 136 176 220 282 345 406
#     4  10  23  42  63  97 132 174 229 281 335 416
#     4  10  24  45  64  94 141 174 221 286 340 409
#     4  11  23  43  68  97 134 177 223 282 344 400
#
# _framework density 23.427558000000001
#
# number of rings (size 3 to 8) (size 9 to 14) (size 15 to 20)
#    0.000    1.600    2.667    0.800    3.733    1.600 
#    2.400    0.000    0.000    0.000    0.000    0.000 
#    0.000    0.000    0.000    0.000    0.000    0.000 
#
# Total GULP energy -251162.630191 kJ/mol
# GULP energy per Si atom -5581.391782 kJ/mol
# Density = 2.337424 g / cm^3
# Si number density = 23.427558 Si / 1000 Ang^3
#
#
#
# Elastic Constant Matrix: (Units=GPa)
#
#
# Indices 1 2 3 4 5 6 
#
# 1 50.9181 6.1377 2.8189 0.0000 0.0000 0.0000
# 2 6.1377 50.9181 2.8189 0.0000 0.0000 0.0000
# 3 2.8189 2.8189 88.6263 0.0000 0.0000 0.0000
# 4 0.0000 0.0000 0.0000 24.4094 0.0000 0.0000
# 5 0.0000 0.0000 0.0000 0.0000 24.4094 0.0000
# 6 0.0000 0.0000 0.0000 0.0000 0.0000 22.3902
#
#
#
# Elastic Compliance Matrix: (Units=1/GPa)
#
#
# Indices 1 2 3 4 5 6 
#
# 1 0.019957 -0.002375 -0.000559 0.000000 0.000000 0.000000
# 2 -0.002375 0.019957 -0.000559 0.000000 0.000000 0.000000
# 3 -0.000559 -0.000559 0.011319 0.000000 0.000000 0.000000
# 4 0.000000 0.000000 0.000000 0.040968 0.000000 0.000000
# 5 0.000000 0.000000 0.000000 0.000000 0.040968 0.000000
# 6 0.000000 0.000000 0.000000 0.000000 0.000000 0.044662
#
#
# Mechanical properties :
#
#
# Convention : Reuss Voigt Hill
#
# Bulk Modulus (GPa) = 22.60094 23.77926 23.19010
# Shear Modulus (GPa) = 25.05449 26.15426 25.60438
#
# Velocity S-wave (km/s) = 3.27379 3.34486 3.30952
# Velocity P-wave (km/s) = 4.89472 5.00896 4.95217
#
# Compressibility (1/GPa) = 0.04424596
#
# Stress axis : x y z
#
# Youngs Moduli (GPa) = 50.10878 50.10878 88.34774
#
# Poissons Ratio (x) = 0.11899 0.04941
# Poissons Ratio (y) = 0.11899 0.04941
# Poissons Ratio (z) = 0.02802 0.02802
#
# Static dielectric constant tensor:
#      x y z
#    x 1.963350 0.000000 0.000000 
#    y 0.000000 1.963350 0.000000 
#    z 0.000000 0.000000 1.894770 
# 
# From -- ./inp_files/1715.got.cif
#   From: 2010.05.17/outbox.cif.g08.bks.cpg/sg172_1_cif.got.tgz:1715.got - 2010.05.20 11:19:57.
