data_PCOD9580575
_publ_section_title
;
Structure prediction by ZEFSAII (Michael W. Deem and Ramdas Pophale) SiO2 
 PCOD9580575
Probable space group: P 62
;
_chemical_formula_sum "Si O2"
_cell_formula_units_Z 39
_cell_length_a 19.262386
_cell_length_b 19.262386
_cell_length_c 4.869369
_cell_angle_alpha 90.000000
_cell_angle_beta 90.000000
_cell_angle_gamma 120.000000
_cell_volume 1564.672614
_symmetry_space_group_name_H-M "P 62"
_symmetry_group_IT_number 171
_symmetry_cell_setting 'hexagonal'
loop_
_space_group_symop_operation_xyz
x,y,z
x-y,x,1/3+z
-y,x-y,2/3+z
-x,-y,z
-x+y,-x,1/3+z
y,-x+y,2/3+z
loop_
_atom_site_type_symbol
_atom_site_label
_atom_site_fract_x
_atom_site_fract_y
_atom_site_fract_z
Si Si1 0.000000 0.500000 0.814641
Si Si2 0.088784 0.824927 0.137805
Si Si3 0.455606 0.204825 0.384284
Si Si4 0.092263 0.162616 0.272119
Si Si5 0.095143 0.416836 0.986343
Si Si6 0.649496 0.522017 0.197209
Si Si7 0.299403 0.977955 0.815547
O O1 0.033786 0.451244 0.981574
O O2 0.078248 0.559019 0.636393
O O3 0.146088 0.787000 0.090487
O O4 0.119535 0.899484 0.347598
O O5 0.013668 0.760719 0.321034
O O6 0.071232 0.849058 0.842674
O O7 0.470081 0.288260 0.513949
O O8 0.501052 0.171174 0.574640
O O9 0.477198 0.190310 0.080668
O O10 0.112555 0.101489 0.112758
O O11 0.053545 0.338465 0.789741
O O12 0.093396 0.387954 0.294745
O O13 0.665909 0.612072 0.164473
#
# Coordination Sequence:
#
# PCOD9580575 Si02
#       7
#     3   6   6   6   6   6   6
#     4  10  22  42  70 102 128 192 234 282 310 436
#     4  11  23  41  66  91 123 158 213 265 344 401
#     4  11  23  40  61 100 137 173 197 288 340 405
#     4  12  28  47  65  86 112 165 219 276 316 393
#     4  11  23  37  67  98 140 171 223 267 343 393
#     4  10  21  40  62  93 135 173 226 265 340 379
#     4  10  21  38  60  96 129 164 206 273 324 406
#
# _framework density 24.925339999999998
#
# number of rings (size 3 to 8) (size 9 to 14) (size 15 to 20)
#    0.000    1.231    0.000    8.308    6.462    5.538 
#    0.000    5.385    0.000    1.846    0.000    0.000 
#    0.000    0.000    0.000    0.000    0.000    0.000 
#
# Total GULP energy -217854.098016 kJ/mol
# GULP energy per Si atom -5586.002513 kJ/mol
# Density = 2.486861 g / cm^3
# Si number density = 24.925340 Si / 1000 Ang^3
#
#
#
# Elastic Constant Matrix: (Units=GPa)
#
#
# Indices 1 2 3 4 5 6 
#
# 1 64.5294 13.7006 21.0894 0.0000 0.0000 0.0000
# 2 13.7006 64.5294 21.0894 0.0000 0.0000 0.0000
# 3 21.0894 21.0894 160.2250 0.0000 0.0000 0.0000
# 4 0.0000 0.0000 0.0000 26.0971 0.0000 0.0000
# 5 0.0000 0.0000 0.0000 0.0000 26.0971 0.0000
# 6 0.0000 0.0000 0.0000 0.0000 0.0000 25.4144
#
#
#
# Elastic Compliance Matrix: (Units=1/GPa)
#
#
# Indices 1 2 3 4 5 6 
#
# 1 0.016717 -0.002957 -0.001811 0.000000 0.000000 0.000000
# 2 -0.002957 0.016717 -0.001811 0.000000 0.000000 0.000000
# 3 -0.001811 -0.001811 0.006718 0.000000 0.000000 0.000000
# 4 0.000000 0.000000 0.000000 0.038318 0.000000 0.000000
# 5 0.000000 0.000000 0.000000 0.000000 0.038318 0.000000
# 6 0.000000 0.000000 0.000000 0.000000 0.000000 0.039348
#
#
# Mechanical properties :
#
#
# Convention : Reuss Voigt Hill
#
# Bulk Modulus (GPa) = 37.04756 44.56028 40.80392
# Shear Modulus (GPa) = 28.04388 31.08201 29.56295
#
# Velocity S-wave (km/s) = 3.35791 3.53513 3.44766
# Velocity P-wave (km/s) = 5.47081 5.88040 5.67930
#
# Compressibility (1/GPa) = 0.02699233
#
# Stress axis : x y z
#
# Youngs Moduli (GPa) = 59.82086 59.82086 148.85434
#
# Poissons Ratio (x) = 0.17691 0.26958
# Poissons Ratio (y) = 0.17691 0.26958
# Poissons Ratio (z) = 0.10834 0.10834
#
# Static dielectric constant tensor:
#      x y z
#    x 2.067250 0.000000 0.000000 
#    y 0.000000 2.067250 0.000000 
#    z 0.000000 0.000000 1.943540 
# 
# From -- ./inp_files/433.got.cif
#   From: 2010.05.17/outbox.cif.g08.bks.cpg/sg171_1_cif.got.tgz:433.got - 2010.05.20 11:16:09.
