data_PCOD9580792
_publ_section_title
;
Structure prediction by ZEFSAII (Michael W. Deem and Ramdas Pophale) SiO2 
 PCOD9580792
Probable space group: P 62
;
_chemical_formula_sum "Si O2"
_cell_formula_units_Z 36
_cell_length_a 18.375387
_cell_length_b 18.375387
_cell_length_c 4.970259
_cell_angle_alpha 90.000000
_cell_angle_beta 90.000000
_cell_angle_gamma 120.000000
_cell_volume 1453.391584
_symmetry_space_group_name_H-M "P 62"
_symmetry_group_IT_number 171
_symmetry_cell_setting 'hexagonal'
loop_
_space_group_symop_operation_xyz
x,y,z
x-y,x,1/3+z
-y,x-y,2/3+z
-x,-y,z
-x+y,-x,1/3+z
y,-x+y,2/3+z
loop_
_atom_site_type_symbol
_atom_site_label
_atom_site_fract_x
_atom_site_fract_y
_atom_site_fract_z
Si Si1 0.116618 0.863059 0.608780
Si Si2 0.574101 0.722140 0.040047
Si Si3 0.358412 0.963977 0.232168
Si Si4 0.976636 0.209455 0.111208
Si Si5 0.649752 0.407971 0.063496
Si Si6 0.345328 0.500260 0.542525
O O1 0.205574 0.868852 0.600882
O O2 0.054131 0.790386 0.412570
O O3 0.137810 0.949399 0.469989
O O4 0.092974 0.857362 0.915737
O O5 0.584146 0.678476 0.304696
O O6 0.536782 0.784778 0.106231
O O7 0.550019 0.650920 0.806187
O O8 0.297349 0.001082 0.303187
O O9 0.445085 0.053534 0.195904
O O10 0.603731 0.326939 0.867499
O O11 0.664675 0.479955 0.852518
O O12 0.607769 0.422108 0.329290
#
# Coordination Sequence:
#
# PCOD9580792 Si02
#       6
#     6   6   6   6   6   6
#     4  11  21  34  54  80 120 160 212 268 325 387
#     4  11  23  38  59 100 141 170 222 267 331 417
#     4  11  23  38  59 100 141 170 222 267 331 417
#     4  11  21  34  54  80 120 160 212 268 325 387
#     4  12  24  48  72 112 125 168 242 286 307 394
#     4  12  24  40  78  98 144 184 212 290 356 368
#
# _framework density 24.769646999999999
#
# number of rings (size 3 to 8) (size 9 to 14) (size 15 to 20)
#    0.000    0.667    3.333    7.000    2.333    0.000 
#    0.000    0.000    0.000   20.000    0.000    0.000 
#    0.000    0.000    0.000    0.000    0.000    0.000 
#
# Total GULP energy -200585.039331 kJ/mol
# GULP energy per Si atom -5571.806648 kJ/mol
# Density = 2.471327 g / cm^3
# Si number density = 24.769647 Si / 1000 Ang^3
#
#
#
# Elastic Constant Matrix: (Units=GPa)
#
#
# Indices 1 2 3 4 5 6 
#
# 1 62.7042 40.8877 16.4091 0.0000 0.0000 0.0000
# 2 40.8877 62.7042 16.4091 0.0000 0.0000 0.0000
# 3 16.4091 16.4091 148.7643 0.0000 0.0000 0.0000
# 4 0.0000 0.0000 0.0000 35.5873 0.0000 0.0000
# 5 0.0000 0.0000 0.0000 0.0000 35.5873 0.0000
# 6 0.0000 0.0000 0.0000 0.0000 0.0000 10.9082
#
#
#
# Elastic Compliance Matrix: (Units=1/GPa)
#
#
# Indices 1 2 3 4 5 6 
#
# 1 0.027920 -0.017917 -0.001103 0.000000 0.000000 0.000000
# 2 -0.017917 0.027920 -0.001103 0.000000 0.000000 0.000000
# 3 -0.001103 -0.001103 0.006965 0.000000 0.000000 0.000000
# 4 0.000000 0.000000 0.000000 0.028100 0.000000 0.000000
# 5 0.000000 0.000000 0.000000 0.000000 0.028100 0.000000
# 6 0.000000 0.000000 0.000000 0.000000 0.000000 0.091674
#
#
# Mechanical properties :
#
#
# Convention : Reuss Voigt Hill
#
# Bulk Modulus (GPa) = 44.33073 46.84272 45.58672
# Shear Modulus (GPa) = 19.34645 29.78103 24.56374
#
# Velocity S-wave (km/s) = 2.79777 3.47121 3.15252
# Velocity P-wave (km/s) = 5.32660 5.91761 5.62987
#
# Compressibility (1/GPa) = 0.02255772
#
# Stress axis : x y z
#
# Youngs Moduli (GPa) = 35.81680 35.81680 143.56586
#
# Poissons Ratio (x) = 0.64173 0.15840
# Poissons Ratio (y) = 0.64173 0.15840
# Poissons Ratio (z) = 0.03952 0.03952
#
# Static dielectric constant tensor:
#      x y z
#    x 2.116300 0.000000 0.000000 
#    y 0.000000 2.116300 0.000000 
#    z 0.000000 0.000000 1.908120 
# 
# From -- ./inp_files/414.got.cif
#   From: 2010.05.17/outbox.cif.g08.bks.cpg/sg171_1_cif.got.tgz:414.got - 2010.05.20 11:16:09.
