data_PCOD9580371
_publ_section_title
;
Structure prediction by ZEFSAII (Michael W. Deem and Ramdas Pophale) SiO2 
 PCOD9580371
Probable space group: P 65
;
_chemical_formula_sum "Si O2"
_cell_formula_units_Z 36
_cell_length_a 10.839453
_cell_length_b 10.839453
_cell_length_c 14.565464
_cell_angle_alpha 90.000000
_cell_angle_beta 90.000000
_cell_angle_gamma 120.000000
_cell_volume 1482.073319
_symmetry_space_group_name_H-M "P 65"
_symmetry_group_IT_number 170
_symmetry_cell_setting 'hexagonal'
loop_
_space_group_symop_operation_xyz
x,y,z
x-y,x,5/6+z
-y,x-y,2/3+z
-x,-y,1/2+z
-x+y,-x,1/3+z
y,-x+y,1/6+z
loop_
_atom_site_type_symbol
_atom_site_label
_atom_site_fract_x
_atom_site_fract_y
_atom_site_fract_z
Si Si1 0.944514 0.465959 0.400440
Si Si2 0.920275 0.541171 0.209903
Si Si3 0.877422 0.029832 0.095199
Si Si4 0.713572 0.404467 0.532239
Si Si5 0.530066 0.687573 0.880302
Si Si6 0.374737 0.242798 0.685922
O O1 0.972721 0.574242 0.316082
O O2 0.858861 0.495588 0.476981
O O3 0.835551 0.304148 0.361821
O O4 0.063847 0.443278 0.452069
O O5 0.750467 0.444211 0.221185
O O6 0.933010 0.638813 0.122043
O O7 0.011197 0.464767 0.181627
O O8 0.771273 0.874706 0.139060
O O9 0.012374 0.103235 0.158581
O O10 0.796103 0.118383 0.093033
O O11 0.737372 0.486205 0.627680
O O12 0.589726 0.362498 0.458189
#
# Coordination Sequence:
#
# PCOD9580371 Si02
#       6
#     6   6   6   6   6   6
#     4  11  22  41  66 103 143 192 247 312 376 451
#     4  11  23  38  65 103 145 192 249 302 379 451
#     4  12  26  50  80 106 143 206 265 314 380 462
#     4  11  25  43  67 108 150 191 250 315 386 458
#     4  12  24  45  72 111 153 202 247 320 385 462
#     4  11  22  39  72  99 140 199 254 305 370 458
#
# _framework density 24.290296000000001
#
# number of rings (size 3 to 8) (size 9 to 14) (size 15 to 20)
#    0.000    0.667    6.667    1.000    2.333    0.000 
#    3.000    1.667    0.000    0.000    0.000    0.000 
#    0.000    0.000    0.000    0.000    0.000    0.000 
#
# Total GULP energy -201062.001642 kJ/mol
# GULP energy per Si atom -5585.055601 kJ/mol
# Density = 2.423501 g / cm^3
# Si number density = 24.290296 Si / 1000 Ang^3
#
#
#
# Elastic Constant Matrix: (Units=GPa)
#
#
# Indices 1 2 3 4 5 6 
#
# 1 52.8384 6.7074 40.4103 0.0000 0.0000 0.0000
# 2 6.7074 52.8384 40.4103 0.0000 0.0000 0.0000
# 3 40.4103 40.4103 188.6747 0.0000 0.0000 0.0000
# 4 0.0000 0.0000 0.0000 49.2865 0.0000 0.0000
# 5 0.0000 0.0000 0.0000 0.0000 49.2865 0.0000
# 6 0.0000 0.0000 0.0000 0.0000 0.0000 23.0655
#
#
#
# Elastic Compliance Matrix: (Units=1/GPa)
#
#
# Indices 1 2 3 4 5 6 
#
# 1 0.022677 0.001000 -0.005071 0.000000 0.000000 0.000000
# 2 0.001000 0.022677 -0.005071 0.000000 0.000000 0.000000
# 3 -0.005071 -0.005071 0.007472 0.000000 0.000000 0.000000
# 4 0.000000 0.000000 0.000000 0.020290 0.000000 0.000000
# 5 0.000000 0.000000 0.000000 0.000000 0.020290 0.000000
# 6 0.000000 0.000000 0.000000 0.000000 0.000000 0.043355
#
#
# Mechanical properties :
#
#
# Convention : Reuss Voigt Hill
#
# Bulk Modulus (GPa) = 28.95070 52.15636 40.55353
# Shear Modulus (GPa) = 30.01938 38.11593 34.06765
#
# Velocity S-wave (km/s) = 3.51929 3.96559 3.74909
# Velocity P-wave (km/s) = 5.33464 6.51817 5.95588
#
# Compressibility (1/GPa) = 0.03454148
#
# Stress axis : x y z
#
# Youngs Moduli (GPa) = 44.09746 44.09746 133.82643
#
# Poissons Ratio (x) = -0.04408 0.67864
# Poissons Ratio (y) = -0.04408 0.67864
# Poissons Ratio (z) = 0.22362 0.22362
#
# Static dielectric constant tensor:
#      x y z
#    x 2.003120 0.000000 0.000000 
#    y 0.000000 2.003120 0.000000 
#    z 0.000000 0.000000 1.975010 
# 
# From -- ./inp_files/1214.got.cif
#   From: 2010.05.17/outbox.cif.g08.bks.cpg/sg170_cif.got.tgz:1214.got - 2010.05.20 11:14:30.
