data_PCOD9580173
_publ_section_title
;
Structure prediction by ZEFSAII (Michael W. Deem and Ramdas Pophale) SiO2 
 PCOD9580173
Probable space group: P 65
;
_chemical_formula_sum "Si O2"
_cell_formula_units_Z 48
_cell_length_a 9.605284
_cell_length_b 9.605284
_cell_length_c 23.545356
_cell_angle_alpha 90.000000
_cell_angle_beta 90.000000
_cell_angle_gamma 120.000000
_cell_volume 1881.292453
_symmetry_space_group_name_H-M "P 65"
_symmetry_group_IT_number 170
_symmetry_cell_setting 'hexagonal'
loop_
_space_group_symop_operation_xyz
x,y,z
x-y,x,5/6+z
-y,x-y,2/3+z
-x,-y,1/2+z
-x+y,-x,1/3+z
y,-x+y,1/6+z
loop_
_atom_site_type_symbol
_atom_site_label
_atom_site_fract_x
_atom_site_fract_y
_atom_site_fract_z
Si Si1 0.965251 0.664783 0.513200
Si Si2 0.308150 0.422429 0.567745
Si Si3 0.860322 0.665240 0.255518
Si Si4 0.577195 0.687250 0.883046
Si Si5 0.010230 0.898187 0.425178
Si Si6 0.616352 0.084404 0.475359
Si Si7 0.510739 0.894965 0.662409
Si Si8 0.896066 0.126993 0.292491
O O1 0.974750 0.729436 0.450204
O O2 0.980413 0.551809 0.662057
O O3 0.942806 0.789318 0.550671
O O4 0.150732 0.723090 0.530944
O O5 0.235965 0.521634 0.599425
O O6 0.488582 0.472460 0.546944
O O7 0.252211 0.272821 0.609403
O O8 0.213109 0.351445 0.509801
O O9 0.968322 0.847368 0.234262
O O10 0.693479 0.637271 0.279188
O O11 0.854821 0.557946 0.202983
O O12 0.965648 0.650649 0.306124
O O13 0.465688 0.599437 0.938951
O O14 0.749430 0.723846 0.907173
O O15 0.072854 0.045636 0.469293
O O16 0.781335 0.513895 0.514536
#
# Coordination Sequence:
#
# PCOD9580173 Si02
#       8
#     6   6   6   6   6   6   6   6
#     4  10  20  38  66  96 150 190 250 312 370 450
#     4  11  21  35  63 104 140 197 246 308 382 453
#     4  10  19  35  61 101 144 182 247 301 367 455
#     4   9  21  39  62 102 141 198 255 314 378 448
#     4  10  18  32  64 104 134 176 238 290 358 446
#     4  11  21  35  63 104 140 197 246 308 382 453
#     4   9  21  39  62 102 141 198 255 314 378 448
#     4  10  19  35  61 101 144 182 247 301 367 455
#
# _framework density 25.514375999999999
#
# number of rings (size 3 to 8) (size 9 to 14) (size 15 to 20)
#    0.000    2.000    1.250    3.750    0.000    0.000 
#    0.000    8.750   13.750    0.000    0.000    0.000 
#    0.000    0.000    0.000    0.000    0.000    0.000 
#
# Total GULP energy -267626.285661 kJ/mol
# GULP energy per Si atom -5575.547618 kJ/mol
# Density = 2.545630 g / cm^3
# Si number density = 25.514376 Si / 1000 Ang^3
#
#
#
# Elastic Constant Matrix: (Units=GPa)
#
#
# Indices 1 2 3 4 5 6 
#
# 1 104.6792 49.1636 30.9614 0.0000 0.0000 0.0000
# 2 49.1636 104.6792 30.9614 0.0000 0.0000 0.0000
# 3 30.9614 30.9614 73.9647 0.0000 0.0000 0.0000
# 4 0.0000 0.0000 0.0000 25.0287 0.0000 0.0000
# 5 0.0000 0.0000 0.0000 0.0000 25.0287 0.0000
# 6 0.0000 0.0000 0.0000 0.0000 0.0000 27.7578
#
#
#
# Elastic Compliance Matrix: (Units=1/GPa)
#
#
# Indices 1 2 3 4 5 6 
#
# 1 0.012915 -0.005098 -0.003272 0.000000 0.000000 0.000000
# 2 -0.005098 0.012915 -0.003272 0.000000 0.000000 0.000000
# 3 -0.003272 -0.003272 0.016259 0.000000 0.000000 0.000000
# 4 0.000000 0.000000 0.000000 0.039954 0.000000 0.000000
# 5 0.000000 0.000000 0.000000 0.000000 0.039954 0.000000
# 6 0.000000 0.000000 0.000000 0.000000 0.000000 0.036026
#
#
# Mechanical properties :
#
#
# Convention : Reuss Voigt Hill
#
# Bulk Modulus (GPa) = 53.17768 56.16622 54.67195
# Shear Modulus (GPa) = 26.65569 27.04546 26.85057
#
# Velocity S-wave (km/s) = 3.23574 3.25931 3.24755
# Velocity P-wave (km/s) = 5.90318 6.01876 5.96125
#
# Compressibility (1/GPa) = 0.01880488
#
# Stress axis : x y z
#
# Youngs Moduli (GPa) = 77.42865 77.42865 61.50253
#
# Poissons Ratio (x) = 0.39472 0.20125
# Poissons Ratio (y) = 0.39472 0.20125
# Poissons Ratio (z) = 0.25337 0.25337
#
# Static dielectric constant tensor:
#      x y z
#    x 2.052750 0.000000 0.000000 
#    y 0.000000 2.052750 0.000000 
#    z 0.000000 0.000000 2.085970 
# 
# From -- ./inp_files/1718.got.cif
#   From: 2010.05.17/outbox.cif.g08.bks.cpg/sg170_cif.got.tgz:1718.got - 2010.05.20 11:14:30.
