data_PCOD9580359
_publ_section_title
;
Structure prediction by ZEFSAII (Michael W. Deem and Ramdas Pophale) SiO2 
 PCOD9580359
Probable space group: P 65
;
_chemical_formula_sum "Si O2"
_cell_formula_units_Z 42
_cell_length_a 10.750308
_cell_length_b 10.750308
_cell_length_c 17.367686
_cell_angle_alpha 90.000000
_cell_angle_beta 90.000000
_cell_angle_gamma 120.000000
_cell_volume 1738.258672
_symmetry_space_group_name_H-M "P 65"
_symmetry_group_IT_number 170
_symmetry_cell_setting 'hexagonal'
loop_
_space_group_symop_operation_xyz
x,y,z
x-y,x,5/6+z
-y,x-y,2/3+z
-x,-y,1/2+z
-x+y,-x,1/3+z
y,-x+y,1/6+z
loop_
_atom_site_type_symbol
_atom_site_label
_atom_site_fract_x
_atom_site_fract_y
_atom_site_fract_z
Si Si1 0.917966 0.980240 0.368710
Si Si2 0.282698 0.943354 0.105548
Si Si3 0.571030 0.025840 0.258614
Si Si4 0.685148 0.191773 0.101317
Si Si5 0.234929 0.842834 0.886977
Si Si6 0.442726 0.260183 0.098265
Si Si7 0.037861 0.541118 0.655470
O O1 0.992537 0.985931 0.287384
O O2 0.765446 0.834600 0.378098
O O3 0.870514 0.098171 0.365013
O O4 0.225688 0.837889 0.177037
O O5 0.347934 0.106345 0.138473
O O6 0.400049 0.916675 0.063872
O O7 0.575138 0.877335 0.263028
O O8 0.404968 0.964910 0.283346
O O9 0.614278 0.079044 0.171227
O O10 0.689220 0.160032 0.307408
O O11 0.601235 0.281224 0.101904
O O12 0.848523 0.303683 0.122629
O O13 0.641561 0.106531 0.019977
O O14 0.384344 0.956618 0.929270
#
# Coordination Sequence:
#
# PCOD9580359 Si02
#       7
#     6   6   6   6   6   6   6
#     4  12  22  41  71 111 147 192 258 317 374 461
#     4  11  21  39  72 104 142 187 243 299 373 444
#     4  12  24  43  66 106 138 188 232 301 370 443
#     4  11  24  41  69 100 151 186 237 299 370 449
#     4  12  24  41  71 105 144 180 250 300 370 446
#     4  11  21  40  64 104 140 186 232 298 372 446
#     4  11  22  43  67 108 142 191 236 308 375 443
#
# _framework density 24.162113999999999
#
# number of rings (size 3 to 8) (size 9 to 14) (size 15 to 20)
#    0.000    0.571    8.571    1.714    0.000    0.000 
#    2.571    0.000    3.143    0.000    0.000    0.000 
#    0.000    0.000    0.000    0.000    0.000    0.000 
#
# Total GULP energy -233909.583817 kJ/mol
# GULP energy per Si atom -5569.275805 kJ/mol
# Density = 2.410712 g / cm^3
# Si number density = 24.162114 Si / 1000 Ang^3
#
#
#
# Elastic Constant Matrix: (Units=GPa)
#
#
# Indices 1 2 3 4 5 6 
#
# 1 71.0606 21.7571 13.3750 0.0000 0.0000 0.0000
# 2 21.7571 71.0606 13.3750 0.0000 0.0000 0.0000
# 3 13.3750 13.3750 101.0143 0.0000 0.0000 0.0000
# 4 0.0000 0.0000 0.0000 43.5805 0.0000 0.0000
# 5 0.0000 0.0000 0.0000 0.0000 43.5805 0.0000
# 6 0.0000 0.0000 0.0000 0.0000 0.0000 24.6517
#
#
#
# Elastic Compliance Matrix: (Units=1/GPa)
#
#
# Indices 1 2 3 4 5 6 
#
# 1 0.015742 -0.004541 -0.001483 0.000000 0.000000 0.000000
# 2 -0.004541 0.015742 -0.001483 0.000000 0.000000 0.000000
# 3 -0.001483 -0.001483 0.010292 0.000000 0.000000 0.000000
# 4 0.000000 0.000000 0.000000 0.022946 0.000000 0.000000
# 5 0.000000 0.000000 0.000000 0.000000 0.022946 0.000000
# 6 0.000000 0.000000 0.000000 0.000000 0.000000 0.040565
#
#
# Mechanical properties :
#
#
# Convention : Reuss Voigt Hill
#
# Bulk Modulus (GPa) = 37.36594 37.79441 37.58017
# Shear Modulus (GPa) = 32.85843 35.33776 34.09810
#
# Velocity S-wave (km/s) = 3.69170 3.82845 3.76070
# Velocity P-wave (km/s) = 5.80257 5.93453 5.86892
#
# Compressibility (1/GPa) = 0.02676234
#
# Stress axis : x y z
#
# Youngs Moduli (GPa) = 63.52473 63.52473 97.15961
#
# Poissons Ratio (x) = 0.28844 0.14410
# Poissons Ratio (y) = 0.28844 0.14410
# Poissons Ratio (z) = 0.09422 0.09422
#
# Static dielectric constant tensor:
#      x y z
#    x 1.981770 0.000000 0.000000 
#    y 0.000000 1.981770 0.000000 
#    z 0.000000 0.000000 2.033610 
# 
# From -- ./inp_files/1438.got.cif
#   From: 2010.05.17/outbox.cif.g08.bks.cpg/sg170_cif.got.tgz:1438.got - 2010.05.20 11:14:30.
