data_PCOD9580788
_publ_section_title
;
Structure prediction by ZEFSAII (Michael W. Deem and Ramdas Pophale) SiO2 
 PCOD9580788
Probable space group: P 62
;
_chemical_formula_sum "Si O2"
_cell_formula_units_Z 36
_cell_length_a 17.448268
_cell_length_b 17.448268
_cell_length_c 5.012287
_cell_angle_alpha 90.000000
_cell_angle_beta 90.000000
_cell_angle_gamma 120.000000
_cell_volume 1321.512297
_symmetry_space_group_name_H-M "P 62"
_symmetry_group_IT_number 171
_symmetry_cell_setting 'hexagonal'
loop_
_space_group_symop_operation_xyz
x,y,z
x-y,x,1/3+z
-y,x-y,2/3+z
-x,-y,z
-x+y,-x,1/3+z
y,-x+y,2/3+z
loop_
_atom_site_type_symbol
_atom_site_label
_atom_site_fract_x
_atom_site_fract_y
_atom_site_fract_z
Si Si1 0.680383 0.896805 0.801410
Si Si2 0.051508 0.325860 0.022955
Si Si3 0.266855 0.568273 0.582074
Si Si4 0.945822 0.384109 0.750272
Si Si5 0.145734 0.596914 0.242590
Si Si6 0.851449 0.995477 0.075512
O O1 0.691792 0.974508 0.590475
O O2 0.639134 0.792716 0.750680
O O3 0.619958 0.896686 0.046760
O O4 0.782269 0.924910 0.865520
O O5 0.038487 0.396269 0.851719
O O6 0.032633 0.243416 0.836918
O O7 0.352835 0.613427 0.393865
O O8 0.186455 0.538951 0.368475
O O9 0.227564 0.695990 0.153649
O O10 0.922193 0.408048 0.467800
O O11 0.909733 0.422527 0.973156
O O12 0.869685 0.940694 0.290094
#
# Coordination Sequence:
#
# PCOD9580788 Si02
#       6
#     6   6   6   6   6   6
#     4  11  22  40  60  82 114 162 216 278 337 389
#     4  11  22  40  60  82 114 162 216 278 337 389
#     4   9  18  32  60  94 135 165 186 236 301 386
#     4  11  24  36  59  88 129 160 212 266 309 388
#     4  11  20  38  56  98 132 165 201 241 319 374
#     4  11  22  36  58  80 112 154 206 278 344 420
#
# _framework density 27.241519
#
# number of rings (size 3 to 8) (size 9 to 14) (size 15 to 20)
#    0.000    1.333    6.667    0.000    0.000    0.000 
#    0.000    5.833    0.000    0.000    0.000    7.000 
#    0.000    0.000    0.000    0.000    0.000    0.000 
#
# Total GULP energy -200557.454088 kJ/mol
# GULP energy per Si atom -5571.040391 kJ/mol
# Density = 2.717952 g / cm^3
# Si number density = 27.241519 Si / 1000 Ang^3
#
#
#
# Elastic Constant Matrix: (Units=GPa)
#
#
# Indices 1 2 3 4 5 6 
#
# 1 101.6177 60.4661 31.4211 0.0000 0.0000 0.0000
# 2 60.4661 101.6177 31.4211 0.0000 0.0000 0.0000
# 3 31.4211 31.4211 144.5354 0.0000 0.0000 0.0000
# 4 0.0000 0.0000 0.0000 29.0347 0.0000 0.0000
# 5 0.0000 0.0000 0.0000 0.0000 29.0347 0.0000
# 6 0.0000 0.0000 0.0000 0.0000 0.0000 20.5758
#
#
#
# Elastic Compliance Matrix: (Units=1/GPa)
#
#
# Indices 1 2 3 4 5 6 
#
# 1 0.015519 -0.008781 -0.001465 0.000000 0.000000 0.000000
# 2 -0.008781 0.015519 -0.001465 0.000000 0.000000 0.000000
# 3 -0.001465 -0.001465 0.007556 0.000000 0.000000 0.000000
# 4 0.000000 0.000000 0.000000 0.034442 0.000000 0.000000
# 5 0.000000 0.000000 0.000000 0.000000 0.034442 0.000000
# 6 0.000000 0.000000 0.000000 0.000000 0.000000 0.048601
#
#
# Mechanical properties :
#
#
# Convention : Reuss Voigt Hill
#
# Bulk Modulus (GPa) = 65.91164 66.04304 65.97734
# Shear Modulus (GPa) = 27.09200 30.69321 28.89260
#
# Velocity S-wave (km/s) = 3.15701 3.36029 3.26023
# Velocity P-wave (km/s) = 6.12672 6.27308 6.20033
#
# Compressibility (1/GPa) = 0.01517183
#
# Stress axis : x y z
#
# Youngs Moduli (GPa) = 64.43726 64.43726 132.35303
#
# Poissons Ratio (x) = 0.56585 0.19386
# Poissons Ratio (y) = 0.56585 0.19386
# Poissons Ratio (z) = 0.09438 0.09438
#
# Static dielectric constant tensor:
#      x y z
#    x 2.267470 0.000000 0.000000 
#    y 0.000000 2.267470 0.000000 
#    z 0.000000 0.000000 2.437360 
# 
# From -- ./inp_files/4213.got.cif
#   From: 2010.05.17/outbox.cif.g08.bks.cpg/sg171_3_cif.got.tgz:4213.got - 2010.05.20 11:16:09.
