data_PCOD9580119
_publ_section_title
;
Structure prediction by ZEFSAII (Michael W. Deem and Ramdas Pophale) SiO2 
 PCOD9580119
Probable space group: P 61
;
_chemical_formula_sum "Si O2"
_cell_formula_units_Z 36
_cell_length_a 15.014696
_cell_length_b 15.014696
_cell_length_c 7.510862
_cell_angle_alpha 90.000000
_cell_angle_beta 90.000000
_cell_angle_gamma 120.000000
_cell_volume 1466.403543
_symmetry_space_group_name_H-M "P 61"
_symmetry_group_IT_number 169
_symmetry_cell_setting 'hexagonal'
loop_
_space_group_symop_operation_xyz
x,y,z
x-y,x,1/6+z
-y,x-y,1/3+z
-x,-y,1/2+z
-x+y,-x,2/3+z
y,-x+y,5/6+z
loop_
_atom_site_type_symbol
_atom_site_label
_atom_site_fract_x
_atom_site_fract_y
_atom_site_fract_z
Si Si1 0.615275 0.371457 0.687970
Si Si2 0.603571 0.775168 0.254216
Si Si3 0.333818 0.927423 0.914327
Si Si4 0.059323 0.735121 0.329282
Si Si5 0.567526 0.528337 0.879596
Si Si6 0.067550 0.213834 0.408103
O O1 0.683592 0.369517 0.525635
O O2 0.495402 0.300243 0.638512
O O3 0.617384 0.475300 0.755890
O O4 0.573400 0.743774 0.459697
O O5 0.696302 0.754504 0.211425
O O6 0.633834 0.885712 0.184350
O O7 0.433886 0.971687 0.786204
O O8 0.252137 0.959895 0.977677
O O9 0.392533 0.939573 0.100459
O O10 0.058767 0.648558 0.202342
O O11 0.119573 0.844502 0.226374
O O12 0.123142 0.165135 0.299443
#
# Coordination Sequence:
#
# PCOD9580119 Si02
#       6
#     6   6   6   6   6   6
#     4  11  26  48  71 113 158 208 269 353 429 525
#     4  11  27  46  75 112 155 211 275 342 425 514
#     4  11  26  48  78 121 158 218 282 356 441 526
#     4  12  24  49  78 115 158 217 279 354 428 514
#     4  11  24  45  80 113 160 212 279 355 434 537
#     4  12  27  54  84 122 169 228 294 368 439 526
#
# _framework density 24.549858
#
# number of rings (size 3 to 8) (size 9 to 14) (size 15 to 20)
#    0.000    0.667    3.333    3.000    9.333    0.000 
#   21.000    0.000    0.000    0.000    0.000    0.000 
#    0.000    0.000    0.000    0.000    0.000    0.000 
#
# Total GULP energy -200912.558312 kJ/mol
# GULP energy per Si atom -5580.904398 kJ/mol
# Density = 2.449398 g / cm^3
# Si number density = 24.549858 Si / 1000 Ang^3
#
#
#
# Elastic Constant Matrix: (Units=GPa)
#
#
# Indices 1 2 3 4 5 6 
#
# 1 108.2704 47.6579 69.1676 0.0000 0.0000 0.0000
# 2 47.6579 108.2704 69.1676 0.0000 0.0000 0.0000
# 3 69.1676 69.1676 128.9003 0.0000 0.0000 0.0000
# 4 0.0000 0.0000 0.0000 50.5805 0.0000 0.0000
# 5 0.0000 0.0000 0.0000 0.0000 50.5805 0.0000
# 6 0.0000 0.0000 0.0000 0.0000 0.0000 30.3062
#
#
#
# Elastic Compliance Matrix: (Units=1/GPa)
#
#
# Indices 1 2 3 4 5 6 
#
# 1 0.014369 -0.002129 -0.006568 0.000000 0.000000 0.000000
# 2 -0.002129 0.014369 -0.006568 0.000000 0.000000 0.000000
# 3 -0.006568 -0.006568 0.014807 0.000000 0.000000 0.000000
# 4 0.000000 0.000000 0.000000 0.019770 0.000000 0.000000
# 5 0.000000 0.000000 0.000000 0.000000 0.019770 0.000000
# 6 0.000000 0.000000 0.000000 0.000000 0.000000 0.032996
#
#
# Mechanical properties :
#
#
# Convention : Reuss Voigt Hill
#
# Bulk Modulus (GPa) = 76.83502 79.71415 78.27458
# Shear Modulus (GPa) = 33.12327 36.92331 35.02329
#
# Velocity S-wave (km/s) = 3.67716 3.88237 3.78116
# Velocity P-wave (km/s) = 7.02810 7.25519 7.14255
#
# Compressibility (1/GPa) = 0.01301490
#
# Stress axis : x y z
#
# Youngs Moduli (GPa) = 69.59316 69.59316 67.53672
#
# Poissons Ratio (x) = 0.14817 0.44359
# Poissons Ratio (y) = 0.14817 0.44359
# Poissons Ratio (z) = 0.45709 0.45709
#
# Static dielectric constant tensor:
#      x y z
#    x 1.937780 0.000000 0.000000 
#    y 0.000000 1.937780 0.000000 
#    z 0.000000 0.000000 2.034460 
# 
# From -- ./inp_files/600.got.cif
#   From: 2010.05.17/outbox.cif.g08.bks.cpg/sg169_cif.got.tgz:600.got - 2010.05.20 11:12:54.
