data_PCOD9580217
_publ_section_title
;
Structure prediction by ZEFSAII (Michael W. Deem and Ramdas Pophale) SiO2 
 PCOD9580217
Probable space group: P 65
;
_chemical_formula_sum "Si O2"
_cell_formula_units_Z 48
_cell_length_a 12.865410
_cell_length_b 12.865410
_cell_length_c 19.106316
_cell_angle_alpha 90.000000
_cell_angle_beta 90.000000
_cell_angle_gamma 120.000000
_cell_volume 2738.765510
_symmetry_space_group_name_H-M "P 65"
_symmetry_group_IT_number 170
_symmetry_cell_setting 'hexagonal'
loop_
_space_group_symop_operation_xyz
x,y,z
x-y,x,5/6+z
-y,x-y,2/3+z
-x,-y,1/2+z
-x+y,-x,1/3+z
y,-x+y,1/6+z
loop_
_atom_site_type_symbol
_atom_site_label
_atom_site_fract_x
_atom_site_fract_y
_atom_site_fract_z
Si Si1 0.147624 0.627843 0.929260
Si Si2 0.923682 0.570955 0.711259
Si Si3 0.558592 0.742076 0.514204
Si Si4 0.183484 0.742075 0.658404
Si Si5 0.595673 0.464485 0.254875
Si Si6 0.404327 0.868812 0.751065
Si Si7 0.852376 0.480219 0.076680
Si Si8 0.647272 0.570955 0.461348
O O1 0.194410 0.562793 0.877859
O O2 0.230598 0.769402 0.919637
O O3 0.007633 0.570605 0.914042
O O4 0.157369 0.588472 0.007680
O O5 0.843498 0.600872 0.763785
O O6 0.857099 0.494645 0.641612
O O7 0.950618 0.475309 0.752970
O O8 0.046050 0.685312 0.683461
O O9 0.520749 0.790822 0.448233
O O10 0.639261 0.685312 0.489146
O O11 0.600872 0.843499 0.575488
O O12 0.270073 0.790822 0.724374
O O13 0.194410 0.631617 0.628081
O O14 0.562972 0.570604 0.258565
O O15 0.411528 0.842631 0.831594
O O16 0.494644 0.857098 0.697661
#
# Coordination Sequence:
#
# PCOD9580217 Si02
#       8
#     6   6   6   6   6   6   6   6
#     4  10  20  32  51  74 106 142 170 215 260 313
#     4   9  19  34  49  77 108 144 174 214 261 317
#     4  10  20  32  51  74 109 140 174 214 262 316
#     4  10  20  32  51  74 109 140 174 214 262 316
#     4   9  20  33  46  75 109 133 181 203 257 324
#     4   9  20  33  46  75 109 133 181 203 257 324
#     4  10  20  32  51  74 106 142 170 215 260 313
#     4   9  19  34  49  77 108 144 174 214 261 317
#
# _framework density 17.526143999999999
#
# number of rings (size 3 to 8) (size 9 to 14) (size 15 to 20)
#    0.000    2.500    0.000    2.250   10.500    3.000 
#    0.000    0.000    0.000    0.000    0.000    0.000 
#   60.000    0.000    0.000    0.000    0.000    0.000 
#
# Total GULP energy -267494.181289 kJ/mol
# GULP energy per Si atom -5572.795444 kJ/mol
# Density = 1.748625 g / cm^3
# Si number density = 17.526144 Si / 1000 Ang^3
#
#
#
# Elastic Constant Matrix: (Units=GPa)
#
#
# Indices 1 2 3 4 5 6 
#
# 1 59.7325 35.2201 6.9075 0.0000 0.0000 0.0000
# 2 35.2201 59.7325 6.9075 0.0000 0.0000 0.0000
# 3 6.9075 6.9075 52.0803 0.0000 0.0000 0.0000
# 4 0.0000 0.0000 0.0000 16.1209 0.0000 0.0000
# 5 0.0000 0.0000 0.0000 0.0000 16.1209 0.0000
# 6 0.0000 0.0000 0.0000 0.0000 0.0000 12.2562
#
#
#
# Elastic Compliance Matrix: (Units=1/GPa)
#
#
# Indices 1 2 3 4 5 6 
#
# 1 0.025767 -0.015028 -0.001424 0.000000 0.000000 0.000000
# 2 -0.015028 0.025767 -0.001424 0.000000 0.000000 0.000000
# 3 -0.001424 -0.001424 0.019579 0.000000 0.000000 0.000000
# 4 0.000000 0.000000 0.000000 0.062031 0.000000 0.000000
# 5 0.000000 0.000000 0.000000 0.000000 0.062031 0.000000
# 6 0.000000 0.000000 0.000000 0.000000 0.000000 0.081591
#
#
# Mechanical properties :
#
#
# Convention : Reuss Voigt Hill
#
# Bulk Modulus (GPa) = 28.28111 29.95729 29.11920
# Shear Modulus (GPa) = 15.41745 17.06694 16.24220
#
# Velocity S-wave (km/s) = 2.96916 3.12396 3.04754
# Velocity P-wave (km/s) = 5.28452 5.49019 5.38834
#
# Compressibility (1/GPa) = 0.03535929
#
# Stress axis : x y z
#
# Youngs Moduli (GPa) = 38.80899 38.80899 51.07525
#
# Poissons Ratio (x) = 0.58324 0.07275
# Poissons Ratio (y) = 0.58324 0.07275
# Poissons Ratio (z) = 0.05528 0.05528
#
# Static dielectric constant tensor:
#      x y z
#    x 1.602680 0.000000 0.000000 
#    y 0.000000 1.602680 0.000000 
#    z 0.000000 0.000000 1.640430 
# 
# From -- ./inp_files/1585.got.cif
#   From: 2010.05.17/outbox.cif.g08.bks.cpg/sg170_cif.got.tgz:1585.got - 2010.05.20 11:14:30.
