data_PCOD9580516
_publ_section_title
;
Structure prediction by ZEFSAII (Michael W. Deem and Ramdas Pophale) SiO2 
 PCOD9580516
Probable space group: P 62
;
_chemical_formula_sum "Si O2"
_cell_formula_units_Z 39
_cell_length_a 17.047547
_cell_length_b 17.047547
_cell_length_c 8.061615
_cell_angle_alpha 90.000000
_cell_angle_beta 90.000000
_cell_angle_gamma 120.000000
_cell_volume 2028.973983
_symmetry_space_group_name_H-M "P 62"
_symmetry_group_IT_number 171
_symmetry_cell_setting 'hexagonal'
loop_
_space_group_symop_operation_xyz
x,y,z
x-y,x,1/3+z
-y,x-y,2/3+z
-x,-y,z
-x+y,-x,1/3+z
y,-x+y,2/3+z
loop_
_atom_site_type_symbol
_atom_site_label
_atom_site_fract_x
_atom_site_fract_y
_atom_site_fract_z
Si Si1 0.323462 0.004314 0.500000
Si Si2 0.473444 0.847971 0.165165
Si Si3 0.292219 0.786288 0.053940
Si Si4 0.810034 0.175734 0.320362
Si Si5 0.000000 0.500000 0.047533
Si Si6 0.660028 0.905100 0.006824
Si Si7 0.333530 0.246815 0.185881
O O1 0.252096 0.932865 0.363387
O O2 0.423067 0.015563 0.468087
O O3 0.292872 0.955022 0.677305
O O4 0.325402 0.100388 0.531120
O O5 0.388090 0.791337 0.048759
O O6 0.479504 0.782486 0.297764
O O7 0.449612 0.915136 0.260206
O O8 0.570310 0.902335 0.076505
O O9 0.254921 0.792935 0.234233
O O10 0.296194 0.867756 0.947015
O O11 0.849412 0.218129 0.500562
O O12 0.740415 0.004278 0.964776
O O13 0.687651 0.852959 0.138507
#
# Coordination Sequence:
#
# PCOD9580516 Si02
#       7
#     6   6   6   6   3   6   6
#     4  10  21  37  58  85 118 156 209 253 311 367
#     4  11  23  36  54  79 112 162 200 252 292 349
#     4  11  22  38  54  79 115 154 206 244 298 349
#     4  10  20  37  59  83 116 156 200 256 304 370
#     4  12  20  34  60  80 112 164 204 250 296 352
#     4   9  20  37  57  83 116 152 200 249 306 365
#     4   9  20  36  57  83 115 153 196 255 303 364
#
# _framework density 19.221537999999999
#
# number of rings (size 3 to 8) (size 9 to 14) (size 15 to 20)
#    0.000    1.846    3.077    0.923    0.000    3.692 
#    2.769    0.000    0.000    0.000    0.000    0.000 
#    0.000  172.308    0.000    0.000    0.000    0.000 
#
# Total GULP energy -217156.054311 kJ/mol
# GULP energy per Si atom -5568.103957 kJ/mol
# Density = 1.917779 g / cm^3
# Si number density = 19.221538 Si / 1000 Ang^3
#
#
#
# Elastic Constant Matrix: (Units=GPa)
#
#
# Indices 1 2 3 4 5 6 
#
# 1 87.5918 56.4797 32.6597 0.0000 0.0000 0.0000
# 2 56.4797 87.5918 32.6597 0.0000 0.0000 0.0000
# 3 32.6597 32.6597 71.6065 0.0000 0.0000 0.0000
# 4 0.0000 0.0000 0.0000 20.0347 0.0000 0.0000
# 5 0.0000 0.0000 0.0000 0.0000 20.0347 0.0000
# 6 0.0000 0.0000 0.0000 0.0000 0.0000 15.5560
#
#
#
# Elastic Compliance Matrix: (Units=1/GPa)
#
#
# Indices 1 2 3 4 5 6 
#
# 1 0.020446 -0.011696 -0.003991 0.000000 0.000000 0.000000
# 2 -0.011696 0.020446 -0.003991 0.000000 0.000000 0.000000
# 3 -0.003991 -0.003991 0.017606 0.000000 0.000000 0.000000
# 4 0.000000 0.000000 0.000000 0.049913 0.000000 0.000000
# 5 0.000000 0.000000 0.000000 0.000000 0.049913 0.000000
# 6 0.000000 0.000000 0.000000 0.000000 0.000000 0.064284
#
#
# Mechanical properties :
#
#
# Convention : Reuss Voigt Hill
#
# Bulk Modulus (GPa) = 52.23984 54.48761 53.36373
# Shear Modulus (GPa) = 18.63271 19.45782 19.04526
#
# Velocity S-wave (km/s) = 3.11684 3.18511 3.15116
# Velocity P-wave (km/s) = 6.33954 6.47574 6.40800
#
# Compressibility (1/GPa) = 0.01914248
#
# Stress axis : x y z
#
# Youngs Moduli (GPa) = 48.90891 48.90891 56.79915
#
# Poissons Ratio (x) = 0.57202 0.22669
# Poissons Ratio (y) = 0.57202 0.22669
# Poissons Ratio (z) = 0.19520 0.19520
#
# Static dielectric constant tensor:
#      x y z
#    x 1.705370 0.000000 0.000000 
#    y 0.000000 1.705370 0.000000 
#    z 0.000000 0.000000 1.698640 
# 
# From -- ./inp_files/1265.got.cif
#   From: 2010.05.17/outbox.cif.g08.bks.cpg/sg171_1_cif.got.tgz:1265.got - 2010.05.20 11:16:09.
