data_PCOD9580740
_publ_section_title
;
Structure prediction by ZEFSAII (Michael W. Deem and Ramdas Pophale) SiO2 
 PCOD9580740
Probable space group: P 62
;
_chemical_formula_sum "Si O2"
_cell_formula_units_Z 30
_cell_length_a 10.255678
_cell_length_b 10.255678
_cell_length_c 13.344864
_cell_angle_alpha 90.000000
_cell_angle_beta 90.000000
_cell_angle_gamma 120.000000
_cell_volume 1215.551986
_symmetry_space_group_name_H-M "P 62"
_symmetry_group_IT_number 171
_symmetry_cell_setting 'hexagonal'
loop_
_space_group_symop_operation_xyz
x,y,z
x-y,x,1/3+z
-y,x-y,2/3+z
-x,-y,z
-x+y,-x,1/3+z
y,-x+y,2/3+z
loop_
_atom_site_type_symbol
_atom_site_label
_atom_site_fract_x
_atom_site_fract_y
_atom_site_fract_z
Si Si1 0.521237 0.857986 0.371440
Si Si2 0.662281 0.319507 0.209785
Si Si3 0.170644 0.067458 0.327401
Si Si4 0.248719 0.340550 0.962525
Si Si5 0.646781 0.870218 0.869199
O O1 0.397258 0.710964 0.429663
O O2 0.487747 0.818026 0.254242
O O3 0.687037 0.891741 0.396987
O O4 0.500000 0.000000 0.393106
O O5 0.797253 0.308589 0.265212
O O6 0.658148 0.472629 0.223990
O O7 0.217818 0.215937 0.263083
O O8 0.155433 0.925482 0.266040
O O9 0.000000 0.000000 0.369730
O O10 0.342972 0.273899 0.910150
O O11 0.240054 0.330937 0.084251
#
# Coordination Sequence:
#
# PCOD9580740 Si02
#       5
#     6   6   6   6   6
#     4  12  25  50  73 108 149 208 259 326 404 488
#     4  12  24  46  73 101 149 202 262 313 399 479
#     4  10  24  45  72 109 150 194 259 324 395 472
#     4  11  22  45  74 103 150 209 254 307 407 479
#     4  11  25  43  70 110 149 200 257 331 392 477
#
# _framework density 24.680146000000001
#
# number of rings (size 3 to 8) (size 9 to 14) (size 15 to 20)
#    0.000    0.800    4.000    3.000    0.000   12.800 
#    7.200    0.000    0.000    0.000    0.000    0.000 
#    0.000    0.000    0.000    0.000    0.000    0.000 
#
# Total GULP energy -167617.947343 kJ/mol
# GULP energy per Si atom -5587.264911 kJ/mol
# Density = 2.462397 g / cm^3
# Si number density = 24.680146 Si / 1000 Ang^3
#
#
#
# Elastic Constant Matrix: (Units=GPa)
#
#
# Indices 1 2 3 4 5 6 
#
# 1 104.8738 40.0978 35.1488 0.0000 0.0000 0.0000
# 2 40.0978 104.8738 35.1488 0.0000 0.0000 0.0000
# 3 35.1488 35.1488 61.4225 0.0000 0.0000 0.0000
# 4 0.0000 0.0000 0.0000 30.2029 0.0000 0.0000
# 5 0.0000 0.0000 0.0000 0.0000 30.2029 0.0000
# 6 0.0000 0.0000 0.0000 0.0000 0.0000 32.3880
#
#
#
# Elastic Compliance Matrix: (Units=1/GPa)
#
#
# Indices 1 2 3 4 5 6 
#
# 1 0.012492 -0.002945 -0.005463 0.000000 0.000000 0.000000
# 2 -0.002945 0.012492 -0.005463 0.000000 0.000000 0.000000
# 3 -0.005463 -0.005463 0.022533 0.000000 0.000000 0.000000
# 4 0.000000 0.000000 0.000000 0.033109 0.000000 0.000000
# 5 0.000000 0.000000 0.000000 0.000000 0.033109 0.000000
# 6 0.000000 0.000000 0.000000 0.000000 0.000000 0.030876
#
#
# Mechanical properties :
#
#
# Convention : Reuss Voigt Hill
#
# Bulk Modulus (GPa) = 50.57045 54.66233 52.61639
# Shear Modulus (GPa) = 27.94107 29.27707 28.60907
#
# Velocity S-wave (km/s) = 3.36836 3.44795 3.40839
# Velocity P-wave (km/s) = 5.97182 6.16827 6.07084
#
# Compressibility (1/GPa) = 0.01977439
#
# Stress axis : x y z
#
# Youngs Moduli (GPa) = 80.04835 80.04835 44.37867
#
# Poissons Ratio (x) = 0.23577 0.24245
# Poissons Ratio (y) = 0.23577 0.24245
# Poissons Ratio (z) = 0.43733 0.43733
#
# Static dielectric constant tensor:
#      x y z
#    x 1.966810 0.000000 0.000000 
#    y 0.000000 1.966810 0.000000 
#    z 0.000000 0.000000 2.031910 
# 
# From -- ./inp_files/2357.got.cif
#   From: 2010.05.17/outbox.cif.g08.bks.cpg/sg171_2_cif.got.tgz:2357.got - 2010.05.20 11:16:09.
