data_PCOD9580450
_publ_section_title
;
Structure prediction by ZEFSAII (Michael W. Deem and Ramdas Pophale) SiO2 
 PCOD9580450
Probable space group: P 62
;
_chemical_formula_sum "Si O2"
_cell_formula_units_Z 45
_cell_length_a 11.147166
_cell_length_b 11.147166
_cell_length_c 17.658135
_cell_angle_alpha 90.000000
_cell_angle_beta 90.000000
_cell_angle_gamma 120.000000
_cell_volume 1900.222261
_symmetry_space_group_name_H-M "P 62"
_symmetry_group_IT_number 171
_symmetry_cell_setting 'hexagonal'
loop_
_space_group_symop_operation_xyz
x,y,z
x-y,x,1/3+z
-y,x-y,2/3+z
-x,-y,z
-x+y,-x,1/3+z
y,-x+y,2/3+z
loop_
_atom_site_type_symbol
_atom_site_label
_atom_site_fract_x
_atom_site_fract_y
_atom_site_fract_z
Si Si1 0.001479 0.861126 0.136360
Si Si2 0.793317 0.726863 0.261775
Si Si3 0.326389 0.964470 0.376309
Si Si4 0.480874 0.740030 0.127327
Si Si5 0.500000 0.500000 0.218746
Si Si6 0.813440 0.399279 0.139875
Si Si7 0.879492 0.532586 0.308252
Si Si8 0.963457 0.238800 0.890830
O O1 0.983585 0.786127 0.058402
O O2 0.864562 0.752707 0.180305
O O3 0.139212 0.909168 0.186774
O O4 0.000000 0.000000 0.124185
O O5 0.640850 0.593075 0.265063
O O6 0.896417 0.687695 0.307154
O O7 0.769870 0.858585 0.263850
O O8 0.439722 0.078994 0.434515
O O9 0.349483 0.991744 0.287665
O O10 0.314243 0.825331 0.409835
O O11 0.481529 0.610997 0.169417
O O12 0.337427 0.731858 0.147877
O O13 0.616085 0.875064 0.157876
O O14 0.469409 0.706797 0.038698
O O15 0.847753 0.471687 0.222457
O O16 0.000000 0.500000 0.332111
#
# Coordination Sequence:
#
# PCOD9580450 Si02
#       8
#     6   6   6   6   3   6   6   6
#     4  10  21  43  66 101 133 186 236 289 360 431
#     4  10  21  40  67  96 141 178 237 297 356 430
#     4  11  23  45  68 100 141 182 229 305 367 431
#     4  11  24  40  65  99 133 187 234 291 356 435
#     4  10  18  40  62  94 136 176 234 292 352 416
#     4  11  24  44  69 101 137 182 239 297 369 431
#     4  12  22  40  70 103 130 178 241 294 351 433
#     4  10  26  43  65 101 144 184 234 291 375 449
#
# _framework density 23.681439999999998
#
# number of rings (size 3 to 8) (size 9 to 14) (size 15 to 20)
#    0.000    1.333    4.667    0.000    3.733    3.733 
#    7.200    0.000    0.000    0.000    0.000    0.000 
#    0.000    0.000    0.000    0.000    0.000    0.000 
#
# Total GULP energy -250573.218113 kJ/mol
# GULP energy per Si atom -5568.293736 kJ/mol
# Density = 2.362754 g / cm^3
# Si number density = 23.681440 Si / 1000 Ang^3
#
#
#
# Elastic Constant Matrix: (Units=GPa)
#
#
# Indices 1 2 3 4 5 6 
#
# 1 64.6720 20.6580 16.5913 0.0000 0.0000 0.0000
# 2 20.6580 64.6720 16.5913 0.0000 0.0000 0.0000
# 3 16.5913 16.5913 88.3209 0.0000 0.0000 0.0000
# 4 0.0000 0.0000 0.0000 7.0393 0.0000 0.0000
# 5 0.0000 0.0000 0.0000 0.0000 7.0393 0.0000
# 6 0.0000 0.0000 0.0000 0.0000 0.0000 22.0070
#
#
#
# Elastic Compliance Matrix: (Units=1/GPa)
#
#
# Indices 1 2 3 4 5 6 
#
# 1 0.017681 -0.005039 -0.002375 0.000000 0.000000 0.000000
# 2 -0.005039 0.017681 -0.002375 0.000000 0.000000 0.000000
# 3 -0.002375 -0.002375 0.012215 0.000000 0.000000 0.000000
# 4 0.000000 0.000000 0.000000 0.142060 0.000000 0.000000
# 5 0.000000 0.000000 0.000000 0.000000 0.142060 0.000000
# 6 0.000000 0.000000 0.000000 0.000000 0.000000 0.045440
#
#
# Mechanical properties :
#
#
# Convention : Reuss Voigt Hill
#
# Bulk Modulus (GPa) = 35.71392 36.14957 35.93175
# Shear Modulus (GPa) = 12.31382 18.13873 15.22628
#
# Velocity S-wave (km/s) = 2.28278 2.77058 2.53842
# Velocity P-wave (km/s) = 4.69700 5.05301 4.87825
#
# Compressibility (1/GPa) = 0.02800028
#
# Stress axis : x y z
#
# Youngs Moduli (GPa) = 56.55658 56.55658 81.86891
#
# Poissons Ratio (x) = 0.28497 0.19444
# Poissons Ratio (y) = 0.28497 0.19444
# Poissons Ratio (z) = 0.13432 0.13432
#
# Static dielectric constant tensor:
#      x y z
#    x 1.974300 0.000000 0.000000 
#    y 0.000000 1.974300 0.000000 
#    z 0.000000 0.000000 1.888420 
# 
# From -- ./inp_files/5064.got.cif
#   From: 2010.05.17/outbox.cif.g08.bks.cpg/sg171_3_cif.got.tgz:5064.got - 2010.05.20 11:16:09.
