data_PCOD9580009
_publ_section_title
;
Structure prediction by ZEFSAII (Michael W. Deem and Ramdas Pophale) SiO2 
 PCOD9580009
Probable space group: P 61
;
_chemical_formula_sum "Si O2"
_cell_formula_units_Z 42
_cell_length_a 8.534374
_cell_length_b 8.534374
_cell_length_c 26.119890
_cell_angle_alpha 90.000000
_cell_angle_beta 90.000000
_cell_angle_gamma 120.000000
_cell_volume 1647.575470
_symmetry_space_group_name_H-M "P 61"
_symmetry_group_IT_number 169
_symmetry_cell_setting 'hexagonal'
loop_
_space_group_symop_operation_xyz
x,y,z
x-y,x,1/6+z
-y,x-y,1/3+z
-x,-y,1/2+z
-x+y,-x,2/3+z
y,-x+y,5/6+z
loop_
_atom_site_type_symbol
_atom_site_label
_atom_site_fract_x
_atom_site_fract_y
_atom_site_fract_z
Si Si1 0.330604 0.759329 0.029050
Si Si2 0.050732 0.952668 0.500841
Si Si3 0.650954 0.759139 0.077715
Si Si4 0.276545 0.027401 0.138906
Si Si5 0.374137 0.523832 0.498526
Si Si6 0.410695 0.151070 0.802742
Si Si7 0.866922 0.436422 0.384153
O O1 0.463894 0.765564 0.074839
O O2 0.458535 0.966033 0.012631
O O3 0.128389 0.728459 0.022336
O O4 0.325398 0.606131 0.993513
O O5 0.884285 0.748234 0.506207
O O6 0.196548 0.935346 0.466247
O O7 0.955174 0.053761 0.473069
O O8 0.175693 0.090100 0.544552
O O9 0.607962 0.575742 0.049182
O O10 0.411328 0.107629 0.090855
O O11 0.196412 0.812437 0.138633
O O12 0.554720 0.593425 0.464449
O O13 0.357589 0.687674 0.519325
O O14 0.418399 0.260901 0.751584
#
# Coordination Sequence:
#
# PCOD9580009 Si02
#       7
#     6   6   6   6   6   6   6
#     4  10  22  44  61  98 134 182 225 290 348 426
#     4  11  23  45  68 104 134 191 234 301 353 438
#     4  10  24  42  72  96 140 182 239 287 366 425
#     4  10  25  40  69  97 136 179 238 289 352 429
#     4  10  24  42  67  96 138 182 227 302 349 431
#     4  10  23  44  63  99 135 182 237 287 357 429
#     4  11  23  43  68  98 135 180 230 296 359 428
#
# _framework density 25.492007000000001
#
# number of rings (size 3 to 8) (size 9 to 14) (size 15 to 20)
#    0.000    1.714    1.429    0.857   14.000    2.286 
#    2.571    0.000    0.000    0.000    0.000    0.000 
#    0.000    0.000    0.000    0.000    0.000    0.000 
#
# Total GULP energy -234534.636787 kJ/mol
# GULP energy per Si atom -5584.158019 kJ/mol
# Density = 2.543399 g / cm^3
# Si number density = 25.492007 Si / 1000 Ang^3
#
#
#
# Elastic Constant Matrix: (Units=GPa)
#
#
# Indices 1 2 3 4 5 6 
#
# 1 94.3938 -3.4178 15.8689 0.0000 0.0000 0.0000
# 2 -3.4178 94.3938 15.8689 0.0000 0.0000 0.0000
# 3 15.8689 15.8689 43.3796 0.0000 0.0000 0.0000
# 4 0.0000 0.0000 0.0000 34.4387 0.0000 0.0000
# 5 0.0000 0.0000 0.0000 0.0000 34.4387 0.0000
# 6 0.0000 0.0000 0.0000 0.0000 0.0000 48.9058
#
#
#
# Elastic Compliance Matrix: (Units=1/GPa)
#
#
# Indices 1 2 3 4 5 6 
#
# 1 0.011412 0.001188 -0.004609 0.000000 0.000000 0.000000
# 2 0.001188 0.011412 -0.004609 0.000000 0.000000 0.000000
# 3 -0.004609 -0.004609 0.026425 0.000000 0.000000 0.000000
# 4 0.000000 0.000000 0.000000 0.029037 0.000000 0.000000
# 5 0.000000 0.000000 0.000000 0.000000 0.029037 0.000000
# 6 0.000000 0.000000 0.000000 0.000000 0.000000 0.020447
#
#
# Mechanical properties :
#
#
# Convention : Reuss Voigt Hill
#
# Bulk Modulus (GPa) = 30.13188 32.08967 31.11077
# Shear Modulus (GPa) = 32.28034 37.14646 34.71340
#
# Velocity S-wave (km/s) = 3.56236 3.82145 3.69417
# Velocity P-wave (km/s) = 5.36343 5.66451 5.51602
#
# Compressibility (1/GPa) = 0.03318744
#
# Stress axis : x y z
#
# Youngs Moduli (GPa) = 87.62851 87.62851 37.84356
#
# Poissons Ratio (x) = -0.10411 0.17443
# Poissons Ratio (y) = -0.10411 0.17443
# Poissons Ratio (z) = 0.40390 0.40390
#
# Static dielectric constant tensor:
#      x y z
#    x 2.014130 0.000000 0.000000 
#    y 0.000000 2.014130 0.000000 
#    z 0.000000 0.000000 2.100290 
# 
# From -- ./inp_files/1860.got.cif
#   From: 2010.05.17/outbox.cif.g08.bks.cpg/sg169_cif.got.tgz:1860.got - 2010.05.20 11:12:54.
