data_PCOD9580929
_publ_section_title
;
Structure prediction by ZEFSAII (Michael W. Deem and Ramdas Pophale) SiO2 
 PCOD9580929
Probable space group: P 64
;
_chemical_formula_sum "Si O2"
_cell_formula_units_Z 42
_cell_length_a 16.104787
_cell_length_b 16.104787
_cell_length_c 9.110080
_cell_angle_alpha 90.000000
_cell_angle_beta 90.000000
_cell_angle_gamma 120.000000
_cell_volume 2046.269320
_symmetry_space_group_name_H-M "P 64"
_symmetry_group_IT_number 172
_symmetry_cell_setting 'hexagonal'
loop_
_space_group_symop_operation_xyz
x,y,z
x-y,x,2/3+z
-y,x-y,1/3+z
-x,-y,z
-x+y,-x,2/3+z
y,-x+y,1/3+z
loop_
_atom_site_type_symbol
_atom_site_label
_atom_site_fract_x
_atom_site_fract_y
_atom_site_fract_z
Si Si1 0.185723 0.366714 0.589340
Si Si2 0.310476 0.871425 0.004084
Si Si3 0.360444 0.583045 0.583252
Si Si4 0.777401 0.416956 0.926215
Si Si5 0.180989 0.366713 0.920127
Si Si6 0.560949 0.871426 0.505382
Si Si7 0.315068 0.315068 0.421400
O O1 0.111996 0.381610 0.488271
O O2 0.275430 0.476165 0.601081
O O3 0.164754 0.329509 0.754733
O O4 0.220335 0.306619 0.492006
O O5 0.386591 0.835948 0.025596
O O6 0.220174 0.779826 0.921400
O O7 0.346610 0.957417 0.889488
O O8 0.330957 0.665479 0.588066
O O9 0.405153 0.594846 0.421400
O O10 0.799267 0.523835 0.908388
O O11 0.835950 0.386592 0.817204
O O12 0.269613 0.381610 0.021194
O O13 0.086283 0.306618 0.017462
O O14 0.610808 0.957417 0.619977
#
# Coordination Sequence:
#
# PCOD9580929 Si02
#       7
#     6   6   6   6   6   6   6
#     4  11  23  34  54  81 103 143 190 229 291 332
#     4   9  19  33  51  77  99 141 180 217 285 322
#     4  11  17  31  53  74 102 140 189 238 270 325
#     4  11  17  31  53  74 102 140 189 238 270 325
#     4  11  23  34  54  81 103 143 190 229 291 332
#     4   9  19  33  51  77  99 141 180 217 285 322
#     4  10  20  39  54  70 112 142 179 240 274 348
#
# _framework density 20.525158000000001
#
# number of rings (size 3 to 8) (size 9 to 14) (size 15 to 20)
#    0.000    1.714    8.571    0.857    0.000    3.429 
#    0.000    0.000    0.000    3.429    0.000    0.000 
#    0.000    0.000    0.000  520.714    0.000    0.000 
#
# Total GULP energy -234309.484795 kJ/mol
# GULP energy per Si atom -5578.797257 kJ/mol
# Density = 2.047844 g / cm^3
# Si number density = 20.525158 Si / 1000 Ang^3
#
#
#
# Elastic Constant Matrix: (Units=GPa)
#
#
# Indices 1 2 3 4 5 6 
#
# 1 31.5037 18.5877 21.6709 0.0000 0.0000 0.0000
# 2 18.5877 31.5037 21.6709 0.0000 0.0000 0.0000
# 3 21.6709 21.6709 140.7959 0.0000 0.0000 0.0000
# 4 0.0000 0.0000 0.0000 30.0158 0.0000 0.0000
# 5 0.0000 0.0000 0.0000 0.0000 30.0158 0.0000
# 6 0.0000 0.0000 0.0000 0.0000 0.0000 6.4580
#
#
#
# Elastic Compliance Matrix: (Units=1/GPa)
#
#
# Indices 1 2 3 4 5 6 
#
# 1 0.050227 -0.027196 -0.003545 0.000000 0.000000 0.000000
# 2 -0.027196 0.050227 -0.003545 0.000000 0.000000 0.000000
# 3 -0.003545 -0.003545 0.008194 0.000000 0.000000 0.000000
# 4 0.000000 0.000000 0.000000 0.033316 0.000000 0.000000
# 5 0.000000 0.000000 0.000000 0.000000 0.033316 0.000000
# 6 0.000000 0.000000 0.000000 0.000000 0.000000 0.154847
#
#
# Mechanical properties :
#
#
# Convention : Reuss Voigt Hill
#
# Bulk Modulus (GPa) = 24.95271 36.40694 30.67982
# Shear Modulus (GPa) = 12.13424 22.75615 17.44519
#
# Velocity S-wave (km/s) = 2.43407 3.33332 2.91854
# Velocity P-wave (km/s) = 4.48142 5.70885 5.13196
#
# Compressibility (1/GPa) = 0.04007581
#
# Stress axis : x y z
#
# Youngs Moduli (GPa) = 19.90957 19.90957 122.04502
#
# Poissons Ratio (x) = 0.54147 0.43263
# Poissons Ratio (y) = 0.54147 0.43263
# Poissons Ratio (z) = 0.07058 0.07058
#
# Static dielectric constant tensor:
#      x y z
#    x 1.759330 0.000000 0.000000 
#    y 0.000000 1.759330 0.000000 
#    z 0.000000 0.000000 1.852510 
# 
# From -- ./inp_files/733.got.cif
#   From: 2010.05.17/outbox.cif.g08.bks.cpg/sg172_1_cif.got.tgz:733.got - 2010.05.20 11:19:57.
