data_PCOD9580562
_publ_section_title
;
Structure prediction by ZEFSAII (Michael W. Deem and Ramdas Pophale) SiO2 
 PCOD9580562
Probable space group: P 62
;
_chemical_formula_sum "Si O2"
_cell_formula_units_Z 42
_cell_length_a 15.042053
_cell_length_b 15.042053
_cell_length_c 9.907016
_cell_angle_alpha 90.000000
_cell_angle_beta 90.000000
_cell_angle_gamma 120.000000
_cell_volume 1941.277966
_symmetry_space_group_name_H-M "P 62"
_symmetry_group_IT_number 171
_symmetry_cell_setting 'hexagonal'
loop_
_space_group_symop_operation_xyz
x,y,z
x-y,x,1/3+z
-y,x-y,2/3+z
-x,-y,z
-x+y,-x,1/3+z
y,-x+y,2/3+z
loop_
_atom_site_type_symbol
_atom_site_label
_atom_site_fract_x
_atom_site_fract_y
_atom_site_fract_z
Si Si1 0.714657 0.670611 0.936300
Si Si2 0.836173 0.200781 0.008165
Si Si3 0.337327 0.162687 0.844597
Si Si4 0.974897 0.291918 0.761992
Si Si5 0.000000 0.500000 0.233242
Si Si6 0.554235 0.342878 0.186665
Si Si7 0.500000 0.500000 0.334380
Si Si8 0.214988 0.549947 0.201232
O O1 0.748863 0.620335 0.820611
O O2 0.707755 0.763140 0.868269
O O3 0.600786 0.582752 0.979692
O O4 0.790573 0.711074 0.061510
O O5 0.778223 0.079912 0.040915
O O6 0.932665 0.241428 0.907015
O O7 0.756021 0.226348 0.934387
O O8 0.335269 0.110219 0.984872
O O9 0.455381 0.235872 0.800623
O O10 0.991158 0.406228 0.755402
O O11 0.892454 0.460678 0.152940
O O12 0.544224 0.437738 0.248860
O O13 0.668653 0.357385 0.192658
O O14 0.529352 0.332532 0.028375
#
# Coordination Sequence:
#
# PCOD9580562 Si02
#       8
#     6   6   6   6   3   6   3   6
#     4  11  25  43  64  99 134 178 221 283 345 408
#     4  11  24  41  65  96 139 176 220 281 354 409
#     4  11  22  42  69  93 128 174 230 272 335 406
#     4  11  22  42  67  98 127 181 226 282 339 417
#     4  10  25  39  64  90 140 180 228 278 328 414
#     4  11  21  36  60  92 131 174 224 280 330 413
#     4  10  21  35  64  96 134 166 240 280 336 412
#     4  11  22  38  59  92 127 177 232 276 330 397
#
# _framework density 21.635231000000001
#
# number of rings (size 3 to 8) (size 9 to 14) (size 15 to 20)
#    0.000    1.143    2.857    3.000    8.000    0.571 
#    0.000    0.000    0.000    8.571    0.000    0.000 
#    0.000    0.000    0.000    0.000    0.000    0.000 
#
# Total GULP energy -234589.837731 kJ/mol
# GULP energy per Si atom -5585.472327 kJ/mol
# Density = 2.158599 g / cm^3
# Si number density = 21.635231 Si / 1000 Ang^3
#
#
#
# Elastic Constant Matrix: (Units=GPa)
#
#
# Indices 1 2 3 4 5 6 
#
# 1 88.2281 36.1513 13.5093 0.0000 0.0000 0.0000
# 2 36.1513 88.2281 13.5093 0.0000 0.0000 0.0000
# 3 13.5093 13.5093 79.4384 0.0000 0.0000 0.0000
# 4 0.0000 0.0000 0.0000 19.4168 0.0000 0.0000
# 5 0.0000 0.0000 0.0000 0.0000 19.4168 0.0000
# 6 0.0000 0.0000 0.0000 0.0000 0.0000 26.0384
#
#
#
# Elastic Compliance Matrix: (Units=1/GPa)
#
#
# Indices 1 2 3 4 5 6 
#
# 1 0.013775 -0.005427 -0.001420 0.000000 0.000000 0.000000
# 2 -0.005427 0.013775 -0.001420 0.000000 0.000000 0.000000
# 3 -0.001420 -0.001420 0.013071 0.000000 0.000000 0.000000
# 4 0.000000 0.000000 0.000000 0.051502 0.000000 0.000000
# 5 0.000000 0.000000 0.000000 0.000000 0.051502 0.000000
# 6 0.000000 0.000000 0.000000 0.000000 0.000000 0.038405
#
#
# Mechanical properties :
#
#
# Convention : Reuss Voigt Hill
#
# Bulk Modulus (GPa) = 41.51268 42.47047 41.99157
# Shear Modulus (GPa) = 24.20215 25.82269 25.01242
#
# Velocity S-wave (km/s) = 3.34824 3.45852 3.40383
# Velocity P-wave (km/s) = 5.84610 5.96836 5.90755
#
# Compressibility (1/GPa) = 0.02408903
#
# Stress axis : x y z
#
# Youngs Moduli (GPa) = 72.59331 72.59331 76.50381
#
# Poissons Ratio (x) = 0.39397 0.10861
# Poissons Ratio (y) = 0.39397 0.10861
# Poissons Ratio (z) = 0.10306 0.10306
#
# Static dielectric constant tensor:
#      x y z
#    x 1.830480 0.000000 0.000000 
#    y 0.000000 1.830480 0.000000 
#    z 0.000000 0.000000 1.763120 
# 
# From -- ./inp_files/1690.got.cif
#   From: 2010.05.17/outbox.cif.g08.bks.cpg/sg171_1_cif.got.tgz:1690.got - 2010.05.20 11:16:09.
