data_PCOD9580369
_publ_section_title
;
Structure prediction by ZEFSAII (Michael W. Deem and Ramdas Pophale) SiO2 
 PCOD9580369
Probable space group: P 65
;
_chemical_formula_sum "Si O2"
_cell_formula_units_Z 42
_cell_length_a 13.927635
_cell_length_b 13.927635
_cell_length_c 12.395336
_cell_angle_alpha 90.000000
_cell_angle_beta 90.000000
_cell_angle_gamma 120.000000
_cell_volume 2082.301869
_symmetry_space_group_name_H-M "P 65"
_symmetry_group_IT_number 170
_symmetry_cell_setting 'hexagonal'
loop_
_space_group_symop_operation_xyz
x,y,z
x-y,x,5/6+z
-y,x-y,2/3+z
-x,-y,1/2+z
-x+y,-x,1/3+z
y,-x+y,1/6+z
loop_
_atom_site_type_symbol
_atom_site_label
_atom_site_fract_x
_atom_site_fract_y
_atom_site_fract_z
Si Si1 0.263683 0.757979 0.571830
Si Si2 0.281747 0.749901 0.826914
Si Si3 0.030986 0.368221 0.619393
Si Si4 0.904815 0.440175 0.469289
Si Si5 0.188740 0.058202 0.062079
Si Si6 0.066373 0.571716 0.291904
Si Si7 0.213095 0.821810 0.367560
O O1 0.246900 0.739243 0.700790
O O2 0.249492 0.646919 0.514675
O O3 0.389391 0.859231 0.567779
O O4 0.196549 0.799489 0.496671
O O5 0.192105 0.644445 0.892565
O O6 0.288466 0.858328 0.882323
O O7 0.930548 0.369729 0.555383
O O8 0.995753 0.247048 0.663128
O O9 0.037523 0.440567 0.723901
O O10 0.874896 0.531419 0.510607
O O11 0.017387 0.505807 0.401271
O O12 0.275662 0.160114 0.137810
O O13 0.102701 0.966194 0.142205
O O14 0.146970 0.700232 0.315066
#
# Coordination Sequence:
#
# PCOD9580369 Si02
#       7
#     6   6   6   6   6   6   6
#     4  12  21  38  59  95 139 177 217 263 335 416
#     4  12  24  38  61  96 138 185 228 274 340 409
#     4  11  23  41  65  99 134 176 232 279 344 413
#     4  12  22  37  62  93 139 181 219 275 335 408
#     4  11  26  51  77  98 127 177 239 295 351 401
#     4  11  22  37  58  94 133 177 218 266 330 407
#     4  11  22  40  66  97 134 175 223 272 337 414
#
# _framework density 20.169986999999999
#
# number of rings (size 3 to 8) (size 9 to 14) (size 15 to 20)
#    0.000    0.571    5.714    3.429    0.000    1.143 
#    2.571    1.429    0.000    0.000    0.000    0.000 
#    0.000    0.000    0.000    0.000    0.000    0.000 
#
# Total GULP energy -234467.768703 kJ/mol
# GULP energy per Si atom -5582.565921 kJ/mol
# Density = 2.012408 g / cm^3
# Si number density = 20.169987 Si / 1000 Ang^3
#
#
#
# Elastic Constant Matrix: (Units=GPa)
#
#
# Indices 1 2 3 4 5 6 
#
# 1 78.1497 45.8369 52.4285 0.0000 0.0000 0.0000
# 2 45.8369 78.1497 52.4285 0.0000 0.0000 0.0000
# 3 52.4285 52.4285 134.3785 0.0000 0.0000 0.0000
# 4 0.0000 0.0000 0.0000 36.4533 0.0000 0.0000
# 5 0.0000 0.0000 0.0000 0.0000 36.4533 0.0000
# 6 0.0000 0.0000 0.0000 0.0000 0.0000 16.1564
#
#
#
# Elastic Compliance Matrix: (Units=1/GPa)
#
#
# Indices 1 2 3 4 5 6 
#
# 1 0.021492 -0.009455 -0.004696 0.000000 0.000000 0.000000
# 2 -0.009455 0.021492 -0.004696 0.000000 0.000000 0.000000
# 3 -0.004696 -0.004696 0.011106 0.000000 0.000000 0.000000
# 4 0.000000 0.000000 0.000000 0.027432 0.000000 0.000000
# 5 0.000000 0.000000 0.000000 0.000000 0.027432 0.000000
# 6 0.000000 0.000000 0.000000 0.000000 0.000000 0.061895
#
#
# Mechanical properties :
#
#
# Convention : Reuss Voigt Hill
#
# Bulk Modulus (GPa) = 60.99360 65.78506 63.38933
# Shear Modulus (GPa) = 23.36323 27.14488 25.25406
#
# Velocity S-wave (km/s) = 3.40710 3.67250 3.54229
# Velocity P-wave (km/s) = 6.76633 7.11823 6.94451
#
# Compressibility (1/GPa) = 0.01639516
#
# Stress axis : x y z
#
# Youngs Moduli (GPa) = 46.52823 46.52823 90.03915
#
# Poissons Ratio (x) = 0.43993 0.42286
# Poissons Ratio (y) = 0.43993 0.42286
# Poissons Ratio (z) = 0.21851 0.21851
#
# Static dielectric constant tensor:
#      x y z
#    x 1.711250 0.000000 0.000000 
#    y 0.000000 1.711250 0.000000 
#    z 0.000000 0.000000 1.798550 
# 
# From -- ./inp_files/971.got.cif
#   From: 2010.05.17/outbox.cif.g08.bks.cpg/sg170_cif.got.tgz:971.got - 2010.05.20 11:14:30.
