data_PCOD9580838
_publ_section_title
;
Structure prediction by ZEFSAII (Michael W. Deem and Ramdas Pophale) SiO2 
 PCOD9580838
Probable space group: P 62
;
_chemical_formula_sum "Si O2"
_cell_formula_units_Z 24
_cell_length_a 9.003231
_cell_length_b 9.003231
_cell_length_c 14.284425
_cell_angle_alpha 90.000000
_cell_angle_beta 90.000000
_cell_angle_gamma 120.000000
_cell_volume 1002.744252
_symmetry_space_group_name_H-M "P 62"
_symmetry_group_IT_number 171
_symmetry_cell_setting 'hexagonal'
loop_
_space_group_symop_operation_xyz
x,y,z
x-y,x,1/3+z
-y,x-y,2/3+z
-x,-y,z
-x+y,-x,1/3+z
y,-x+y,2/3+z
loop_
_atom_site_type_symbol
_atom_site_label
_atom_site_fract_x
_atom_site_fract_y
_atom_site_fract_z
Si Si1 0.493422 0.159630 0.391850
Si Si2 0.333793 0.840373 0.749084
Si Si3 0.748553 0.748550 0.903801
Si Si4 0.269153 0.134579 0.237134
O O1 0.683704 0.316299 0.403799
O O2 0.389486 0.220085 0.326056
O O3 0.500000 0.000000 0.344778
O O4 0.388610 0.080463 0.487516
O O5 0.308150 0.919546 0.653420
O O6 0.169404 0.779918 0.814878
O O7 0.500000 0.000000 0.796158
O O8 0.937295 0.787508 0.933251
O O9 0.787504 0.937291 0.874349
#
# Coordination Sequence:
#
# PCOD9580838 Si02
#       4
#     6   6   6   6
#     4  12  28  45  77 113 159 214 277 351 421 513
#     4  12  28  45  77 113 159 214 277 351 421 513
#     4  11  25  50  74 110 159 211 276 338 430 494
#     4  11  26  46  75 110 154 214 267 346 416 509
#
# _framework density 23.934317
#
# number of rings (size 3 to 8) (size 9 to 14) (size 15 to 20)
#    0.000    0.500    0.000    6.750   14.000    6.000 
#    0.000    0.000    0.000    0.000    0.000    0.000 
#    0.000    0.000    0.000    0.000    0.000    0.000 
#
# Total GULP energy -134377.067733 kJ/mol
# GULP energy per Si atom -5599.044489 kJ/mol
# Density = 2.387984 g / cm^3
# Si number density = 23.934317 Si / 1000 Ang^3
#
#
#
# Elastic Constant Matrix: (Units=GPa)
#
#
# Indices 1 2 3 4 5 6 
#
# 1 146.3242 61.3557 40.7774 0.0000 0.0000 0.0000
# 2 61.3557 146.3242 40.7774 0.0000 0.0000 0.0000
# 3 40.7774 40.7774 121.3165 0.0000 0.0000 0.0000
# 4 0.0000 0.0000 0.0000 40.9186 0.0000 0.0000
# 5 0.0000 0.0000 0.0000 0.0000 40.9186 0.0000
# 6 0.0000 0.0000 0.0000 0.0000 0.0000 42.4842
#
#
#
# Elastic Compliance Matrix: (Units=1/GPa)
#
#
# Indices 1 2 3 4 5 6 
#
# 1 0.008658 -0.003111 -0.001865 0.000000 0.000000 0.000000
# 2 -0.003111 0.008658 -0.001865 0.000000 0.000000 0.000000
# 3 -0.001865 -0.001865 0.009496 0.000000 0.000000 0.000000
# 4 0.000000 0.000000 0.000000 0.024439 0.000000 0.000000
# 5 0.000000 0.000000 0.000000 0.000000 0.024439 0.000000
# 6 0.000000 0.000000 0.000000 0.000000 0.000000 0.023538
#
#
# Mechanical properties :
#
#
# Convention : Reuss Voigt Hill
#
# Bulk Modulus (GPa) = 76.14611 77.75402 76.95007
# Shear Modulus (GPa) = 42.63080 42.93457 42.78268
#
# Velocity S-wave (km/s) = 4.22496 4.23998 4.23247
# Velocity P-wave (km/s) = 7.46217 7.51843 7.49036
#
# Compressibility (1/GPa) = 0.01313265
#
# Stress axis : x y z
#
# Youngs Moduli (GPa) = 115.49754 115.49754 105.30345
#
# Poissons Ratio (x) = 0.35930 0.19635
# Poissons Ratio (y) = 0.35930 0.19635
# Poissons Ratio (z) = 0.21536 0.21536
#
# Static dielectric constant tensor:
#      x y z
#    x 1.955820 0.000000 0.000000 
#    y 0.000000 1.955820 0.000000 
#    z 0.000000 0.000000 1.915910 
# 
# From -- ./inp_files/2725.got.cif
#   From: 2010.05.17/outbox.cif.g08.bks.cpg/sg171_2_cif.got.tgz:2725.got - 2010.05.20 11:16:09.
