data_PCOD9580901
_publ_section_title
;
Structure prediction by ZEFSAII (Michael W. Deem and Ramdas Pophale) SiO2 
 PCOD9580901
Probable space group: P 64
;
_chemical_formula_sum "Si O2"
_cell_formula_units_Z 48
_cell_length_a 24.209589
_cell_length_b 24.209589
_cell_length_c 5.377778
_cell_angle_alpha 90.000000
_cell_angle_beta 90.000000
_cell_angle_gamma 120.000000
_cell_volume 2729.658613
_symmetry_space_group_name_H-M "P 64"
_symmetry_group_IT_number 172
_symmetry_cell_setting 'hexagonal'
loop_
_space_group_symop_operation_xyz
x,y,z
x-y,x,2/3+z
-y,x-y,1/3+z
-x,-y,z
-x+y,-x,2/3+z
y,-x+y,1/3+z
loop_
_atom_site_type_symbol
_atom_site_label
_atom_site_fract_x
_atom_site_fract_y
_atom_site_fract_z
Si Si1 0.938245 0.600010 0.836250
Si Si2 0.191860 0.317276 0.234390
Si Si3 0.395250 0.930277 0.002846
Si Si4 0.792896 0.989110 0.892645
Si Si5 0.400227 0.485256 0.663511
Si Si6 0.301265 0.222266 0.867616
Si Si7 0.117191 0.900303 0.541929
Si Si8 0.091592 0.665042 0.833807
O O1 0.912934 0.551673 0.602977
O O2 0.926072 0.656277 0.747862
O O3 0.014583 0.630680 0.838413
O O4 0.913645 0.565971 0.101820
O O5 0.193590 0.258847 0.376288
O O6 0.146005 0.334400 0.392658
O O7 0.260194 0.376793 0.181840
O O8 0.155382 0.284033 0.982565
O O9 0.443482 0.903314 0.982759
O O10 0.439502 0.007655 0.998783
O O11 0.854994 0.044253 0.748952
O O12 0.814131 0.952499 0.089143
O O13 0.752726 0.021257 0.004630
O O14 0.358238 0.468495 0.416069
O O15 0.359069 0.467860 0.915511
O O16 0.236652 0.166032 0.983967
#
# Coordination Sequence:
#
# PCOD9580901 Si02
#       8
#     6   6   6   6   6   6   6   6
#     4  10  19  29  49  69  96 139 177 214 256 301
#     4  10  22  33  50  72 106 136 180 222 270 330
#     4   9  18  30  45  68  97 130 177 215 237 281
#     4  10  20  34  50  72 103 135 170 228 274 342
#     4   9  18  30  45  68  97 130 177 215 237 281
#     4  10  22  33  50  72 106 136 180 222 270 330
#     4  10  20  34  50  72 104 131 176 218 278 340
#     4  10  19  29  49  69  96 139 177 214 256 301
#
# _framework density 17.584616
#
# number of rings (size 3 to 8) (size 9 to 14) (size 15 to 20)
#    0.000    2.250    0.000    3.000   12.250    3.000 
#    0.000    0.000    0.000    0.000    0.000    0.000 
#    0.000  590.000    0.000    4.500    6.750    0.000 
#
# Total GULP energy -267458.410666 kJ/mol
# GULP energy per Si atom -5572.050222 kJ/mol
# Density = 1.754459 g / cm^3
# Si number density = 17.584616 Si / 1000 Ang^3
#
#
#
# Elastic Constant Matrix: (Units=GPa)
#
#
# Indices 1 2 3 4 5 6 
#
# 1 60.3626 14.0760 20.8259 0.0000 0.0000 0.0000
# 2 14.0760 60.3626 20.8259 0.0000 0.0000 0.0000
# 3 20.8259 20.8259 83.8538 0.0000 0.0000 0.0000
# 4 0.0000 0.0000 0.0000 27.0388 0.0000 0.0000
# 5 0.0000 0.0000 0.0000 0.0000 27.0388 0.0000
# 6 0.0000 0.0000 0.0000 0.0000 0.0000 23.1433
#
#
#
# Elastic Compliance Matrix: (Units=1/GPa)
#
#
# Indices 1 2 3 4 5 6 
#
# 1 0.018603 -0.003001 -0.003875 0.000000 0.000000 0.000000
# 2 -0.003001 0.018603 -0.003875 0.000000 0.000000 0.000000
# 3 -0.003875 -0.003875 0.013850 0.000000 0.000000 0.000000
# 4 0.000000 0.000000 0.000000 0.036984 0.000000 0.000000
# 5 0.000000 0.000000 0.000000 0.000000 0.036984 0.000000
# 6 0.000000 0.000000 0.000000 0.000000 0.000000 0.043209
#
#
# Mechanical properties :
#
#
# Convention : Reuss Voigt Hill
#
# Bulk Modulus (GPa) = 33.83554 35.11496 34.47525
# Shear Modulus (GPa) = 25.05166 25.36758 25.20962
#
# Velocity S-wave (km/s) = 3.77853 3.80228 3.79042
# Velocity P-wave (km/s) = 6.19029 6.26809 6.22931
#
# Compressibility (1/GPa) = 0.02955473
#
# Stress axis : x y z
#
# Youngs Moduli (GPa) = 53.75388 53.75388 72.20071
#
# Poissons Ratio (x) = 0.16133 0.27977
# Poissons Ratio (y) = 0.16133 0.27977
# Poissons Ratio (z) = 0.20829 0.20829
#
# Static dielectric constant tensor:
#      x y z
#    x 1.601730 0.000000 0.000000 
#    y 0.000000 1.601730 0.000000 
#    z 0.000000 0.000000 1.653280 
# 
# From -- ./inp_files/391.got.cif
#   From: 2010.05.17/outbox.cif.g08.bks.cpg/sg172_1_cif.got.tgz:391.got - 2010.05.20 11:19:57.
