data_PCOD9580723
_publ_section_title
;
Structure prediction by ZEFSAII (Michael W. Deem and Ramdas Pophale) SiO2 
 PCOD9580723
Probable space group: P 62
;
_chemical_formula_sum "Si O2"
_cell_formula_units_Z 30
_cell_length_a 15.846214
_cell_length_b 15.846214
_cell_length_c 6.814944
_cell_angle_alpha 90.000000
_cell_angle_beta 90.000000
_cell_angle_gamma 120.000000
_cell_volume 1481.985507
_symmetry_space_group_name_H-M "P 62"
_symmetry_group_IT_number 171
_symmetry_cell_setting 'hexagonal'
loop_
_space_group_symop_operation_xyz
x,y,z
x-y,x,1/3+z
-y,x-y,2/3+z
-x,-y,z
-x+y,-x,1/3+z
y,-x+y,2/3+z
loop_
_atom_site_type_symbol
_atom_site_label
_atom_site_fract_x
_atom_site_fract_y
_atom_site_fract_z
Si Si1 0.834482 0.208892 0.355060
Si Si2 0.643325 0.592837 0.333595
Si Si3 0.330341 0.599562 0.901817
Si Si4 0.999179 0.656116 0.093571
Si Si5 0.504389 0.606404 0.101913
O O1 0.881997 0.252439 0.568165
O O2 0.780894 0.267087 0.279336
O O3 0.756380 0.096535 0.367367
O O4 0.924582 0.246784 0.206867
O O5 0.641412 0.593414 0.566355
O O6 0.592513 0.655133 0.258139
O O7 0.575088 0.488063 0.227450
O O8 0.278930 0.651655 0.009757
O O9 0.436365 0.642313 0.004132
O O10 0.963741 0.566269 0.247203
#
# Coordination Sequence:
#
# PCOD9580723 Si02
#       5
#     6   6   6   6   6
#     4  10  24  42  61  95 123 166 225 275 325 410
#     4   9  21  37  64  86 121 165 213 270 324 379
#     4  11  23  36  54  85 130 176 223 262 301 368
#     4  11  22  43  66  88 130 168 224 273 343 385
#     4   9  20  37  55  88 123 170 221 264 302 387
#
# _framework density 20.243112
#
# number of rings (size 3 to 8) (size 9 to 14) (size 15 to 20)
#    0.000    2.000    2.000    1.200    2.800   16.000 
#    0.000    0.000    0.000    0.000    0.000    7.000 
#    0.000    0.000    0.000    0.000    0.000    0.000 
#
# Total GULP energy -167109.882111 kJ/mol
# GULP energy per Si atom -5570.329404 kJ/mol
# Density = 2.019704 g / cm^3
# Si number density = 20.243112 Si / 1000 Ang^3
#
#
#
# Elastic Constant Matrix: (Units=GPa)
#
#
# Indices 1 2 3 4 5 6 
#
# 1 79.5907 27.8395 28.6725 0.0000 0.0000 0.0000
# 2 27.8395 79.5907 28.6725 0.0000 0.0000 0.0000
# 3 28.6725 28.6725 134.8302 0.0000 0.0000 0.0000
# 4 0.0000 0.0000 0.0000 18.5279 0.0000 0.0000
# 5 0.0000 0.0000 0.0000 0.0000 18.5279 0.0000
# 6 0.0000 0.0000 0.0000 0.0000 0.0000 25.8756
#
#
#
# Elastic Compliance Matrix: (Units=1/GPa)
#
#
# Indices 1 2 3 4 5 6 
#
# 1 0.014912 -0.004411 -0.002233 0.000000 0.000000 0.000000
# 2 -0.004411 0.014912 -0.002233 0.000000 0.000000 0.000000
# 3 -0.002233 -0.002233 0.008366 0.000000 0.000000 0.000000
# 4 0.000000 0.000000 0.000000 0.053973 0.000000 0.000000
# 5 0.000000 0.000000 0.000000 0.000000 0.053973 0.000000
# 6 0.000000 0.000000 0.000000 0.000000 0.000000 0.038646
#
#
# Mechanical properties :
#
#
# Convention : Reuss Voigt Hill
#
# Bulk Modulus (GPa) = 48.93518 51.59787 50.26653
# Shear Modulus (GPa) = 23.88368 26.50810 25.19589
#
# Velocity S-wave (km/s) = 3.43861 3.62261 3.53181
# Velocity P-wave (km/s) = 6.32389 6.56065 6.44336
#
# Compressibility (1/GPa) = 0.02043520
#
# Stress axis : x y z
#
# Youngs Moduli (GPa) = 67.06119 67.06119 119.52513
#
# Poissons Ratio (x) = 0.29584 0.26689
# Poissons Ratio (y) = 0.29584 0.26689
# Poissons Ratio (z) = 0.14974 0.14974
#
# Static dielectric constant tensor:
#      x y z
#    x 1.794610 0.000000 0.000000 
#    y 0.000000 1.794610 0.000000 
#    z 0.000000 0.000000 1.735620 
# 
# From -- ./inp_files/4157.got.cif
#   From: 2010.05.17/outbox.cif.g08.bks.cpg/sg171_3_cif.got.tgz:4157.got - 2010.05.20 11:16:09.
