data_PCOD9580268
_publ_section_title
;
Structure prediction by ZEFSAII (Michael W. Deem and Ramdas Pophale) SiO2 
 PCOD9580268
Probable space group: P 65
;
_chemical_formula_sum "Si O2"
_cell_formula_units_Z 48
_cell_length_a 17.166267
_cell_length_b 17.166267
_cell_length_c 7.529877
_cell_angle_alpha 90.000000
_cell_angle_beta 90.000000
_cell_angle_gamma 120.000000
_cell_volume 1921.632079
_symmetry_space_group_name_H-M "P 65"
_symmetry_group_IT_number 170
_symmetry_cell_setting 'hexagonal'
loop_
_space_group_symop_operation_xyz
x,y,z
x-y,x,5/6+z
-y,x-y,2/3+z
-x,-y,1/2+z
-x+y,-x,1/3+z
y,-x+y,1/6+z
loop_
_atom_site_type_symbol
_atom_site_label
_atom_site_fract_x
_atom_site_fract_y
_atom_site_fract_z
Si Si1 0.667885 0.981945 0.014670
Si Si2 0.342521 0.321965 0.927969
Si Si3 0.169058 0.644609 0.669864
Si Si4 0.792629 0.508703 0.313545
Si Si5 0.161245 0.005042 0.019494
Si Si6 0.292643 0.838011 0.554234
Si Si7 0.388248 0.516406 0.911459
Si Si8 0.061191 0.881933 0.681052
O O1 0.719721 0.078678 0.110650
O O2 0.723933 0.930575 0.018397
O O3 0.669284 0.007046 0.807676
O O4 0.565730 0.917652 0.074802
O O5 0.240797 0.260345 0.865830
O O6 0.384082 0.423674 0.865112
O O7 0.405545 0.279933 0.883918
O O8 0.191697 0.574385 0.764747
O O9 0.250052 0.748611 0.673277
O O10 0.149615 0.623052 0.457806
O O11 0.805662 0.543000 0.519008
O O12 0.688551 0.479233 0.293805
O O13 0.097259 0.936252 0.167981
O O14 0.113458 0.944318 0.847746
O O15 0.399104 0.882251 0.537834
O O16 0.955090 0.845896 0.695648
#
# Coordination Sequence:
#
# PCOD9580268 Si02
#       8
#     6   6   6   6   6   6   6   6
#     4  10  21  43  66  91 123 171 215 261 316 385
#     4  10  21  43  66  91 123 171 215 261 316 385
#     4  10  22  39  63  94 128 164 215 262 325 376
#     4  10  22  39  63  94 128 164 215 262 325 376
#     4  10  22  43  61  91 128 159 207 262 316 379
#     4  10  22  39  64  93 128 165 217 265 313 390
#     4  10  22  39  64  93 128 165 217 265 313 390
#     4  10  22  43  61  91 128 159 207 262 316 379
#
# _framework density 24.978769
#
# number of rings (size 3 to 8) (size 9 to 14) (size 15 to 20)
#    0.000    2.000    0.000    2.250    3.500    3.000 
#   27.000    0.000    0.000    0.000    0.000    0.000 
#    0.000    0.000    0.000    0.000    0.000    0.000 
#
# Total GULP energy -268415.540892 kJ/mol
# GULP energy per Si atom -5591.990435 kJ/mol
# Density = 2.492192 g / cm^3
# Si number density = 24.978769 Si / 1000 Ang^3
#
#
#
# Elastic Constant Matrix: (Units=GPa)
#
#
# Indices 1 2 3 4 5 6 
#
# 1 67.1095 -13.5887 -14.3758 0.0000 0.0000 0.0000
# 2 -13.5887 67.1095 -14.3758 0.0000 0.0000 0.0000
# 3 -14.3758 -14.3758 64.7150 0.0000 0.0000 0.0000
# 4 0.0000 0.0000 0.0000 -29.9359 0.0000 0.0000
# 5 0.0000 0.0000 0.0000 0.0000 -29.9359 0.0000
# 6 0.0000 0.0000 0.0000 0.0000 0.0000 40.3491
#
#
#
# Elastic Compliance Matrix: (Units=1/GPa)
#
#
# Indices 1 2 3 4 5 6 
#
# 1 0.016804 0.004412 0.004713 0.000000 0.000000 0.000000
# 2 0.004412 0.016804 0.004713 0.000000 0.000000 0.000000
# 3 0.004713 0.004713 0.017546 0.000000 0.000000 0.000000
# 4 0.000000 0.000000 0.000000 -0.033405 0.000000 0.000000
# 5 0.000000 0.000000 0.000000 0.000000 -0.033405 0.000000
# 6 0.000000 0.000000 0.000000 0.000000 0.000000 0.024784
#
#
# Mechanical properties :
#
#
# Convention : Reuss Voigt Hill
#
# Bulk Modulus (GPa) = 12.68546 12.69482 12.69014
# Shear Modulus (GPa) = 646.90272 12.18042 329.54157
#
# Velocity S-wave (km/s) = 16.11035 2.21063 11.49848
# Velocity P-wave (km/s) = 18.73892 3.40722 13.46767
#
# Compressibility (1/GPa) = 0.07883041
#
# Stress axis : x y z
#
# Youngs Moduli (GPa) = 59.50965 59.50965 56.99221
#
# Poissons Ratio (x) = -0.26257 -0.26860
# Poissons Ratio (y) = -0.26257 -0.26860
# Poissons Ratio (z) = -0.28047 -0.28047
#
# Static dielectric constant tensor:
#      x y z
#    x 1.948010 0.000000 0.000000 
#    y 0.000000 1.948010 0.000000 
#    z 0.000000 0.000000 2.127520 
# 
# From -- ./inp_files/742.got.cif
#   From: 2010.05.17/outbox.cif.g08.bks.cpg/sg170_cif.got.tgz:742.got - 2010.05.20 11:14:30.
