data_PCOD9580449
_publ_section_title
;
Structure prediction by ZEFSAII (Michael W. Deem and Ramdas Pophale) SiO2 
 PCOD9580449
Probable space group: P 62
;
_chemical_formula_sum "Si O2"
_cell_formula_units_Z 45
_cell_length_a 16.604192
_cell_length_b 16.604192
_cell_length_c 9.137090
_cell_angle_alpha 90.000000
_cell_angle_beta 90.000000
_cell_angle_gamma 120.000000
_cell_volume 2181.594488
_symmetry_space_group_name_H-M "P 62"
_symmetry_group_IT_number 171
_symmetry_cell_setting 'hexagonal'
loop_
_space_group_symop_operation_xyz
x,y,z
x-y,x,1/3+z
-y,x-y,2/3+z
-x,-y,z
-x+y,-x,1/3+z
y,-x+y,2/3+z
loop_
_atom_site_type_symbol
_atom_site_label
_atom_site_fract_x
_atom_site_fract_y
_atom_site_fract_z
Si Si1 0.758617 0.962175 0.236470
Si Si2 0.640957 0.282019 0.272373
Si Si3 0.000000 0.500000 0.199594
Si Si4 0.431342 0.203031 0.640230
Si Si5 0.643033 0.645527 0.049757
Si Si6 0.242022 0.219905 0.261813
Si Si7 0.127558 0.685209 0.013104
Si Si8 0.733126 0.816597 0.829103
O O1 0.766443 0.872694 0.196916
O O2 0.650094 0.931357 0.254298
O O3 0.814349 0.008540 0.383943
O O4 0.794256 0.030149 0.100626
O O5 0.654878 0.333814 0.435097
O O6 0.707267 0.238995 0.302268
O O7 0.531666 0.207672 0.266694
O O8 0.953264 0.542351 0.308622
O O9 0.934226 0.412903 0.097193
O O10 0.409022 0.172663 0.472101
O O11 0.358822 0.219214 0.729192
O O12 0.422824 0.109175 0.712030
O O13 0.661376 0.691384 0.208565
O O14 0.706590 0.736824 0.950091
O O15 0.158915 0.239040 0.213906
#
# Coordination Sequence:
#
# PCOD9580449 Si02
#       8
#     6   6   3   6   6   6   6   6
#     4  12  24  43  68  94 135 174 229 290 345 428
#     4  10  22  39  61  94 132 171 220 272 341 417
#     4  10  18  38  70  96 126 178 232 268 342 432
#     4   9  19  37  64  89 125 170 220 265 336 413
#     4  10  20  40  64  98 126 171 227 271 337 417
#     4  11  26  42  65 101 131 176 231 285 353 418
#     4  10  21  39  62  99 126 173 224 273 345 413
#     4  11  21  42  70  87 129 179 217 279 352 404
#
# _framework density 20.627115
#
# number of rings (size 3 to 8) (size 9 to 14) (size 15 to 20)
#    0.000    1.600    4.000    1.600    1.867    2.133 
#    7.200    2.667    0.000    0.000    0.000    0.000 
#    0.000    0.000    0.000    0.000    0.000    0.000 
#
# Total GULP energy -250576.222412 kJ/mol
# GULP energy per Si atom -5568.360498 kJ/mol
# Density = 2.058017 g / cm^3
# Si number density = 20.627115 Si / 1000 Ang^3
#
#
#
# Elastic Constant Matrix: (Units=GPa)
#
#
# Indices 1 2 3 4 5 6 
#
# 1 72.4145 20.1280 18.2952 0.0000 0.0000 0.0000
# 2 20.1280 72.4145 18.2952 0.0000 0.0000 0.0000
# 3 18.2952 18.2952 74.3208 0.0000 0.0000 0.0000
# 4 0.0000 0.0000 0.0000 23.7350 0.0000 0.0000
# 5 0.0000 0.0000 0.0000 0.0000 23.7350 0.0000
# 6 0.0000 0.0000 0.0000 0.0000 0.0000 26.1432
#
#
#
# Elastic Compliance Matrix: (Units=1/GPa)
#
#
# Indices 1 2 3 4 5 6 
#
# 1 0.015548 -0.003577 -0.002947 0.000000 0.000000 0.000000
# 2 -0.003577 0.015548 -0.002947 0.000000 0.000000 0.000000
# 3 -0.002947 -0.002947 0.014906 0.000000 0.000000 0.000000
# 4 0.000000 0.000000 0.000000 0.042132 0.000000 0.000000
# 5 0.000000 0.000000 0.000000 0.000000 0.042132 0.000000
# 6 0.000000 0.000000 0.000000 0.000000 0.000000 0.038251
#
#
# Mechanical properties :
#
#
# Convention : Reuss Voigt Hill
#
# Bulk Modulus (GPa) = 36.95405 36.95406 36.95405
# Shear Modulus (GPa) = 25.44801 25.55140 25.49971
#
# Velocity S-wave (km/s) = 3.51624 3.52338 3.51981
# Velocity P-wave (km/s) = 5.86851 5.87422 5.87136
#
# Compressibility (1/GPa) = 0.02706063
#
# Stress axis : x y z
#
# Youngs Moduli (GPa) = 64.31614 64.31614 67.08708
#
# Poissons Ratio (x) = 0.23007 0.19769
# Poissons Ratio (y) = 0.23007 0.19769
# Poissons Ratio (z) = 0.18953 0.18953
#
# Static dielectric constant tensor:
#      x y z
#    x 1.738750 0.000000 0.000000 
#    y 0.000000 1.738750 0.000000 
#    z 0.000000 0.000000 1.803530 
# 
# From -- ./inp_files/4448.got.cif
#   From: 2010.05.17/outbox.cif.g08.bks.cpg/sg171_3_cif.got.tgz:4448.got - 2010.05.20 11:16:09.
