data_PCOD9580891
_publ_section_title
;
Structure prediction by ZEFSAII (Michael W. Deem and Ramdas Pophale) SiO2 
 PCOD9580891
Probable space group: P 62
;
_chemical_formula_sum "Si O2"
_cell_formula_units_Z 42
_cell_length_a 15.000000
_cell_length_b 15.000000
_cell_length_c 11.000000
_cell_angle_alpha 90.000000
_cell_angle_beta 90.000000
_cell_angle_gamma 120.000000
_cell_volume 2143.412874
_symmetry_space_group_name_H-M "P 62"
_symmetry_group_IT_number 171
_symmetry_cell_setting 'hexagonal'
loop_
_space_group_symop_operation_xyz
x,y,z
x-y,x,1/3+z
-y,x-y,2/3+z
-x,-y,z
-x+y,-x,1/3+z
y,-x+y,2/3+z
loop_
_atom_site_type_symbol
_atom_site_label
_atom_site_fract_x
_atom_site_fract_y
_atom_site_fract_z
Si Si1 0.085405 0.622472 0.534340
Si Si2 0.308887 0.244930 0.580715
Si Si3 0.711376 0.236580 0.139734
Si Si4 0.738620 0.714022 0.001522
Si Si5 0.953707 0.377985 0.111572
Si Si6 0.863249 0.210417 0.746328
Si Si7 0.315396 0.758294 0.869134
O O1 0.055454 0.689293 0.445732
O O2 0.109384 0.694070 0.654047
O O3 0.182574 0.613769 0.480548
O O4 0.000000 0.500000 0.546960
O O5 0.423414 0.279294 0.532495
O O6 0.270274 0.124819 0.630393
O O7 0.329337 0.334399 0.677374
O O8 0.239607 0.267825 0.482923
O O9 0.829908 0.325837 0.119423
O O10 0.637523 0.272950 0.201867
O O11 0.663553 0.202731 0.006841
O O12 0.658162 0.646653 0.897060
O O13 0.720428 0.811859 0.027761
O O14 0.000000 0.500000 0.098648
O O15 0.769251 0.213012 0.820257
#
# Coordination Sequence:
#
# PCOD9580891 Si02
#       7
#     6   6   6   6   6   6   6
#     4  12  25  44  70 105 147 187 235 291 367 435
#     4  11  26  46  72  99 141 187 247 298 354 426
#     4  11  25  41  66 104 144 185 229 284 361 434
#     4  11  27  45  68 105 141 190 238 301 360 427
#     4  11  24  41  68 101 141 186 232 292 356 424
#     4  12  26  44  73 100 143 192 242 299 357 429
#     4  12  24  40  64 108 145 185 229 282 361 446
#
# _framework density 19.594918
#
# number of rings (size 3 to 8) (size 9 to 14) (size 15 to 20)
#    0.000    0.571    4.286    3.000    8.000    0.000 
#    0.000    0.000    0.000   21.429    0.000    0.000 
#    0.000    0.000    0.000    0.000    0.000    0.000 
#
# Total GULP energy -233884.783194 kJ/mol
# GULP energy per Si atom -5568.685314 kJ/mol
# Density = 1.955032 g / cm^3
# Si number density = 19.594918 Si / 1000 Ang^3
#
#
#
# Elastic Constant Matrix: (Units=GPa)
#
#
# Indices 1 2 3 4 5 6 
#
# 1 136.6763 56.8779 19.0064 0.0000 0.0000 0.0000
# 2 56.8779 136.6763 19.0064 0.0000 0.0000 0.0000
# 3 19.0064 19.0064 60.7747 0.0000 0.0000 0.0000
# 4 0.0000 0.0000 0.0000 28.1231 0.0000 0.0000
# 5 0.0000 0.0000 0.0000 0.0000 28.1231 0.0000
# 6 0.0000 0.0000 0.0000 0.0000 0.0000 39.8992
#
#
#
# Elastic Compliance Matrix: (Units=1/GPa)
#
#
# Indices 1 2 3 4 5 6 
#
# 1 0.009018 -0.003513 -0.001721 0.000000 0.000000 0.000000
# 2 -0.003513 0.009018 -0.001721 0.000000 0.000000 0.000000
# 3 -0.001721 -0.001721 0.017531 0.000000 0.000000 0.000000
# 4 0.000000 0.000000 0.000000 0.035558 0.000000 0.000000
# 5 0.000000 0.000000 0.000000 0.000000 0.035558 0.000000
# 6 0.000000 0.000000 0.000000 0.000000 0.000000 0.025063
#
#
# Mechanical properties :
#
#
# Convention : Reuss Voigt Hill
#
# Bulk Modulus (GPa) = 46.18038 58.21207 52.19622
# Shear Modulus (GPa) = 32.70597 35.17817 33.94207
#
# Velocity S-wave (km/s) = 4.08990 4.24166 4.16647
# Velocity P-wave (km/s) = 6.77656 7.33220 7.05985
#
# Compressibility (1/GPa) = 0.02165422
#
# Stress axis : x y z
#
# Youngs Moduli (GPa) = 110.88819 110.88819 57.04196
#
# Poissons Ratio (x) = 0.38960 0.09820
# Poissons Ratio (y) = 0.38960 0.09820
# Poissons Ratio (z) = 0.19089 0.19089
#
# Static dielectric constant tensor:
#      x y z
#    x 1.710190 0.000000 0.000000 
#    y 0.000000 1.710190 0.000000 
#    z 0.000000 0.000000 1.873150 
# 
# From -- ./inp_files/1677.got.cif
#   From: 2010.05.17/outbox.ucp.g08.bks.cvg/sg171_1_cif.got.tgz:1677.got - 2010.06.11 15:18:14.
