data_PCOD9580380
_publ_section_title
;
Structure prediction by ZEFSAII (Michael W. Deem and Ramdas Pophale) SiO2 
 PCOD9580380
Probable space group: P 65
;
_chemical_formula_sum "Si O2"
_cell_formula_units_Z 30
_cell_length_a 7.353793
_cell_length_b 7.353793
_cell_length_c 24.857817
_cell_angle_alpha 90.000000
_cell_angle_beta 90.000000
_cell_angle_gamma 120.000000
_cell_volume 1164.170044
_symmetry_space_group_name_H-M "P 65"
_symmetry_group_IT_number 170
_symmetry_cell_setting 'hexagonal'
loop_
_space_group_symop_operation_xyz
x,y,z
x-y,x,5/6+z
-y,x-y,2/3+z
-x,-y,1/2+z
-x+y,-x,1/3+z
y,-x+y,1/6+z
loop_
_atom_site_type_symbol
_atom_site_label
_atom_site_fract_x
_atom_site_fract_y
_atom_site_fract_z
Si Si1 0.992549 0.142585 0.707350
Si Si2 0.547152 0.299501 0.613856
Si Si3 0.709047 0.732938 0.646249
Si Si4 0.335867 0.771090 0.000456
Si Si5 0.765945 0.564182 0.063848
O O1 0.849858 0.126383 0.757106
O O2 0.032363 0.325541 0.666572
O O3 0.232366 0.222279 0.722047
O O4 0.890191 0.912347 0.681845
O O5 0.731084 0.532172 0.631383
O O6 0.558777 0.193366 0.559165
O O7 0.500345 0.175112 0.670079
O O8 0.366292 0.355075 0.597830
O O9 0.481751 0.650891 0.673230
O O10 0.382388 0.772753 0.935952
#
# Coordination Sequence:
#
# PCOD9580380 Si02
#       5
#     6   6   6   6   6
#     4  12  22  44  75 103 146 201 250 331 391 470
#     4  11  25  48  71 111 156 202 269 330 404 486
#     4  11  23  43  75 107 147 203 263 318 409 475
#     4  11  25  44  72 110 150 197 262 323 393 475
#     4  11  23  49  69 105 159 197 266 336 387 486
#
# _framework density 25.769431000000001
#
# number of rings (size 3 to 8) (size 9 to 14) (size 15 to 20)
#    0.000    0.800    8.000    0.000    2.800    0.000 
#   10.800    0.000    0.000    0.000    0.000    0.000 
#    0.000    0.000    0.000    0.000    0.000    0.000 
#
# Total GULP energy -167082.401890 kJ/mol
# GULP energy per Si atom -5569.413396 kJ/mol
# Density = 2.571078 g / cm^3
# Si number density = 25.769431 Si / 1000 Ang^3
#
#
#
# Elastic Constant Matrix: (Units=GPa)
#
#
# Indices 1 2 3 4 5 6 
#
# 1 49.8713 9.5545 20.3108 0.0000 0.0000 0.0000
# 2 9.5545 49.8713 20.3108 0.0000 0.0000 0.0000
# 3 20.3108 20.3108 209.0137 0.0000 0.0000 0.0000
# 4 0.0000 0.0000 0.0000 41.4888 0.0000 0.0000
# 5 0.0000 0.0000 0.0000 0.0000 41.4888 0.0000
# 6 0.0000 0.0000 0.0000 0.0000 0.0000 20.1584
#
#
#
# Elastic Compliance Matrix: (Units=1/GPa)
#
#
# Indices 1 2 3 4 5 6 
#
# 1 0.021414 -0.003389 -0.001752 0.000000 0.000000 0.000000
# 2 -0.003389 0.021414 -0.001752 0.000000 0.000000 0.000000
# 3 -0.001752 -0.001752 0.005125 0.000000 0.000000 0.000000
# 4 0.000000 0.000000 0.000000 0.024103 0.000000 0.000000
# 5 0.000000 0.000000 0.000000 0.000000 0.024103 0.000000
# 6 0.000000 0.000000 0.000000 0.000000 0.000000 0.049607
#
#
# Mechanical properties :
#
#
# Convention : Reuss Voigt Hill
#
# Bulk Modulus (GPa) = 29.26671 45.45653 37.36162
# Shear Modulus (GPa) = 29.24992 37.86588 33.55790
#
# Velocity S-wave (km/s) = 3.37272 3.83745 3.61257
# Velocity P-wave (km/s) = 5.15255 6.10841 5.65073
#
# Compressibility (1/GPa) = 0.03416852
#
# Stress axis : x y z
#
# Youngs Moduli (GPa) = 46.69778 46.69778 195.12991
#
# Poissons Ratio (x) = 0.15827 0.34178
# Poissons Ratio (y) = 0.15827 0.34178
# Poissons Ratio (z) = 0.08179 0.08179
#
# Static dielectric constant tensor:
#      x y z
#    x 2.146380 0.000000 0.000000 
#    y 0.000000 2.146380 0.000000 
#    z 0.000000 0.000000 2.137570 
# 
# From -- ./inp_files/1662.got.cif
#   From: 2010.05.17/outbox.cif.g08.bks.cpg/sg170_cif.got.tgz:1662.got - 2010.05.20 11:14:30.
