data_PCOD9580148
_publ_section_title
;
Structure prediction by ZEFSAII (Michael W. Deem and Ramdas Pophale) SiO2 
 PCOD9580148
Probable space group: P 61
;
_chemical_formula_sum "Si O2"
_cell_formula_units_Z 30
_cell_length_a 14.646275
_cell_length_b 14.646275
_cell_length_c 6.738474
_cell_angle_alpha 90.000000
_cell_angle_beta 90.000000
_cell_angle_gamma 120.000000
_cell_volume 1251.833465
_symmetry_space_group_name_H-M "P 61"
_symmetry_group_IT_number 169
_symmetry_cell_setting 'hexagonal'
loop_
_space_group_symop_operation_xyz
x,y,z
x-y,x,1/6+z
-y,x-y,1/3+z
-x,-y,1/2+z
-x+y,-x,2/3+z
y,-x+y,5/6+z
loop_
_atom_site_type_symbol
_atom_site_label
_atom_site_fract_x
_atom_site_fract_y
_atom_site_fract_z
Si Si1 0.368000 0.023919 0.502640
Si Si2 0.412379 0.747951 0.448682
Si Si3 0.496403 0.401940 0.331403
Si Si4 0.232342 0.100086 0.332195
Si Si5 0.382047 0.235929 0.991152
O O1 0.370729 0.811578 0.320257
O O2 0.383011 0.988817 0.284039
O O3 0.281024 0.929327 0.636260
O O4 0.479176 0.058689 0.605078
O O5 0.362607 0.731113 0.665631
O O6 0.539016 0.807745 0.441864
O O7 0.124671 0.283408 0.291755
O O8 0.457106 0.332987 0.135301
O O9 0.175351 0.153656 0.445220
O O10 0.327207 0.105597 0.464867
#
# Coordination Sequence:
#
# PCOD9580148 Si02
#       5
#     6   6   6   6   6
#     4  12  28  49  79 115 156 205 262 338 413 493
#     4  12  26  41  70 114 162 204 239 297 389 510
#     4  12  26  46  74 117 157 203 252 316 416 498
#     4  12  32  56  81 113 154 217 294 349 409 470
#     4  12  28  48  76 115 159 205 259 332 407 485
#
# _framework density 23.964850999999999
#
# number of rings (size 3 to 8) (size 9 to 14) (size 15 to 20)
#    0.000    0.000    8.000    0.000   14.000    1.600 
#    0.000    0.000    0.000    0.000    0.000    0.000 
#    0.000    0.000    0.000    0.000    0.000    0.000 
#
# Total GULP energy -168138.693554 kJ/mol
# GULP energy per Si atom -5604.623118 kJ/mol
# Density = 2.391031 g / cm^3
# Si number density = 23.964851 Si / 1000 Ang^3
#
#
#
# Elastic Constant Matrix: (Units=GPa)
#
#
# Indices 1 2 3 4 5 6 
#
# 1 98.2703 22.8572 27.9466 0.0000 0.0000 0.0000
# 2 22.8572 98.2703 27.9466 0.0000 0.0000 0.0000
# 3 27.9466 27.9466 102.7663 0.0000 0.0000 0.0000
# 4 0.0000 0.0000 0.0000 44.4469 0.0000 0.0000
# 5 0.0000 0.0000 0.0000 0.0000 44.4469 0.0000
# 6 0.0000 0.0000 0.0000 0.0000 0.0000 37.7065
#
#
#
# Elastic Compliance Matrix: (Units=1/GPa)
#
#
# Indices 1 2 3 4 5 6 
#
# 1 0.011350 -0.001910 -0.002567 0.000000 0.000000 0.000000
# 2 -0.001910 0.011350 -0.002567 0.000000 0.000000 0.000000
# 3 -0.002567 -0.002567 0.011127 0.000000 0.000000 0.000000
# 4 0.000000 0.000000 0.000000 0.022499 0.000000 0.000000
# 5 0.000000 0.000000 0.000000 0.000000 0.022499 0.000000
# 6 0.000000 0.000000 0.000000 0.000000 0.000000 0.026521
#
#
# Mechanical properties :
#
#
# Convention : Reuss Voigt Hill
#
# Bulk Modulus (GPa) = 50.66139 50.75641 50.70890
# Shear Modulus (GPa) = 39.67797 40.02382 39.85089
#
# Velocity S-wave (km/s) = 4.07341 4.09113 4.08228
# Velocity P-wave (km/s) = 6.58098 6.59863 6.58981
#
# Compressibility (1/GPa) = 0.01973890
#
# Stress axis : x y z
#
# Youngs Moduli (GPa) = 88.10298 88.10298 89.87058
#
# Poissons Ratio (x) = 0.16827 0.23072
# Poissons Ratio (y) = 0.16827 0.23072
# Poissons Ratio (z) = 0.22618 0.22618
#
# Static dielectric constant tensor:
#      x y z
#    x 1.939000 0.000000 0.000000 
#    y 0.000000 1.939000 0.000000 
#    z 0.000000 0.000000 1.894420 
# 
# From -- ./inp_files/558.got.cif
#   From: 2010.05.17/outbox.cif.g08.bks.cpg/sg169_cif.got.tgz:558.got - 2010.05.20 11:12:54.
