data_PCOD9580207
_publ_section_title
;
Structure prediction by ZEFSAII (Michael W. Deem and Ramdas Pophale) SiO2 
 PCOD9580207
Probable space group: P 65
;
_chemical_formula_sum "Si O2"
_cell_formula_units_Z 48
_cell_length_a 18.664771
_cell_length_b 18.664771
_cell_length_c 8.236982
_cell_angle_alpha 90.000000
_cell_angle_beta 90.000000
_cell_angle_gamma 120.000000
_cell_volume 2485.101208
_symmetry_space_group_name_H-M "P 65"
_symmetry_group_IT_number 170
_symmetry_cell_setting 'hexagonal'
loop_
_space_group_symop_operation_xyz
x,y,z
x-y,x,5/6+z
-y,x-y,2/3+z
-x,-y,1/2+z
-x+y,-x,1/3+z
y,-x+y,1/6+z
loop_
_atom_site_type_symbol
_atom_site_label
_atom_site_fract_x
_atom_site_fract_y
_atom_site_fract_z
Si Si1 0.170449 0.736391 0.441120
Si Si2 0.681027 0.955474 0.518613
Si Si3 0.533637 0.761618 0.101001
Si Si4 0.858892 0.537150 0.435742
Si Si5 0.445079 0.570501 0.052312
Si Si6 0.800660 0.139125 0.511771
Si Si7 0.540421 0.556485 0.359767
Si Si8 0.349034 0.624604 0.607996
O O1 0.093638 0.736079 0.353778
O O2 0.170888 0.722929 0.631423
O O3 0.252029 0.826227 0.409864
O O4 0.171103 0.654956 0.371712
O O5 0.691206 0.892819 0.401987
O O6 0.764849 0.042266 0.537514
O O7 0.611779 0.977992 0.457268
O O8 0.482278 0.667625 0.037086
O O9 0.622189 0.782083 0.167988
O O10 0.472122 0.762041 0.236736
O O11 0.840076 0.581315 0.286761
O O12 0.943781 0.545666 0.366733
O O13 0.798769 0.440950 0.456622
O O14 0.477639 0.559135 0.229601
O O15 0.478037 0.533659 0.912795
O O16 0.349612 0.671809 0.440882
#
# Coordination Sequence:
#
# PCOD9580207 Si02
#       8
#     6   6   6   6   6   6   6   6
#     4  10  23  35  57  83 116 157 208 251 300 351
#     4   9  20  41  60  83 111 154 186 244 301 378
#     4  12  21  36  53  82 117 151 207 258 289 354
#     4  10  19  38  52  77 112 158 197 250 293 347
#     4  11  22  38  50  83 116 158 207 248 293 351
#     4  10  20  40  62  81 117 147 196 239 309 366
#     4  10  21  36  56  77 115 155 202 245 296 347
#     4  12  22  34  52  78 118 164 213 261 305 340
#
# _framework density 19.315107999999999
#
# number of rings (size 3 to 8) (size 9 to 14) (size 15 to 20)
#    0.000    1.500    3.750    3.000    1.750    2.000 
#    0.000    0.000    0.000    0.000    0.000    1.750 
#    0.000    0.000    0.000    0.000    0.000    0.000 
#
# Total GULP energy -267464.226971 kJ/mol
# GULP energy per Si atom -5572.171395 kJ/mol
# Density = 1.927115 g / cm^3
# Si number density = 19.315108 Si / 1000 Ang^3
#
#
#
# Elastic Constant Matrix: (Units=GPa)
#
#
# Indices 1 2 3 4 5 6 
#
# 1 72.5892 38.9195 11.3874 0.0000 0.0000 0.0000
# 2 38.9195 72.5892 11.3874 0.0000 0.0000 0.0000
# 3 11.3874 11.3874 53.9317 0.0000 0.0000 0.0000
# 4 0.0000 0.0000 0.0000 25.1337 0.0000 0.0000
# 5 0.0000 0.0000 0.0000 0.0000 25.1337 0.0000
# 6 0.0000 0.0000 0.0000 0.0000 0.0000 16.8348
#
#
#
# Elastic Compliance Matrix: (Units=1/GPa)
#
#
# Indices 1 2 3 4 5 6 
#
# 1 0.019536 -0.010164 -0.001979 0.000000 0.000000 0.000000
# 2 -0.010164 0.019536 -0.001979 0.000000 0.000000 0.000000
# 3 -0.001979 -0.001979 0.019378 0.000000 0.000000 0.000000
# 4 0.000000 0.000000 0.000000 0.039787 0.000000 0.000000
# 5 0.000000 0.000000 0.000000 0.000000 0.039787 0.000000
# 6 0.000000 0.000000 0.000000 0.000000 0.000000 0.059401
#
#
# Mechanical properties :
#
#
# Convention : Reuss Voigt Hill
#
# Bulk Modulus (GPa) = 33.10568 35.83321 34.46945
# Shear Modulus (GPa) = 21.21002 22.58149 21.89576
#
# Velocity S-wave (km/s) = 3.31736 3.42294 3.37056
# Velocity P-wave (km/s) = 5.64360 5.84929 5.74736
#
# Compressibility (1/GPa) = 0.03020630
#
# Stress axis : x y z
#
# Youngs Moduli (GPa) = 51.18703 51.18703 51.60587
#
# Poissons Ratio (x) = 0.52027 0.10212
# Poissons Ratio (y) = 0.52027 0.10212
# Poissons Ratio (z) = 0.10129 0.10129
#
# Static dielectric constant tensor:
#      x y z
#    x 1.704700 0.000000 0.000000 
#    y 0.000000 1.704700 0.000000 
#    z 0.000000 0.000000 1.833190 
# 
# From -- ./inp_files/736.got.cif
#   From: 2010.05.17/outbox.cif.g08.bks.cpg/sg170_cif.got.tgz:736.got - 2010.05.20 11:14:30.
