data_PCOD9580469
_publ_section_title
;
Structure prediction by ZEFSAII (Michael W. Deem and Ramdas Pophale) SiO2 
 PCOD9580469
Probable space group: P 62
;
_chemical_formula_sum "Si O2"
_cell_formula_units_Z 42
_cell_length_a 17.209046
_cell_length_b 17.209046
_cell_length_c 8.902399
_cell_angle_alpha 90.000000
_cell_angle_beta 90.000000
_cell_angle_gamma 120.000000
_cell_volume 2283.238494
_symmetry_space_group_name_H-M "P 62"
_symmetry_group_IT_number 171
_symmetry_cell_setting 'hexagonal'
loop_
_space_group_symop_operation_xyz
x,y,z
x-y,x,1/3+z
-y,x-y,2/3+z
-x,-y,z
-x+y,-x,1/3+z
y,-x+y,2/3+z
loop_
_atom_site_type_symbol
_atom_site_label
_atom_site_fract_x
_atom_site_fract_y
_atom_site_fract_z
Si Si1 0.450412 0.156496 0.474930
Si Si2 0.781771 0.126790 0.920869
Si Si3 0.834766 0.461904 0.141900
Si Si4 0.415742 0.401327 0.624983
Si Si5 0.088832 0.497736 0.459416
Si Si6 0.263181 0.321432 0.378801
Si Si7 0.306333 0.485670 0.162654
O O1 0.398564 0.198707 0.386676
O O2 0.554665 0.193410 0.427367
O O3 0.405377 0.052955 0.421534
O O4 0.455876 0.164630 0.654350
O O5 0.686261 0.102989 0.844555
O O6 0.866867 0.178615 0.808021
O O7 0.764655 0.029699 0.976800
O O8 0.904827 0.492346 0.278953
O O9 0.756654 0.474996 0.205003
O O10 0.883311 0.533998 0.010757
O O11 0.500000 0.500000 0.596691
O O12 0.350425 0.362400 0.485827
O O13 0.163010 0.594236 0.519011
O O14 0.000000 0.500000 0.507571
O O15 0.283446 0.397906 0.256737
#
# Coordination Sequence:
#
# PCOD9580469 Si02
#       7
#     6   6   6   6   6   6   6
#     4   9  21  37  55  81 118 160 205 250 299 363
#     4  11  23  41  58  88 121 163 215 264 313 379
#     4  10  19  36  54  82 120 164 202 253 291 367
#     4   9  19  35  57  81 116 164 203 246 306 353
#     4  11  21  35  57  79 117 166 206 247 302 363
#     4  11  23  38  60  88 121 160 213 262 315 375
#     4  11  21  34  54  85 116 165 209 250 305 354
#
# _framework density 18.394924
#
# number of rings (size 3 to 8) (size 9 to 14) (size 15 to 20)
#    0.000    1.714    2.857    3.000    2.000    2.286 
#    2.571    0.000    0.000    0.000    0.000    0.000 
#    0.000   44.571    0.000    0.000    0.000    0.000 
#
# Total GULP energy -233987.741471 kJ/mol
# GULP energy per Si atom -5571.136702 kJ/mol
# Density = 1.835306 g / cm^3
# Si number density = 18.394924 Si / 1000 Ang^3
#
#
#
# Elastic Constant Matrix: (Units=GPa)
#
#
# Indices 1 2 3 4 5 6 
#
# 1 92.6352 54.5469 24.6598 0.0000 0.0000 0.0000
# 2 54.5469 92.6352 24.6598 0.0000 0.0000 0.0000
# 3 24.6598 24.6598 48.9543 0.0000 0.0000 0.0000
# 4 0.0000 0.0000 0.0000 21.4383 0.0000 0.0000
# 5 0.0000 0.0000 0.0000 0.0000 21.4383 0.0000
# 6 0.0000 0.0000 0.0000 0.0000 0.0000 19.0441
#
#
#
# Elastic Compliance Matrix: (Units=1/GPa)
#
#
# Indices 1 2 3 4 5 6 
#
# 1 0.017214 -0.009040 -0.004118 0.000000 0.000000 0.000000
# 2 -0.009040 0.017214 -0.004118 0.000000 0.000000 0.000000
# 3 -0.004118 -0.004118 0.024575 0.000000 0.000000 0.000000
# 4 0.000000 0.000000 0.000000 0.046645 0.000000 0.000000
# 5 0.000000 0.000000 0.000000 0.000000 0.046645 0.000000
# 6 0.000000 0.000000 0.000000 0.000000 0.000000 0.052510
#
#
# Mechanical properties :
#
#
# Convention : Reuss Voigt Hill
#
# Bulk Modulus (GPa) = 40.89398 49.10642 45.00020
# Shear Modulus (GPa) = 20.20146 21.07470 20.63808
#
# Velocity S-wave (km/s) = 3.31752 3.38846 3.35318
# Velocity P-wave (km/s) = 6.07898 6.48556 6.28556
#
# Compressibility (1/GPa) = 0.02445348
#
# Stress axis : x y z
#
# Youngs Moduli (GPa) = 58.09080 58.09080 40.69098
#
# Poissons Ratio (x) = 0.52516 0.16755
# Poissons Ratio (y) = 0.52516 0.16755
# Poissons Ratio (z) = 0.23919 0.23919
#
# Static dielectric constant tensor:
#      x y z
#    x 1.665330 0.000000 0.000000 
#    y 0.000000 1.665330 0.000000 
#    z 0.000000 0.000000 1.699650 
# 
# From -- ./inp_files/1254.got.cif
#   From: 2010.05.17/outbox.cif.g08.bks.cpg/sg171_1_cif.got.tgz:1254.got - 2010.05.20 11:16:09.
