data_PCOD9580521
_publ_section_title
;
Structure prediction by ZEFSAII (Michael W. Deem and Ramdas Pophale) SiO2 
 PCOD9580521
Probable space group: P 62
;
_chemical_formula_sum "Si O2"
_cell_formula_units_Z 39
_cell_length_a 8.703662
_cell_length_b 8.703662
_cell_length_c 30.320673
_cell_angle_alpha 90.000000
_cell_angle_beta 90.000000
_cell_angle_gamma 120.000000
_cell_volume 1989.177338
_symmetry_space_group_name_H-M "P 62"
_symmetry_group_IT_number 171
_symmetry_cell_setting 'hexagonal'
loop_
_space_group_symop_operation_xyz
x,y,z
x-y,x,1/3+z
-y,x-y,2/3+z
-x,-y,z
-x+y,-x,1/3+z
y,-x+y,2/3+z
loop_
_atom_site_type_symbol
_atom_site_label
_atom_site_fract_x
_atom_site_fract_y
_atom_site_fract_z
Si Si1 0.316630 0.112014 0.272780
Si Si2 0.287582 0.390459 0.846869
Si Si3 0.466900 0.717046 0.607887
Si Si4 0.175864 0.693390 0.086220
Si Si5 0.809586 0.826058 0.358944
Si Si6 0.532497 0.343936 0.030771
Si Si7 0.000000 0.000000 0.203975
O O1 0.521758 0.207669 0.259993
O O2 0.288265 0.214504 0.312076
O O3 0.284573 0.925103 0.293170
O O4 0.176072 0.080745 0.234748
O O5 0.500000 0.500000 0.841835
O O6 0.272719 0.453578 0.895654
O O7 0.235898 0.460603 0.803186
O O8 0.164298 0.173083 0.846564
O O9 0.389741 0.785452 0.646555
O O10 0.141118 0.833751 0.060587
O O11 0.325233 0.675734 0.059832
O O12 0.000000 0.500000 0.084853
O O13 0.821013 0.653845 0.369235
O O14 0.000000 0.000000 0.354232
O O15 0.500000 0.500000 0.046334
#
# Coordination Sequence:
#
# PCOD9580521 Si02
#       7
#     6   6   6   6   6   6   3
#     4  10  20  37  63  96 131 168 219 272 334 399
#     4  10  24  44  67  93 133 179 220 284 342 414
#     4  10  21  40  64  97 130 176 210 280 336 395
#     4  11  24  46  66  94 136 176 226 278 342 410
#     4  12  24  40  66  99 129 174 222 276 336 398
#     4  12  25  41  68  99 132 176 227 280 335 407
#     4  10  22  42  64 100 128 174 230 272 346 414
#
# _framework density 19.606096999999998
#
# number of rings (size 3 to 8) (size 9 to 14) (size 15 to 20)
#    0.000    1.231    2.308    3.692    5.385    0.000 
#   11.077    0.000    0.000    0.000    0.000    0.000 
#    0.000    0.000    0.000    0.000    0.000    0.000 
#
# Total GULP energy -217346.449159 kJ/mol
# GULP energy per Si atom -5572.985876 kJ/mol
# Density = 1.956147 g / cm^3
# Si number density = 19.606097 Si / 1000 Ang^3
#
#
#
# Elastic Constant Matrix: (Units=GPa)
#
#
# Indices 1 2 3 4 5 6 
#
# 1 99.4337 36.5954 16.3735 0.0000 0.0000 0.0000
# 2 36.5954 99.4337 16.3735 0.0000 0.0000 0.0000
# 3 16.3735 16.3735 77.2035 0.0000 0.0000 0.0000
# 4 0.0000 0.0000 0.0000 16.4665 0.0000 0.0000
# 5 0.0000 0.0000 0.0000 0.0000 16.4665 0.0000
# 6 0.0000 0.0000 0.0000 0.0000 0.0000 31.4192
#
#
#
# Elastic Compliance Matrix: (Units=1/GPa)
#
#
# Indices 1 2 3 4 5 6 
#
# 1 0.011830 -0.004083 -0.001643 0.000000 0.000000 0.000000
# 2 -0.004083 0.011830 -0.001643 0.000000 0.000000 0.000000
# 3 -0.001643 -0.001643 0.013650 0.000000 0.000000 0.000000
# 4 0.000000 0.000000 0.000000 0.060729 0.000000 0.000000
# 5 0.000000 0.000000 0.000000 0.000000 0.060729 0.000000
# 6 0.000000 0.000000 0.000000 0.000000 0.000000 0.031828
#
#
# Mechanical properties :
#
#
# Convention : Reuss Voigt Hill
#
# Bulk Modulus (GPa) = 44.30358 46.08398 45.19378
# Shear Modulus (GPa) = 23.48969 26.65235 25.07102
#
# Velocity S-wave (km/s) = 3.46509 3.69099 3.57982
# Velocity P-wave (km/s) = 6.21731 6.45914 6.33938
#
# Compressibility (1/GPa) = 0.02257154
#
# Stress axis : x y z
#
# Youngs Moduli (GPa) = 84.52821 84.52821 73.26176
#
# Poissons Ratio (x) = 0.34517 0.12037
# Poissons Ratio (y) = 0.34517 0.12037
# Poissons Ratio (z) = 0.13888 0.13888
#
# Static dielectric constant tensor:
#      x y z
#    x 1.684250 0.000000 0.000000 
#    y 0.000000 1.684250 0.000000 
#    z 0.000000 0.000000 1.720980 
# 
# From -- ./inp_files/6022.got.cif
#   From: 2010.05.17/outbox.cif.g08.bks.cpg/sg171_4_cif.got.tgz:6022.got - 2010.05.20 11:16:09.
