data_PCOD9580577
_publ_section_title
;
Structure prediction by ZEFSAII (Michael W. Deem and Ramdas Pophale) SiO2 
 PCOD9580577
Probable space group: P 62
;
_chemical_formula_sum "Si O2"
_cell_formula_units_Z 42
_cell_length_a 14.401146
_cell_length_b 14.401146
_cell_length_c 11.047131
_cell_angle_alpha 90.000000
_cell_angle_beta 90.000000
_cell_angle_gamma 120.000000
_cell_volume 1984.148817
_symmetry_space_group_name_H-M "P 62"
_symmetry_group_IT_number 171
_symmetry_cell_setting 'hexagonal'
loop_
_space_group_symop_operation_xyz
x,y,z
x-y,x,1/3+z
-y,x-y,2/3+z
-x,-y,z
-x+y,-x,1/3+z
y,-x+y,2/3+z
loop_
_atom_site_type_symbol
_atom_site_label
_atom_site_fract_x
_atom_site_fract_y
_atom_site_fract_z
Si Si1 0.351829 0.955731 0.517760
Si Si2 0.112122 0.225417 0.109936
Si Si3 0.727823 0.360716 0.614465
Si Si4 0.174832 0.476138 0.424925
Si Si5 0.821344 0.367833 0.125523
Si Si6 0.169850 0.904231 0.910423
Si Si7 0.882887 0.077570 0.171975
O O1 0.231818 0.918947 0.481991
O O2 0.351887 0.915434 0.654468
O O3 0.390927 0.887421 0.437493
O O4 0.430717 0.082062 0.497086
O O5 0.202138 0.228301 0.195682
O O6 0.002994 0.112052 0.129804
O O7 0.136986 0.238456 0.967154
O O8 0.763977 0.292920 0.697010
O O9 0.810911 0.425996 0.508826
O O10 0.699110 0.441458 0.683740
O O11 0.615217 0.265491 0.561922
O O12 0.151352 0.377318 0.508821
O O13 0.047163 0.853604 0.866810
O O14 0.167461 0.896181 0.055743
#
# Coordination Sequence:
#
# PCOD9580577 Si02
#       7
#     6   6   6   6   6   6   6
#     4  10  21  38  63  96 126 162 225 269 324 393
#     4  11  22  39  61  93 130 177 217 270 331 394
#     4   9  20  40  65  91 130 171 211 267 342 391
#     4  10  21  40  66  95 128 170 218 273 336 397
#     4   9  20  38  61  93 120 168 210 270 320 398
#     4  11  22  40  61  92 132 170 220 273 328 402
#     4  10  23  37  59  90 132 174 215 261 336 396
#
# _framework density 21.167767000000001
#
# number of rings (size 3 to 8) (size 9 to 14) (size 15 to 20)
#    0.000    2.000    0.000    3.000    4.000    4.571 
#    2.571   11.429    0.000    0.000    0.000    0.000 
#    0.000    0.000    0.000    0.000    0.000    0.000 
#
# Total GULP energy -234358.807714 kJ/mol
# GULP energy per Si atom -5579.971612 kJ/mol
# Density = 2.111959 g / cm^3
# Si number density = 21.167767 Si / 1000 Ang^3
#
#
#
# Elastic Constant Matrix: (Units=GPa)
#
#
# Indices 1 2 3 4 5 6 
#
# 1 80.2811 32.2312 37.4843 0.0000 0.0000 0.0000
# 2 32.2312 80.2811 37.4843 0.0000 0.0000 0.0000
# 3 37.4843 37.4843 115.5188 0.0000 0.0000 0.0000
# 4 0.0000 0.0000 0.0000 20.5220 0.0000 0.0000
# 5 0.0000 0.0000 0.0000 0.0000 20.5220 0.0000
# 6 0.0000 0.0000 0.0000 0.0000 0.0000 24.0250
#
#
#
# Elastic Compliance Matrix: (Units=1/GPa)
#
#
# Indices 1 2 3 4 5 6 
#
# 1 0.016076 -0.004736 -0.003680 0.000000 0.000000 0.000000
# 2 -0.004736 0.016076 -0.003680 0.000000 0.000000 0.000000
# 3 -0.003680 -0.003680 0.011045 0.000000 0.000000 0.000000
# 4 0.000000 0.000000 0.000000 0.048728 0.000000 0.000000
# 5 0.000000 0.000000 0.000000 0.000000 0.048728 0.000000
# 6 0.000000 0.000000 0.000000 0.000000 0.000000 0.041623
#
#
# Mechanical properties :
#
#
# Convention : Reuss Voigt Hill
#
# Bulk Modulus (GPa) = 52.61609 54.49785 53.55697
# Shear Modulus (GPa) = 23.49612 24.27254 23.88433
#
# Velocity S-wave (km/s) = 3.33527 3.38993 3.36271
# Velocity P-wave (km/s) = 6.30418 6.41278 6.35871
#
# Compressibility (1/GPa) = 0.01900559
#
# Stress axis : x y z
#
# Youngs Moduli (GPa) = 62.20577 62.20577 90.54243
#
# Poissons Ratio (x) = 0.29461 0.33316
# Poissons Ratio (y) = 0.29461 0.33316
# Poissons Ratio (z) = 0.22889 0.22889
#
# Static dielectric constant tensor:
#      x y z
#    x 1.763520 0.000000 0.000000 
#    y 0.000000 1.763520 0.000000 
#    z 0.000000 0.000000 1.821930 
# 
# From -- ./inp_files/4674.got.cif
#   From: 2010.05.17/outbox.cif.g08.bks.cpg/sg171_3_cif.got.tgz:4674.got - 2010.05.20 11:16:09.
