data_PCOD9580632
_publ_section_title
;
Structure prediction by ZEFSAII (Michael W. Deem and Ramdas Pophale) SiO2 
 PCOD9580632
Probable space group: P 62
;
_chemical_formula_sum "Si O2"
_cell_formula_units_Z 27
_cell_length_a 19.053096
_cell_length_b 19.053096
_cell_length_c 4.882298
_cell_angle_alpha 90.000000
_cell_angle_beta 90.000000
_cell_angle_gamma 120.000000
_cell_volume 1534.920996
_symmetry_space_group_name_H-M "P 62"
_symmetry_group_IT_number 171
_symmetry_cell_setting 'hexagonal'
loop_
_space_group_symop_operation_xyz
x,y,z
x-y,x,1/3+z
-y,x-y,2/3+z
-x,-y,z
-x+y,-x,1/3+z
y,-x+y,2/3+z
loop_
_atom_site_type_symbol
_atom_site_label
_atom_site_fract_x
_atom_site_fract_y
_atom_site_fract_z
Si Si1 0.602668 0.666172 0.078430
Si Si2 0.272439 0.698922 0.262983
Si Si3 0.500000 0.500000 0.832324
Si Si4 0.039014 0.658563 0.930744
Si Si5 0.245589 0.460707 0.413499
O O1 0.629859 0.663892 0.384175
O O2 0.523336 0.579091 0.011273
O O3 0.670095 0.664343 0.883895
O O4 0.583127 0.735139 0.998283
O O5 0.264209 0.620199 0.106066
O O6 0.263394 0.747724 0.010154
O O7 0.212190 0.696195 0.499801
O O8 0.419918 0.469854 0.650867
O O9 0.124495 0.728294 0.832540
#
# Coordination Sequence:
#
# PCOD9580632 Si02
#       5
#     6   6   3   6   6
#     4  10  22  38  56  78 106 147 188 240 287 352
#     4  12  24  36  48  80 109 140 184 252 299 336
#     4   8  22  32  52  76 106 144 186 234 294 330
#     4  10  22  38  56  78 106 147 188 240 287 352
#     4  12  24  38  61  80 110 150 200 240 304 355
#
# _framework density 17.590482999999999
#
# number of rings (size 3 to 8) (size 9 to 14) (size 15 to 20)
#    1.333    0.000    2.222    3.333    3.111    3.556 
#    0.000    0.000    0.000    0.000    0.000    0.000 
#    0.000    0.000    0.000   10.000    0.000    0.000 
#
# Total GULP energy -150375.107744 kJ/mol
# GULP energy per Si atom -5569.448435 kJ/mol
# Density = 1.755045 g / cm^3
# Si number density = 17.590483 Si / 1000 Ang^3
#
#
#
# Elastic Constant Matrix: (Units=GPa)
#
#
# Indices 1 2 3 4 5 6 
#
# 1 42.9907 7.7053 5.0155 0.0000 0.0000 0.0000
# 2 7.7053 42.9907 5.0155 0.0000 0.0000 0.0000
# 3 5.0155 5.0155 82.0095 0.0000 0.0000 0.0000
# 4 0.0000 0.0000 0.0000 16.9061 0.0000 0.0000
# 5 0.0000 0.0000 0.0000 0.0000 16.9061 0.0000
# 6 0.0000 0.0000 0.0000 0.0000 0.0000 17.6427
#
#
#
# Elastic Compliance Matrix: (Units=1/GPa)
#
#
# Indices 1 2 3 4 5 6 
#
# 1 0.024154 -0.004187 -0.001221 0.000000 0.000000 0.000000
# 2 -0.004187 0.024154 -0.001221 0.000000 0.000000 0.000000
# 3 -0.001221 -0.001221 0.012343 0.000000 0.000000 0.000000
# 4 0.000000 0.000000 0.000000 0.059150 0.000000 0.000000
# 5 0.000000 0.000000 0.000000 0.000000 0.059150 0.000000
# 6 0.000000 0.000000 0.000000 0.000000 0.000000 0.056681
#
#
# Mechanical properties :
#
#
# Convention : Reuss Voigt Hill
#
# Bulk Modulus (GPa) = 21.10032 22.60705 21.85369
# Shear Modulus (GPa) = 18.89023 20.30795 19.59909
#
# Velocity S-wave (km/s) = 3.28058 3.40146 3.34157
# Velocity P-wave (km/s) = 5.13527 5.32037 5.22864
#
# Compressibility (1/GPa) = 0.04739264
#
# Stress axis : x y z
#
# Youngs Moduli (GPa) = 41.40155 41.40155 81.01711
#
# Poissons Ratio (x) = 0.17333 0.09893
# Poissons Ratio (y) = 0.17333 0.09893
# Poissons Ratio (z) = 0.05056 0.05056
#
# Static dielectric constant tensor:
#      x y z
#    x 1.615040 0.000000 0.000000 
#    y 0.000000 1.615040 0.000000 
#    z 0.000000 0.000000 1.644140 
# 
# From -- ./inp_files/292.got.cif
#   From: 2010.05.17/outbox.cif.g08.bks.cpg/sg171_1_cif.got.tgz:292.got - 2010.05.20 11:16:09.
