data_PCOD9580772
_publ_section_title
;
Structure prediction by ZEFSAII (Michael W. Deem and Ramdas Pophale) SiO2 
 PCOD9580772
Probable space group: P 62
;
_chemical_formula_sum "Si O2"
_cell_formula_units_Z 24
_cell_length_a 14.299352
_cell_length_b 14.299352
_cell_length_c 5.016027
_cell_angle_alpha 90.000000
_cell_angle_beta 90.000000
_cell_angle_gamma 120.000000
_cell_volume 888.225447
_symmetry_space_group_name_H-M "P 62"
_symmetry_group_IT_number 171
_symmetry_cell_setting 'hexagonal'
loop_
_space_group_symop_operation_xyz
x,y,z
x-y,x,1/3+z
-y,x-y,2/3+z
-x,-y,z
-x+y,-x,1/3+z
y,-x+y,2/3+z
loop_
_atom_site_type_symbol
_atom_site_label
_atom_site_fract_x
_atom_site_fract_y
_atom_site_fract_z
Si Si1 0.104578 0.213527 0.140260
Si Si2 0.783800 0.417544 0.686523
Si Si3 0.320294 0.943851 0.331921
Si Si4 0.335469 0.412813 0.186121
O O1 0.206375 0.332767 0.206611
O O2 0.009308 0.148533 0.351642
O O3 0.050924 0.261825 0.935132
O O4 0.689896 0.421337 0.528552
O O5 0.840140 0.520486 0.879916
O O6 0.853159 0.393045 0.470220
O O7 0.353766 0.982429 0.634474
O O8 0.411014 0.034439 0.147052
#
# Coordination Sequence:
#
# PCOD9580772 Si02
#       4
#     6   6   6   6
#     4  10  25  50  83 114 162 214 278 336 418 492
#     4  12  30  48  84 124 168 214 284 354 428 510
#     4  11  28  53  79 112 162 213 269 335 413 496
#     4  11  28  53  79 112 162 213 269 335 413 496
#
# _framework density 27.020168000000002
#
# number of rings (size 3 to 8) (size 9 to 14) (size 15 to 20)
#    0.000    1.000    0.000    2.250   21.000    2.000 
#    0.000    8.750    0.000    0.000    0.000    0.000 
#    0.000    0.000    0.000    0.000    0.000    0.000 
#
# Total GULP energy -134270.361431 kJ/mol
# GULP energy per Si atom -5594.598393 kJ/mol
# Density = 2.695867 g / cm^3
# Si number density = 27.020168 Si / 1000 Ang^3
#
#
#
# Elastic Constant Matrix: (Units=GPa)
#
#
# Indices 1 2 3 4 5 6 
#
# 1 149.9201 45.8646 45.4843 0.0000 0.0000 0.0000
# 2 45.8646 149.9201 45.4843 0.0000 0.0000 0.0000
# 3 45.4843 45.4843 51.5681 0.0000 0.0000 0.0000
# 4 0.0000 0.0000 0.0000 47.4441 0.0000 0.0000
# 5 0.0000 0.0000 0.0000 0.0000 47.4441 0.0000
# 6 0.0000 0.0000 0.0000 0.0000 0.0000 52.0278
#
#
#
# Elastic Compliance Matrix: (Units=1/GPa)
#
#
# Indices 1 2 3 4 5 6 
#
# 1 0.009132 -0.000478 -0.007633 0.000000 0.000000 0.000000
# 2 -0.000478 0.009132 -0.007633 0.000000 0.000000 0.000000
# 3 -0.007633 -0.007633 0.032858 0.000000 0.000000 0.000000
# 4 0.000000 0.000000 0.000000 0.021077 0.000000 0.000000
# 5 0.000000 0.000000 0.000000 0.000000 0.021077 0.000000
# 6 0.000000 0.000000 0.000000 0.000000 0.000000 0.019221
#
#
# Mechanical properties :
#
#
# Convention : Reuss Voigt Hill
#
# Bulk Modulus (GPa) = 50.93529 69.45272 60.19400
# Shear Modulus (GPa) = 33.21571 43.68821 38.45196
#
# Velocity S-wave (km/s) = 3.50993 4.02540 3.77647
# Velocity P-wave (km/s) = 5.94289 6.88222 6.42973
#
# Compressibility (1/GPa) = 0.01963275
#
# Stress axis : x y z
#
# Youngs Moduli (GPa) = 109.50111 109.50111 30.43444
#
# Poissons Ratio (x) = 0.05233 0.23232
# Poissons Ratio (y) = 0.05233 0.23232
# Poissons Ratio (z) = 0.83586 0.83586
#
# Static dielectric constant tensor:
#      x y z
#    x 2.194620 0.000000 0.000000 
#    y 0.000000 2.194620 0.000000 
#    z 0.000000 0.000000 2.100950 
# 
# From -- ./inp_files/4101.got.cif
#   From: 2010.05.17/outbox.cif.g08.bks.cpg/sg171_3_cif.got.tgz:4101.got - 2010.05.20 11:16:09.
