data_PCOD9580881
_publ_section_title
;
Structure prediction by ZEFSAII (Michael W. Deem and Ramdas Pophale) SiO2 
 PCOD9580881
Probable space group: P 62
;
_chemical_formula_sum "Si O2"
_cell_formula_units_Z 24
_cell_length_a 9.690387
_cell_length_b 9.690387
_cell_length_c 10.973359
_cell_angle_alpha 90.000000
_cell_angle_beta 90.000000
_cell_angle_gamma 120.000000
_cell_volume 892.385413
_symmetry_space_group_name_H-M "P 62"
_symmetry_group_IT_number 171
_symmetry_cell_setting 'hexagonal'
loop_
_space_group_symop_operation_xyz
x,y,z
x-y,x,1/3+z
-y,x-y,2/3+z
-x,-y,z
-x+y,-x,1/3+z
y,-x+y,2/3+z
loop_
_atom_site_type_symbol
_atom_site_label
_atom_site_fract_x
_atom_site_fract_y
_atom_site_fract_z
Si Si1 0.491485 0.346015 0.667100
Si Si2 0.730947 0.264419 0.781491
Si Si3 0.840014 0.835184 0.745392
Si Si4 0.276180 0.302892 0.266503
O O1 0.500000 0.500000 0.733580
O O2 0.572910 0.264668 0.741407
O O3 0.598717 0.416386 0.548406
O O4 0.306066 0.221503 0.650955
O O5 0.847769 0.310940 0.666035
O O6 0.698446 0.095794 0.833956
O O7 0.765931 0.869787 0.866095
O O8 0.909947 0.720749 0.708280
O O9 0.000000 0.000000 0.726510
#
# Coordination Sequence:
#
# PCOD9580881 Si02
#       4
#     6   6   6   6
#     4  12  30  54  84 122 176 231 298 367 445 524
#     4  12  30  55  91 129 181 237 295 375 449 540
#     4  12  27  52  85 129 172 232 293 361 442 534
#     4  12  28  52  92 132 182 235 298 367 452 541
#
# _framework density 26.894210999999999
#
# number of rings (size 3 to 8) (size 9 to 14) (size 15 to 20)
#    0.000    0.000    5.000    2.250    3.500    7.000 
#    4.500    0.000    0.000    0.000    0.000    0.000 
#    0.000    0.000    0.000    0.000    0.000    0.000 
#
# Total GULP energy -134472.728981 kJ/mol
# GULP energy per Si atom -5603.030374 kJ/mol
# Density = 2.683300 g / cm^3
# Si number density = 26.894211 Si / 1000 Ang^3
#
#
#
# Elastic Constant Matrix: (Units=GPa)
#
#
# Indices 1 2 3 4 5 6 
#
# 1 153.3038 38.0885 27.5232 0.0000 0.0000 0.0000
# 2 38.0885 153.3038 27.5232 0.0000 0.0000 0.0000
# 3 27.5232 27.5232 118.0886 0.0000 0.0000 0.0000
# 4 0.0000 0.0000 0.0000 42.2357 0.0000 0.0000
# 5 0.0000 0.0000 0.0000 0.0000 42.2357 0.0000
# 6 0.0000 0.0000 0.0000 0.0000 0.0000 57.6077
#
#
#
# Elastic Compliance Matrix: (Units=1/GPa)
#
#
# Indices 1 2 3 4 5 6 
#
# 1 0.007140 -0.001540 -0.001305 0.000000 0.000000 0.000000
# 2 -0.001540 0.007140 -0.001305 0.000000 0.000000 0.000000
# 3 -0.001305 -0.001305 0.009077 0.000000 0.000000 0.000000
# 4 0.000000 0.000000 0.000000 0.023677 0.000000 0.000000
# 5 0.000000 0.000000 0.000000 0.000000 0.023677 0.000000
# 6 0.000000 0.000000 0.000000 0.000000 0.000000 0.017359
#
#
# Mechanical properties :
#
#
# Convention : Reuss Voigt Hill
#
# Bulk Modulus (GPa) = 66.41805 67.88508 67.15157
# Shear Modulus (GPa) = 49.31580 50.51990 49.91785
#
# Velocity S-wave (km/s) = 4.28681 4.33883 4.31290
# Velocity P-wave (km/s) = 7.01798 7.09908 7.05864
#
# Compressibility (1/GPa) = 0.01505615
#
# Stress axis : x y z
#
# Youngs Moduli (GPa) = 140.05918 140.05918 110.17262
#
# Poissons Ratio (x) = 0.21563 0.14380
# Poissons Ratio (y) = 0.21563 0.14380
# Poissons Ratio (z) = 0.18281 0.18281
#
# Static dielectric constant tensor:
#      x y z
#    x 2.099180 0.000000 0.000000 
#    y 0.000000 2.099180 0.000000 
#    z 0.000000 0.000000 2.094070 
# 
# From -- ./inp_files/1818.got.cif
#   From: 2010.05.17/outbox.cif.g08.bks.cpg/sg171_1_cif.got.tgz:1818.got - 2010.05.20 11:16:09.
