data_PCOD9580390
_publ_section_title
;
Structure prediction by ZEFSAII (Michael W. Deem and Ramdas Pophale) SiO2 
 PCOD9580390
Probable space group: P 65
;
_chemical_formula_sum "Si O2"
_cell_formula_units_Z 30
_cell_length_a 16.233518
_cell_length_b 16.233518
_cell_length_c 6.772674
_cell_angle_alpha 90.000000
_cell_angle_beta 90.000000
_cell_angle_gamma 120.000000
_cell_volume 1545.667577
_symmetry_space_group_name_H-M "P 65"
_symmetry_group_IT_number 170
_symmetry_cell_setting 'hexagonal'
loop_
_space_group_symop_operation_xyz
x,y,z
x-y,x,5/6+z
-y,x-y,2/3+z
-x,-y,1/2+z
-x+y,-x,1/3+z
y,-x+y,1/6+z
loop_
_atom_site_type_symbol
_atom_site_label
_atom_site_fract_x
_atom_site_fract_y
_atom_site_fract_z
Si Si1 0.196931 0.815841 0.458300
Si Si2 0.204501 0.055436 0.031530
Si Si3 0.305467 0.823336 0.067446
Si Si4 0.337588 0.489896 0.457711
Si Si5 0.976815 0.669504 0.946062
O O1 0.111519 0.822585 0.355288
O O2 0.262353 0.812846 0.284393
O O3 0.161689 0.724520 0.597947
O O4 0.256369 0.907845 0.595537
O O5 0.123120 0.957937 0.125243
O O6 0.251822 0.030739 0.847590
O O7 0.411490 0.841605 0.074671
O O8 0.237588 0.730543 0.938211
O O9 0.303370 0.910671 0.959632
O O10 0.360754 0.414778 0.560684
#
# Coordination Sequence:
#
# PCOD9580390 Si02
#       5
#     6   6   6   6   6
#     4  11  24  46  69  96 142 188 220 293 350 409
#     4  12  24  44  70 101 140 180 235 285 344 415
#     4  11  26  44  68 101 137 181 232 289 347 423
#     4  11  26  42  70 100 136 179 235 286 348 419
#     4  11  24  46  67 100 137 186 232 279 349 420
#
# _framework density 19.409091
#
# number of rings (size 3 to 8) (size 9 to 14) (size 15 to 20)
#    0.000    0.800    4.000    2.400    5.600    3.200 
#    0.000    0.000    0.000    0.000    0.000    0.000 
#    0.000    0.000    0.000    0.000    0.000    0.000 
#
# Total GULP energy -167902.036670 kJ/mol
# GULP energy per Si atom -5596.734556 kJ/mol
# Density = 1.936491 g / cm^3
# Si number density = 19.409091 Si / 1000 Ang^3
#
#
#
# Elastic Constant Matrix: (Units=GPa)
#
#
# Indices 1 2 3 4 5 6 
#
# 1 78.6959 15.2807 4.0838 0.0000 0.0000 0.0000
# 2 15.2807 78.6959 4.0838 0.0000 0.0000 0.0000
# 3 4.0838 4.0838 68.8165 0.0000 0.0000 0.0000
# 4 0.0000 0.0000 0.0000 17.0978 0.0000 0.0000
# 5 0.0000 0.0000 0.0000 0.0000 17.0978 0.0000
# 6 0.0000 0.0000 0.0000 0.0000 0.0000 31.7076
#
#
#
# Elastic Compliance Matrix: (Units=1/GPa)
#
#
# Indices 1 2 3 4 5 6 
#
# 1 0.013233 -0.002536 -0.000635 0.000000 0.000000 0.000000
# 2 -0.002536 0.013233 -0.000635 0.000000 0.000000 0.000000
# 3 -0.000635 -0.000635 0.014607 0.000000 0.000000 0.000000
# 4 0.000000 0.000000 0.000000 0.058487 0.000000 0.000000
# 5 0.000000 0.000000 0.000000 0.000000 0.058487 0.000000
# 6 0.000000 0.000000 0.000000 0.000000 0.000000 0.031538
#
#
# Mechanical properties :
#
#
# Convention : Reuss Voigt Hill
#
# Bulk Modulus (GPa) = 29.88645 30.34499 30.11572
# Shear Modulus (GPa) = 23.99814 26.69797 25.34805
#
# Velocity S-wave (km/s) = 3.52012 3.71285 3.61777
# Velocity P-wave (km/s) = 5.65272 5.83513 5.74465
#
# Compressibility (1/GPa) = 0.03345998
#
# Stress axis : x y z
#
# Youngs Moduli (GPa) = 75.57091 75.57091 68.46155
#
# Poissons Ratio (x) = 0.19168 0.04346
# Poissons Ratio (y) = 0.19168 0.04346
# Poissons Ratio (z) = 0.04797 0.04797
#
# Static dielectric constant tensor:
#      x y z
#    x 1.650790 0.000000 0.000000 
#    y 0.000000 1.650790 0.000000 
#    z 0.000000 0.000000 1.659480 
# 
# From -- ./inp_files/179.got.cif
#   From: 2010.05.17/outbox.cif.g08.bks.cpg/sg170_cif.got.tgz:179.got - 2010.05.20 11:14:30.
