data_PCOD9580351
_publ_section_title
;
Structure prediction by ZEFSAII (Michael W. Deem and Ramdas Pophale) SiO2 
 PCOD9580351
Probable space group: P 65
;
_chemical_formula_sum "Si O2"
_cell_formula_units_Z 48
_cell_length_a 17.199405
_cell_length_b 17.199405
_cell_length_c 8.579805
_cell_angle_alpha 90.000000
_cell_angle_beta 90.000000
_cell_angle_gamma 120.000000
_cell_volume 2198.036476
_symmetry_space_group_name_H-M "P 65"
_symmetry_group_IT_number 170
_symmetry_cell_setting 'hexagonal'
loop_
_space_group_symop_operation_xyz
x,y,z
x-y,x,5/6+z
-y,x-y,2/3+z
-x,-y,1/2+z
-x+y,-x,1/3+z
y,-x+y,1/6+z
loop_
_atom_site_type_symbol
_atom_site_label
_atom_site_fract_x
_atom_site_fract_y
_atom_site_fract_z
Si Si1 0.081749 0.334440 0.791590
Si Si2 0.009150 0.319019 0.114876
Si Si3 0.216197 0.353537 0.536832
Si Si4 0.182789 0.551603 0.816837
Si Si5 0.512156 0.061390 0.401460
Si Si6 0.649972 0.576162 0.309866
Si Si7 0.531936 0.684261 0.013668
Si Si8 0.626902 0.402003 0.317073
O O1 0.136903 0.306281 0.670992
O O2 0.139245 0.443940 0.799998
O O3 0.987451 0.314082 0.716847
O O4 0.056533 0.298007 0.969607
O O5 0.085590 0.389874 0.230639
O O6 0.934141 0.239892 0.226893
O O7 0.966933 0.376783 0.036912
O O8 0.305740 0.402378 0.639787
O O9 0.191700 0.423908 0.461716
O O10 0.133186 0.585736 0.705058
O O11 0.286766 0.602972 0.775125
O O12 0.177296 0.575120 0.993698
O O13 0.589358 0.099507 0.270692
O O14 0.524381 0.981677 0.471623
O O15 0.668900 0.502547 0.388895
O O16 0.447329 0.674871 0.921333
#
# Coordination Sequence:
#
# PCOD9580351 Si02
#       8
#     6   6   6   6   6   6   6   6
#     4  11  23  43  64  91 117 164 226 285 339 421
#     4  12  25  40  68  91 124 175 226 284 356 438
#     4  12  24  42  64  89 127 162 221 295 345 398
#     4  11  24  38  57  84 125 165 229 291 349 398
#     4  11  22  39  63  86 118 173 235 276 338 428
#     4  11  20  41  65  82 120 178 213 283 344 393
#     4  12  24  39  62  96 126 169 238 286 347 424
#     4  12  24  38  59  85 131 176 224 300 350 400
#
# _framework density 21.837672000000001
#
# number of rings (size 3 to 8) (size 9 to 14) (size 15 to 20)
#    0.000    0.500    7.500    1.500    1.750    6.000 
#    0.000    0.000    0.000    0.000    0.000    0.000 
#    0.000    0.000    0.000   72.000    0.000    6.000 
#
# Total GULP energy -268077.203831 kJ/mol
# GULP energy per Si atom -5584.941746 kJ/mol
# Density = 2.178797 g / cm^3
# Si number density = 21.837672 Si / 1000 Ang^3
#
#
#
# Elastic Constant Matrix: (Units=GPa)
#
#
# Indices 1 2 3 4 5 6 
#
# 1 58.6548 31.5849 44.3865 0.0000 0.0000 0.0000
# 2 31.5849 58.6548 44.3865 0.0000 0.0000 0.0000
# 3 44.3865 44.3865 130.8387 0.0000 0.0000 0.0000
# 4 0.0000 0.0000 0.0000 37.2718 0.0000 0.0000
# 5 0.0000 0.0000 0.0000 0.0000 37.2718 0.0000
# 6 0.0000 0.0000 0.0000 0.0000 0.0000 13.5349
#
#
#
# Elastic Compliance Matrix: (Units=1/GPa)
#
#
# Indices 1 2 3 4 5 6 
#
# 1 0.026787 -0.010155 -0.005642 0.000000 0.000000 0.000000
# 2 -0.010155 0.026787 -0.005642 0.000000 0.000000 0.000000
# 3 -0.005642 -0.005642 0.011471 0.000000 0.000000 0.000000
# 4 0.000000 0.000000 0.000000 0.026830 0.000000 0.000000
# 5 0.000000 0.000000 0.000000 0.000000 0.026830 0.000000
# 6 0.000000 0.000000 0.000000 0.000000 0.000000 0.073883
#
#
# Mechanical properties :
#
#
# Convention : Reuss Voigt Hill
#
# Bulk Modulus (GPa) = 45.11369 54.31825 49.71597
# Shear Modulus (GPa) = 20.58834 26.13503 23.36169
#
# Velocity S-wave (km/s) = 3.07382 3.46321 3.27431
# Velocity P-wave (km/s) = 5.77073 6.39683 6.09183
#
# Compressibility (1/GPa) = 0.02216622
#
# Stress axis : x y z
#
# Youngs Moduli (GPa) = 37.33165 37.33165 87.17350
#
# Poissons Ratio (x) = 0.37909 0.49187
# Poissons Ratio (y) = 0.37909 0.49187
# Poissons Ratio (z) = 0.21064 0.21064
#
# Static dielectric constant tensor:
#      x y z
#    x 1.831030 0.000000 0.000000 
#    y 0.000000 1.831030 0.000000 
#    z 0.000000 0.000000 1.908520 
# 
# From -- ./inp_files/750.got.cif
#   From: 2010.05.17/outbox.cif.g08.bks.cpg/sg170_cif.got.tgz:750.got - 2010.05.20 11:14:30.
