data_PCOD9580135
_publ_section_title
;
Structure prediction by ZEFSAII (Michael W. Deem and Ramdas Pophale) SiO2 
 PCOD9580135
Probable space group: P 61
;
_chemical_formula_sum "Si O2"
_cell_formula_units_Z 24
_cell_length_a 12.724616
_cell_length_b 12.724616
_cell_length_c 7.054310
_cell_angle_alpha 90.000000
_cell_angle_beta 90.000000
_cell_angle_gamma 120.000000
_cell_volume 989.178214
_symmetry_space_group_name_H-M "P 61"
_symmetry_group_IT_number 169
_symmetry_cell_setting 'hexagonal'
loop_
_space_group_symop_operation_xyz
x,y,z
x-y,x,1/6+z
-y,x-y,1/3+z
-x,-y,1/2+z
-x+y,-x,2/3+z
y,-x+y,5/6+z
loop_
_atom_site_type_symbol
_atom_site_label
_atom_site_fract_x
_atom_site_fract_y
_atom_site_fract_z
Si Si1 0.681367 0.570341 0.228650
Si Si2 0.008347 0.412059 0.488981
Si Si3 0.632113 0.230519 0.007803
Si Si4 0.222918 0.984820 0.874898
O O1 0.556288 0.458349 0.311461
O O2 0.775216 0.520172 0.244225
O O3 0.722304 0.684454 0.365418
O O4 0.650090 0.600297 0.022513
O O5 0.892577 0.401202 0.375233
O O6 0.060851 0.342893 0.366771
O O7 0.606614 0.319631 0.881593
O O8 0.095167 0.879652 0.802728
#
# Coordination Sequence:
#
# PCOD9580135 Si02
#       4
#     6   6   6   6
#     4  12  25  45  79 116 161 204 256 320 407 487
#     4  12  26  45  76 119 158 200 256 323 405 482
#     4  12  23  39  70 110 161 195 244 310 399 472
#     4  12  30  55  81 111 158 213 280 331 385 467
#
# _framework density 24.262561999999999
#
# number of rings (size 3 to 8) (size 9 to 14) (size 15 to 20)
#    0.000    0.000    7.500    1.500    3.500    4.000 
#    4.500    0.000    0.000    0.000    0.000    0.000 
#    0.000    0.000    0.000    0.000    0.000    0.000 
#
# Total GULP energy -134676.720095 kJ/mol
# GULP energy per Si atom -5611.530004 kJ/mol
# Density = 2.420734 g / cm^3
# Si number density = 24.262562 Si / 1000 Ang^3
#
#
#
# Elastic Constant Matrix: (Units=GPa)
#
#
# Indices 1 2 3 4 5 6 
#
# 1 107.8111 33.4058 37.1593 0.0000 0.0000 0.0000
# 2 33.4058 107.8111 37.1593 0.0000 0.0000 0.0000
# 3 37.1593 37.1593 163.0466 0.0000 0.0000 0.0000
# 4 0.0000 0.0000 0.0000 35.7534 0.0000 0.0000
# 5 0.0000 0.0000 0.0000 0.0000 35.7534 0.0000
# 6 0.0000 0.0000 0.0000 0.0000 0.0000 37.2027
#
#
#
# Elastic Compliance Matrix: (Units=1/GPa)
#
#
# Indices 1 2 3 4 5 6 
#
# 1 0.010743 -0.002697 -0.001834 0.000000 0.000000 0.000000
# 2 -0.002697 0.010743 -0.001834 0.000000 0.000000 0.000000
# 3 -0.001834 -0.001834 0.006969 0.000000 0.000000 0.000000
# 4 0.000000 0.000000 0.000000 0.027969 0.000000 0.000000
# 5 0.000000 0.000000 0.000000 0.000000 0.027969 0.000000
# 6 0.000000 0.000000 0.000000 0.000000 0.000000 0.026880
#
#
# Mechanical properties :
#
#
# Convention : Reuss Voigt Hill
#
# Bulk Modulus (GPa) = 63.58654 66.01307 64.79980
# Shear Modulus (GPa) = 38.68625 39.80485 39.24555
#
# Velocity S-wave (km/s) = 3.99743 4.05481 4.02622
# Velocity P-wave (km/s) = 6.89714 7.01348 6.95555
#
# Compressibility (1/GPa) = 0.01572660
#
# Stress axis : x y z
#
# Youngs Moduli (GPa) = 93.08256 93.08256 143.49063
#
# Poissons Ratio (x) = 0.25102 0.26314
# Poissons Ratio (y) = 0.25102 0.26314
# Poissons Ratio (z) = 0.17070 0.17070
#
# Static dielectric constant tensor:
#      x y z
#    x 1.933370 0.000000 0.000000 
#    y 0.000000 1.933370 0.000000 
#    z 0.000000 0.000000 1.971810 
# 
# From -- ./inp_files/95.got.cif
#   From: 2010.05.17/outbox.cif.g08.bks.cpg/sg169_cif.got.tgz:95.got - 2010.05.20 11:12:54.
