data_PCOD9580843
_publ_section_title
;
Structure prediction by ZEFSAII (Michael W. Deem and Ramdas Pophale) SiO2 
 PCOD9580843
Probable space group: P 62
;
_chemical_formula_sum "Si O2"
_cell_formula_units_Z 24
_cell_length_a 9.587198
_cell_length_b 9.587198
_cell_length_c 11.143971
_cell_angle_alpha 90.000000
_cell_angle_beta 90.000000
_cell_angle_gamma 120.000000
_cell_volume 887.062047
_symmetry_space_group_name_H-M "P 62"
_symmetry_group_IT_number 171
_symmetry_cell_setting 'hexagonal'
loop_
_space_group_symop_operation_xyz
x,y,z
x-y,x,1/3+z
-y,x-y,2/3+z
-x,-y,z
-x+y,-x,1/3+z
y,-x+y,2/3+z
loop_
_atom_site_type_symbol
_atom_site_label
_atom_site_fract_x
_atom_site_fract_y
_atom_site_fract_z
Si Si1 0.168317 0.010900 0.788160
Si Si2 0.886353 0.577949 0.249514
Si Si3 0.548271 0.305899 0.498150
Si Si4 0.284073 0.370561 0.598035
O O1 0.243041 0.940616 0.694278
O O2 0.864671 0.102572 0.903789
O O3 0.000000 0.000000 0.759080
O O4 0.892829 0.599211 0.913203
O O5 0.000000 0.500000 0.244439
O O6 0.893713 0.699722 0.148277
O O7 0.725305 0.408353 0.227929
O O8 0.650810 0.499152 0.488025
O O9 0.468886 0.185111 0.384321
#
# Coordination Sequence:
#
# PCOD9580843 Si02
#       4
#     6   6   6   6
#     4  12  28  55  87 122 171 233 292 355 446 537
#     4  12  30  49  83 122 171 220 289 362 435 522
#     4  11  27  51  87 130 177 231 289 376 450 533
#     4  11  26  52  89 129 179 232 297 365 453 548
#
# _framework density 27.055607999999999
#
# number of rings (size 3 to 8) (size 9 to 14) (size 15 to 20)
#    0.000    0.500    0.000    5.250   10.500    6.000 
#    0.000    0.000    0.000    0.000    0.000    0.000 
#    0.000    0.000    0.000    0.000    0.000    0.000 
#
# Total GULP energy -133981.116443 kJ/mol
# GULP energy per Si atom -5582.546518 kJ/mol
# Density = 2.699403 g / cm^3
# Si number density = 27.055608 Si / 1000 Ang^3
#
#
#
# Elastic Constant Matrix: (Units=GPa)
#
#
# Indices 1 2 3 4 5 6 
#
# 1 224.9338 82.4107 83.5538 0.0000 0.0000 0.0000
# 2 82.4107 224.9338 83.5538 0.0000 0.0000 0.0000
# 3 83.5538 83.5538 162.0078 0.0000 0.0000 0.0000
# 4 0.0000 0.0000 0.0000 34.9872 0.0000 0.0000
# 5 0.0000 0.0000 0.0000 0.0000 34.9872 0.0000
# 6 0.0000 0.0000 0.0000 0.0000 0.0000 71.2616
#
#
#
# Elastic Compliance Matrix: (Units=1/GPa)
#
#
# Indices 1 2 3 4 5 6 
#
# 1 0.005769 -0.001247 -0.002332 0.000000 0.000000 0.000000
# 2 -0.001247 0.005769 -0.002332 0.000000 0.000000 0.000000
# 3 -0.002332 -0.002332 0.008578 0.000000 0.000000 0.000000
# 4 0.000000 0.000000 0.000000 0.028582 0.000000 0.000000
# 5 0.000000 0.000000 0.000000 0.000000 0.028582 0.000000
# 6 0.000000 0.000000 0.000000 0.000000 0.000000 0.014033
#
#
# Mechanical properties :
#
#
# Convention : Reuss Voigt Hill
#
# Bulk Modulus (GPa) = 120.57999 123.43465 122.00732
# Shear Modulus (GPa) = 47.21451 52.40433 49.80942
#
# Velocity S-wave (km/s) = 4.18196 4.40581 4.29534
# Velocity P-wave (km/s) = 8.24516 8.46187 8.35421
#
# Compressibility (1/GPa) = 0.00829325
#
# Stress axis : x y z
#
# Youngs Moduli (GPa) = 173.34016 173.34016 116.57838
#
# Poissons Ratio (x) = 0.21622 0.27186
# Poissons Ratio (y) = 0.21622 0.27186
# Poissons Ratio (z) = 0.40422 0.40422
#
# Static dielectric constant tensor:
#      x y z
#    x 2.300260 0.000000 0.000000 
#    y 0.000000 2.300260 0.000000 
#    z 0.000000 0.000000 2.287640 
# 
# From -- ./inp_files/1475.got.cif
#   From: 2010.05.17/outbox.cif.g08.bks.cpg/sg171_1_cif.got.tgz:1475.got - 2010.05.20 11:16:09.
