data_PCOD9580192
_publ_section_title
;
Structure prediction by ZEFSAII (Michael W. Deem and Ramdas Pophale) SiO2 
 PCOD9580192
Probable space group: P 65
;
_chemical_formula_sum "Si O2"
_cell_formula_units_Z 48
_cell_length_a 15.861790
_cell_length_b 15.861790
_cell_length_c 11.522988
_cell_angle_alpha 90.000000
_cell_angle_beta 90.000000
_cell_angle_gamma 120.000000
_cell_volume 2510.730700
_symmetry_space_group_name_H-M "P 65"
_symmetry_group_IT_number 170
_symmetry_cell_setting 'hexagonal'
loop_
_space_group_symop_operation_xyz
x,y,z
x-y,x,5/6+z
-y,x-y,2/3+z
-x,-y,1/2+z
-x+y,-x,1/3+z
y,-x+y,1/6+z
loop_
_atom_site_type_symbol
_atom_site_label
_atom_site_fract_x
_atom_site_fract_y
_atom_site_fract_z
Si Si1 0.609930 0.781676 0.819570
Si Si2 0.891091 0.715012 0.289614
Si Si3 0.866641 0.396632 0.992726
Si Si4 0.943568 0.112842 0.923685
Si Si5 0.544951 0.070399 0.569793
Si Si6 0.347530 0.925822 0.694351
Si Si7 0.353341 0.918433 0.277702
Si Si8 0.325805 0.999560 0.942848
O O1 0.526765 0.809624 0.809224
O O2 0.715138 0.869351 0.777363
O O3 0.567768 0.688567 0.735994
O O4 0.618378 0.747560 0.948328
O O5 0.915658 0.653072 0.379880
O O6 0.778267 0.683145 0.295921
O O7 0.971768 0.823620 0.328745
O O8 0.914399 0.689104 0.163509
O O9 0.851637 0.469832 0.910737
O O10 0.977211 0.424284 0.963969
O O11 0.863130 0.419574 0.127466
O O12 0.880006 0.004394 0.873245
O O13 0.608215 0.128467 0.682156
O O14 0.434995 0.004639 0.613649
O O15 0.589235 0.003787 0.518691
O O16 0.337272 0.978203 0.809381
#
# Coordination Sequence:
#
# PCOD9580192 Si02
#       8
#     6   6   6   6   6   6   6   6
#     4  12  21  39  67  93 123 169 216 257 319 397
#     4  11  19  37  63  90 120 164 213 259 300 373
#     4  10  20  39  62  89 127 156 203 266 308 374
#     4  12  24  42  63  94 129 169 221 270 316 374
#     4   9  20  39  61  90 119 157 204 263 308 372
#     4  10  23  38  60  91 122 162 208 255 320 379
#     4  10  19  34  63  94 111 161 207 250 301 376
#     4  10  22  38  61  91 125 162 212 258 316 377
#
# _framework density 19.117940000000001
#
# number of rings (size 3 to 8) (size 9 to 14) (size 15 to 20)
#    0.000    1.500    5.000    0.000    3.500    1.000 
#    2.250    1.250    2.750    0.000    0.000    0.000 
#    0.000    0.000    0.000    0.000    0.000    0.000 
#
# Total GULP energy -267363.788805 kJ/mol
# GULP energy per Si atom -5570.078933 kJ/mol
# Density = 1.907443 g / cm^3
# Si number density = 19.117940 Si / 1000 Ang^3
#
#
#
# Elastic Constant Matrix: (Units=GPa)
#
#
# Indices 1 2 3 4 5 6 
#
# 1 55.1563 27.4325 21.0628 0.0000 0.0000 0.0000
# 2 27.4325 55.1563 21.0628 0.0000 0.0000 0.0000
# 3 21.0628 21.0628 101.8114 0.0000 0.0000 0.0000
# 4 0.0000 0.0000 0.0000 23.0899 0.0000 0.0000
# 5 0.0000 0.0000 0.0000 0.0000 23.0899 0.0000
# 6 0.0000 0.0000 0.0000 0.0000 0.0000 13.8619
#
#
#
# Elastic Compliance Matrix: (Units=1/GPa)
#
#
# Indices 1 2 3 4 5 6 
#
# 1 0.024803 -0.011267 -0.002800 0.000000 0.000000 0.000000
# 2 -0.011267 0.024803 -0.002800 0.000000 0.000000 0.000000
# 3 -0.002800 -0.002800 0.010981 0.000000 0.000000 0.000000
# 4 0.000000 0.000000 0.000000 0.043309 0.000000 0.000000
# 5 0.000000 0.000000 0.000000 0.000000 0.043309 0.000000
# 6 0.000000 0.000000 0.000000 0.000000 0.000000 0.072140
#
#
# Mechanical properties :
#
#
# Convention : Reuss Voigt Hill
#
# Bulk Modulus (GPa) = 37.24095 39.02668 38.13381
# Shear Modulus (GPa) = 19.08165 21.51272 20.29719
#
# Velocity S-wave (km/s) = 3.16270 3.35813 3.26188
# Velocity P-wave (km/s) = 5.73226 5.95769 5.84606
#
# Compressibility (1/GPa) = 0.02685216
#
# Stress axis : x y z
#
# Youngs Moduli (GPa) = 40.31714 40.31714 91.06799
#
# Poissons Ratio (x) = 0.45424 0.25503
# Poissons Ratio (y) = 0.45424 0.25503
# Poissons Ratio (z) = 0.11291 0.11291
#
# Static dielectric constant tensor:
#      x y z
#    x 1.674290 0.000000 0.000000 
#    y 0.000000 1.674290 0.000000 
#    z 0.000000 0.000000 1.718330 
# 
# From -- ./inp_files/1057.got.cif
#   From: 2010.05.17/outbox.cif.g08.bks.cpg/sg170_cif.got.tgz:1057.got - 2010.05.20 11:14:30.
