data_PCOD9580482
_publ_section_title
;
Structure prediction by ZEFSAII (Michael W. Deem and Ramdas Pophale) SiO2 
 PCOD9580482
Probable space group: P 62
;
_chemical_formula_sum "Si O2"
_cell_formula_units_Z 24
_cell_length_a 7.879018
_cell_length_b 7.879018
_cell_length_c 20.274889
_cell_angle_alpha 90.000000
_cell_angle_beta 90.000000
_cell_angle_gamma 120.000000
_cell_volume 1090.017078
_symmetry_space_group_name_H-M "P 62"
_symmetry_group_IT_number 171
_symmetry_cell_setting 'hexagonal'
loop_
_space_group_symop_operation_xyz
x,y,z
x-y,x,1/3+z
-y,x-y,2/3+z
-x,-y,z
-x+y,-x,1/3+z
y,-x+y,2/3+z
loop_
_atom_site_type_symbol
_atom_site_label
_atom_site_fract_x
_atom_site_fract_y
_atom_site_fract_z
Si Si1 0.913361 0.710011 0.803390
Si Si2 0.660095 0.727628 0.325084
Si Si3 0.106852 0.369932 0.232168
Si Si4 0.745488 0.271228 0.860364
O O1 0.862669 0.702029 0.726963
O O2 0.804232 0.788163 0.848806
O O3 0.827040 0.491862 0.834299
O O4 0.146658 0.806920 0.812414
O O5 0.500000 0.500000 0.340039
O O6 0.845769 0.718699 0.296101
O O7 0.569637 0.800260 0.267249
O O8 0.319605 0.516313 0.200500
O O9 0.000000 0.500000 0.244611
#
# Coordination Sequence:
#
# PCOD9580482 Si02
#       4
#     6   6   6   6
#     4  10  19  40  63  89 128 169 214 273 342 394
#     4  10  19  38  67  88 127 174 209 275 340 386
#     4   9  20  38  61  93 130 159 227 277 322 424
#     4   9  19  37  61  91 123 162 213 271 327 402
#
# _framework density 22.018001999999999
#
# number of rings (size 3 to 8) (size 9 to 14) (size 15 to 20)
#    0.000    2.500    2.500    0.000    0.000    1.000 
#   13.500    8.750    0.000    0.000    0.000    0.000 
#    0.000    0.000    0.000    0.000    0.000    0.000 
#
# Total GULP energy -133720.085547 kJ/mol
# GULP energy per Si atom -5571.670231 kJ/mol
# Density = 2.196789 g / cm^3
# Si number density = 22.018002 Si / 1000 Ang^3
#
#
#
# Elastic Constant Matrix: (Units=GPa)
#
#
# Indices 1 2 3 4 5 6 
#
# 1 86.6701 19.5566 36.8555 0.0000 0.0000 0.0000
# 2 19.5566 86.6701 36.8555 0.0000 0.0000 0.0000
# 3 36.8555 36.8555 141.1874 0.0000 0.0000 0.0000
# 4 0.0000 0.0000 0.0000 -16.5385 0.0000 0.0000
# 5 0.0000 0.0000 0.0000 0.0000 -16.5385 0.0000
# 6 0.0000 0.0000 0.0000 0.0000 0.0000 33.5568
#
#
#
# Elastic Compliance Matrix: (Units=1/GPa)
#
#
# Indices 1 2 3 4 5 6 
#
# 1 0.013198 -0.001702 -0.003001 0.000000 0.000000 0.000000
# 2 -0.001702 0.013198 -0.003001 0.000000 0.000000 0.000000
# 3 -0.003001 -0.003001 0.008650 0.000000 0.000000 0.000000
# 4 0.000000 0.000000 0.000000 -0.060465 0.000000 0.000000
# 5 0.000000 0.000000 0.000000 0.000000 -0.060465 0.000000
# 6 0.000000 0.000000 0.000000 0.000000 0.000000 0.029800
#
#
# Mechanical properties :
#
#
# Convention : Reuss Voigt Hill
#
# Bulk Modulus (GPa) = 50.92150 55.67364 53.29757
# Shear Modulus (GPa) = -146.49691 14.84664 -65.82513
#
# Velocity S-wave (km/s) = -8.16575 2.59954 -5.47366
# Velocity P-wave (km/s) = 8.10732 5.86093 3.96094
#
# Compressibility (1/GPa) = 0.01963807
#
# Stress axis : x y z
#
# Youngs Moduli (GPa) = 75.76813 75.76813 115.61333
#
# Poissons Ratio (x) = 0.12896 0.34695
# Poissons Ratio (y) = 0.12896 0.34695
# Poissons Ratio (z) = 0.22738 0.22738
#
# Static dielectric constant tensor:
#      x y z
#    x 1.962870 0.000000 0.000000 
#    y 0.000000 1.962870 0.000000 
#    z 0.000000 0.000000 1.750900 
# 
# From -- ./inp_files/2723.got.cif
#   From: 2010.05.17/outbox.cif.g08.bks.cpg/sg171_2_cif.got.tgz:2723.got - 2010.05.20 11:16:09.
