data_PCOD9580047
_publ_section_title
;
Structure prediction by ZEFSAII (Michael W. Deem and Ramdas Pophale) SiO2 
 PCOD9580047
Probable space group: P 61
;
_chemical_formula_sum "Si O2"
_cell_formula_units_Z 18
_cell_length_a 9.842339
_cell_length_b 9.842339
_cell_length_c 10.128723
_cell_angle_alpha 90.000000
_cell_angle_beta 90.000000
_cell_angle_gamma 120.000000
_cell_volume 849.731982
_symmetry_space_group_name_H-M "P 61"
_symmetry_group_IT_number 169
_symmetry_cell_setting 'hexagonal'
loop_
_space_group_symop_operation_xyz
x,y,z
x-y,x,1/6+z
-y,x-y,1/3+z
-x,-y,1/2+z
-x+y,-x,2/3+z
y,-x+y,5/6+z
loop_
_atom_site_type_symbol
_atom_site_label
_atom_site_fract_x
_atom_site_fract_y
_atom_site_fract_z
Si Si1 0.286167 0.088280 0.717910
Si Si2 0.178526 0.565610 0.499250
Si Si3 0.494688 0.560033 0.539907
O O1 0.184801 0.975833 0.602265
O O2 0.304656 0.968924 0.819031
O O3 0.466487 0.206931 0.683742
O O4 0.342837 0.571044 0.496185
O O5 0.078546 0.503398 0.364567
O O6 0.069166 0.479282 0.626271
#
# Coordination Sequence:
#
# PCOD9580047 Si02
#       3
#     6   6   6
#     4  10  24  42  72  98 152 182 238 292 360 414
#     4  10  24  40  71 105 143 184 239 295 351 423
#     4  10  24  40  71 105 143 184 239 295 351 423
#
# _framework density 21.183147999999999
#
# number of rings (size 3 to 8) (size 9 to 14) (size 15 to 20)
#    2.000    0.000    0.000    2.000    9.333    0.000 
#    0.000    3.333    0.000    0.000    0.000    0.000 
#    0.000    0.000    0.000    0.000    0.000    0.000 
#
# Total GULP energy -100206.624748 kJ/mol
# GULP energy per Si atom -5567.034708 kJ/mol
# Density = 2.113493 g / cm^3
# Si number density = 21.183148 Si / 1000 Ang^3
#
#
#
# Elastic Constant Matrix: (Units=GPa)
#
#
# Indices 1 2 3 4 5 6 
#
# 1 60.3570 49.7083 16.7259 0.0000 0.0000 0.0000
# 2 49.7083 60.3570 16.7259 0.0000 0.0000 0.0000
# 3 16.7259 16.7259 98.3748 0.0000 0.0000 0.0000
# 4 0.0000 0.0000 0.0000 40.6767 0.0000 0.0000
# 5 0.0000 0.0000 0.0000 0.0000 40.6767 0.0000
# 6 0.0000 0.0000 0.0000 0.0000 0.0000 5.3243
#
#
#
# Elastic Compliance Matrix: (Units=1/GPa)
#
#
# Indices 1 2 3 4 5 6 
#
# 1 0.051745 -0.042164 -0.001629 0.000000 0.000000 0.000000
# 2 -0.042164 0.051745 -0.001629 0.000000 0.000000 0.000000
# 3 -0.001629 -0.001629 0.010719 0.000000 0.000000 0.000000
# 4 0.000000 0.000000 0.000000 0.024584 0.000000 0.000000
# 5 0.000000 0.000000 0.000000 0.000000 0.024584 0.000000
# 6 0.000000 0.000000 0.000000 0.000000 0.000000 0.187817
#
#
# Mechanical properties :
#
#
# Convention : Reuss Voigt Hill
#
# Bulk Modulus (GPa) = 42.79975 42.82324 42.81149
# Shear Modulus (GPa) = 11.11543 26.39744 18.75644
#
# Velocity S-wave (km/s) = 2.29318 3.53392 2.97886
# Velocity P-wave (km/s) = 5.22112 6.07545 5.66441
#
# Compressibility (1/GPa) = 0.02336462
#
# Stress axis : x y z
#
# Youngs Moduli (GPa) = 19.32571 19.32571 93.29137
#
# Poissons Ratio (x) = 0.81485 0.15196
# Poissons Ratio (y) = 0.81485 0.15196
# Poissons Ratio (z) = 0.03148 0.03148
#
# Static dielectric constant tensor:
#      x y z
#    x 1.754600 0.000000 0.000000 
#    y 0.000000 1.754600 0.000000 
#    z 0.000000 0.000000 1.828950 
# 
# From -- ./inp_files/822.got.cif
#   From: 2010.05.17/outbox.cif.g08.bks.cpg/sg169_cif.got.tgz:822.got - 2010.05.20 11:12:54.
