data_PCOD9580709
_publ_section_title
;
Structure prediction by ZEFSAII (Michael W. Deem and Ramdas Pophale) SiO2 
 PCOD9580709
Probable space group: P 62
;
_chemical_formula_sum "Si O2"
_cell_formula_units_Z 33
_cell_length_a 12.586846
_cell_length_b 12.586846
_cell_length_c 10.237767
_cell_angle_alpha 90.000000
_cell_angle_beta 90.000000
_cell_angle_gamma 120.000000
_cell_volume 1404.655132
_symmetry_space_group_name_H-M "P 62"
_symmetry_group_IT_number 171
_symmetry_cell_setting 'hexagonal'
loop_
_space_group_symop_operation_xyz
x,y,z
x-y,x,1/3+z
-y,x-y,2/3+z
-x,-y,z
-x+y,-x,1/3+z
y,-x+y,2/3+z
loop_
_atom_site_type_symbol
_atom_site_label
_atom_site_fract_x
_atom_site_fract_y
_atom_site_fract_z
Si Si1 0.746407 0.030465 0.692630
Si Si2 0.028642 0.142684 0.108836
Si Si3 0.517821 0.633482 0.449866
Si Si4 0.500000 0.500000 0.925325
Si Si5 0.944810 0.234181 0.868410
Si Si6 0.361076 0.539437 0.693017
O O1 0.788899 0.994503 0.558396
O O2 0.842828 0.157886 0.760609
O O3 0.763093 0.937601 0.784465
O O4 0.615547 0.018118 0.674886
O O5 0.000000 0.000000 0.115777
O O6 0.972858 0.155770 0.972024
O O7 0.500000 0.500000 0.413221
O O8 0.663212 0.726117 0.456744
O O9 0.465357 0.629476 0.594607
O O10 0.449168 0.688704 0.366333
O O11 0.422501 0.539370 0.829921
O O12 0.904479 0.312639 0.957506
#
# Coordination Sequence:
#
# PCOD9580709 Si02
#       6
#     6   6   6   3   6   6
#     4  12  26  42  74 110 151 200 257 313 383 480
#     4  12  25  44  72 113 155 194 246 316 398 463
#     4  10  23  44  74 100 137 198 249 312 385 452
#     4  12  24  48  68 108 146 202 260 314 386 460
#     4  11  24  46  69 105 149 196 245 312 387 458
#     4  11  22  46  73  97 143 196 253 314 387 457
#
# _framework density 23.493314000000002
#
# number of rings (size 3 to 8) (size 9 to 14) (size 15 to 20)
#    0.000    0.727    4.545    3.818    5.091    3.636 
#    1.636    0.000    0.000    0.000    0.000    0.000 
#    0.000    0.000    0.000    0.000    0.000    0.000 
#
# Total GULP energy -184174.671476 kJ/mol
# GULP energy per Si atom -5581.050651 kJ/mol
# Density = 2.343984 g / cm^3
# Si number density = 23.493314 Si / 1000 Ang^3
#
#
#
# Elastic Constant Matrix: (Units=GPa)
#
#
# Indices 1 2 3 4 5 6 
#
# 1 123.7530 49.0355 32.0922 0.0000 0.0000 0.0000
# 2 49.0355 123.7530 32.0922 0.0000 0.0000 0.0000
# 3 32.0922 32.0922 35.1655 0.0000 0.0000 0.0000
# 4 0.0000 0.0000 0.0000 26.6525 0.0000 0.0000
# 5 0.0000 0.0000 0.0000 0.0000 26.6525 0.0000
# 6 0.0000 0.0000 0.0000 0.0000 0.0000 37.3587
#
#
#
# Elastic Compliance Matrix: (Units=1/GPa)
#
#
# Indices 1 2 3 4 5 6 
#
# 1 0.011070 -0.002314 -0.007990 0.000000 0.000000 0.000000
# 2 -0.002314 0.011070 -0.007990 0.000000 0.000000 0.000000
# 3 -0.007990 -0.007990 0.043021 0.000000 0.000000 0.000000
# 4 0.000000 0.000000 0.000000 0.037520 0.000000 0.000000
# 5 0.000000 0.000000 0.000000 0.000000 0.037520 0.000000
# 6 0.000000 0.000000 0.000000 0.000000 0.000000 0.026768
#
#
# Mechanical properties :
#
#
# Convention : Reuss Voigt Hill
#
# Bulk Modulus (GPa) = 35.00085 56.56792 45.78438
# Shear Modulus (GPa) = 23.46527 29.42953 26.44740
#
# Velocity S-wave (km/s) = 3.16382 3.54316 3.35885
# Velocity P-wave (km/s) = 5.31760 6.39290 5.87988
#
# Compressibility (1/GPa) = 0.02857073
#
# Stress axis : x y z
#
# Youngs Moduli (GPa) = 90.33711 90.33711 23.24442
#
# Poissons Ratio (x) = 0.20905 0.18573
# Poissons Ratio (y) = 0.20905 0.18573
# Poissons Ratio (z) = 0.72183 0.72183
#
# Static dielectric constant tensor:
#      x y z
#    x 2.021880 0.000000 0.000000 
#    y 0.000000 2.021880 0.000000 
#    z 0.000000 0.000000 1.934080 
# 
# From -- ./inp_files/1525.got.cif
#   From: 2010.05.17/outbox.cif.g08.bks.cpg/sg171_1_cif.got.tgz:1525.got - 2010.05.20 11:16:09.
