data_PCOD9580818
_publ_section_title
;
Structure prediction by ZEFSAII (Michael W. Deem and Ramdas Pophale) SiO2 
 PCOD9580818
Probable space group: P 62
;
_chemical_formula_sum "Si O2"
_cell_formula_units_Z 42
_cell_length_a 18.357607
_cell_length_b 18.357607
_cell_length_c 7.025668
_cell_angle_alpha 90.000000
_cell_angle_beta 90.000000
_cell_angle_gamma 120.000000
_cell_volume 2050.455703
_symmetry_space_group_name_H-M "P 62"
_symmetry_group_IT_number 171
_symmetry_cell_setting 'hexagonal'
loop_
_space_group_symop_operation_xyz
x,y,z
x-y,x,1/3+z
-y,x-y,2/3+z
-x,-y,z
-x+y,-x,1/3+z
y,-x+y,2/3+z
loop_
_atom_site_type_symbol
_atom_site_label
_atom_site_fract_x
_atom_site_fract_y
_atom_site_fract_z
Si Si1 0.308852 0.056167 0.575080
Si Si2 0.262894 0.652275 0.394595
Si Si3 0.299025 0.824624 0.210364
Si Si4 0.518059 0.927982 0.730785
Si Si5 0.161229 0.765506 0.904059
Si Si6 0.424624 0.507291 0.494554
Si Si7 0.135032 0.337252 0.180133
O O1 0.400331 0.068355 0.636157
O O2 0.319078 0.087922 0.356661
O O3 0.296834 0.120239 0.710725
O O4 0.237485 0.959380 0.587247
O O5 0.315418 0.620454 0.268917
O O6 0.271960 0.733352 0.288940
O O7 0.162125 0.593629 0.388690
O O8 0.393692 0.861956 0.149330
O O9 0.276587 0.868607 0.381193
O O10 0.244325 0.818287 0.028561
O O11 0.500000 0.000000 0.661884
O O12 0.536974 0.944201 0.955995
O O13 0.135315 0.667625 0.913566
O O14 0.178788 0.802050 0.692368
O O15 0.500000 0.500000 0.590485
#
# Coordination Sequence:
#
# PCOD9580818 Si02
#       7
#     6   6   6   6   6   6   6
#     4  11  25  46  69 105 133 181 231 282 361 427
#     4  12  25  43  61  87 128 178 238 289 349 398
#     4  11  24  40  60  96 129 188 236 291 343 397
#     4  11  25  41  61  93 131 184 242 289 350 402
#     4  11  23  45  67  95 138 180 237 285 343 413
#     4  11  23  39  62  94 134 183 239 285 341 399
#     4  11  25  44  74  98 141 178 231 291 352 427
#
# _framework density 20.483253000000001
#
# number of rings (size 3 to 8) (size 9 to 14) (size 15 to 20)
#    0.000    0.857    4.286    2.571    6.000    5.143 
#    0.000    1.429    0.000    0.000    0.000    5.000 
#    0.000    0.000    0.000    0.000    0.000    0.000 
#
# Total GULP energy -234677.371669 kJ/mol
# GULP energy per Si atom -5587.556468 kJ/mol
# Density = 2.043663 g / cm^3
# Si number density = 20.483253 Si / 1000 Ang^3
#
#
#
# Elastic Constant Matrix: (Units=GPa)
#
#
# Indices 1 2 3 4 5 6 
#
# 1 100.5396 45.8854 22.3362 0.0000 0.0000 0.0000
# 2 45.8854 100.5396 22.3362 0.0000 0.0000 0.0000
# 3 22.3362 22.3362 86.7649 0.0000 0.0000 0.0000
# 4 0.0000 0.0000 0.0000 20.1744 0.0000 0.0000
# 5 0.0000 0.0000 0.0000 0.0000 20.1744 0.0000
# 6 0.0000 0.0000 0.0000 0.0000 0.0000 27.3271
#
#
#
# Elastic Compliance Matrix: (Units=1/GPa)
#
#
# Indices 1 2 3 4 5 6 
#
# 1 0.012854 -0.005443 -0.001908 0.000000 0.000000 0.000000
# 2 -0.005443 0.012854 -0.001908 0.000000 0.000000 0.000000
# 3 -0.001908 -0.001908 0.012508 0.000000 0.000000 0.000000
# 4 0.000000 0.000000 0.000000 0.049568 0.000000 0.000000
# 5 0.000000 0.000000 0.000000 0.000000 0.049568 0.000000
# 6 0.000000 0.000000 0.000000 0.000000 0.000000 0.036594
#
#
# Mechanical properties :
#
#
# Convention : Reuss Voigt Hill
#
# Bulk Modulus (GPa) = 50.76423 52.10664 51.43543
# Shear Modulus (GPa) = 25.12200 26.68763 25.90481
#
# Velocity S-wave (km/s) = 3.50589 3.61349 3.56010
# Velocity P-wave (km/s) = 6.42071 6.55008 6.48572
#
# Compressibility (1/GPa) = 0.01969891
#
# Stress axis : x y z
#
# Youngs Moduli (GPa) = 77.79567 77.79567 79.95047
#
# Poissons Ratio (x) = 0.42342 0.15254
# Poissons Ratio (y) = 0.42342 0.15254
# Poissons Ratio (z) = 0.14843 0.14843
#
# Static dielectric constant tensor:
#      x y z
#    x 1.703810 0.000000 0.000000 
#    y 0.000000 1.703810 0.000000 
#    z 0.000000 0.000000 1.795730 
# 
# From -- ./inp_files/753.got.cif
#   From: 2010.05.17/outbox.cif.g08.bks.cpg/sg171_1_cif.got.tgz:753.got - 2010.05.20 11:16:09.
