data_PCOD9580205
_publ_section_title
;
Structure prediction by ZEFSAII (Michael W. Deem and Ramdas Pophale) SiO2 
 PCOD9580205
Probable space group: P 65
;
_chemical_formula_sum "Si O2"
_cell_formula_units_Z 36
_cell_length_a 14.060581
_cell_length_b 14.060581
_cell_length_c 7.798821
_cell_angle_alpha 90.000000
_cell_angle_beta 90.000000
_cell_angle_gamma 120.000000
_cell_volume 1335.260855
_symmetry_space_group_name_H-M "P 65"
_symmetry_group_IT_number 170
_symmetry_cell_setting 'hexagonal'
loop_
_space_group_symop_operation_xyz
x,y,z
x-y,x,5/6+z
-y,x-y,2/3+z
-x,-y,1/2+z
-x+y,-x,1/3+z
y,-x+y,1/6+z
loop_
_atom_site_type_symbol
_atom_site_label
_atom_site_fract_x
_atom_site_fract_y
_atom_site_fract_z
Si Si1 0.078260 0.655420 0.648420
Si Si2 0.797296 0.973701 0.160825
Si Si3 0.719948 0.403299 0.809014
Si Si4 0.437434 0.160036 0.028626
Si Si5 0.375596 0.941346 0.120743
Si Si6 0.906136 0.120445 0.830360
O O1 0.051145 0.727620 0.776813
O O2 0.210015 0.729996 0.611429
O O3 0.071711 0.551718 0.747028
O O4 0.996379 0.607373 0.480196
O O5 0.805577 0.863327 0.147147
O O6 0.864402 0.048377 0.999129
O O7 0.625060 0.325133 0.675373
O O8 0.810437 0.369723 0.754960
O O9 0.443770 0.265822 0.935863
O O10 0.383496 0.031278 0.982044
O O11 0.342741 0.141830 0.163132
O O12 0.036191 0.183477 0.843126
#
# Coordination Sequence:
#
# PCOD9580205 Si02
#       6
#     6   6   6   6   6   6
#     4  12  27  45  72 116 154 212 260 324 407 486
#     4  10  22  41  76 110 146 195 266 323 399 483
#     4  12  28  47  74 115 160 205 263 323 402 481
#     4  12  23  42  71 111 144 200 257 326 400 481
#     4  12  27  42  74 107 151 201 259 328 393 488
#     4  10  19  37  67 105 139 189 261 318 395 481
#
# _framework density 26.961023999999998
#
# number of rings (size 3 to 8) (size 9 to 14) (size 15 to 20)
#    0.000    0.667    6.667    1.000    4.667    0.000 
#    0.000    0.000    0.000   38.000    0.000    0.000 
#    0.000    0.000    0.000    0.000    0.000    0.000 
#
# Total GULP energy -200847.793482 kJ/mol
# GULP energy per Si atom -5579.105375 kJ/mol
# Density = 2.689966 g / cm^3
# Si number density = 26.961024 Si / 1000 Ang^3
#
#
#
# Elastic Constant Matrix: (Units=GPa)
#
#
# Indices 1 2 3 4 5 6 
#
# 1 164.6596 95.6303 41.1264 0.0000 0.0000 0.0000
# 2 95.6303 164.6596 41.1264 0.0000 0.0000 0.0000
# 3 41.1264 41.1264 132.2212 0.0000 0.0000 0.0000
# 4 0.0000 0.0000 0.0000 19.2821 0.0000 0.0000
# 5 0.0000 0.0000 0.0000 0.0000 19.2821 0.0000
# 6 0.0000 0.0000 0.0000 0.0000 0.0000 34.5146
#
#
#
# Elastic Compliance Matrix: (Units=1/GPa)
#
#
# Indices 1 2 3 4 5 6 
#
# 1 0.009374 -0.005113 -0.001325 0.000000 0.000000 0.000000
# 2 -0.005113 0.009374 -0.001325 0.000000 0.000000 0.000000
# 3 -0.001325 -0.001325 0.008387 0.000000 0.000000 0.000000
# 4 0.000000 0.000000 0.000000 0.051862 0.000000 0.000000
# 5 0.000000 0.000000 0.000000 0.000000 0.051862 0.000000
# 6 0.000000 0.000000 0.000000 0.000000 0.000000 0.028973
#
#
# Mechanical properties :
#
#
# Convention : Reuss Voigt Hill
#
# Bulk Modulus (GPa) = 86.14877 90.81186 88.48032
# Shear Modulus (GPa) = 27.89755 33.52626 30.71191
#
# Velocity S-wave (km/s) = 3.22022 3.53017 3.37875
# Velocity P-wave (km/s) = 6.77118 7.09731 6.93616
#
# Compressibility (1/GPa) = 0.01160783
#
# Stress axis : x y z
#
# Youngs Moduli (GPa) = 106.68228 106.68228 119.22504
#
# Poissons Ratio (x) = 0.54546 0.15800
# Poissons Ratio (y) = 0.54546 0.15800
# Poissons Ratio (z) = 0.14138 0.14138
#
# Static dielectric constant tensor:
#      x y z
#    x 2.142480 0.000000 0.000000 
#    y 0.000000 2.142480 0.000000 
#    z 0.000000 0.000000 2.290150 
# 
# From -- ./inp_files/630.got.cif
#   From: 2010.05.17/outbox.cif.g08.bks.cpg/sg170_cif.got.tgz:630.got - 2010.05.20 11:14:30.
