data_PCOD9580696
_publ_section_title
;
Structure prediction by ZEFSAII (Michael W. Deem and Ramdas Pophale) SiO2 
 PCOD9580696
Probable space group: P 62
;
_chemical_formula_sum "Si O2"
_cell_formula_units_Z 42
_cell_length_a 13.413757
_cell_length_b 13.413757
_cell_length_c 11.640280
_cell_angle_alpha 90.000000
_cell_angle_beta 90.000000
_cell_angle_gamma 120.000000
_cell_volume 1813.823097
_symmetry_space_group_name_H-M "P 62"
_symmetry_group_IT_number 171
_symmetry_cell_setting 'hexagonal'
loop_
_space_group_symop_operation_xyz
x,y,z
x-y,x,1/3+z
-y,x-y,2/3+z
-x,-y,z
-x+y,-x,1/3+z
y,-x+y,2/3+z
loop_
_atom_site_type_symbol
_atom_site_label
_atom_site_fract_x
_atom_site_fract_y
_atom_site_fract_z
Si Si1 0.790939 0.347749 0.629710
Si Si2 0.894218 0.539841 0.050490
Si Si3 0.375848 0.548187 0.038061
Si Si4 0.195547 0.721314 0.017840
Si Si5 0.800131 0.100224 0.196727
Si Si6 0.215667 0.350626 0.440410
Si Si7 0.305172 0.992397 0.615384
O O1 0.834338 0.403771 0.505789
O O2 0.665562 0.228898 0.631107
O O3 0.758746 0.429459 0.701556
O O4 0.880676 0.317473 0.687351
O O5 0.937848 0.624069 0.160896
O O6 0.758396 0.492956 0.037175
O O7 0.936351 0.621352 0.938242
O O8 0.111212 0.584898 0.045754
O O9 0.376714 0.437125 0.991769
O O10 0.181356 0.755711 0.889565
O O11 0.179507 0.803675 0.103765
O O12 0.915733 0.175638 0.270054
O O13 0.767332 0.981281 0.135294
O O14 0.100359 0.326537 0.376255
#
# Coordination Sequence:
#
# PCOD9580696 Si02
#       7
#     6   6   6   6   6   6   6
#     4  11  22  43  65 110 152 182 232 301 380 450
#     4  10  23  45  70 103 144 190 240 299 378 455
#     4  10  23  41  69 106 143 189 237 297 370 455
#     4  11  25  44  72 106 151 194 237 301 392 461
#     4  11  27  45  69 105 144 195 251 308 380 448
#     4  12  26  45  69 106 149 189 254 321 364 451
#     4  11  26  46  77 105 146 200 262 312 377 460
#
# _framework density 23.155511000000001
#
# number of rings (size 3 to 8) (size 9 to 14) (size 15 to 20)
#    0.000    1.143    2.857    1.714   12.000    5.714 
#    2.571    0.000    0.000   21.429    0.000    0.000 
#    0.000    0.000    0.000    0.000    0.000    0.000 
#
# Total GULP energy -234657.434082 kJ/mol
# GULP energy per Si atom -5587.081764 kJ/mol
# Density = 2.310281 g / cm^3
# Si number density = 23.155511 Si / 1000 Ang^3
#
#
#
# Elastic Constant Matrix: (Units=GPa)
#
#
# Indices 1 2 3 4 5 6 
#
# 1 101.1919 41.1282 33.2449 0.0000 0.0000 0.0000
# 2 41.1282 101.1919 33.2449 0.0000 0.0000 0.0000
# 3 33.2449 33.2449 102.7943 0.0000 0.0000 0.0000
# 4 0.0000 0.0000 0.0000 33.9226 0.0000 0.0000
# 5 0.0000 0.0000 0.0000 0.0000 33.9226 0.0000
# 6 0.0000 0.0000 0.0000 0.0000 0.0000 30.0319
#
#
#
# Elastic Compliance Matrix: (Units=1/GPa)
#
#
# Indices 1 2 3 4 5 6 
#
# 1 0.012463 -0.004186 -0.002677 0.000000 0.000000 0.000000
# 2 -0.004186 0.012463 -0.002677 0.000000 0.000000 0.000000
# 3 -0.002677 -0.002677 0.011460 0.000000 0.000000 0.000000
# 4 0.000000 0.000000 0.000000 0.029479 0.000000 0.000000
# 5 0.000000 0.000000 0.000000 0.000000 0.029479 0.000000
# 6 0.000000 0.000000 0.000000 0.000000 0.000000 0.033298
#
#
# Mechanical properties :
#
#
# Convention : Reuss Voigt Hill
#
# Bulk Modulus (GPa) = 57.78299 57.82378 57.80338
# Shear Modulus (GPa) = 32.57550 32.74608 32.66079
#
# Velocity S-wave (km/s) = 3.75482 3.76464 3.75973
# Velocity P-wave (km/s) = 6.61867 6.62743 6.62305
#
# Compressibility (1/GPa) = 0.01730613
#
# Stress axis : x y z
#
# Youngs Moduli (GPa) = 80.23750 80.23750 87.26274
#
# Poissons Ratio (x) = 0.33587 0.23359
# Poissons Ratio (y) = 0.33587 0.23359
# Poissons Ratio (z) = 0.21479 0.21479
#
# Static dielectric constant tensor:
#      x y z
#    x 1.936180 0.000000 0.000000 
#    y 0.000000 1.936180 0.000000 
#    z 0.000000 0.000000 1.919250 
# 
# From -- ./inp_files/4682.got.cif
#   From: 2010.05.17/outbox.cif.g08.bks.cpg/sg171_3_cif.got.tgz:4682.got - 2010.05.20 11:16:09.
