data_PCOD9580659
_publ_section_title
;
Structure prediction by ZEFSAII (Michael W. Deem and Ramdas Pophale) SiO2 
 PCOD9580659
Probable space group: P 62
;
_chemical_formula_sum "Si O2"
_cell_formula_units_Z 39
_cell_length_a 11.466111
_cell_length_b 11.466111
_cell_length_c 13.504601
_cell_angle_alpha 90.000000
_cell_angle_beta 90.000000
_cell_angle_gamma 120.000000
_cell_volume 1537.604610
_symmetry_space_group_name_H-M "P 62"
_symmetry_group_IT_number 171
_symmetry_cell_setting 'hexagonal'
loop_
_space_group_symop_operation_xyz
x,y,z
x-y,x,1/3+z
-y,x-y,2/3+z
-x,-y,z
-x+y,-x,1/3+z
y,-x+y,2/3+z
loop_
_atom_site_type_symbol
_atom_site_label
_atom_site_fract_x
_atom_site_fract_y
_atom_site_fract_z
Si Si1 0.289242 0.068701 0.349520
Si Si2 0.000000 0.000000 0.756957
Si Si3 0.168091 0.793774 0.393565
Si Si4 0.508279 0.684857 0.460101
Si Si5 0.916946 0.214716 0.808857
Si Si6 0.290237 0.645634 0.310548
Si Si7 0.760271 0.109601 0.608155
O O1 0.286682 0.929194 0.345371
O O2 0.126866 0.009864 0.362180
O O3 0.386408 0.155805 0.437093
O O4 0.343184 0.151939 0.248726
O O5 0.959474 0.097692 0.814705
O O6 0.220129 0.688583 0.396152
O O7 0.158339 0.845648 0.504132
O O8 0.041842 0.731022 0.318056
O O9 0.625221 0.647291 0.470641
O O10 0.408116 0.633530 0.365700
O O11 0.417062 0.662850 0.555769
O O12 0.851166 0.185399 0.702412
O O13 0.169997 0.507967 0.266699
#
# Coordination Sequence:
#
# PCOD9580659 Si02
#       7
#     6   3   6   6   6   6   6
#     4  11  24  42  75 108 150 189 251 310 391 458
#     4  10  22  40  72 108 154 188 236 308 390 464
#     4  12  26  49  77 111 150 206 262 324 397 476
#     4  11  27  47  76 108 148 208 251 326 392 463
#     4  11  25  44  74 116 150 195 253 323 397 461
#     4  12  26  54  72 105 156 205 270 322 386 480
#     4  12  29  47  79 111 154 209 264 328 402 481
#
# _framework density 25.364128000000001
#
# number of rings (size 3 to 8) (size 9 to 14) (size 15 to 20)
#    0.000    0.615    4.615    1.846    8.615    1.231 
#    2.769    0.000    0.000    0.000    0.000    0.000 
#    0.000    0.000    0.000    0.000    0.000    0.000 
#
# Total GULP energy -217183.148379 kJ/mol
# GULP energy per Si atom -5568.798676 kJ/mol
# Density = 2.530640 g / cm^3
# Si number density = 25.364128 Si / 1000 Ang^3
#
#
#
# Elastic Constant Matrix: (Units=GPa)
#
#
# Indices 1 2 3 4 5 6 
#
# 1 71.2574 7.0820 25.2366 0.0000 0.0000 0.0000
# 2 7.0820 71.2574 25.2366 0.0000 0.0000 0.0000
# 3 25.2366 25.2366 166.4723 0.0000 0.0000 0.0000
# 4 0.0000 0.0000 0.0000 25.0749 0.0000 0.0000
# 5 0.0000 0.0000 0.0000 0.0000 25.0749 0.0000
# 6 0.0000 0.0000 0.0000 0.0000 0.0000 32.0877
#
#
#
# Elastic Compliance Matrix: (Units=1/GPa)
#
#
# Indices 1 2 3 4 5 6 
#
# 1 0.014864 -0.000718 -0.002145 0.000000 0.000000 0.000000
# 2 -0.000718 0.014864 -0.002145 0.000000 0.000000 0.000000
# 3 -0.002145 -0.002145 0.006657 0.000000 0.000000 0.000000
# 4 0.000000 0.000000 0.000000 0.039880 0.000000 0.000000
# 5 0.000000 0.000000 0.000000 0.000000 0.039880 0.000000
# 6 0.000000 0.000000 0.000000 0.000000 0.000000 0.031165
#
#
# Mechanical properties :
#
#
# Convention : Reuss Voigt Hill
#
# Bulk Modulus (GPa) = 37.91864 47.12197 42.52031
# Shear Modulus (GPa) = 30.09936 33.20964 31.65450
#
# Velocity S-wave (km/s) = 3.44857 3.62237 3.53654
# Velocity P-wave (km/s) = 5.55329 6.00949 5.78589
#
# Compressibility (1/GPa) = 0.02637225
#
# Stress axis : x y z
#
# Youngs Moduli (GPa) = 67.27442 67.27442 150.21266
#
# Poissons Ratio (x) = 0.04829 0.32214
# Poissons Ratio (y) = 0.04829 0.32214
# Poissons Ratio (z) = 0.14428 0.14428
#
# Static dielectric constant tensor:
#      x y z
#    x 2.177460 0.000000 0.000000 
#    y 0.000000 2.177460 0.000000 
#    z 0.000000 0.000000 2.033830 
# 
# From -- ./inp_files/2004.got.cif
#   From: 2010.05.17/outbox.cif.g08.bks.cpg/sg171_2_cif.got.tgz:2004.got - 2010.05.20 11:16:09.
