data_PCOD9580002
_publ_section_title
;
Structure prediction by ZEFSAII (Michael W. Deem and Ramdas Pophale) SiO2 
 PCOD9580002
Probable space group: P 61
;
_chemical_formula_sum "Si O2"
_cell_formula_units_Z 48
_cell_length_a 17.758083
_cell_length_b 17.758083
_cell_length_c 7.914473
_cell_angle_alpha 90.000000
_cell_angle_beta 90.000000
_cell_angle_gamma 120.000000
_cell_volume 2161.448024
_symmetry_space_group_name_H-M "P 61"
_symmetry_group_IT_number 169
_symmetry_cell_setting 'hexagonal'
loop_
_space_group_symop_operation_xyz
x,y,z
x-y,x,1/6+z
-y,x-y,1/3+z
-x,-y,1/2+z
-x+y,-x,2/3+z
y,-x+y,5/6+z
loop_
_atom_site_type_symbol
_atom_site_label
_atom_site_fract_x
_atom_site_fract_y
_atom_site_fract_z
Si Si1 0.684967 0.294038 0.470740
Si Si2 0.869493 0.232828 0.062411
Si Si3 0.139458 0.964809 0.073242
Si Si4 0.661865 0.792859 0.901622
Si Si5 0.390136 0.508413 0.726158
Si Si6 0.297975 0.435124 0.377160
Si Si7 0.751262 0.063740 0.288757
Si Si8 0.382082 0.967094 0.045119
O O1 0.689431 0.363032 0.608960
O O2 0.600122 0.205596 0.528547
O O3 0.771598 0.289315 0.496790
O O4 0.807778 0.180838 0.906626
O O5 0.870679 0.324905 0.044496
O O6 0.822406 0.156065 0.205772
O O7 0.971385 0.263830 0.021472
O O8 0.210755 0.965564 0.945998
O O9 0.052122 0.906462 0.970342
O O10 0.160451 0.925778 0.239113
O O11 0.641532 0.844567 0.757871
O O12 0.610730 0.692229 0.853237
O O13 0.353447 0.456549 0.550093
O O14 0.490687 0.536807 0.744502
O O15 0.342728 0.409927 0.232048
O O16 0.669856 0.069615 0.368699
#
# Coordination Sequence:
#
# PCOD9580002 Si02
#       8
#     6   6   6   6   6   6   6   6
#     4  10  22  44  67  96 138 185 234 293 365 435
#     4  11  26  44  69 104 141 183 238 296 358 424
#     4  11  23  45  67  99 138 187 237 288 356 430
#     4  10  22  43  70  94 138 179 233 284 357 423
#     4  10  24  44  64 100 139 173 235 290 354 431
#     4  10  22  42  67  98 135 183 226 296 358 428
#     4  11  25  44  71 102 139 184 233 297 355 437
#     4  11  24  42  73  99 136 182 234 290 359 440
#
# _framework density 22.207332999999998
#
# number of rings (size 3 to 8) (size 9 to 14) (size 15 to 20)
#    0.000    1.500    2.500    1.500    8.750    3.000 
#    2.250    0.000    0.000    0.000    0.000    0.000 
#    0.000    0.000    0.000    0.000    0.000    0.000 
#
# Total GULP energy -267712.887853 kJ/mol
# GULP energy per Si atom -5577.351830 kJ/mol
# Density = 2.215679 g / cm^3
# Si number density = 22.207333 Si / 1000 Ang^3
#
#
#
# Elastic Constant Matrix: (Units=GPa)
#
#
# Indices 1 2 3 4 5 6 
#
# 1 95.5412 34.5164 15.3794 0.0000 0.0000 0.0000
# 2 34.5164 95.5412 15.3794 0.0000 0.0000 0.0000
# 3 15.3794 15.3794 55.9045 0.0000 0.0000 0.0000
# 4 0.0000 0.0000 0.0000 26.8615 0.0000 0.0000
# 5 0.0000 0.0000 0.0000 0.0000 26.8615 0.0000
# 6 0.0000 0.0000 0.0000 0.0000 0.0000 30.5124
#
#
#
# Elastic Compliance Matrix: (Units=1/GPa)
#
#
# Indices 1 2 3 4 5 6 
#
# 1 0.012305 -0.004081 -0.002262 0.000000 0.000000 0.000000
# 2 -0.004081 0.012305 -0.002262 0.000000 0.000000 0.000000
# 3 -0.002262 -0.002262 0.019132 0.000000 0.000000 0.000000
# 4 0.000000 0.000000 0.000000 0.037228 0.000000 0.000000
# 5 0.000000 0.000000 0.000000 0.000000 0.037228 0.000000
# 6 0.000000 0.000000 0.000000 0.000000 0.000000 0.032774
#
#
# Mechanical properties :
#
#
# Convention : Reuss Voigt Hill
#
# Bulk Modulus (GPa) = 37.69220 41.94857 39.82038
# Shear Modulus (GPa) = 28.24402 28.96122 28.60262
#
# Velocity S-wave (km/s) = 3.57015 3.61519 3.59274
# Velocity P-wave (km/s) = 5.83132 6.02965 5.93131
#
# Compressibility (1/GPa) = 0.02653069
#
# Stress axis : x y z
#
# Youngs Moduli (GPa) = 81.26532 81.26532 52.26726
#
# Poissons Ratio (x) = 0.33168 0.11825
# Poissons Ratio (y) = 0.33168 0.11825
# Poissons Ratio (z) = 0.18386 0.18386
#
# Static dielectric constant tensor:
#      x y z
#    x 1.849360 0.000000 0.000000 
#    y 0.000000 1.849360 0.000000 
#    z 0.000000 0.000000 1.914940 
# 
# From -- ./inp_files/762.got.cif
#   From: 2010.05.17/outbox.cif.g08.bks.cpg/sg169_cif.got.tgz:762.got - 2010.05.20 11:12:54.
