data_PCOD9580178
_publ_section_title
;
Structure prediction by ZEFSAII (Michael W. Deem and Ramdas Pophale) SiO2 
 PCOD9580178
Probable space group: P 65
;
_chemical_formula_sum "Si O2"
_cell_formula_units_Z 48
_cell_length_a 17.097607
_cell_length_b 17.097607
_cell_length_c 8.540392
_cell_angle_alpha 90.000000
_cell_angle_beta 90.000000
_cell_angle_gamma 120.000000
_cell_volume 2162.116531
_symmetry_space_group_name_H-M "P 65"
_symmetry_group_IT_number 170
_symmetry_cell_setting 'hexagonal'
loop_
_space_group_symop_operation_xyz
x,y,z
x-y,x,5/6+z
-y,x-y,2/3+z
-x,-y,1/2+z
-x+y,-x,1/3+z
y,-x+y,1/6+z
loop_
_atom_site_type_symbol
_atom_site_label
_atom_site_fract_x
_atom_site_fract_y
_atom_site_fract_z
Si Si1 0.305840 0.743278 0.815530
Si Si2 0.109723 0.437113 0.715147
Si Si3 0.875352 0.412117 0.389971
Si Si4 0.237180 0.367484 0.083641
Si Si5 0.771440 0.060064 0.795609
Si Si6 0.232544 0.545633 0.155013
Si Si7 0.813185 0.915943 0.364448
Si Si8 0.944113 0.293361 0.561030
O O1 0.204386 0.664520 0.786712
O O2 0.365083 0.695412 0.833140
O O3 0.340752 0.807177 0.663364
O O4 0.302751 0.796884 0.967018
O O5 0.070195 0.499741 0.780788
O O6 0.112068 0.381992 0.864011
O O7 0.050014 0.358228 0.593951
O O8 0.827221 0.440752 0.525177
O O9 0.919054 0.358821 0.468943
O O10 0.129156 0.302389 0.097380
O O11 0.270902 0.367521 0.905078
O O12 0.277740 0.313300 0.174259
O O13 0.253666 0.465356 0.122496
O O14 0.844698 0.058420 0.677524
O O15 0.860284 0.879924 0.245992
O O16 0.720153 0.915885 0.322186
#
# Coordination Sequence:
#
# PCOD9580178 Si02
#       8
#     6   6   6   6   6   6   6   6
#     4  12  24  39  59  90 128 171 219 267 326 391
#     4  11  22  42  63  95 131 172 223 272 334 401
#     4  12  23  39  64  92 131 171 226 274 319 398
#     4  10  20  36  61  93 123 169 213 276 333 398
#     4  10  18  37  66  94 124 163 222 272 332 407
#     4  12  23  38  61  91 129 176 217 273 328 391
#     4  11  20  38  71 103 127 173 224 287 346 421
#     4  10  24  39  69  96 131 169 224 283 338 409
#
# _framework density 22.200469999999999
#
# number of rings (size 3 to 8) (size 9 to 14) (size 15 to 20)
#    0.000    1.000    7.500    2.250    0.000    3.000 
#    0.000    1.250    2.750    0.000    0.000    0.000 
#    0.000    0.000    0.000    0.000    0.000    0.000 
#
# Total GULP energy -267625.800070 kJ/mol
# GULP energy per Si atom -5575.537501 kJ/mol
# Density = 2.214994 g / cm^3
# Si number density = 22.200470 Si / 1000 Ang^3
#
#
#
# Elastic Constant Matrix: (Units=GPa)
#
#
# Indices 1 2 3 4 5 6 
#
# 1 95.6869 21.4716 3.2645 0.0000 0.0000 0.0000
# 2 21.4716 95.6869 3.2645 0.0000 0.0000 0.0000
# 3 3.2645 3.2645 30.7545 0.0000 0.0000 0.0000
# 4 0.0000 0.0000 0.0000 18.4221 0.0000 0.0000
# 5 0.0000 0.0000 0.0000 0.0000 18.4221 0.0000
# 6 0.0000 0.0000 0.0000 0.0000 0.0000 37.1076
#
#
#
# Elastic Compliance Matrix: (Units=1/GPa)
#
#
# Indices 1 2 3 4 5 6 
#
# 1 0.011030 -0.002444 -0.000911 0.000000 0.000000 0.000000
# 2 -0.002444 0.011030 -0.000911 0.000000 0.000000 0.000000
# 3 -0.000911 -0.000911 0.032709 0.000000 0.000000 0.000000
# 4 0.000000 0.000000 0.000000 0.054282 0.000000 0.000000
# 5 0.000000 0.000000 0.000000 0.000000 0.054282 0.000000
# 6 0.000000 0.000000 0.000000 0.000000 0.000000 0.026949
#
#
# Mechanical properties :
#
#
# Convention : Reuss Voigt Hill
#
# Bulk Modulus (GPa) = 21.62824 30.90329 26.26576
# Shear Modulus (GPa) = 23.33952 27.73223 25.53588
#
# Velocity S-wave (km/s) = 3.24591 3.53820 3.39520
# Velocity P-wave (km/s) = 4.87968 5.53553 5.21792
#
# Compressibility (1/GPa) = 0.04623585
#
# Stress axis : x y z
#
# Youngs Moduli (GPa) = 90.65956 90.65956 30.57261
#
# Poissons Ratio (x) = 0.22158 0.02786
# Poissons Ratio (y) = 0.22158 0.02786
# Poissons Ratio (z) = 0.08263 0.08263
#
# Static dielectric constant tensor:
#      x y z
#    x 1.856170 0.000000 0.000000 
#    y 0.000000 1.856170 0.000000 
#    z 0.000000 0.000000 1.901430 
# 
# From -- ./inp_files/724.got.cif
#   From: 2010.05.17/outbox.cif.g08.bks.cpg/sg170_cif.got.tgz:724.got - 2010.05.20 11:14:30.
