data_PCOD9580308
_publ_section_title
;
Structure prediction by ZEFSAII (Michael W. Deem and Ramdas Pophale) SiO2 
 PCOD9580308
Probable space group: P 65
;
_chemical_formula_sum "Si O2"
_cell_formula_units_Z 36
_cell_length_a 13.521967
_cell_length_b 13.521967
_cell_length_c 8.581976
_cell_angle_alpha 90.000000
_cell_angle_beta 90.000000
_cell_angle_gamma 120.000000
_cell_volume 1358.931829
_symmetry_space_group_name_H-M "P 65"
_symmetry_group_IT_number 170
_symmetry_cell_setting 'hexagonal'
loop_
_space_group_symop_operation_xyz
x,y,z
x-y,x,5/6+z
-y,x-y,2/3+z
-x,-y,1/2+z
-x+y,-x,1/3+z
y,-x+y,1/6+z
loop_
_atom_site_type_symbol
_atom_site_label
_atom_site_fract_x
_atom_site_fract_y
_atom_site_fract_z
Si Si1 0.914039 0.549266 0.485910
Si Si2 0.103124 0.221803 0.630032
Si Si3 0.994536 0.193778 0.968528
Si Si4 0.148513 0.422085 0.444328
Si Si5 0.729493 0.326280 0.900775
Si Si6 0.059431 0.613143 0.757062
O O1 0.997537 0.683630 0.464106
O O2 0.788846 0.522554 0.538264
O O3 0.974348 0.525940 0.629941
O O4 0.899418 0.459788 0.355447
O O5 0.171784 0.154694 0.651811
O O6 0.053532 0.199651 0.803530
O O7 0.148582 0.356509 0.601450
O O8 0.876143 0.075657 0.944623
O O9 0.170493 0.550256 0.453230
O O10 0.266422 0.435131 0.372865
O O11 0.027581 0.360434 0.355311
O O12 0.701646 0.350449 0.722439
#
# Coordination Sequence:
#
# PCOD9580308 Si02
#       6
#     6   6   6   6   6   6
#     4  12  30  49  78 119 164 218 277 348 425 514
#     4  10  22  46  77 116 159 219 281 351 429 509
#     4  10  26  50  81 115 162 214 282 347 427 507
#     4  12  26  47  75 115 157 213 276 340 420 506
#     4  12  28  50  79 119 167 218 277 345 428 506
#     4  12  30  46  78 112 159 216 271 347 419 506
#
# _framework density 26.491395000000001
#
# number of rings (size 3 to 8) (size 9 to 14) (size 15 to 20)
#    0.000    0.667    5.000    0.000   11.667    0.000 
#    0.000   10.000    0.000    0.000    0.000    0.000 
#    0.000    0.000    0.000    0.000    0.000    0.000 
#
# Total GULP energy -200601.924971 kJ/mol
# GULP energy per Si atom -5572.275694 kJ/mol
# Density = 2.643110 g / cm^3
# Si number density = 26.491395 Si / 1000 Ang^3
#
#
#
# Elastic Constant Matrix: (Units=GPa)
#
#
# Indices 1 2 3 4 5 6 
#
# 1 106.3006 65.6787 24.6588 0.0000 0.0000 0.0000
# 2 65.6787 106.3006 24.6588 0.0000 0.0000 0.0000
# 3 24.6588 24.6588 77.5111 0.0000 0.0000 0.0000
# 4 0.0000 0.0000 0.0000 36.5269 0.0000 0.0000
# 5 0.0000 0.0000 0.0000 0.0000 36.5269 0.0000
# 6 0.0000 0.0000 0.0000 0.0000 0.0000 20.3110
#
#
#
# Elastic Compliance Matrix: (Units=1/GPa)
#
#
# Indices 1 2 3 4 5 6 
#
# 1 0.015508 -0.009109 -0.002036 0.000000 0.000000 0.000000
# 2 -0.009109 0.015508 -0.002036 0.000000 0.000000 0.000000
# 3 -0.002036 -0.002036 0.014197 0.000000 0.000000 0.000000
# 4 0.000000 0.000000 0.000000 0.027377 0.000000 0.000000
# 5 0.000000 0.000000 0.000000 0.000000 0.027377 0.000000
# 6 0.000000 0.000000 0.000000 0.000000 0.000000 0.049235
#
#
# Mechanical properties :
#
#
# Convention : Reuss Voigt Hill
#
# Bulk Modulus (GPa) = 53.04717 57.78942 55.41830
# Shear Modulus (GPa) = 27.49587 30.34737 28.92162
#
# Velocity S-wave (km/s) = 3.22517 3.38828 3.30773
# Velocity P-wave (km/s) = 5.82552 6.09664 5.96262
#
# Compressibility (1/GPa) = 0.01885115
#
# Stress axis : x y z
#
# Youngs Moduli (GPa) = 64.48363 64.48363 70.43983
#
# Poissons Ratio (x) = 0.58741 0.14338
# Poissons Ratio (y) = 0.58741 0.14338
# Poissons Ratio (z) = 0.13126 0.13126
#
# Static dielectric constant tensor:
#      x y z
#    x 2.195580 0.000000 0.000000 
#    y 0.000000 2.195580 0.000000 
#    z 0.000000 0.000000 2.144630 
# 
# From -- ./inp_files/570.got.cif
#   From: 2010.05.17/outbox.cif.g08.bks.cpg/sg170_cif.got.tgz:570.got - 2010.05.20 11:14:30.
