data_PCOD9580084
_publ_section_title
;
Structure prediction by ZEFSAII (Michael W. Deem and Ramdas Pophale) SiO2 
 PCOD9580084
Probable space group: P 61
;
_chemical_formula_sum "Si O2"
_cell_formula_units_Z 42
_cell_length_a 16.823044
_cell_length_b 16.823044
_cell_length_c 8.085034
_cell_angle_alpha 90.000000
_cell_angle_beta 90.000000
_cell_angle_gamma 120.000000
_cell_volume 1981.625781
_symmetry_space_group_name_H-M "P 61"
_symmetry_group_IT_number 169
_symmetry_cell_setting 'hexagonal'
loop_
_space_group_symop_operation_xyz
x,y,z
x-y,x,1/6+z
-y,x-y,1/3+z
-x,-y,1/2+z
-x+y,-x,2/3+z
y,-x+y,5/6+z
loop_
_atom_site_type_symbol
_atom_site_label
_atom_site_fract_x
_atom_site_fract_y
_atom_site_fract_z
Si Si1 0.348702 0.053101 0.549330
Si Si2 0.236046 0.872524 0.342647
Si Si3 0.568238 0.351715 0.431755
Si Si4 0.607626 0.625599 0.737177
Si Si5 0.449916 0.149756 0.886929
Si Si6 0.063839 0.549462 0.172172
Si Si7 0.336653 0.761528 0.885648
O O1 0.323984 0.128477 0.481358
O O2 0.382196 0.099380 0.732213
O O3 0.439616 0.059955 0.467224
O O4 0.271314 0.949281 0.490689
O O5 0.282067 0.806711 0.362026
O O6 0.282057 0.925812 0.172016
O O7 0.610645 0.452133 0.507925
O O8 0.543731 0.347003 0.237746
O O9 0.647741 0.323936 0.427838
O O10 0.689336 0.605033 0.704703
O O11 0.549828 0.592662 0.568079
O O12 0.542226 0.545024 0.862193
O O13 0.493015 0.252985 0.956510
O O14 0.169555 0.597634 0.117694
#
# Coordination Sequence:
#
# PCOD9580084 Si02
#       7
#     6   6   6   6   6   6   6
#     4  11  24  44  65  93 127 173 224 287 360 420
#     4  11  24  43  69  90 128 167 223 288 355 423
#     4  12  21  38  57  90 132 184 230 277 323 390
#     4  11  24  36  59  88 126 173 221 279 334 394
#     4  12  25  38  60  94 133 184 234 284 328 397
#     4  11  21  39  57  85 127 170 225 272 328 393
#     4  12  23  34  59  90 131 183 237 275 316 393
#
# _framework density 21.19472
#
# number of rings (size 3 to 8) (size 9 to 14) (size 15 to 20)
#    0.000    0.571    5.714    3.429    2.000    3.429 
#    0.000    0.000    0.000    0.000    0.000    2.000 
#    0.000    0.000    0.000    0.000    0.000    0.000 
#
# Total GULP energy -233815.647900 kJ/mol
# GULP energy per Si atom -5567.039236 kJ/mol
# Density = 2.114648 g / cm^3
# Si number density = 21.194720 Si / 1000 Ang^3
#
#
#
# Elastic Constant Matrix: (Units=GPa)
#
#
# Indices 1 2 3 4 5 6 
#
# 1 76.8991 8.2142 21.2791 0.0000 0.0000 0.0000
# 2 8.2142 76.8991 21.2791 0.0000 0.0000 0.0000
# 3 21.2791 21.2791 72.9523 0.0000 0.0000 0.0000
# 4 0.0000 0.0000 0.0000 33.0446 0.0000 0.0000
# 5 0.0000 0.0000 0.0000 0.0000 33.0446 0.0000
# 6 0.0000 0.0000 0.0000 0.0000 0.0000 34.3424
#
#
#
# Elastic Compliance Matrix: (Units=1/GPa)
#
#
# Indices 1 2 3 4 5 6 
#
# 1 0.014157 -0.000402 -0.004012 0.000000 0.000000 0.000000
# 2 -0.000402 0.014157 -0.004012 0.000000 0.000000 0.000000
# 3 -0.004012 -0.004012 0.016048 0.000000 0.000000 0.000000
# 4 0.000000 0.000000 0.000000 0.030262 0.000000 0.000000
# 5 0.000000 0.000000 0.000000 0.000000 0.030262 0.000000
# 6 0.000000 0.000000 0.000000 0.000000 0.000000 0.029118
#
#
# Mechanical properties :
#
#
# Convention : Reuss Voigt Hill
#
# Bulk Modulus (GPa) = 36.35063 36.47726 36.41395
# Shear Modulus (GPa) = 31.24454 31.81823 31.53138
#
# Velocity S-wave (km/s) = 3.84365 3.87878 3.86126
# Velocity P-wave (km/s) = 6.07340 6.10801 6.09073
#
# Compressibility (1/GPa) = 0.02750984
#
# Stress axis : x y z
#
# Youngs Moduli (GPa) = 70.63535 70.63535 62.31241
#
# Poissons Ratio (x) = 0.02840 0.25001
# Poissons Ratio (y) = 0.02840 0.25001
# Poissons Ratio (z) = 0.28340 0.28340
#
# Static dielectric constant tensor:
#      x y z
#    x 1.880620 0.000000 0.000000 
#    y 0.000000 1.880620 0.000000 
#    z 0.000000 0.000000 1.957790 
# 
# From -- ./inp_files/711.got.cif
#   From: 2010.05.17/outbox.cif.g08.bks.cpg/sg169_cif.got.tgz:711.got - 2010.05.20 11:12:54.
