data_PCOD9580999
_publ_section_title
;
Structure prediction by ZEFSAII (Michael W. Deem and Ramdas Pophale) SiO2 
 PCOD9580999
Probable space group: P 64
;
_chemical_formula_sum "Si O2"
_cell_formula_units_Z 42
_cell_length_a 8.705917
_cell_length_b 8.705917
_cell_length_c 29.628270
_cell_angle_alpha 90.000000
_cell_angle_beta 90.000000
_cell_angle_gamma 120.000000
_cell_volume 1944.759807
_symmetry_space_group_name_H-M "P 64"
_symmetry_group_IT_number 172
_symmetry_cell_setting 'hexagonal'
loop_
_space_group_symop_operation_xyz
x,y,z
x-y,x,2/3+z
-y,x-y,1/3+z
-x,-y,z
-x+y,-x,2/3+z
y,-x+y,1/3+z
loop_
_atom_site_type_symbol
_atom_site_label
_atom_site_fract_x
_atom_site_fract_y
_atom_site_fract_z
Si Si1 0.737952 0.943532 0.909530
Si Si2 0.214632 0.113901 0.394948
Si Si3 0.500000 0.000000 0.360946
Si Si4 0.500000 0.000000 0.495069
Si Si5 0.071894 0.757615 0.973884
Si Si6 0.296007 0.614571 0.618052
Si Si7 0.713866 0.113985 0.817259
Si Si8 0.192799 0.374439 0.895046
O O1 0.550441 0.859572 0.933609
O O2 0.778299 0.791810 0.892066
O O3 0.863786 0.052498 0.950978
O O4 0.750937 0.065736 0.867406
O O5 0.267251 0.265097 0.357120
O O6 0.255545 0.197501 0.444620
O O7 0.344047 0.026537 0.385887
O O8 0.000000 0.000000 0.390310
O O9 0.395055 0.833421 0.327544
O O10 0.510610 0.181664 0.476534
O O11 0.684117 0.083055 0.522489
O O12 0.228639 0.716579 0.965570
O O13 0.909849 0.638832 0.941363
O O14 0.200768 0.639388 0.573537
O O15 0.500000 0.000000 0.812015
#
# Coordination Sequence:
#
# PCOD9580999 Si02
#       8
#     6   6   3   3   6   6   6   6
#     4  12  24  43  72 109 150 186 249 318 370 446
#     4  12  29  50  74 107 146 201 253 304 382 465
#     4  12  25  46  76 104 150 194 252 308 373 444
#     4  12  25  46  76 106 146 194 248 304 375 452
#     4  12  23  41  71 103 145 187 244 303 373 438
#     4  12  22  40  72 111 143 187 243 311 369 444
#     4  12  29  50  74 106 150 199 249 310 387 456
#     4  12  21  38  71 105 138 186 240 299 369 434
#
# _framework density 21.596495000000001
#
# number of rings (size 3 to 8) (size 9 to 14) (size 15 to 20)
#    0.000    0.000    5.714    4.714    4.000    0.000 
#    0.000    0.000    0.000    0.000    0.000    0.000 
#    0.000    0.000    0.000    0.000    0.000    0.000 
#
# Total GULP energy -234109.275253 kJ/mol
# GULP energy per Si atom -5574.030363 kJ/mol
# Density = 2.154734 g / cm^3
# Si number density = 21.596495 Si / 1000 Ang^3
#
#
#
# Elastic Constant Matrix: (Units=GPa)
#
#
# Indices 1 2 3 4 5 6 
#
# 1 111.8596 46.0885 8.4458 0.0000 0.0000 0.0000
# 2 46.0885 111.8596 8.4458 0.0000 0.0000 0.0000
# 3 8.4458 8.4458 59.9360 0.0000 0.0000 0.0000
# 4 0.0000 0.0000 0.0000 -3.8234 0.0000 0.0000
# 5 0.0000 0.0000 0.0000 0.0000 -3.8234 0.0000
# 6 0.0000 0.0000 0.0000 0.0000 0.0000 32.8855
#
#
#
# Elastic Compliance Matrix: (Units=1/GPa)
#
#
# Indices 1 2 3 4 5 6 
#
# 1 0.010816 -0.004388 -0.000906 0.000000 0.000000 0.000000
# 2 -0.004388 0.010816 -0.000906 0.000000 0.000000 0.000000
# 3 -0.000906 -0.000906 0.016940 0.000000 0.000000 0.000000
# 4 0.000000 0.000000 0.000000 -0.261547 0.000000 0.000000
# 5 0.000000 0.000000 0.000000 0.000000 -0.261547 0.000000
# 6 0.000000 0.000000 0.000000 0.000000 0.000000 0.030408
#
#
# Mechanical properties :
#
#
# Convention : Reuss Voigt Hill
#
# Bulk Modulus (GPa) = 38.20779 45.51282 41.86030
# Shear Modulus (GPa) = -11.54762 19.75942 4.10590
#
# Velocity S-wave (km/s) = -2.31486 3.02807 1.38033
# Velocity P-wave (km/s) = 3.25350 5.77456 4.68673
#
# Compressibility (1/GPa) = 0.02617267
#
# Stress axis : x y z
#
# Youngs Moduli (GPa) = 92.45430 92.45430 59.03276
#
# Poissons Ratio (x) = 0.40570 0.05347
# Poissons Ratio (y) = 0.40570 0.05347
# Poissons Ratio (z) = 0.08374 0.08374
#
# Static dielectric constant tensor:
#      x y z
#    x 1.829660 0.000000 0.000000 
#    y 0.000000 1.829660 0.000000 
#    z 0.000000 0.000000 1.746060 
# 
# From -- ./inp_files/2999.got.cif
#   From: 2010.05.17/outbox.cif.g08.bks.cpg/sg172_2_cif.got.tgz:2999.got - 2010.05.20 11:19:57.
