data_PCOD9580029
_publ_section_title
;
Structure prediction by ZEFSAII (Michael W. Deem and Ramdas Pophale) SiO2 
 PCOD9580029
Probable space group: P 61
;
_chemical_formula_sum "Si O2"
_cell_formula_units_Z 24
_cell_length_a 11.487417
_cell_length_b 11.487417
_cell_length_c 10.092604
_cell_angle_alpha 90.000000
_cell_angle_beta 90.000000
_cell_angle_gamma 120.000000
_cell_volume 1153.396523
_symmetry_space_group_name_H-M "P 61"
_symmetry_group_IT_number 169
_symmetry_cell_setting 'hexagonal'
loop_
_space_group_symop_operation_xyz
x,y,z
x-y,x,1/6+z
-y,x-y,1/3+z
-x,-y,1/2+z
-x+y,-x,2/3+z
y,-x+y,5/6+z
loop_
_atom_site_type_symbol
_atom_site_label
_atom_site_fract_x
_atom_site_fract_y
_atom_site_fract_z
Si Si1 0.541016 0.709472 0.024790
Si Si2 0.809067 0.749777 0.368966
Si Si3 0.519453 0.580196 0.493321
Si Si4 0.543893 0.287455 0.231137
O O1 0.673290 0.828762 0.089380
O O2 0.522548 0.564385 0.055084
O O3 0.413594 0.718933 0.077757
O O4 0.535024 0.722495 0.865944
O O5 0.796497 0.871918 0.310826
O O6 0.663910 0.643246 0.427340
O O7 0.401836 0.556200 0.390399
O O8 0.518066 0.679453 0.604971
#
# Coordination Sequence:
#
# PCOD9580029 Si02
#       4
#     6   6   6   6
#     4  11  22  44  72 102 143 179 229 296 363 419
#     4  12  27  50  70 100 149 192 234 294 359 439
#     4  11  24  43  75 106 140 181 243 302 358 422
#     4  10  23  41  69 110 134 180 236 292 356 426
#
# _framework density 20.808109000000002
#
# number of rings (size 3 to 8) (size 9 to 14) (size 15 to 20)
#    0.000    1.000    2.500    4.500    3.500    2.000 
#    9.000    0.000    0.000    0.000    0.000    0.000 
#    0.000    0.000    0.000    0.000    0.000    0.000 
#
# Total GULP energy -134349.528002 kJ/mol
# GULP energy per Si atom -5597.897000 kJ/mol
# Density = 2.076075 g / cm^3
# Si number density = 20.808109 Si / 1000 Ang^3
#
#
#
# Elastic Constant Matrix: (Units=GPa)
#
#
# Indices 1 2 3 4 5 6 
#
# 1 113.6718 35.4643 39.1908 0.0000 0.0000 0.0000
# 2 35.4643 113.6718 39.1908 0.0000 0.0000 0.0000
# 3 39.1908 39.1908 86.8213 0.0000 0.0000 0.0000
# 4 0.0000 0.0000 0.0000 34.9247 0.0000 0.0000
# 5 0.0000 0.0000 0.0000 0.0000 34.9247 0.0000
# 6 0.0000 0.0000 0.0000 0.0000 0.0000 39.1037
#
#
#
# Elastic Compliance Matrix: (Units=1/GPa)
#
#
# Indices 1 2 3 4 5 6 
#
# 1 0.010789 -0.001998 -0.003968 0.000000 0.000000 0.000000
# 2 -0.001998 0.010789 -0.003968 0.000000 0.000000 0.000000
# 3 -0.003968 -0.003968 0.015100 0.000000 0.000000 0.000000
# 4 0.000000 0.000000 0.000000 0.028633 0.000000 0.000000
# 5 0.000000 0.000000 0.000000 0.000000 0.028633 0.000000
# 6 0.000000 0.000000 0.000000 0.000000 0.000000 0.025573
#
#
# Mechanical properties :
#
#
# Convention : Reuss Voigt Hill
#
# Bulk Modulus (GPa) = 59.49054 60.20630 59.84842
# Shear Modulus (GPa) = 34.48556 35.14520 34.81538
#
# Velocity S-wave (km/s) = 4.07543 4.11422 4.09487
# Velocity P-wave (km/s) = 7.12725 7.18094 7.15414
#
# Compressibility (1/GPa) = 0.01680939
#
# Stress axis : x y z
#
# Youngs Moduli (GPa) = 92.68985 92.68985 66.22368
#
# Poissons Ratio (x) = 0.18518 0.26279
# Poissons Ratio (y) = 0.18518 0.26279
# Poissons Ratio (z) = 0.36781 0.36781
#
# Static dielectric constant tensor:
#      x y z
#    x 1.724830 0.000000 0.000000 
#    y 0.000000 1.724830 0.000000 
#    z 0.000000 0.000000 1.762650 
# 
# From -- ./inp_files/847.got.cif
#   From: 2010.05.17/outbox.cif.g08.bks.cpg/sg169_cif.got.tgz:847.got - 2010.05.20 11:12:54.
