data_PCOD9580520
_publ_section_title
;
Structure prediction by ZEFSAII (Michael W. Deem and Ramdas Pophale) SiO2 
 PCOD9580520
Probable space group: P 62
;
_chemical_formula_sum "Si O2"
_cell_formula_units_Z 33
_cell_length_a 12.150865
_cell_length_b 12.150865
_cell_length_c 10.353767
_cell_angle_alpha 90.000000
_cell_angle_beta 90.000000
_cell_angle_gamma 120.000000
_cell_volume 1323.864116
_symmetry_space_group_name_H-M "P 62"
_symmetry_group_IT_number 171
_symmetry_cell_setting 'hexagonal'
loop_
_space_group_symop_operation_xyz
x,y,z
x-y,x,1/3+z
-y,x-y,2/3+z
-x,-y,z
-x+y,-x,1/3+z
y,-x+y,2/3+z
loop_
_atom_site_type_symbol
_atom_site_label
_atom_site_fract_x
_atom_site_fract_y
_atom_site_fract_z
Si Si1 0.940992 0.301483 0.162310
Si Si2 0.665233 0.743961 0.098924
Si Si3 0.420790 0.735070 0.985795
Si Si4 0.000000 0.500000 0.758840
Si Si5 0.721647 0.744684 0.399178
Si Si6 0.652780 0.179862 0.412432
O O1 0.857909 0.158399 0.111806
O O2 0.873229 0.385842 0.140978
O O3 0.982897 0.307348 0.312034
O O4 0.067414 0.384045 0.076749
O O5 0.520273 0.714332 0.072608
O O6 0.686388 0.715816 0.246181
O O7 0.754483 0.897082 0.082861
O O8 0.276392 0.618363 0.971851
O O9 0.479795 0.754897 0.845887
O O10 0.426195 0.862972 0.026205
O O11 0.995154 0.375614 0.815946
#
# Coordination Sequence:
#
# PCOD9580520 Si02
#       6
#     6   6   6   3   6   6
#     4  10  23  43  64 102 141 189 246 305 367 446
#     4  10  25  42  69  99 138 186 238 301 369 441
#     4  10  20  37  62 100 134 178 226 288 371 435
#     4  10  20  38  66 100 136 172 228 294 360 456
#     4  11  23  45  69  99 139 188 241 298 369 439
#     4  10  21  38  65  99 142 189 236 300 374 445
#
# _framework density 24.927029000000001
#
# number of rings (size 3 to 8) (size 9 to 14) (size 15 to 20)
#    0.000    1.818    1.818    1.091    0.000   10.182 
#    0.000    2.727    0.000    0.000    0.000    0.000 
#    0.000    0.000    0.000    0.000    0.000    0.000 
#
# Total GULP energy -184108.364650 kJ/mol
# GULP energy per Si atom -5579.041353 kJ/mol
# Density = 2.487029 g / cm^3
# Si number density = 24.927029 Si / 1000 Ang^3
#
#
#
# Elastic Constant Matrix: (Units=GPa)
#
#
# Indices 1 2 3 4 5 6 
#
# 1 123.6881 22.2031 27.7769 0.0000 0.0000 0.0000
# 2 22.2031 123.6881 27.7769 0.0000 0.0000 0.0000
# 3 27.7769 27.7769 131.8584 0.0000 0.0000 0.0000
# 4 0.0000 0.0000 0.0000 15.6395 0.0000 0.0000
# 5 0.0000 0.0000 0.0000 0.0000 15.6395 0.0000
# 6 0.0000 0.0000 0.0000 0.0000 0.0000 50.7425
#
#
#
# Elastic Compliance Matrix: (Units=1/GPa)
#
#
# Indices 1 2 3 4 5 6 
#
# 1 0.008653 -0.001201 -0.001570 0.000000 0.000000 0.000000
# 2 -0.001201 0.008653 -0.001570 0.000000 0.000000 0.000000
# 3 -0.001570 -0.001570 0.008245 0.000000 0.000000 0.000000
# 4 0.000000 0.000000 0.000000 0.063941 0.000000 0.000000
# 5 0.000000 0.000000 0.000000 0.000000 0.063941 0.000000
# 6 0.000000 0.000000 0.000000 0.000000 0.000000 0.019707
#
#
# Mechanical properties :
#
#
# Convention : Reuss Voigt Hill
#
# Bulk Modulus (GPa) = 59.27588 59.41651 59.34619
# Shear Modulus (GPa) = 26.67457 36.50280 31.58869
#
# Velocity S-wave (km/s) = 3.27480 3.83088 3.56370
# Velocity P-wave (km/s) = 6.17499 6.59208 6.38694
#
# Compressibility (1/GPa) = 0.01687027
#
# Stress axis : x y z
#
# Youngs Moduli (GPa) = 115.56764 115.56764 121.28123
#
# Poissons Ratio (x) = 0.13877 0.19039
# Poissons Ratio (y) = 0.13877 0.19039
# Poissons Ratio (z) = 0.18143 0.18143
#
# Static dielectric constant tensor:
#      x y z
#    x 1.996060 0.000000 0.000000 
#    y 0.000000 1.996060 0.000000 
#    z 0.000000 0.000000 2.080060 
# 
# From -- ./inp_files/1521.got.cif
#   From: 2010.05.17/outbox.cif.g08.bks.cpg/sg171_1_cif.got.tgz:1521.got - 2010.05.20 11:16:09.
