data_PCOD9580226
_publ_section_title
;
Structure prediction by ZEFSAII (Michael W. Deem and Ramdas Pophale) SiO2 
 PCOD9580226
Probable space group: P 65
;
_chemical_formula_sum "Si O2"
_cell_formula_units_Z 48
_cell_length_a 17.394180
_cell_length_b 17.394180
_cell_length_c 8.800592
_cell_angle_alpha 90.000000
_cell_angle_beta 90.000000
_cell_angle_gamma 120.000000
_cell_volume 2305.952935
_symmetry_space_group_name_H-M "P 65"
_symmetry_group_IT_number 170
_symmetry_cell_setting 'hexagonal'
loop_
_space_group_symop_operation_xyz
x,y,z
x-y,x,5/6+z
-y,x-y,2/3+z
-x,-y,1/2+z
-x+y,-x,1/3+z
y,-x+y,1/6+z
loop_
_atom_site_type_symbol
_atom_site_label
_atom_site_fract_x
_atom_site_fract_y
_atom_site_fract_z
Si Si1 0.288546 0.804322 0.794390
Si Si2 0.706298 0.325229 0.918443
Si Si3 0.678285 0.970867 0.296141
Si Si4 0.997605 0.656671 0.411158
Si Si5 0.896028 0.331043 0.168950
Si Si6 0.788597 0.117154 0.497480
Si Si7 0.469226 0.329325 0.311607
Si Si8 0.984573 0.456745 0.657909
O O1 0.372815 0.791976 0.786935
O O2 0.202199 0.712693 0.740323
O O3 0.303589 0.866746 0.650417
O O4 0.269627 0.835729 0.952739
O O5 0.681347 0.331697 0.741341
O O6 0.718260 0.240926 0.927550
O O7 0.643740 0.945544 0.125435
O O8 0.685215 0.885572 0.355228
O O9 0.598867 0.981692 0.375853
O O10 0.770387 0.056914 0.346774
O O11 0.956653 0.697888 0.294573
O O12 0.920554 0.608510 0.534003
O O13 0.087675 0.705246 0.509354
O O14 0.005797 0.581530 0.317400
O O15 0.942791 0.437974 0.154400
O O16 0.540044 0.434566 0.306222
#
# Coordination Sequence:
#
# PCOD9580226 Si02
#       8
#     6   6   6   6   6   6   6   6
#     4  10  23  37  56  86 123 162 203 252 306 370
#     4  10  24  35  52  82 118 160 206 261 319 357
#     4  10  22  39  60  86 116 156 201 250 309 381
#     4  10  22  35  59  77 107 155 200 258 302 362
#     4  10  20  37  57  82 118 158 203 244 305 360
#     4  10  22  39  62  87 113 154 201 245 313 375
#     4  10  22  36  50  80 110 152 207 259 305 360
#     4  10  21  36  54  78 111 157 207 245 303 365
#
# _framework density 20.815688999999999
#
# number of rings (size 3 to 8) (size 9 to 14) (size 15 to 20)
#    0.000    2.000    0.000    3.000    7.000   12.000 
#    0.000    0.000    0.000    0.000    0.000    3.500 
#    0.000    0.000    0.000    0.000    0.000    0.000 
#
# Total GULP energy -267211.396678 kJ/mol
# GULP energy per Si atom -5566.904097 kJ/mol
# Density = 2.076831 g / cm^3
# Si number density = 20.815689 Si / 1000 Ang^3
#
#
#
# Elastic Constant Matrix: (Units=GPa)
#
#
# Indices 1 2 3 4 5 6 
#
# 1 69.8206 24.8404 7.2692 0.0000 0.0000 0.0000
# 2 24.8404 69.8206 7.2692 0.0000 0.0000 0.0000
# 3 7.2692 7.2692 94.1465 0.0000 0.0000 0.0000
# 4 0.0000 0.0000 0.0000 29.5755 0.0000 0.0000
# 5 0.0000 0.0000 0.0000 0.0000 29.5755 0.0000
# 6 0.0000 0.0000 0.0000 0.0000 0.0000 22.4901
#
#
#
# Elastic Compliance Matrix: (Units=1/GPa)
#
#
# Indices 1 2 3 4 5 6 
#
# 1 0.016461 -0.005771 -0.000825 0.000000 0.000000 0.000000
# 2 -0.005771 0.016461 -0.000825 0.000000 0.000000 0.000000
# 3 -0.000825 -0.000825 0.010749 0.000000 0.000000 0.000000
# 4 0.000000 0.000000 0.000000 0.033812 0.000000 0.000000
# 5 0.000000 0.000000 0.000000 0.000000 0.033812 0.000000
# 6 0.000000 0.000000 0.000000 0.000000 0.000000 0.044464
#
#
# Mechanical properties :
#
#
# Convention : Reuss Voigt Hill
#
# Bulk Modulus (GPa) = 34.68732 34.72725 34.70729
# Shear Modulus (GPa) = 27.74507 29.28881 28.51694
#
# Velocity S-wave (km/s) = 3.65484 3.75514 3.70533
# Velocity P-wave (km/s) = 5.87458 5.95994 5.91741
#
# Compressibility (1/GPa) = 0.02882898
#
# Stress axis : x y z
#
# Youngs Moduli (GPa) = 60.74821 60.74821 93.03007
#
# Poissons Ratio (x) = 0.35055 0.07679
# Poissons Ratio (y) = 0.35055 0.07679
# Poissons Ratio (z) = 0.05014 0.05014
#
# Static dielectric constant tensor:
#      x y z
#    x 1.811340 0.000000 0.000000 
#    y 0.000000 1.811340 0.000000 
#    z 0.000000 0.000000 1.854940 
# 
# From -- ./inp_files/732.got.cif
#   From: 2010.05.17/outbox.cif.g08.bks.cpg/sg170_cif.got.tgz:732.got - 2010.05.20 11:14:30.
