data_PCOD9580615
_publ_section_title
;
Structure prediction by ZEFSAII (Michael W. Deem and Ramdas Pophale) SiO2 
 PCOD9580615
Probable space group: P 62
;
_chemical_formula_sum "Si O2"
_cell_formula_units_Z 42
_cell_length_a 10.214086
_cell_length_b 10.214086
_cell_length_c 19.708646
_cell_angle_alpha 90.000000
_cell_angle_beta 90.000000
_cell_angle_gamma 120.000000
_cell_volume 1780.682297
_symmetry_space_group_name_H-M "P 62"
_symmetry_group_IT_number 171
_symmetry_cell_setting 'hexagonal'
loop_
_space_group_symop_operation_xyz
x,y,z
x-y,x,1/3+z
-y,x-y,2/3+z
-x,-y,z
-x+y,-x,1/3+z
y,-x+y,2/3+z
loop_
_atom_site_type_symbol
_atom_site_label
_atom_site_fract_x
_atom_site_fract_y
_atom_site_fract_z
Si Si1 0.994640 0.348940 0.136570
Si Si2 0.341224 0.711475 0.909208
Si Si3 0.449199 0.330619 0.477989
Si Si4 0.511980 0.222461 0.709286
Si Si5 0.137279 0.838549 0.875500
Si Si6 0.142173 0.832746 0.588125
Si Si7 0.380582 0.269964 0.063424
O O1 0.831567 0.219925 0.106995
O O2 0.000000 0.500000 0.163377
O O3 0.129634 0.424321 0.080966
O O4 0.033325 0.283883 0.203301
O O5 0.248075 0.589914 0.851411
O O6 0.262783 0.812239 0.912015
O O7 0.520354 0.814473 0.895817
O O8 0.301450 0.607604 0.976327
O O9 0.500000 0.500000 0.447361
O O10 0.318826 0.305260 0.531773
O O11 0.634918 0.192936 0.748133
O O12 0.381575 0.051420 0.697379
O O13 0.193069 0.896221 0.798698
O O14 0.157019 0.983270 0.913033
O O15 0.158383 0.815246 0.668103
#
# Coordination Sequence:
#
# PCOD9580615 Si02
#       7
#     6   6   6   6   6   6   6
#     4  12  23  41  71 101 131 189 249 293 356 451
#     4  10  21  43  69 102 136 191 235 291 358 433
#     4  10  24  43  68  96 144 182 230 306 368 418
#     4  10  22  40  69 101 139 179 248 293 354 432
#     4  11  23  43  69 100 150 185 230 302 380 423
#     4  11  22  41  71 103 137 190 244 284 355 455
#     4  10  22  41  67 105 143 184 236 310 355 433
#
# _framework density 23.586462999999998
#
# number of rings (size 3 to 8) (size 9 to 14) (size 15 to 20)
#    0.000    1.429    2.857    2.143    6.000    2.286 
#    5.143    1.429    0.000    0.000    0.000    0.000 
#    0.000    0.000    0.000    0.000    0.000    0.000 
#
# Total GULP energy -234035.462513 kJ/mol
# GULP energy per Si atom -5572.272917 kJ/mol
# Density = 2.353278 g / cm^3
# Si number density = 23.586463 Si / 1000 Ang^3
#
#
#
# Elastic Constant Matrix: (Units=GPa)
#
#
# Indices 1 2 3 4 5 6 
#
# 1 77.6888 45.0822 11.4309 0.0000 0.0000 0.0000
# 2 45.0822 77.6888 11.4309 0.0000 0.0000 0.0000
# 3 11.4309 11.4309 43.8634 0.0000 0.0000 0.0000
# 4 0.0000 0.0000 0.0000 35.9005 0.0000 0.0000
# 5 0.0000 0.0000 0.0000 0.0000 35.9005 0.0000
# 6 0.0000 0.0000 0.0000 0.0000 0.0000 16.3033
#
#
#
# Elastic Compliance Matrix: (Units=1/GPa)
#
#
# Indices 1 2 3 4 5 6 
#
# 1 0.019615 -0.011054 -0.002231 0.000000 0.000000 0.000000
# 2 -0.011054 0.019615 -0.002231 0.000000 0.000000 0.000000
# 3 -0.002231 -0.002231 0.023961 0.000000 0.000000 0.000000
# 4 0.000000 0.000000 0.000000 0.027855 0.000000 0.000000
# 5 0.000000 0.000000 0.000000 0.000000 0.027855 0.000000
# 6 0.000000 0.000000 0.000000 0.000000 0.000000 0.061337
#
#
# Mechanical properties :
#
#
# Convention : Reuss Voigt Hill
#
# Bulk Modulus (GPa) = 31.09605 37.23658 34.16631
# Shear Modulus (GPa) = 22.52371 26.37399 24.44885
#
# Velocity S-wave (km/s) = 3.09357 3.34755 3.22306
# Velocity P-wave (km/s) = 5.09634 5.54644 5.32615
#
# Compressibility (1/GPa) = 0.03215843
#
# Stress axis : x y z
#
# Youngs Moduli (GPa) = 50.98220 50.98220 41.73482
#
# Poissons Ratio (x) = 0.56356 0.09311
# Poissons Ratio (y) = 0.56356 0.09311
# Poissons Ratio (z) = 0.11374 0.11374
#
# Static dielectric constant tensor:
#      x y z
#    x 1.874240 0.000000 0.000000 
#    y 0.000000 1.874240 0.000000 
#    z 0.000000 0.000000 1.959100 
# 
# From -- ./inp_files/3970.got.cif
#   From: 2010.05.17/outbox.cif.g08.bks.cpg/sg171_2_cif.got.tgz:3970.got - 2010.05.20 11:16:09.
