data_PCOD9580604
_publ_section_title
;
Structure prediction by ZEFSAII (Michael W. Deem and Ramdas Pophale) SiO2 
 PCOD9580604
Probable space group: P 62
;
_chemical_formula_sum "Si O2"
_cell_formula_units_Z 45
_cell_length_a 12.215551
_cell_length_b 12.215551
_cell_length_c 14.434475
_cell_angle_alpha 90.000000
_cell_angle_beta 90.000000
_cell_angle_gamma 120.000000
_cell_volume 1865.338899
_symmetry_space_group_name_H-M "P 62"
_symmetry_group_IT_number 171
_symmetry_cell_setting 'hexagonal'
loop_
_space_group_symop_operation_xyz
x,y,z
x-y,x,1/3+z
-y,x-y,2/3+z
-x,-y,z
-x+y,-x,1/3+z
y,-x+y,2/3+z
loop_
_atom_site_type_symbol
_atom_site_label
_atom_site_fract_x
_atom_site_fract_y
_atom_site_fract_z
Si Si1 0.857506 0.426114 0.886080
Si Si2 0.373937 0.200751 0.260544
Si Si3 0.224774 0.517736 0.069009
Si Si4 0.875652 0.655412 0.782358
Si Si5 0.455597 0.866174 0.875462
Si Si6 0.500000 0.500000 0.859687
Si Si7 0.916200 0.206920 0.635917
Si Si8 0.758822 0.685934 0.960615
O O1 0.859552 0.215535 0.029735
O O2 0.851411 0.517697 0.810434
O O3 0.000000 0.500000 0.923984
O O4 0.768497 0.417693 0.970885
O O5 0.483856 0.347722 0.272811
O O6 0.248569 0.206820 0.237046
O O7 0.449329 0.157571 0.195162
O O8 0.349180 0.589997 0.131438
O O9 0.111784 0.509181 0.129422
O O10 0.207334 0.379615 0.044390
O O11 0.855575 0.711694 0.876066
O O12 0.008725 0.741646 0.732157
O O13 0.566941 0.861470 0.931461
O O14 0.500000 0.000000 0.824968
O O15 0.624187 0.576178 0.922118
O O16 0.809631 0.062155 0.643085
#
# Coordination Sequence:
#
# PCOD9580604 Si02
#       8
#     6   6   6   6   6   3   6   6
#     4  11  23  39  65 104 143 194 244 310 376 451
#     4   9  22  40  67 104 145 188 248 305 374 448
#     4  11  25  40  69 107 144 202 251 308 384 467
#     4   9  23  41  67 106 141 196 252 310 383 457
#     4  10  21  41  64 104 150 187 234 309 376 451
#     4  12  24  46  74 104 162 188 246 324 376 476
#     4   9  21  44  69 102 145 197 244 308 369 455
#     4  11  24  46  74 107 148 202 256 311 394 454
#
# _framework density 24.124300999999999
#
# number of rings (size 3 to 8) (size 9 to 14) (size 15 to 20)
#    0.800    1.067    2.000    0.800    8.400    0.000 
#    4.800    0.000    0.000   12.000    0.000    0.000 
#    0.000    0.000    0.000    0.000    0.000    0.000 
#
# Total GULP energy -251074.093157 kJ/mol
# GULP energy per Si atom -5579.424292 kJ/mol
# Density = 2.406939 g / cm^3
# Si number density = 24.124301 Si / 1000 Ang^3
#
#
#
# Elastic Constant Matrix: (Units=GPa)
#
#
# Indices 1 2 3 4 5 6 
#
# 1 121.1552 44.2084 36.6347 0.0000 0.0000 0.0000
# 2 44.2084 121.1552 36.6347 0.0000 0.0000 0.0000
# 3 36.6347 36.6347 68.2424 0.0000 0.0000 0.0000
# 4 0.0000 0.0000 0.0000 27.5284 0.0000 0.0000
# 5 0.0000 0.0000 0.0000 0.0000 27.5284 0.0000
# 6 0.0000 0.0000 0.0000 0.0000 0.0000 38.4734
#
#
#
# Elastic Compliance Matrix: (Units=1/GPa)
#
#
# Indices 1 2 3 4 5 6 
#
# 1 0.010465 -0.002531 -0.004260 0.000000 0.000000 0.000000
# 2 -0.002531 0.010465 -0.004260 0.000000 0.000000 0.000000
# 3 -0.004260 -0.004260 0.019227 0.000000 0.000000 0.000000
# 4 0.000000 0.000000 0.000000 0.036326 0.000000 0.000000
# 5 0.000000 0.000000 0.000000 0.000000 0.036326 0.000000
# 6 0.000000 0.000000 0.000000 0.000000 0.000000 0.025992
#
#
# Mechanical properties :
#
#
# Convention : Reuss Voigt Hill
#
# Bulk Modulus (GPa) = 55.37716 60.61204 57.99460
# Shear Modulus (GPa) = 29.95434 31.57771 30.76603
#
# Velocity S-wave (km/s) = 3.52755 3.62188 3.57503
# Velocity P-wave (km/s) = 6.29256 6.53224 6.41352
#
# Compressibility (1/GPa) = 0.01805799
#
# Stress axis : x y z
#
# Youngs Moduli (GPa) = 95.55398 95.55398 52.01029
#
# Poissons Ratio (x) = 0.24182 0.22154
# Poissons Ratio (y) = 0.24182 0.22154
# Poissons Ratio (z) = 0.40702 0.40702
#
# Static dielectric constant tensor:
#      x y z
#    x 1.981640 0.000000 0.000000 
#    y 0.000000 1.981640 0.000000 
#    z 0.000000 0.000000 1.960040 
# 
# From -- ./inp_files/5065.got.cif
#   From: 2010.05.17/outbox.cif.g08.bks.cpg/sg171_3_cif.got.tgz:5065.got - 2010.05.20 11:16:09.
