data_PCOD9580451
_publ_section_title
;
Structure prediction by ZEFSAII (Michael W. Deem and Ramdas Pophale) SiO2 
 PCOD9580451
Probable space group: P 62
;
_chemical_formula_sum "Si O2"
_cell_formula_units_Z 45
_cell_length_a 10.852124
_cell_length_b 10.852124
_cell_length_c 19.112238
_cell_angle_alpha 90.000000
_cell_angle_beta 90.000000
_cell_angle_gamma 120.000000
_cell_volume 1949.268531
_symmetry_space_group_name_H-M "P 62"
_symmetry_group_IT_number 171
_symmetry_cell_setting 'hexagonal'
loop_
_space_group_symop_operation_xyz
x,y,z
x-y,x,1/3+z
-y,x-y,2/3+z
-x,-y,z
-x+y,-x,1/3+z
y,-x+y,2/3+z
loop_
_atom_site_type_symbol
_atom_site_label
_atom_site_fract_x
_atom_site_fract_y
_atom_site_fract_z
Si Si1 0.499037 0.150146 0.848290
Si Si2 0.242282 0.357726 0.038365
Si Si3 0.000000 0.000000 0.238963
Si Si4 0.536292 0.187074 0.190359
Si Si5 0.826689 0.619754 0.788080
Si Si6 0.883529 0.130461 0.793146
Si Si7 0.034314 0.290432 0.241139
Si Si8 0.048322 0.650335 0.002677
O O1 0.479804 0.163545 0.764488
O O2 0.647686 0.277548 0.875377
O O3 0.382438 0.183038 0.884812
O O4 0.500000 0.000000 0.860483
O O5 0.217321 0.221768 0.082975
O O6 0.337578 0.367061 0.971687
O O7 0.091401 0.335709 0.011184
O O8 0.854224 0.929211 0.194124
O O9 0.989517 0.860318 0.271271
O O10 0.646570 0.143476 0.157749
O O11 0.413975 0.182298 0.140759
O O12 0.448527 0.097584 0.257492
O O13 0.744677 0.671778 0.841511
O O14 0.748870 0.565325 0.715442
O O15 0.965109 0.761801 0.762106
O O16 0.000000 0.500000 0.036399
#
# Coordination Sequence:
#
# PCOD9580451 Si02
#       8
#     6   6   3   6   6   6   6   6
#     4  12  25  50  71 106 161 202 256 329 394 469
#     4  12  24  46  77 106 151 204 257 314 392 471
#     4  10  18  40  66  96 146 178 240 328 368 444
#     4  12  26  46  75 104 155 207 247 325 394 462
#     4  11  25  45  72 108 154 194 258 325 381 466
#     4  11  22  42  69 106 144 192 248 314 389 455
#     4  11  24  43  72 111 146 199 262 314 389 469
#     4  12  25  48  76 112 149 203 261 316 389 473
#
# _framework density 23.085584000000001
#
# number of rings (size 3 to 8) (size 9 to 14) (size 15 to 20)
#    0.000    0.533    4.000    5.200    0.000    4.800 
#    4.800    0.000    0.000    0.000    0.000    0.000 
#    0.000    0.000    0.000    0.000    0.000    0.000 
#
# Total GULP energy -251013.602717 kJ/mol
# GULP energy per Si atom -5578.080060 kJ/mol
# Density = 2.303304 g / cm^3
# Si number density = 23.085584 Si / 1000 Ang^3
#
#
#
# Elastic Constant Matrix: (Units=GPa)
#
#
# Indices 1 2 3 4 5 6 
#
# 1 114.8629 33.3827 36.1279 0.0000 0.0000 0.0000
# 2 33.3827 114.8629 36.1279 0.0000 0.0000 0.0000
# 3 36.1279 36.1279 60.7582 0.0000 0.0000 0.0000
# 4 0.0000 0.0000 0.0000 -4.8403 0.0000 0.0000
# 5 0.0000 0.0000 0.0000 0.0000 -4.8403 0.0000
# 6 0.0000 0.0000 0.0000 0.0000 0.0000 40.7401
#
#
#
# Elastic Compliance Matrix: (Units=1/GPa)
#
#
# Indices 1 2 3 4 5 6 
#
# 1 0.010886 -0.001387 -0.005648 0.000000 0.000000 0.000000
# 2 -0.001387 0.010886 -0.005648 0.000000 0.000000 0.000000
# 3 -0.005648 -0.005648 0.023175 0.000000 0.000000 0.000000
# 4 0.000000 0.000000 0.000000 -0.206601 0.000000 0.000000
# 5 0.000000 0.000000 0.000000 0.000000 -0.206601 0.000000
# 6 0.000000 0.000000 0.000000 0.000000 0.000000 0.024546
#
#
# Mechanical properties :
#
#
# Convention : Reuss Voigt Hill
#
# Bulk Modulus (GPa) = 51.07116 55.75119 53.41117
# Shear Modulus (GPa) = -16.03512 18.53495 1.24992
#
# Velocity S-wave (km/s) = -2.63838 2.83659 0.73662
# Velocity P-wave (km/s) = 3.59015 5.91020 4.88977
#
# Compressibility (1/GPa) = 0.01958052
#
# Stress axis : x y z
#
# Youngs Moduli (GPa) = 91.86404 91.86404 43.14931
#
# Poissons Ratio (x) = 0.12744 0.24370
# Poissons Ratio (y) = 0.12744 0.24370
# Poissons Ratio (z) = 0.51884 0.51884
#
# Static dielectric constant tensor:
#      x y z
#    x 2.356140 0.000000 0.000000 
#    y 0.000000 2.356140 0.000000 
#    z 0.000000 0.000000 1.902190 
# 
# From -- ./inp_files/4027.got.cif
#   From: 2010.05.17/outbox.cif.g08.bks.cpg/sg171_3_cif.got.tgz:4027.got - 2010.05.20 11:16:09.
