data_PCOD9580396
_publ_section_title
;
Structure prediction by ZEFSAII (Michael W. Deem and Ramdas Pophale) SiO2 
 PCOD9580396
Probable space group: P 65
;
_chemical_formula_sum "Si O2"
_cell_formula_units_Z 42
_cell_length_a 8.215343
_cell_length_b 8.215343
_cell_length_c 27.884122
_cell_angle_alpha 90.000000
_cell_angle_beta 90.000000
_cell_angle_gamma 120.000000
_cell_volume 1629.817613
_symmetry_space_group_name_H-M "P 65"
_symmetry_group_IT_number 170
_symmetry_cell_setting 'hexagonal'
loop_
_space_group_symop_operation_xyz
x,y,z
x-y,x,5/6+z
-y,x-y,2/3+z
-x,-y,1/2+z
-x+y,-x,1/3+z
y,-x+y,1/6+z
loop_
_atom_site_type_symbol
_atom_site_label
_atom_site_fract_x
_atom_site_fract_y
_atom_site_fract_z
Si Si1 0.407974 0.220129 0.723450
Si Si2 0.913837 0.246834 0.949248
Si Si3 0.589895 0.508075 0.887306
Si Si4 0.048484 0.907577 0.682136
Si Si5 0.139408 0.847894 0.199744
Si Si6 0.358897 0.521418 0.663569
Si Si7 0.393371 0.672903 0.475252
O O1 0.351003 0.372592 0.703651
O O2 0.428997 0.184553 0.779872
O O3 0.601252 0.288317 0.694687
O O4 0.263355 0.023160 0.698204
O O5 0.710153 0.224739 0.953250
O O6 0.005506 0.318737 0.897942
O O7 0.059728 0.419503 0.983428
O O8 0.892427 0.047272 0.963242
O O9 0.702310 0.723494 0.871504
O O10 0.363371 0.400392 0.886885
O O11 0.626917 0.371592 0.852239
O O12 0.657608 0.497397 0.940071
O O13 0.980467 0.050099 0.698131
O O14 0.202314 0.817619 0.147682
#
# Coordination Sequence:
#
# PCOD9580396 Si02
#       7
#     6   6   6   6   6   6   6
#     4  11  25  50  77 114 161 206 270 339 414 501
#     4  11  26  48  76 115 153 210 267 336 409 508
#     4  12  28  48  80 113 161 216 270 340 423 499
#     4  12  27  45  78 118 149 211 268 335 412 503
#     4  12  26  50  73 115 164 205 272 347 410 494
#     4  11  26  49  78 111 160 217 265 344 421 505
#     4  11  26  52  76 112 160 211 268 331 421 494
#
# _framework density 25.769756999999998
#
# number of rings (size 3 to 8) (size 9 to 14) (size 15 to 20)
#    0.000    0.571    4.286    2.571    8.000    1.143 
#    2.571    0.000    0.000    0.000    0.000    0.000 
#    0.000    0.000    0.000    0.000    0.000    0.000 
#
# Total GULP energy -234517.301444 kJ/mol
# GULP energy per Si atom -5583.745272 kJ/mol
# Density = 2.571110 g / cm^3
# Si number density = 25.769757 Si / 1000 Ang^3
#
#
#
# Elastic Constant Matrix: (Units=GPa)
#
#
# Indices 1 2 3 4 5 6 
#
# 1 102.0643 42.4829 28.5947 0.0000 0.0000 0.0000
# 2 42.4829 102.0643 28.5947 0.0000 0.0000 0.0000
# 3 28.5947 28.5947 89.8016 0.0000 0.0000 0.0000
# 4 0.0000 0.0000 0.0000 36.2689 0.0000 0.0000
# 5 0.0000 0.0000 0.0000 0.0000 36.2689 0.0000
# 6 0.0000 0.0000 0.0000 0.0000 0.0000 29.7907
#
#
#
# Elastic Compliance Matrix: (Units=1/GPa)
#
#
# Indices 1 2 3 4 5 6 
#
# 1 0.012350 -0.004434 -0.002520 0.000000 0.000000 0.000000
# 2 -0.004434 0.012350 -0.002520 0.000000 0.000000 0.000000
# 3 -0.002520 -0.002520 0.012741 0.000000 0.000000 0.000000
# 4 0.000000 0.000000 0.000000 0.027572 0.000000 0.000000
# 5 0.000000 0.000000 0.000000 0.000000 0.027572 0.000000
# 6 0.000000 0.000000 0.000000 0.000000 0.000000 0.033568
#
#
# Mechanical properties :
#
#
# Convention : Reuss Voigt Hill
#
# Bulk Modulus (GPa) = 54.08384 54.80830 54.44607
# Shear Modulus (GPa) = 33.05472 33.41624 33.23548
#
# Velocity S-wave (km/s) = 3.58536 3.60491 3.59515
# Velocity P-wave (km/s) = 6.17840 6.21625 6.19736
#
# Compressibility (1/GPa) = 0.01848981
#
# Stress axis : x y z
#
# Youngs Moduli (GPa) = 80.97460 80.97460 78.48826
#
# Poissons Ratio (x) = 0.35906 0.19782
# Poissons Ratio (y) = 0.35906 0.19782
# Poissons Ratio (z) = 0.20409 0.20409
#
# Static dielectric constant tensor:
#      x y z
#    x 2.087190 0.000000 0.000000 
#    y 0.000000 2.087190 0.000000 
#    z 0.000000 0.000000 2.075180 
# 
# From -- ./inp_files/1927.got.cif
#   From: 2010.05.17/outbox.cif.g08.bks.cpg/sg170_cif.got.tgz:1927.got - 2010.05.20 11:14:30.
