data_PCOD9580064
_publ_section_title
;
Structure prediction by ZEFSAII (Michael W. Deem and Ramdas Pophale) SiO2 
 PCOD9580064
Probable space group: P 61
;
_chemical_formula_sum "Si O2"
_cell_formula_units_Z 18
_cell_length_a 12.734127
_cell_length_b 12.734127
_cell_length_c 5.098988
_cell_angle_alpha 90.000000
_cell_angle_beta 90.000000
_cell_angle_gamma 120.000000
_cell_volume 716.065872
_symmetry_space_group_name_H-M "P 61"
_symmetry_group_IT_number 169
_symmetry_cell_setting 'hexagonal'
loop_
_space_group_symop_operation_xyz
x,y,z
x-y,x,1/6+z
-y,x-y,1/3+z
-x,-y,1/2+z
-x+y,-x,2/3+z
y,-x+y,5/6+z
loop_
_atom_site_type_symbol
_atom_site_label
_atom_site_fract_x
_atom_site_fract_y
_atom_site_fract_z
Si Si1 0.131012 0.483970 0.653020
Si Si2 0.781621 0.756117 0.938725
Si Si3 0.549662 0.811150 0.468498
O O1 0.114038 0.594530 0.746615
O O2 0.200692 0.486996 0.379259
O O3 0.009047 0.354025 0.687581
O O4 0.218351 0.484002 0.875146
O O5 0.777749 0.878382 0.922143
O O6 0.789799 0.692794 0.670103
#
# Coordination Sequence:
#
# PCOD9580064 Si02
#       3
#     6   6   6
#     4  11  24  44  71 103 136 173 219 279 345 404
#     4  10  26  44  66  98 136 184 232 274 324 392
#     4  11  24  44  71 103 136 173 219 279 345 404
#
# _framework density 25.137353999999998
#
# number of rings (size 3 to 8) (size 9 to 14) (size 15 to 20)
#    0.000    1.333    0.000    4.000    0.000   24.000 
#    0.000    0.000    0.000    0.000    0.000    0.000 
#    0.000    0.000    0.000    0.000    0.000    0.000 
#
# Total GULP energy -100442.268818 kJ/mol
# GULP energy per Si atom -5580.126045 kJ/mol
# Density = 2.508014 g / cm^3
# Si number density = 25.137354 Si / 1000 Ang^3
#
#
#
# Elastic Constant Matrix: (Units=GPa)
#
#
# Indices 1 2 3 4 5 6 
#
# 1 23.6569 110.9920 36.8025 0.0000 0.0000 0.0000
# 2 110.9920 23.6569 36.8025 0.0000 0.0000 0.0000
# 3 36.8025 36.8025 103.0236 0.0000 0.0000 0.0000
# 4 0.0000 0.0000 0.0000 1.3241 0.0000 0.0000
# 5 0.0000 0.0000 0.0000 0.0000 1.3241 0.0000
# 6 0.0000 0.0000 0.0000 0.0000 0.0000 -43.6675
#
#
#
# Elastic Compliance Matrix: (Units=1/GPa)
#
#
# Indices 1 2 3 4 5 6 
#
# 1 -0.001111 0.010340 -0.003297 0.000000 0.000000 0.000000
# 2 0.010340 -0.001111 -0.003297 0.000000 0.000000 0.000000
# 3 -0.003297 -0.003297 0.012062 0.000000 0.000000 0.000000
# 4 0.000000 0.000000 0.000000 0.755256 0.000000 0.000000
# 5 0.000000 0.000000 0.000000 0.000000 0.755256 0.000000
# 6 0.000000 0.000000 0.000000 0.000000 0.000000 -0.022900
#
#
# Mechanical properties :
#
#
# Convention : Reuss Voigt Hill
#
# Bulk Modulus (GPa) = 57.69491 57.72569 57.71030
# Shear Modulus (GPa) = 3.34283 -10.48786 -3.57252
#
# Velocity S-wave (km/s) = 1.15443 -2.04482 -1.19343
# Velocity P-wave (km/s) = 4.97781 4.17599 4.59443
#
# Compressibility (1/GPa) = 0.01733255
#
# Stress axis : x y z
#
# Youngs Moduli (GPa) = -900.39041 -900.39027 82.90573
#
# Poissons Ratio (x) = 9.30960 0.27332
# Poissons Ratio (y) = 9.30961 0.27332
# Poissons Ratio (z) = -2.96839 -2.96839
#
# Static dielectric constant tensor:
#      x y z
#    x 2.122590 0.000000 0.000000 
#    y 0.000000 2.122590 0.000000 
#    z 0.000000 0.000000 2.097630 
# 
# From -- ./inp_files/38.got.cif
#   From: 2010.05.17/outbox.cif.g08.bks.cpg/sg169_cif.got.tgz:38.got - 2010.05.20 11:12:54.
