data_PCOD9580453
_publ_section_title
;
Structure prediction by ZEFSAII (Michael W. Deem and Ramdas Pophale) SiO2 
 PCOD9580453
Probable space group: P 62
;
_chemical_formula_sum "Si O2"
_cell_formula_units_Z 39
_cell_length_a 17.104519
_cell_length_b 17.104519
_cell_length_c 6.618184
_cell_angle_alpha 90.000000
_cell_angle_beta 90.000000
_cell_angle_gamma 120.000000
_cell_volume 1676.838360
_symmetry_space_group_name_H-M "P 62"
_symmetry_group_IT_number 171
_symmetry_cell_setting 'hexagonal'
loop_
_space_group_symop_operation_xyz
x,y,z
x-y,x,1/3+z
-y,x-y,2/3+z
-x,-y,z
-x+y,-x,1/3+z
y,-x+y,2/3+z
loop_
_atom_site_type_symbol
_atom_site_label
_atom_site_fract_x
_atom_site_fract_y
_atom_site_fract_z
Si Si1 0.313365 0.150686 0.421660
Si Si2 0.580734 0.270829 0.770045
Si Si3 0.874433 0.563339 0.973412
Si Si4 0.000000 0.500000 0.058603
Si Si5 0.750789 0.086205 0.718167
Si Si6 0.661418 0.575706 0.035433
Si Si7 0.000100 0.129953 0.228713
O O1 0.343546 0.245586 0.529742
O O2 0.351268 0.184899 0.200443
O O3 0.366638 0.115641 0.558308
O O4 0.207406 0.082953 0.432036
O O5 0.663120 0.281045 0.630369
O O6 0.521788 0.296788 0.619318
O O7 0.503599 0.168100 0.825200
O O8 0.880840 0.592325 0.206906
O O9 0.942460 0.529287 0.926479
O O10 0.059242 0.581470 0.209844
O O11 0.658724 0.001405 0.807835
O O12 0.817756 0.051986 0.635552
O O13 0.954268 0.064605 0.420702
#
# Coordination Sequence:
#
# PCOD9580453 Si02
#       7
#     6   6   6   3   6   6   6
#     4  10  22  44  72 100 127 186 234 271 350 420
#     4  11  23  42  64  97 142 182 222 284 358 418
#     4  10  21  43  67  97 137 178 229 287 339 410
#     4  10  18  42  64  94 140 172 220 300 332 404
#     4  10  22  45  74  96 132 181 235 285 342 419
#     4   9  21  42  67  97 137 179 227 286 342 406
#     4  11  24  48  72 104 141 177 229 293 356 417
#
# _framework density 23.258057000000001
#
# number of rings (size 3 to 8) (size 9 to 14) (size 15 to 20)
#    0.000    1.846    3.077    0.000    0.000    3.692 
#    2.769    6.154    0.000    0.000    0.000    0.000 
#    0.000    0.000    0.000    0.000    0.000    0.000 
#
# Total GULP energy -217537.428073 kJ/mol
# GULP energy per Si atom -5577.882771 kJ/mol
# Density = 2.320512 g / cm^3
# Si number density = 23.258057 Si / 1000 Ang^3
#
#
#
# Elastic Constant Matrix: (Units=GPa)
#
#
# Indices 1 2 3 4 5 6 
#
# 1 72.3793 21.3467 6.9357 0.0000 0.0000 0.0000
# 2 21.3467 72.3793 6.9357 0.0000 0.0000 0.0000
# 3 6.9357 6.9357 34.4302 0.0000 0.0000 0.0000
# 4 0.0000 0.0000 0.0000 25.3351 0.0000 0.0000
# 5 0.0000 0.0000 0.0000 0.0000 25.3351 0.0000
# 6 0.0000 0.0000 0.0000 0.0000 0.0000 25.5163
#
#
#
# Elastic Compliance Matrix: (Units=1/GPa)
#
#
# Indices 1 2 3 4 5 6 
#
# 1 0.015296 -0.004299 -0.002215 0.000000 0.000000 0.000000
# 2 -0.004299 0.015296 -0.002215 0.000000 0.000000 0.000000
# 3 -0.002215 -0.002215 0.029937 0.000000 0.000000 0.000000
# 4 0.000000 0.000000 0.000000 0.039471 0.000000 0.000000
# 5 0.000000 0.000000 0.000000 0.000000 0.039471 0.000000
# 6 0.000000 0.000000 0.000000 0.000000 0.000000 0.039191
#
#
# Mechanical properties :
#
#
# Convention : Reuss Voigt Hill
#
# Bulk Modulus (GPa) = 23.21797 27.73609 25.47703
# Shear Modulus (GPa) = 23.75547 24.83535 24.29541
#
# Velocity S-wave (km/s) = 3.19938 3.27129 3.23554
# Velocity P-wave (km/s) = 4.86338 5.12052 4.99361
#
# Compressibility (1/GPa) = 0.04307008
#
# Stress axis : x y z
#
# Youngs Moduli (GPa) = 65.37530 65.37530 33.40371
#
# Poissons Ratio (x) = 0.28105 0.07400
# Poissons Ratio (y) = 0.28105 0.07400
# Poissons Ratio (z) = 0.14483 0.14483
#
# Static dielectric constant tensor:
#      x y z
#    x 1.906550 0.000000 0.000000 
#    y 0.000000 1.906550 0.000000 
#    z 0.000000 0.000000 1.929850 
# 
# From -- ./inp_files/779.got.cif
#   From: 2010.05.17/outbox.cif.g08.bks.cpg/sg171_1_cif.got.tgz:779.got - 2010.05.20 11:16:09.
