data_PCOD9580176
_publ_section_title
;
Structure prediction by ZEFSAII (Michael W. Deem and Ramdas Pophale) SiO2 
 PCOD9580176
Probable space group: P 65
;
_chemical_formula_sum "Si O2"
_cell_formula_units_Z 30
_cell_length_a 13.817604
_cell_length_b 13.817604
_cell_length_c 7.986460
_cell_angle_alpha 90.000000
_cell_angle_beta 90.000000
_cell_angle_gamma 120.000000
_cell_volume 1320.536582
_symmetry_space_group_name_H-M "P 65"
_symmetry_group_IT_number 170
_symmetry_cell_setting 'hexagonal'
loop_
_space_group_symop_operation_xyz
x,y,z
x-y,x,5/6+z
-y,x-y,2/3+z
-x,-y,1/2+z
-x+y,-x,1/3+z
y,-x+y,1/6+z
loop_
_atom_site_type_symbol
_atom_site_label
_atom_site_fract_x
_atom_site_fract_y
_atom_site_fract_z
Si Si1 0.396655 0.714409 0.195750
Si Si2 0.569878 0.626786 0.210281
Si Si3 0.948127 0.379668 0.202501
Si Si4 0.931013 0.157153 0.130858
Si Si5 0.818311 0.029778 0.479896
O O1 0.337646 0.688888 0.376783
O O2 0.488534 0.677097 0.214178
O O3 0.471521 0.840562 0.132759
O O4 0.610223 0.638035 0.020263
O O5 0.491955 0.497774 0.262027
O O6 0.677063 0.698174 0.327021
O O7 0.921589 0.267861 0.103654
O O8 0.871593 0.102045 0.309081
O O9 0.059905 0.192323 0.162417
O O10 0.909146 0.104137 0.617301
#
# Coordination Sequence:
#
# PCOD9580176 Si02
#       5
#     6   6   6   6   6
#     4  10  22  38  58  86 118 162 212 268 330 396
#     4  11  21  37  62  90 123 168 215 268 334 402
#     4  11  21  37  62  90 123 168 215 268 334 402
#     4  10  18  36  68  91 124 171 219 269 337 417
#     4  10  18  36  68  91 124 171 219 269 337 417
#
# _framework density 22.718039000000001
#
# number of rings (size 3 to 8) (size 9 to 14) (size 15 to 20)
#    0.000    1.600    6.000    0.000    2.800    0.000 
#    0.000    0.000   26.400    0.000    0.000    0.000 
#    0.000    0.000    0.000    0.000    0.000    0.000 
#
# Total GULP energy -167533.519962 kJ/mol
# GULP energy per Si atom -5584.450665 kJ/mol
# Density = 2.266633 g / cm^3
# Si number density = 22.718039 Si / 1000 Ang^3
#
#
#
# Elastic Constant Matrix: (Units=GPa)
#
#
# Indices 1 2 3 4 5 6 
#
# 1 57.9620 66.2046 17.0397 0.0000 0.0000 0.0000
# 2 66.2046 57.9620 17.0397 0.0000 0.0000 0.0000
# 3 17.0397 17.0397 69.4883 0.0000 0.0000 0.0000
# 4 0.0000 0.0000 0.0000 7.9933 0.0000 0.0000
# 5 0.0000 0.0000 0.0000 0.0000 7.9933 0.0000
# 6 0.0000 0.0000 0.0000 0.0000 0.0000 -4.1213
#
#
#
# Elastic Compliance Matrix: (Units=1/GPa)
#
#
# Indices 1 2 3 4 5 6 
#
# 1 -0.056343 0.064978 -0.002117 0.000000 0.000000 0.000000
# 2 0.064978 -0.056343 -0.002117 0.000000 0.000000 0.000000
# 3 -0.002117 -0.002117 0.015429 0.000000 0.000000 0.000000
# 4 0.000000 0.000000 0.000000 0.125104 0.000000 0.000000
# 5 0.000000 0.000000 0.000000 0.000000 0.125104 0.000000
# 6 0.000000 0.000000 0.000000 0.000000 0.000000 -0.242642
#
#
# Mechanical properties :
#
#
# Convention : Reuss Voigt Hill
#
# Bulk Modulus (GPa) = 41.27215 42.88670 42.07942
# Shear Modulus (GPa) = -24.61837 8.04829 -8.28504
#
# Velocity S-wave (km/s) = -3.29545 1.88424 -1.91176
# Velocity P-wave (km/s) = 1.93043 4.86340 3.69995
#
# Compressibility (1/GPa) = 0.02422942
#
# Stress axis : x y z
#
# Youngs Moduli (GPa) = -17.74840 -17.74840 64.81150
#
# Poissons Ratio (x) = 1.15325 0.13723
# Poissons Ratio (y) = 1.15325 0.13723
# Poissons Ratio (z) = -0.03758 -0.03758
#
# Static dielectric constant tensor:
#      x y z
#    x 1.979750 0.000000 0.000000 
#    y 0.000000 1.979750 0.000000 
#    z 0.000000 0.000000 1.919140 
# 
# From -- ./inp_files/517.got.cif
#   From: 2010.05.17/outbox.cif.g08.bks.cpg/sg170_cif.got.tgz:517.got - 2010.05.20 11:14:30.
