data_PCOD9580425
_publ_section_title
;
Structure prediction by ZEFSAII (Michael W. Deem and Ramdas Pophale) SiO2 
 PCOD9580425
Probable space group: P 62
;
_chemical_formula_sum "Si O2"
_cell_formula_units_Z 39
_cell_length_a 18.949214
_cell_length_b 18.949214
_cell_length_c 7.027351
_cell_angle_alpha 90.000000
_cell_angle_beta 90.000000
_cell_angle_gamma 120.000000
_cell_volume 2185.267862
_symmetry_space_group_name_H-M "P 62"
_symmetry_group_IT_number 171
_symmetry_cell_setting 'hexagonal'
loop_
_space_group_symop_operation_xyz
x,y,z
x-y,x,1/3+z
-y,x-y,2/3+z
-x,-y,z
-x+y,-x,1/3+z
y,-x+y,2/3+z
loop_
_atom_site_type_symbol
_atom_site_label
_atom_site_fract_x
_atom_site_fract_y
_atom_site_fract_z
Si Si1 0.656237 0.265294 0.566650
Si Si2 0.539154 0.422793 0.368394
Si Si3 0.709363 0.586188 0.448061
Si Si4 0.500000 0.500000 0.014467
Si Si5 0.498942 0.756866 0.427712
Si Si6 0.598703 0.622008 0.693307
Si Si7 0.763329 0.187703 0.490759
O O1 0.708982 0.342380 0.429693
O O2 0.571104 0.219206 0.452027
O O3 0.703157 0.216107 0.586270
O O4 0.627721 0.502028 0.390862
O O5 0.510941 0.440202 0.163434
O O6 0.540959 0.339380 0.391267
O O7 0.476325 0.411614 0.539678
O O8 0.755290 0.560344 0.597222
O O9 0.674150 0.634187 0.565020
O O10 0.771413 0.619151 0.272245
O O11 0.572488 0.557061 0.867027
O O12 0.548877 0.779239 0.620764
O O13 0.614167 0.706450 0.785199
#
# Coordination Sequence:
#
# PCOD9580425 Si02
#       7
#     6   6   6   3   6   6   6
#     4  10  18  30  45  67  95 125 158 211 274 337
#     4  11  22  36  52  80 103 135 188 228 285 363
#     4  12  21  36  52  73 100 135 174 232 292 343
#     4  12  20  34  56  68  98 144 164 226 290 324
#     4  10  21  32  50  71  99 127 172 224 280 338
#     4  11  23  38  51  75 103 131 187 229 283 361
#     4  10  23  35  51  71  98 132 176 229 288 345
#
# _framework density 17.846782000000001
#
# number of rings (size 3 to 8) (size 9 to 14) (size 15 to 20)
#    0.000    1.231    3.077    5.538    2.154    2.462 
#    0.000    0.000    0.000    0.000    0.000    0.000 
#    0.000    0.000    0.000    0.000    0.000    0.000 
#
# Total GULP energy -217687.560041 kJ/mol
# GULP energy per Si atom -5581.732309 kJ/mol
# Density = 1.780616 g / cm^3
# Si number density = 17.846782 Si / 1000 Ang^3
#
#
#
# Elastic Constant Matrix: (Units=GPa)
#
#
# Indices 1 2 3 4 5 6 
#
# 1 56.0694 22.6975 29.5496 0.0000 0.0000 0.0000
# 2 22.6975 56.0694 29.5496 0.0000 0.0000 0.0000
# 3 29.5496 29.5496 113.8416 0.0000 0.0000 0.0000
# 4 0.0000 0.0000 0.0000 27.8706 0.0000 0.0000
# 5 0.0000 0.0000 0.0000 0.0000 27.8706 0.0000
# 6 0.0000 0.0000 0.0000 0.0000 0.0000 16.6860
#
#
#
# Elastic Compliance Matrix: (Units=1/GPa)
#
#
# Indices 1 2 3 4 5 6 
#
# 1 0.022866 -0.007100 -0.004092 0.000000 0.000000 0.000000
# 2 -0.007100 0.022866 -0.004092 0.000000 0.000000 0.000000
# 3 -0.004092 -0.004092 0.010909 0.000000 0.000000 0.000000
# 4 0.000000 0.000000 0.000000 0.035880 0.000000 0.000000
# 5 0.000000 0.000000 0.000000 0.000000 0.035880 0.000000
# 6 0.000000 0.000000 0.000000 0.000000 0.000000 0.059931
#
#
# Mechanical properties :
#
#
# Convention : Reuss Voigt Hill
#
# Bulk Modulus (GPa) = 38.35604 43.28598 40.82101
# Shear Modulus (GPa) = 21.96930 24.09768 23.03349
#
# Velocity S-wave (km/s) = 3.51236 3.67857 3.59642
# Velocity P-wave (km/s) = 6.16339 6.50764 6.33785
#
# Compressibility (1/GPa) = 0.02607151
#
# Stress axis : x y z
#
# Youngs Moduli (GPa) = 43.73346 43.73346 91.67027
#
# Poissons Ratio (x) = 0.31049 0.37515
# Poissons Ratio (y) = 0.31049 0.37515
# Poissons Ratio (z) = 0.17898 0.17898
#
# Static dielectric constant tensor:
#      x y z
#    x 1.649840 0.000000 0.000000 
#    y 0.000000 1.649840 0.000000 
#    z 0.000000 0.000000 1.715420 
# 
# From -- ./inp_files/752.got.cif
#   From: 2010.05.17/outbox.cif.g08.bks.cpg/sg171_1_cif.got.tgz:752.got - 2010.05.20 11:16:09.
