data_PCOD9580664
_publ_section_title
;
Structure prediction by ZEFSAII (Michael W. Deem and Ramdas Pophale) SiO2 
 PCOD9580664
Probable space group: P 62
;
_chemical_formula_sum "Si O2"
_cell_formula_units_Z 33
_cell_length_a 13.552617
_cell_length_b 13.552617
_cell_length_c 9.451980
_cell_angle_alpha 90.000000
_cell_angle_beta 90.000000
_cell_angle_gamma 120.000000
_cell_volume 1503.487273
_symmetry_space_group_name_H-M "P 62"
_symmetry_group_IT_number 171
_symmetry_cell_setting 'hexagonal'
loop_
_space_group_symop_operation_xyz
x,y,z
x-y,x,1/3+z
-y,x-y,2/3+z
-x,-y,z
-x+y,-x,1/3+z
y,-x+y,2/3+z
loop_
_atom_site_type_symbol
_atom_site_label
_atom_site_fract_x
_atom_site_fract_y
_atom_site_fract_z
Si Si1 0.000000 0.000000 0.687561
Si Si2 0.411435 0.231139 0.887196
Si Si3 0.205532 0.948652 0.082680
Si Si4 0.817977 0.231942 0.861067
Si Si5 0.869881 0.412592 0.085864
Si Si6 0.917008 0.260600 0.293477
O O1 0.014689 0.132603 0.690411
O O2 0.000000 0.000000 0.521232
O O3 0.510554 0.327025 0.792466
O O4 0.356886 0.117970 0.791120
O O5 0.316668 0.266709 0.923069
O O6 0.460493 0.233970 0.041529
O O7 0.145655 0.858841 0.210964
O O8 0.316331 0.054150 0.150905
O O9 0.229569 0.880917 0.958426
O O10 0.813984 0.325265 0.959195
O O11 0.878079 0.343412 0.220677
O O12 0.000000 0.500000 0.043806
#
# Coordination Sequence:
#
# PCOD9580664 Si02
#       6
#     3   6   6   6   6   6
#     4  12  26  36  56  98 158 202 234 270 306 414
#     4  11  23  42  68 100 130 175 223 276 337 404
#     4  11  22  37  59 100 145 191 221 262 329 398
#     4  11  23  38  65  96 131 175 226 276 332 411
#     4   9  21  45  64  86 126 172 218 279 339 383
#     4  10  22  41  68  94 138 179 214 268 334 410
#
# _framework density 21.948972999999999
#
# number of rings (size 3 to 8) (size 9 to 14) (size 15 to 20)
#    0.000    1.455    1.818    4.364    2.545    0.000 
#    3.273    6.364    0.000    0.000    0.000    0.000 
#    0.000    0.000    0.000    0.000    0.000    0.000 
#
# Total GULP energy -183735.309841 kJ/mol
# GULP energy per Si atom -5567.736662 kJ/mol
# Density = 2.189902 g / cm^3
# Si number density = 21.948973 Si / 1000 Ang^3
#
#
#
# Elastic Constant Matrix: (Units=GPa)
#
#
# Indices 1 2 3 4 5 6 
#
# 1 51.2650 15.0942 8.7211 0.0000 0.0000 0.0000
# 2 15.0942 51.2650 8.7211 0.0000 0.0000 0.0000
# 3 8.7211 8.7211 160.9422 0.0000 0.0000 0.0000
# 4 0.0000 0.0000 0.0000 39.1977 0.0000 0.0000
# 5 0.0000 0.0000 0.0000 0.0000 39.1977 0.0000
# 6 0.0000 0.0000 0.0000 0.0000 0.0000 18.0854
#
#
#
# Elastic Compliance Matrix: (Units=1/GPa)
#
#
# Indices 1 2 3 4 5 6 
#
# 1 0.021467 -0.006180 -0.000828 0.000000 0.000000 0.000000
# 2 -0.006180 0.021467 -0.000828 0.000000 0.000000 0.000000
# 3 -0.000828 -0.000828 0.006303 0.000000 0.000000 0.000000
# 4 0.000000 0.000000 0.000000 0.025512 0.000000 0.000000
# 5 0.000000 0.000000 0.000000 0.000000 0.025512 0.000000
# 6 0.000000 0.000000 0.000000 0.000000 0.000000 0.055293
#
#
# Mechanical properties :
#
#
# Convention : Reuss Voigt Hill
#
# Bulk Modulus (GPa) = 29.79371 36.50500 33.14936
# Shear Modulus (GPa) = 27.41007 34.69189 31.05098
#
# Velocity S-wave (km/s) = 3.53768 3.97995 3.76532
# Velocity P-wave (km/s) = 5.50368 6.14718 5.83431
#
# Compressibility (1/GPa) = 0.03356413
#
# Stress axis : x y z
#
# Youngs Moduli (GPa) = 46.58326 46.58326 158.64992
#
# Poissons Ratio (x) = 0.28787 0.13142
# Poissons Ratio (y) = 0.28787 0.13142
# Poissons Ratio (z) = 0.03859 0.03859
#
# Static dielectric constant tensor:
#      x y z
#    x 1.787980 0.000000 0.000000 
#    y 0.000000 1.787980 0.000000 
#    z 0.000000 0.000000 1.773760 
# 
# From -- ./inp_files/1136.got.cif
#   From: 2010.05.17/outbox.cif.g08.bks.cpg/sg171_1_cif.got.tgz:1136.got - 2010.05.20 11:16:09.
