data_PCOD9580914
_publ_section_title
;
Structure prediction by ZEFSAII (Michael W. Deem and Ramdas Pophale) SiO2 
 PCOD9580914
Probable space group: P 64
;
_chemical_formula_sum "Si O2"
_cell_formula_units_Z 27
_cell_length_a 8.038167
_cell_length_b 8.038167
_cell_length_c 22.463049
_cell_angle_alpha 90.000000
_cell_angle_beta 90.000000
_cell_angle_gamma 120.000000
_cell_volume 1256.936639
_symmetry_space_group_name_H-M "P 64"
_symmetry_group_IT_number 172
_symmetry_cell_setting 'hexagonal'
loop_
_space_group_symop_operation_xyz
x,y,z
x-y,x,2/3+z
-y,x-y,1/3+z
-x,-y,z
-x+y,-x,2/3+z
y,-x+y,1/3+z
loop_
_atom_site_type_symbol
_atom_site_label
_atom_site_fract_x
_atom_site_fract_y
_atom_site_fract_z
Si Si1 0.259729 0.187661 0.856910
Si Si2 0.270692 0.712567 0.544482
Si Si3 0.732345 0.144221 0.804206
Si Si4 0.143319 0.416286 0.007368
Si Si5 0.000000 0.000000 0.632021
O O1 0.198902 0.348682 0.847052
O O2 0.489121 0.316434 0.860904
O O3 0.180697 0.086434 0.920531
O O4 0.196926 0.009218 0.813287
O O5 0.486922 0.793110 0.521541
O O6 0.244108 0.732566 0.614789
O O7 0.780776 0.239025 0.739004
O O8 0.500000 0.000000 0.807557
O O9 0.028138 0.185746 0.999835
O O10 0.000000 0.500000 0.008731
#
# Coordination Sequence:
#
# PCOD9580914 Si02
#       5
#     6   6   6   6   3
#     4   9  18  34  56  76 108 151 189 233 296 354
#     4   9  18  35  57  77 110 153 188 239 294 354
#     4   9  18  34  56  82 111 147 192 242 290 354
#     4  10  20  35  55  83 114 144 193 241 290 355
#     4  10  20  34  56  78 114 154 182 240 300 342
#
# _framework density 21.480795000000001
#
# number of rings (size 3 to 8) (size 9 to 14) (size 15 to 20)
#    0.000    2.667    0.000    1.333    0.000    0.889 
#    4.000    0.000   39.111    0.000    0.000    0.000 
#    0.000    0.000    0.000    0.000    0.000    0.000 
#
# Total GULP energy -150414.944979 kJ/mol
# GULP energy per Si atom -5570.923888 kJ/mol
# Density = 2.143190 g / cm^3
# Si number density = 21.480795 Si / 1000 Ang^3
#
#
#
# Elastic Constant Matrix: (Units=GPa)
#
#
# Indices 1 2 3 4 5 6 
#
# 1 95.0283 41.8438 27.3321 0.0000 0.0000 0.0000
# 2 41.8438 95.0283 27.3321 0.0000 0.0000 0.0000
# 3 27.3321 27.3321 105.3504 0.0000 0.0000 0.0000
# 4 0.0000 0.0000 0.0000 33.5554 0.0000 0.0000
# 5 0.0000 0.0000 0.0000 0.0000 33.5554 0.0000
# 6 0.0000 0.0000 0.0000 0.0000 0.0000 26.5922
#
#
#
# Elastic Compliance Matrix: (Units=1/GPa)
#
#
# Indices 1 2 3 4 5 6 
#
# 1 0.013477 -0.005326 -0.002115 0.000000 0.000000 0.000000
# 2 -0.005326 0.013477 -0.002115 0.000000 0.000000 0.000000
# 3 -0.002115 -0.002115 0.010589 0.000000 0.000000 0.000000
# 4 0.000000 0.000000 0.000000 0.029801 0.000000 0.000000
# 5 0.000000 0.000000 0.000000 0.000000 0.029801 0.000000
# 6 0.000000 0.000000 0.000000 0.000000 0.000000 0.037605
#
#
# Mechanical properties :
#
#
# Convention : Reuss Voigt Hill
#
# Bulk Modulus (GPa) = 54.25282 54.26920 54.26101
# Shear Modulus (GPa) = 31.24909 32.00054 31.62481
#
# Velocity S-wave (km/s) = 3.81825 3.86389 3.84114
# Velocity P-wave (km/s) = 6.68954 6.72496 6.70727
#
# Compressibility (1/GPa) = 0.01843222
#
# Stress axis : x y z
#
# Youngs Moduli (GPa) = 74.20295 74.20295 94.43451
#
# Poissons Ratio (x) = 0.39520 0.19969
# Poissons Ratio (y) = 0.39520 0.19969
# Poissons Ratio (z) = 0.15691 0.15691
#
# Static dielectric constant tensor:
#      x y z
#    x 1.829540 0.000000 0.000000 
#    y 0.000000 1.829540 0.000000 
#    z 0.000000 0.000000 1.779780 
# 
# From -- ./inp_files/1929.got.cif
#   From: 2010.05.17/outbox.cif.g08.bks.cpg/sg172_1_cif.got.tgz:1929.got - 2010.05.20 11:19:57.
