data_PCOD9580768
_publ_section_title
;
Structure prediction by ZEFSAII (Michael W. Deem and Ramdas Pophale) SiO2 
 PCOD9580768
Probable space group: P 62
;
_chemical_formula_sum "Si O2"
_cell_formula_units_Z 30
_cell_length_a 10.579178
_cell_length_b 10.579178
_cell_length_c 12.767788
_cell_angle_alpha 90.000000
_cell_angle_beta 90.000000
_cell_angle_gamma 120.000000
_cell_volume 1237.514065
_symmetry_space_group_name_H-M "P 62"
_symmetry_group_IT_number 171
_symmetry_cell_setting 'hexagonal'
loop_
_space_group_symop_operation_xyz
x,y,z
x-y,x,1/3+z
-y,x-y,2/3+z
-x,-y,z
-x+y,-x,1/3+z
y,-x+y,2/3+z
loop_
_atom_site_type_symbol
_atom_site_label
_atom_site_fract_x
_atom_site_fract_y
_atom_site_fract_z
Si Si1 0.580844 0.166276 0.740670
Si Si2 0.820626 0.128154 0.676763
Si Si3 0.663465 0.805576 0.261897
Si Si4 0.361700 0.836393 0.102722
Si Si5 0.193013 0.860401 0.293074
O O1 0.680951 0.147173 0.650815
O O2 0.707446 0.312712 0.793738
O O3 0.455814 0.201012 0.705464
O O4 0.500000 0.000000 0.788876
O O5 0.824170 0.134533 0.803756
O O6 0.975487 0.244992 0.633894
O O7 0.789514 0.974931 0.632546
O O8 0.511149 0.699670 0.318841
O O9 0.714922 0.966240 0.308261
O O10 0.242428 0.829494 0.182313
O O11 0.500000 0.000000 0.113507
#
# Coordination Sequence:
#
# PCOD9580768 Si02
#       5
#     6   6   6   6   6
#     4  10  25  48  71 111 154 205 263 326 401 482
#     4  11  26  49  76 109 158 206 259 323 408 482
#     4  12  25  48  79 112 154 211 262 326 403 485
#     4  12  26  49  79 109 157 210 267 335 410 487
#     4  11  27  46  74 117 149 198 268 327 399 472
#
# _framework density 24.242149999999999
#
# number of rings (size 3 to 8) (size 9 to 14) (size 15 to 20)
#    0.000    0.800    4.000    0.600    8.400    7.200 
#    7.200    0.000    0.000    0.000    0.000    0.000 
#    0.000    0.000    0.000    0.000    0.000    0.000 
#
# Total GULP energy -167551.295818 kJ/mol
# GULP energy per Si atom -5585.043194 kJ/mol
# Density = 2.418697 g / cm^3
# Si number density = 24.242150 Si / 1000 Ang^3
#
#
#
# Elastic Constant Matrix: (Units=GPa)
#
#
# Indices 1 2 3 4 5 6 
#
# 1 121.7824 49.6409 36.1432 0.0000 0.0000 0.0000
# 2 49.6409 121.7824 36.1432 0.0000 0.0000 0.0000
# 3 36.1432 36.1432 64.9371 0.0000 0.0000 0.0000
# 4 0.0000 0.0000 0.0000 26.7361 0.0000 0.0000
# 5 0.0000 0.0000 0.0000 0.0000 26.7361 0.0000
# 6 0.0000 0.0000 0.0000 0.0000 0.0000 36.0707
#
#
#
# Elastic Compliance Matrix: (Units=1/GPa)
#
#
# Indices 1 2 3 4 5 6 
#
# 1 0.010742 -0.003120 -0.004243 0.000000 0.000000 0.000000
# 2 -0.003120 0.010742 -0.004243 0.000000 0.000000 0.000000
# 3 -0.004243 -0.004243 0.020122 0.000000 0.000000 0.000000
# 4 0.000000 0.000000 0.000000 0.037403 0.000000 0.000000
# 5 0.000000 0.000000 0.000000 0.000000 0.037403 0.000000
# 6 0.000000 0.000000 0.000000 0.000000 0.000000 0.027723
#
#
# Mechanical properties :
#
#
# Convention : Reuss Voigt Hill
#
# Bulk Modulus (GPa) = 54.35693 61.37297 57.86495
# Shear Modulus (GPa) = 28.82230 30.34691 29.58461
#
# Velocity S-wave (km/s) = 3.45183 3.54195 3.49718
# Velocity P-wave (km/s) = 6.19339 6.48836 6.34259
#
# Compressibility (1/GPa) = 0.01839692
#
# Stress axis : x y z
#
# Youngs Moduli (GPa) = 93.09164 93.09164 49.69608
#
# Poissons Ratio (x) = 0.29040 0.21084
# Poissons Ratio (y) = 0.29040 0.21084
# Poissons Ratio (z) = 0.39495 0.39495
#
# Static dielectric constant tensor:
#      x y z
#    x 1.959200 0.000000 0.000000 
#    y 0.000000 1.959200 0.000000 
#    z 0.000000 0.000000 1.962860 
# 
# From -- ./inp_files/2355.got.cif
#   From: 2010.05.17/outbox.cif.g08.bks.cpg/sg171_2_cif.got.tgz:2355.got - 2010.05.20 11:16:09.
