data_PCOD9580033
_publ_section_title
;
Structure prediction by ZEFSAII (Michael W. Deem and Ramdas Pophale) SiO2 
 PCOD9580033
Probable space group: P 61
;
_chemical_formula_sum "Si O2"
_cell_formula_units_Z 42
_cell_length_a 14.182241
_cell_length_b 14.182241
_cell_length_c 10.728942
_cell_angle_alpha 90.000000
_cell_angle_beta 90.000000
_cell_angle_gamma 120.000000
_cell_volume 1868.862077
_symmetry_space_group_name_H-M "P 61"
_symmetry_group_IT_number 169
_symmetry_cell_setting 'hexagonal'
loop_
_space_group_symop_operation_xyz
x,y,z
x-y,x,1/6+z
-y,x-y,1/3+z
-x,-y,1/2+z
-x+y,-x,2/3+z
y,-x+y,5/6+z
loop_
_atom_site_type_symbol
_atom_site_label
_atom_site_fract_x
_atom_site_fract_y
_atom_site_fract_z
Si Si1 0.183317 0.001908 0.231930
Si Si2 0.430695 0.545991 0.448259
Si Si3 0.656315 0.995922 0.180835
Si Si4 0.284957 0.523767 0.846526
Si Si5 0.326192 0.949668 0.407220
Si Si6 0.692299 0.271352 0.485945
Si Si7 0.129073 0.922624 0.833083
O O1 0.164335 0.073170 0.335031
O O2 0.244904 0.082224 0.114644
O O3 0.249430 0.952208 0.299047
O O4 0.529995 0.585836 0.353806
O O5 0.424225 0.449450 0.530410
O O6 0.455457 0.649582 0.534122
O O7 0.313478 0.505485 0.384192
O O8 0.578140 0.872714 0.226263
O O9 0.760801 0.056043 0.268180
O O10 0.689937 0.001198 0.036764
O O11 0.171989 0.471103 0.771238
O O12 0.382327 0.595904 0.751938
O O13 0.295213 0.612302 0.945971
O O14 0.035493 0.881566 0.729778
#
# Coordination Sequence:
#
# PCOD9580033 Si02
#       7
#     6   6   6   6   6   6   6
#     4  10  24  49  70 103 143 188 241 300 374 438
#     4  11  25  44  72 104 142 190 241 299 374 432
#     4  12  24  45  71 108 142 194 243 300 362 449
#     4  11  22  44  67 104 139 182 242 293 366 438
#     4  12  24  45  71 108 142 194 243 300 362 449
#     4  10  23  44  71  96 143 186 235 306 366 432
#     4  10  24  49  70 103 143 188 241 300 374 438
#
# _framework density 22.473566999999999
#
# number of rings (size 3 to 8) (size 9 to 14) (size 15 to 20)
#    0.000    1.143    2.857    2.571    2.000    0.000 
#   33.429    0.000    0.000    0.000    0.000    0.000 
#    0.000    0.000    0.000    0.000    0.000    0.000 
#
# Total GULP energy -234816.651688 kJ/mol
# GULP energy per Si atom -5590.872659 kJ/mol
# Density = 2.242242 g / cm^3
# Si number density = 22.473567 Si / 1000 Ang^3
#
#
#
# Elastic Constant Matrix: (Units=GPa)
#
#
# Indices 1 2 3 4 5 6 
#
# 1 60.0647 17.6128 11.9509 0.0000 0.0000 0.0000
# 2 17.6128 60.0647 11.9509 0.0000 0.0000 0.0000
# 3 11.9509 11.9509 72.8088 0.0000 0.0000 0.0000
# 4 0.0000 0.0000 0.0000 38.1210 0.0000 0.0000
# 5 0.0000 0.0000 0.0000 0.0000 38.1210 0.0000
# 6 0.0000 0.0000 0.0000 0.0000 0.0000 21.2260
#
#
#
# Elastic Compliance Matrix: (Units=1/GPa)
#
#
# Indices 1 2 3 4 5 6 
#
# 1 0.018557 -0.004999 -0.002226 0.000000 0.000000 0.000000
# 2 -0.004999 0.018557 -0.002226 0.000000 0.000000 0.000000
# 3 -0.002226 -0.002226 0.014465 0.000000 0.000000 0.000000
# 4 0.000000 0.000000 0.000000 0.026232 0.000000 0.000000
# 5 0.000000 0.000000 0.000000 0.000000 0.026232 0.000000
# 6 0.000000 0.000000 0.000000 0.000000 0.000000 0.047112
#
#
# Mechanical properties :
#
#
# Convention : Reuss Voigt Hill
#
# Bulk Modulus (GPa) = 30.59953 30.66305 30.63129
# Shear Modulus (GPa) = 27.63205 29.58851 28.61028
#
# Velocity S-wave (km/s) = 3.51028 3.63242 3.57187
# Velocity P-wave (km/s) = 5.48404 5.59163 5.53810
#
# Compressibility (1/GPa) = 0.03268024
#
# Stress axis : x y z
#
# Youngs Moduli (GPa) = 53.88719 53.88719 69.13144
#
# Poissons Ratio (x) = 0.26937 0.15385
# Poissons Ratio (y) = 0.26937 0.15385
# Poissons Ratio (z) = 0.11993 0.11993
#
# Static dielectric constant tensor:
#      x y z
#    x 1.820660 0.000000 0.000000 
#    y 0.000000 1.820660 0.000000 
#    z 0.000000 0.000000 1.850240 
# 
# From -- ./inp_files/970.got.cif
#   From: 2010.05.17/outbox.cif.g08.bks.cpg/sg169_cif.got.tgz:970.got - 2010.05.20 11:12:54.
