data_PCOD9580566
_publ_section_title
;
Structure prediction by ZEFSAII (Michael W. Deem and Ramdas Pophale) SiO2 
 PCOD9580566
Probable space group: P 62
;
_chemical_formula_sum "Si O2"
_cell_formula_units_Z 42
_cell_length_a 10.261958
_cell_length_b 10.261958
_cell_length_c 24.134644
_cell_angle_alpha 90.000000
_cell_angle_beta 90.000000
_cell_angle_gamma 120.000000
_cell_volume 2201.060573
_symmetry_space_group_name_H-M "P 62"
_symmetry_group_IT_number 171
_symmetry_cell_setting 'hexagonal'
loop_
_space_group_symop_operation_xyz
x,y,z
x-y,x,1/3+z
-y,x-y,2/3+z
-x,-y,z
-x+y,-x,1/3+z
y,-x+y,2/3+z
loop_
_atom_site_type_symbol
_atom_site_label
_atom_site_fract_x
_atom_site_fract_y
_atom_site_fract_z
Si Si1 0.704186 0.745656 0.321750
Si Si2 0.317074 0.591682 0.600718
Si Si3 0.000000 0.000000 0.033338
Si Si4 0.500000 0.000000 0.190745
Si Si5 0.375071 0.825998 0.377777
Si Si6 0.886657 0.735525 0.113288
Si Si7 0.389782 0.238533 0.437984
Si Si8 0.680803 0.567213 0.216723
O O1 0.550360 0.728618 0.297612
O O2 0.666392 0.702240 0.385975
O O3 0.730858 0.648209 0.276666
O O4 0.851667 0.909596 0.328837
O O5 0.383886 0.514198 0.562830
O O6 0.421090 0.679525 0.652675
O O7 0.271103 0.686970 0.560865
O O8 0.111872 0.135404 0.074450
O O9 0.351812 0.927793 0.153794
O O10 0.242075 0.826428 0.411008
O O11 0.463333 0.765048 0.415458
O O12 0.500000 0.000000 0.365077
O O13 0.786267 0.681163 0.169078
O O14 0.066614 0.799436 0.120983
O O15 0.500000 0.500000 0.206444
#
# Coordination Sequence:
#
# PCOD9580566 Si02
#       8
#     6   6   3   3   6   6   6   6
#     4   9  21  39  58  82 119 157 201 244 303 362
#     4  10  21  36  57  90 117 155 197 256 300 356
#     4  10  22  38  64  88 114 166 204 236 314 380
#     4  12  22  32  60  98 114 152 218 248 298 384
#     4   9  17  37  60  78 120 156 191 249 311 353
#     4  10  21  40  58  86 121 158 198 252 311 365
#     4   9  21  35  59  86 115 159 199 255 297 367
#     4  10  22  39  59  85 121 160 201 256 308 357
#
# _framework density 19.081710999999999
#
# number of rings (size 3 to 8) (size 9 to 14) (size 15 to 20)
#    0.000    2.286    0.714    1.714    5.000    6.286 
#    2.571    0.000    0.000    0.000    0.000    0.000 
#    0.000    0.000    0.000    0.000    0.000    0.000 
#
# Total GULP energy -233858.016896 kJ/mol
# GULP energy per Si atom -5568.048021 kJ/mol
# Density = 1.903828 g / cm^3
# Si number density = 19.081711 Si / 1000 Ang^3
#
#
#
# Elastic Constant Matrix: (Units=GPa)
#
#
# Indices 1 2 3 4 5 6 
#
# 1 48.1185 11.5686 27.2593 0.0000 0.0000 0.0000
# 2 11.5686 48.1185 27.2593 0.0000 0.0000 0.0000
# 3 27.2593 27.2593 70.1978 0.0000 0.0000 0.0000
# 4 0.0000 0.0000 0.0000 10.0969 0.0000 0.0000
# 5 0.0000 0.0000 0.0000 0.0000 10.0969 0.0000
# 6 0.0000 0.0000 0.0000 0.0000 0.0000 18.2750
#
#
#
# Elastic Compliance Matrix: (Units=1/GPa)
#
#
# Indices 1 2 3 4 5 6 
#
# 1 0.026661 -0.000698 -0.010082 0.000000 0.000000 0.000000
# 2 -0.000698 0.026661 -0.010082 0.000000 0.000000 0.000000
# 3 -0.010082 -0.010082 0.022076 0.000000 0.000000 0.000000
# 4 0.000000 0.000000 0.000000 0.099041 0.000000 0.000000
# 5 0.000000 0.000000 0.000000 0.000000 0.099041 0.000000
# 6 0.000000 0.000000 0.000000 0.000000 0.000000 0.054720
#
#
# Mechanical properties :
#
#
# Convention : Reuss Voigt Hill
#
# Bulk Modulus (GPa) = 29.69683 33.17878 31.43781
# Shear Modulus (GPa) = 13.11823 14.38357 13.75090
#
# Velocity S-wave (km/s) = 2.62482 2.74850 2.68737
# Velocity P-wave (km/s) = 4.97826 5.24384 5.11277
#
# Compressibility (1/GPa) = 0.03367362
#
# Stress axis : x y z
#
# Youngs Moduli (GPa) = 37.50738 37.50738 45.29895
#
# Poissons Ratio (x) = 0.02620 0.45670
# Poissons Ratio (y) = 0.02620 0.45670
# Poissons Ratio (z) = 0.37815 0.37815
#
# Static dielectric constant tensor:
#      x y z
#    x 1.700820 0.000000 0.000000 
#    y 0.000000 1.700820 0.000000 
#    z 0.000000 0.000000 1.666910 
# 
# From -- ./inp_files/3997.got.cif
#   From: 2010.05.17/outbox.cif.g08.bks.cpg/sg171_2_cif.got.tgz:3997.got - 2010.05.20 11:16:09.
