data_PCOD9580491
_publ_section_title
;
Structure prediction by ZEFSAII (Michael W. Deem and Ramdas Pophale) SiO2 
 PCOD9580491
Probable space group: P 62
;
_chemical_formula_sum "Si O2"
_cell_formula_units_Z 42
_cell_length_a 10.744914
_cell_length_b 10.744914
_cell_length_c 20.243368
_cell_angle_alpha 90.000000
_cell_angle_beta 90.000000
_cell_angle_gamma 120.000000
_cell_volume 2024.040925
_symmetry_space_group_name_H-M "P 62"
_symmetry_group_IT_number 171
_symmetry_cell_setting 'hexagonal'
loop_
_space_group_symop_operation_xyz
x,y,z
x-y,x,1/3+z
-y,x-y,2/3+z
-x,-y,z
-x+y,-x,1/3+z
y,-x+y,2/3+z
loop_
_atom_site_type_symbol
_atom_site_label
_atom_site_fract_x
_atom_site_fract_y
_atom_site_fract_z
Si Si1 0.838195 0.409348 0.295820
Si Si2 0.173294 0.346589 0.877322
Si Si3 0.442239 0.605042 0.301408
Si Si4 0.428847 0.590652 0.458824
Si Si5 0.605042 0.442239 0.119902
Si Si6 0.378966 0.329200 0.786024
Si Si7 0.329200 0.378966 0.635286
O O1 0.800583 0.254294 0.271260
O O2 0.715603 0.442493 0.272680
O O3 0.840959 0.418084 0.374247
O O4 0.000000 0.500000 0.270852
O O5 0.199417 0.453712 0.816717
O O6 0.257265 0.273523 0.844292
O O7 0.016257 0.273523 0.910352
O O8 0.500000 0.500000 0.279431
O O9 0.422875 0.581916 0.380397
O O10 0.541500 0.777140 0.295818
O O11 0.500000 0.500000 0.483792
O O12 0.273110 0.557507 0.481964
O O13 0.500000 0.500000 0.141880
O O14 0.777140 0.541499 0.125492
O O15 0.500000 0.500000 0.793265
O O16 0.318412 0.318412 0.710655
O O17 0.500000 0.500000 0.628046
#
# Coordination Sequence:
#
# PCOD9580491 Si02
#       7
#     6   6   6   6   6   6   6
#     4  10  20  34  58  92 121 164 215 257 320 394
#     4  12  20  32  61  91 124 166 220 268 318 398
#     4  10  20  39  61  90 126 168 213 273 330 384
#     4  10  20  34  58  92 121 164 215 257 320 394
#     4  10  20  39  61  90 126 168 213 273 330 384
#     4  11  19  36  60  94 132 170 219 273 330 401
#     4  11  19  36  60  94 132 170 219 273 330 401
#
# _framework density 20.750568000000001
#
# number of rings (size 3 to 8) (size 9 to 14) (size 15 to 20)
#    0.000    1.429    5.714    2.571    0.000    0.000 
#    0.000    0.714    0.000    3.429    0.000    0.000 
#    0.000    0.000    0.000    0.000    0.000    0.000 
#
# Total GULP energy -233860.583321 kJ/mol
# GULP energy per Si atom -5568.109127 kJ/mol
# Density = 2.070334 g / cm^3
# Si number density = 20.750568 Si / 1000 Ang^3
#
#
#
# Elastic Constant Matrix: (Units=GPa)
#
#
# Indices 1 2 3 4 5 6 
#
# 1 140.8830 90.3899 19.0244 0.0000 0.0000 0.0000
# 2 90.3899 140.8830 19.0244 0.0000 0.0000 0.0000
# 3 19.0244 19.0244 127.0611 0.0000 0.0000 0.0000
# 4 0.0000 0.0000 0.0000 1253.6807 0.0000 0.0000
# 5 0.0000 0.0000 0.0000 0.0000 1253.6807 0.0000
# 6 0.0000 0.0000 0.0000 0.0000 0.0000 25.2466
#
#
#
# Elastic Compliance Matrix: (Units=1/GPa)
#
#
# Indices 1 2 3 4 5 6 
#
# 1 0.012119 -0.007686 -0.000664 0.000000 0.000000 0.000000
# 2 -0.007686 0.012119 -0.000664 0.000000 0.000000 0.000000
# 3 -0.000664 -0.000664 0.008069 0.000000 0.000000 0.000000
# 4 0.000000 0.000000 0.000000 0.000798 0.000000 0.000000
# 5 0.000000 0.000000 0.000000 0.000000 0.000798 0.000000
# 6 0.000000 0.000000 0.000000 0.000000 0.000000 0.039609
#
#
# Mechanical properties :
#
#
# Convention : Reuss Voigt Hill
#
# Bulk Modulus (GPa) = 70.02712 73.96714 71.99713
# Shear Modulus (GPa) = 51.92212 525.21415 288.56813
#
# Velocity S-wave (km/s) = 5.00763 15.92664 11.80538
# Velocity P-wave (km/s) = 8.20094 19.33736 14.85243
#
# Compressibility (1/GPa) = 0.01428018
#
# Stress axis : x y z
#
# Youngs Moduli (GPa) = 82.51582 82.51582 123.93124
#
# Poissons Ratio (x) = 0.63420 0.08226
# Poissons Ratio (y) = 0.63420 0.08226
# Poissons Ratio (z) = 0.05477 0.05477
#
# Static dielectric constant tensor:
#      x y z
#    x 1.837940 0.000000 0.000000 
#    y 0.000000 1.837940 0.000000 
#    z 0.000000 0.000000 1.803550 
# 
# From -- ./inp_files/3937.got.cif
#   From: 2010.05.17/outbox.cif.g08.bks.cpg/sg171_2_cif.got.tgz:3937.got - 2010.05.20 11:16:09.
