data_PCOD9580840
_publ_section_title
;
Structure prediction by ZEFSAII (Michael W. Deem and Ramdas Pophale) SiO2 
 PCOD9580840
Probable space group: P 62
;
_chemical_formula_sum "Si O2"
_cell_formula_units_Z 30
_cell_length_a 16.135466
_cell_length_b 16.135466
_cell_length_c 5.121170
_cell_angle_alpha 90.000000
_cell_angle_beta 90.000000
_cell_angle_gamma 120.000000
_cell_volume 1154.683206
_symmetry_space_group_name_H-M "P 62"
_symmetry_group_IT_number 171
_symmetry_cell_setting 'hexagonal'
loop_
_space_group_symop_operation_xyz
x,y,z
x-y,x,1/3+z
-y,x-y,2/3+z
-x,-y,z
-x+y,-x,1/3+z
y,-x+y,2/3+z
loop_
_atom_site_type_symbol
_atom_site_label
_atom_site_fract_x
_atom_site_fract_y
_atom_site_fract_z
Si Si1 0.460139 0.297955 0.193260
Si Si2 0.960792 0.126675 0.612218
Si Si3 0.617776 0.976949 0.498137
Si Si4 0.145881 0.295631 0.883607
Si Si5 0.500386 0.868386 0.008708
O O1 0.384884 0.242431 0.427112
O O2 0.549997 0.391019 0.313841
O O3 0.490310 0.223595 0.081847
O O4 0.414184 0.332905 0.965210
O O5 0.020683 0.121940 0.374477
O O6 0.049000 0.205967 0.777215
O O7 0.881753 0.154284 0.520091
O O8 0.691949 0.938686 0.451348
O O9 0.556945 0.948571 0.231940
O O10 0.548094 0.909947 0.728668
#
# Coordination Sequence:
#
# PCOD9580840 Si02
#       5
#     6   6   6   6   6
#     4  11  27  55  83 121 174 212 303 352 449 526
#     4  12  28  48  73 114 161 217 277 333 417 493
#     4  11  27  52  82 122 166 222 287 356 446 518
#     4  11  26  47  81 111 163 224 274 350 416 515
#     4  11  29  50  87 123 162 234 273 375 434 524
#
# _framework density 25.981155000000001
#
# number of rings (size 3 to 8) (size 9 to 14) (size 15 to 20)
#    0.000    0.800    2.000    1.800    5.600   21.600 
#    0.000    0.000    0.000    0.000    0.000    0.000 
#    0.000    0.000    0.000    0.000    0.000    0.000 
#
# Total GULP energy -168108.851444 kJ/mol
# GULP energy per Si atom -5603.628381 kJ/mol
# Density = 2.592202 g / cm^3
# Si number density = 25.981155 Si / 1000 Ang^3
#
#
#
# Elastic Constant Matrix: (Units=GPa)
#
#
# Indices 1 2 3 4 5 6 
#
# 1 189.1620 97.2797 51.3471 0.0000 0.0000 0.0000
# 2 97.2797 189.1620 51.3471 0.0000 0.0000 0.0000
# 3 51.3471 51.3471 119.4264 0.0000 0.0000 0.0000
# 4 0.0000 0.0000 0.0000 41.4154 0.0000 0.0000
# 5 0.0000 0.0000 0.0000 0.0000 41.4154 0.0000
# 6 0.0000 0.0000 0.0000 0.0000 0.0000 45.9412
#
#
#
# Elastic Compliance Matrix: (Units=1/GPa)
#
#
# Indices 1 2 3 4 5 6 
#
# 1 0.007505 -0.003378 -0.001775 0.000000 0.000000 0.000000
# 2 -0.003378 0.007505 -0.001775 0.000000 0.000000 0.000000
# 3 -0.001775 -0.001775 0.009899 0.000000 0.000000 0.000000
# 4 0.000000 0.000000 0.000000 0.024146 0.000000 0.000000
# 5 0.000000 0.000000 0.000000 0.000000 0.024146 0.000000
# 6 0.000000 0.000000 0.000000 0.000000 0.000000 0.021767
#
#
# Mechanical properties :
#
#
# Convention : Reuss Voigt Hill
#
# Bulk Modulus (GPa) = 90.45048 99.74426 95.09737
# Shear Modulus (GPa) = 44.44135 45.60615 45.02375
#
# Velocity S-wave (km/s) = 4.14033 4.19424 4.16737
# Velocity P-wave (km/s) = 7.59907 7.86955 7.73550
#
# Compressibility (1/GPa) = 0.01105577
#
# Stress axis : x y z
#
# Youngs Moduli (GPa) = 133.23742 133.23742 101.01764
#
# Poissons Ratio (x) = 0.45009 0.17926
# Poissons Ratio (y) = 0.45009 0.17926
# Poissons Ratio (z) = 0.23643 0.23643
#
# Static dielectric constant tensor:
#      x y z
#    x 2.004740 0.000000 0.000000 
#    y 0.000000 2.004740 0.000000 
#    z 0.000000 0.000000 2.110820 
# 
# From -- ./inp_files/319.got.cif
#   From: 2010.05.17/outbox.cif.g08.bks.cpg/sg171_1_cif.got.tgz:319.got - 2010.05.20 11:16:09.
