data_PCOD9580647
_publ_section_title
;
Structure prediction by ZEFSAII (Michael W. Deem and Ramdas Pophale) SiO2 
 PCOD9580647
Probable space group: P 62
;
_chemical_formula_sum "Si O2"
_cell_formula_units_Z 39
_cell_length_a 20.075589
_cell_length_b 20.075589
_cell_length_c 4.910679
_cell_angle_alpha 90.000000
_cell_angle_beta 90.000000
_cell_angle_gamma 120.000000
_cell_volume 1713.991918
_symmetry_space_group_name_H-M "P 62"
_symmetry_group_IT_number 171
_symmetry_cell_setting 'hexagonal'
loop_
_space_group_symop_operation_xyz
x,y,z
x-y,x,1/3+z
-y,x-y,2/3+z
-x,-y,z
-x+y,-x,1/3+z
y,-x+y,2/3+z
loop_
_atom_site_type_symbol
_atom_site_label
_atom_site_fract_x
_atom_site_fract_y
_atom_site_fract_z
Si Si1 0.165085 0.720650 0.691960
Si Si2 0.500000 0.000000 0.172569
Si Si3 0.676985 0.179999 0.588627
Si Si4 0.175096 0.272947 0.136769
Si Si5 0.081737 0.415086 0.736928
Si Si6 0.625803 0.495052 0.881953
Si Si7 0.756932 0.765688 0.610889
O O1 0.247212 0.738283 0.568867
O O2 0.141950 0.784040 0.608172
O O3 0.110340 0.648326 0.501860
O O4 0.163201 0.698126 0.006123
O O5 0.576940 0.040313 0.999087
O O6 0.492786 0.057988 0.377251
O O7 0.672036 0.127537 0.340440
O O8 0.596931 0.178850 0.600565
O O9 0.702286 0.144358 0.836129
O O10 0.181304 0.220156 0.374134
O O11 0.222018 0.268920 0.873763
O O12 0.089143 0.249844 0.039846
O O13 0.030953 0.325370 0.804768
#
# Coordination Sequence:
#
# PCOD9580647 Si02
#       7
#     6   3   6   6   6   6   6
#     4  12  24  45  68  98 136 185 243 297 348 426
#     4  10  22  40  64  98 130 172 226 276 350 414
#     4  11  24  42  65  93 141 179 234 296 353 400
#     4  12  26  45  75 109 149 186 240 306 373 459
#     4  11  22  40  69  98 140 180 224 295 358 415
#     4  11  25  41  65  96 134 183 231 294 348 422
#     4  12  26  45  74 112 149 191 236 306 382 452
#
# _framework density 22.753896999999998
#
# number of rings (size 3 to 8) (size 9 to 14) (size 15 to 20)
#    0.000    0.615    1.538    7.385    2.154    6.769 
#    2.769    0.000    0.000    4.615    0.000    0.000 
#    0.000    0.000    0.000    0.000    0.000    0.000 
#
# Total GULP energy -217896.420624 kJ/mol
# GULP energy per Si atom -5587.087708 kJ/mol
# Density = 2.270211 g / cm^3
# Si number density = 22.753897 Si / 1000 Ang^3
#
#
#
# Elastic Constant Matrix: (Units=GPa)
#
#
# Indices 1 2 3 4 5 6 
#
# 1 103.4491 39.4810 30.6490 0.0000 0.0000 0.0000
# 2 39.4810 103.4491 30.6490 0.0000 0.0000 0.0000
# 3 30.6490 30.6490 165.3049 0.0000 0.0000 0.0000
# 4 0.0000 0.0000 0.0000 31.5057 0.0000 0.0000
# 5 0.0000 0.0000 0.0000 0.0000 31.5057 0.0000
# 6 0.0000 0.0000 0.0000 0.0000 0.0000 31.9840
#
#
#
# Elastic Compliance Matrix: (Units=1/GPa)
#
#
# Indices 1 2 3 4 5 6 
#
# 1 0.011617 -0.004016 -0.001409 0.000000 0.000000 0.000000
# 2 -0.004016 0.011617 -0.001409 0.000000 0.000000 0.000000
# 3 -0.001409 -0.001409 0.006572 0.000000 0.000000 0.000000
# 4 0.000000 0.000000 0.000000 0.031740 0.000000 0.000000
# 5 0.000000 0.000000 0.000000 0.000000 0.031740 0.000000
# 6 0.000000 0.000000 0.000000 0.000000 0.000000 0.031266
#
#
# Mechanical properties :
#
#
# Convention : Reuss Voigt Hill
#
# Bulk Modulus (GPa) = 61.97094 63.75124 62.86109
# Shear Modulus (GPa) = 34.81902 37.09403 35.95653
#
# Velocity S-wave (km/s) = 3.91608 4.04199 3.97953
# Velocity P-wave (km/s) = 6.90956 7.06131 6.98585
#
# Compressibility (1/GPa) = 0.01613659
#
# Stress axis : x y z
#
# Youngs Moduli (GPa) = 86.08217 86.08217 152.16056
#
# Poissons Ratio (x) = 0.34571 0.21443
# Poissons Ratio (y) = 0.34571 0.21443
# Poissons Ratio (z) = 0.12131 0.12131
#
# Static dielectric constant tensor:
#      x y z
#    x 1.921550 0.000000 0.000000 
#    y 0.000000 1.921550 0.000000 
#    z 0.000000 0.000000 1.809310 
# 
# From -- ./inp_files/441.got.cif
#   From: 2010.05.17/outbox.cif.g08.bks.cpg/sg171_1_cif.got.tgz:441.got - 2010.05.20 11:16:09.
