data_PCOD9580375
_publ_section_title
;
Structure prediction by ZEFSAII (Michael W. Deem and Ramdas Pophale) SiO2 
 PCOD9580375
Probable space group: P 65
;
_chemical_formula_sum "Si O2"
_cell_formula_units_Z 48
_cell_length_a 11.790673
_cell_length_b 11.790673
_cell_length_c 16.297913
_cell_angle_alpha 90.000000
_cell_angle_beta 90.000000
_cell_angle_gamma 120.000000
_cell_volume 1962.184391
_symmetry_space_group_name_H-M "P 65"
_symmetry_group_IT_number 170
_symmetry_cell_setting 'hexagonal'
loop_
_space_group_symop_operation_xyz
x,y,z
x-y,x,5/6+z
-y,x-y,2/3+z
-x,-y,1/2+z
-x+y,-x,1/3+z
y,-x+y,1/6+z
loop_
_atom_site_type_symbol
_atom_site_label
_atom_site_fract_x
_atom_site_fract_y
_atom_site_fract_z
Si Si1 0.627362 0.902838 0.107430
Si Si2 0.082257 0.451077 0.526306
Si Si3 0.271815 0.448069 0.120187
Si Si4 0.582396 0.393079 0.163566
Si Si5 0.947820 0.037805 0.731947
Si Si6 0.498365 0.367789 0.878578
Si Si7 0.367103 0.271247 0.037680
Si Si8 0.737797 0.887655 0.939100
O O1 0.606774 0.774775 0.154985
O O2 0.497542 0.915479 0.100983
O O3 0.761957 0.020929 0.140771
O O4 0.662124 0.911125 0.011179
O O5 0.166539 0.602526 0.497999
O O6 0.062993 0.440207 0.624836
O O7 0.936989 0.399664 0.490298
O O8 0.180806 0.490935 0.072802
O O9 0.328748 0.382292 0.057906
O O10 0.195919 0.346706 0.191219
O O11 0.720331 0.405329 0.182924
O O12 0.501935 0.311143 0.084757
O O13 0.975355 0.056624 0.635092
O O14 0.873280 0.880320 0.748402
O O15 0.857203 0.102503 0.743410
O O16 0.389859 0.266314 0.941398
#
# Coordination Sequence:
#
# PCOD9580375 Si02
#       8
#     6   6   6   6   6   6   6   6
#     4  12  26  46  76 110 148 202 263 319 392 451
#     4  11  26  45  67 109 153 190 249 317 383 466
#     4  11  22  45  76 106 139 197 250 313 361 453
#     4  11  26  46  74 104 151 198 249 309 385 463
#     4  12  25  50  75 113 149 199 263 316 386 455
#     4  12  26  48  70 107 153 199 249 312 391 469
#     4  11  26  43  76 108 148 194 248 321 374 463
#     4  12  25  45  80 107 143 199 263 317 370 466
#
# _framework density 24.462531999999999
#
# number of rings (size 3 to 8) (size 9 to 14) (size 15 to 20)
#    0.000    0.500    5.000    2.250    8.750    2.000 
#    4.500    0.000    0.000    0.000    0.000    0.000 
#    0.000    0.000    0.000    0.000    0.000    0.000 
#
# Total GULP energy -268413.837228 kJ/mol
# GULP energy per Si atom -5591.954942 kJ/mol
# Density = 2.440685 g / cm^3
# Si number density = 24.462532 Si / 1000 Ang^3
#
#
#
# Elastic Constant Matrix: (Units=GPa)
#
#
# Indices 1 2 3 4 5 6 
#
# 1 53.9009 7.0280 3.7395 0.0000 0.0000 0.0000
# 2 7.0280 53.9009 3.7395 0.0000 0.0000 0.0000
# 3 3.7395 3.7395 116.5642 0.0000 0.0000 0.0000
# 4 0.0000 0.0000 0.0000 37.5108 0.0000 0.0000
# 5 0.0000 0.0000 0.0000 0.0000 37.5108 0.0000
# 6 0.0000 0.0000 0.0000 0.0000 0.0000 23.4364
#
#
#
# Elastic Compliance Matrix: (Units=1/GPa)
#
#
# Indices 1 2 3 4 5 6 
#
# 1 0.018906 -0.002428 -0.000529 0.000000 0.000000 0.000000
# 2 -0.002428 0.018906 -0.000529 0.000000 0.000000 0.000000
# 3 -0.000529 -0.000529 0.008613 0.000000 0.000000 0.000000
# 4 0.000000 0.000000 0.000000 0.026659 0.000000 0.000000
# 5 0.000000 0.000000 0.000000 0.000000 0.026659 0.000000
# 6 0.000000 0.000000 0.000000 0.000000 0.000000 0.042669
#
#
# Mechanical properties :
#
#
# Convention : Reuss Voigt Hill
#
# Bulk Modulus (GPa) = 25.34638 28.15331 26.74985
# Shear Modulus (GPa) = 30.76284 33.68219 32.22252
#
# Velocity S-wave (km/s) = 3.55004 3.71467 3.63329
# Velocity P-wave (km/s) = 5.21417 5.47102 5.34414
#
# Compressibility (1/GPa) = 0.03945337
#
# Stress axis : x y z
#
# Youngs Moduli (GPa) = 52.89356 52.89356 116.10517
#
# Poissons Ratio (x) = 0.12845 0.06137
# Poissons Ratio (y) = 0.12845 0.06137
# Poissons Ratio (z) = 0.02796 0.02796
#
# Static dielectric constant tensor:
#      x y z
#    x 1.989690 0.000000 0.000000 
#    y 0.000000 1.989690 0.000000 
#    z 0.000000 0.000000 1.959430 
# 
# From -- ./inp_files/1471.got.cif
#   From: 2010.05.17/outbox.cif.g08.bks.cpg/sg170_cif.got.tgz:1471.got - 2010.05.20 11:14:30.
