data_PCOD9580537
_publ_section_title
;
Structure prediction by ZEFSAII (Michael W. Deem and Ramdas Pophale) SiO2 
 PCOD9580537
Probable space group: P 62
;
_chemical_formula_sum "Si O2"
_cell_formula_units_Z 45
_cell_length_a 15.420959
_cell_length_b 15.420959
_cell_length_c 11.599356
_cell_angle_alpha 90.000000
_cell_angle_beta 90.000000
_cell_angle_gamma 120.000000
_cell_volume 2388.841166
_symmetry_space_group_name_H-M "P 62"
_symmetry_group_IT_number 171
_symmetry_cell_setting 'hexagonal'
loop_
_space_group_symop_operation_xyz
x,y,z
x-y,x,1/3+z
-y,x-y,2/3+z
-x,-y,z
-x+y,-x,1/3+z
y,-x+y,2/3+z
loop_
_atom_site_type_symbol
_atom_site_label
_atom_site_fract_x
_atom_site_fract_y
_atom_site_fract_z
Si Si1 0.601776 0.996365 0.302700
Si Si2 0.000000 0.000000 0.936206
Si Si3 0.259187 0.499219 0.672491
Si Si4 0.474976 0.291113 0.803159
Si Si5 0.900009 0.211414 0.598305
Si Si6 0.278132 0.683949 0.255090
Si Si7 0.128392 0.957263 0.771217
Si Si8 0.382623 0.965040 0.044203
O O1 0.570899 0.879955 0.321160
O O2 0.500000 0.000000 0.295826
O O3 0.658223 0.077051 0.403504
O O4 0.650440 0.034436 0.177097
O O5 0.952474 0.056127 0.866894
O O6 0.086921 0.091464 0.006137
O O7 0.269142 0.530070 0.806852
O O8 0.322992 0.603547 0.602120
O O9 0.141542 0.451306 0.651317
O O10 0.389304 0.201632 0.872645
O O11 0.527416 0.258256 0.703065
O O12 0.565883 0.356981 0.892831
O O13 0.880693 0.138743 0.707660
O O14 0.970576 0.202134 0.501696
O O15 0.952924 0.322780 0.644081
O O16 0.500000 0.000000 0.043560
#
# Coordination Sequence:
#
# PCOD9580537 Si02
#       8
#     6   3   6   6   6   6   6   6
#     4  11  21  41  69  94 126 164 228 261 314 394
#     4   8  16  40  72  86 116 174 210 246 324 386
#     4  11  21  40  69  96 123 172 217 273 318 389
#     4  11  23  42  63  99 128 171 210 270 322 398
#     4  11  25  42  59  98 133 162 213 264 330 379
#     4  10  20  39  68  89 125 165 213 254 330 384
#     4   9  20  41  63  91 126 162 209 263 311 392
#     4  11  24  43  64  93 127 174 220 270 314 391
#
# _framework density 18.837586000000002
#
# number of rings (size 3 to 8) (size 9 to 14) (size 15 to 20)
#    0.000    1.600    4.000    1.600    1.867    3.200 
#    9.600    0.000    0.000    0.000    0.000    0.000 
#    0.000    0.000    0.000    0.000    0.000    0.000 
#
# Total GULP energy -250631.965634 kJ/mol
# GULP energy per Si atom -5569.599236 kJ/mol
# Density = 1.879471 g / cm^3
# Si number density = 18.837586 Si / 1000 Ang^3
#
#
#
# Elastic Constant Matrix: (Units=GPa)
#
#
# Indices 1 2 3 4 5 6 
#
# 1 87.0004 41.8355 35.3388 0.0000 0.0000 0.0000
# 2 41.8355 87.0004 35.3388 0.0000 0.0000 0.0000
# 3 35.3388 35.3388 67.4623 0.0000 0.0000 0.0000
# 4 0.0000 0.0000 0.0000 -6.6816 0.0000 0.0000
# 5 0.0000 0.0000 0.0000 0.0000 -6.6816 0.0000
# 6 0.0000 0.0000 0.0000 0.0000 0.0000 22.5824
#
#
#
# Elastic Compliance Matrix: (Units=1/GPa)
#
#
# Indices 1 2 3 4 5 6 
#
# 1 0.016516 -0.005625 -0.005705 0.000000 0.000000 0.000000
# 2 -0.005625 0.016516 -0.005705 0.000000 0.000000 0.000000
# 3 -0.005705 -0.005705 0.020800 0.000000 0.000000 0.000000
# 4 0.000000 0.000000 0.000000 -0.149666 0.000000 0.000000
# 5 0.000000 0.000000 0.000000 0.000000 -0.149666 0.000000
# 6 0.000000 0.000000 0.000000 0.000000 0.000000 0.044282
#
#
# Mechanical properties :
#
#
# Convention : Reuss Voigt Hill
#
# Bulk Modulus (GPa) = 50.60160 51.83215 51.21688
# Shear Modulus (GPa) = -31.14144 10.44054 -10.35045
#
# Velocity S-wave (km/s) = -4.07031 2.35678 -2.34659
# Velocity P-wave (km/s) = 2.19783 5.91447 4.46158
#
# Compressibility (1/GPa) = 0.01976222
#
# Stress axis : x y z
#
# Youngs Moduli (GPa) = 60.54586 60.54586 48.07598
#
# Poissons Ratio (x) = 0.34055 0.27429
# Poissons Ratio (y) = 0.34055 0.27429
# Poissons Ratio (z) = 0.34544 0.34544
#
# Static dielectric constant tensor:
#      x y z
#    x 1.694490 0.000000 0.000000 
#    y 0.000000 1.694490 0.000000 
#    z 0.000000 0.000000 1.682520 
# 
# From -- ./inp_files/4716.got.cif
#   From: 2010.05.17/outbox.cif.g08.bks.cpg/sg171_3_cif.got.tgz:4716.got - 2010.05.20 11:16:09.
