data_PCOD9580058
_publ_section_title
;
Structure prediction by ZEFSAII (Michael W. Deem and Ramdas Pophale) SiO2 
 PCOD9580058
Probable space group: P 61
;
_chemical_formula_sum "Si O2"
_cell_formula_units_Z 42
_cell_length_a 8.246980
_cell_length_b 8.246980
_cell_length_c 28.190018
_cell_angle_alpha 90.000000
_cell_angle_beta 90.000000
_cell_angle_gamma 120.000000
_cell_volume 1660.412016
_symmetry_space_group_name_H-M "P 61"
_symmetry_group_IT_number 169
_symmetry_cell_setting 'hexagonal'
loop_
_space_group_symop_operation_xyz
x,y,z
x-y,x,1/6+z
-y,x-y,1/3+z
-x,-y,1/2+z
-x+y,-x,2/3+z
y,-x+y,5/6+z
loop_
_atom_site_type_symbol
_atom_site_label
_atom_site_fract_x
_atom_site_fract_y
_atom_site_fract_z
Si Si1 0.063397 0.990281 0.247210
Si Si2 0.559764 0.690343 0.737599
Si Si3 0.790006 0.907409 0.331182
Si Si4 0.519316 0.276411 0.400902
Si Si5 0.157187 0.675920 0.481933
Si Si6 0.919185 0.559150 0.607073
Si Si7 0.434974 0.431763 0.130136
O O1 0.883757 0.909557 0.280489
O O2 0.152592 0.857235 0.241379
O O3 0.003142 0.034719 0.197671
O O4 0.237699 0.190913 0.261999
O O5 0.430243 0.501406 0.766049
O O6 0.453959 0.805494 0.750478
O O7 0.579301 0.660419 0.681892
O O8 0.678134 0.688914 0.343477
O O9 0.672242 0.012410 0.326343
O O10 0.564739 0.327416 0.345768
O O11 0.605402 0.480071 0.424423
O O12 0.604961 0.167236 0.427796
O O13 0.343370 0.875748 0.473851
O O14 0.759190 0.620172 0.603600
#
# Coordination Sequence:
#
# PCOD9580058 Si02
#       7
#     6   6   6   6   6   6   6
#     4  11  24  44  71 101 148 199 243 311 382 461
#     4  10  24  49  69 107 150 192 253 312 395 468
#     4  12  24  44  72 108 147 188 258 310 379 466
#     4  11  25  48  74 107 156 200 252 322 391 474
#     4  11  26  45  75 111 144 199 255 314 398 472
#     4  10  25  46  69 114 140 198 255 311 388 472
#     4  11  24  50  76 110 151 206 252 326 395 475
#
# _framework density 25.294926
#
# number of rings (size 3 to 8) (size 9 to 14) (size 15 to 20)
#    0.000    1.143    2.857    1.714    4.000    4.571 
#   20.571    0.000    0.000    0.000    0.000    0.000 
#    0.000    0.000    0.000    0.000    0.000    0.000 
#
# Total GULP energy -234253.150055 kJ/mol
# GULP energy per Si atom -5577.455954 kJ/mol
# Density = 2.523735 g / cm^3
# Si number density = 25.294926 Si / 1000 Ang^3
#
#
#
# Elastic Constant Matrix: (Units=GPa)
#
#
# Indices 1 2 3 4 5 6 
#
# 1 118.9806 32.3699 28.2942 0.0000 0.0000 0.0000
# 2 32.3699 118.9806 28.2942 0.0000 0.0000 0.0000
# 3 28.2942 28.2942 81.0326 0.0000 0.0000 0.0000
# 4 0.0000 0.0000 0.0000 34.0081 0.0000 0.0000
# 5 0.0000 0.0000 0.0000 0.0000 34.0081 0.0000
# 6 0.0000 0.0000 0.0000 0.0000 0.0000 43.3054
#
#
#
# Elastic Compliance Matrix: (Units=1/GPa)
#
#
# Indices 1 2 3 4 5 6 
#
# 1 0.009573 -0.001973 -0.002653 0.000000 0.000000 0.000000
# 2 -0.001973 0.009573 -0.002653 0.000000 0.000000 0.000000
# 3 -0.002653 -0.002653 0.014194 0.000000 0.000000 0.000000
# 4 0.000000 0.000000 0.000000 0.029405 0.000000 0.000000
# 5 0.000000 0.000000 0.000000 0.000000 0.029405 0.000000
# 6 0.000000 0.000000 0.000000 0.000000 0.000000 0.023092
#
#
# Mechanical properties :
#
#
# Convention : Reuss Voigt Hill
#
# Bulk Modulus (GPa) = 53.25241 55.21228 54.23234
# Shear Modulus (GPa) = 36.74847 37.60004 37.17426
#
# Velocity S-wave (km/s) = 3.81570 3.85965 3.83774
# Velocity P-wave (km/s) = 6.36483 6.46045 6.41282
#
# Compressibility (1/GPa) = 0.01877849
#
# Stress axis : x y z
#
# Youngs Moduli (GPa) = 104.46491 104.46491 70.45369
#
# Poissons Ratio (x) = 0.20614 0.18694
# Poissons Ratio (y) = 0.20614 0.18694
# Poissons Ratio (z) = 0.27719 0.27719
#
# Static dielectric constant tensor:
#      x y z
#    x 2.031590 0.000000 0.000000 
#    y 0.000000 2.031590 0.000000 
#    z 0.000000 0.000000 1.997050 
# 
# From -- ./inp_files/1899.got.cif
#   From: 2010.05.17/outbox.cif.g08.bks.cpg/sg169_cif.got.tgz:1899.got - 2010.05.20 11:12:54.
