data_PCOD9580662
_publ_section_title
;
Structure prediction by ZEFSAII (Michael W. Deem and Ramdas Pophale) SiO2 
 PCOD9580662
Probable space group: P 62
;
_chemical_formula_sum "Si O2"
_cell_formula_units_Z 24
_cell_length_a 10.181571
_cell_length_b 10.181571
_cell_length_c 12.294553
_cell_angle_alpha 90.000000
_cell_angle_beta 90.000000
_cell_angle_gamma 120.000000
_cell_volume 1103.755710
_symmetry_space_group_name_H-M "P 62"
_symmetry_group_IT_number 171
_symmetry_cell_setting 'hexagonal'
loop_
_space_group_symop_operation_xyz
x,y,z
x-y,x,1/3+z
-y,x-y,2/3+z
-x,-y,z
-x+y,-x,1/3+z
y,-x+y,2/3+z
loop_
_atom_site_type_symbol
_atom_site_label
_atom_site_fract_x
_atom_site_fract_y
_atom_site_fract_z
Si Si1 0.929234 0.783971 0.002950
Si Si2 0.186373 0.396307 0.784862
Si Si3 0.321242 0.161065 0.913467
Si Si4 0.500000 0.000000 0.549299
Si Si5 0.000000 0.500000 0.664943
O O1 0.852681 0.704379 0.116947
O O2 0.104236 0.846456 0.036906
O O3 0.896025 0.676214 0.898914
O O4 0.841168 0.873679 0.965693
O O5 0.363750 0.484479 0.809186
O O6 0.132205 0.505151 0.737749
O O7 0.428928 0.339581 0.944107
O O8 0.406040 0.068748 0.940221
#
# Coordination Sequence:
#
# PCOD9580662 Si02
#       5
#     6   6   6   3   3
#     4   8  20  44  66  85 126 177 220 252 320 392
#     4  10  22  41  66  98 129 173 218 271 323 389
#     4  10  22  41  66  98 129 173 218 271 323 389
#     4   8  20  42  68  86 124 176 220 260 320 376
#     4  12  28  38  64 108 140 160 212 278 332 382
#
# _framework density 21.743943999999999
#
# number of rings (size 3 to 8) (size 9 to 14) (size 15 to 20)
#    0.000    3.000    0.000    0.000    0.000   23.000 
#    0.000   10.000    0.000    0.000    0.000    0.000 
#    0.000    0.000    0.000    0.000    0.000    0.000 
#
# Total GULP energy -133624.387041 kJ/mol
# GULP energy per Si atom -5567.682793 kJ/mol
# Density = 2.169445 g / cm^3
# Si number density = 21.743944 Si / 1000 Ang^3
#
#
#
# Elastic Constant Matrix: (Units=GPa)
#
#
# Indices 1 2 3 4 5 6 
#
# 1 99.3197 36.3989 24.2340 0.0000 0.0000 0.0000
# 2 36.3989 99.3197 24.2340 0.0000 0.0000 0.0000
# 3 24.2340 24.2340 89.8804 0.0000 0.0000 0.0000
# 4 0.0000 0.0000 0.0000 18.2875 0.0000 0.0000
# 5 0.0000 0.0000 0.0000 0.0000 18.2875 0.0000
# 6 0.0000 0.0000 0.0000 0.0000 0.0000 31.4604
#
#
#
# Elastic Compliance Matrix: (Units=1/GPa)
#
#
# Indices 1 2 3 4 5 6 
#
# 1 0.012023 -0.003870 -0.002198 0.000000 0.000000 0.000000
# 2 -0.003870 0.012023 -0.002198 0.000000 0.000000 0.000000
# 3 -0.002198 -0.002198 0.012311 0.000000 0.000000 0.000000
# 4 0.000000 0.000000 0.000000 0.054682 0.000000 0.000000
# 5 0.000000 0.000000 0.000000 0.000000 0.054682 0.000000
# 6 0.000000 0.000000 0.000000 0.000000 0.000000 0.031786
#
#
# Mechanical properties :
#
#
# Convention : Reuss Voigt Hill
#
# Bulk Modulus (GPa) = 50.44247 50.91707 50.67977
# Shear Modulus (GPa) = 24.91915 27.18396 26.05156
#
# Velocity S-wave (km/s) = 3.38897 3.53963 3.46512
# Velocity P-wave (km/s) = 6.20985 6.33820 6.27436
#
# Compressibility (1/GPa) = 0.01982456
#
# Stress axis : x y z
#
# Youngs Moduli (GPa) = 83.17309 83.17309 81.22587
#
# Poissons Ratio (x) = 0.32187 0.17856
# Poissons Ratio (y) = 0.32187 0.17856
# Poissons Ratio (z) = 0.18284 0.18284
#
# Static dielectric constant tensor:
#      x y z
#    x 1.867280 0.000000 0.000000 
#    y 0.000000 1.867280 0.000000 
#    z 0.000000 0.000000 1.773860 
# 
# From -- ./inp_files/1836.got.cif
#   From: 2010.05.17/outbox.cif.g08.bks.cpg/sg171_1_cif.got.tgz:1836.got - 2010.05.20 11:16:09.
