data_PCOD9580052
_publ_section_title
;
Structure prediction by ZEFSAII (Michael W. Deem and Ramdas Pophale) SiO2 
 PCOD9580052
Probable space group: P 61
;
_chemical_formula_sum "Si O2"
_cell_formula_units_Z 24
_cell_length_a 14.902708
_cell_length_b 14.902708
_cell_length_c 5.121625
_cell_angle_alpha 90.000000
_cell_angle_beta 90.000000
_cell_angle_gamma 120.000000
_cell_volume 985.073855
_symmetry_space_group_name_H-M "P 61"
_symmetry_group_IT_number 169
_symmetry_cell_setting 'hexagonal'
loop_
_space_group_symop_operation_xyz
x,y,z
x-y,x,1/6+z
-y,x-y,1/3+z
-x,-y,1/2+z
-x+y,-x,2/3+z
y,-x+y,5/6+z
loop_
_atom_site_type_symbol
_atom_site_label
_atom_site_fract_x
_atom_site_fract_y
_atom_site_fract_z
Si Si1 0.726103 0.549028 0.209570
Si Si2 0.072606 0.842689 0.205535
Si Si3 0.602815 0.762889 0.546692
Si Si4 0.501624 0.444618 0.304541
O O1 0.811287 0.562603 0.422132
O O2 0.616057 0.460350 0.304526
O O3 0.752946 0.669792 0.192080
O O4 0.745967 0.530688 0.912318
O O5 0.141856 0.955291 0.334256
O O6 0.138027 0.853208 0.939074
O O7 0.589546 0.659576 0.678833
O O8 0.481010 0.468935 0.591133
#
# Coordination Sequence:
#
# PCOD9580052 Si02
#       4
#     6   6   6   6
#     4  10  24  43  68  99 140 179 230 296 354 424
#     4  10  24  46  66 103 140 191 242 292 358 422
#     4  10  24  43  68  99 140 179 230 296 354 424
#     4  12  24  42  72 101 132 183 236 288 362 428
#
# _framework density 24.363657
#
# number of rings (size 3 to 8) (size 9 to 14) (size 15 to 20)
#    1.500    0.000    0.000    4.500    7.000    0.000 
#    9.000    0.000    0.000    0.000    0.000    0.000 
#    0.000    0.000    0.000    0.000    0.000    0.000 
#
# Total GULP energy -133783.157484 kJ/mol
# GULP energy per Si atom -5574.298229 kJ/mol
# Density = 2.430820 g / cm^3
# Si number density = 24.363657 Si / 1000 Ang^3
#
#
#
# Elastic Constant Matrix: (Units=GPa)
#
#
# Indices 1 2 3 4 5 6 
#
# 1 77.3080 20.1450 -0.7556 0.0000 0.0000 0.0000
# 2 20.1450 77.3080 -0.7556 0.0000 0.0000 0.0000
# 3 -0.7556 -0.7556 65.8383 0.0000 0.0000 0.0000
# 4 0.0000 0.0000 0.0000 26.6865 0.0000 0.0000
# 5 0.0000 0.0000 0.0000 0.0000 26.6865 0.0000
# 6 0.0000 0.0000 0.0000 0.0000 0.0000 28.5815
#
#
#
# Elastic Compliance Matrix: (Units=1/GPa)
#
#
# Indices 1 2 3 4 5 6 
#
# 1 0.013879 -0.003615 0.000118 0.000000 0.000000 0.000000
# 2 -0.003615 0.013879 0.000118 0.000000 0.000000 0.000000
# 3 0.000118 0.000118 0.015191 0.000000 0.000000 0.000000
# 4 0.000000 0.000000 0.000000 0.037472 0.000000 0.000000
# 5 0.000000 0.000000 0.000000 0.000000 0.037472 0.000000
# 6 0.000000 0.000000 0.000000 0.000000 0.000000 0.034988
#
#
# Mechanical properties :
#
#
# Convention : Reuss Voigt Hill
#
# Bulk Modulus (GPa) = 27.63275 28.63577 28.13426
# Shear Modulus (GPa) = 29.12005 29.84558 29.48282
#
# Velocity S-wave (km/s) = 3.46095 3.50380 3.48244
# Velocity P-wave (km/s) = 5.22851 5.30545 5.26712
#
# Compressibility (1/GPa) = 0.03618894
#
# Stress axis : x y z
#
# Youngs Moduli (GPa) = 72.05381 72.05381 65.82656
#
# Poissons Ratio (x) = 0.26050 -0.00775
# Poissons Ratio (y) = 0.26050 -0.00775
# Poissons Ratio (z) = -0.00849 -0.00849
#
# Static dielectric constant tensor:
#      x y z
#    x 1.987130 0.000000 0.000000 
#    y 0.000000 1.987130 0.000000 
#    z 0.000000 0.000000 1.937200 
# 
# From -- ./inp_files/90.got.cif
#   From: 2010.05.17/outbox.cif.g08.bks.cpg/sg169_cif.got.tgz:90.got - 2010.05.20 11:12:54.
