data_PCOD9580277
_publ_section_title
;
Structure prediction by ZEFSAII (Michael W. Deem and Ramdas Pophale) SiO2 
 PCOD9580277
Probable space group: P 65
;
_chemical_formula_sum "Si O2"
_cell_formula_units_Z 30
_cell_length_a 13.729514
_cell_length_b 13.729514
_cell_length_c 10.009379
_cell_angle_alpha 90.000000
_cell_angle_beta 90.000000
_cell_angle_gamma 120.000000
_cell_volume 1633.985108
_symmetry_space_group_name_H-M "P 65"
_symmetry_group_IT_number 170
_symmetry_cell_setting 'hexagonal'
loop_
_space_group_symop_operation_xyz
x,y,z
x-y,x,5/6+z
-y,x-y,2/3+z
-x,-y,1/2+z
-x+y,-x,1/3+z
y,-x+y,1/6+z
loop_
_atom_site_type_symbol
_atom_site_label
_atom_site_fract_x
_atom_site_fract_y
_atom_site_fract_z
Si Si1 0.369201 0.581033 0.277300
Si Si2 0.840668 0.385566 0.805018
Si Si3 0.816403 0.252661 0.554799
Si Si4 0.581345 0.953287 0.151881
Si Si5 0.787114 0.950301 0.244878
O O1 0.272955 0.613731 0.269308
O O2 0.482216 0.690465 0.332464
O O3 0.333648 0.482532 0.383732
O O4 0.376284 0.537157 0.131568
O O5 0.834869 0.289349 0.708622
O O6 0.949109 0.506360 0.777211
O O7 0.899355 0.363214 0.465575
O O8 0.860208 0.168009 0.513317
O O9 0.712578 0.991410 0.161671
O O10 0.830297 0.884738 0.154602
#
# Coordination Sequence:
#
# PCOD9580277 Si02
#       5
#     6   6   6   6   6
#     4  12  21  38  57  90 134 172 214 262 335 393
#     4  12  21  35  59  90 127 178 208 266 325 398
#     4  10  22  38  60  92 126 170 216 265 325 402
#     4  10  22  37  62  92 128 165 221 265 322 396
#     4  10  22  44  74  92 123 173 223 274 333 385
#
# _framework density 18.360019999999999
#
# number of rings (size 3 to 8) (size 9 to 14) (size 15 to 20)
#    1.200    0.000    4.000    3.600    2.800    0.000 
#    0.000    0.000    8.800    0.000    0.000    0.000 
#    0.000    0.000    0.000    0.000    0.000    0.000 
#
# Total GULP energy -167145.818877 kJ/mol
# GULP energy per Si atom -5571.527296 kJ/mol
# Density = 1.831823 g / cm^3
# Si number density = 18.360020 Si / 1000 Ang^3
#
#
#
# Elastic Constant Matrix: (Units=GPa)
#
#
# Indices 1 2 3 4 5 6 
#
# 1 31.8426 9.7761 19.8450 0.0000 0.0000 0.0000
# 2 9.7761 31.8426 19.8450 0.0000 0.0000 0.0000
# 3 19.8450 19.8450 82.4420 0.0000 0.0000 0.0000
# 4 0.0000 0.0000 0.0000 29.3312 0.0000 0.0000
# 5 0.0000 0.0000 0.0000 0.0000 29.3312 0.0000
# 6 0.0000 0.0000 0.0000 0.0000 0.0000 11.0332
#
#
#
# Elastic Compliance Matrix: (Units=1/GPa)
#
#
# Indices 1 2 3 4 5 6 
#
# 1 0.038252 -0.007065 -0.007507 0.000000 0.000000 0.000000
# 2 -0.007065 0.038252 -0.007507 0.000000 0.000000 0.000000
# 3 -0.007507 -0.007507 0.015744 0.000000 0.000000 0.000000
# 4 0.000000 0.000000 0.000000 0.034093 0.000000 0.000000
# 5 0.000000 0.000000 0.000000 0.000000 0.034093 0.000000
# 6 0.000000 0.000000 0.000000 0.000000 0.000000 0.090635
#
#
# Mechanical properties :
#
#
# Convention : Reuss Voigt Hill
#
# Bulk Modulus (GPa) = 20.79475 27.22882 24.01179
# Shear Modulus (GPa) = 16.06378 20.38320 18.22349
#
# Velocity S-wave (km/s) = 2.96114 3.33557 3.15392
# Velocity P-wave (km/s) = 4.80019 5.44953 5.13513
#
# Compressibility (1/GPa) = 0.04808905
#
# Stress axis : x y z
#
# Youngs Moduli (GPa) = 26.14228 26.14228 63.51669
#
# Poissons Ratio (x) = 0.18471 0.47683
# Poissons Ratio (y) = 0.18471 0.47683
# Poissons Ratio (z) = 0.19625 0.19625
#
# Static dielectric constant tensor:
#      x y z
#    x 1.629140 0.000000 0.000000 
#    y 0.000000 1.629140 0.000000 
#    z 0.000000 0.000000 1.674030 
# 
# From -- ./inp_files/527.got.cif
#   From: 2010.05.17/outbox.cif.g08.bks.cpg/sg170_cif.got.tgz:527.got - 2010.05.20 11:14:30.
