data_PCOD9580150
_publ_section_title
;
Structure prediction by ZEFSAII (Michael W. Deem and Ramdas Pophale) SiO2 
 PCOD9580150
Probable space group: P 61
;
_chemical_formula_sum "Si O2"
_cell_formula_units_Z 18
_cell_length_a 10.491377
_cell_length_b 10.491377
_cell_length_c 7.538702
_cell_angle_alpha 90.000000
_cell_angle_beta 90.000000
_cell_angle_gamma 120.000000
_cell_volume 718.608243
_symmetry_space_group_name_H-M "P 61"
_symmetry_group_IT_number 169
_symmetry_cell_setting 'hexagonal'
loop_
_space_group_symop_operation_xyz
x,y,z
x-y,x,1/6+z
-y,x-y,1/3+z
-x,-y,1/2+z
-x+y,-x,2/3+z
y,-x+y,5/6+z
loop_
_atom_site_type_symbol
_atom_site_label
_atom_site_fract_x
_atom_site_fract_y
_atom_site_fract_z
Si Si1 0.860847 0.374483 0.504710
Si Si2 0.823577 0.689866 0.100099
Si Si3 0.136628 0.675324 0.619092
O O1 0.788926 0.252164 0.657342
O O2 0.887487 0.307344 0.326410
O O3 0.757559 0.441703 0.446436
O O4 0.013340 0.504617 0.584516
O O5 0.750702 0.655177 0.294711
O O6 0.993445 0.775930 0.143844
#
# Coordination Sequence:
#
# PCOD9580150 Si02
#       3
#     6   6   6
#     4  12  29  47  81 125 167 227 282 358 433 505
#     4  12  29  57  81 121 167 230 286 346 429 519
#     4  12  26  46  80 118 172 215 276 348 424 508
#
# _framework density 25.04842
#
# number of rings (size 3 to 8) (size 9 to 14) (size 15 to 20)
#    0.000    0.000    6.667    0.000   14.000    0.000 
#    6.000    0.000    0.000    0.000    0.000    0.000 
#    0.000    0.000    0.000    0.000    0.000    0.000 
#
# Total GULP energy -100590.806616 kJ/mol
# GULP energy per Si atom -5588.378145 kJ/mol
# Density = 2.499141 g / cm^3
# Si number density = 25.048420 Si / 1000 Ang^3
#
#
#
# Elastic Constant Matrix: (Units=GPa)
#
#
# Indices 1 2 3 4 5 6 
#
# 1 135.2701 64.5409 52.8611 0.0000 0.0000 0.0000
# 2 64.5409 135.2701 52.8611 0.0000 0.0000 0.0000
# 3 52.8611 52.8611 182.5414 0.0000 0.0000 0.0000
# 4 0.0000 0.0000 0.0000 45.7424 0.0000 0.0000
# 5 0.0000 0.0000 0.0000 0.0000 45.7424 0.0000
# 6 0.0000 0.0000 0.0000 0.0000 0.0000 35.3646
#
#
#
# Elastic Compliance Matrix: (Units=1/GPa)
#
#
# Indices 1 2 3 4 5 6 
#
# 1 0.010024 -0.004114 -0.001712 0.000000 0.000000 0.000000
# 2 -0.004114 0.010024 -0.001712 0.000000 0.000000 0.000000
# 3 -0.001712 -0.001712 0.006469 0.000000 0.000000 0.000000
# 4 0.000000 0.000000 0.000000 0.021862 0.000000 0.000000
# 5 0.000000 0.000000 0.000000 0.000000 0.021862 0.000000
# 6 0.000000 0.000000 0.000000 0.000000 0.000000 0.028277
#
#
# Mechanical properties :
#
#
# Convention : Reuss Voigt Hill
#
# Bulk Modulus (GPa) = 87.38218 88.17862 87.78040
# Shear Modulus (GPa) = 42.58685 44.22445 43.40565
#
# Velocity S-wave (km/s) = 4.12780 4.20641 4.16729
# Velocity P-wave (km/s) = 7.59469 7.67278 7.63384
#
# Compressibility (1/GPa) = 0.01144398
#
# Stress axis : x y z
#
# Youngs Moduli (GPa) = 99.75680 99.75680 154.57200
#
# Poissons Ratio (x) = 0.41040 0.26456
# Poissons Ratio (y) = 0.41040 0.26456
# Poissons Ratio (z) = 0.17074 0.17074
#
# Static dielectric constant tensor:
#      x y z
#    x 2.071390 0.000000 0.000000 
#    y 0.000000 2.071390 0.000000 
#    z 0.000000 0.000000 1.895330 
# 
# From -- ./inp_files/419.got.cif
#   From: 2010.05.17/outbox.cif.g08.bks.cpg/sg169_cif.got.tgz:419.got - 2010.05.20 11:12:54.
