data_PCOD9580611
_publ_section_title
;
Structure prediction by ZEFSAII (Michael W. Deem and Ramdas Pophale) SiO2 
 PCOD9580611
Probable space group: P 62
;
_chemical_formula_sum "Si O2"
_cell_formula_units_Z 18
_cell_length_a 7.230646
_cell_length_b 7.230646
_cell_length_c 15.595014
_cell_angle_alpha 90.000000
_cell_angle_beta 90.000000
_cell_angle_gamma 120.000000
_cell_volume 706.107135
_symmetry_space_group_name_H-M "P 62"
_symmetry_group_IT_number 171
_symmetry_cell_setting 'hexagonal'
loop_
_space_group_symop_operation_xyz
x,y,z
x-y,x,1/3+z
-y,x-y,2/3+z
-x,-y,z
-x+y,-x,1/3+z
y,-x+y,2/3+z
loop_
_atom_site_type_symbol
_atom_site_label
_atom_site_fract_x
_atom_site_fract_y
_atom_site_fract_z
Si Si1 0.534394 0.217560 0.720500
Si Si2 0.849041 0.151165 0.021740
Si Si3 0.395197 0.144825 0.177854
O O1 0.723438 0.439381 0.684539
O O2 0.322953 0.234791 0.717488
O O3 0.628758 0.218112 0.814472
O O4 0.500000 0.000000 0.677838
O O5 0.851313 0.102789 0.921611
O O6 0.740725 0.967916 0.092116
O O7 0.500000 0.000000 0.204036
#
# Coordination Sequence:
#
# PCOD9580611 Si02
#       3
#     6   6   6
#     4  10  22  39  64  99 132 184 228 288 355 427
#     4  10  22  44  67  99 139 183 237 296 359 433
#     4  10  21  42  66  97 137 181 235 294 357 430
#
# _framework density 25.491883000000001
#
# number of rings (size 3 to 8) (size 9 to 14) (size 15 to 20)
#    0.000    2.000    3.333    0.000    0.000    8.000 
#    0.000    3.333    0.000    0.000    0.000    0.000 
#    0.000    0.000    0.000    0.000    0.000    0.000 
#
# Total GULP energy -100610.792181 kJ/mol
# GULP energy per Si atom -5589.488455 kJ/mol
# Density = 2.543386 g / cm^3
# Si number density = 25.491883 Si / 1000 Ang^3
#
#
#
# Elastic Constant Matrix: (Units=GPa)
#
#
# Indices 1 2 3 4 5 6 
#
# 1 108.2797 26.3889 40.5646 0.0000 0.0000 0.0000
# 2 26.3889 108.2797 40.5646 0.0000 0.0000 0.0000
# 3 40.5646 40.5646 201.8785 0.0000 0.0000 0.0000
# 4 0.0000 0.0000 0.0000 23.8513 0.0000 0.0000
# 5 0.0000 0.0000 0.0000 0.0000 23.8513 0.0000
# 6 0.0000 0.0000 0.0000 0.0000 0.0000 40.9454
#
#
#
# Elastic Compliance Matrix: (Units=1/GPa)
#
#
# Indices 1 2 3 4 5 6 
#
# 1 0.010330 -0.001882 -0.001698 0.000000 0.000000 0.000000
# 2 -0.001882 0.010330 -0.001698 0.000000 0.000000 0.000000
# 3 -0.001698 -0.001698 0.005636 0.000000 0.000000 0.000000
# 4 0.000000 0.000000 0.000000 0.041926 0.000000 0.000000
# 5 0.000000 0.000000 0.000000 0.000000 0.041926 0.000000
# 6 0.000000 0.000000 0.000000 0.000000 0.000000 0.024423
#
#
# Mechanical properties :
#
#
# Convention : Reuss Voigt Hill
#
# Bulk Modulus (GPa) = 63.52421 70.38602 66.95511
# Shear Modulus (GPa) = 33.25095 38.45760 35.85428
#
# Velocity S-wave (km/s) = 3.61553 3.88831 3.75440
# Velocity P-wave (km/s) = 6.51175 6.91590 6.71687
#
# Compressibility (1/GPa) = 0.01574203
#
# Stress axis : x y z
#
# Youngs Moduli (GPa) = 96.80688 96.80688 177.44088
#
# Poissons Ratio (x) = 0.18215 0.30122
# Poissons Ratio (y) = 0.18215 0.30122
# Poissons Ratio (z) = 0.16434 0.16434
#
# Static dielectric constant tensor:
#      x y z
#    x 2.052270 0.000000 0.000000 
#    y 0.000000 2.052270 0.000000 
#    z 0.000000 0.000000 2.042810 
# 
# From -- ./inp_files/3269.got.cif
#   From: 2010.05.17/outbox.cif.g08.bks.cpg/sg171_2_cif.got.tgz:3269.got - 2010.05.20 11:16:09.
