data_PCOD9580848
_publ_section_title
;
Structure prediction by ZEFSAII (Michael W. Deem and Ramdas Pophale) SiO2 
 PCOD9580848
Probable space group: P 62
;
_chemical_formula_sum "Si O2"
_cell_formula_units_Z 21
_cell_length_a 10.418303
_cell_length_b 10.418303
_cell_length_c 7.624940
_cell_angle_alpha 90.000000
_cell_angle_beta 90.000000
_cell_angle_gamma 120.000000
_cell_volume 716.738990
_symmetry_space_group_name_H-M "P 62"
_symmetry_group_IT_number 171
_symmetry_cell_setting 'hexagonal'
loop_
_space_group_symop_operation_xyz
x,y,z
x-y,x,1/3+z
-y,x-y,2/3+z
-x,-y,z
-x+y,-x,1/3+z
y,-x+y,2/3+z
loop_
_atom_site_type_symbol
_atom_site_label
_atom_site_fract_x
_atom_site_fract_y
_atom_site_fract_z
Si Si1 0.500000 0.500000 0.023301
Si Si2 0.762052 0.592828 0.293865
Si Si3 0.226688 0.562458 0.845874
Si Si4 0.936586 0.794517 0.825008
O O1 0.648638 0.557613 0.136413
O O2 0.456950 0.342330 0.936141
O O3 0.640555 0.503639 0.445235
O O4 0.837531 0.756386 0.371749
O O5 0.353022 0.631954 0.695805
O O6 0.157441 0.386257 0.836648
O O7 0.849673 0.850000 0.691519
#
# Coordination Sequence:
#
# PCOD9580848 Si02
#       4
#     3   6   6   6
#     4  12  24  40  78 134 196 232 326 414 504 590
#     4  12  20  40  78 133 192 240 313 415 492 593
#     4  12  24  45  87 147 199 246 334 435 514 596
#     4  12  24  45  88 145 204 267 338 410 516 629
#
# _framework density 29.299365000000002
#
# number of rings (size 3 to 8) (size 9 to 14) (size 15 to 20)
#    0.000    0.000   11.429    0.000    0.000    0.000 
#    0.000    2.857    0.000    0.000   44.571    8.000 
#    0.000    0.000    0.000    0.000    0.000    0.000 
#
# Total GULP energy -117291.773754 kJ/mol
# GULP energy per Si atom -5585.322560 kJ/mol
# Density = 2.923268 g / cm^3
# Si number density = 29.299365 Si / 1000 Ang^3
#
#
#
# Elastic Constant Matrix: (Units=GPa)
#
#
# Indices 1 2 3 4 5 6 
#
# 1 214.0931 67.5894 97.1924 0.0000 0.0000 0.0000
# 2 67.5894 214.0931 97.1924 0.0000 0.0000 0.0000
# 3 97.1924 97.1924 209.2214 0.0000 0.0000 0.0000
# 4 0.0000 0.0000 0.0000 65.1878 0.0000 0.0000
# 5 0.0000 0.0000 0.0000 0.0000 65.1878 0.0000
# 6 0.0000 0.0000 0.0000 0.0000 0.0000 73.2518
#
#
#
# Elastic Compliance Matrix: (Units=1/GPa)
#
#
# Indices 1 2 3 4 5 6 
#
# 1 0.006025 -0.000800 -0.002427 0.000000 0.000000 0.000000
# 2 -0.000800 0.006025 -0.002427 0.000000 0.000000 0.000000
# 3 -0.002427 -0.002427 0.007035 0.000000 0.000000 0.000000
# 4 0.000000 0.000000 0.000000 0.015340 0.000000 0.000000
# 5 0.000000 0.000000 0.000000 0.000000 0.015340 0.000000
# 6 0.000000 0.000000 0.000000 0.000000 0.000000 0.013652
#
#
# Mechanical properties :
#
#
# Convention : Reuss Voigt Hill
#
# Bulk Modulus (GPa) = 128.60301 129.03955 128.82128
# Shear Modulus (GPa) = 64.66664 65.75439 65.21051
#
# Velocity S-wave (km/s) = 4.70308 4.74247 4.72281
# Velocity P-wave (km/s) = 8.57204 8.60961 8.59085
#
# Compressibility (1/GPa) = 0.00777587
#
# Stress axis : x y z
#
# Youngs Moduli (GPa) = 165.96261 165.96261 142.15045
#
# Poissons Ratio (x) = 0.13282 0.34504
# Poissons Ratio (y) = 0.13282 0.34504
# Poissons Ratio (z) = 0.40284 0.40284
#
# Static dielectric constant tensor:
#      x y z
#    x 2.498470 0.000000 0.000000 
#    y 0.000000 2.498470 0.000000 
#    z 0.000000 0.000000 2.290220 
# 
# From -- ./inp_files/4399.got.cif
#   From: 2010.05.17/outbox.cif.g08.bks.cpg/sg171_3_cif.got.tgz:4399.got - 2010.05.20 11:16:09.
