data_PCOD9580065
_publ_section_title
;
Structure prediction by ZEFSAII (Michael W. Deem and Ramdas Pophale) SiO2 
 PCOD9580065
Probable space group: P 61
;
_chemical_formula_sum "Si O2"
_cell_formula_units_Z 24
_cell_length_a 13.227829
_cell_length_b 13.227829
_cell_length_c 6.877273
_cell_angle_alpha 90.000000
_cell_angle_beta 90.000000
_cell_angle_gamma 120.000000
_cell_volume 1042.135140
_symmetry_space_group_name_H-M "P 61"
_symmetry_group_IT_number 169
_symmetry_cell_setting 'hexagonal'
loop_
_space_group_symop_operation_xyz
x,y,z
x-y,x,1/6+z
-y,x-y,1/3+z
-x,-y,1/2+z
-x+y,-x,2/3+z
y,-x+y,5/6+z
loop_
_atom_site_type_symbol
_atom_site_label
_atom_site_fract_x
_atom_site_fract_y
_atom_site_fract_z
Si Si1 0.105767 0.354751 0.796340
Si Si2 0.212810 0.227252 0.269348
Si Si3 0.608716 0.939227 0.291965
Si Si4 0.339293 0.750164 0.233491
O O1 0.020760 0.251322 0.658855
O O2 0.193243 0.324942 0.906691
O O3 0.188763 0.459017 0.648531
O O4 0.038922 0.387975 0.959930
O O5 0.085784 0.212849 0.301960
O O6 0.320959 0.345433 0.176424
O O7 0.472602 0.846050 0.283483
O O8 0.286460 0.626618 0.346462
#
# Coordination Sequence:
#
# PCOD9580065 Si02
#       4
#     6   6   6   6
#     4  11  24  44  66  98 139 181 231 288 346 425
#     4  12  26  42  70  96 136 182 234 284 348 410
#     4  11  24  44  66  98 139 181 231 288 346 425
#     4  10  26  44  70 104 144 180 232 292 360 434
#
# _framework density 23.029643
#
# number of rings (size 3 to 8) (size 9 to 14) (size 15 to 20)
#    0.000    1.000    5.000    0.000    7.000    2.000 
#    4.500    0.000    0.000    0.000    0.000    0.000 
#    0.000    0.000    0.000    0.000    0.000    0.000 
#
# Total GULP energy -133849.288672 kJ/mol
# GULP energy per Si atom -5577.053695 kJ/mol
# Density = 2.297723 g / cm^3
# Si number density = 23.029643 Si / 1000 Ang^3
#
#
#
# Elastic Constant Matrix: (Units=GPa)
#
#
# Indices 1 2 3 4 5 6 
#
# 1 41.0923 -19.5934 -6.6096 0.0000 0.0000 0.0000
# 2 -19.5934 41.0923 -6.6096 0.0000 0.0000 0.0000
# 3 -6.6096 -6.6096 28.4255 0.0000 0.0000 0.0000
# 4 0.0000 0.0000 0.0000 30.2091 0.0000 0.0000
# 5 0.0000 0.0000 0.0000 0.0000 30.2091 0.0000
# 6 0.0000 0.0000 0.0000 0.0000 0.0000 30.3429
#
#
#
# Elastic Compliance Matrix: (Units=1/GPa)
#
#
# Indices 1 2 3 4 5 6 
#
# 1 0.035376 0.018898 0.012620 0.000000 0.000000 0.000000
# 2 0.018898 0.035376 0.012620 0.000000 0.000000 0.000000
# 3 0.012620 0.012620 0.041049 0.000000 0.000000 0.000000
# 4 0.000000 0.000000 0.000000 0.033103 0.000000 0.000000
# 5 0.000000 0.000000 0.000000 0.000000 0.033103 0.000000
# 6 0.000000 0.000000 0.000000 0.000000 0.000000 0.032957
#
#
# Mechanical properties :
#
#
# Convention : Reuss Voigt Hill
#
# Bulk Modulus (GPa) = 4.99810 4.99831 4.99821
# Shear Modulus (GPa) = 26.40205 27.71372 27.05789
#
# Velocity S-wave (km/s) = 3.38958 3.47276 3.43142
# Velocity P-wave (km/s) = 4.18259 4.27261 4.22784
#
# Compressibility (1/GPa) = 0.20007605
#
# Stress axis : x y z
#
# Youngs Moduli (GPa) = 28.26771 28.26771 24.36140
#
# Poissons Ratio (x) = -0.53420 -0.30744
# Poissons Ratio (y) = -0.53420 -0.30744
# Poissons Ratio (z) = -0.35674 -0.35674
#
# Static dielectric constant tensor:
#      x y z
#    x 1.885830 0.000000 0.000000 
#    y 0.000000 1.885830 0.000000 
#    z 0.000000 0.000000 1.870980 
# 
# From -- ./inp_files/47.got.cif
#   From: 2010.05.17/outbox.cif.g08.bks.cpg/sg169_cif.got.tgz:47.got - 2010.05.20 11:12:54.
