data_PCOD9580502
_publ_section_title
;
Structure prediction by ZEFSAII (Michael W. Deem and Ramdas Pophale) SiO2 
 PCOD9580502
Probable space group: P 62
;
_chemical_formula_sum "Si O2"
_cell_formula_units_Z 33
_cell_length_a 20.569469
_cell_length_b 20.569469
_cell_length_c 5.243968
_cell_angle_alpha 90.000000
_cell_angle_beta 90.000000
_cell_angle_gamma 120.000000
_cell_volume 1921.484235
_symmetry_space_group_name_H-M "P 62"
_symmetry_group_IT_number 171
_symmetry_cell_setting 'hexagonal'
loop_
_space_group_symop_operation_xyz
x,y,z
x-y,x,1/3+z
-y,x-y,2/3+z
-x,-y,z
-x+y,-x,1/3+z
y,-x+y,2/3+z
loop_
_atom_site_type_symbol
_atom_site_label
_atom_site_fract_x
_atom_site_fract_y
_atom_site_fract_z
Si Si1 0.645313 0.998844 0.734450
Si Si2 0.292217 0.387201 0.549053
Si Si3 0.167050 0.417344 0.485906
Si Si4 0.717092 0.232025 0.311603
Si Si5 0.546842 0.162093 0.395138
Si Si6 0.500000 0.500000 0.967331
O O1 0.714129 0.081931 0.735557
O O2 0.570455 0.004916 0.779098
O O3 0.633856 0.953733 0.472894
O O4 0.650487 0.954596 0.972325
O O5 0.207953 0.370441 0.547235
O O6 0.342855 0.478385 0.529824
O O7 0.179574 0.462957 0.747788
O O8 0.206768 0.474275 0.250587
O O9 0.632090 0.216054 0.309510
O O10 0.784964 0.316369 0.254266
O O11 0.535390 0.081496 0.490681
#
# Coordination Sequence:
#
# PCOD9580502 Si02
#       6
#     6   6   6   6   6   3
#     4  11  22  36  60  80 105 147 185 234 287 331
#     4  10  23  37  55  82 108 140 188 233 281 339
#     4  11  22  39  56  79 113 140 183 234 288 332
#     4  11  24  38  53  79 107 145 182 236 305 338
#     4  10  23  39  56  78 109 143 189 244 289 350
#     4  10  20  36  56  78 100 136 200 230 274 344
#
# _framework density 17.174225
#
# number of rings (size 3 to 8) (size 9 to 14) (size 15 to 20)
#    0.000    1.455    1.818    4.364    5.091    6.545 
#    0.000    0.000    0.000    0.000    0.000    0.000 
#    0.000    0.000    0.000    8.182    0.000    0.364 
#
# Total GULP energy -184003.965231 kJ/mol
# GULP energy per Si atom -5575.877734 kJ/mol
# Density = 1.713514 g / cm^3
# Si number density = 17.174225 Si / 1000 Ang^3
#
#
#
# Elastic Constant Matrix: (Units=GPa)
#
#
# Indices 1 2 3 4 5 6 
#
# 1 93.0398 39.0041 22.8392 0.0000 0.0000 0.0000
# 2 39.0041 93.0398 22.8392 0.0000 0.0000 0.0000
# 3 22.8392 22.8392 87.2032 0.0000 0.0000 0.0000
# 4 0.0000 0.0000 0.0000 15.5628 0.0000 0.0000
# 5 0.0000 0.0000 0.0000 0.0000 15.5628 0.0000
# 6 0.0000 0.0000 0.0000 0.0000 0.0000 27.0179
#
#
#
# Elastic Compliance Matrix: (Units=1/GPa)
#
#
# Indices 1 2 3 4 5 6 
#
# 1 0.013417 -0.005089 -0.002181 0.000000 0.000000 0.000000
# 2 -0.005089 0.013417 -0.002181 0.000000 0.000000 0.000000
# 3 -0.002181 -0.002181 0.012610 0.000000 0.000000 0.000000
# 4 0.000000 0.000000 0.000000 0.064256 0.000000 0.000000
# 5 0.000000 0.000000 0.000000 0.000000 0.064256 0.000000
# 6 0.000000 0.000000 0.000000 0.000000 0.000000 0.037013
#
#
# Mechanical properties :
#
#
# Convention : Reuss Voigt Hill
#
# Bulk Modulus (GPa) = 48.68297 49.18308 48.93302
# Shear Modulus (GPa) = 21.67145 24.20204 22.93675
#
# Velocity S-wave (km/s) = 3.55612 3.75801 3.65846
# Velocity P-wave (km/s) = 6.72825 6.89421 6.81174
#
# Compressibility (1/GPa) = 0.02054106
#
# Stress axis : x y z
#
# Youngs Moduli (GPa) = 74.53222 74.53222 79.30238
#
# Poissons Ratio (x) = 0.37931 0.17297
# Poissons Ratio (y) = 0.37931 0.17297
# Poissons Ratio (z) = 0.16256 0.16256
#
# Static dielectric constant tensor:
#      x y z
#    x 1.589410 0.000000 0.000000 
#    y 0.000000 1.589410 0.000000 
#    z 0.000000 0.000000 1.593340 
# 
# From -- ./inp_files/370.got.cif
#   From: 2010.05.17/outbox.cif.g08.bks.cpg/sg171_1_cif.got.tgz:370.got - 2010.05.20 11:16:09.
