data_PCOD9580645
_publ_section_title
;
Structure prediction by ZEFSAII (Michael W. Deem and Ramdas Pophale) SiO2 
 PCOD9580645
Probable space group: P 62
;
_chemical_formula_sum "Si O2"
_cell_formula_units_Z 48
_cell_length_a 14.350723
_cell_length_b 14.350723
_cell_length_c 12.502559
_cell_angle_alpha 90.000000
_cell_angle_beta 90.000000
_cell_angle_gamma 120.000000
_cell_volume 2229.857488
_symmetry_space_group_name_H-M "P 62"
_symmetry_group_IT_number 171
_symmetry_cell_setting 'hexagonal'
loop_
_space_group_symop_operation_xyz
x,y,z
x-y,x,1/3+z
-y,x-y,2/3+z
-x,-y,z
-x+y,-x,1/3+z
y,-x+y,2/3+z
loop_
_atom_site_type_symbol
_atom_site_label
_atom_site_fract_x
_atom_site_fract_y
_atom_site_fract_z
Si Si1 0.624125 0.307700 0.154490
Si Si2 0.238268 0.173432 0.144896
Si Si3 0.185485 0.932844 0.183114
Si Si4 0.325156 0.948786 0.385856
Si Si5 0.941371 0.617961 0.647932
Si Si6 0.527373 0.163546 0.964593
Si Si7 0.172932 0.937855 0.556993
Si Si8 0.632569 0.462929 0.702531
O O1 0.645020 0.425339 0.184880
O O2 0.565257 0.230947 0.255334
O O3 0.552563 0.255863 0.050142
O O4 0.738926 0.318339 0.126900
O O5 0.347643 0.254469 0.206557
O O6 0.146840 0.199159 0.186456
O O7 0.205849 0.053266 0.177303
O O8 0.246459 0.182713 0.017546
O O9 0.242520 0.921649 0.288777
O O10 0.058345 0.852903 0.187208
O O11 0.244396 0.918083 0.080284
O O12 0.258137 0.916511 0.494979
O O13 0.390912 0.886873 0.374190
O O14 0.414392 0.075864 0.380725
O O15 0.887977 0.490302 0.662259
O O16 0.068805 0.662432 0.637345
#
# Coordination Sequence:
#
# PCOD9580645 Si02
#       8
#     6   6   6   6   6   6   6   6
#     4  10  22  39  72  92 142 169 218 286 336 402
#     4  12  27  45  66  98 136 176 222 279 336 407
#     4  12  25  41  76  94 130 176 224 285 335 412
#     4  11  25  44  69 100 132 177 228 280 335 409
#     4  11  25  44  69 100 132 177 228 280 335 409
#     4  10  24  43  64 102 133 175 225 280 337 404
#     4  12  27  45  66  98 136 176 222 279 336 407
#     4  10  24  43  64 102 133 175 225 280 337 404
#
# _framework density 21.526038
#
# number of rings (size 3 to 8) (size 9 to 14) (size 15 to 20)
#    0.000    1.000    2.500    2.625   12.250    3.000 
#    4.500    1.250    0.000    0.000    0.000    0.000 
#    0.000    0.000    0.000    0.000    0.000    0.000 
#
# Total GULP energy -268710.998341 kJ/mol
# GULP energy per Si atom -5598.145799 kJ/mol
# Density = 2.147704 g / cm^3
# Si number density = 21.526038 Si / 1000 Ang^3
#
#
#
# Elastic Constant Matrix: (Units=GPa)
#
#
# Indices 1 2 3 4 5 6 
#
# 1 85.6196 5.9496 21.8930 0.0000 0.0000 0.0000
# 2 5.9496 85.6196 21.8930 0.0000 0.0000 0.0000
# 3 21.8930 21.8930 123.9872 0.0000 0.0000 0.0000
# 4 0.0000 0.0000 0.0000 24.1870 0.0000 0.0000
# 5 0.0000 0.0000 0.0000 0.0000 24.1870 0.0000
# 6 0.0000 0.0000 0.0000 0.0000 0.0000 39.8350
#
#
#
# Elastic Compliance Matrix: (Units=1/GPa)
#
#
# Indices 1 2 3 4 5 6 
#
# 1 0.012240 -0.000312 -0.002106 0.000000 0.000000 0.000000
# 2 -0.000312 0.012240 -0.002106 0.000000 0.000000 0.000000
# 3 -0.002106 -0.002106 0.008809 0.000000 0.000000 0.000000
# 4 0.000000 0.000000 0.000000 0.041345 0.000000 0.000000
# 5 0.000000 0.000000 0.000000 0.000000 0.041345 0.000000
# 6 0.000000 0.000000 0.000000 0.000000 0.000000 0.025104
#
#
# Mechanical properties :
#
#
# Convention : Reuss Voigt Hill
#
# Bulk Modulus (GPa) = 41.25383 43.85526 42.55454
# Shear Modulus (GPa) = 31.60355 34.00784 32.80570
#
# Velocity S-wave (km/s) = 3.83581 3.97904 3.90808
# Velocity P-wave (km/s) = 6.23090 6.44420 6.33845
#
# Compressibility (1/GPa) = 0.02424018
#
# Stress axis : x y z
#
# Youngs Moduli (GPa) = 81.70071 81.70071 113.51859
#
# Poissons Ratio (x) = 0.02549 0.23909
# Poissons Ratio (y) = 0.02549 0.23909
# Poissons Ratio (z) = 0.17207 0.17207
#
# Static dielectric constant tensor:
#      x y z
#    x 1.789960 0.000000 0.000000 
#    y 0.000000 1.789960 0.000000 
#    z 0.000000 0.000000 1.744870 
# 
# From -- ./inp_files/4725.got.cif
#   From: 2010.05.17/outbox.cif.g08.bks.cpg/sg171_3_cif.got.tgz:4725.got - 2010.05.20 11:16:09.
