data_PCOD9580186
_publ_section_title
;
Structure prediction by ZEFSAII (Michael W. Deem and Ramdas Pophale) SiO2 
 PCOD9580186
Probable space group: P 65
;
_chemical_formula_sum "Si O2"
_cell_formula_units_Z 48
_cell_length_a 24.261606
_cell_length_b 24.261606
_cell_length_c 5.449265
_cell_angle_alpha 90.000000
_cell_angle_beta 90.000000
_cell_angle_gamma 120.000000
_cell_volume 2777.842712
_symmetry_space_group_name_H-M "P 65"
_symmetry_group_IT_number 170
_symmetry_cell_setting 'hexagonal'
loop_
_space_group_symop_operation_xyz
x,y,z
x-y,x,5/6+z
-y,x-y,2/3+z
-x,-y,1/2+z
-x+y,-x,1/3+z
y,-x+y,1/6+z
loop_
_atom_site_type_symbol
_atom_site_label
_atom_site_fract_x
_atom_site_fract_y
_atom_site_fract_z
Si Si1 0.733469 0.364477 0.772150
Si Si2 0.314183 0.499490 0.754321
Si Si3 0.461798 0.969215 0.038555
Si Si4 0.962931 0.637771 0.216059
Si Si5 0.844092 0.506359 0.725890
Si Si6 0.010363 0.373572 0.210736
Si Si7 0.557855 0.735706 0.387445
Si Si8 0.883330 0.377841 0.093131
O O1 0.678841 0.378582 0.675936
O O2 0.750323 0.317991 0.616975
O O3 0.801530 0.429826 0.761534
O O4 0.242315 0.442207 0.769500
O O5 0.339460 0.500286 0.484037
O O6 0.351744 0.492120 0.987313
O O7 0.395300 0.967524 0.061481
O O8 0.449607 0.900217 0.961021
O O9 0.497594 0.987942 0.303768
O O10 0.987909 0.666165 0.479821
O O11 0.890326 0.620849 0.208759
O O12 0.996997 0.664030 0.960758
O O13 0.921768 0.557702 0.733551
O O14 0.827611 0.519199 0.452608
O O15 0.817429 0.528451 0.952633
O O16 0.950173 0.381925 0.157918
#
# Coordination Sequence:
#
# PCOD9580186 Si02
#       8
#     6   6   6   6   6   6   6   6
#     4  12  27  41  59  68  91 120 161 200 226 280
#     4  12  27  38  54  75  98 127 154 190 234 283
#     4  12  21  33  51  75  97 111 143 184 235 290
#     4  10  19  33  56  68  92 118 143 182 217 269
#     4  10  22  38  59  74  91 120 156 194 231 267
#     4  10  20  37  53  76  95 117 143 185 234 288
#     4  10  21  40  51  70  94 121 158 179 217 277
#     4  12  25  36  53  76 102 120 144 186 242 294
#
# _framework density 17.279596999999999
#
# number of rings (size 3 to 8) (size 9 to 14) (size 15 to 20)
#    0.000    1.000    3.750    3.000    8.750    0.000 
#    0.000    0.000    0.000    0.000    0.000    0.000 
#    0.000    0.000    0.000    0.000    0.000    0.000 
#
# Total GULP energy -267312.464349 kJ/mol
# GULP energy per Si atom -5569.009674 kJ/mol
# Density = 1.724027 g / cm^3
# Si number density = 17.279597 Si / 1000 Ang^3
#
#
#
# Elastic Constant Matrix: (Units=GPa)
#
#
# Indices 1 2 3 4 5 6 
#
# 1 28.3323 6.6308 12.5071 0.0000 0.0000 0.0000
# 2 6.6308 28.3323 12.5071 0.0000 0.0000 0.0000
# 3 12.5071 12.5071 108.1628 0.0000 0.0000 0.0000
# 4 0.0000 0.0000 0.0000 25.3244 0.0000 0.0000
# 5 0.0000 0.0000 0.0000 0.0000 25.3244 0.0000
# 6 0.0000 0.0000 0.0000 0.0000 0.0000 10.8507
#
#
#
# Elastic Compliance Matrix: (Units=1/GPa)
#
#
# Indices 1 2 3 4 5 6 
#
# 1 0.038631 -0.007449 -0.003606 0.000000 0.000000 0.000000
# 2 -0.007449 0.038631 -0.003606 0.000000 0.000000 0.000000
# 3 -0.003606 -0.003606 0.010079 0.000000 0.000000 0.000000
# 4 0.000000 0.000000 0.000000 0.039488 0.000000 0.000000
# 5 0.000000 0.000000 0.000000 0.000000 0.039488 0.000000
# 6 0.000000 0.000000 0.000000 0.000000 0.000000 0.092160
#
#
# Mechanical properties :
#
#
# Convention : Reuss Voigt Hill
#
# Bulk Modulus (GPa) = 17.23564 25.34639 21.29102
# Shear Modulus (GPa) = 16.27943 21.17872 18.72908
#
# Velocity S-wave (km/s) = 3.07273 3.50472 3.29581
# Velocity P-wave (km/s) = 4.75238 5.57474 5.17990
#
# Compressibility (1/GPa) = 0.05801930
#
# Stress axis : x y z
#
# Youngs Moduli (GPa) = 25.88625 25.88625 99.21457
#
# Poissons Ratio (x) = 0.19284 0.35772
# Poissons Ratio (y) = 0.19284 0.35772
# Poissons Ratio (z) = 0.09333 0.09333
#
# Static dielectric constant tensor:
#      x y z
#    x 1.640510 0.000000 0.000000 
#    y 0.000000 1.640510 0.000000 
#    z 0.000000 0.000000 1.727030 
# 
# From -- ./inp_files/368.got.cif
#   From: 2010.05.17/outbox.cif.g08.bks.cpg/sg170_cif.got.tgz:368.got - 2010.05.20 11:14:30.
