data_PCOD9580399
_publ_section_title
;
Structure prediction by ZEFSAII (Michael W. Deem and Ramdas Pophale) SiO2 
 PCOD9580399
Probable space group: P 65
;
_chemical_formula_sum "Si O2"
_cell_formula_units_Z 30
_cell_length_a 8.428221
_cell_length_b 8.428221
_cell_length_c 17.357636
_cell_angle_alpha 90.000000
_cell_angle_beta 90.000000
_cell_angle_gamma 120.000000
_cell_volume 1067.807675
_symmetry_space_group_name_H-M "P 65"
_symmetry_group_IT_number 170
_symmetry_cell_setting 'hexagonal'
loop_
_space_group_symop_operation_xyz
x,y,z
x-y,x,5/6+z
-y,x-y,2/3+z
-x,-y,1/2+z
-x+y,-x,1/3+z
y,-x+y,1/6+z
loop_
_atom_site_type_symbol
_atom_site_label
_atom_site_fract_x
_atom_site_fract_y
_atom_site_fract_z
Si Si1 0.697289 0.320886 0.954410
Si Si2 0.376741 0.358349 0.804200
Si Si3 0.112980 0.748884 0.599553
Si Si4 0.612888 0.958519 0.207401
Si Si5 0.890243 0.025724 0.718822
O O1 0.514825 0.147972 0.917712
O O2 0.769640 0.251806 0.026990
O O3 0.885060 0.469468 0.913416
O O4 0.893209 0.408123 0.154643
O O5 0.384458 0.561729 0.492212
O O6 0.230082 0.310967 0.871938
O O7 0.924285 0.735294 0.568329
O O8 0.221724 0.933168 0.648149
O O9 0.645057 0.820135 0.260884
O O10 0.063103 0.999897 0.131468
#
# Coordination Sequence:
#
# PCOD9580399 Si02
#       5
#     6   6   6   6   6
#     4  11  29  52  85 129 177 245 310 394 479 580
#     4  11  29  52  85 130 178 244 315 393 495 585
#     4  11  28  54  83 125 187 240 315 402 484 586
#     4  11  29  54  87 130 187 236 309 404 474 584
#     4  12  29  50  90 132 181 257 325 405 496 605
#
# _framework density 28.094947000000001
#
# number of rings (size 3 to 8) (size 9 to 14) (size 15 to 20)
#    0.000    0.800    0.000    2.400   22.400    3.200 
#    0.000    0.000    0.000    0.000    0.000    0.000 
#    0.000    0.000    0.000    0.000    0.000    0.000 
#
# Total GULP energy -167302.683159 kJ/mol
# GULP energy per Si atom -5576.756105 kJ/mol
# Density = 2.803100 g / cm^3
# Si number density = 28.094947 Si / 1000 Ang^3
#
#
#
# Elastic Constant Matrix: (Units=GPa)
#
#
# Indices 1 2 3 4 5 6 
#
# 1 157.7833 74.4128 53.1792 0.0000 0.0000 0.0000
# 2 74.4128 157.7833 53.1792 0.0000 0.0000 0.0000
# 3 53.1792 53.1792 132.0329 0.0000 0.0000 0.0000
# 4 0.0000 0.0000 0.0000 23.1312 0.0000 0.0000
# 5 0.0000 0.0000 0.0000 0.0000 23.1312 0.0000
# 6 0.0000 0.0000 0.0000 0.0000 0.0000 41.6853
#
#
#
# Elastic Compliance Matrix: (Units=1/GPa)
#
#
# Indices 1 2 3 4 5 6 
#
# 1 0.008638 -0.003357 -0.002127 0.000000 0.000000 0.000000
# 2 -0.003357 0.008638 -0.002127 0.000000 0.000000 0.000000
# 3 -0.002127 -0.002127 0.009287 0.000000 0.000000 0.000000
# 4 0.000000 0.000000 0.000000 0.043232 0.000000 0.000000
# 5 0.000000 0.000000 0.000000 0.000000 0.043232 0.000000
# 6 0.000000 0.000000 0.000000 0.000000 0.000000 0.023989
#
#
# Mechanical properties :
#
#
# Convention : Reuss Voigt Hill
#
# Bulk Modulus (GPa) = 88.17456 89.90464 89.03960
# Shear Modulus (GPa) = 32.04760 35.37807 33.71284
#
# Velocity S-wave (km/s) = 3.38107 3.55242 3.46780
# Velocity P-wave (km/s) = 6.83336 6.99257 6.91342
#
# Compressibility (1/GPa) = 0.01134114
#
# Stress axis : x y z
#
# Youngs Moduli (GPa) = 115.76988 115.76988 107.67392
#
# Poissons Ratio (x) = 0.38862 0.22903
# Poissons Ratio (y) = 0.38862 0.22903
# Poissons Ratio (z) = 0.24625 0.24625
#
# Static dielectric constant tensor:
#      x y z
#    x 2.337520 0.000000 0.000000 
#    y 0.000000 2.337520 0.000000 
#    z 0.000000 0.000000 2.160220 
# 
# From -- ./inp_files/1653.got.cif
#   From: 2010.05.17/outbox.cif.g08.bks.cpg/sg170_cif.got.tgz:1653.got - 2010.05.20 11:14:30.
