data_PCOD9580546
_publ_section_title
;
Structure prediction by ZEFSAII (Michael W. Deem and Ramdas Pophale) SiO2 
 PCOD9580546
Probable space group: P 62
;
_chemical_formula_sum "Si O2"
_cell_formula_units_Z 42
_cell_length_a 10.511678
_cell_length_b 10.511678
_cell_length_c 18.963214
_cell_angle_alpha 90.000000
_cell_angle_beta 90.000000
_cell_angle_gamma 120.000000
_cell_volume 1814.624104
_symmetry_space_group_name_H-M "P 62"
_symmetry_group_IT_number 171
_symmetry_cell_setting 'hexagonal'
loop_
_space_group_symop_operation_xyz
x,y,z
x-y,x,1/3+z
-y,x-y,2/3+z
-x,-y,z
-x+y,-x,1/3+z
y,-x+y,2/3+z
loop_
_atom_site_type_symbol
_atom_site_label
_atom_site_fract_x
_atom_site_fract_y
_atom_site_fract_z
Si Si1 0.000000 0.000000 0.153471
Si Si2 0.789713 0.095536 0.224759
Si Si3 0.269194 0.805046 0.616694
Si Si4 0.739613 0.760821 0.062478
Si Si5 0.500000 0.000000 0.915491
Si Si6 0.360089 0.561920 0.819138
Si Si7 0.758922 0.504898 0.028441
Si Si8 0.545625 0.789991 0.170649
O O1 0.906206 0.044059 0.204790
O O2 0.107999 0.127357 0.099204
O O3 0.840482 0.240326 0.176265
O O4 0.759561 0.139051 0.302404
O O5 0.636138 0.948498 0.205888
O O6 0.245593 0.934219 0.647912
O O7 0.349019 0.843439 0.540361
O O8 0.385393 0.777613 0.659919
O O9 0.117244 0.651941 0.618610
O O10 0.714793 0.600300 0.078946
O O11 0.626092 0.799708 0.098293
O O12 0.653741 0.107971 0.876461
O O13 0.426368 0.598645 0.740897
O O14 0.262184 0.639898 0.826386
#
# Coordination Sequence:
#
# PCOD9580546 Si02
#       8
#     3   6   6   6   3   6   6   6
#     4  10  26  46  68 104 138 202 244 304 392 462
#     4  10  24  44  68 106 150 193 252 312 380 463
#     4  10  22  37  65 103 137 185 246 309 378 449
#     4  11  22  41  66  94 136 190 242 306 375 461
#     4  10  22  38  62 102 140 178 246 304 364 454
#     4  10  21  42  69 106 138 185 244 318 383 449
#     4  11  23  41  70 100 144 195 248 313 388 447
#     4  10  20  40  71  95 136 187 240 310 377 437
#
# _framework density 23.145287
#
# number of rings (size 3 to 8) (size 9 to 14) (size 15 to 20)
#    0.000    1.714    1.429    2.571    0.000    7.429 
#    0.000    9.286    0.000    0.857    0.000    0.000 
#    0.000    0.000    0.000    0.000    0.000    0.000 
#
# Total GULP energy -234436.015345 kJ/mol
# GULP energy per Si atom -5581.809889 kJ/mol
# Density = 2.309261 g / cm^3
# Si number density = 23.145287 Si / 1000 Ang^3
#
#
#
# Elastic Constant Matrix: (Units=GPa)
#
#
# Indices 1 2 3 4 5 6 
#
# 1 114.4640 47.3673 36.2468 0.0000 0.0000 0.0000
# 2 47.3673 114.4640 36.2468 0.0000 0.0000 0.0000
# 3 36.2468 36.2468 92.8504 0.0000 0.0000 0.0000
# 4 0.0000 0.0000 0.0000 28.5337 0.0000 0.0000
# 5 0.0000 0.0000 0.0000 0.0000 28.5337 0.0000
# 6 0.0000 0.0000 0.0000 0.0000 0.0000 33.5484
#
#
#
# Elastic Compliance Matrix: (Units=1/GPa)
#
#
# Indices 1 2 3 4 5 6 
#
# 1 0.011196 -0.003707 -0.002923 0.000000 0.000000 0.000000
# 2 -0.003707 0.011196 -0.002923 0.000000 0.000000 0.000000
# 3 -0.002923 -0.002923 0.013053 0.000000 0.000000 0.000000
# 4 0.000000 0.000000 0.000000 0.035046 0.000000 0.000000
# 5 0.000000 0.000000 0.000000 0.000000 0.035046 0.000000
# 6 0.000000 0.000000 0.000000 0.000000 0.000000 0.029808
#
#
# Mechanical properties :
#
#
# Convention : Reuss Voigt Hill
#
# Bulk Modulus (GPa) = 61.21332 62.38894 61.80113
# Shear Modulus (GPa) = 31.26955 31.58432 31.42693
#
# Velocity S-wave (km/s) = 3.67960 3.69807 3.68885
# Velocity P-wave (km/s) = 6.67514 6.72668 6.70096
#
# Compressibility (1/GPa) = 0.01633631
#
# Stress axis : x y z
#
# Youngs Moduli (GPa) = 89.31469 89.31469 76.61337
#
# Poissons Ratio (x) = 0.33113 0.22398
# Poissons Ratio (y) = 0.33113 0.22398
# Poissons Ratio (z) = 0.26111 0.26111
#
# Static dielectric constant tensor:
#      x y z
#    x 1.884020 0.000000 0.000000 
#    y 0.000000 1.884020 0.000000 
#    z 0.000000 0.000000 1.991430 
# 
# From -- ./inp_files/4002.got.cif
#   From: 2010.05.17/outbox.cif.g08.bks.cpg/sg171_3_cif.got.tgz:4002.got - 2010.05.20 11:16:09.
