data_PCOD9580238
_publ_section_title
;
Structure prediction by ZEFSAII (Michael W. Deem and Ramdas Pophale) SiO2 
 PCOD9580238
Probable space group: P 65
;
_chemical_formula_sum "Si O2"
_cell_formula_units_Z 48
_cell_length_a 18.509453
_cell_length_b 18.509453
_cell_length_c 7.652809
_cell_angle_alpha 90.000000
_cell_angle_beta 90.000000
_cell_angle_gamma 120.000000
_cell_volume 2270.589760
_symmetry_space_group_name_H-M "P 65"
_symmetry_group_IT_number 170
_symmetry_cell_setting 'hexagonal'
loop_
_space_group_symop_operation_xyz
x,y,z
x-y,x,5/6+z
-y,x-y,2/3+z
-x,-y,1/2+z
-x+y,-x,1/3+z
y,-x+y,1/6+z
loop_
_atom_site_type_symbol
_atom_site_label
_atom_site_fract_x
_atom_site_fract_y
_atom_site_fract_z
Si Si1 0.747695 0.096753 0.893960
Si Si2 0.469823 0.624367 0.549952
Si Si3 0.914879 0.248196 0.984244
Si Si4 0.327787 0.284279 0.631831
Si Si5 0.469022 0.766913 0.401942
Si Si6 0.467440 0.472533 0.696696
Si Si7 0.504713 0.117736 0.182554
Si Si8 0.648438 0.864756 0.225319
O O1 0.688439 0.128843 0.808798
O O2 0.844095 0.166860 0.889782
O O3 0.736185 0.011170 0.815670
O O4 0.722250 0.074692 0.097819
O O5 0.465626 0.679090 0.390667
O O6 0.381085 0.598856 0.641129
O O7 0.469340 0.536749 0.546909
O O8 0.915319 0.324967 0.891447
O O9 0.883895 0.241098 0.186009
O O10 0.395348 0.376871 0.692263
O O11 0.328614 0.208500 0.731936
O O12 0.241238 0.285601 0.633696
O O13 0.463398 0.790834 0.604871
O O14 0.559791 0.831625 0.321047
O O15 0.447955 0.516626 0.855617
O O16 0.551040 0.467257 0.677851
#
# Coordination Sequence:
#
# PCOD9580238 Si02
#       8
#     6   6   6   6   6   6   6   6
#     4  10  20  39  63  88 126 161 206 266 320 382
#     4  11  22  40  57  81 128 162 218 257 313 379
#     4  10  21  39  64  89 123 158 206 270 319 394
#     4  10  20  39  61  90 127 152 214 264 312 394
#     4  11  24  42  56  86 126 171 213 271 314 376
#     4  11  23  37  61  90 120 169 215 263 313 373
#     4  11  22  37  61  87 122 165 210 268 313 371
#     4  10  22  39  63  91 124 160 214 259 332 389
#
# _framework density 21.139882
#
# number of rings (size 3 to 8) (size 9 to 14) (size 15 to 20)
#    0.000    1.500    5.000    1.500    3.500    0.000 
#    6.750    0.000    0.000    0.000    0.000    0.000 
#   90.000    0.000    0.000    0.000    0.000    0.000 
#
# Total GULP energy -267374.306852 kJ/mol
# GULP energy per Si atom -5570.298059 kJ/mol
# Density = 2.109177 g / cm^3
# Si number density = 21.139882 Si / 1000 Ang^3
#
#
#
# Elastic Constant Matrix: (Units=GPa)
#
#
# Indices 1 2 3 4 5 6 
#
# 1 136.4667 68.1022 18.0630 0.0000 0.0000 0.0000
# 2 68.1022 136.4667 18.0630 0.0000 0.0000 0.0000
# 3 18.0630 18.0630 24.2850 0.0000 0.0000 0.0000
# 4 0.0000 0.0000 0.0000 25.8423 0.0000 0.0000
# 5 0.0000 0.0000 0.0000 0.0000 25.8423 0.0000
# 6 0.0000 0.0000 0.0000 0.0000 0.0000 34.1823
#
#
#
# Elastic Compliance Matrix: (Units=1/GPa)
#
#
# Indices 1 2 3 4 5 6 
#
# 1 0.010127 -0.004500 -0.004186 0.000000 0.000000 0.000000
# 2 -0.004500 0.010127 -0.004186 0.000000 0.000000 0.000000
# 3 -0.004186 -0.004186 0.047404 0.000000 0.000000 0.000000
# 4 0.000000 0.000000 0.000000 0.038696 0.000000 0.000000
# 5 0.000000 0.000000 0.000000 0.000000 0.038696 0.000000
# 6 0.000000 0.000000 0.000000 0.000000 0.000000 0.029255
#
#
# Mechanical properties :
#
#
# Convention : Reuss Voigt Hill
#
# Bulk Modulus (GPa) = 23.85698 56.18611 40.02154
# Shear Modulus (GPa) = 23.36211 30.03937 26.70074
#
# Velocity S-wave (km/s) = 3.32794 3.77368 3.55780
# Velocity P-wave (km/s) = 5.10654 6.75452 5.98750
#
# Compressibility (1/GPa) = 0.04191646
#
# Stress axis : x y z
#
# Youngs Moduli (GPa) = 98.74114 98.74114 21.09515
#
# Poissons Ratio (x) = 0.44433 0.08830
# Poissons Ratio (y) = 0.44433 0.08830
# Poissons Ratio (z) = 0.41330 0.41330
#
# Static dielectric constant tensor:
#      x y z
#    x 1.791520 0.000000 0.000000 
#    y 0.000000 1.791520 0.000000 
#    z 0.000000 0.000000 1.969020 
# 
# From -- ./inp_files/745.got.cif
#   From: 2010.05.17/outbox.cif.g08.bks.cpg/sg170_cif.got.tgz:745.got - 2010.05.20 11:14:30.
