data_PCOD9580945
_publ_section_title
;
Structure prediction by ZEFSAII (Michael W. Deem and Ramdas Pophale) SiO2 
 PCOD9580945
Probable space group: P 64
;
_chemical_formula_sum "Si O2"
_cell_formula_units_Z 42
_cell_length_a 14.848695
_cell_length_b 14.848695
_cell_length_c 9.930720
_cell_angle_alpha 90.000000
_cell_angle_beta 90.000000
_cell_angle_gamma 120.000000
_cell_volume 1896.216591
_symmetry_space_group_name_H-M "P 64"
_symmetry_group_IT_number 172
_symmetry_cell_setting 'hexagonal'
loop_
_space_group_symop_operation_xyz
x,y,z
x-y,x,2/3+z
-y,x-y,1/3+z
-x,-y,z
-x+y,-x,2/3+z
y,-x+y,1/3+z
loop_
_atom_site_type_symbol
_atom_site_label
_atom_site_fract_x
_atom_site_fract_y
_atom_site_fract_z
Si Si1 0.782955 0.383710 0.361310
Si Si2 0.667805 0.836353 0.384031
Si Si3 0.500000 0.500000 0.856596
Si Si4 0.992899 0.699005 0.522324
Si Si5 0.864299 0.242678 0.257227
Si Si6 0.340738 0.054361 0.633208
Si Si7 0.665695 0.215939 0.748074
Si Si8 0.500000 0.000000 0.608782
O O1 0.886780 0.443923 0.449314
O O2 0.787945 0.282435 0.312851
O O3 0.803973 0.463500 0.240023
O O4 0.665726 0.349848 0.405049
O O5 0.723682 0.932135 0.285239
O O6 0.682675 0.872850 0.538832
O O7 0.709417 0.760200 0.343188
O O8 0.542726 0.772799 0.358274
O O9 0.401200 0.397781 0.912298
O O10 0.045170 0.724341 0.371238
O O11 0.877458 0.678109 0.547177
O O12 0.903949 0.296696 0.112229
O O13 0.417603 0.028330 0.547057
O O14 0.577879 0.108544 0.683719
#
# Coordination Sequence:
#
# PCOD9580945 Si02
#       8
#     6   6   3   6   6   6   6   3
#     4  11  23  39  63  97 135 186 230 284 331 406
#     4  11  26  42  68  97 144 175 227 283 350 405
#     4  10  25  39  68  94 142 180 240 272 334 408
#     4  11  25  44  65 101 136 179 223 284 343 408
#     4  11  24  42  74  95 136 179 231 280 342 409
#     4  11  23  45  69 101 130 186 226 286 336 414
#     4  11  23  36  63  93 140 181 231 273 344 400
#     4  10  21  39  60  98 136 176 236 280 330 408
#
# _framework density 22.149367000000002
#
# number of rings (size 3 to 8) (size 9 to 14) (size 15 to 20)
#    0.000    1.143    1.429    3.857   14.000    0.571 
#    0.000    0.000    0.000    8.571    0.000    0.000 
#    0.000    0.000    0.000    0.000    0.000    0.000 
#
# Total GULP energy -234112.772151 kJ/mol
# GULP energy per Si atom -5574.113623 kJ/mol
# Density = 2.209895 g / cm^3
# Si number density = 22.149367 Si / 1000 Ang^3
#
#
#
# Elastic Constant Matrix: (Units=GPa)
#
#
# Indices 1 2 3 4 5 6 
#
# 1 107.2712 68.0237 31.8326 0.0000 0.0000 0.0000
# 2 68.0237 107.2712 31.8326 0.0000 0.0000 0.0000
# 3 31.8326 31.8326 99.8544 0.0000 0.0000 0.0000
# 4 0.0000 0.0000 0.0000 102.2861 0.0000 0.0000
# 5 0.0000 0.0000 0.0000 0.0000 102.2861 0.0000
# 6 0.0000 0.0000 0.0000 0.0000 0.0000 19.6238
#
#
#
# Elastic Compliance Matrix: (Units=1/GPa)
#
#
# Indices 1 2 3 4 5 6 
#
# 1 0.015965 -0.009514 -0.002057 0.000000 0.000000 0.000000
# 2 -0.009514 0.015965 -0.002057 0.000000 0.000000 0.000000
# 3 -0.002057 -0.002057 0.011326 0.000000 0.000000 0.000000
# 4 0.000000 0.000000 0.000000 0.009777 0.000000 0.000000
# 5 0.000000 0.000000 0.000000 0.000000 0.009777 0.000000
# 6 0.000000 0.000000 0.000000 0.000000 0.000000 0.050959
#
#
# Mechanical properties :
#
#
# Convention : Reuss Voigt Hill
#
# Bulk Modulus (GPa) = 62.49097 64.19720 63.34409
# Shear Modulus (GPa) = 34.16300 57.01970 45.59135
#
# Velocity S-wave (km/s) = 3.93159 5.07929 4.54184
# Velocity P-wave (km/s) = 6.99175 7.96527 7.49433
#
# Compressibility (1/GPa) = 0.01600231
#
# Stress axis : x y z
#
# Youngs Moduli (GPa) = 62.63512 62.63512 88.29313
#
# Poissons Ratio (x) = 0.59590 0.18159
# Poissons Ratio (y) = 0.59590 0.18159
# Poissons Ratio (z) = 0.12882 0.12882
#
# Static dielectric constant tensor:
#      x y z
#    x 1.650330 0.000000 0.000000 
#    y 0.000000 1.650330 0.000000 
#    z 0.000000 0.000000 1.879580 
# 
# From -- ./inp_files/1122.got.cif
#   From: 2010.05.17/outbox.cif.g08.bks.cpg/sg172_1_cif.got.tgz:1122.got - 2010.05.20 11:19:57.
