data_PCOD9580222
_publ_section_title
;
Structure prediction by ZEFSAII (Michael W. Deem and Ramdas Pophale) SiO2 
 PCOD9580222
Probable space group: P 65
;
_chemical_formula_sum "Si O2"
_cell_formula_units_Z 48
_cell_length_a 23.173583
_cell_length_b 23.173583
_cell_length_c 5.020376
_cell_angle_alpha 90.000000
_cell_angle_beta 90.000000
_cell_angle_gamma 120.000000
_cell_volume 2334.819178
_symmetry_space_group_name_H-M "P 65"
_symmetry_group_IT_number 170
_symmetry_cell_setting 'hexagonal'
loop_
_space_group_symop_operation_xyz
x,y,z
x-y,x,5/6+z
-y,x-y,2/3+z
-x,-y,1/2+z
-x+y,-x,1/3+z
y,-x+y,1/6+z
loop_
_atom_site_type_symbol
_atom_site_label
_atom_site_fract_x
_atom_site_fract_y
_atom_site_fract_z
Si Si1 0.169999 0.275592 0.099980
Si Si2 0.674121 0.275740 0.228001
Si Si3 0.037055 0.492778 0.400497
Si Si4 0.377437 0.543793 0.854784
Si Si5 0.046478 0.278062 0.902005
Si Si6 0.194890 0.709426 0.700377
Si Si7 0.768633 0.652020 0.108423
Si Si8 0.649658 0.680405 0.079509
O O1 0.212680 0.239511 0.030763
O O2 0.180723 0.287902 0.415878
O O3 0.095509 0.251735 0.002282
O O4 0.207396 0.340891 0.909544
O O5 0.631947 0.280523 0.464942
O O6 0.618188 0.229379 0.020035
O O7 0.727002 0.253075 0.273438
O O8 0.105323 0.555109 0.296363
O O9 0.016153 0.511898 0.679214
O O10 0.043113 0.425708 0.421466
O O11 0.353176 0.511310 0.568374
O O12 0.318736 0.500724 0.068126
O O13 0.062796 0.324376 0.638643
O O14 0.045509 0.326581 0.132539
O O15 0.169270 0.758214 0.781724
O O16 0.698108 0.649483 0.116328
#
# Coordination Sequence:
#
# PCOD9580222 Si02
#       8
#     6   6   6   6   6   6   6   6
#     4  10  21  37  60  87 120 152 194 232 287 340
#     4  10  20  37  54  75 106 136 175 228 279 327
#     4  12  24  40  59  81 113 148 192 242 293 352
#     4  11  23  36  57  80 102 144 186 226 290 345
#     4  10  21  38  60  88 120 158 193 240 291 348
#     4  11  22  37  58  77 109 141 187 232 281 346
#     4  10  20  36  56  84 111 151 191 233 283 343
#     4  10  21  37  58  82 119 154 192 241 292 343
#
# _framework density 20.558339
#
# number of rings (size 3 to 8) (size 9 to 14) (size 15 to 20)
#    0.000    1.500    1.250    4.500    0.000    4.000 
#    0.000    1.250    0.000    0.000    0.000    5.250 
#    0.000    0.000    0.000    0.000    0.000    0.000 
#
# Total GULP energy -267615.106958 kJ/mol
# GULP energy per Si atom -5575.314728 kJ/mol
# Density = 2.051155 g / cm^3
# Si number density = 20.558339 Si / 1000 Ang^3
#
#
#
# Elastic Constant Matrix: (Units=GPa)
#
#
# Indices 1 2 3 4 5 6 
#
# 1 60.5557 26.4613 4.2249 0.0000 0.0000 0.0000
# 2 26.4613 60.5557 4.2249 0.0000 0.0000 0.0000
# 3 4.2249 4.2249 83.0611 0.0000 0.0000 0.0000
# 4 0.0000 0.0000 0.0000 18.8880 0.0000 0.0000
# 5 0.0000 0.0000 0.0000 0.0000 18.8880 0.0000
# 6 0.0000 0.0000 0.0000 0.0000 0.0000 17.0472
#
#
#
# Elastic Compliance Matrix: (Units=1/GPa)
#
#
# Indices 1 2 3 4 5 6 
#
# 1 0.020440 -0.008891 -0.000587 0.000000 0.000000 0.000000
# 2 -0.008891 0.020440 -0.000587 0.000000 0.000000 0.000000
# 3 -0.000587 -0.000587 0.012099 0.000000 0.000000 0.000000
# 4 0.000000 0.000000 0.000000 0.052944 0.000000 0.000000
# 5 0.000000 0.000000 0.000000 0.000000 0.052944 0.000000
# 6 0.000000 0.000000 0.000000 0.000000 0.000000 0.058661
#
#
# Mechanical properties :
#
#
# Convention : Reuss Voigt Hill
#
# Bulk Modulus (GPa) = 30.44378 30.44385 30.44382
# Shear Modulus (GPa) = 20.11213 22.24876 21.18045
#
# Velocity S-wave (km/s) = 3.13116 3.29329 3.21325
# Velocity P-wave (km/s) = 5.28326 5.41310 5.34858
#
# Compressibility (1/GPa) = 0.03284743
#
# Stress axis : x y z
#
# Youngs Moduli (GPa) = 48.92447 48.92447 82.65087
#
# Poissons Ratio (x) = 0.43497 0.04855
# Poissons Ratio (y) = 0.43497 0.04855
# Poissons Ratio (z) = 0.02874 0.02874
#
# Static dielectric constant tensor:
#      x y z
#    x 1.794780 0.000000 0.000000 
#    y 0.000000 1.794780 0.000000 
#    z 0.000000 0.000000 1.744050 
# 
# From -- ./inp_files/362.got.cif
#   From: 2010.05.17/outbox.cif.g08.bks.cpg/sg170_cif.got.tgz:362.got - 2010.05.20 11:14:30.
