data_PCOD9580582
_publ_section_title
;
Structure prediction by ZEFSAII (Michael W. Deem and Ramdas Pophale) SiO2 
 PCOD9580582
Probable space group: P 62
;
_chemical_formula_sum "Si O2"
_cell_formula_units_Z 45
_cell_length_a 11.283664
_cell_length_b 11.283664
_cell_length_c 18.629559
_cell_angle_alpha 90.000000
_cell_angle_beta 90.000000
_cell_angle_gamma 120.000000
_cell_volume 2054.156353
_symmetry_space_group_name_H-M "P 62"
_symmetry_group_IT_number 171
_symmetry_cell_setting 'hexagonal'
loop_
_space_group_symop_operation_xyz
x,y,z
x-y,x,1/3+z
-y,x-y,2/3+z
-x,-y,z
-x+y,-x,1/3+z
y,-x+y,2/3+z
loop_
_atom_site_type_symbol
_atom_site_label
_atom_site_fract_x
_atom_site_fract_y
_atom_site_fract_z
Si Si1 0.115503 0.752506 0.637570
Si Si2 0.465573 0.707654 0.452261
Si Si3 0.337419 0.440396 0.650497
Si Si4 0.227219 0.946442 0.206016
Si Si5 0.907487 0.071104 0.519352
Si Si6 0.000000 0.500000 0.709887
Si Si7 0.777716 0.414988 0.543573
Si Si8 0.099443 0.324023 0.448539
O O1 0.069018 0.837798 0.589282
O O2 0.986177 0.619157 0.671142
O O3 0.171825 0.670921 0.590249
O O4 0.212998 0.852635 0.699859
O O5 0.539225 0.829768 0.395700
O O6 0.565982 0.703786 0.511441
O O7 0.416724 0.560726 0.415371
O O8 0.333266 0.694835 0.489123
O O9 0.500000 0.500000 0.651213
O O10 0.273121 0.287655 0.616491
O O11 0.295352 0.525912 0.596034
O O12 0.067615 0.833074 0.196561
O O13 0.275092 0.076185 0.152619
O O14 0.951667 0.185032 0.457091
O O15 0.000000 0.000000 0.515512
O O16 0.882878 0.547282 0.495657
#
# Coordination Sequence:
#
# PCOD9580582 Si02
#       8
#     6   6   6   6   6   3   6   6
#     4  12  23  39  69  95 137 179 230 292 356 418
#     4  12  22  38  69  95 133 177 232 290 348 416
#     4  11  22  39  67  98 129 179 232 293 353 416
#     4  10  22  40  62  93 135 170 229 284 334 416
#     4  10  25  41  61  97 138 181 221 282 349 429
#     4  12  20  38  66 104 118 178 240 284 342 408
#     4  11  21  40  63  99 133 169 234 299 343 410
#     4  10  21  39  64  97 131 174 229 287 338 413
#
# _framework density 21.906804999999999
#
# number of rings (size 3 to 8) (size 9 to 14) (size 15 to 20)
#    0.000    1.067    5.333    1.600    3.733    3.733 
#    0.000    0.000    2.933    0.000    0.000    0.000 
#    0.000    0.000    0.000    0.000    0.000    0.000 
#
# Total GULP energy -250761.547712 kJ/mol
# GULP energy per Si atom -5572.478838 kJ/mol
# Density = 2.185694 g / cm^3
# Si number density = 21.906805 Si / 1000 Ang^3
#
#
#
# Elastic Constant Matrix: (Units=GPa)
#
#
# Indices 1 2 3 4 5 6 
#
# 1 74.7377 26.1914 35.0748 0.0000 0.0000 0.0000
# 2 26.1914 74.7377 35.0748 0.0000 0.0000 0.0000
# 3 35.0748 35.0748 92.2558 0.0000 0.0000 0.0000
# 4 0.0000 0.0000 0.0000 24.2856 0.0000 0.0000
# 5 0.0000 0.0000 0.0000 0.0000 24.2856 0.0000
# 6 0.0000 0.0000 0.0000 0.0000 0.0000 24.2731
#
#
#
# Elastic Compliance Matrix: (Units=1/GPa)
#
#
# Indices 1 2 3 4 5 6 
#
# 1 0.017033 -0.003566 -0.005120 0.000000 0.000000 0.000000
# 2 -0.003566 0.017033 -0.005120 0.000000 0.000000 0.000000
# 3 -0.005120 -0.005120 0.014732 0.000000 0.000000 0.000000
# 4 0.000000 0.000000 0.000000 0.041177 0.000000 0.000000
# 5 0.000000 0.000000 0.000000 0.000000 0.041177 0.000000
# 6 0.000000 0.000000 0.000000 0.000000 0.000000 0.041198
#
#
# Mechanical properties :
#
#
# Convention : Reuss Voigt Hill
#
# Bulk Modulus (GPa) = 47.20090 48.26811 47.73450
# Shear Modulus (GPa) = 24.15194 24.26153 24.20673
#
# Velocity S-wave (km/s) = 3.32397 3.33150 3.32774
# Velocity P-wave (km/s) = 6.02700 6.07287 6.04998
#
# Compressibility (1/GPa) = 0.02118604
#
# Stress axis : x y z
#
# Youngs Moduli (GPa) = 58.71073 58.71073 67.87747
#
# Poissons Ratio (x) = 0.20938 0.34752
# Poissons Ratio (y) = 0.20938 0.34752
# Poissons Ratio (z) = 0.30059 0.30059
#
# Static dielectric constant tensor:
#      x y z
#    x 1.886330 0.000000 0.000000 
#    y 0.000000 1.886330 0.000000 
#    z 0.000000 0.000000 1.901010 
# 
# From -- ./inp_files/5073.got.cif
#   From: 2010.05.17/outbox.cif.g08.bks.cpg/sg171_3_cif.got.tgz:5073.got - 2010.05.20 11:16:09.
