data_PCOD9580405
_publ_section_title
;
Structure prediction by ZEFSAII (Michael W. Deem and Ramdas Pophale) SiO2 
 PCOD9580405
Probable space group: P 65
;
_chemical_formula_sum "Si O2"
_cell_formula_units_Z 36
_cell_length_a 14.557695
_cell_length_b 14.557695
_cell_length_c 8.534465
_cell_angle_alpha 90.000000
_cell_angle_beta 90.000000
_cell_angle_gamma 120.000000
_cell_volume 1566.362098
_symmetry_space_group_name_H-M "P 65"
_symmetry_group_IT_number 170
_symmetry_cell_setting 'hexagonal'
loop_
_space_group_symop_operation_xyz
x,y,z
x-y,x,5/6+z
-y,x-y,2/3+z
-x,-y,1/2+z
-x+y,-x,1/3+z
y,-x+y,1/6+z
loop_
_atom_site_type_symbol
_atom_site_label
_atom_site_fract_x
_atom_site_fract_y
_atom_site_fract_z
Si Si1 0.956336 0.788015 0.254380
Si Si2 0.290375 0.908055 0.831467
Si Si3 0.894728 0.304663 0.292592
Si Si4 0.341792 0.340861 0.132852
Si Si5 0.439238 0.837077 0.672880
Si Si6 0.187582 0.565267 0.986426
O O1 0.873388 0.823648 0.310038
O O2 0.909211 0.675710 0.159667
O O3 0.999414 0.763536 0.414578
O O4 0.191928 0.813077 0.741807
O O5 0.380329 0.874545 0.798646
O O6 0.339617 0.024490 0.760977
O O7 0.834126 0.363200 0.363724
O O8 0.968227 0.350469 0.142257
O O9 0.444182 0.329090 0.101479
O O10 0.347619 0.436750 0.033979
O O11 0.405521 0.713859 0.679250
O O12 0.422443 0.853700 0.492389
#
# Coordination Sequence:
#
# PCOD9580405 Si02
#       6
#     6   6   6   6   6   6
#     4  12  29  55  83 117 155 207 270 346 420 490
#     4  12  25  49  76 113 152 205 266 323 407 483
#     4  12  27  46  76 110 156 208 265 332 394 485
#     4  12  26  48  76 114 158 209 268 327 402 480
#     4  12  26  45  75 115 156 213 265 322 396 475
#     4  12  25  47  72 113 163 208 268 328 391 479
#
# _framework density 22.983191999999999
#
# number of rings (size 3 to 8) (size 9 to 14) (size 15 to 20)
#    0.000    0.000    5.000    4.000    7.000    0.000 
#    3.000    0.000    0.000    0.000    0.000    0.000 
#    0.000    0.000    0.000    0.000    0.000    0.000 
#
# Total GULP energy -201019.744151 kJ/mol
# GULP energy per Si atom -5583.881782 kJ/mol
# Density = 2.293088 g / cm^3
# Si number density = 22.983192 Si / 1000 Ang^3
#
#
#
# Elastic Constant Matrix: (Units=GPa)
#
#
# Indices 1 2 3 4 5 6 
#
# 1 95.4826 21.7181 24.5240 0.0000 0.0000 0.0000
# 2 21.7181 95.4826 24.5240 0.0000 0.0000 0.0000
# 3 24.5240 24.5240 93.5710 0.0000 0.0000 0.0000
# 4 0.0000 0.0000 0.0000 34.0836 0.0000 0.0000
# 5 0.0000 0.0000 0.0000 0.0000 34.0836 0.0000
# 6 0.0000 0.0000 0.0000 0.0000 0.0000 36.8823
#
#
#
# Elastic Compliance Matrix: (Units=1/GPa)
#
#
# Indices 1 2 3 4 5 6 
#
# 1 0.011570 -0.001987 -0.002512 0.000000 0.000000 0.000000
# 2 -0.001987 0.011570 -0.002512 0.000000 0.000000 0.000000
# 3 -0.002512 -0.002512 0.012004 0.000000 0.000000 0.000000
# 4 0.000000 0.000000 0.000000 0.029340 0.000000 0.000000
# 5 0.000000 0.000000 0.000000 0.000000 0.029340 0.000000
# 6 0.000000 0.000000 0.000000 0.000000 0.000000 0.027113
#
#
# Mechanical properties :
#
#
# Convention : Reuss Voigt Hill
#
# Bulk Modulus (GPa) = 47.34007 47.34093 47.34050
# Shear Modulus (GPa) = 35.21183 35.26124 35.23654
#
# Velocity S-wave (km/s) = 3.91841 3.92116 3.91979
# Velocity P-wave (km/s) = 6.41205 6.41432 6.41318
#
# Compressibility (1/GPa) = 0.02112375
#
# Stress axis : x y z
#
# Youngs Moduli (GPa) = 86.42978 86.42978 83.30777
#
# Poissons Ratio (x) = 0.17170 0.20925
# Poissons Ratio (y) = 0.17170 0.20925
# Poissons Ratio (z) = 0.21709 0.21709
#
# Static dielectric constant tensor:
#      x y z
#    x 1.872730 0.000000 0.000000 
#    y 0.000000 1.872730 0.000000 
#    z 0.000000 0.000000 1.959870 
# 
# From -- ./inp_files/574.got.cif
#   From: 2010.05.17/outbox.cif.g08.bks.cpg/sg170_cif.got.tgz:574.got - 2010.05.20 11:14:30.
