data_PCOD9580574
_publ_section_title
;
Structure prediction by ZEFSAII (Michael W. Deem and Ramdas Pophale) SiO2 
 PCOD9580574
Probable space group: P 62
;
_chemical_formula_sum "Si O2"
_cell_formula_units_Z 48
_cell_length_a 10.642071
_cell_length_b 10.642071
_cell_length_c 19.793184
_cell_angle_alpha 90.000000
_cell_angle_beta 90.000000
_cell_angle_gamma 120.000000
_cell_volume 1941.326566
_symmetry_space_group_name_H-M "P 62"
_symmetry_group_IT_number 171
_symmetry_cell_setting 'hexagonal'
loop_
_space_group_symop_operation_xyz
x,y,z
x-y,x,1/3+z
-y,x-y,2/3+z
-x,-y,z
-x+y,-x,1/3+z
y,-x+y,2/3+z
loop_
_atom_site_type_symbol
_atom_site_label
_atom_site_fract_x
_atom_site_fract_y
_atom_site_fract_z
Si Si1 0.963027 0.714237 0.341500
Si Si2 0.241916 0.683219 0.701975
Si Si3 0.628828 0.981066 0.426934
Si Si4 0.337431 0.471709 0.902479
Si Si5 0.662639 0.595455 0.500768
Si Si6 0.533486 0.836811 0.784041
Si Si7 0.433696 0.662133 0.242830
Si Si8 0.962405 0.847200 0.753946
O O1 0.811767 0.570269 0.326067
O O2 0.911776 0.826292 0.362646
O O3 0.085081 0.752802 0.284475
O O4 0.022674 0.674110 0.409897
O O5 0.144781 0.650160 0.766925
O O6 0.402763 0.747425 0.731319
O O7 0.178156 0.547245 0.652877
O O8 0.553652 0.871181 0.488944
O O9 0.742605 0.943213 0.392475
O O10 0.500000 0.000000 0.392675
O O11 0.737266 0.133336 0.462995
O O12 0.500000 0.500000 0.915707
O O13 0.313713 0.607189 0.915159
O O14 0.500000 0.500000 0.530163
O O15 0.766910 0.571934 0.550394
O O16 0.745378 0.758696 0.473423
O O17 0.462557 0.849079 0.853147
O O18 0.000000 0.000000 0.788798
#
# Coordination Sequence:
#
# PCOD9580574 Si02
#       8
#     6   6   6   6   6   6   6   6
#     4  11  20  38  64 100 139 190 231 319 367 442
#     4  10  21  37  64 100 138 180 250 303 367 434
#     4  11  22  39  69  99 131 191 250 303 355 450
#     4  11  18  35  68  98 136 182 255 308 358 428
#     4  10  24  43  70  98 147 200 231 306 386 438
#     4  11  19  33  65 101 133 176 244 304 366 423
#     4  11  20  38  67 104 132 183 252 309 354 437
#     4  11  24  44  69  98 150 191 242 297 387 459
#
# _framework density 24.725362000000001
#
# number of rings (size 3 to 8) (size 9 to 14) (size 15 to 20)
#    0.000    1.250    6.250    1.125    1.750    0.000 
#    0.000    5.000   11.000    0.000    0.000    0.000 
#    0.000    0.000    0.000    0.000    0.000    0.000 
#
# Total GULP energy -268003.637495 kJ/mol
# GULP energy per Si atom -5583.409114 kJ/mol
# Density = 2.466909 g / cm^3
# Si number density = 24.725362 Si / 1000 Ang^3
#
#
#
# Elastic Constant Matrix: (Units=GPa)
#
#
# Indices 1 2 3 4 5 6 
#
# 1 110.9331 36.5720 8.5221 0.0000 0.0000 0.0000
# 2 36.5720 110.9331 8.5221 0.0000 0.0000 0.0000
# 3 8.5221 8.5221 70.1655 0.0000 0.0000 0.0000
# 4 0.0000 0.0000 0.0000 22.4581 0.0000 0.0000
# 5 0.0000 0.0000 0.0000 0.0000 22.4581 0.0000
# 6 0.0000 0.0000 0.0000 0.0000 0.0000 37.1806
#
#
#
# Elastic Compliance Matrix: (Units=1/GPa)
#
#
# Indices 1 2 3 4 5 6 
#
# 1 0.010162 -0.003286 -0.000835 0.000000 0.000000 0.000000
# 2 -0.003286 0.010162 -0.000835 0.000000 0.000000 0.000000
# 3 -0.000835 -0.000835 0.014455 0.000000 0.000000 0.000000
# 4 0.000000 0.000000 0.000000 0.044527 0.000000 0.000000
# 5 0.000000 0.000000 0.000000 0.000000 0.044527 0.000000
# 6 0.000000 0.000000 0.000000 0.000000 0.000000 0.026896
#
#
# Mechanical properties :
#
#
# Convention : Reuss Voigt Hill
#
# Bulk Modulus (GPa) = 40.21520 44.36267 42.28893
# Shear Modulus (GPa) = 29.59797 32.31371 30.95584
#
# Velocity S-wave (km/s) = 3.46362 3.61904 3.54218
# Velocity P-wave (km/s) = 5.68293 5.95352 5.81979
#
# Compressibility (1/GPa) = 0.02486622
#
# Stress axis : x y z
#
# Youngs Moduli (GPa) = 98.40672 98.40672 69.18073
#
# Poissons Ratio (x) = 0.32336 0.05778
# Poissons Ratio (y) = 0.32336 0.05778
# Poissons Ratio (z) = 0.08218 0.08218
#
# Static dielectric constant tensor:
#      x y z
#    x 2.073730 0.000000 0.000000 
#    y 0.000000 2.073730 0.000000 
#    z 0.000000 0.000000 1.966840 
# 
# From -- ./inp_files/5234.got.cif
#   From: 2010.05.17/outbox.cif.g08.bks.cpg/sg171_3_cif.got.tgz:5234.got - 2010.05.20 11:16:09.
