data_PCOD9580648
_publ_section_title
;
Structure prediction by ZEFSAII (Michael W. Deem and Ramdas Pophale) SiO2 
 PCOD9580648
Probable space group: P 62
;
_chemical_formula_sum "Si O2"
_cell_formula_units_Z 36
_cell_length_a 10.842132
_cell_length_b 10.842132
_cell_length_c 15.867420
_cell_angle_alpha 90.000000
_cell_angle_beta 90.000000
_cell_angle_gamma 120.000000
_cell_volume 1615.348861
_symmetry_space_group_name_H-M "P 62"
_symmetry_group_IT_number 171
_symmetry_cell_setting 'hexagonal'
loop_
_space_group_symop_operation_xyz
x,y,z
x-y,x,1/3+z
-y,x-y,2/3+z
-x,-y,z
-x+y,-x,1/3+z
y,-x+y,2/3+z
loop_
_atom_site_type_symbol
_atom_site_label
_atom_site_fract_x
_atom_site_fract_y
_atom_site_fract_z
Si Si1 0.697070 0.922738 0.338530
Si Si2 0.811111 0.452925 0.734700
Si Si3 0.000000 0.500000 0.892129
Si Si4 0.500000 0.000000 0.627036
Si Si5 0.500000 0.500000 0.259582
Si Si6 0.922738 0.697070 0.180635
Si Si7 0.188889 0.641815 0.451132
Si Si8 0.000000 0.000000 0.592916
O O1 0.598811 0.756235 0.358204
O O2 0.605789 0.965792 0.277806
O O3 0.713861 0.000000 0.426249
O O4 0.854010 0.961920 0.308204
O O5 0.882738 0.396515 0.665399
O O6 0.647462 0.352538 0.759583
O O7 0.877463 0.471934 0.826293
O O8 0.639997 0.034208 0.574693
O O9 0.528066 0.122537 0.692872
O O10 0.486223 0.603485 0.187099
O O11 0.756235 0.598811 0.160961
O O12 0.961920 0.854010 0.210961
#
# Coordination Sequence:
#
# PCOD9580648 Si02
#       8
#     6   6   3   3   3   6   6   3
#     4  12  25  44  69 101 143 195 252 320 394 475
#     4  11  23  41  68 100 140 190 249 317 388 473
#     4  11  25  43  69 104 144 192 251 315 389 471
#     4  11  25  43  69 104 144 192 251 315 389 471
#     4  10  22  40  64  98 138 178 232 304 384 456
#     4  12  25  44  69 101 143 195 252 320 394 475
#     4  11  23  41  68 100 140 190 249 317 388 473
#     4  12  28  48  74 108 156 206 268 332 412 496
#
# _framework density 22.286206
#
# number of rings (size 3 to 8) (size 9 to 14) (size 15 to 20)
#    0.000    0.667    0.000    8.000    0.000    5.333 
#    0.000    0.000    0.000    0.000    0.000    0.000 
#    0.000    0.000    0.000    0.000    0.000    0.000 
#
# Total GULP energy -200526.405436 kJ/mol
# GULP energy per Si atom -5570.177929 kJ/mol
# Density = 2.223548 g / cm^3
# Si number density = 22.286206 Si / 1000 Ang^3
#
#
#
# Elastic Constant Matrix: (Units=GPa)
#
#
# Indices 1 2 3 4 5 6 
#
# 1 60.6016 142.0143 71.4768 0.0000 0.0000 0.0000
# 2 142.0143 60.6016 71.4768 0.0000 0.0000 0.0000
# 3 71.4768 71.4768 191.1525 0.0000 0.0000 0.0000
# 4 0.0000 0.0000 0.0000 57.7300 0.0000 0.0000
# 5 0.0000 0.0000 0.0000 0.0000 57.7300 0.0000
# 6 0.0000 0.0000 0.0000 0.0000 0.0000 -40.7064
#
#
#
# Elastic Compliance Matrix: (Units=1/GPa)
#
#
# Indices 1 2 3 4 5 6 
#
# 1 -0.002789 0.009494 -0.002507 0.000000 0.000000 0.000000
# 2 0.009494 -0.002789 -0.002507 0.000000 0.000000 0.000000
# 3 -0.002507 -0.002507 0.007106 0.000000 0.000000 0.000000
# 4 0.000000 0.000000 0.000000 0.017322 0.000000 0.000000
# 5 0.000000 0.000000 0.000000 0.000000 0.017322 0.000000
# 6 0.000000 0.000000 0.000000 0.000000 0.000000 -0.024566
#
#
# Mechanical properties :
#
#
# Convention : Reuss Voigt Hill
#
# Bulk Modulus (GPa) = 95.35573 98.03238 96.69405
# Shear Modulus (GPa) = 814.21709 16.77659 415.49684
#
# Velocity S-wave (km/s) = 19.13476 2.74666 13.66900
# Velocity P-wave (km/s) = 23.04485 7.35814 17.10566
#
# Compressibility (1/GPa) = 0.01048705
#
# Stress axis : x y z
#
# Youngs Moduli (GPa) = -358.48887 -358.48887 140.72280
#
# Poissons Ratio (x) = 3.40335 0.35277
# Poissons Ratio (y) = 3.40335 0.35277
# Poissons Ratio (z) = -0.89867 -0.89867
#
# Static dielectric constant tensor:
#      x y z
#    x 1.974540 0.000000 0.000000 
#    y 0.000000 1.974540 0.000000 
#    z 0.000000 0.000000 1.818370 
# 
# From -- ./inp_files/4836.got.cif
#   From: 2010.05.17/outbox.cif.g08.bks.cpg/sg171_3_cif.got.tgz:4836.got - 2010.05.20 11:16:09.
