data_PCOD9580810
_publ_section_title
;
Structure prediction by ZEFSAII (Michael W. Deem and Ramdas Pophale) SiO2 
 PCOD9580810
Probable space group: P 62
;
_chemical_formula_sum "Si O2"
_cell_formula_units_Z 39
_cell_length_a 12.735381
_cell_length_b 12.735381
_cell_length_c 12.309443
_cell_angle_alpha 90.000000
_cell_angle_beta 90.000000
_cell_angle_gamma 120.000000
_cell_volume 1728.991736
_symmetry_space_group_name_H-M "P 62"
_symmetry_group_IT_number 171
_symmetry_cell_setting 'hexagonal'
loop_
_space_group_symop_operation_xyz
x,y,z
x-y,x,1/3+z
-y,x-y,2/3+z
-x,-y,z
-x+y,-x,1/3+z
y,-x+y,2/3+z
loop_
_atom_site_type_symbol
_atom_site_label
_atom_site_fract_x
_atom_site_fract_y
_atom_site_fract_z
Si Si1 0.737229 0.012529 0.170380
Si Si2 0.500000 0.500000 0.420825
Si Si3 0.319448 0.507748 0.265347
Si Si4 0.343961 0.078064 0.576543
Si Si5 0.874455 0.153754 0.481081
Si Si6 0.134100 0.097181 0.307142
Si Si7 0.431017 0.860858 0.712715
O O1 0.812298 0.156537 0.183203
O O2 0.599328 0.982214 0.154939
O O3 0.776391 0.952716 0.268086
O O4 0.798128 0.994230 0.063234
O O5 0.437104 0.553863 0.340621
O O6 0.266952 0.371960 0.221069
O O7 0.209183 0.506188 0.330454
O O8 0.353094 0.574225 0.148255
O O9 0.286328 0.080160 0.694650
O O10 0.479580 0.117697 0.611683
O O11 0.262884 0.955877 0.506620
O O12 0.956352 0.107501 0.533733
O O13 0.000000 0.000000 0.343858
O O14 0.500000 0.000000 0.756364
#
# Coordination Sequence:
#
# PCOD9580810 Si02
#       7
#     6   3   6   6   6   6   6
#     4  12  27  44  68 107 149 187 231 300 362 440
#     4  12  28  46  66 102 148 196 244 290 358 434
#     4  11  25  46  73 100 137 190 245 292 348 430
#     4  11  24  42  66 105 141 183 231 292 363 420
#     4  11  22  43  71 102 140 179 233 296 355 429
#     4  12  24  43  74 107 140 185 236 303 368 429
#     4  11  24  46  74 101 134 190 241 293 351 424
#
# _framework density 22.556498999999999
#
# number of rings (size 3 to 8) (size 9 to 14) (size 15 to 20)
#    0.000    0.615    5.385    2.308    2.154    1.231 
#    0.000    3.077    0.000    0.000    0.000    0.000 
#    0.000    0.000    0.000    0.000    0.000    0.000 
#
# Total GULP energy -217297.905789 kJ/mol
# GULP energy per Si atom -5571.741174 kJ/mol
# Density = 2.250516 g / cm^3
# Si number density = 22.556499 Si / 1000 Ang^3
#
#
#
# Elastic Constant Matrix: (Units=GPa)
#
#
# Indices 1 2 3 4 5 6 
#
# 1 72.5711 -0.7530 17.1045 0.0000 0.0000 0.0000
# 2 -0.7530 72.5711 17.1045 0.0000 0.0000 0.0000
# 3 17.1045 17.1045 74.2417 0.0000 0.0000 0.0000
# 4 0.0000 0.0000 0.0000 23.1497 0.0000 0.0000
# 5 0.0000 0.0000 0.0000 0.0000 23.1497 0.0000
# 6 0.0000 0.0000 0.0000 0.0000 0.0000 36.6620
#
#
#
# Elastic Compliance Matrix: (Units=1/GPa)
#
#
# Indices 1 2 3 4 5 6 
#
# 1 0.014639 0.001001 -0.003603 0.000000 0.000000 0.000000
# 2 0.001001 0.014639 -0.003603 0.000000 0.000000 0.000000
# 3 -0.003603 -0.003603 0.015130 0.000000 0.000000 0.000000
# 4 0.000000 0.000000 0.000000 0.043197 0.000000 0.000000
# 5 0.000000 0.000000 0.000000 0.000000 0.043197 0.000000
# 6 0.000000 0.000000 0.000000 0.000000 0.000000 0.027276
#
#
# Mechanical properties :
#
#
# Convention : Reuss Voigt Hill
#
# Bulk Modulus (GPa) = 31.25271 31.81066 31.53169
# Shear Modulus (GPa) = 27.60057 28.98749 28.29403
#
# Velocity S-wave (km/s) = 3.50182 3.58873 3.54554
# Velocity P-wave (km/s) = 5.49870 5.59511 5.54711
#
# Compressibility (1/GPa) = 0.03199723
#
# Stress axis : x y z
#
# Youngs Moduli (GPa) = 68.30936 68.30936 66.09428
#
# Poissons Ratio (x) = -0.06839 0.23816
# Poissons Ratio (y) = -0.06839 0.23816
# Poissons Ratio (z) = 0.24615 0.24615
#
# Static dielectric constant tensor:
#      x y z
#    x 1.892790 0.000000 0.000000 
#    y 0.000000 1.892790 0.000000 
#    z 0.000000 0.000000 1.935410 
# 
# From -- ./inp_files/2006.got.cif
#   From: 2010.05.17/outbox.cif.g08.bks.cpg/sg171_2_cif.got.tgz:2006.got - 2010.05.20 11:16:09.
