data_PCOD9580940
_publ_section_title
;
Structure prediction by ZEFSAII (Michael W. Deem and Ramdas Pophale) SiO2 
 PCOD9580940
Probable space group: P 64
;
_chemical_formula_sum "Si O2"
_cell_formula_units_Z 42
_cell_length_a 15.408266
_cell_length_b 15.408266
_cell_length_c 11.392334
_cell_angle_alpha 90.000000
_cell_angle_beta 90.000000
_cell_angle_gamma 120.000000
_cell_volume 2342.345072
_symmetry_space_group_name_H-M "P 64"
_symmetry_group_IT_number 172
_symmetry_cell_setting 'hexagonal'
loop_
_space_group_symop_operation_xyz
x,y,z
x-y,x,2/3+z
-y,x-y,1/3+z
-x,-y,z
-x+y,-x,2/3+z
y,-x+y,1/3+z
loop_
_atom_site_type_symbol
_atom_site_label
_atom_site_fract_x
_atom_site_fract_y
_atom_site_fract_z
Si Si1 0.378327 0.628309 0.934800
Si Si2 0.000000 0.000000 0.523305
Si Si3 0.500000 0.000000 0.871007
Si Si4 0.456053 0.646932 0.681083
Si Si5 0.450471 0.115521 0.673983
Si Si6 0.708476 0.741282 0.208299
Si Si7 0.160363 0.526083 0.849052
Si Si8 0.821201 0.939973 0.356318
O O1 0.428741 0.617395 0.817168
O O2 0.260487 0.551599 0.921721
O O3 0.384147 0.736295 0.944965
O O4 0.425160 0.616982 0.054121
O O5 0.995824 0.088938 0.592016
O O6 0.104568 0.061852 0.454768
O O7 0.540319 0.941154 0.788919
O O8 0.410491 0.915884 0.950574
O O9 0.516649 0.767692 0.684357
O O10 0.530246 0.112376 0.584628
O O11 0.340637 0.058885 0.618583
O O12 0.592277 0.686954 0.175431
O O13 0.742712 0.837505 0.292580
O O14 0.776007 0.771317 0.090824
#
# Coordination Sequence:
#
# PCOD9580940 Si02
#       8
#     6   3   3   6   6   6   6   6
#     4   9  20  40  63  86 118 171 206 244 312 362
#     4   8  16  42  62  80 108 158 200 242 310 386
#     4  12  22  40  64  92 122 168 216 256 318 378
#     4  10  21  41  64  88 121 167 211 256 303 381
#     4  11  23  37  60  88 126 162 206 252 306 372
#     4  11  22  36  56  94 118 154 197 261 304 367
#     4  10  21  37  61  87 123 165 207 243 300 373
#     4   9  20  36  63  83 114 152 200 246 315 363
#
# _framework density 17.930747
#
# number of rings (size 3 to 8) (size 9 to 14) (size 15 to 20)
#    0.000    2.000    2.857    0.000    6.000    0.000 
#    5.143    0.000    6.286    0.000    0.000    0.000 
#    0.000    0.000    0.000    0.000    0.000    0.000 
#
# Total GULP energy -233922.461782 kJ/mol
# GULP energy per Si atom -5569.582423 kJ/mol
# Density = 1.788994 g / cm^3
# Si number density = 17.930747 Si / 1000 Ang^3
#
#
#
# Elastic Constant Matrix: (Units=GPa)
#
#
# Indices 1 2 3 4 5 6 
#
# 1 73.4159 25.9188 31.9642 0.0000 0.0000 0.0000
# 2 25.9188 73.4159 31.9642 0.0000 0.0000 0.0000
# 3 31.9642 31.9642 70.0698 0.0000 0.0000 0.0000
# 4 0.0000 0.0000 0.0000 23.1818 0.0000 0.0000
# 5 0.0000 0.0000 0.0000 0.0000 23.1818 0.0000
# 6 0.0000 0.0000 0.0000 0.0000 0.0000 23.7485
#
#
#
# Elastic Compliance Matrix: (Units=1/GPa)
#
#
# Indices 1 2 3 4 5 6 
#
# 1 0.017652 -0.003402 -0.006501 0.000000 0.000000 0.000000
# 2 -0.003402 0.017652 -0.006501 0.000000 0.000000 0.000000
# 3 -0.006501 -0.006501 0.020203 0.000000 0.000000 0.000000
# 4 0.000000 0.000000 0.000000 0.043137 0.000000 0.000000
# 5 0.000000 0.000000 0.000000 0.000000 0.043137 0.000000
# 6 0.000000 0.000000 0.000000 0.000000 0.000000 0.042108
#
#
# Mechanical properties :
#
#
# Convention : Reuss Voigt Hill
#
# Bulk Modulus (GPa) = 44.05173 44.06624 44.05899
# Shear Modulus (GPa) = 22.29523 22.49270 22.39396
#
# Velocity S-wave (km/s) = 3.53002 3.54562 3.53783
# Velocity P-wave (km/s) = 6.42151 6.43359 6.42755
#
# Compressibility (1/GPa) = 0.02270058
#
# Stress axis : x y z
#
# Youngs Moduli (GPa) = 56.64975 56.64975 49.49866
#
# Poissons Ratio (x) = 0.19270 0.32178
# Poissons Ratio (y) = 0.19270 0.32178
# Poissons Ratio (z) = 0.36827 0.36827
#
# Static dielectric constant tensor:
#      x y z
#    x 1.610940 0.000000 0.000000 
#    y 0.000000 1.610940 0.000000 
#    z 0.000000 0.000000 1.636120 
# 
# From -- ./inp_files/1118.got.cif
#   From: 2010.05.17/outbox.cif.g08.bks.cpg/sg172_1_cif.got.tgz:1118.got - 2010.05.20 11:19:57.
