data_PCOD9580963
_publ_section_title
;
Structure prediction by ZEFSAII (Michael W. Deem and Ramdas Pophale) SiO2 
 PCOD9580963
Probable space group: P 64
;
_chemical_formula_sum "Si O2"
_cell_formula_units_Z 48
_cell_length_a 14.285912
_cell_length_b 14.285912
_cell_length_c 11.466195
_cell_angle_alpha 90.000000
_cell_angle_beta 90.000000
_cell_angle_gamma 120.000000
_cell_volume 2026.590004
_symmetry_space_group_name_H-M "P 64"
_symmetry_group_IT_number 172
_symmetry_cell_setting 'hexagonal'
loop_
_space_group_symop_operation_xyz
x,y,z
x-y,x,2/3+z
-y,x-y,1/3+z
-x,-y,z
-x+y,-x,2/3+z
y,-x+y,1/3+z
loop_
_atom_site_type_symbol
_atom_site_label
_atom_site_fract_x
_atom_site_fract_y
_atom_site_fract_z
Si Si1 0.383412 0.923867 0.409030
Si Si2 0.924274 0.171782 0.221728
Si Si3 0.841211 0.104478 0.474268
Si Si4 0.314847 0.591209 0.027727
Si Si5 0.588891 0.986947 0.953706
Si Si6 0.663493 0.575957 0.869431
Si Si7 0.905899 0.157737 0.960493
Si Si8 0.750600 0.235855 0.938291
O O1 0.280868 0.918359 0.466903
O O2 0.361617 0.802862 0.393206
O O3 0.500000 0.000000 0.469379
O O4 0.398970 0.988162 0.287479
O O5 0.876959 0.102976 0.339969
O O6 0.915237 0.280182 0.231786
O O7 0.053026 0.225389 0.220083
O O8 0.888020 0.121761 0.095250
O O9 0.913142 0.226184 0.516958
O O10 0.831447 0.021265 0.572518
O O11 0.245727 0.518680 0.136222
O O12 0.308173 0.509647 0.926368
O O13 0.278765 0.679208 0.998393
O O14 0.677909 0.111569 0.979827
O O15 0.500000 0.000000 0.882362
O O16 0.540102 0.927882 0.075991
O O17 0.869416 0.248265 0.948438
#
# Coordination Sequence:
#
# PCOD9580963 Si02
#       8
#     6   6   6   6   6   6   6   6
#     4  10  22  40  70 101 142 192 247 296 368 449
#     4  10  27  46  74 108 138 193 250 304 392 453
#     4  11  25  42  78  97 146 196 245 313 379 447
#     4  11  24  42  66 109 149 190 253 305 367 455
#     4  10  23  42  65 102 142 196 237 297 375 435
#     4  10  23  42  69 101 137 194 251 293 373 448
#     4  11  26  51  72 107 151 188 250 318 386 464
#     4  11  27  41  70 106 148 196 244 314 376 447
#
# _framework density 23.685106999999999
#
# number of rings (size 3 to 8) (size 9 to 14) (size 15 to 20)
#    0.000    1.500    0.000    3.375   19.250    0.000 
#    0.000    2.500    0.000    0.000    0.000    0.000 
#    0.000    0.000    0.000    0.000    0.000    0.000 
#
# Total GULP energy -267915.194395 kJ/mol
# GULP energy per Si atom -5581.566550 kJ/mol
# Density = 2.363120 g / cm^3
# Si number density = 23.685107 Si / 1000 Ang^3
#
#
#
# Elastic Constant Matrix: (Units=GPa)
#
#
# Indices 1 2 3 4 5 6 
#
# 1 68.7737 7.5259 25.9669 0.0000 0.0000 0.0000
# 2 7.5259 68.7737 25.9669 0.0000 0.0000 0.0000
# 3 25.9669 25.9669 86.4724 0.0000 0.0000 0.0000
# 4 0.0000 0.0000 0.0000 26.2100 0.0000 0.0000
# 5 0.0000 0.0000 0.0000 0.0000 26.2100 0.0000
# 6 0.0000 0.0000 0.0000 0.0000 0.0000 30.6239
#
#
#
# Elastic Compliance Matrix: (Units=1/GPa)
#
#
# Indices 1 2 3 4 5 6 
#
# 1 0.016400 0.000073 -0.004947 0.000000 0.000000 0.000000
# 2 0.000073 0.016400 -0.004947 0.000000 0.000000 0.000000
# 3 -0.004947 -0.004947 0.014535 0.000000 0.000000 0.000000
# 4 0.000000 0.000000 0.000000 0.038153 0.000000 0.000000
# 5 0.000000 0.000000 0.000000 0.000000 0.038153 0.000000
# 6 0.000000 0.000000 0.000000 0.000000 0.000000 0.032654
#
#
# Mechanical properties :
#
#
# Convention : Reuss Voigt Hill
#
# Bulk Modulus (GPa) = 36.10791 38.10436 37.10613
# Shear Modulus (GPa) = 27.00234 27.57948 27.29091
#
# Velocity S-wave (km/s) = 3.38013 3.41607 3.39815
# Velocity P-wave (km/s) = 5.52375 5.62869 5.57647
#
# Compressibility (1/GPa) = 0.02769477
#
# Stress axis : x y z
#
# Youngs Moduli (GPa) = 60.97492 60.97492 68.79791
#
# Poissons Ratio (x) = -0.00446 0.34033
# Poissons Ratio (y) = -0.00446 0.34033
# Poissons Ratio (z) = 0.30163 0.30163
#
# Static dielectric constant tensor:
#      x y z
#    x 1.970330 0.000000 0.000000 
#    y 0.000000 1.970330 0.000000 
#    z 0.000000 0.000000 1.916450 
# 
# From -- ./inp_files/1144.got.cif
#   From: 2010.05.17/outbox.cif.g08.bks.cpg/sg172_1_cif.got.tgz:1144.got - 2010.05.20 11:19:57.
