data_PCOD9580923
_publ_section_title
;
Structure prediction by ZEFSAII (Michael W. Deem and Ramdas Pophale) SiO2 
 PCOD9580923
Probable space group: P 64
;
_chemical_formula_sum "Si O2"
_cell_formula_units_Z 24
_cell_length_a 15.092078
_cell_length_b 15.092078
_cell_length_c 5.187063
_cell_angle_alpha 90.000000
_cell_angle_beta 90.000000
_cell_angle_gamma 120.000000
_cell_volume 1023.175746
_symmetry_space_group_name_H-M "P 64"
_symmetry_group_IT_number 172
_symmetry_cell_setting 'hexagonal'
loop_
_space_group_symop_operation_xyz
x,y,z
x-y,x,2/3+z
-y,x-y,1/3+z
-x,-y,z
-x+y,-x,2/3+z
y,-x+y,1/3+z
loop_
_atom_site_type_symbol
_atom_site_label
_atom_site_fract_x
_atom_site_fract_y
_atom_site_fract_z
Si Si1 0.498091 0.263301 0.100970
Si Si2 0.534795 0.172195 0.578205
Si Si3 0.134376 0.940656 0.092446
Si Si4 0.243301 0.324090 0.035252
O O1 0.559726 0.248859 0.336995
O O2 0.521991 0.376951 0.179869
O O3 0.383802 0.173707 0.167061
O O4 0.528393 0.228727 0.836277
O O5 0.418001 0.084185 0.524322
O O6 0.042411 0.895960 0.294537
O O7 0.245820 0.980283 0.216834
O O8 0.107925 0.851387 0.888519
#
# Coordination Sequence:
#
# PCOD9580923 Si02
#       4
#     6   6   6   6
#     4  10  20  37  68 111 144 187 240 286 345 427
#     4  10  20  37  68 111 144 187 240 286 345 427
#     4  12  26  49  72 105 136 192 240 317 374 445
#     4  10  26  39  74 102 150 177 254 294 372 428
#
# _framework density 23.456378000000001
#
# number of rings (size 3 to 8) (size 9 to 14) (size 15 to 20)
#    1.500    0.000    0.000    6.000    0.000    5.000 
#    0.000    0.000    0.000   42.000    0.000    0.000 
#    0.000    0.000    0.000    0.000    0.000    0.000 
#
# Total GULP energy -133622.691426 kJ/mol
# GULP energy per Si atom -5567.612143 kJ/mol
# Density = 2.340299 g / cm^3
# Si number density = 23.456378 Si / 1000 Ang^3
#
#
#
# Elastic Constant Matrix: (Units=GPa)
#
#
# Indices 1 2 3 4 5 6 
#
# 1 65.5517 0.0282 15.3708 0.0000 0.0000 0.0000
# 2 0.0282 65.5517 15.3708 0.0000 0.0000 0.0000
# 3 15.3708 15.3708 140.0626 0.0000 0.0000 0.0000
# 4 0.0000 0.0000 0.0000 15.9532 0.0000 0.0000
# 5 0.0000 0.0000 0.0000 0.0000 15.9532 0.0000
# 6 0.0000 0.0000 0.0000 0.0000 0.0000 32.7617
#
#
#
# Elastic Compliance Matrix: (Units=1/GPa)
#
#
# Indices 1 2 3 4 5 6 
#
# 1 0.015669 0.000407 -0.001764 0.000000 0.000000 0.000000
# 2 0.000407 0.015669 -0.001764 0.000000 0.000000 0.000000
# 3 -0.001764 -0.001764 0.007527 0.000000 0.000000 0.000000
# 4 0.000000 0.000000 0.000000 0.062683 0.000000 0.000000
# 5 0.000000 0.000000 0.000000 0.000000 0.062683 0.000000
# 6 0.000000 0.000000 0.000000 0.000000 0.000000 0.030523
#
#
# Mechanical properties :
#
#
# Convention : Reuss Voigt Hill
#
# Bulk Modulus (GPa) = 30.65481 36.96728 33.81104
# Shear Modulus (GPa) = 23.59931 28.96004 26.27968
#
# Velocity S-wave (km/s) = 3.17534 3.51755 3.35081
# Velocity P-wave (km/s) = 5.15179 5.68258 5.42368
#
# Compressibility (1/GPa) = 0.03262131
#
# Stress axis : x y z
#
# Youngs Moduli (GPa) = 63.82176 63.82176 132.85730
#
# Poissons Ratio (x) = -0.02597 0.23438
# Poissons Ratio (y) = -0.02597 0.23438
# Poissons Ratio (z) = 0.11259 0.11259
#
# Static dielectric constant tensor:
#      x y z
#    x 2.006380 0.000000 0.000000 
#    y 0.000000 2.006380 0.000000 
#    z 0.000000 0.000000 1.909930 
# 
# From -- ./inp_files/88.got.cif
#   From: 2010.05.17/outbox.cif.g08.bks.cpg/sg172_1_cif.got.tgz:88.got - 2010.05.20 11:19:57.
