data_PCOD9580295
_publ_section_title
;
Structure prediction by ZEFSAII (Michael W. Deem and Ramdas Pophale) SiO2 
 PCOD9580295
Probable space group: P 65
;
_chemical_formula_sum "Si O2"
_cell_formula_units_Z 48
_cell_length_a 15.001360
_cell_length_b 15.001360
_cell_length_c 12.445372
_cell_angle_alpha 90.000000
_cell_angle_beta 90.000000
_cell_angle_gamma 120.000000
_cell_volume 2425.491633
_symmetry_space_group_name_H-M "P 65"
_symmetry_group_IT_number 170
_symmetry_cell_setting 'hexagonal'
loop_
_space_group_symop_operation_xyz
x,y,z
x-y,x,5/6+z
-y,x-y,2/3+z
-x,-y,1/2+z
-x+y,-x,1/3+z
y,-x+y,1/6+z
loop_
_atom_site_type_symbol
_atom_site_label
_atom_site_fract_x
_atom_site_fract_y
_atom_site_fract_z
Si Si1 0.377837 0.462627 0.734830
Si Si2 0.516638 0.426360 0.438621
Si Si3 0.190893 0.484326 0.740900
Si Si4 0.656054 0.975595 0.976913
Si Si5 0.751054 0.283063 0.182443
Si Si6 0.181857 0.068397 0.576018
Si Si7 0.116232 0.378249 0.514809
Si Si8 0.448425 0.404025 0.097058
O O1 0.451597 0.495403 0.837945
O O2 0.283162 0.468977 0.779265
O O3 0.358806 0.358174 0.681518
O O4 0.437505 0.550054 0.646269
O O5 0.394465 0.359921 0.412403
O O6 0.558948 0.346211 0.438484
O O7 0.551675 0.496791 0.544981
O O8 0.229324 0.604555 0.714790
O O9 0.152305 0.414483 0.635157
O O10 0.105109 0.439578 0.831576
O O11 0.651321 0.023519 0.862667
O O12 0.559059 0.859861 0.972363
O O13 0.760452 0.975465 0.001118
O O14 0.726446 0.200774 0.278399
O O15 0.125859 0.110368 0.497458
O O16 0.276167 0.162918 0.639489
#
# Coordination Sequence:
#
# PCOD9580295 Si02
#       8
#     6   6   6   6   6   6   6   6
#     4  11  24  39  58  92 135 175 222 271 335 411
#     4  11  22  39  60  94 135 174 223 275 329 400
#     4  12  24  38  61 100 131 174 224 277 335 398
#     4  10  22  43  66  93 132 180 225 272 349 410
#     4  11  23  37  66  92 127 182 227 276 333 404
#     4  11  25  48  77 105 129 173 234 289 348 422
#     4  11  22  43  68  92 132 176 226 275 341 410
#     4  11  22  43  62  92 141 174 219 287 334 403
#
# _framework density 19.789802999999999
#
# number of rings (size 3 to 8) (size 9 to 14) (size 15 to 20)
#    0.000    1.000    3.750    3.750    5.250    0.000 
#    4.500    2.500    0.000    0.000    0.000    0.000 
#    0.000    0.000    0.000    0.000    0.000    0.000 
#
# Total GULP energy -267763.681491 kJ/mol
# GULP energy per Si atom -5578.410031 kJ/mol
# Density = 1.974476 g / cm^3
# Si number density = 19.789803 Si / 1000 Ang^3
#
#
#
# Elastic Constant Matrix: (Units=GPa)
#
#
# Indices 1 2 3 4 5 6 
#
# 1 91.0984 34.8522 32.5356 0.0000 0.0000 0.0000
# 2 34.8522 91.0984 32.5356 0.0000 0.0000 0.0000
# 3 32.5356 32.5356 90.2244 0.0000 0.0000 0.0000
# 4 0.0000 0.0000 0.0000 29.5122 0.0000 0.0000
# 5 0.0000 0.0000 0.0000 0.0000 29.5122 0.0000
# 6 0.0000 0.0000 0.0000 0.0000 0.0000 28.1231
#
#
#
# Elastic Compliance Matrix: (Units=1/GPa)
#
#
# Indices 1 2 3 4 5 6 
#
# 1 0.013768 -0.004011 -0.003519 0.000000 0.000000 0.000000
# 2 -0.004011 0.013768 -0.003519 0.000000 0.000000 0.000000
# 3 -0.003519 -0.003519 0.013621 0.000000 0.000000 0.000000
# 4 0.000000 0.000000 0.000000 0.033884 0.000000 0.000000
# 5 0.000000 0.000000 0.000000 0.000000 0.033884 0.000000
# 6 0.000000 0.000000 0.000000 0.000000 0.000000 0.035558
#
#
# Mechanical properties :
#
#
# Convention : Reuss Voigt Hill
#
# Bulk Modulus (GPa) = 52.46138 52.47422 52.46780
# Shear Modulus (GPa) = 28.91275 28.92934 28.92105
#
# Velocity S-wave (km/s) = 3.82644 3.82754 3.82699
# Velocity P-wave (km/s) = 6.78889 6.79019 6.78954
#
# Compressibility (1/GPa) = 0.01906164
#
# Stress axis : x y z
#
# Youngs Moduli (GPa) = 72.63092 72.63092 73.41524
#
# Poissons Ratio (x) = 0.29131 0.25832
# Poissons Ratio (y) = 0.29131 0.25832
# Poissons Ratio (z) = 0.25556 0.25556
#
# Static dielectric constant tensor:
#      x y z
#    x 1.752380 0.000000 0.000000 
#    y 0.000000 1.752380 0.000000 
#    z 0.000000 0.000000 1.740940 
# 
# From -- ./inp_files/1081.got.cif
#   From: 2010.05.17/outbox.cif.g08.bks.cpg/sg170_cif.got.tgz:1081.got - 2010.05.20 11:14:30.
