data_PCOD9580812
_publ_section_title
;
Structure prediction by ZEFSAII (Michael W. Deem and Ramdas Pophale) SiO2 
 PCOD9580812
Probable space group: P 62
;
_chemical_formula_sum "Si O2"
_cell_formula_units_Z 30
_cell_length_a 9.394488
_cell_length_b 9.394488
_cell_length_c 16.368611
_cell_angle_alpha 90.000000
_cell_angle_beta 90.000000
_cell_angle_gamma 120.000000
_cell_volume 1251.090400
_symmetry_space_group_name_H-M "P 62"
_symmetry_group_IT_number 171
_symmetry_cell_setting 'hexagonal'
loop_
_space_group_symop_operation_xyz
x,y,z
x-y,x,1/3+z
-y,x-y,2/3+z
-x,-y,z
-x+y,-x,1/3+z
y,-x+y,2/3+z
loop_
_atom_site_type_symbol
_atom_site_label
_atom_site_fract_x
_atom_site_fract_y
_atom_site_fract_z
Si Si1 0.003354 0.832357 0.122130
Si Si2 0.098603 0.398097 0.262757
Si Si3 0.828618 0.333478 0.057847
Si Si4 0.044303 0.357424 0.438305
Si Si5 0.295113 0.699918 0.876345
O O1 0.012886 0.767489 0.212189
O O2 0.817453 0.701332 0.098698
O O3 0.125275 0.810650 0.062871
O O4 0.000000 0.000000 0.123208
O O5 0.131685 0.365290 0.353972
O O6 0.280404 0.513483 0.228035
O O7 0.000000 0.500000 0.262880
O O8 0.688024 0.279696 0.128285
O O9 0.000000 0.500000 0.081762
O O10 0.784002 0.364009 0.966305
O O11 0.168396 0.411270 0.513975
O O12 0.000000 0.500000 0.435394
#
# Coordination Sequence:
#
# PCOD9580812 Si02
#       5
#     6   6   6   6   6
#     4  12  27  47  71 109 158 197 247 326 403 456
#     4  11  22  44  78 105 147 197 265 308 385 466
#     4  12  26  49  80 118 155 204 266 323 386 471
#     4  11  24  43  74 107 148 206 250 316 389 461
#     4  12  23  46  80 113 146 208 268 321 368 472
#
# _framework density 23.979081000000001
#
# number of rings (size 3 to 8) (size 9 to 14) (size 15 to 20)
#    0.000    0.400    8.000    0.000    2.800    5.600 
#    0.000    1.000    0.000    0.000    0.000    0.000 
#    0.000    0.000    0.000    0.000    0.000    0.000 
#
# Total GULP energy -167245.835138 kJ/mol
# GULP energy per Si atom -5574.861171 kJ/mol
# Density = 2.392450 g / cm^3
# Si number density = 23.979081 Si / 1000 Ang^3
#
#
#
# Elastic Constant Matrix: (Units=GPa)
#
#
# Indices 1 2 3 4 5 6 
#
# 1 76.9861 5.4233 32.8901 0.0000 0.0000 0.0000
# 2 5.4233 76.9861 32.8901 0.0000 0.0000 0.0000
# 3 32.8901 32.8901 163.0613 0.0000 0.0000 0.0000
# 4 0.0000 0.0000 0.0000 -35.6553 0.0000 0.0000
# 5 0.0000 0.0000 0.0000 0.0000 -35.6553 0.0000
# 6 0.0000 0.0000 0.0000 0.0000 0.0000 35.7814
#
#
#
# Elastic Compliance Matrix: (Units=1/GPa)
#
#
# Indices 1 2 3 4 5 6 
#
# 1 0.014218 0.000245 -0.002917 0.000000 0.000000 0.000000
# 2 0.000245 0.014218 -0.002917 0.000000 0.000000 0.000000
# 3 -0.002917 -0.002917 0.007310 0.000000 0.000000 0.000000
# 4 0.000000 0.000000 0.000000 -0.028046 0.000000 0.000000
# 5 0.000000 0.000000 0.000000 0.000000 -0.028046 0.000000
# 6 0.000000 0.000000 0.000000 0.000000 0.000000 0.027947
#
#
# Mechanical properties :
#
#
# Convention : Reuss Voigt Hill
#
# Bulk Modulus (GPa) = 40.70549 51.04894 45.87722
# Shear Modulus (GPa) = 185.39275 9.28284 97.33779
#
# Velocity S-wave (km/s) = 8.80240 1.96968 6.37816
# Velocity P-wave (km/s) = 10.96913 5.14859 8.56825
#
# Compressibility (1/GPa) = 0.02456671
#
# Stress axis : x y z
#
# Youngs Moduli (GPa) = 70.33122 70.33122 136.80797
#
# Poissons Ratio (x) = -0.01721 0.39911
# Poissons Ratio (y) = -0.01721 0.39911
# Poissons Ratio (z) = 0.20518 0.20518
#
# Static dielectric constant tensor:
#      x y z
#    x 2.136800 0.000000 0.000000 
#    y 0.000000 2.136800 0.000000 
#    z 0.000000 0.000000 2.041370 
# 
# From -- ./inp_files/2377.got.cif
#   From: 2010.05.17/outbox.cif.g08.bks.cpg/sg171_2_cif.got.tgz:2377.got - 2010.05.20 11:16:09.
