data_PCOD9580751
_publ_section_title
;
Structure prediction by ZEFSAII (Michael W. Deem and Ramdas Pophale) SiO2 
 PCOD9580751
Probable space group: P 62
;
_chemical_formula_sum "Si O2"
_cell_formula_units_Z 30
_cell_length_a 10.118103
_cell_length_b 10.118103
_cell_length_c 15.444941
_cell_angle_alpha 90.000000
_cell_angle_beta 90.000000
_cell_angle_gamma 120.000000
_cell_volume 1369.351928
_symmetry_space_group_name_H-M "P 62"
_symmetry_group_IT_number 171
_symmetry_cell_setting 'hexagonal'
loop_
_space_group_symop_operation_xyz
x,y,z
x-y,x,1/3+z
-y,x-y,2/3+z
-x,-y,z
-x+y,-x,1/3+z
y,-x+y,2/3+z
loop_
_atom_site_type_symbol
_atom_site_label
_atom_site_fract_x
_atom_site_fract_y
_atom_site_fract_z
Si Si1 0.000000 0.500000 0.305941
Si Si2 0.227486 0.918796 0.022172
Si Si3 0.349839 0.546955 0.586215
Si Si4 0.177663 0.828977 0.217719
Si Si5 0.234542 0.715990 0.716507
Si Si6 0.000000 0.000000 0.952857
O O1 0.085935 0.652337 0.247567
O O2 0.108217 0.465136 0.366313
O O3 0.199983 0.841168 0.115083
O O4 0.397270 0.063283 0.020641
O O5 0.170537 0.789394 0.948627
O O6 0.125280 0.996153 0.012500
O O7 0.537490 0.650159 0.590733
O O8 0.298677 0.636488 0.652825
O O9 0.321144 0.554123 0.484100
O O10 0.080726 0.913880 0.238878
#
# Coordination Sequence:
#
# PCOD9580751 Si02
#       6
#     3   6   6   6   6   3
#     4  10  24  48  76 106 156 194 272 310 394 484
#     4  12  25  45  74 109 154 196 252 322 392 469
#     4  11  25  45  79 108 149 195 262 322 379 472
#     4  11  25  49  70 114 147 204 257 322 392 470
#     4  11  24  47  75 113 145 203 255 325 388 469
#     4  12  26  46  70 106 160 204 242 318 396 472
#
# _framework density 21.908173000000001
#
# number of rings (size 3 to 8) (size 9 to 14) (size 15 to 20)
#    0.000    0.800    4.000    2.400    2.800    4.000 
#    3.600    0.000    0.000    0.000    0.000    0.000 
#    0.000    0.000    0.000    0.000    0.000    0.000 
#
# Total GULP energy -167050.812048 kJ/mol
# GULP energy per Si atom -5568.360402 kJ/mol
# Density = 2.185831 g / cm^3
# Si number density = 21.908173 Si / 1000 Ang^3
#
#
#
# Elastic Constant Matrix: (Units=GPa)
#
#
# Indices 1 2 3 4 5 6 
#
# 1 74.1230 53.0596 36.4148 0.0000 0.0000 0.0000
# 2 53.0596 74.1230 36.4148 0.0000 0.0000 0.0000
# 3 36.4148 36.4148 90.2352 0.0000 0.0000 0.0000
# 4 0.0000 0.0000 0.0000 85.4664 0.0000 0.0000
# 5 0.0000 0.0000 0.0000 0.0000 85.4664 0.0000
# 6 0.0000 0.0000 0.0000 0.0000 0.0000 10.5317
#
#
#
# Elastic Compliance Matrix: (Units=1/GPa)
#
#
# Indices 1 2 3 4 5 6 
#
# 1 0.028851 -0.018625 -0.004127 0.000000 0.000000 0.000000
# 2 -0.018625 0.028851 -0.004127 0.000000 0.000000 0.000000
# 3 -0.004127 -0.004127 0.014413 0.000000 0.000000 0.000000
# 4 0.000000 0.000000 0.000000 0.011700 0.000000 0.000000
# 5 0.000000 0.000000 0.000000 0.000000 0.011700 0.000000
# 6 0.000000 0.000000 0.000000 0.000000 0.000000 0.094951
#
#
# Mechanical properties :
#
#
# Convention : Reuss Voigt Hill
#
# Bulk Modulus (GPa) = 54.47292 54.47331 54.47311
# Shear Modulus (GPa) = 19.97264 43.79905 31.88584
#
# Velocity S-wave (km/s) = 3.02263 4.47610 3.81915
# Velocity P-wave (km/s) = 6.09097 7.18557 6.66079
#
# Compressibility (1/GPa) = 0.01835775
#
# Stress axis : x y z
#
# Youngs Moduli (GPa) = 34.66115 34.66115 69.38269
#
# Poissons Ratio (x) = 0.64556 0.28632
# Poissons Ratio (y) = 0.64556 0.28632
# Poissons Ratio (z) = 0.14303 0.14303
#
# Static dielectric constant tensor:
#      x y z
#    x 1.893890 0.000000 0.000000 
#    y 0.000000 1.893890 0.000000 
#    z 0.000000 0.000000 1.702990 
# 
# From -- ./inp_files/2395.got.cif
#   From: 2010.05.17/outbox.cif.g08.bks.cpg/sg171_2_cif.got.tgz:2395.got - 2010.05.20 11:16:09.
