data_PCOD9580123
_publ_section_title
;
Structure prediction by ZEFSAII (Michael W. Deem and Ramdas Pophale) SiO2 
 PCOD9580123
Probable space group: P 61
;
_chemical_formula_sum "Si O2"
_cell_formula_units_Z 48
_cell_length_a 14.299822
_cell_length_b 14.299822
_cell_length_c 10.453303
_cell_angle_alpha 90.000000
_cell_angle_beta 90.000000
_cell_angle_gamma 120.000000
_cell_volume 1851.166293
_symmetry_space_group_name_H-M "P 61"
_symmetry_group_IT_number 169
_symmetry_cell_setting 'hexagonal'
loop_
_space_group_symop_operation_xyz
x,y,z
x-y,x,1/6+z
-y,x-y,1/3+z
-x,-y,1/2+z
-x+y,-x,2/3+z
y,-x+y,5/6+z
loop_
_atom_site_type_symbol
_atom_site_label
_atom_site_fract_x
_atom_site_fract_y
_atom_site_fract_z
Si Si1 0.772246 0.627407 0.732950
Si Si2 0.653364 0.691134 0.293404
Si Si3 0.170065 0.202765 0.453171
Si Si4 0.532556 0.262457 0.738849
Si Si5 0.599795 0.560257 0.547723
Si Si6 0.193936 0.112105 0.889419
Si Si7 0.653773 0.580762 0.069124
Si Si8 0.282715 0.560190 0.399265
O O1 0.829322 0.721714 0.836878
O O2 0.647976 0.591656 0.693479
O O3 0.826703 0.689305 0.602403
O O4 0.785136 0.529296 0.789336
O O5 0.571281 0.721444 0.222330
O O6 0.628789 0.653263 0.441639
O O7 0.773718 0.793091 0.289174
O O8 0.658168 0.595246 0.220882
O O9 0.070423 0.173001 0.550653
O O10 0.282023 0.295808 0.517464
O O11 0.503543 0.161323 0.829221
O O12 0.609276 0.257402 0.627698
O O13 0.607556 0.367681 0.823618
O O14 0.472405 0.483703 0.539679
O O15 0.126613 0.997079 0.833476
O O16 0.704501 0.512450 0.008844
#
# Coordination Sequence:
#
# PCOD9580123 Si02
#       8
#     6   6   6   6   6   6   6   6
#     4  11  24  50  78 118 161 216 279 349 424 521
#     4  12  25  51  77 117 163 218 282 352 438 512
#     4  11  28  54  88 123 169 225 288 366 436 519
#     4  12  25  46  74 114 156 209 278 340 415 518
#     4  12  26  48  81 114 165 225 279 354 436 523
#     4  12  26  52  85 119 162 218 283 359 436 529
#     4  11  28  49  78 119 172 218 276 357 430 523
#     4  11  26  46  75 116 158 211 269 345 411 509
#
# _framework density 25.929601999999999
#
# number of rings (size 3 to 8) (size 9 to 14) (size 15 to 20)
#    0.000    0.500    3.750    3.000    7.000    2.000 
#    2.250    8.750    0.000    0.000    0.000    0.000 
#    0.000    0.000    0.000    0.000    0.000    0.000 
#
# Total GULP energy -268203.188331 kJ/mol
# GULP energy per Si atom -5587.566424 kJ/mol
# Density = 2.587058 g / cm^3
# Si number density = 25.929602 Si / 1000 Ang^3
#
#
#
# Elastic Constant Matrix: (Units=GPa)
#
#
# Indices 1 2 3 4 5 6 
#
# 1 129.8813 64.7034 56.8916 0.0000 0.0000 0.0000
# 2 64.7034 129.8813 56.8916 0.0000 0.0000 0.0000
# 3 56.8916 56.8916 105.6159 0.0000 0.0000 0.0000
# 4 0.0000 0.0000 0.0000 43.0319 0.0000 0.0000
# 5 0.0000 0.0000 0.0000 0.0000 43.0319 0.0000
# 6 0.0000 0.0000 0.0000 0.0000 0.0000 32.5890
#
#
#
# Elastic Compliance Matrix: (Units=1/GPa)
#
#
# Indices 1 2 3 4 5 6 
#
# 1 0.011422 -0.003920 -0.004041 0.000000 0.000000 0.000000
# 2 -0.003920 0.011422 -0.004041 0.000000 0.000000 0.000000
# 3 -0.004041 -0.004041 0.013822 0.000000 0.000000 0.000000
# 4 0.000000 0.000000 0.000000 0.023239 0.000000 0.000000
# 5 0.000000 0.000000 0.000000 0.000000 0.023239 0.000000
# 6 0.000000 0.000000 0.000000 0.000000 0.000000 0.030685
#
#
# Mechanical properties :
#
#
# Convention : Reuss Voigt Hill
#
# Bulk Modulus (GPa) = 78.97851 80.26130 79.61991
# Shear Modulus (GPa) = 35.19766 36.19001 35.69383
#
# Velocity S-wave (km/s) = 3.68833 3.73996 3.71424
# Velocity P-wave (km/s) = 6.97591 7.04773 7.01191
#
# Compressibility (1/GPa) = 0.01266167
#
# Stress axis : x y z
#
# Youngs Moduli (GPa) = 87.54712 87.54712 72.34866
#
# Poissons Ratio (x) = 0.34320 0.29237
# Poissons Ratio (y) = 0.34320 0.29237
# Poissons Ratio (z) = 0.35379 0.35379
#
# Static dielectric constant tensor:
#      x y z
#    x 2.105170 0.000000 0.000000 
#    y 0.000000 2.105170 0.000000 
#    z 0.000000 0.000000 2.182720 
# 
# From -- ./inp_files/1057.got.cif
#   From: 2010.05.17/outbox.cif.g08.bks.cpg/sg169_cif.got.tgz:1057.got - 2010.05.20 11:12:54.
