data_PCOD9580028
_publ_section_title
;
Structure prediction by ZEFSAII (Michael W. Deem and Ramdas Pophale) SiO2 
 PCOD9580028
Probable space group: P 61
;
_chemical_formula_sum "Si O2"
_cell_formula_units_Z 24
_cell_length_a 9.490359
_cell_length_b 9.490359
_cell_length_c 14.783366
_cell_angle_alpha 90.000000
_cell_angle_beta 90.000000
_cell_angle_gamma 120.000000
_cell_volume 1153.106030
_symmetry_space_group_name_H-M "P 61"
_symmetry_group_IT_number 169
_symmetry_cell_setting 'hexagonal'
loop_
_space_group_symop_operation_xyz
x,y,z
x-y,x,1/6+z
-y,x-y,1/3+z
-x,-y,1/2+z
-x+y,-x,2/3+z
y,-x+y,5/6+z
loop_
_atom_site_type_symbol
_atom_site_label
_atom_site_fract_x
_atom_site_fract_y
_atom_site_fract_z
Si Si1 0.960361 0.474760 0.865590
Si Si2 0.607012 0.392988 0.844049
Si Si3 0.771763 0.885881 0.010715
Si Si4 0.474760 0.960361 0.322507
O O1 0.784793 0.452787 0.884182
O O2 0.947644 0.298836 0.877778
O O3 1.000000 0.518272 0.760715
O O4 0.097383 0.601733 0.931285
O O5 0.547213 0.215207 0.803915
O O6 0.495650 0.398267 0.923478
O O7 0.872973 1.000000 0.927382
O O8 0.648809 0.701164 0.976986
#
# Coordination Sequence:
#
# PCOD9580028 Si02
#       4
#     6   6   6   6
#     4  10  23  41  66  95 131 171 223 273 327 390
#     4  11  24  40  72  99 130 172 226 273 326 390
#     4   9  20  38  64  91 132 176 218 271 330 386
#     4  10  23  41  66  95 131 171 223 273 327 390
#
# _framework density 20.813348999999999
#
# number of rings (size 3 to 8) (size 9 to 14) (size 15 to 20)
#    0.000    2.000    0.000    1.500   21.000    0.000 
#    0.000    2.500    0.000    0.000    0.000    0.000 
#    0.000    0.000    0.000    0.000    0.000    0.000 
#
# Total GULP energy -134180.861751 kJ/mol
# GULP energy per Si atom -5590.869240 kJ/mol
# Density = 2.076598 g / cm^3
# Si number density = 20.813349 Si / 1000 Ang^3
#
#
#
# Elastic Constant Matrix: (Units=GPa)
#
#
# Indices 1 2 3 4 5 6 
#
# 1 62.3464 61.5030 46.8692 0.0000 0.0000 0.0000
# 2 61.5030 62.3464 46.8692 0.0000 0.0000 0.0000
# 3 46.8692 46.8692 121.1904 0.0000 0.0000 0.0000
# 4 0.0000 0.0000 0.0000 36.8968 0.0000 0.0000
# 5 0.0000 0.0000 0.0000 0.0000 36.8968 0.0000
# 6 0.0000 0.0000 0.0000 0.0000 0.0000 0.4217
#
#
#
# Elastic Compliance Matrix: (Units=1/GPa)
#
#
# Indices 1 2 3 4 5 6 
#
# 1 0.598514 -0.587098 -0.004415 0.000000 0.000000 0.000000
# 2 -0.587098 0.598514 -0.004415 0.000000 0.000000 0.000000
# 3 -0.004415 -0.004415 0.011666 0.000000 0.000000 0.000000
# 4 0.000000 0.000000 0.000000 0.027103 0.000000 0.000000
# 5 0.000000 0.000000 0.000000 0.000000 0.027103 0.000000
# 6 0.000000 0.000000 0.000000 0.000000 0.000000 2.371224
#
#
# Mechanical properties :
#
#
# Convention : Reuss Voigt Hill
#
# Bulk Modulus (GPa) = 59.38862 61.81847 60.60354
# Shear Modulus (GPa) = 1.03486 20.88587 10.96036
#
# Velocity S-wave (km/s) = 0.70589 3.17122 2.29727
# Velocity P-wave (km/s) = 5.40927 6.57074 6.01809
#
# Compressibility (1/GPa) = 0.01683824
#
# Stress axis : x y z
#
# Youngs Moduli (GPa) = 1.67081 1.67081 85.71629
#
# Poissons Ratio (x) = 0.98093 0.37844
# Poissons Ratio (y) = 0.98093 0.37844
# Poissons Ratio (z) = 0.00738 0.00738
#
# Static dielectric constant tensor:
#      x y z
#    x 1.743540 0.000000 0.000000 
#    y 0.000000 1.743540 0.000000 
#    z 0.000000 0.000000 1.743370 
# 
# From -- ./inp_files/1290.got.cif
#   From: 2010.05.17/outbox.cif.g08.bks.cpg/sg169_cif.got.tgz:1290.got - 2010.05.20 11:12:54.
