data_PCOD9580561
_publ_section_title
;
Structure prediction by ZEFSAII (Michael W. Deem and Ramdas Pophale) SiO2 
 PCOD9580561
Probable space group: P 62
;
_chemical_formula_sum "Si O2"
_cell_formula_units_Z 42
_cell_length_a 15.387339
_cell_length_b 15.387339
_cell_length_c 9.431527
_cell_angle_alpha 90.000000
_cell_angle_beta 90.000000
_cell_angle_gamma 120.000000
_cell_volume 1933.925268
_symmetry_space_group_name_H-M "P 62"
_symmetry_group_IT_number 171
_symmetry_cell_setting 'hexagonal'
loop_
_space_group_symop_operation_xyz
x,y,z
x-y,x,1/3+z
-y,x-y,2/3+z
-x,-y,z
-x+y,-x,1/3+z
y,-x+y,2/3+z
loop_
_atom_site_type_symbol
_atom_site_label
_atom_site_fract_x
_atom_site_fract_y
_atom_site_fract_z
Si Si1 0.148012 0.797678 0.537280
Si Si2 0.500000 0.000000 0.283429
Si Si3 0.215919 0.663394 0.422354
Si Si4 0.635010 0.804345 0.302116
Si Si5 0.652827 0.441016 0.758453
Si Si6 0.500000 0.000000 0.732006
Si Si7 0.307776 0.319383 0.478598
Si Si8 0.292744 0.968816 0.690618
O O1 0.223726 0.757200 0.507374
O O2 0.211332 0.913387 0.571666
O O3 0.081106 0.736369 0.672048
O O4 0.073717 0.766502 0.406402
O O5 0.452050 0.893108 0.367598
O O6 0.411374 0.996436 0.188955
O O7 0.196275 0.667982 0.255951
O O8 0.330621 0.688190 0.423436
O O9 0.109385 0.568637 0.475379
O O10 0.520533 0.772472 0.335042
O O11 0.679281 0.773217 0.433260
O O12 0.643395 0.747396 0.162791
O O13 0.692095 0.922251 0.267053
O O14 0.599547 0.017457 0.652942
#
# Coordination Sequence:
#
# PCOD9580561 Si02
#       8
#     6   3   6   6   6   3   6   6
#     4   9  19  35  57  82 117 162 215 263 316 383
#     4  10  21  39  58  80 122 165 213 276 324 388
#     4  11  23  37  51  81 112 162 217 266 320 376
#     4   9  19  34  56  84 117 166 216 267 321 387
#     4  11  23  37  55  81 119 164 211 268 317 390
#     4  10  21  35  54  74 114 161 205 278 308 376
#     4   9  18  36  59  85 119 165 222 268 323 386
#     4   9  18  35  55  83 114 160 218 262 321 375
#
# _framework density 21.717487999999999
#
# number of rings (size 3 to 8) (size 9 to 14) (size 15 to 20)
#    0.000    2.286    0.000    2.143    2.000    6.286 
#    5.143    0.000    0.000    0.000    0.000    0.000 
#    0.000    0.000    0.000 2966.143   86.571   10.857 
#
# Total GULP energy -234203.171794 kJ/mol
# GULP energy per Si atom -5576.265995 kJ/mol
# Density = 2.166806 g / cm^3
# Si number density = 21.717488 Si / 1000 Ang^3
#
#
#
# Elastic Constant Matrix: (Units=GPa)
#
#
# Indices 1 2 3 4 5 6 
#
# 1 111.5411 56.5771 32.9851 0.0000 0.0000 0.0000
# 2 56.5771 111.5411 32.9851 0.0000 0.0000 0.0000
# 3 32.9851 32.9851 39.8795 0.0000 0.0000 0.0000
# 4 0.0000 0.0000 0.0000 23.7727 0.0000 0.0000
# 5 0.0000 0.0000 0.0000 0.0000 23.7727 0.0000
# 6 0.0000 0.0000 0.0000 0.0000 0.0000 27.4820
#
#
#
# Elastic Compliance Matrix: (Units=1/GPa)
#
#
# Indices 1 2 3 4 5 6 
#
# 1 0.013500 -0.004694 -0.007284 0.000000 0.000000 0.000000
# 2 -0.004694 0.013500 -0.007284 0.000000 0.000000 0.000000
# 3 -0.007284 -0.007284 0.037125 0.000000 0.000000 0.000000
# 4 0.000000 0.000000 0.000000 0.042065 0.000000 0.000000
# 5 0.000000 0.000000 0.000000 0.000000 0.042065 0.000000
# 6 0.000000 0.000000 0.000000 0.000000 0.000000 0.036387
#
#
# Mechanical properties :
#
#
# Convention : Reuss Voigt Hill
#
# Bulk Modulus (GPa) = 39.05953 56.45069 47.75511
# Shear Modulus (GPa) = 21.57964 24.36644 22.97304
#
# Velocity S-wave (km/s) = 3.15565 3.35322 3.25593
# Velocity P-wave (km/s) = 5.59480 6.40638 6.01430
#
# Compressibility (1/GPa) = 0.02560195
#
# Stress axis : x y z
#
# Youngs Moduli (GPa) = 74.07353 74.07353 26.93606
#
# Poissons Ratio (x) = 0.34767 0.19620
# Poissons Ratio (y) = 0.34767 0.19620
# Poissons Ratio (z) = 0.53955 0.53955
#
# Static dielectric constant tensor:
#      x y z
#    x 1.812830 0.000000 0.000000 
#    y 0.000000 1.812830 0.000000 
#    z 0.000000 0.000000 1.811280 
# 
# From -- ./inp_files/1691.got.cif
#   From: 2010.05.17/outbox.cif.g08.bks.cpg/sg171_1_cif.got.tgz:1691.got - 2010.05.20 11:16:09.
