data_PCOD9580729
_publ_section_title
;
Structure prediction by ZEFSAII (Michael W. Deem and Ramdas Pophale) SiO2 
 PCOD9580729
Probable space group: P 62
;
_chemical_formula_sum "Si O2"
_cell_formula_units_Z 21
_cell_length_a 14.319661
_cell_length_b 14.319661
_cell_length_c 4.643671
_cell_angle_alpha 90.000000
_cell_angle_beta 90.000000
_cell_angle_gamma 120.000000
_cell_volume 824.626995
_symmetry_space_group_name_H-M "P 62"
_symmetry_group_IT_number 171
_symmetry_cell_setting 'hexagonal'
loop_
_space_group_symop_operation_xyz
x,y,z
x-y,x,1/3+z
-y,x-y,2/3+z
-x,-y,z
-x+y,-x,1/3+z
y,-x+y,2/3+z
loop_
_atom_site_type_symbol
_atom_site_label
_atom_site_fract_x
_atom_site_fract_y
_atom_site_fract_z
Si Si1 0.209478 0.035145 0.720100
Si Si2 0.708168 0.638278 0.554679
Si Si3 0.567540 0.220832 0.498562
Si Si4 0.000000 0.500000 0.197726
O O1 0.284677 0.087460 0.442214
O O2 0.107995 0.932475 0.574457
O O3 0.293843 0.025636 0.932406
O O4 0.706097 0.525149 0.588529
O O5 0.588088 0.599854 0.673130
O O6 0.681259 0.261178 0.348617
O O7 0.536003 0.112850 0.682301
#
# Coordination Sequence:
#
# PCOD9580729 Si02
#       4
#     6   6   6   3
#     4  12  28  50  81 114 156 210 274 349 421 502
#     4  10  26  46  77 113 159 205 269 336 412 497
#     4  10  24  42  73 113 161 219 271 339 414 496
#     4   8  24  44  70 114 164 214 272 340 398 518
#
# _framework density 25.466061
#
# number of rings (size 3 to 8) (size 9 to 14) (size 15 to 20)
#    1.714    0.000    0.000    1.714   12.000    1.143 
#    0.000   10.000    0.000    0.000    0.000    0.000 
#    0.000    0.000    0.000    0.000    0.000    0.000 
#
# Total GULP energy -117108.986458 kJ/mol
# GULP energy per Si atom -5576.618403 kJ/mol
# Density = 2.540810 g / cm^3
# Si number density = 25.466061 Si / 1000 Ang^3
#
#
#
# Elastic Constant Matrix: (Units=GPa)
#
#
# Indices 1 2 3 4 5 6 
#
# 1 156.9001 59.9121 46.1432 0.0000 0.0000 0.0000
# 2 59.9121 156.9001 46.1432 0.0000 0.0000 0.0000
# 3 46.1432 46.1432 123.1526 0.0000 0.0000 0.0000
# 4 0.0000 0.0000 0.0000 28.0576 0.0000 0.0000
# 5 0.0000 0.0000 0.0000 0.0000 28.0576 0.0000
# 6 0.0000 0.0000 0.0000 0.0000 0.0000 48.4940
#
#
#
# Elastic Compliance Matrix: (Units=1/GPa)
#
#
# Indices 1 2 3 4 5 6 
#
# 1 0.007899 -0.002412 -0.002056 0.000000 0.000000 0.000000
# 2 -0.002412 0.007899 -0.002056 0.000000 0.000000 0.000000
# 3 -0.002056 -0.002056 0.009661 0.000000 0.000000 0.000000
# 4 0.000000 0.000000 0.000000 0.035641 0.000000 0.000000
# 5 0.000000 0.000000 0.000000 0.000000 0.035641 0.000000
# 6 0.000000 0.000000 0.000000 0.000000 0.000000 0.020621
#
#
# Mechanical properties :
#
#
# Convention : Reuss Voigt Hill
#
# Bulk Modulus (GPa) = 80.57094 82.37221 81.47158
# Shear Modulus (GPa) = 37.16196 39.90546 38.53371
#
# Velocity S-wave (km/s) = 3.82419 3.96284 3.89413
# Velocity P-wave (km/s) = 7.15587 7.30444 7.23054
#
# Compressibility (1/GPa) = 0.01241142
#
# Stress axis : x y z
#
# Youngs Moduli (GPa) = 126.59821 126.59821 103.51163
#
# Poissons Ratio (x) = 0.30530 0.21283
# Poissons Ratio (y) = 0.30530 0.21283
# Poissons Ratio (z) = 0.26029 0.26029
#
# Static dielectric constant tensor:
#      x y z
#    x 2.011420 0.000000 0.000000 
#    y 0.000000 2.011420 0.000000 
#    z 0.000000 0.000000 2.043300 
# 
# From -- ./inp_files/181.got.cif
#   From: 2010.05.17/outbox.cif.g08.bks.cpg/sg171_1_cif.got.tgz:181.got - 2010.05.20 11:16:09.
