data_PCOD9580321
_publ_section_title
;
Structure prediction by ZEFSAII (Michael W. Deem and Ramdas Pophale) SiO2 
 PCOD9580321
Probable space group: P 65
;
_chemical_formula_sum "Si O2"
_cell_formula_units_Z 36
_cell_length_a 14.374988
_cell_length_b 14.374988
_cell_length_c 8.551680
_cell_angle_alpha 90.000000
_cell_angle_beta 90.000000
_cell_angle_gamma 120.000000
_cell_volume 1530.372154
_symmetry_space_group_name_H-M "P 65"
_symmetry_group_IT_number 170
_symmetry_cell_setting 'hexagonal'
loop_
_space_group_symop_operation_xyz
x,y,z
x-y,x,5/6+z
-y,x-y,2/3+z
-x,-y,1/2+z
-x+y,-x,1/3+z
y,-x+y,1/6+z
loop_
_atom_site_type_symbol
_atom_site_label
_atom_site_fract_x
_atom_site_fract_y
_atom_site_fract_z
Si Si1 0.399726 0.004308 0.588720
Si Si2 0.136298 0.216803 0.805237
Si Si3 0.618195 0.341072 0.297083
Si Si4 0.588949 0.128164 0.372080
Si Si5 0.205336 0.174223 0.306792
Si Si6 0.450097 0.175527 0.842716
O O1 0.490870 0.033467 0.461256
O O2 0.285598 0.975971 0.517809
O O3 0.442316 0.115270 0.683007
O O4 0.385637 0.913114 0.711694
O O5 0.176151 0.132860 0.841552
O O6 0.226704 0.334209 0.754400
O O7 0.090099 0.226539 0.972621
O O8 0.697323 0.365364 0.444726
O O9 0.548825 0.214525 0.337251
O O10 0.633573 0.458824 0.283759
O O11 0.700259 0.182042 0.473306
O O12 0.185580 0.084630 0.436700
#
# Coordination Sequence:
#
# PCOD9580321 Si02
#       6
#     6   6   6   6   6   6
#     4  12  27  47  72 113 151 200 263 320 395 477
#     4  10  23  45  71 110 150 197 259 322 396 474
#     4  10  23  43  71 106 143 199 253 308 391 462
#     4  11  26  45  71 107 150 203 255 318 390 470
#     4  10  24  49  73 108 148 199 255 326 399 481
#     4  11  23  45  72 106 146 198 259 322 387 466
#
# _framework density 23.523692
#
# number of rings (size 3 to 8) (size 9 to 14) (size 15 to 20)
#    0.000    1.333    0.000    6.000    4.667    4.000 
#   18.000    0.000    0.000    0.000    0.000    0.000 
#    0.000    0.000    0.000    0.000    0.000    0.000 
#
# Total GULP energy -200525.333757 kJ/mol
# GULP energy per Si atom -5570.148160 kJ/mol
# Density = 2.347015 g / cm^3
# Si number density = 23.523692 Si / 1000 Ang^3
#
#
#
# Elastic Constant Matrix: (Units=GPa)
#
#
# Indices 1 2 3 4 5 6 
#
# 1 102.6029 75.5146 39.4797 0.0000 0.0000 0.0000
# 2 75.5146 102.6029 39.4797 0.0000 0.0000 0.0000
# 3 39.4797 39.4797 64.7088 0.0000 0.0000 0.0000
# 4 0.0000 0.0000 0.0000 30.3211 0.0000 0.0000
# 5 0.0000 0.0000 0.0000 0.0000 30.3211 0.0000
# 6 0.0000 0.0000 0.0000 0.0000 0.0000 13.5441
#
#
#
# Elastic Compliance Matrix: (Units=1/GPa)
#
#
# Indices 1 2 3 4 5 6 
#
# 1 0.022306 -0.014610 -0.004695 0.000000 0.000000 0.000000
# 2 -0.014610 0.022306 -0.004695 0.000000 0.000000 0.000000
# 3 -0.004695 -0.004695 0.021183 0.000000 0.000000 0.000000
# 4 0.000000 0.000000 0.000000 0.032980 0.000000 0.000000
# 5 0.000000 0.000000 0.000000 0.000000 0.032980 0.000000
# 6 0.000000 0.000000 0.000000 0.000000 0.000000 0.073833
#
#
# Mechanical properties :
#
#
# Convention : Reuss Voigt Hill
#
# Bulk Modulus (GPa) = 56.20030 64.31809 60.25919
# Shear Modulus (GPa) = 19.26621 22.53328 20.89975
#
# Velocity S-wave (km/s) = 2.86495 3.09835 2.98393
# Velocity P-wave (km/s) = 5.90649 6.34042 6.12730
#
# Compressibility (1/GPa) = 0.01779350
#
# Stress axis : x y z
#
# Youngs Moduli (GPa) = 44.83088 44.83088 47.20744
#
# Poissons Ratio (x) = 0.65500 0.22165
# Poissons Ratio (y) = 0.65500 0.22165
# Poissons Ratio (z) = 0.21049 0.21049
#
# Static dielectric constant tensor:
#      x y z
#    x 1.962060 0.000000 0.000000 
#    y 0.000000 1.962060 0.000000 
#    z 0.000000 0.000000 1.918020 
# 
# From -- ./inp_files/598.got.cif
#   From: 2010.05.17/outbox.cif.g08.bks.cpg/sg170_cif.got.tgz:598.got - 2010.05.20 11:14:30.
