data_PCOD9580463
_publ_section_title
;
Structure prediction by ZEFSAII (Michael W. Deem and Ramdas Pophale) SiO2 
 PCOD9580463
Probable space group: P 62
;
_chemical_formula_sum "Si O2"
_cell_formula_units_Z 36
_cell_length_a 18.807236
_cell_length_b 18.807236
_cell_length_c 7.993173
_cell_angle_alpha 90.000000
_cell_angle_beta 90.000000
_cell_angle_gamma 120.000000
_cell_volume 2448.498222
_symmetry_space_group_name_H-M "P 62"
_symmetry_group_IT_number 171
_symmetry_cell_setting 'hexagonal'
loop_
_space_group_symop_operation_xyz
x,y,z
x-y,x,1/3+z
-y,x-y,2/3+z
-x,-y,z
-x+y,-x,1/3+z
y,-x+y,2/3+z
loop_
_atom_site_type_symbol
_atom_site_label
_atom_site_fract_x
_atom_site_fract_y
_atom_site_fract_z
Si Si1 0.546464 0.674638 0.926380
Si Si2 0.631635 0.415552 0.526925
Si Si3 0.597171 0.059064 0.252306
Si Si4 0.582853 0.234762 0.554068
Si Si5 0.531203 0.820405 0.874263
Si Si6 0.416062 0.410038 0.228373
O O1 0.571094 0.642934 0.760769
O O2 0.446023 0.631406 0.920417
O O3 0.578558 0.770999 0.910172
O O4 0.571229 0.645864 0.093974
O O5 0.536100 0.388418 0.529395
O O6 0.637331 0.333149 0.534861
O O7 0.665225 0.459504 0.705506
O O8 0.671227 0.470997 0.366883
O O9 0.500000 0.000000 0.283756
O O10 0.618995 0.025555 0.087546
O O11 0.521403 0.215898 0.705869
O O12 0.579119 0.917918 0.853329
O O13 0.500000 0.500000 0.222442
#
# Coordination Sequence:
#
# PCOD9580463 Si02
#       6
#     6   6   6   6   6   6
#     4  11  23  33  51  67  96 126 167 210 260 292
#     4  11  22  30  46  67  98 121 163 211 256 283
#     4  10  19  35  45  67  90 128 159 199 247 299
#     4  11  21  30  45  71  94 121 160 214 252 289
#     4  12  23  34  48  72  91 128 168 210 257 299
#     4  11  21  35  52  65  95 129 164 206 258 306
#
# _framework density 14.70289
#
# number of rings (size 3 to 8) (size 9 to 14) (size 15 to 20)
#    0.000    1.000    8.333    1.500    7.000    0.000 
#    0.000    0.000    0.000    0.000    0.000    0.000 
#    0.000    0.000    0.000    0.000    0.000    8.333 
#
# Total GULP energy -200777.546036 kJ/mol
# GULP energy per Si atom -5577.154057 kJ/mol
# Density = 1.466943 g / cm^3
# Si number density = 14.702890 Si / 1000 Ang^3
#
#
#
# Elastic Constant Matrix: (Units=GPa)
#
#
# Indices 1 2 3 4 5 6 
#
# 1 51.8418 15.4461 10.7239 0.0000 0.0000 0.0000
# 2 15.4461 51.8418 10.7239 0.0000 0.0000 0.0000
# 3 10.7239 10.7239 60.6479 0.0000 0.0000 0.0000
# 4 0.0000 0.0000 0.0000 19.3381 0.0000 0.0000
# 5 0.0000 0.0000 0.0000 0.0000 19.3381 0.0000
# 6 0.0000 0.0000 0.0000 0.0000 0.0000 18.1978
#
#
#
# Elastic Compliance Matrix: (Units=1/GPa)
#
#
# Indices 1 2 3 4 5 6 
#
# 1 0.021612 -0.005863 -0.002785 0.000000 0.000000 0.000000
# 2 -0.005863 0.021612 -0.002785 0.000000 0.000000 0.000000
# 3 -0.002785 -0.002785 0.017473 0.000000 0.000000 0.000000
# 4 0.000000 0.000000 0.000000 0.051711 0.000000 0.000000
# 5 0.000000 0.000000 0.000000 0.000000 0.051711 0.000000
# 6 0.000000 0.000000 0.000000 0.000000 0.000000 0.054952
#
#
# Mechanical properties :
#
#
# Convention : Reuss Voigt Hill
#
# Bulk Modulus (GPa) = 26.43228 26.45772 26.44500
# Shear Modulus (GPa) = 19.64255 19.87065 19.75660
#
# Velocity S-wave (km/s) = 3.65905 3.68024 3.66966
# Velocity P-wave (km/s) = 5.98900 6.00773 5.99837
#
# Compressibility (1/GPa) = 0.03783253
#
# Stress axis : x y z
#
# Youngs Moduli (GPa) = 46.26955 46.26955 57.22970
#
# Poissons Ratio (x) = 0.27129 0.15937
# Poissons Ratio (y) = 0.27129 0.15937
# Poissons Ratio (z) = 0.12885 0.12885
#
# Static dielectric constant tensor:
#      x y z
#    x 1.503400 0.000000 0.000000 
#    y 0.000000 1.503400 0.000000 
#    z 0.000000 0.000000 1.543610 
# 
# From -- ./inp_files/718.got.cif
#   From: 2010.05.17/outbox.cif.g08.bks.cpg/sg171_1_cif.got.tgz:718.got - 2010.05.20 11:16:09.
