data_PCOD9580156
_publ_section_title
;
Structure prediction by ZEFSAII (Michael W. Deem and Ramdas Pophale) SiO2 
 PCOD9580156
Probable space group: P 61
;
_chemical_formula_sum "Si O2"
_cell_formula_units_Z 36
_cell_length_a 9.000000
_cell_length_b 9.000000
_cell_length_c 27.000000
_cell_angle_alpha 90.000000
_cell_angle_beta 90.000000
_cell_angle_gamma 120.000000
_cell_volume 1893.997558
_symmetry_space_group_name_H-M "P 61"
_symmetry_group_IT_number 169
_symmetry_cell_setting 'hexagonal'
loop_
_space_group_symop_operation_xyz
x,y,z
x-y,x,1/6+z
-y,x-y,1/3+z
-x,-y,1/2+z
-x+y,-x,2/3+z
y,-x+y,5/6+z
loop_
_atom_site_type_symbol
_atom_site_label
_atom_site_fract_x
_atom_site_fract_y
_atom_site_fract_z
Si Si1 0.745211 0.020749 0.193150
Si Si2 0.389444 0.949820 0.964551
Si Si3 0.652287 0.292733 0.861520
Si Si4 0.834822 0.052551 0.300026
Si Si5 0.579299 0.277678 0.642707
Si Si6 0.472804 0.924797 0.852156
O O1 0.733833 0.194844 0.196901
O O2 0.753268 0.963392 0.248283
O O3 0.921757 0.063897 0.166941
O O4 0.585565 0.885932 0.162700
O O5 0.444549 0.921227 0.910628
O O6 0.245561 0.005015 0.958622
O O7 0.556613 0.114417 0.987829
O O8 0.328631 0.780856 0.995986
O O9 0.719493 0.318357 0.917246
O O10 0.630359 0.113551 0.840912
O O11 0.690161 0.080390 0.325906
O O12 0.750197 0.293035 0.666800
#
# Coordination Sequence:
#
# PCOD9580156 Si02
#       6
#     6   6   6   6   6   6
#     4  11  22  37  64  86 119 160 203 251 300 378
#     4  10  20  37  62  83 120 157 194 252 306 356
#     4  10  21  37  58  91 116 155 206 242 302 369
#     4  10  19  39  58  85 119 157 202 242 301 362
#     4  10  22  37  58  90 118 156 202 247 306 373
#     4   9  18  37  58  83 120 151 197 246 293 360
#
# _framework density 19.007415999999999
#
# number of rings (size 3 to 8) (size 9 to 14) (size 15 to 20)
#    0.000    2.000    6.667    0.000    7.000    1.333 
#    0.000    1.667    0.000    0.000    0.000    0.000 
#    0.000    0.000    0.000    0.000    0.000    0.000 
#
# Total GULP energy -200463.629520 kJ/mol
# GULP energy per Si atom -5568.434153 kJ/mol
# Density = 1.896415 g / cm^3
# Si number density = 19.007416 Si / 1000 Ang^3
#
#
#
# Elastic Constant Matrix: (Units=GPa)
#
#
# Indices 1 2 3 4 5 6 
#
# 1 10.1766 -6.9678 9.9053 0.0000 0.0000 0.0000
# 2 -6.9678 10.1766 9.9053 0.0000 0.0000 0.0000
# 3 9.9053 9.9053 31.6199 0.0000 0.0000 0.0000
# 4 0.0000 0.0000 0.0000 -16.2170 0.0000 0.0000
# 5 0.0000 0.0000 0.0000 0.0000 -16.2170 0.0000
# 6 0.0000 0.0000 0.0000 0.0000 0.0000 8.5722
#
#
#
# Elastic Compliance Matrix: (Units=1/GPa)
#
#
# Indices 1 2 3 4 5 6 
#
# 1 -0.137657 -0.195985 0.104518 0.000000 0.000000 0.000000
# 2 -0.195985 -0.137657 0.104518 0.000000 0.000000 0.000000
# 3 0.104518 0.104518 -0.033857 0.000000 0.000000 0.000000
# 4 0.000000 0.000000 0.000000 -0.061664 0.000000 0.000000
# 5 0.000000 0.000000 0.000000 0.000000 -0.061664 0.000000
# 6 0.000000 0.000000 0.000000 0.000000 0.000000 0.116656
#
#
# Mechanical properties :
#
#
# Convention : Reuss Voigt Hill
#
# Bulk Modulus (GPa) = -3.53270 8.62874 2.54802
# Shear Modulus (GPa) = -11.46003 -2.16369 -6.81186
#
# Velocity S-wave (km/s) = -2.45811 -1.06809 -1.89514
# Velocity P-wave (km/s) = 3.14945 1.74024 1.85615
#
# Compressibility (1/GPa) = -0.28306980
#
# Stress axis : x y z
#
# Youngs Moduli (GPa) = -7.26445 -7.26445 -29.53570
#
# Poissons Ratio (x) = -1.42372 3.08700
# Poissons Ratio (y) = -1.42372 3.08700
# Poissons Ratio (z) = 0.75926 0.75926
#
# Static dielectric constant tensor:
#      x y z
#    x 1.698120 0.000000 0.000000 
#    y 0.000000 1.698120 0.000000 
#    z 0.000000 0.000000 1.655820 
# 
# From -- ./inp_files/1728.got.cif
#   From: 2010.05.17/outbox.ucp.g08.bks.cvg/sg169_cif.got.tgz:1728.got - 2010.06.11 15:17:57.
