data_PCOD9580170
_publ_section_title
;
Structure prediction by ZEFSAII (Michael W. Deem and Ramdas Pophale) SiO2 
 PCOD9580170
Probable space group: P 65
;
_chemical_formula_sum "Si O2"
_cell_formula_units_Z 36
_cell_length_a 14.395917
_cell_length_b 14.395917
_cell_length_c 7.158095
_cell_angle_alpha 90.000000
_cell_angle_beta 90.000000
_cell_angle_gamma 120.000000
_cell_volume 1284.714890
_symmetry_space_group_name_H-M "P 65"
_symmetry_group_IT_number 170
_symmetry_cell_setting 'hexagonal'
loop_
_space_group_symop_operation_xyz
x,y,z
x-y,x,5/6+z
-y,x-y,2/3+z
-x,-y,1/2+z
-x+y,-x,1/3+z
y,-x+y,1/6+z
loop_
_atom_site_type_symbol
_atom_site_label
_atom_site_fract_x
_atom_site_fract_y
_atom_site_fract_z
Si Si1 0.610244 0.672661 0.960860
Si Si2 0.433262 0.233632 0.033058
Si Si3 0.217551 0.646112 0.851658
Si Si4 0.181835 0.311341 0.552086
Si Si5 0.199928 0.180905 0.239648
Si Si6 0.452820 0.836894 0.778279
O O1 0.693172 0.650899 0.075576
O O2 0.848149 0.795334 0.933001
O O3 0.491618 0.578636 0.998582
O O4 0.620696 0.775743 0.071841
O O5 0.503493 0.223712 0.857510
O O6 0.524520 0.352706 0.092347
O O7 0.322256 0.186595 0.917596
O O8 0.444972 0.161473 0.189336
O O9 0.340845 0.721349 0.770299
O O10 0.144491 0.618909 0.664530
O O11 0.326763 0.273794 0.265083
O O12 0.124478 0.190229 0.087532
#
# Coordination Sequence:
#
# PCOD9580170 Si02
#       6
#     6   6   6   6   6   6
#     4   9  17  32  52  79 105 137 182 235 284 334
#     4  11  18  32  51  77 106 146 191 220 260 318
#     4  10  18  30  52  74 100 152 186 214 254 316
#     4   9  17  32  52  79 105 137 182 235 284 334
#     4   8  16  32  58  84 100 140 184 230 288 354
#     4  11  18  32  51  77 106 146 191 220 260 318
#
# _framework density 28.021784
#
# number of rings (size 3 to 8) (size 9 to 14) (size 15 to 20)
#    1.000    1.333    6.667    0.000    0.000    0.000 
#    3.000    0.000    0.000    4.000    0.000    0.000 
#    0.000    0.000    0.000    0.000    0.000    0.000 
#
# Total GULP energy -200452.712890 kJ/mol
# GULP energy per Si atom -5568.130914 kJ/mol
# Density = 2.795800 g / cm^3
# Si number density = 28.021784 Si / 1000 Ang^3
#
#
#
# Elastic Constant Matrix: (Units=GPa)
#
#
# Indices 1 2 3 4 5 6 
#
# 1 77.8502 -1.9691 -24.1737 0.0000 0.0000 0.0000
# 2 -1.9691 77.8502 -24.1737 0.0000 0.0000 0.0000
# 3 -24.1737 -24.1737 52.9273 0.0000 0.0000 0.0000
# 4 0.0000 0.0000 0.0000 30.5574 0.0000 0.0000
# 5 0.0000 0.0000 0.0000 0.0000 30.5574 0.0000
# 6 0.0000 0.0000 0.0000 0.0000 0.0000 39.9097
#
#
#
# Elastic Compliance Matrix: (Units=1/GPa)
#
#
# Indices 1 2 3 4 5 6 
#
# 1 0.015558 0.003030 0.008490 0.000000 0.000000 0.000000
# 2 0.003030 0.015558 0.008490 0.000000 0.000000 0.000000
# 3 0.008490 0.008490 0.026649 0.000000 0.000000 0.000000
# 4 0.000000 0.000000 0.000000 0.032725 0.000000 0.000000
# 5 0.000000 0.000000 0.000000 0.000000 0.032725 0.000000
# 6 0.000000 0.000000 0.000000 0.000000 0.000000 0.025057
#
#
# Mechanical properties :
#
#
# Convention : Reuss Voigt Hill
#
# Bulk Modulus (GPa) = 10.22674 11.99938 11.11306
# Shear Modulus (GPa) = 35.49920 37.46787 36.48354
#
# Velocity S-wave (km/s) = 3.56314 3.66060 3.61220
# Velocity P-wave (km/s) = 4.53711 4.70724 4.62296
#
# Compressibility (1/GPa) = 0.09778283
#
# Stress axis : x y z
#
# Youngs Moduli (GPa) = 64.27568 64.27568 37.52501
#
# Poissons Ratio (x) = -0.19474 -0.31857
# Poissons Ratio (y) = -0.19474 -0.31857
# Poissons Ratio (z) = -0.54568 -0.54568
#
# Static dielectric constant tensor:
#      x y z
#    x 2.520850 0.000000 0.000000 
#    y 0.000000 2.520850 0.000000 
#    z 0.000000 0.000000 2.470030 
# 
# From -- ./inp_files/644.got.cif
#   From: 2010.05.17/outbox.cif.g08.bks.cpg/sg170_cif.got.tgz:644.got - 2010.05.20 11:14:30.
