data_PCOD9580525
_publ_section_title
;
Structure prediction by ZEFSAII (Michael W. Deem and Ramdas Pophale) SiO2 
 PCOD9580525
Probable space group: P 62
;
_chemical_formula_sum "Si O2"
_cell_formula_units_Z 45
_cell_length_a 14.582252
_cell_length_b 14.582252
_cell_length_c 12.106394
_cell_angle_alpha 90.000000
_cell_angle_beta 90.000000
_cell_angle_gamma 120.000000
_cell_volume 2229.434070
_symmetry_space_group_name_H-M "P 62"
_symmetry_group_IT_number 171
_symmetry_cell_setting 'hexagonal'
loop_
_space_group_symop_operation_xyz
x,y,z
x-y,x,1/3+z
-y,x-y,2/3+z
-x,-y,z
-x+y,-x,1/3+z
y,-x+y,2/3+z
loop_
_atom_site_type_symbol
_atom_site_label
_atom_site_fract_x
_atom_site_fract_y
_atom_site_fract_z
Si Si1 0.947192 0.651533 0.901790
Si Si2 0.292500 0.525850 0.934949
Si Si3 0.000000 0.000000 0.674420
Si Si4 0.483865 0.888467 0.816158
Si Si5 0.552348 0.925874 0.053293
Si Si6 0.925728 0.109348 0.182313
Si Si7 0.298398 0.403209 0.749304
Si Si8 0.540480 0.260945 0.229357
O O1 0.829130 0.555065 0.904944
O O2 0.947243 0.760605 0.912277
O O3 0.004727 0.665068 0.785346
O O4 0.008590 0.631993 0.000502
O O5 0.351713 0.493473 0.842751
O O6 0.302444 0.640219 0.930744
O O7 0.324762 0.503438 0.053339
O O8 0.906029 0.001177 0.603413
O O9 0.950250 0.893106 0.746701
O O10 0.363472 0.825496 0.858074
O O11 0.500000 0.000000 0.775581
O O12 0.554298 0.902313 0.924463
O O13 0.488121 0.820769 0.127577
O O14 0.500000 0.000000 0.058631
O O15 0.926509 0.215980 0.139305
O O16 0.254664 0.457296 0.661811
#
# Coordination Sequence:
#
# PCOD9580525 Si02
#       8
#     6   6   3   6   6   6   6   6
#     4  10  21  40  64  96 123 166 222 265 320 382
#     4  11  22  42  66  92 131 171 213 271 328 393
#     4  10  20  38  62  88 128 174 204 264 326 388
#     4  11  25  41  59  96 135 169 211 271 336 390
#     4  10  20  40  66  94 123 166 219 274 315 397
#     4  10  20  38  60  91 123 166 217 260 318 384
#     4  10  22  39  64  96 125 164 221 274 313 394
#     4  11  22  42  71  93 122 177 221 266 330 397
#
# _framework density 20.184495999999999
#
# number of rings (size 3 to 8) (size 9 to 14) (size 15 to 20)
#    0.000    1.600    2.667    2.400    5.600    0.000 
#    9.600    4.000    0.000    0.000    0.000    0.000 
#    0.000    0.000    0.000    0.000    0.000    0.000 
#
# Total GULP energy -250671.873116 kJ/mol
# GULP energy per Si atom -5570.486069 kJ/mol
# Density = 2.013856 g / cm^3
# Si number density = 20.184496 Si / 1000 Ang^3
#
#
#
# Elastic Constant Matrix: (Units=GPa)
#
#
# Indices 1 2 3 4 5 6 
#
# 1 41.6866 20.4319 3.2925 0.0000 0.0000 0.0000
# 2 20.4319 41.6866 3.2925 0.0000 0.0000 0.0000
# 3 3.2925 3.2925 68.4708 0.0000 0.0000 0.0000
# 4 0.0000 0.0000 0.0000 16.5927 0.0000 0.0000
# 5 0.0000 0.0000 0.0000 0.0000 16.5927 0.0000
# 6 0.0000 0.0000 0.0000 0.0000 0.0000 10.6273
#
#
#
# Elastic Compliance Matrix: (Units=1/GPa)
#
#
# Indices 1 2 3 4 5 6 
#
# 1 0.031615 -0.015434 -0.000778 0.000000 0.000000 0.000000
# 2 -0.015434 0.031615 -0.000778 0.000000 0.000000 0.000000
# 3 -0.000778 -0.000778 0.014680 0.000000 0.000000 0.000000
# 4 0.000000 0.000000 0.000000 0.060268 0.000000 0.000000
# 5 0.000000 0.000000 0.000000 0.000000 0.060268 0.000000
# 6 0.000000 0.000000 0.000000 0.000000 0.000000 0.094097
#
#
# Mechanical properties :
#
#
# Convention : Reuss Voigt Hill
#
# Bulk Modulus (GPa) = 22.76410 22.87531 22.81970
# Shear Modulus (GPa) = 14.65572 17.08434 15.87003
#
# Velocity S-wave (km/s) = 2.69753 2.91247 2.80705
# Velocity P-wave (km/s) = 4.58309 4.76106 4.67292
#
# Compressibility (1/GPa) = 0.04392881
#
# Stress axis : x y z
#
# Youngs Moduli (GPa) = 31.63096 31.63096 68.12174
#
# Poissons Ratio (x) = 0.48819 0.05300
# Poissons Ratio (y) = 0.48819 0.05300
# Poissons Ratio (z) = 0.02461 0.02461
#
# Static dielectric constant tensor:
#      x y z
#    x 1.745430 0.000000 0.000000 
#    y 0.000000 1.745430 0.000000 
#    z 0.000000 0.000000 1.772110 
# 
# From -- ./inp_files/4722.got.cif
#   From: 2010.05.17/outbox.cif.g08.bks.cpg/sg171_3_cif.got.tgz:4722.got - 2010.05.20 11:16:09.
