data_PCOD9580027
_publ_section_title
;
Structure prediction by ZEFSAII (Michael W. Deem and Ramdas Pophale) SiO2 
 PCOD9580027
Probable space group: P 61
;
_chemical_formula_sum "Si O2"
_cell_formula_units_Z 48
_cell_length_a 18.673842
_cell_length_b 18.673842
_cell_length_c 8.724893
_cell_angle_alpha 90.000000
_cell_angle_beta 90.000000
_cell_angle_gamma 120.000000
_cell_volume 2634.863377
_symmetry_space_group_name_H-M "P 61"
_symmetry_group_IT_number 169
_symmetry_cell_setting 'hexagonal'
loop_
_space_group_symop_operation_xyz
x,y,z
x-y,x,1/6+z
-y,x-y,1/3+z
-x,-y,1/2+z
-x+y,-x,2/3+z
y,-x+y,5/6+z
loop_
_atom_site_type_symbol
_atom_site_label
_atom_site_fract_x
_atom_site_fract_y
_atom_site_fract_z
Si Si1 0.573347 0.060737 0.642280
Si Si2 0.082084 0.339822 0.572105
Si Si3 0.363633 0.653606 0.512799
Si Si4 0.455863 0.895161 0.475149
Si Si5 0.247824 0.457679 0.161376
Si Si6 0.553018 0.732138 0.186948
Si Si7 0.503451 0.840102 0.976565
Si Si8 0.761753 0.655470 0.942118
O O1 0.670104 0.086852 0.639808
O O2 0.552811 0.066642 0.817803
O O3 0.543001 0.115311 0.548848
O O4 0.516413 0.967509 0.586964
O O5 0.111688 0.378258 0.741840
O O6 0.148778 0.315438 0.515225
O O7 0.987896 0.266547 0.571079
O O8 0.328156 0.669064 0.675043
O O9 0.462022 0.703528 0.537403
O O10 0.332709 0.556744 0.516391
O O11 0.497447 0.840543 0.441585
O O12 0.362620 0.842111 0.537620
O O13 0.238736 0.395342 0.293229
O O14 0.187215 0.415504 0.018890
O O15 0.518844 0.785660 0.101253
O O16 0.590359 0.897669 0.894202
#
# Coordination Sequence:
#
# PCOD9580027 Si02
#       8
#     6   6   6   6   6   6   6   6
#     4  11  22  37  59  85 124 169 212 258 306 364
#     4  10  23  43  62  88 119 160 201 259 321 385
#     4  12  24  34  54  82 122 171 220 270 313 355
#     4  11  23  36  55  84 120 167 216 262 302 362
#     4  12  21  38  53  85 119 159 216 260 304 366
#     4  10  23  37  57  84 123 165 215 266 307 355
#     4  11  21  37  55  82 119 166 210 260 304 357
#     4  11  23  42  63  88 120 155 206 259 323 386
#
# _framework density 18.217264
#
# number of rings (size 3 to 8) (size 9 to 14) (size 15 to 20)
#    0.000    1.000    3.750    4.500    3.500    1.000 
#    0.000    0.000    0.000    0.000    0.000    1.750 
#    0.000    0.000    0.000    0.000    0.000    0.000 
#
# Total GULP energy -268072.444198 kJ/mol
# GULP energy per Si atom -5584.842587 kJ/mol
# Density = 1.817580 g / cm^3
# Si number density = 18.217264 Si / 1000 Ang^3
#
#
#
# Elastic Constant Matrix: (Units=GPa)
#
#
# Indices 1 2 3 4 5 6 
#
# 1 87.5643 39.3980 35.3685 0.0000 0.0000 0.0000
# 2 39.3980 87.5643 35.3685 0.0000 0.0000 0.0000
# 3 35.3685 35.3685 88.1626 0.0000 0.0000 0.0000
# 4 0.0000 0.0000 0.0000 26.2082 0.0000 0.0000
# 5 0.0000 0.0000 0.0000 0.0000 26.2082 0.0000
# 6 0.0000 0.0000 0.0000 0.0000 0.0000 24.0831
#
#
#
# Elastic Compliance Matrix: (Units=1/GPa)
#
#
# Indices 1 2 3 4 5 6 
#
# 1 0.015452 -0.005309 -0.004069 0.000000 0.000000 0.000000
# 2 -0.005309 0.015452 -0.004069 0.000000 0.000000 0.000000
# 3 -0.004069 -0.004069 0.014608 0.000000 0.000000 0.000000
# 4 0.000000 0.000000 0.000000 0.038156 0.000000 0.000000
# 5 0.000000 0.000000 0.000000 0.000000 0.038156 0.000000
# 6 0.000000 0.000000 0.000000 0.000000 0.000000 0.041523
#
#
# Mechanical properties :
#
#
# Convention : Reuss Voigt Hill
#
# Bulk Modulus (GPa) = 53.71283 53.72900 53.72092
# Shear Modulus (GPa) = 25.45197 25.51033 25.48115
#
# Velocity S-wave (km/s) = 3.74188 3.74617 3.74403
# Velocity P-wave (km/s) = 6.94388 6.94760 6.94574
#
# Compressibility (1/GPa) = 0.01861752
#
# Stress axis : x y z
#
# Youngs Moduli (GPa) = 64.71445 64.71445 68.45712
#
# Poissons Ratio (x) = 0.34356 0.27857
# Poissons Ratio (y) = 0.34356 0.27857
# Poissons Ratio (z) = 0.26334 0.26334
#
# Static dielectric constant tensor:
#      x y z
#    x 1.653070 0.000000 0.000000 
#    y 0.000000 1.653070 0.000000 
#    z 0.000000 0.000000 1.673460 
# 
# From -- ./inp_files/761.got.cif
#   From: 2010.05.17/outbox.cif.g08.bks.cpg/sg169_cif.got.tgz:761.got - 2010.05.20 11:12:54.
