data_PCOD9580139
_publ_section_title
;
Structure prediction by ZEFSAII (Michael W. Deem and Ramdas Pophale) SiO2 
 PCOD9580139
Probable space group: P 61
;
_chemical_formula_sum "Si O2"
_cell_formula_units_Z 18
_cell_length_a 12.276835
_cell_length_b 12.276835
_cell_length_c 5.293369
_cell_angle_alpha 90.000000
_cell_angle_beta 90.000000
_cell_angle_gamma 120.000000
_cell_volume 690.932528
_symmetry_space_group_name_H-M "P 61"
_symmetry_group_IT_number 169
_symmetry_cell_setting 'hexagonal'
loop_
_space_group_symop_operation_xyz
x,y,z
x-y,x,1/6+z
-y,x-y,1/3+z
-x,-y,1/2+z
-x+y,-x,2/3+z
y,-x+y,5/6+z
loop_
_atom_site_type_symbol
_atom_site_label
_atom_site_fract_x
_atom_site_fract_y
_atom_site_fract_z
Si Si1 0.663707 0.052854 0.236140
Si Si2 0.319533 0.548373 0.859820
Si Si3 0.027271 0.254668 0.562403
O O1 0.702301 0.199920 0.223102
O O2 0.671902 0.015821 0.523650
O O3 0.540441 0.920633 0.149589
O O4 0.760246 0.064135 0.014079
O O5 0.253413 0.570904 0.621855
O O6 0.128735 0.230723 0.428699
#
# Coordination Sequence:
#
# PCOD9580139 Si02
#       3
#     6   6   6
#     4  12  28  54  80 118 170 212 289 339 424 504
#     4  12  32  52  86 120 164 232 280 358 430 510
#     4  12  24  48  82 120 166 222 269 349 420 502
#
# _framework density 26.051748
#
# number of rings (size 3 to 8) (size 9 to 14) (size 15 to 20)
#    0.000    0.000    6.667    0.000   14.000    2.667 
#    0.000    0.000    0.000    0.000    0.000    0.000 
#    0.000    0.000    0.000    0.000    0.000    0.000 
#
# Total GULP energy -100467.670513 kJ/mol
# GULP energy per Si atom -5581.537251 kJ/mol
# Density = 2.599245 g / cm^3
# Si number density = 26.051748 Si / 1000 Ang^3
#
#
#
# Elastic Constant Matrix: (Units=GPa)
#
#
# Indices 1 2 3 4 5 6 
#
# 1 76.9788 90.1535 25.3990 0.0000 0.0000 0.0000
# 2 90.1535 76.9788 25.3990 0.0000 0.0000 0.0000
# 3 25.3990 25.3990 120.4668 0.0000 0.0000 0.0000
# 4 0.0000 0.0000 0.0000 49.7289 0.0000 0.0000
# 5 0.0000 0.0000 0.0000 0.0000 49.7289 0.0000
# 6 0.0000 0.0000 0.0000 0.0000 0.0000 -6.5874
#
#
#
# Elastic Compliance Matrix: (Units=1/GPa)
#
#
# Indices 1 2 3 4 5 6 
#
# 1 -0.034755 0.041148 -0.001348 0.000000 0.000000 0.000000
# 2 0.041148 -0.034755 -0.001348 0.000000 0.000000 0.000000
# 3 -0.001348 -0.001348 0.008869 0.000000 0.000000 0.000000
# 4 0.000000 0.000000 0.000000 0.020109 0.000000 0.000000
# 5 0.000000 0.000000 0.000000 0.000000 0.020109 0.000000
# 6 0.000000 0.000000 0.000000 0.000000 0.000000 -0.151806
#
#
# Mechanical properties :
#
#
# Convention : Reuss Voigt Hill
#
# Bulk Modulus (GPa) = 61.48623 61.81417 61.65020
# Shear Modulus (GPa) = -20.51607 27.47227 3.47810
#
# Velocity S-wave (km/s) = -2.80931 3.25087 1.15671
# Velocity P-wave (km/s) = 3.62351 6.15385 5.04974
#
# Compressibility (1/GPa) = 0.01626380
#
# Stress axis : x y z
#
# Youngs Moduli (GPa) = -28.77286 -28.77286 112.74703
#
# Poissons Ratio (x) = 1.18394 0.15197
# Poissons Ratio (y) = 1.18394 0.15197
# Poissons Ratio (z) = -0.03878 -0.03878
#
# Static dielectric constant tensor:
#      x y z
#    x 2.153380 0.000000 0.000000 
#    y 0.000000 2.153380 0.000000 
#    z 0.000000 0.000000 2.071870 
# 
# From -- ./inp_files/37.got.cif
#   From: 2010.05.17/outbox.cif.g08.bks.cpg/sg169_cif.got.tgz:37.got - 2010.05.20 11:12:54.
