data_PCOD9580039
_publ_section_title
;
Structure prediction by ZEFSAII (Michael W. Deem and Ramdas Pophale) SiO2 
 PCOD9580039
Probable space group: P 61
;
_chemical_formula_sum "Si O2"
_cell_formula_units_Z 48
_cell_length_a 17.167741
_cell_length_b 17.167741
_cell_length_c 8.621523
_cell_angle_alpha 90.000000
_cell_angle_beta 90.000000
_cell_angle_gamma 120.000000
_cell_volume 2200.599086
_symmetry_space_group_name_H-M "P 61"
_symmetry_group_IT_number 169
_symmetry_cell_setting 'hexagonal'
loop_
_space_group_symop_operation_xyz
x,y,z
x-y,x,1/6+z
-y,x-y,1/3+z
-x,-y,1/2+z
-x+y,-x,2/3+z
y,-x+y,5/6+z
loop_
_atom_site_type_symbol
_atom_site_label
_atom_site_fract_x
_atom_site_fract_y
_atom_site_fract_z
Si Si1 0.097929 0.915437 0.914470
Si Si2 0.829185 0.973039 0.097678
Si Si3 0.620071 0.823639 0.711162
Si Si4 0.696200 0.650438 0.146111
Si Si5 0.878944 0.413311 0.973534
Si Si6 0.740988 0.435017 0.376063
Si Si7 0.451590 0.678329 0.536035
Si Si8 0.319446 0.883356 0.305449
O O1 0.147233 0.968494 0.756390
O O2 0.992194 0.864727 0.877498
O O3 0.129379 0.845255 0.960957
O O4 0.850998 0.894126 0.134651
O O5 0.725753 0.936228 0.053365
O O6 0.613693 0.894675 0.823556
O O7 0.536972 0.769933 0.595905
O O8 0.610395 0.746485 0.829129
O O9 0.632426 0.567621 0.254694
O O10 0.639097 0.695551 0.093433
O O11 0.795675 0.337337 0.070691
O O12 0.832743 0.432329 0.823923
O O13 0.925420 0.504847 0.072012
O O14 0.805743 0.464759 0.525393
O O15 0.695071 0.327867 0.361084
O O16 0.792533 0.491599 0.224807
#
# Coordination Sequence:
#
# PCOD9580039 Si02
#       8
#     6   6   6   6   6   6   6   6
#     4  10  23  47  70 102 135 176 232 291 358 440
#     4  10  24  48  72 105 137 183 235 293 364 439
#     4  11  24  44  67 100 136 181 229 286 356 422
#     4  12  25  43  69  97 147 178 231 293 364 421
#     4  11  23  43  63  98 137 174 236 287 337 423
#     4  12  21  40  67  98 129 180 240 283 332 405
#     4  11  23  38  72  96 135 183 233 289 335 408
#     4  11  25  43  66  98 134 189 232 280 352 424
#
# _framework density 21.812241
#
# number of rings (size 3 to 8) (size 9 to 14) (size 15 to 20)
#    0.000    1.000    3.750    2.250    1.750    3.000 
#   15.750    0.000    0.000    0.000    0.000    0.000 
#    0.000    0.000    0.000    0.000    0.000    0.000 
#
# Total GULP energy -268387.194068 kJ/mol
# GULP energy per Si atom -5591.399876 kJ/mol
# Density = 2.176260 g / cm^3
# Si number density = 21.812241 Si / 1000 Ang^3
#
#
#
# Elastic Constant Matrix: (Units=GPa)
#
#
# Indices 1 2 3 4 5 6 
#
# 1 63.2760 11.1877 2.4367 0.0000 0.0000 0.0000
# 2 11.1877 63.2760 2.4367 0.0000 0.0000 0.0000
# 3 2.4367 2.4367 50.9840 0.0000 0.0000 0.0000
# 4 0.0000 0.0000 0.0000 30.5148 0.0000 0.0000
# 5 0.0000 0.0000 0.0000 0.0000 30.5148 0.0000
# 6 0.0000 0.0000 0.0000 0.0000 0.0000 26.0442
#
#
#
# Elastic Compliance Matrix: (Units=1/GPa)
#
#
# Indices 1 2 3 4 5 6 
#
# 1 0.016335 -0.002863 -0.000644 0.000000 0.000000 0.000000
# 2 -0.002863 0.016335 -0.000644 0.000000 0.000000 0.000000
# 3 -0.000644 -0.000644 0.019676 0.000000 0.000000 0.000000
# 4 0.000000 0.000000 0.000000 0.032771 0.000000 0.000000
# 5 0.000000 0.000000 0.000000 0.000000 0.032771 0.000000
# 6 0.000000 0.000000 0.000000 0.000000 0.000000 0.038396
#
#
# Mechanical properties :
#
#
# Convention : Reuss Voigt Hill
#
# Bulk Modulus (GPa) = 22.70499 23.29533 23.00016
# Shear Modulus (GPa) = 27.89143 28.17976 28.03560
#
# Velocity S-wave (km/s) = 3.57978 3.59823 3.58902
# Velocity P-wave (km/s) = 5.24579 5.28831 5.26709
#
# Compressibility (1/GPa) = 0.04404319
#
# Stress axis : x y z
#
# Youngs Moduli (GPa) = 61.21887 61.21887 50.82455
#
# Poissons Ratio (x) = 0.17529 0.03272
# Poissons Ratio (y) = 0.17529 0.03272
# Poissons Ratio (z) = 0.03942 0.03942
#
# Static dielectric constant tensor:
#      x y z
#    x 1.778230 0.000000 0.000000 
#    y 0.000000 1.778230 0.000000 
#    z 0.000000 0.000000 1.843480 
# 
# From -- ./inp_files/743.got.cif
#   From: 2010.05.17/outbox.cif.g08.bks.cpg/sg169_cif.got.tgz:743.got - 2010.05.20 11:12:54.
