data_PCOD9580240
_publ_section_title
;
Structure prediction by ZEFSAII (Michael W. Deem and Ramdas Pophale) SiO2 
 PCOD9580240
Probable space group: P 65
;
_chemical_formula_sum "Si O2"
_cell_formula_units_Z 48
_cell_length_a 11.322230
_cell_length_b 11.322230
_cell_length_c 21.620032
_cell_angle_alpha 90.000000
_cell_angle_beta 90.000000
_cell_angle_gamma 120.000000
_cell_volume 2400.219225
_symmetry_space_group_name_H-M "P 65"
_symmetry_group_IT_number 170
_symmetry_cell_setting 'hexagonal'
loop_
_space_group_symop_operation_xyz
x,y,z
x-y,x,5/6+z
-y,x-y,2/3+z
-x,-y,1/2+z
-x+y,-x,1/3+z
y,-x+y,1/6+z
loop_
_atom_site_type_symbol
_atom_site_label
_atom_site_fract_x
_atom_site_fract_y
_atom_site_fract_z
Si Si1 0.087027 0.630681 0.397850
Si Si2 0.265485 0.660046 0.565950
Si Si3 0.770892 0.676093 0.687908
Si Si4 0.756182 0.942833 0.984172
Si Si5 0.617105 0.027592 0.324978
Si Si6 0.899461 0.213710 0.286196
Si Si7 0.543724 0.392759 0.985055
Si Si8 0.390786 0.724372 0.364612
O O1 0.045913 0.686905 0.458138
O O2 0.247982 0.717243 0.383239
O O3 0.062295 0.488279 0.425992
O O4 0.982581 0.593542 0.341197
O O5 0.238218 0.777290 0.539138
O O6 0.400487 0.669942 0.536960
O O7 0.274530 0.650103 0.638922
O O8 0.134189 0.522908 0.539790
O O9 0.724799 0.702734 0.754423
O O10 0.916533 0.802524 0.671356
O O11 0.782044 0.820723 0.968310
O O12 0.665772 0.894196 0.045597
O O13 0.509430 0.874407 0.343860
O O14 0.774444 0.075479 0.314053
O O15 0.890809 0.339940 0.313635
O O16 0.551205 0.324248 0.921184
#
# Coordination Sequence:
#
# PCOD9580240 Si02
#       8
#     6   6   6   6   6   6   6   6
#     4  11  23  40  63  95 139 168 216 285 336 405
#     4  10  22  37  63  94 130 166 218 277 328 389
#     4  10  22  38  60  97 123 172 215 272 330 387
#     4  10  22  35  67  93 124 167 219 280 318 392
#     4  10  22  41  65  92 137 172 211 277 344 397
#     4  10  20  39  66 100 128 162 226 277 323 391
#     4  11  22  40  62  99 126 178 216 271 349 391
#     4  12  23  42  66  96 131 179 223 275 344 408
#
# _framework density 19.998172
#
# number of rings (size 3 to 8) (size 9 to 14) (size 15 to 20)
#    0.000    1.500    5.000    1.500    8.750    0.000 
#    2.250    0.000   11.000    0.000    0.000    0.000 
#    0.000    0.000    0.000    0.000    0.000    0.000 
#
# Total GULP energy -267467.242120 kJ/mol
# GULP energy per Si atom -5572.234211 kJ/mol
# Density = 1.995266 g / cm^3
# Si number density = 19.998172 Si / 1000 Ang^3
#
#
#
# Elastic Constant Matrix: (Units=GPa)
#
#
# Indices 1 2 3 4 5 6 
#
# 1 60.2372 20.1049 20.4378 0.0000 0.0000 0.0000
# 2 20.1049 60.2372 20.4378 0.0000 0.0000 0.0000
# 3 20.4378 20.4378 118.5079 0.0000 0.0000 0.0000
# 4 0.0000 0.0000 0.0000 30.4561 0.0000 0.0000
# 5 0.0000 0.0000 0.0000 0.0000 30.4561 0.0000
# 6 0.0000 0.0000 0.0000 0.0000 0.0000 20.0661
#
#
#
# Elastic Compliance Matrix: (Units=1/GPa)
#
#
# Indices 1 2 3 4 5 6 
#
# 1 0.019281 -0.005637 -0.002353 0.000000 0.000000 0.000000
# 2 -0.005637 0.019281 -0.002353 0.000000 0.000000 0.000000
# 3 -0.002353 -0.002353 0.009250 0.000000 0.000000 0.000000
# 4 0.000000 0.000000 0.000000 0.032834 0.000000 0.000000
# 5 0.000000 0.000000 0.000000 0.000000 0.032834 0.000000
# 6 0.000000 0.000000 0.000000 0.000000 0.000000 0.049835
#
#
# Mechanical properties :
#
#
# Convention : Reuss Voigt Hill
#
# Bulk Modulus (GPa) = 36.86552 40.10480 38.48516
# Shear Modulus (GPa) = 25.90101 28.06243 26.98172
#
# Velocity S-wave (km/s) = 3.60275 3.75006 3.67714
# Velocity P-wave (km/s) = 5.98171 6.23285 6.10857
#
# Compressibility (1/GPa) = 0.02712562
#
# Stress axis : x y z
#
# Youngs Moduli (GPa) = 51.86513 51.86513 108.10982
#
# Poissons Ratio (x) = 0.29236 0.25438
# Poissons Ratio (y) = 0.29236 0.25438
# Poissons Ratio (z) = 0.12204 0.12204
#
# Static dielectric constant tensor:
#      x y z
#    x 1.743980 0.000000 0.000000 
#    y 0.000000 1.743980 0.000000 
#    z 0.000000 0.000000 1.756400 
# 
# From -- ./inp_files/1602.got.cif
#   From: 2010.05.17/outbox.cif.g08.bks.cpg/sg170_cif.got.tgz:1602.got - 2010.05.20 11:14:30.
