data_PCOD9580722
_publ_section_title
;
Structure prediction by ZEFSAII (Michael W. Deem and Ramdas Pophale) SiO2 
 PCOD9580722
Probable space group: P 62
;
_chemical_formula_sum "Si O2"
_cell_formula_units_Z 36
_cell_length_a 11.639247
_cell_length_b 11.639247
_cell_length_c 13.557539
_cell_angle_alpha 90.000000
_cell_angle_beta 90.000000
_cell_angle_gamma 120.000000
_cell_volume 1590.601044
_symmetry_space_group_name_H-M "P 62"
_symmetry_group_IT_number 171
_symmetry_cell_setting 'hexagonal'
loop_
_space_group_symop_operation_xyz
x,y,z
x-y,x,1/3+z
-y,x-y,2/3+z
-x,-y,z
-x+y,-x,1/3+z
y,-x+y,2/3+z
loop_
_atom_site_type_symbol
_atom_site_label
_atom_site_fract_x
_atom_site_fract_y
_atom_site_fract_z
Si Si1 0.500000 0.000000 0.562031
Si Si2 0.500000 0.000000 0.237797
Si Si3 0.561637 0.342897 0.739553
Si Si4 0.500000 0.500000 0.224043
Si Si5 0.119260 0.189399 0.355434
Si Si6 0.299120 0.346648 0.066119
Si Si7 0.000000 0.000000 0.844903
Si Si8 0.674096 0.503089 0.392756
O O1 0.437283 0.868945 0.495024
O O2 0.604161 0.991639 0.634280
O O3 0.597872 0.121277 0.310603
O O4 0.464750 0.082399 0.158514
O O5 0.437819 0.199661 0.757155
O O6 0.685074 0.314391 0.739074
O O7 0.403110 0.377492 0.154602
O O8 0.576338 0.456772 0.298947
O O9 0.215858 0.347153 0.360524
O O10 0.981539 0.182416 0.381840
O O11 0.098121 0.118509 0.251522
O O12 0.125241 0.097884 0.442116
#
# Coordination Sequence:
#
# PCOD9580722 Si02
#       8
#     3   3   6   3   6   6   3   6
#     4  10  24  44  64 106 144 186 226 300 356 436
#     4  10  26  46  66 112 144 192 230 298 368 432
#     4  11  25  44  71 103 149 182 239 296 367 438
#     4  10  24  40  64 102 134 178 230 286 354 428
#     4  11  25  45  73 100 138 189 240 298 365 434
#     4  11  24  40  71 102 134 186 233 288 360 429
#     4  10  26  50  66 100 142 186 246 300 356 436
#     4  11  24  44  73 101 143 188 237 296 365 436
#
# _framework density 22.632954000000002
#
# number of rings (size 3 to 8) (size 9 to 14) (size 15 to 20)
#    0.000    1.333    0.000    4.000   14.000    0.000 
#    0.000    0.000    0.000    0.000    0.000    0.000 
#    0.000    0.000    0.000    0.000    0.000    0.000 
#
# Total GULP energy -200651.915734 kJ/mol
# GULP energy per Si atom -5573.664326 kJ/mol
# Density = 2.258144 g / cm^3
# Si number density = 22.632954 Si / 1000 Ang^3
#
#
#
# Elastic Constant Matrix: (Units=GPa)
#
#
# Indices 1 2 3 4 5 6 
#
# 1 82.4078 25.4088 26.2287 0.0000 0.0000 0.0000
# 2 25.4088 82.4078 26.2287 0.0000 0.0000 0.0000
# 3 26.2287 26.2287 148.4170 0.0000 0.0000 0.0000
# 4 0.0000 0.0000 0.0000 150.3545 0.0000 0.0000
# 5 0.0000 0.0000 0.0000 0.0000 150.3545 0.0000
# 6 0.0000 0.0000 0.0000 0.0000 0.0000 28.4995
#
#
#
# Elastic Compliance Matrix: (Units=1/GPa)
#
#
# Indices 1 2 3 4 5 6 
#
# 1 0.013846 -0.003698 -0.001793 0.000000 0.000000 0.000000
# 2 -0.003698 0.013846 -0.001793 0.000000 0.000000 0.000000
# 3 -0.001793 -0.001793 0.007372 0.000000 0.000000 0.000000
# 4 0.000000 0.000000 0.000000 0.006651 0.000000 0.000000
# 5 0.000000 0.000000 0.000000 0.000000 0.006651 0.000000
# 6 0.000000 0.000000 0.000000 0.000000 0.000000 0.035088
#
#
# Mechanical properties :
#
#
# Convention : Reuss Voigt Hill
#
# Bulk Modulus (GPa) = 48.79606 52.10722 50.45164
# Shear Modulus (GPa) = 47.68512 81.53280 64.60896
#
# Velocity S-wave (km/s) = 4.59507 6.00851 5.34868
# Velocity P-wave (km/s) = 7.05403 8.43854 7.77715
#
# Compressibility (1/GPa) = 0.02049346
#
# Stress axis : x y z
#
# Youngs Moduli (GPa) = 72.22382 72.22382 135.65564
#
# Poissons Ratio (x) = 0.26711 0.24327
# Poissons Ratio (y) = 0.26711 0.24327
# Poissons Ratio (z) = 0.12952 0.12952
#
# Static dielectric constant tensor:
#      x y z
#    x 0.177140 0.000000 0.000000 
#    y 0.000000 0.177140 0.000000 
#    z 0.000000 0.000000 1.862760 
# 
# From -- ./inp_files/1979.got.cif
#   From: 2010.05.17/outbox.cif.g08.bks.cpg/sg171_1_cif.got.tgz:1979.got - 2010.05.20 11:16:09.
