data_PCOD9580489
_publ_section_title
;
Structure prediction by ZEFSAII (Michael W. Deem and Ramdas Pophale) SiO2 
 PCOD9580489
Probable space group: P 62
;
_chemical_formula_sum "Si O2"
_cell_formula_units_Z 27
_cell_length_a 16.374066
_cell_length_b 16.374066
_cell_length_c 4.816715
_cell_angle_alpha 90.000000
_cell_angle_beta 90.000000
_cell_angle_gamma 120.000000
_cell_volume 1118.393554
_symmetry_space_group_name_H-M "P 62"
_symmetry_group_IT_number 171
_symmetry_cell_setting 'hexagonal'
loop_
_space_group_symop_operation_xyz
x,y,z
x-y,x,1/3+z
-y,x-y,2/3+z
-x,-y,z
-x+y,-x,1/3+z
y,-x+y,2/3+z
loop_
_atom_site_type_symbol
_atom_site_label
_atom_site_fract_x
_atom_site_fract_y
_atom_site_fract_z
Si Si1 0.379696 0.475696 0.722580
Si Si2 0.500000 0.500000 0.182614
Si Si3 0.211208 0.824064 0.110048
Si Si4 0.669717 0.725019 0.978711
Si Si5 0.867917 0.816354 0.773355
O O1 0.419355 0.480709 0.416717
O O2 0.279885 0.472182 0.728972
O O3 0.349504 0.374021 0.860466
O O4 0.459561 0.543767 0.939919
O O5 0.293357 0.905114 0.927441
O O6 0.226533 0.859937 0.423949
O O7 0.123748 0.835358 0.992605
O O8 0.783413 0.788980 0.995782
O O9 0.859695 0.888812 0.570084
#
# Coordination Sequence:
#
# PCOD9580489 Si02
#       5
#     6   3   6   6   6
#     4  10  20  35  55  82 114 134 172 226 266 334
#     4  10  20  34  56  82 112 130 154 218 292 314
#     4  10  20  35  54  75 107 146 188 225 271 315
#     4  10  20  35  54  75 107 146 188 225 271 315
#     4   9  20  35  48  67 103 154 204 250 273 295
#
# _framework density 24.141773000000001
#
# number of rings (size 3 to 8) (size 9 to 14) (size 15 to 20)
#    0.000    2.222    0.000    2.667    0.000   14.222 
#    0.000   10.000    0.000    0.000    0.000    0.000 
#  280.000    0.000    0.000    0.000    0.000    0.000 
#
# Total GULP energy -150321.527240 kJ/mol
# GULP energy per Si atom -5567.463972 kJ/mol
# Density = 2.408683 g / cm^3
# Si number density = 24.141773 Si / 1000 Ang^3
#
#
#
# Elastic Constant Matrix: (Units=GPa)
#
#
# Indices 1 2 3 4 5 6 
#
# 1 55.1129 -14.1754 7.2617 0.0000 0.0000 0.0000
# 2 -14.1754 55.1129 7.2617 0.0000 0.0000 0.0000
# 3 7.2617 7.2617 132.0812 0.0000 0.0000 0.0000
# 4 0.0000 0.0000 0.0000 33.5769 0.0000 0.0000
# 5 0.0000 0.0000 0.0000 0.0000 33.5769 0.0000
# 6 0.0000 0.0000 0.0000 0.0000 0.0000 34.6442
#
#
#
# Elastic Compliance Matrix: (Units=1/GPa)
#
#
# Indices 1 2 3 4 5 6 
#
# 1 0.019673 0.005241 -0.001370 0.000000 0.000000 0.000000
# 2 0.005241 0.019673 -0.001370 0.000000 0.000000 0.000000
# 3 -0.001370 -0.001370 0.007722 0.000000 0.000000 0.000000
# 4 0.000000 0.000000 0.000000 0.029782 0.000000 0.000000
# 5 0.000000 0.000000 0.000000 0.000000 0.029782 0.000000
# 6 0.000000 0.000000 0.000000 0.000000 0.000000 0.028865
#
#
# Mechanical properties :
#
#
# Convention : Reuss Voigt Hill
#
# Bulk Modulus (GPa) = 19.20502 27.00034 23.10268
# Shear Modulus (GPa) = 33.81765 36.49018 35.15391
#
# Velocity S-wave (km/s) = 3.74678 3.89201 3.82009
# Velocity P-wave (km/s) = 5.16625 5.60405 5.38960
#
# Compressibility (1/GPa) = 0.05206973
#
# Stress axis : x y z
#
# Youngs Moduli (GPa) = 50.83121 50.83121 129.50494
#
# Poissons Ratio (x) = -0.26638 0.17739
# Poissons Ratio (y) = -0.26638 0.17739
# Poissons Ratio (z) = 0.06962 0.06962
#
# Static dielectric constant tensor:
#      x y z
#    x 2.338770 0.000000 0.000000 
#    y 0.000000 2.338770 0.000000 
#    z 0.000000 0.000000 2.033770 
# 
# From -- ./inp_files/282.got.cif
#   From: 2010.05.17/outbox.cif.g08.bks.cpg/sg171_1_cif.got.tgz:282.got - 2010.05.20 11:16:09.
