data_PCOD9580906
_publ_section_title
;
Structure prediction by ZEFSAII (Michael W. Deem and Ramdas Pophale) SiO2 
 PCOD9580906
Probable space group: P 64
;
_chemical_formula_sum "Si O2"
_cell_formula_units_Z 36
_cell_length_a 9.086452
_cell_length_b 9.086452
_cell_length_c 23.921151
_cell_angle_alpha 90.000000
_cell_angle_beta 90.000000
_cell_angle_gamma 120.000000
_cell_volume 1710.414532
_symmetry_space_group_name_H-M "P 64"
_symmetry_group_IT_number 172
_symmetry_cell_setting 'hexagonal'
loop_
_space_group_symop_operation_xyz
x,y,z
x-y,x,2/3+z
-y,x-y,1/3+z
-x,-y,z
-x+y,-x,2/3+z
y,-x+y,1/3+z
loop_
_atom_site_type_symbol
_atom_site_label
_atom_site_fract_x
_atom_site_fract_y
_atom_site_fract_z
Si Si1 0.510821 0.328134 0.298500
Si Si2 0.314239 0.478853 0.464436
Si Si3 0.680714 0.517203 0.593918
Si Si4 0.867342 0.040683 0.759421
Si Si5 0.013867 0.843210 0.631853
Si Si6 0.485300 0.818154 0.421397
O O1 0.500000 0.500000 0.299444
O O2 0.674819 0.343706 0.268656
O O3 0.521787 0.266243 0.361240
O O4 0.339362 0.171805 0.273476
O O5 0.500000 0.500000 0.452889
O O6 0.277385 0.432474 0.529036
O O7 0.191956 0.318276 0.426509
O O8 0.329994 0.660242 0.452714
O O9 0.500000 0.500000 0.608210
O O10 0.839189 0.664990 0.627599
O O11 0.853735 0.195400 0.785663
O O12 0.935457 0.106884 0.697008
O O13 0.000000 0.000000 0.788014
O O14 0.000000 0.000000 0.607361
O O15 0.500000 0.000000 0.415484
#
# Coordination Sequence:
#
# PCOD9580906 Si02
#       6
#     6   6   6   6   6   6
#     4  11  21  37  61  86 115 155 200 250 301 357
#     4   9  20  38  58  81 118 158 194 240 303 361
#     4  11  23  38  57  88 124 158 197 248 304 363
#     4   9  18  36  59  83 110 146 192 240 290 353
#     4  10  20  37  61  88 116 151 196 246 294 355
#     4  10  19  36  60  84 111 150 198 248 295 355
#
# _framework density 21.047529999999998
#
# number of rings (size 3 to 8) (size 9 to 14) (size 15 to 20)
#    0.000    2.000    0.000    6.000    0.000    2.667 
#    0.000    7.500    0.000    0.000    0.000    0.000 
#    0.000    0.000    0.000    0.000    0.000    0.000 
#
# Total GULP energy -200665.661776 kJ/mol
# GULP energy per Si atom -5574.046160 kJ/mol
# Density = 2.099963 g / cm^3
# Si number density = 21.047530 Si / 1000 Ang^3
#
#
#
# Elastic Constant Matrix: (Units=GPa)
#
#
# Indices 1 2 3 4 5 6 
#
# 1 164.5146 82.8815 21.6570 0.0000 0.0000 0.0000
# 2 82.8815 164.5146 21.6570 0.0000 0.0000 0.0000
# 3 21.6570 21.6570 40.5257 0.0000 0.0000 0.0000
# 4 0.0000 0.0000 0.0000 11.6049 0.0000 0.0000
# 5 0.0000 0.0000 0.0000 0.0000 11.6049 0.0000
# 6 0.0000 0.0000 0.0000 0.0000 0.0000 40.8165
#
#
#
# Elastic Compliance Matrix: (Units=1/GPa)
#
#
# Indices 1 2 3 4 5 6 
#
# 1 0.008355 -0.003895 -0.002383 0.000000 0.000000 0.000000
# 2 -0.003895 0.008355 -0.002383 0.000000 0.000000 0.000000
# 3 -0.002383 -0.002383 0.027223 0.000000 0.000000 0.000000
# 4 0.000000 0.000000 0.000000 0.086171 0.000000 0.000000
# 5 0.000000 0.000000 0.000000 0.000000 0.086171 0.000000
# 6 0.000000 0.000000 0.000000 0.000000 0.000000 0.024500
#
#
# Mechanical properties :
#
#
# Convention : Reuss Voigt Hill
#
# Bulk Modulus (GPa) = 37.58116 69.10510 53.34313
# Shear Modulus (GPa) = 18.72897 29.02921 23.87909
#
# Velocity S-wave (km/s) = 2.98626 3.71782 3.37194
# Velocity P-wave (km/s) = 5.45751 7.16475 6.36860
#
# Compressibility (1/GPa) = 0.02660908
#
# Stress axis : x y z
#
# Youngs Moduli (GPa) = 119.69410 119.69410 36.73404
#
# Poissons Ratio (x) = 0.46624 0.08754
# Poissons Ratio (y) = 0.46624 0.08754
# Poissons Ratio (z) = 0.28524 0.28524
#
# Static dielectric constant tensor:
#      x y z
#    x 1.830030 0.000000 0.000000 
#    y 0.000000 1.830030 0.000000 
#    z 0.000000 0.000000 1.806470 
# 
# From -- ./inp_files/2808.got.cif
#   From: 2010.05.17/outbox.cif.g08.bks.cpg/sg172_2_cif.got.tgz:2808.got - 2010.05.20 11:19:57.
