data_PCOD9580377
_publ_section_title
;
Structure prediction by ZEFSAII (Michael W. Deem and Ramdas Pophale) SiO2 
 PCOD9580377
Probable space group: P 65
;
_chemical_formula_sum "Si O2"
_cell_formula_units_Z 36
_cell_length_a 11.949339
_cell_length_b 11.949339
_cell_length_c 13.589186
_cell_angle_alpha 90.000000
_cell_angle_beta 90.000000
_cell_angle_gamma 120.000000
_cell_volume 1680.396774
_symmetry_space_group_name_H-M "P 65"
_symmetry_group_IT_number 170
_symmetry_cell_setting 'hexagonal'
loop_
_space_group_symop_operation_xyz
x,y,z
x-y,x,5/6+z
-y,x-y,2/3+z
-x,-y,1/2+z
-x+y,-x,1/3+z
y,-x+y,1/6+z
loop_
_atom_site_type_symbol
_atom_site_label
_atom_site_fract_x
_atom_site_fract_y
_atom_site_fract_z
Si Si1 0.977897 0.527477 0.380570
Si Si2 0.864472 0.520542 0.185478
Si Si3 0.014023 0.827779 0.698156
Si Si4 0.640520 0.375896 0.570027
Si Si5 0.549707 0.623367 0.773929
Si Si6 0.394832 0.171087 0.687038
O O1 0.129856 0.611258 0.355763
O O2 0.891985 0.549269 0.300612
O O3 0.951559 0.559787 0.489779
O O4 0.932681 0.374647 0.372580
O O5 0.731648 0.383459 0.173673
O O6 0.849402 0.624990 0.122905
O O7 0.979709 0.498637 0.148950
O O8 0.124021 0.842662 0.775067
O O9 0.916968 0.846691 0.768771
O O10 0.955920 0.682398 0.657841
O O11 0.776518 0.450504 0.624786
O O12 0.517848 0.293731 0.638798
#
# Coordination Sequence:
#
# PCOD9580377 Si02
#       6
#     6   6   6   6   6   6
#     4  11  23  38  62 104 144 191 234 303 372 435
#     4  11  25  39  68 101 152 189 234 304 373 442
#     4  12  28  51  78 106 141 207 267 315 375 469
#     4  11  23  40  63 101 146 179 247 297 360 448
#     4  12  24  39  72 104 148 195 240 312 379 451
#     4  11  23  43  69 104 143 189 244 301 371 451
#
# _framework density 21.423511999999999
#
# number of rings (size 3 to 8) (size 9 to 14) (size 15 to 20)
#    0.000    0.667    6.667    2.000    2.333    0.000 
#    0.000    3.333    0.000    0.000    0.000    0.000 
#    0.000    0.000    0.000    0.000    0.000    0.000 
#
# Total GULP energy -201235.757352 kJ/mol
# GULP energy per Si atom -5589.882149 kJ/mol
# Density = 2.137475 g / cm^3
# Si number density = 21.423512 Si / 1000 Ang^3
#
#
#
# Elastic Constant Matrix: (Units=GPa)
#
#
# Indices 1 2 3 4 5 6 
#
# 1 65.3965 32.5595 12.2072 0.0000 0.0000 0.0000
# 2 32.5595 65.3965 12.2072 0.0000 0.0000 0.0000
# 3 12.2072 12.2072 104.3512 0.0000 0.0000 0.0000
# 4 0.0000 0.0000 0.0000 38.4236 0.0000 0.0000
# 5 0.0000 0.0000 0.0000 0.0000 38.4236 0.0000
# 6 0.0000 0.0000 0.0000 0.0000 0.0000 16.4185
#
#
#
# Elastic Compliance Matrix: (Units=1/GPa)
#
#
# Indices 1 2 3 4 5 6 
#
# 1 0.020484 -0.009969 -0.001230 0.000000 0.000000 0.000000
# 2 -0.009969 0.020484 -0.001230 0.000000 0.000000 0.000000
# 3 -0.001230 -0.001230 0.009871 0.000000 0.000000 0.000000
# 4 0.000000 0.000000 0.000000 0.026026 0.000000 0.000000
# 5 0.000000 0.000000 0.000000 0.000000 0.026026 0.000000
# 6 0.000000 0.000000 0.000000 0.000000 0.000000 0.060907
#
#
# Mechanical properties :
#
#
# Convention : Reuss Voigt Hill
#
# Bulk Modulus (GPa) = 38.48976 38.78802 38.63889
# Shear Modulus (GPa) = 25.33996 30.53116 27.93556
#
# Velocity S-wave (km/s) = 3.44293 3.77918 3.61497
# Velocity P-wave (km/s) = 5.81465 6.09816 5.95809
#
# Compressibility (1/GPa) = 0.02598093
#
# Stress axis : x y z
#
# Youngs Moduli (GPa) = 48.81770 48.81770 101.30868
#
# Poissons Ratio (x) = 0.48667 0.12462
# Poissons Ratio (y) = 0.48667 0.12462
# Poissons Ratio (z) = 0.06005 0.06005
#
# Static dielectric constant tensor:
#      x y z
#    x 1.791310 0.000000 0.000000 
#    y 0.000000 1.791310 0.000000 
#    z 0.000000 0.000000 1.850310 
# 
# From -- ./inp_files/1215.got.cif
#   From: 2010.05.17/outbox.cif.g08.bks.cpg/sg170_cif.got.tgz:1215.got - 2010.05.20 11:14:30.
