data_PCOD9580050
_publ_section_title
;
Structure prediction by ZEFSAII (Michael W. Deem and Ramdas Pophale) SiO2 
 PCOD9580050
Probable space group: P 61
;
_chemical_formula_sum "Si O2"
_cell_formula_units_Z 24
_cell_length_a 15.708737
_cell_length_b 15.708737
_cell_length_c 5.037562
_cell_angle_alpha 90.000000
_cell_angle_beta 90.000000
_cell_angle_gamma 120.000000
_cell_volume 1076.548433
_symmetry_space_group_name_H-M "P 61"
_symmetry_group_IT_number 169
_symmetry_cell_setting 'hexagonal'
loop_
_space_group_symop_operation_xyz
x,y,z
x-y,x,1/6+z
-y,x-y,1/3+z
-x,-y,1/2+z
-x+y,-x,2/3+z
y,-x+y,5/6+z
loop_
_atom_site_type_symbol
_atom_site_label
_atom_site_fract_x
_atom_site_fract_y
_atom_site_fract_z
Si Si1 0.402237 0.266752 0.927660
Si Si2 0.522520 0.062229 0.464726
Si Si3 0.994593 0.191176 0.033457
Si Si4 0.233144 0.379366 0.581061
O O1 0.298805 0.261764 0.999746
O O2 0.394130 0.230306 0.626169
O O3 0.494653 0.370571 0.999126
O O4 0.402985 0.186406 0.119191
O O5 0.456212 0.112002 0.490894
O O6 0.532646 0.025883 0.753440
O O7 0.091282 0.182369 0.992948
O O8 0.939186 0.205023 0.779193
#
# Coordination Sequence:
#
# PCOD9580050 Si02
#       4
#     6   6   6   6
#     4  11  25  45  69 101 141 180 228 289 347 410
#     4  12  24  44  76 102 134 188 236 278 350 434
#     4  10  24  42  66 100 138 178 232 282 342 402
#     4  11  25  45  69 101 141 180 228 289 347 410
#
# _framework density 22.293472999999999
#
# number of rings (size 3 to 8) (size 9 to 14) (size 15 to 20)
#    0.000    1.000    2.500    3.000    7.000    2.000 
#    4.500    0.000    0.000    0.000    0.000    0.000 
#    0.000    0.000    0.000    0.000    0.000    0.000 
#
# Total GULP energy -134068.206368 kJ/mol
# GULP energy per Si atom -5586.175265 kJ/mol
# Density = 2.224273 g / cm^3
# Si number density = 22.293473 Si / 1000 Ang^3
#
#
#
# Elastic Constant Matrix: (Units=GPa)
#
#
# Indices 1 2 3 4 5 6 
#
# 1 110.5939 38.7994 3.0848 0.0000 0.0000 0.0000
# 2 38.7994 110.5939 3.0848 0.0000 0.0000 0.0000
# 3 3.0848 3.0848 54.1112 0.0000 0.0000 0.0000
# 4 0.0000 0.0000 0.0000 31.7025 0.0000 0.0000
# 5 0.0000 0.0000 0.0000 0.0000 31.7025 0.0000
# 6 0.0000 0.0000 0.0000 0.0000 0.0000 35.8972
#
#
#
# Elastic Compliance Matrix: (Units=1/GPa)
#
#
# Indices 1 2 3 4 5 6 
#
# 1 0.010319 -0.003610 -0.000383 0.000000 0.000000 0.000000
# 2 -0.003610 0.010319 -0.000383 0.000000 0.000000 0.000000
# 3 -0.000383 -0.000383 0.018524 0.000000 0.000000 0.000000
# 4 0.000000 0.000000 0.000000 0.031543 0.000000 0.000000
# 5 0.000000 0.000000 0.000000 0.000000 0.031543 0.000000
# 6 0.000000 0.000000 0.000000 0.000000 0.000000 0.027857
#
#
# Mechanical properties :
#
#
# Convention : Reuss Voigt Hill
#
# Bulk Modulus (GPa) = 32.88052 40.58188 36.73120
# Shear Modulus (GPa) = 33.55863 35.21576 34.38720
#
# Velocity S-wave (km/s) = 3.88404 3.97879 3.93170
# Velocity P-wave (km/s) = 5.90723 6.27301 6.09286
#
# Compressibility (1/GPa) = 0.03041314
#
# Stress axis : x y z
#
# Youngs Moduli (GPa) = 96.90774 96.90774 53.98383
#
# Poissons Ratio (x) = 0.34979 0.02065
# Poissons Ratio (y) = 0.34979 0.02065
# Poissons Ratio (z) = 0.03707 0.03707
#
# Static dielectric constant tensor:
#      x y z
#    x 1.847700 0.000000 0.000000 
#    y 0.000000 1.847700 0.000000 
#    z 0.000000 0.000000 1.845230 
# 
# From -- ./inp_files/48.got.cif
#   From: 2010.05.17/outbox.cif.g08.bks.cpg/sg169_cif.got.tgz:48.got - 2010.05.20 11:12:54.
