data_PCOD9580410
_publ_section_title
;
Structure prediction by ZEFSAII (Michael W. Deem and Ramdas Pophale) SiO2 
 PCOD9580410
Probable space group: P 65
;
_chemical_formula_sum "Si O2"
_cell_formula_units_Z 48
_cell_length_a 12.000000
_cell_length_b 12.000000
_cell_length_c 18.000000
_cell_angle_alpha 90.000000
_cell_angle_beta 90.000000
_cell_angle_gamma 120.000000
_cell_volume 2244.737847
_symmetry_space_group_name_H-M "P 65"
_symmetry_group_IT_number 170
_symmetry_cell_setting 'hexagonal'
loop_
_space_group_symop_operation_xyz
x,y,z
x-y,x,5/6+z
-y,x-y,2/3+z
-x,-y,1/2+z
-x+y,-x,1/3+z
y,-x+y,1/6+z
loop_
_atom_site_type_symbol
_atom_site_label
_atom_site_fract_x
_atom_site_fract_y
_atom_site_fract_z
Si Si1 0.941870 0.004357 0.815990
Si Si2 0.231078 0.275769 0.380418
Si Si3 0.184773 0.748759 0.578664
Si Si4 0.436205 0.007370 0.272483
Si Si5 0.280768 0.882916 0.829246
Si Si6 0.971201 0.261829 0.797303
Si Si7 0.272973 0.380776 0.798676
Si Si8 0.617181 0.343461 0.041149
O O1 0.018789 0.032766 0.895381
O O2 0.891734 0.108204 0.815478
O O3 0.851738 0.851173 0.828406
O O4 0.344009 0.248439 0.407070
O O5 0.286633 0.396191 0.323790
O O6 0.148264 0.300500 0.445681
O O7 0.300348 0.716455 0.576816
O O8 0.082014 0.666371 0.511058
O O9 0.386473 0.046336 0.198232
O O10 0.367234 0.849362 0.259981
O O11 0.589665 0.058537 0.278655
O O12 0.250850 0.737543 0.851989
O O13 0.330775 0.992226 0.899980
O O14 0.118704 0.292491 0.793386
O O15 0.947549 0.303120 0.716285
O O16 0.288849 0.526624 0.809428
#
# Coordination Sequence:
#
# PCOD9580410 Si02
#       8
#     6   6   6   6   6   6   6   6
#     4  12  25  43  71 110 160 202 255 329 403 476
#     4  12  28  44  74 114 157 203 261 329 413 479
#     4  11  27  48  76 115 153 206 264 334 407 492
#     4  10  26  53  77 108 152 210 264 326 405 472
#     4  11  29  52  79 116 161 214 265 344 408 490
#     4  11  25  45  76 117 153 203 267 327 399 490
#     4  11  27  48  79 114 155 207 269 329 406 488
#     4  10  27  51  78 110 151 215 271 334 391 497
#
# _framework density 21.383343
#
# number of rings (size 3 to 8) (size 9 to 14) (size 15 to 20)
#    0.000    1.000    2.500    0.750   12.250    2.000 
#    2.250    0.000    0.000    0.000    0.000    0.000 
#    0.000    0.000    0.000    0.000    0.000    0.000 
#
# Total GULP energy -267297.483983 kJ/mol
# GULP energy per Si atom -5568.697583 kJ/mol
# Density = 2.133467 g / cm^3
# Si number density = 21.383343 Si / 1000 Ang^3
#
#
#
# Elastic Constant Matrix: (Units=GPa)
#
#
# Indices 1 2 3 4 5 6 
#
# 1 128.4270 31.7765 34.9761 0.0000 0.0000 0.0000
# 2 31.7765 128.4270 34.9761 0.0000 0.0000 0.0000
# 3 34.9761 34.9761 138.2987 0.0000 0.0000 0.0000
# 4 0.0000 0.0000 0.0000 43.1501 0.0000 0.0000
# 5 0.0000 0.0000 0.0000 0.0000 43.1501 0.0000
# 6 0.0000 0.0000 0.0000 0.0000 0.0000 48.3252
#
#
#
# Elastic Compliance Matrix: (Units=1/GPa)
#
#
# Indices 1 2 3 4 5 6 
#
# 1 0.008682 -0.001665 -0.001775 0.000000 0.000000 0.000000
# 2 -0.001665 0.008682 -0.001775 0.000000 0.000000 0.000000
# 3 -0.001775 -0.001775 0.008128 0.000000 0.000000 0.000000
# 4 0.000000 0.000000 0.000000 0.023175 0.000000 0.000000
# 5 0.000000 0.000000 0.000000 0.000000 0.023175 0.000000
# 6 0.000000 0.000000 0.000000 0.000000 0.000000 0.020693
#
#
# Mechanical properties :
#
#
# Convention : Reuss Voigt Hill
#
# Bulk Modulus (GPa) = 66.38434 66.51223 66.44828
# Shear Modulus (GPa) = 46.30312 46.48668 46.39490
#
# Velocity S-wave (km/s) = 4.65842 4.66764 4.66303
# Velocity P-wave (km/s) = 7.74898 7.76024 7.75461
#
# Compressibility (1/GPa) = 0.01506379
#
# Stress axis : x y z
#
# Youngs Moduli (GPa) = 115.18416 115.18416 123.02658
#
# Poissons Ratio (x) = 0.19176 0.21832
# Poissons Ratio (y) = 0.19176 0.21832
# Poissons Ratio (z) = 0.20441 0.20441
#
# Static dielectric constant tensor:
#      x y z
#    x 1.839610 0.000000 0.000000 
#    y 0.000000 1.839610 0.000000 
#    z 0.000000 0.000000 1.807960 
# 
# From -- ./inp_files/1453.got.cif
#   From: 2010.05.17/outbox.ucp.g08.bks.cvg/sg170_cif.got.tgz:1453.got - 2010.06.11 15:18:05.
