data_PCOD9580946
_publ_section_title
;
Structure prediction by ZEFSAII (Michael W. Deem and Ramdas Pophale) SiO2 
 PCOD9580946
Probable space group: P 64
;
_chemical_formula_sum "Si O2"
_cell_formula_units_Z 42
_cell_length_a 17.077926
_cell_length_b 17.077926
_cell_length_c 8.017370
_cell_angle_alpha 90.000000
_cell_angle_beta 90.000000
_cell_angle_gamma 120.000000
_cell_volume 2025.036302
_symmetry_space_group_name_H-M "P 64"
_symmetry_group_IT_number 172
_symmetry_cell_setting 'hexagonal'
loop_
_space_group_symop_operation_xyz
x,y,z
x-y,x,2/3+z
-y,x-y,1/3+z
-x,-y,z
-x+y,-x,2/3+z
y,-x+y,1/3+z
loop_
_atom_site_type_symbol
_atom_site_label
_atom_site_fract_x
_atom_site_fract_y
_atom_site_fract_z
Si Si1 0.343082 0.886662 0.368050
Si Si2 0.288732 0.011918 0.226189
Si Si3 0.473857 0.374591 0.414987
Si Si4 0.333112 0.154270 0.967958
Si Si5 0.539242 0.888649 0.759025
Si Si6 0.746536 0.567698 0.080400
Si Si7 0.375476 0.734335 0.250535
O O1 0.390477 0.905841 0.546224
O O2 0.238313 0.844986 0.423220
O O3 0.354753 0.816004 0.258270
O O4 0.355197 0.970041 0.254532
O O5 0.335037 0.096896 0.353636
O O6 0.189644 0.923349 0.242034
O O7 0.289993 0.059144 0.055662
O O8 0.575870 0.438243 0.482221
O O9 0.403848 0.407704 0.459144
O O10 0.434024 0.270919 0.463833
O O11 0.406656 0.154587 0.844521
O O12 0.539697 0.862493 0.567534
O O13 0.699121 0.482888 0.952552
O O14 0.322562 0.673385 0.413190
#
# Coordination Sequence:
#
# PCOD9580946 Si02
#       7
#     6   6   6   6   6   6   6
#     4  10  21  39  61  89 131 175 234 267 350 411
#     4  10  22  42  68  87 136 167 235 278 352 429
#     4  11  22  41  60  91 131 175 228 268 339 422
#     4  10  23  42  62 100 127 175 223 291 348 417
#     4  11  24  39  63  90 135 169 225 281 338 416
#     4  12  21  39  63  89 124 182 224 279 340 412
#     4  12  25  40  62  95 141 198 243 296 350 417
#
# _framework density 20.740369000000001
#
# number of rings (size 3 to 8) (size 9 to 14) (size 15 to 20)
#    0.857    0.286    5.714    0.000    6.000    0.571 
#    0.000    1.429    0.000    0.000    0.000    3.000 
#    0.000    0.000    0.000    0.000    0.000    0.000 
#
# Total GULP energy -233875.956483 kJ/mol
# GULP energy per Si atom -5568.475154 kJ/mol
# Density = 2.069316 g / cm^3
# Si number density = 20.740369 Si / 1000 Ang^3
#
#
#
# Elastic Constant Matrix: (Units=GPa)
#
#
# Indices 1 2 3 4 5 6 
#
# 1 106.9547 38.2576 17.7059 0.0000 0.0000 0.0000
# 2 38.2576 106.9547 17.7059 0.0000 0.0000 0.0000
# 3 17.7059 17.7059 43.3850 0.0000 0.0000 0.0000
# 4 0.0000 0.0000 0.0000 22.4924 0.0000 0.0000
# 5 0.0000 0.0000 0.0000 0.0000 22.4924 0.0000
# 6 0.0000 0.0000 0.0000 0.0000 0.0000 34.3485
#
#
#
# Elastic Compliance Matrix: (Units=1/GPa)
#
#
# Indices 1 2 3 4 5 6 
#
# 1 0.011102 -0.003455 -0.003121 0.000000 0.000000 0.000000
# 2 -0.003455 0.011102 -0.003121 0.000000 0.000000 0.000000
# 3 -0.003121 -0.003121 0.025597 0.000000 0.000000 0.000000
# 4 0.000000 0.000000 0.000000 0.044459 0.000000 0.000000
# 5 0.000000 0.000000 0.000000 0.000000 0.044459 0.000000
# 6 0.000000 0.000000 0.000000 0.000000 0.000000 0.029113
#
#
# Mechanical properties :
#
#
# Convention : Reuss Voigt Hill
#
# Bulk Modulus (GPa) = 35.20154 44.95923 40.08038
# Shear Modulus (GPa) = 25.68107 28.10834 26.89471
#
# Velocity S-wave (km/s) = 3.52265 3.68536 3.60492
# Velocity P-wave (km/s) = 5.79264 6.31137 6.05756
#
# Compressibility (1/GPa) = 0.02840785
#
# Stress axis : x y z
#
# Youngs Moduli (GPa) = 90.07291 90.07291 39.06721
#
# Poissons Ratio (x) = 0.31116 0.12193
# Poissons Ratio (y) = 0.31116 0.12193
# Poissons Ratio (z) = 0.28112 0.28112
#
# Static dielectric constant tensor:
#      x y z
#    x 1.788950 0.000000 0.000000 
#    y 0.000000 1.788950 0.000000 
#    z 0.000000 0.000000 1.825010 
# 
# From -- ./inp_files/723.got.cif
#   From: 2010.05.17/outbox.cif.g08.bks.cpg/sg172_1_cif.got.tgz:723.got - 2010.05.20 11:19:57.
