data_PCOD9580431
_publ_section_title
;
Structure prediction by ZEFSAII (Michael W. Deem and Ramdas Pophale) SiO2 
 PCOD9580431
Probable space group: P 62
;
_chemical_formula_sum "Si O2"
_cell_formula_units_Z 39
_cell_length_a 13.204876
_cell_length_b 13.204876
_cell_length_c 12.692786
_cell_angle_alpha 90.000000
_cell_angle_beta 90.000000
_cell_angle_gamma 120.000000
_cell_volume 1916.709274
_symmetry_space_group_name_H-M "P 62"
_symmetry_group_IT_number 171
_symmetry_cell_setting 'hexagonal'
loop_
_space_group_symop_operation_xyz
x,y,z
x-y,x,1/3+z
-y,x-y,2/3+z
-x,-y,z
-x+y,-x,1/3+z
y,-x+y,2/3+z
loop_
_atom_site_type_symbol
_atom_site_label
_atom_site_fract_x
_atom_site_fract_y
_atom_site_fract_z
Si Si1 0.000000 0.500000 0.613991
Si Si2 0.422409 0.669464 0.198282
Si Si3 0.589961 0.196699 0.401583
Si Si4 0.864088 0.195608 0.832503
Si Si5 0.739719 0.082197 0.327098
Si Si6 0.032307 0.294694 0.676076
Si Si7 0.904237 0.245651 0.159086
O O1 0.116973 0.553757 0.545985
O O2 0.003012 0.398699 0.679956
O O3 0.430324 0.731088 0.309713
O O4 0.297327 0.620736 0.147096
O O5 0.533211 0.774564 0.139200
O O6 0.649568 0.129457 0.346703
O O7 0.470645 0.117139 0.466068
O O8 0.970521 0.283242 0.912055
O O9 0.923798 0.184501 0.727623
O O10 0.789261 0.075075 0.894667
O O11 0.857624 0.186875 0.273566
O O12 0.747659 0.029756 0.440689
O O13 0.142361 0.329433 0.750165
#
# Coordination Sequence:
#
# PCOD9580431 Si02
#       7
#     3   6   6   6   6   6   6
#     4  10  18  34  46  68 112 156 204 254 300 366
#     4  11  22  33  51  79 114 163 214 256 316 385
#     4  12  20  33  49  82 115 163 219 264 317 392
#     4   9  18  30  50  79 112 155 200 256 302 366
#     4  10  20  33  54  81 122 165 214 266 321 390
#     4   9  17  29  49  77 107 152 197 248 301 354
#     4  10  19  33  53  85 118 162 212 270 327 383
#
# _framework density 20.347375
#
# number of rings (size 3 to 8) (size 9 to 14) (size 15 to 20)
#    0.000    1.846    6.154    1.385    0.000    0.000 
#    0.000    1.538    0.000    0.000    0.000    0.000 
#    0.000  141.538    0.000   26.923    0.615    4.615 
#
# Total GULP energy -217210.289644 kJ/mol
# GULP energy per Si atom -5569.494606 kJ/mol
# Density = 2.030106 g / cm^3
# Si number density = 20.347375 Si / 1000 Ang^3
#
#
#
# Elastic Constant Matrix: (Units=GPa)
#
#
# Indices 1 2 3 4 5 6 
#
# 1 72.8391 21.3558 33.7418 0.0000 0.0000 0.0000
# 2 21.3558 72.8391 33.7418 0.0000 0.0000 0.0000
# 3 33.7418 33.7418 51.7918 0.0000 0.0000 0.0000
# 4 0.0000 0.0000 0.0000 29.9109 0.0000 0.0000
# 5 0.0000 0.0000 0.0000 0.0000 29.9109 0.0000
# 6 0.0000 0.0000 0.0000 0.0000 0.0000 25.7416
#
#
#
# Elastic Compliance Matrix: (Units=1/GPa)
#
#
# Indices 1 2 3 4 5 6 
#
# 1 0.019666 0.000242 -0.012970 0.000000 0.000000 0.000000
# 2 0.000242 0.019666 -0.012970 0.000000 0.000000 0.000000
# 3 -0.012970 -0.012970 0.036208 0.000000 0.000000 0.000000
# 4 0.000000 0.000000 0.000000 0.033433 0.000000 0.000000
# 5 0.000000 0.000000 0.000000 0.000000 0.033433 0.000000
# 6 0.000000 0.000000 0.000000 0.000000 0.000000 0.038848
#
#
# Mechanical properties :
#
#
# Convention : Reuss Voigt Hill
#
# Bulk Modulus (GPa) = 41.41779 41.68320 41.55049
# Shear Modulus (GPa) = 20.77302 24.35470 22.56386
#
# Velocity S-wave (km/s) = 3.19865 3.46344 3.33368
# Velocity P-wave (km/s) = 5.83450 6.04352 5.93993
#
# Compressibility (1/GPa) = 0.02414421
#
# Stress axis : x y z
#
# Youngs Moduli (GPa) = 50.84894 50.84894 27.61833
#
# Poissons Ratio (x) = -0.01232 0.35821
# Poissons Ratio (y) = -0.01232 0.35821
# Poissons Ratio (z) = 0.65952 0.65952
#
# Static dielectric constant tensor:
#      x y z
#    x 1.744170 0.000000 0.000000 
#    y 0.000000 1.744170 0.000000 
#    z 0.000000 0.000000 1.790090 
# 
# From -- ./inp_files/2009.got.cif
#   From: 2010.05.17/outbox.cif.g08.bks.cpg/sg171_2_cif.got.tgz:2009.got - 2010.05.20 11:16:09.
