data_PCOD9580132
_publ_section_title
;
Structure prediction by ZEFSAII (Michael W. Deem and Ramdas Pophale) SiO2 
 PCOD9580132
Probable space group: P 61
;
_chemical_formula_sum "Si O2"
_cell_formula_units_Z 42
_cell_length_a 14.661435
_cell_length_b 14.661435
_cell_length_c 10.608568
_cell_angle_alpha 90.000000
_cell_angle_beta 90.000000
_cell_angle_gamma 120.000000
_cell_volume 1974.878377
_symmetry_space_group_name_H-M "P 61"
_symmetry_group_IT_number 169
_symmetry_cell_setting 'hexagonal'
loop_
_space_group_symop_operation_xyz
x,y,z
x-y,x,1/6+z
-y,x-y,1/3+z
-x,-y,1/2+z
-x+y,-x,2/3+z
y,-x+y,5/6+z
loop_
_atom_site_type_symbol
_atom_site_label
_atom_site_fract_x
_atom_site_fract_y
_atom_site_fract_z
Si Si1 0.952867 0.489955 0.408430
Si Si2 0.820611 0.980534 0.114541
Si Si3 0.667481 0.841093 0.924624
Si Si4 0.601401 0.876891 0.478676
Si Si5 0.394036 0.000168 0.315770
Si Si6 0.702550 0.055785 0.265848
Si Si7 0.995257 0.165464 0.418697
O O1 0.004248 0.546043 0.275560
O O2 0.867461 0.373615 0.361646
O O3 0.004168 0.456345 0.522220
O O4 0.930397 0.571579 0.482184
O O5 0.851358 0.903745 0.179932
O O6 0.803238 0.050720 0.214786
O O7 0.707281 0.911834 0.049301
O O8 0.618287 0.895490 0.835300
O O9 0.772513 0.858664 0.854647
O O10 0.613444 0.720236 0.971594
O O11 0.590485 0.762237 0.493166
O O12 0.707161 0.950787 0.557778
O O13 0.633454 0.949847 0.349335
O O14 0.055365 0.151448 0.302131
#
# Coordination Sequence:
#
# PCOD9580132 Si02
#       7
#     6   6   6   6   6   6   6
#     4  12  26  48  75 104 138 198 241 306 366 438
#     4  12  23  42  63 106 155 201 241 290 350 443
#     4  12  22  44  71 104 142 194 243 298 358 446
#     4  12  25  46  73 103 142 188 242 298 367 432
#     4  12  26  46  78 106 148 190 248 304 368 434
#     4  12  25  46  73 103 142 188 242 298 367 432
#     4  12  23  42  63 106 155 201 241 290 350 443
#
# _framework density 21.267133000000001
#
# number of rings (size 3 to 8) (size 9 to 14) (size 15 to 20)
#    0.000    0.000   10.000    0.000    0.000    0.000 
#   12.857    1.429    3.143    0.000    0.000    0.000 
#    0.000    0.000    0.000    0.000    0.000    0.000 
#
# Total GULP energy -234073.044686 kJ/mol
# GULP energy per Si atom -5573.167731 kJ/mol
# Density = 2.121873 g / cm^3
# Si number density = 21.267133 Si / 1000 Ang^3
#
#
#
# Elastic Constant Matrix: (Units=GPa)
#
#
# Indices 1 2 3 4 5 6 
#
# 1 67.0800 21.6749 27.8043 0.0000 0.0000 0.0000
# 2 21.6749 67.0800 27.8043 0.0000 0.0000 0.0000
# 3 27.8043 27.8043 87.6513 0.0000 0.0000 0.0000
# 4 0.0000 0.0000 0.0000 43.0143 0.0000 0.0000
# 5 0.0000 0.0000 0.0000 0.0000 43.0143 0.0000
# 6 0.0000 0.0000 0.0000 0.0000 0.0000 22.7025
#
#
#
# Elastic Compliance Matrix: (Units=1/GPa)
#
#
# Indices 1 2 3 4 5 6 
#
# 1 0.018043 -0.003981 -0.004461 0.000000 0.000000 0.000000
# 2 -0.003981 0.018043 -0.004461 0.000000 0.000000 0.000000
# 3 -0.004461 -0.004461 0.014239 0.000000 0.000000 0.000000
# 4 0.000000 0.000000 0.000000 0.023248 0.000000 0.000000
# 5 0.000000 0.000000 0.000000 0.000000 0.023248 0.000000
# 6 0.000000 0.000000 0.000000 0.000000 0.000000 0.044048
#
#
# Mechanical properties :
#
#
# Convention : Reuss Voigt Hill
#
# Bulk Modulus (GPa) = 40.78328 41.81985 41.30156
# Shear Modulus (GPa) = 28.59651 31.38140 29.98895
#
# Velocity S-wave (km/s) = 3.67090 3.84550 3.75921
# Velocity P-wave (km/s) = 6.09801 6.27885 6.18909
#
# Compressibility (1/GPa) = 0.02451985
#
# Stress axis : x y z
#
# Youngs Moduli (GPa) = 55.42363 55.42363 70.23078
#
# Poissons Ratio (x) = 0.22065 0.31327
# Poissons Ratio (y) = 0.22065 0.31327
# Poissons Ratio (z) = 0.24722 0.24722
#
# Static dielectric constant tensor:
#      x y z
#    x 1.767300 0.000000 0.000000 
#    y 0.000000 1.767300 0.000000 
#    z 0.000000 0.000000 1.870590 
# 
# From -- ./inp_files/959.got.cif
#   From: 2010.05.17/outbox.cif.g08.bks.cpg/sg169_cif.got.tgz:959.got - 2010.05.20 11:12:54.
