data_PCOD9580262
_publ_section_title
;
Structure prediction by ZEFSAII (Michael W. Deem and Ramdas Pophale) SiO2 
 PCOD9580262
Probable space group: P 65
;
_chemical_formula_sum "Si O2"
_cell_formula_units_Z 48
_cell_length_a 17.331706
_cell_length_b 17.331706
_cell_length_c 9.249492
_cell_angle_alpha 90.000000
_cell_angle_beta 90.000000
_cell_angle_gamma 120.000000
_cell_volume 2406.196771
_symmetry_space_group_name_H-M "P 65"
_symmetry_group_IT_number 170
_symmetry_cell_setting 'hexagonal'
loop_
_space_group_symop_operation_xyz
x,y,z
x-y,x,5/6+z
-y,x-y,2/3+z
-x,-y,1/2+z
-x+y,-x,1/3+z
y,-x+y,1/6+z
loop_
_atom_site_type_symbol
_atom_site_label
_atom_site_fract_x
_atom_site_fract_y
_atom_site_fract_z
Si Si1 0.597151 0.872776 0.244630
Si Si2 0.321955 0.967755 0.593052
Si Si3 0.658709 0.640072 0.603460
Si Si4 0.439092 0.923743 0.746664
Si Si5 0.397056 0.794545 0.237787
Si Si6 0.313361 0.881643 0.026941
Si Si7 0.575510 0.814363 0.920894
Si Si8 0.660541 0.396924 0.616049
O O1 0.499376 0.857278 0.285599
O O2 0.599314 0.789004 0.315430
O O3 0.679934 0.974384 0.233814
O O4 0.595202 0.865977 0.070627
O O5 0.416243 0.971955 0.620842
O O6 0.251584 0.863793 0.611889
O O7 0.310186 0.980348 0.422500
O O8 0.570194 0.542951 0.614645
O O9 0.642964 0.681835 0.459590
O O10 0.739530 0.618774 0.615852
O O11 0.412373 0.823551 0.698041
O O12 0.377417 0.912146 0.885931
O O13 0.355305 0.835136 0.128225
O O14 0.328836 0.751949 0.369320
O O15 0.386671 0.702359 0.175513
O O16 0.470785 0.775731 0.905780
#
# Coordination Sequence:
#
# PCOD9580262 Si02
#       8
#     6   6   6   6   6   6   6   6
#     4  11  22  37  56  77 112 153 195 252 305 361
#     4  11  21  39  57  75 108 157 198 240 309 377
#     4  10  23  37  56  82 110 148 198 254 300 357
#     4  11  20  38  56  78 114 157 201 248 305 352
#     4  12  19  33  49  79 113 153 201 251 295 344
#     4  12  22  37  55  84 117 146 206 267 306 353
#     4  10  21  40  55  73 106 156 198 243 298 366
#     4  11  20  31  54  74 110 158 205 245 292 344
#
# _framework density 19.948494
#
# number of rings (size 3 to 8) (size 9 to 14) (size 15 to 20)
#    0.000    1.000    3.750    6.000    0.000    0.000 
#    9.000    0.000    0.000    0.000    0.000    0.000 
#    0.000    0.000   68.000    0.000    0.000    0.250 
#
# Total GULP energy -267352.822712 kJ/mol
# GULP energy per Si atom -5569.850473 kJ/mol
# Density = 1.990309 g / cm^3
# Si number density = 19.948494 Si / 1000 Ang^3
#
#
#
# Elastic Constant Matrix: (Units=GPa)
#
#
# Indices 1 2 3 4 5 6 
#
# 1 57.5581 23.3552 14.3019 0.0000 0.0000 0.0000
# 2 23.3552 57.5581 14.3019 0.0000 0.0000 0.0000
# 3 14.3019 14.3019 52.2951 0.0000 0.0000 0.0000
# 4 0.0000 0.0000 0.0000 30.1083 0.0000 0.0000
# 5 0.0000 0.0000 0.0000 0.0000 30.1083 0.0000
# 6 0.0000 0.0000 0.0000 0.0000 0.0000 17.1014
#
#
#
# Elastic Compliance Matrix: (Units=1/GPa)
#
#
# Indices 1 2 3 4 5 6 
#
# 1 0.021459 -0.007778 -0.003742 0.000000 0.000000 0.000000
# 2 -0.007778 0.021459 -0.003742 0.000000 0.000000 0.000000
# 3 -0.003742 -0.003742 0.021169 0.000000 0.000000 0.000000
# 4 0.000000 0.000000 0.000000 0.033213 0.000000 0.000000
# 5 0.000000 0.000000 0.000000 0.000000 0.033213 0.000000
# 6 0.000000 0.000000 0.000000 0.000000 0.000000 0.058475
#
#
# Mechanical properties :
#
#
# Convention : Reuss Voigt Hill
#
# Bulk Modulus (GPa) = 29.79269 30.14770 29.97020
# Shear Modulus (GPa) = 21.67314 23.16042 22.41678
#
# Velocity S-wave (km/s) = 3.29972 3.41106 3.35585
# Velocity P-wave (km/s) = 5.42999 5.53709 5.48380
#
# Compressibility (1/GPa) = 0.03356528
#
# Stress axis : x y z
#
# Youngs Moduli (GPa) = 46.59946 46.59946 47.23924
#
# Poissons Ratio (x) = 0.36244 0.17676
# Poissons Ratio (y) = 0.36244 0.17676
# Poissons Ratio (z) = 0.17436 0.17436
#
# Static dielectric constant tensor:
#      x y z
#    x 1.836200 0.000000 0.000000 
#    y 0.000000 1.836200 0.000000 
#    z 0.000000 0.000000 1.787130 
# 
# From -- ./inp_files/729.got.cif
#   From: 2010.05.17/outbox.cif.g08.bks.cpg/sg170_cif.got.tgz:729.got - 2010.05.20 11:14:30.
