data_PCOD9580702
_publ_section_title
;
Structure prediction by ZEFSAII (Michael W. Deem and Ramdas Pophale) SiO2 
 PCOD9580702
Probable space group: P 62
;
_chemical_formula_sum "Si O2"
_cell_formula_units_Z 36
_cell_length_a 12.586699
_cell_length_b 12.586699
_cell_length_c 11.675069
_cell_angle_alpha 90.000000
_cell_angle_beta 90.000000
_cell_angle_gamma 120.000000
_cell_volume 1601.820254
_symmetry_space_group_name_H-M "P 62"
_symmetry_group_IT_number 171
_symmetry_cell_setting 'hexagonal'
loop_
_space_group_symop_operation_xyz
x,y,z
x-y,x,1/3+z
-y,x-y,2/3+z
-x,-y,z
-x+y,-x,1/3+z
y,-x+y,2/3+z
loop_
_atom_site_type_symbol
_atom_site_label
_atom_site_fract_x
_atom_site_fract_y
_atom_site_fract_z
Si Si1 0.517923 0.258944 0.787070
Si Si2 0.894347 0.369720 0.075825
Si Si3 0.764289 0.665194 0.548004
Si Si4 0.095641 0.469345 0.540130
Si Si5 0.172124 0.306756 0.925356
Si Si6 0.114022 0.348466 0.333372
O O1 0.620200 0.394559 0.751004
O O2 0.596259 0.198521 0.830770
O O3 0.418542 0.202804 0.683753
O O4 0.436726 0.256455 0.894943
O O5 0.883911 0.256548 0.147639
O O6 0.000000 0.500000 0.123173
O O7 0.924944 0.357631 0.945189
O O8 0.858283 0.618466 0.594833
O O9 0.764230 0.790289 0.573760
O O10 0.785294 0.656916 0.413858
O O11 0.047189 0.399999 0.417821
O O12 0.000000 0.500000 0.600675
O O13 0.217001 0.212841 0.964248
#
# Coordination Sequence:
#
# PCOD9580702 Si02
#       6
#     6   6   6   6   6   6
#     4  12  23  40  72 103 142 199 253 315 386 483
#     4  12  25  44  69 104 149 202 250 312 401 468
#     4  10  26  43  68 113 150 189 261 332 388 459
#     4  10  23  43  70 105 142 190 258 314 389 468
#     4  12  23  44  74 100 151 195 261 313 388 489
#     4  10  24  43  71 103 142 203 259 316 402 469
#
# _framework density 22.474433000000001
#
# number of rings (size 3 to 8) (size 9 to 14) (size 15 to 20)
#    1.000    0.000    5.000    1.000    4.667    2.667 
#    0.000    0.833    0.000   21.000    0.000    0.000 
#    0.000    0.000    0.000    0.000    0.000    0.000 
#
# Total GULP energy -200405.401346 kJ/mol
# GULP energy per Si atom -5566.816704 kJ/mol
# Density = 2.242328 g / cm^3
# Si number density = 22.474433 Si / 1000 Ang^3
#
#
#
# Elastic Constant Matrix: (Units=GPa)
#
#
# Indices 1 2 3 4 5 6 
#
# 1 2.0305 163.1648 35.8721 0.0000 0.0000 0.0000
# 2 163.1648 2.0305 35.8721 0.0000 0.0000 0.0000
# 3 35.8721 35.8721 95.0632 0.0000 0.0000 0.0000
# 4 0.0000 0.0000 0.0000 17.8249 0.0000 0.0000
# 5 0.0000 0.0000 0.0000 0.0000 17.8249 0.0000
# 6 0.0000 0.0000 0.0000 0.0000 0.0000 -80.5672
#
#
#
# Elastic Compliance Matrix: (Units=1/GPa)
#
#
# Indices 1 2 3 4 5 6 
#
# 1 0.000517 0.006723 -0.002732 0.000000 0.000000 0.000000
# 2 0.006723 0.000517 -0.002732 0.000000 0.000000 0.000000
# 3 -0.002732 -0.002732 0.012581 0.000000 0.000000 0.000000
# 4 0.000000 0.000000 0.000000 0.056101 0.000000 0.000000
# 5 0.000000 0.000000 0.000000 0.000000 0.056101 0.000000
# 6 0.000000 0.000000 0.000000 0.000000 0.000000 -0.012412
#
#
# Mechanical properties :
#
#
# Convention : Reuss Voigt Hill
#
# Bulk Modulus (GPa) = 61.98448 63.21580 62.60014
# Shear Modulus (GPa) = 43.00515 -18.03578 12.48469
#
# Velocity S-wave (km/s) = 4.37912 -2.83592 2.35947
# Velocity P-wave (km/s) = 7.29444 4.17920 5.94451
#
# Compressibility (1/GPa) = 0.01613307
#
# Stress axis : x y z
#
# Youngs Moduli (GPa) = 1934.34956 1934.34954 79.48395
#
# Poissons Ratio (x) = -13.00458 0.21715
# Poissons Ratio (y) = -13.00458 0.21715
# Poissons Ratio (z) = 5.28463 5.28463
#
# Static dielectric constant tensor:
#      x y z
#    x 1.899870 0.000000 0.000000 
#    y 0.000000 1.899870 0.000000 
#    z 0.000000 0.000000 1.874170 
# 
# From -- ./inp_files/1950.got.cif
#   From: 2010.05.17/outbox.cif.g08.bks.cpg/sg171_1_cif.got.tgz:1950.got - 2010.05.20 11:16:09.
