data_PCOD9580642
_publ_section_title
;
Structure prediction by ZEFSAII (Michael W. Deem and Ramdas Pophale) SiO2 
 PCOD9580642
Probable space group: P 62
;
_chemical_formula_sum "Si O2"
_cell_formula_units_Z 36
_cell_length_a 8.407770
_cell_length_b 8.407770
_cell_length_c 26.942521
_cell_angle_alpha 90.000000
_cell_angle_beta 90.000000
_cell_angle_gamma 120.000000
_cell_volume 1649.417155
_symmetry_space_group_name_H-M "P 62"
_symmetry_group_IT_number 171
_symmetry_cell_setting 'hexagonal'
loop_
_space_group_symop_operation_xyz
x,y,z
x-y,x,1/3+z
-y,x-y,2/3+z
-x,-y,z
-x+y,-x,1/3+z
y,-x+y,2/3+z
loop_
_atom_site_type_symbol
_atom_site_label
_atom_site_fract_x
_atom_site_fract_y
_atom_site_fract_z
Si Si1 0.195596 0.005481 0.102100
Si Si2 0.516071 0.200679 0.819828
Si Si3 0.946047 0.640049 0.055540
Si Si4 0.288831 0.946532 0.684048
Si Si5 0.655292 0.716107 0.909040
Si Si6 0.121325 0.431453 0.862169
O O1 0.294956 0.999122 0.151254
O O2 0.128897 0.812807 0.075406
O O3 0.325568 0.167674 0.064940
O O4 0.000000 0.000000 0.110589
O O5 0.449624 0.256684 0.769480
O O6 0.378074 0.179608 0.864415
O O7 0.703405 0.385043 0.838246
O O8 0.500000 0.000000 0.814164
O O9 0.847034 0.708058 0.018210
O O10 0.000000 0.500000 0.033607
O O11 0.214429 0.860010 0.630302
O O12 0.500000 0.000000 0.689007
O O13 0.500000 0.500000 0.908373
O O14 0.827503 0.693077 0.895635
O O15 0.000000 0.500000 0.889977
#
# Coordination Sequence:
#
# PCOD9580642 Si02
#       6
#     6   6   6   6   6   6
#     4  10  22  39  60  93 126 169 211 267 315 376
#     4  11  22  40  68  94 124 174 216 262 331 376
#     4  11  20  39  64  92 128 169 212 265 319 377
#     4  10  23  40  66  91 130 170 215 261 326 393
#     4   9  20  45  63  88 130 173 210 268 326 380
#     4  11  23  37  64  99 129 161 222 270 312 389
#
# _framework density 21.825894000000002
#
# number of rings (size 3 to 8) (size 9 to 14) (size 15 to 20)
#    0.000    1.667    3.333    1.000    7.000    0.667 
#    0.000   13.333    0.000    0.000    0.000    0.000 
#    0.000    0.000    0.000    0.000    0.000    0.000 
#
# Total GULP energy -200844.210220 kJ/mol
# GULP energy per Si atom -5579.005839 kJ/mol
# Density = 2.177622 g / cm^3
# Si number density = 21.825894 Si / 1000 Ang^3
#
#
#
# Elastic Constant Matrix: (Units=GPa)
#
#
# Indices 1 2 3 4 5 6 
#
# 1 56.6108 1.9627 18.3883 0.0000 0.0000 0.0000
# 2 1.9627 56.6108 18.3883 0.0000 0.0000 0.0000
# 3 18.3883 18.3883 80.3439 0.0000 0.0000 0.0000
# 4 0.0000 0.0000 0.0000 -362.2309 0.0000 0.0000
# 5 0.0000 0.0000 0.0000 0.0000 -362.2307 0.0000
# 6 0.0000 0.0000 0.0000 0.0000 0.0000 27.3240
#
#
#
# Elastic Compliance Matrix: (Units=1/GPa)
#
#
# Indices 1 2 3 4 5 6 
#
# 1 0.019118 0.000819 -0.004563 0.000000 0.000000 0.000000
# 2 0.000819 0.019118 -0.004563 0.000000 0.000000 0.000000
# 3 -0.004563 -0.004563 0.014535 0.000000 0.000000 0.000000
# 4 0.000000 0.000000 0.000000 -0.002761 0.000000 0.000000
# 5 0.000000 0.000000 0.000000 0.000000 -0.002761 0.000000
# 6 0.000000 0.000000 0.000000 0.000000 0.000000 0.036598
#
#
# Mechanical properties :
#
#
# Convention : Reuss Voigt Hill
#
# Bulk Modulus (GPa) = 27.65644 30.11602 28.88623
# Shear Modulus (GPa) = 44.43871 -129.10575 -42.33352
#
# Velocity S-wave (km/s) = 4.51716 -7.69941 -4.40887
# Velocity P-wave (km/s) = 6.31706 8.07546 3.55723
#
# Compressibility (1/GPa) = 0.03615794
#
# Stress axis : x y z
#
# Youngs Moduli (GPa) = 52.30608 52.30608 68.79852
#
# Poissons Ratio (x) = -0.04286 0.31393
# Poissons Ratio (y) = -0.04286 0.31393
# Poissons Ratio (z) = 0.23868 0.23868
#
# Static dielectric constant tensor:
#      x y z
#    x 3.032190 0.000000 0.000000 
#    y 0.000000 3.032190 0.000000 
#    z 0.000000 0.000000 1.781580 
# 
# From -- ./inp_files/5771.got.cif
#   From: 2010.05.17/outbox.cif.g08.bks.cpg/sg171_3_cif.got.tgz:5771.got - 2010.05.20 11:16:09.
