data_PCOD9580398
_publ_section_title
;
Structure prediction by ZEFSAII (Michael W. Deem and Ramdas Pophale) SiO2 
 PCOD9580398
Probable space group: P 65
;
_chemical_formula_sum "Si O2"
_cell_formula_units_Z 36
_cell_length_a 7.722498
_cell_length_b 7.722498
_cell_length_c 28.817318
_cell_angle_alpha 90.000000
_cell_angle_beta 90.000000
_cell_angle_gamma 120.000000
_cell_volume 1488.331932
_symmetry_space_group_name_H-M "P 65"
_symmetry_group_IT_number 170
_symmetry_cell_setting 'hexagonal'
loop_
_space_group_symop_operation_xyz
x,y,z
x-y,x,5/6+z
-y,x-y,2/3+z
-x,-y,1/2+z
-x+y,-x,1/3+z
y,-x+y,1/6+z
loop_
_atom_site_type_symbol
_atom_site_label
_atom_site_fract_x
_atom_site_fract_y
_atom_site_fract_z
Si Si1 0.014555 0.985304 0.519410
Si Si2 0.251921 0.890609 0.965437
Si Si3 0.301186 0.650635 0.119477
Si Si4 0.227363 0.744682 0.694293
Si Si5 0.024328 0.243449 0.936488
Si Si6 0.835289 0.388768 0.380068
O O1 0.251156 0.076903 0.516504
O O2 0.924740 0.112971 0.495727
O O3 0.920668 0.785493 0.488019
O O4 0.940021 0.934761 0.571701
O O5 0.176153 0.768604 0.917788
O O6 0.426145 0.115894 0.954142
O O7 0.366237 0.800485 0.995070
O O8 0.460832 0.787948 0.080870
O O9 0.240586 0.426143 0.105314
O O10 0.383391 0.681954 0.171696
O O11 0.439941 0.946476 0.690223
O O12 0.179533 0.442061 0.909276
#
# Coordination Sequence:
#
# PCOD9580398 Si02
#       6
#     6   6   6   6   6   6
#     4  12  27  51  75 117 152 221 262 338 410 489
#     4  12  28  49  84 112 162 211 275 337 412 502
#     4  11  27  48  73 118 151 212 262 334 411 485
#     4  11  29  48  79 112 161 206 267 337 399 491
#     4  11  27  47  75 108 158 198 271 331 402 491
#     4  11  28  49  76 113 156 206 267 335 402 492
#
# _framework density 24.188154999999998
#
# number of rings (size 3 to 8) (size 9 to 14) (size 15 to 20)
#    0.000    0.667    3.333    1.000   18.667    1.333 
#    0.000    0.000    0.000    0.000    0.000    0.000 
#    0.000    0.000    0.000    0.000    0.000    0.000 
#
# Total GULP energy -201683.287826 kJ/mol
# GULP energy per Si atom -5602.313551 kJ/mol
# Density = 2.413310 g / cm^3
# Si number density = 24.188155 Si / 1000 Ang^3
#
#
#
# Elastic Constant Matrix: (Units=GPa)
#
#
# Indices 1 2 3 4 5 6 
#
# 1 94.6269 30.7729 46.5968 0.0000 0.0000 0.0000
# 2 30.7729 94.6269 46.5968 0.0000 0.0000 0.0000
# 3 46.5968 46.5968 110.6140 0.0000 0.0000 0.0000
# 4 0.0000 0.0000 0.0000 40.3414 0.0000 0.0000
# 5 0.0000 0.0000 0.0000 0.0000 40.3414 0.0000
# 6 0.0000 0.0000 0.0000 0.0000 0.0000 31.9270
#
#
#
# Elastic Compliance Matrix: (Units=1/GPa)
#
#
# Indices 1 2 3 4 5 6 
#
# 1 0.013635 -0.002026 -0.004890 0.000000 0.000000 0.000000
# 2 -0.002026 0.013635 -0.004890 0.000000 0.000000 0.000000
# 3 -0.004890 -0.004890 0.013161 0.000000 0.000000 0.000000
# 4 0.000000 0.000000 0.000000 0.024788 0.000000 0.000000
# 5 0.000000 0.000000 0.000000 0.000000 0.024788 0.000000
# 6 0.000000 0.000000 0.000000 0.000000 0.000000 0.031321
#
#
# Mechanical properties :
#
#
# Convention : Reuss Voigt Hill
#
# Bulk Modulus (GPa) = 59.46340 60.86677 60.16509
# Shear Modulus (GPa) = 33.21219 34.24871 33.73045
#
# Velocity S-wave (km/s) = 3.70952 3.76697 3.73836
# Velocity P-wave (km/s) = 6.55626 6.64368 6.60011
#
# Compressibility (1/GPa) = 0.01681707
#
# Stress axis : x y z
#
# Youngs Moduli (GPa) = 73.34190 73.34190 75.98454
#
# Poissons Ratio (x) = 0.14859 0.37159
# Poissons Ratio (y) = 0.14859 0.37159
# Poissons Ratio (z) = 0.35866 0.35866
#
# Static dielectric constant tensor:
#      x y z
#    x 1.930660 0.000000 0.000000 
#    y 0.000000 1.930660 0.000000 
#    z 0.000000 0.000000 1.880030 
# 
# From -- ./inp_files/1769.got.cif
#   From: 2010.05.17/outbox.cif.g08.bks.cpg/sg170_cif.got.tgz:1769.got - 2010.05.20 11:14:30.
