data_PCOD9580335
_publ_section_title
;
Structure prediction by ZEFSAII (Michael W. Deem and Ramdas Pophale) SiO2 
 PCOD9580335
Probable space group: P 65
;
_chemical_formula_sum "Si O2"
_cell_formula_units_Z 48
_cell_length_a 15.456193
_cell_length_b 15.456193
_cell_length_c 10.571755
_cell_angle_alpha 90.000000
_cell_angle_beta 90.000000
_cell_angle_gamma 120.000000
_cell_volume 2187.171236
_symmetry_space_group_name_H-M "P 65"
_symmetry_group_IT_number 170
_symmetry_cell_setting 'hexagonal'
loop_
_space_group_symop_operation_xyz
x,y,z
x-y,x,5/6+z
-y,x-y,2/3+z
-x,-y,1/2+z
-x+y,-x,1/3+z
y,-x+y,1/6+z
loop_
_atom_site_type_symbol
_atom_site_label
_atom_site_fract_x
_atom_site_fract_y
_atom_site_fract_z
Si Si1 0.130502 0.201660 0.091050
Si Si2 0.715075 0.570357 0.646105
Si Si3 0.567545 0.092937 0.168083
Si Si4 0.535369 0.210057 0.749501
Si Si5 0.019758 0.180043 0.652633
Si Si6 0.738001 0.392005 0.656860
Si Si7 0.087159 0.562486 0.698545
Si Si8 0.887965 0.599544 0.048909
O O1 0.150679 0.136089 0.199693
O O2 0.194086 0.316388 0.141745
O O3 0.181737 0.211381 0.953850
O O4 0.613157 0.534708 0.564137
O O5 0.754161 0.496009 0.603373
O O6 0.662949 0.527338 0.782805
O O7 0.625110 0.205984 0.122516
O O8 0.643091 0.077562 0.257159
O O9 0.546486 0.030208 0.040834
O O10 0.624635 0.311726 0.689961
O O11 0.537940 0.121996 0.676342
O O12 0.433060 0.205071 0.715238
O O13 0.560731 0.217366 0.896012
O O14 0.101380 0.153902 0.712527
O O15 0.055667 0.286916 0.589813
O O16 0.109303 0.478923 0.647085
#
# Coordination Sequence:
#
# PCOD9580335 Si02
#       8
#     6   6   6   6   6   6   6   6
#     4  10  24  47  80 105 137 180 244 315 382 446
#     4  11  23  42  67 100 145 180 239 290 351 440
#     4  11  25  39  62 101 146 183 237 290 349 419
#     4  12  22  42  66  94 137 194 228 275 342 428
#     4  10  24  47  80 105 137 180 244 315 382 446
#     4  12  22  42  66  94 137 194 228 275 342 428
#     4  11  25  39  62 101 146 183 237 290 349 419
#     4  11  23  42  67 100 145 180 239 290 351 440
#
# _framework density 21.946155999999998
#
# number of rings (size 3 to 8) (size 9 to 14) (size 15 to 20)
#    0.000    1.000    5.000    1.500    7.000    4.000 
#    0.000    0.000   33.000    0.000    0.000    0.000 
#    0.000    0.000    0.000    0.000    0.000    0.000 
#
# Total GULP energy -267273.231863 kJ/mol
# GULP energy per Si atom -5568.192330 kJ/mol
# Density = 2.189621 g / cm^3
# Si number density = 21.946156 Si / 1000 Ang^3
#
#
#
# Elastic Constant Matrix: (Units=GPa)
#
#
# Indices 1 2 3 4 5 6 
#
# 1 86.4724 32.9090 21.1554 0.0000 0.0000 0.0000
# 2 32.9090 86.4724 21.1554 0.0000 0.0000 0.0000
# 3 21.1554 21.1554 50.1135 0.0000 0.0000 0.0000
# 4 0.0000 0.0000 0.0000 27.4399 0.0000 0.0000
# 5 0.0000 0.0000 0.0000 0.0000 27.4399 0.0000
# 6 0.0000 0.0000 0.0000 0.0000 0.0000 26.7817
#
#
#
# Elastic Compliance Matrix: (Units=1/GPa)
#
#
# Indices 1 2 3 4 5 6 
#
# 1 0.014260 -0.004410 -0.004158 0.000000 0.000000 0.000000
# 2 -0.004410 0.014260 -0.004158 0.000000 0.000000 0.000000
# 3 -0.004158 -0.004158 0.023466 0.000000 0.000000 0.000000
# 4 0.000000 0.000000 0.000000 0.036443 0.000000 0.000000
# 5 0.000000 0.000000 0.000000 0.000000 0.036443 0.000000
# 6 0.000000 0.000000 0.000000 0.000000 0.000000 0.037339
#
#
# Mechanical properties :
#
#
# Convention : Reuss Voigt Hill
#
# Bulk Modulus (GPa) = 37.68899 41.49976 39.59438
# Shear Modulus (GPa) = 25.44434 26.18822 25.81628
#
# Velocity S-wave (km/s) = 3.40869 3.45816 3.43351
# Velocity P-wave (km/s) = 5.71864 5.90728 5.81373
#
# Compressibility (1/GPa) = 0.02653295
#
# Stress axis : x y z
#
# Youngs Moduli (GPa) = 70.12689 70.12689 42.61561
#
# Poissons Ratio (x) = 0.30923 0.17721
# Poissons Ratio (y) = 0.30923 0.17721
# Poissons Ratio (z) = 0.29161 0.29161
#
# Static dielectric constant tensor:
#      x y z
#    x 1.880450 0.000000 0.000000 
#    y 0.000000 1.880450 0.000000 
#    z 0.000000 0.000000 1.871730 
# 
# From -- ./inp_files/1058.got.cif
#   From: 2010.05.17/outbox.cif.g08.bks.cpg/sg170_cif.got.tgz:1058.got - 2010.05.20 11:14:30.
