data_PCOD9580304
_publ_section_title
;
Structure prediction by ZEFSAII (Michael W. Deem and Ramdas Pophale) SiO2 
 PCOD9580304
Probable space group: P 65
;
_chemical_formula_sum "Si O2"
_cell_formula_units_Z 36
_cell_length_a 13.246742
_cell_length_b 13.246742
_cell_length_c 9.950190
_cell_angle_alpha 90.000000
_cell_angle_beta 90.000000
_cell_angle_gamma 120.000000
_cell_volume 1512.098774
_symmetry_space_group_name_H-M "P 65"
_symmetry_group_IT_number 170
_symmetry_cell_setting 'hexagonal'
loop_
_space_group_symop_operation_xyz
x,y,z
x-y,x,5/6+z
-y,x-y,2/3+z
-x,-y,1/2+z
-x+y,-x,1/3+z
y,-x+y,1/6+z
loop_
_atom_site_type_symbol
_atom_site_label
_atom_site_fract_x
_atom_site_fract_y
_atom_site_fract_z
Si Si1 0.676371 0.028503 0.164960
Si Si2 0.779606 0.584044 0.362082
Si Si3 0.324804 0.532737 0.602439
Si Si4 0.201029 0.003600 0.899902
Si Si5 0.592142 0.638291 0.704018
Si Si6 0.432736 0.820415 0.771284
O O1 0.575650 0.892904 0.185520
O O2 0.779421 0.055171 0.268097
O O3 0.622722 0.106657 0.212107
O O4 0.703654 0.061628 0.010235
O O5 0.768095 0.516918 0.223733
O O6 0.745494 0.678332 0.315368
O O7 0.910181 0.642799 0.418860
O O8 0.698044 0.500530 0.480665
O O9 0.452007 0.582735 0.675784
O O10 0.287294 0.612466 0.515270
O O11 0.181392 0.102077 0.833613
O O12 0.622911 0.535835 0.699462
#
# Coordination Sequence:
#
# PCOD9580304 Si02
#       6
#     6   6   6   6   6   6
#     4  10  22  44  69 102 145 200 247 304 376 446
#     4  11  24  44  72 104 150 205 242 308 390 445
#     4  10  24  41  68  99 150 202 254 306 372 445
#     4  11  25  51  80 108 144 195 250 322 390 451
#     4  11  25  41  68 108 149 200 253 311 369 462
#     4  11  24  41  69 105 154 200 254 301 375 461
#
# _framework density 23.807970000000001
#
# number of rings (size 3 to 8) (size 9 to 14) (size 15 to 20)
#    0.000    1.333    1.667    3.000    7.000    2.667 
#    3.000    0.000    0.000    0.000    0.000    0.000 
#    0.000    0.000    0.000    0.000    0.000    0.000 
#
# Total GULP energy -201141.397699 kJ/mol
# GULP energy per Si atom -5587.261047 kJ/mol
# Density = 2.375378 g / cm^3
# Si number density = 23.807970 Si / 1000 Ang^3
#
#
#
# Elastic Constant Matrix: (Units=GPa)
#
#
# Indices 1 2 3 4 5 6 
#
# 1 89.4584 29.6777 47.9072 0.0000 0.0000 0.0000
# 2 29.6777 89.4584 47.9072 0.0000 0.0000 0.0000
# 3 47.9072 47.9072 162.4644 0.0000 0.0000 0.0000
# 4 0.0000 0.0000 0.0000 35.6834 0.0000 0.0000
# 5 0.0000 0.0000 0.0000 0.0000 35.6834 0.0000
# 6 0.0000 0.0000 0.0000 0.0000 0.0000 29.8903
#
#
#
# Elastic Compliance Matrix: (Units=1/GPa)
#
#
# Indices 1 2 3 4 5 6 
#
# 1 0.013866 -0.002862 -0.003245 0.000000 0.000000 0.000000
# 2 -0.002862 0.013866 -0.003245 0.000000 0.000000 0.000000
# 3 -0.003245 -0.003245 0.008069 0.000000 0.000000 0.000000
# 4 0.000000 0.000000 0.000000 0.028024 0.000000 0.000000
# 5 0.000000 0.000000 0.000000 0.000000 0.028024 0.000000
# 6 0.000000 0.000000 0.000000 0.000000 0.000000 0.033456
#
#
# Mechanical properties :
#
#
# Convention : Reuss Voigt Hill
#
# Bulk Modulus (GPa) = 58.49073 65.81837 62.15455
# Shear Modulus (GPa) = 33.39885 34.64404 34.02145
#
# Velocity S-wave (km/s) = 3.74952 3.81877 3.78430
# Velocity P-wave (km/s) = 6.58530 6.86656 6.72740
#
# Compressibility (1/GPa) = 0.01709673
#
# Stress axis : x y z
#
# Youngs Moduli (GPa) = 72.12138 72.12138 123.93538
#
# Poissons Ratio (x) = 0.20643 0.40212
# Poissons Ratio (y) = 0.20643 0.40212
# Poissons Ratio (z) = 0.23401 0.23401
#
# Static dielectric constant tensor:
#      x y z
#    x 1.971250 0.000000 0.000000 
#    y 0.000000 1.971250 0.000000 
#    z 0.000000 0.000000 1.900460 
# 
# From -- ./inp_files/629.got.cif
#   From: 2010.05.17/outbox.cif.g08.bks.cpg/sg170_cif.got.tgz:629.got - 2010.05.20 11:14:30.
