data_PCOD9580535
_publ_section_title
;
Structure prediction by ZEFSAII (Michael W. Deem and Ramdas Pophale) SiO2 
 PCOD9580535
Probable space group: P 62
;
_chemical_formula_sum "Si O2"
_cell_formula_units_Z 39
_cell_length_a 9.784139
_cell_length_b 9.784139
_cell_length_c 23.297644
_cell_angle_alpha 90.000000
_cell_angle_beta 90.000000
_cell_angle_gamma 120.000000
_cell_volume 1931.469543
_symmetry_space_group_name_H-M "P 62"
_symmetry_group_IT_number 171
_symmetry_cell_setting 'hexagonal'
loop_
_space_group_symop_operation_xyz
x,y,z
x-y,x,1/3+z
-y,x-y,2/3+z
-x,-y,z
-x+y,-x,1/3+z
y,-x+y,2/3+z
loop_
_atom_site_type_symbol
_atom_site_label
_atom_site_fract_x
_atom_site_fract_y
_atom_site_fract_z
Si Si1 0.813722 0.908438 0.862470
Si Si2 0.745474 0.085007 0.412900
Si Si3 0.266340 0.140253 0.627134
Si Si4 0.450465 0.744877 0.425749
Si Si5 0.556936 0.371103 0.554199
Si Si6 0.362754 0.242484 0.263995
Si Si7 0.500000 0.500000 0.355525
O O1 0.724903 0.802040 0.809249
O O2 0.802647 0.817522 0.921611
O O3 0.742583 0.021121 0.874220
O O4 0.000000 0.000000 0.848452
O O5 0.872910 0.139373 0.362083
O O6 0.680749 0.206957 0.413144
O O7 0.606524 0.903484 0.403165
O O8 0.440683 0.247500 0.601067
O O9 0.181669 0.243432 0.615185
O O10 0.455888 0.714737 0.493883
O O11 0.433844 0.591108 0.394109
O O12 0.500000 0.500000 0.544462
O O13 0.731304 0.469525 0.580599
O O14 0.379194 0.363578 0.312890
#
# Coordination Sequence:
#
# PCOD9580535 Si02
#       7
#     6   6   6   6   6   6   3
#     4  10  23  42  64  94 127 178 217 275 350 406
#     4  11  23  42  64  97 132 169 230 284 334 414
#     4  10  20  41  66  90 122 175 223 267 332 412
#     4  11  23  39  66  98 128 176 225 277 341 412
#     4  10  20  39  66  91 127 170 220 270 332 404
#     4  10  23  37  62  91 126 162 219 274 329 399
#     4  12  22  40  64  96 130 174 222 268 346 402
#
# _framework density 20.191879
#
# number of rings (size 3 to 8) (size 9 to 14) (size 15 to 20)
#    0.000    1.538    3.846    0.923    6.462    1.846 
#    2.769    0.000    0.000    0.000    0.000    0.000 
#    0.000    0.000    0.000    0.000    0.000    0.000 
#
# Total GULP energy -217628.741908 kJ/mol
# GULP energy per Si atom -5580.224151 kJ/mol
# Density = 2.014592 g / cm^3
# Si number density = 20.191879 Si / 1000 Ang^3
#
#
#
# Elastic Constant Matrix: (Units=GPa)
#
#
# Indices 1 2 3 4 5 6 
#
# 1 67.8029 39.6861 28.0134 0.0000 0.0000 0.0000
# 2 39.6861 67.8029 28.0134 0.0000 0.0000 0.0000
# 3 28.0134 28.0134 97.5094 0.0000 0.0000 0.0000
# 4 0.0000 0.0000 0.0000 9.3217 0.0000 0.0000
# 5 0.0000 0.0000 0.0000 0.0000 9.3217 0.0000
# 6 0.0000 0.0000 0.0000 0.0000 0.0000 14.0584
#
#
#
# Elastic Compliance Matrix: (Units=1/GPa)
#
#
# Indices 1 2 3 4 5 6 
#
# 1 0.023254 -0.012312 -0.003143 0.000000 0.000000 0.000000
# 2 -0.012312 0.023254 -0.003143 0.000000 0.000000 0.000000
# 3 -0.003143 -0.003143 0.012062 0.000000 0.000000 0.000000
# 4 0.000000 0.000000 0.000000 0.107276 0.000000 0.000000
# 5 0.000000 0.000000 0.000000 0.000000 0.107276 0.000000
# 6 0.000000 0.000000 0.000000 0.000000 0.000000 0.071132
#
#
# Mechanical properties :
#
#
# Convention : Reuss Voigt Hill
#
# Bulk Modulus (GPa) = 46.79179 47.17125 46.98152
# Shear Modulus (GPa) = 12.86752 15.70052 14.28402
#
# Velocity S-wave (km/s) = 2.52714 2.79151 2.66261
# Velocity P-wave (km/s) = 5.63375 5.81397 5.72457
#
# Compressibility (1/GPa) = 0.02137127
#
# Stress axis : x y z
#
# Youngs Moduli (GPa) = 43.00361 43.00361 82.90786
#
# Poissons Ratio (x) = 0.52947 0.26062
# Poissons Ratio (y) = 0.52947 0.26062
# Poissons Ratio (z) = 0.13518 0.13518
#
# Static dielectric constant tensor:
#      x y z
#    x 1.727870 0.000000 0.000000 
#    y 0.000000 1.727870 0.000000 
#    z 0.000000 0.000000 1.709400 
# 
# From -- ./inp_files/3956.got.cif
#   From: 2010.05.17/outbox.cif.g08.bks.cpg/sg171_2_cif.got.tgz:3956.got - 2010.05.20 11:16:09.
