data_PCOD9580541
_publ_section_title
;
Structure prediction by ZEFSAII (Michael W. Deem and Ramdas Pophale) SiO2 
 PCOD9580541
Probable space group: P 62
;
_chemical_formula_sum "Si O2"
_cell_formula_units_Z 30
_cell_length_a 16.577989
_cell_length_b 16.577989
_cell_length_c 5.954176
_cell_angle_alpha 90.000000
_cell_angle_beta 90.000000
_cell_angle_gamma 120.000000
_cell_volume 1417.150564
_symmetry_space_group_name_H-M "P 62"
_symmetry_group_IT_number 171
_symmetry_cell_setting 'hexagonal'
loop_
_space_group_symop_operation_xyz
x,y,z
x-y,x,1/3+z
-y,x-y,2/3+z
-x,-y,z
-x+y,-x,1/3+z
y,-x+y,2/3+z
loop_
_atom_site_type_symbol
_atom_site_label
_atom_site_fract_x
_atom_site_fract_y
_atom_site_fract_z
Si Si1 0.666681 0.085124 0.750000
Si Si2 0.234996 0.619858 0.345194
Si Si3 0.987955 0.263910 0.786057
Si Si4 0.141557 0.300213 0.115891
Si Si5 0.678072 0.578722 0.819924
O O1 0.630681 0.156262 0.795319
O O2 0.752380 0.131620 0.578443
O O3 0.592377 0.991723 0.619614
O O4 0.706864 0.057134 0.962816
O O5 0.303188 0.599348 0.195217
O O6 0.181205 0.655144 0.181478
O O7 0.923586 0.174941 0.631673
O O8 0.047091 0.245122 0.972435
O O9 0.926648 0.302759 0.907480
O O10 0.227108 0.352004 0.948199
#
# Coordination Sequence:
#
# PCOD9580541 Si02
#       5
#     6   6   6   6   6
#     4  10  22  42  64  93 130 177 227 280 338 399
#     4  12  27  40  64  94 136 184 230 284 333 394
#     4  10  22  38  73  88 140 169 228 282 336 409
#     4  10  20  40  62 100 130 173 219 282 330 400
#     4  10  22  42  64  93 130 177 227 280 338 399
#
# _framework density 21.169238
#
# number of rings (size 3 to 8) (size 9 to 14) (size 15 to 20)
#    0.000    1.600    2.000    1.800    5.600    0.000 
#    0.000    8.000    0.000    0.000    0.000    0.000 
#    0.000  944.000    0.000    0.000    0.000    0.000 
#
# Total GULP energy -167631.223599 kJ/mol
# GULP energy per Si atom -5587.707453 kJ/mol
# Density = 2.112106 g / cm^3
# Si number density = 21.169238 Si / 1000 Ang^3
#
#
#
# Elastic Constant Matrix: (Units=GPa)
#
#
# Indices 1 2 3 4 5 6 
#
# 1 81.1112 10.7069 5.6470 0.0000 0.0000 0.0000
# 2 10.7069 81.1112 5.6470 0.0000 0.0000 0.0000
# 3 5.6470 5.6470 46.9605 0.0000 0.0000 0.0000
# 4 0.0000 0.0000 0.0000 19.6146 0.0000 0.0000
# 5 0.0000 0.0000 0.0000 0.0000 19.6146 0.0000
# 6 0.0000 0.0000 0.0000 0.0000 0.0000 35.2022
#
#
#
# Elastic Compliance Matrix: (Units=1/GPa)
#
#
# Indices 1 2 3 4 5 6 
#
# 1 0.012629 -0.001575 -0.001329 0.000000 0.000000 0.000000
# 2 -0.001575 0.012629 -0.001329 0.000000 0.000000 0.000000
# 3 -0.001329 -0.001329 0.021614 0.000000 0.000000 0.000000
# 4 0.000000 0.000000 0.000000 0.050982 0.000000 0.000000
# 5 0.000000 0.000000 0.000000 0.000000 0.050982 0.000000
# 6 0.000000 0.000000 0.000000 0.000000 0.000000 0.028407
#
#
# Mechanical properties :
#
#
# Convention : Reuss Voigt Hill
#
# Bulk Modulus (GPa) = 26.03752 28.13164 27.08458
# Shear Modulus (GPa) = 25.18726 27.36508 26.27617
#
# Velocity S-wave (km/s) = 3.45310 3.59929 3.52695
# Velocity P-wave (km/s) = 5.31271 5.53091 5.42291
#
# Compressibility (1/GPa) = 0.03840612
#
# Stress axis : x y z
#
# Youngs Moduli (GPa) = 79.18193 79.18193 46.26591
#
# Poissons Ratio (x) = 0.12467 0.06150
# Poissons Ratio (y) = 0.12467 0.06150
# Poissons Ratio (z) = 0.10526 0.10526
#
# Static dielectric constant tensor:
#      x y z
#    x 1.770480 0.000000 0.000000 
#    y 0.000000 1.770480 0.000000 
#    z 0.000000 0.000000 1.779070 
# 
# From -- ./inp_files/615.got.cif
#   From: 2010.05.17/outbox.cif.g08.bks.cpg/sg171_1_cif.got.tgz:615.got - 2010.05.20 11:16:09.
