data_PCOD9580850
_publ_section_title
;
Structure prediction by ZEFSAII (Michael W. Deem and Ramdas Pophale) SiO2 
 PCOD9580850
Probable space group: P 62
;
_chemical_formula_sum "Si O2"
_cell_formula_units_Z 39
_cell_length_a 20.269655
_cell_length_b 20.269655
_cell_length_c 5.190318
_cell_angle_alpha 90.000000
_cell_angle_beta 90.000000
_cell_angle_gamma 120.000000
_cell_volume 1846.789141
_symmetry_space_group_name_H-M "P 62"
_symmetry_group_IT_number 171
_symmetry_cell_setting 'hexagonal'
loop_
_space_group_symop_operation_xyz
x,y,z
x-y,x,1/3+z
-y,x-y,2/3+z
-x,-y,z
-x+y,-x,1/3+z
y,-x+y,2/3+z
loop_
_atom_site_type_symbol
_atom_site_label
_atom_site_fract_x
_atom_site_fract_y
_atom_site_fract_z
Si Si1 0.000493 0.618694 0.872650
Si Si2 0.882477 0.151975 0.544139
Si Si3 0.518662 0.667305 0.314781
Si Si4 0.552920 0.765116 0.819524
Si Si5 0.775936 0.760262 0.712562
Si Si6 0.000000 0.500000 0.237647
Si Si7 0.133047 0.618516 0.601631
O O1 0.941515 0.581094 0.637805
O O2 0.998138 0.691108 0.975825
O O3 0.085634 0.639755 0.800506
O O4 0.973470 0.547730 0.063184
O O5 0.822271 0.181870 0.570057
O O6 0.933803 0.171408 0.804243
O O7 0.835653 0.063898 0.451613
O O8 0.935829 0.198054 0.305998
O O9 0.549322 0.728517 0.543785
O O10 0.434485 0.598293 0.381683
O O11 0.517255 0.703101 0.044360
O O12 0.504451 0.807685 0.806471
O O13 0.069848 0.561117 0.403135
#
# Coordination Sequence:
#
# PCOD9580850 Si02
#       7
#     6   6   6   6   6   3   6
#     4  12  24  39  75 105 139 184 238 304 368 424
#     4  12  26  47  75 111 147 189 226 304 354 446
#     4  12  26  46  66 101 141 191 235 305 356 436
#     4  12  28  44  71  98 146 188 245 302 369 419
#     4  12  27  45  76 110 152 181 237 290 379 422
#     4  12  22  42  72 104 136 184 246 312 348 432
#     4  12  26  44  70 101 138 192 253 299 365 422
#
# _framework density 21.117730000000002
#
# number of rings (size 3 to 8) (size 9 to 14) (size 15 to 20)
#    0.000    0.000    6.154    3.692    4.308    0.000 
#    2.769    0.000    0.000    4.615    0.000    0.000 
#    0.000    0.000    0.000    0.000    0.000    0.000 
#
# Total GULP energy -218189.515381 kJ/mol
# GULP energy per Si atom -5594.602958 kJ/mol
# Density = 2.106967 g / cm^3
# Si number density = 21.117730 Si / 1000 Ang^3
#
#
#
# Elastic Constant Matrix: (Units=GPa)
#
#
# Indices 1 2 3 4 5 6 
#
# 1 95.8219 31.5572 16.8913 0.0000 0.0000 0.0000
# 2 31.5572 95.8219 16.8913 0.0000 0.0000 0.0000
# 3 16.8913 16.8913 84.8876 0.0000 0.0000 0.0000
# 4 0.0000 0.0000 0.0000 28.8733 0.0000 0.0000
# 5 0.0000 0.0000 0.0000 0.0000 28.8733 0.0000
# 6 0.0000 0.0000 0.0000 0.0000 0.0000 32.1324
#
#
#
# Elastic Compliance Matrix: (Units=1/GPa)
#
#
# Indices 1 2 3 4 5 6 
#
# 1 0.011924 -0.003636 -0.001649 0.000000 0.000000 0.000000
# 2 -0.003636 0.011924 -0.001649 0.000000 0.000000 0.000000
# 3 -0.001649 -0.001649 0.012437 0.000000 0.000000 0.000000
# 4 0.000000 0.000000 0.000000 0.034634 0.000000 0.000000
# 5 0.000000 0.000000 0.000000 0.000000 0.034634 0.000000
# 6 0.000000 0.000000 0.000000 0.000000 0.000000 0.031121
#
#
# Mechanical properties :
#
#
# Convention : Reuss Voigt Hill
#
# Bulk Modulus (GPa) = 44.61135 45.24569 44.92852
# Shear Modulus (GPa) = 31.64236 32.05522 31.84879
#
# Velocity S-wave (km/s) = 3.87509 3.90029 3.88771
# Velocity P-wave (km/s) = 6.41815 6.46181 6.44002
#
# Compressibility (1/GPa) = 0.02241582
#
# Stress axis : x y z
#
# Youngs Moduli (GPa) = 83.86238 83.86238 80.40781
#
# Poissons Ratio (x) = 0.30495 0.13261
# Poissons Ratio (y) = 0.30495 0.13261
# Poissons Ratio (z) = 0.13830 0.13830
#
# Static dielectric constant tensor:
#      x y z
#    x 1.795620 0.000000 0.000000 
#    y 0.000000 1.795620 0.000000 
#    z 0.000000 0.000000 1.789620 
# 
# From -- ./inp_files/448.got.cif
#   From: 2010.05.17/outbox.cif.g08.bks.cpg/sg171_1_cif.got.tgz:448.got - 2010.05.20 11:16:09.
