data_PCOD9580977
_publ_section_title
;
Structure prediction by ZEFSAII (Michael W. Deem and Ramdas Pophale) SiO2 
 PCOD9580977
Probable space group: P 64
;
_chemical_formula_sum "Si O2"
_cell_formula_units_Z 30
_cell_length_a 11.404024
_cell_length_b 11.404024
_cell_length_c 9.112090
_cell_angle_alpha 90.000000
_cell_angle_beta 90.000000
_cell_angle_gamma 120.000000
_cell_volume 1026.277665
_symmetry_space_group_name_H-M "P 64"
_symmetry_group_IT_number 172
_symmetry_cell_setting 'hexagonal'
loop_
_space_group_symop_operation_xyz
x,y,z
x-y,x,2/3+z
-y,x-y,1/3+z
-x,-y,z
-x+y,-x,2/3+z
y,-x+y,1/3+z
loop_
_atom_site_type_symbol
_atom_site_label
_atom_site_fract_x
_atom_site_fract_y
_atom_site_fract_z
Si Si1 0.126992 0.425691 0.804430
Si Si2 0.037714 0.321106 0.183333
Si Si3 0.604587 0.426134 0.403979
Si Si4 0.962904 0.121007 0.930331
Si Si5 0.425540 0.565906 0.834188
O O1 0.272955 0.445332 0.850751
O O2 0.022325 0.269553 0.843119
O O3 0.129482 0.540767 0.911245
O O4 0.519939 0.640681 0.975439
O O5 0.158366 0.470537 0.152853
O O6 0.912139 0.338251 0.141240
O O7 0.061374 0.256043 0.325930
O O8 0.500000 0.500000 0.747778
O O9 0.726799 0.399120 0.415756
O O10 0.041699 0.201468 0.087277
O O11 0.000000 0.000000 0.919970
#
# Coordination Sequence:
#
# PCOD9580977 Si02
#       5
#     6   6   6   6   6
#     4  11  27  49  79 113 164 219 282 343 429 511
#     4  10  25  46  78 104 158 216 268 331 415 500
#     4  10  25  51  76 115 156 215 275 347 412 508
#     4  11  26  45  73 115 159 210 270 338 422 500
#     4  12  28  48  83 118 162 214 282 348 421 512
#
# _framework density 29.231856000000001
#
# number of rings (size 3 to 8) (size 9 to 14) (size 15 to 20)
#    0.000    1.200    2.000    0.600   16.800    1.600 
#    3.600    0.000    0.000    0.000    0.000    0.000 
#    0.000    0.000    0.000    0.000    0.000    0.000 
#
# Total GULP energy -167500.877953 kJ/mol
# GULP energy per Si atom -5583.362598 kJ/mol
# Density = 2.916532 g / cm^3
# Si number density = 29.231856 Si / 1000 Ang^3
#
#
#
# Elastic Constant Matrix: (Units=GPa)
#
#
# Indices 1 2 3 4 5 6 
#
# 1 258.6277 106.8021 39.8114 0.0000 0.0000 0.0000
# 2 106.8021 258.6277 39.8114 0.0000 0.0000 0.0000
# 3 39.8114 39.8114 100.1914 0.0000 0.0000 0.0000
# 4 0.0000 0.0000 0.0000 34.7974 0.0000 0.0000
# 5 0.0000 0.0000 0.0000 0.0000 34.7974 0.0000
# 6 0.0000 0.0000 0.0000 0.0000 0.0000 75.9128
#
#
#
# Elastic Compliance Matrix: (Units=1/GPa)
#
#
# Indices 1 2 3 4 5 6 
#
# 1 0.004791 -0.001795 -0.001190 0.000000 0.000000 0.000000
# 2 -0.001795 0.004791 -0.001190 0.000000 0.000000 0.000000
# 3 -0.001190 -0.001190 0.010927 0.000000 0.000000 0.000000
# 4 0.000000 0.000000 0.000000 0.028738 0.000000 0.000000
# 5 0.000000 0.000000 0.000000 0.000000 0.028738 0.000000
# 6 0.000000 0.000000 0.000000 0.000000 0.000000 0.013173
#
#
# Mechanical properties :
#
#
# Convention : Reuss Voigt Hill
#
# Bulk Modulus (GPa) = 82.25714 110.03297 96.14505
# Shear Modulus (GPa) = 48.28000 57.83631 53.05816
#
# Velocity S-wave (km/s) = 4.06843 4.45290 4.26500
# Velocity P-wave (km/s) = 7.09014 8.01005 7.56409
#
# Compressibility (1/GPa) = 0.01215700
#
# Stress axis : x y z
#
# Youngs Moduli (GPa) = 208.71627 208.71627 91.51697
#
# Poissons Ratio (x) = 0.37471 0.10894
# Poissons Ratio (y) = 0.37471 0.10894
# Poissons Ratio (z) = 0.24846 0.24846
#
# Static dielectric constant tensor:
#      x y z
#    x 2.364690 0.000000 0.000000 
#    y 0.000000 2.364690 0.000000 
#    z 0.000000 0.000000 2.645860 
# 
# From -- ./inp_files/614.got.cif
#   From: 2010.05.17/outbox.cif.g08.bks.cpg/sg172_1_cif.got.tgz:614.got - 2010.05.20 11:19:57.
