data_PCOD9580393
_publ_section_title
;
Structure prediction by ZEFSAII (Michael W. Deem and Ramdas Pophale) SiO2 
 PCOD9580393
Probable space group: P 65
;
_chemical_formula_sum "Si O2"
_cell_formula_units_Z 36
_cell_length_a 8.680726
_cell_length_b 8.680726
_cell_length_c 20.114372
_cell_angle_alpha 90.000000
_cell_angle_beta 90.000000
_cell_angle_gamma 120.000000
_cell_volume 1312.650795
_symmetry_space_group_name_H-M "P 65"
_symmetry_group_IT_number 170
_symmetry_cell_setting 'hexagonal'
loop_
_space_group_symop_operation_xyz
x,y,z
x-y,x,5/6+z
-y,x-y,2/3+z
-x,-y,1/2+z
-x+y,-x,1/3+z
y,-x+y,1/6+z
loop_
_atom_site_type_symbol
_atom_site_label
_atom_site_fract_x
_atom_site_fract_y
_atom_site_fract_z
Si Si1 0.271854 0.820299 0.259540
Si Si2 0.870359 0.427656 0.571387
Si Si3 0.533946 0.775528 0.944221
Si Si4 0.915158 0.084476 0.290539
Si Si5 0.384773 0.861371 0.750705
Si Si6 0.917623 0.814127 0.234107
O O1 0.359403 0.859925 0.332322
O O2 0.206814 0.615921 0.245402
O O3 0.112193 0.859727 0.257465
O O4 0.445154 0.964730 0.219985
O O5 0.718118 0.444717 0.611151
O O6 0.835646 0.228614 0.568867
O O7 0.066364 0.563837 0.595246
O O8 0.737232 0.827615 0.932540
O O9 0.503932 0.741961 0.022629
O O10 0.740929 0.104143 0.298475
O O11 0.853178 0.872770 0.312541
O O12 0.974009 0.104118 0.377891
#
# Coordination Sequence:
#
# PCOD9580393 Si02
#       6
#     6   6   6   6   6   6
#     4  11  26  49  79 110 152 202 258 318 389 460
#     4  11  26  49  76 113 152 200 259 319 385 463
#     4  11  26  46  75 111 150 201 253 313 384 452
#     4  12  25  47  74 108 150 192 252 314 380 455
#     4  11  24  48  75 106 151 198 250 313 382 450
#     4  12  27  47  77 108 151 199 250 319 384 460
#
# _framework density 27.425421
#
# number of rings (size 3 to 8) (size 9 to 14) (size 15 to 20)
#    0.000    0.667    3.333    3.000    9.333    1.333 
#    3.000    0.000    0.000    0.000    0.000    0.000 
#    0.000    0.000    0.000    0.000    0.000    0.000 
#
# Total GULP energy -201201.345579 kJ/mol
# GULP energy per Si atom -5588.926266 kJ/mol
# Density = 2.736300 g / cm^3
# Si number density = 27.425421 Si / 1000 Ang^3
#
#
#
# Elastic Constant Matrix: (Units=GPa)
#
#
# Indices 1 2 3 4 5 6 
#
# 1 198.0929 66.1842 33.1974 0.0000 0.0000 0.0000
# 2 66.1842 198.0929 33.1974 0.0000 0.0000 0.0000
# 3 33.1974 33.1974 72.9017 0.0000 0.0000 0.0000
# 4 0.0000 0.0000 0.0000 44.3491 0.0000 0.0000
# 5 0.0000 0.0000 0.0000 0.0000 44.3491 0.0000
# 6 0.0000 0.0000 0.0000 0.0000 0.0000 65.9543
#
#
#
# Elastic Compliance Matrix: (Units=1/GPa)
#
#
# Indices 1 2 3 4 5 6 
#
# 1 0.005927 -0.001654 -0.001946 0.000000 0.000000 0.000000
# 2 -0.001654 0.005927 -0.001946 0.000000 0.000000 0.000000
# 3 -0.001946 -0.001946 0.015489 0.000000 0.000000 0.000000
# 4 0.000000 0.000000 0.000000 0.022548 0.000000 0.000000
# 5 0.000000 0.000000 0.000000 0.000000 0.022548 0.000000
# 6 0.000000 0.000000 0.000000 0.000000 0.000000 0.015162
#
#
# Mechanical properties :
#
#
# Convention : Reuss Voigt Hill
#
# Bulk Modulus (GPa) = 61.53147 81.58283 71.55715
# Shear Modulus (GPa) = 48.02620 53.36441 50.69531
#
# Velocity S-wave (km/s) = 4.18922 4.41591 4.30406
# Velocity P-wave (km/s) = 6.77378 7.47075 7.13078
#
# Compressibility (1/GPa) = 0.01625185
#
# Stress axis : x y z
#
# Youngs Moduli (GPa) = 168.72330 168.72330 64.56148
#
# Poissons Ratio (x) = 0.27909 0.12562
# Poissons Ratio (y) = 0.27909 0.12562
# Poissons Ratio (z) = 0.32828 0.32828
#
# Static dielectric constant tensor:
#      x y z
#    x 2.081580 0.000000 0.000000 
#    y 0.000000 2.081580 0.000000 
#    z 0.000000 0.000000 3.157890 
# 
# From -- ./inp_files/1800.got.cif
#   From: 2010.05.17/outbox.cif.g08.bks.cpg/sg170_cif.got.tgz:1800.got - 2010.05.20 11:14:30.
