data_PCOD9580855
_publ_section_title
;
Structure prediction by ZEFSAII (Michael W. Deem and Ramdas Pophale) SiO2 
 PCOD9580855
Probable space group: P 62
;
_chemical_formula_sum "Si O2"
_cell_formula_units_Z 18
_cell_length_a 9.774464
_cell_length_b 9.774464
_cell_length_c 10.046584
_cell_angle_alpha 90.000000
_cell_angle_beta 90.000000
_cell_angle_gamma 120.000000
_cell_volume 831.256309
_symmetry_space_group_name_H-M "P 62"
_symmetry_group_IT_number 171
_symmetry_cell_setting 'hexagonal'
loop_
_space_group_symop_operation_xyz
x,y,z
x-y,x,1/3+z
-y,x-y,2/3+z
-x,-y,z
-x+y,-x,1/3+z
y,-x+y,2/3+z
loop_
_atom_site_type_symbol
_atom_site_label
_atom_site_fract_x
_atom_site_fract_y
_atom_site_fract_z
Si Si1 0.649192 0.139957 0.292940
Si Si2 0.751998 0.604965 0.471995
Si Si3 0.687948 0.603419 0.173628
O O1 0.564120 0.223017 0.216698
O O2 0.796717 0.234671 0.385364
O O3 0.500000 0.000000 0.374308
O O4 0.678205 0.036415 0.181831
O O5 0.742826 0.576047 0.315759
O O6 0.933437 0.713456 0.508975
O O7 0.500000 0.500000 0.162389
#
# Coordination Sequence:
#
# PCOD9580855 Si02
#       3
#     6   6   6
#     4   8  22  47  69 105 154 182 247 320 357 455
#     4   9  24  45  68 105 154 180 255 313 356 464
#     4  12  23  43  79 105 143 210 240 306 396 442
#
# _framework density 21.653969
#
# number of rings (size 3 to 8) (size 9 to 14) (size 15 to 20)
#    2.000    0.000    3.333    0.000    4.667    4.000 
#    0.000    5.000    0.000    0.000    0.000    0.000 
#    0.000    0.000    0.000    0.000    0.000    0.000 
#
# Total GULP energy -100313.913263 kJ/mol
# GULP energy per Si atom -5572.995181 kJ/mol
# Density = 2.160468 g / cm^3
# Si number density = 21.653969 Si / 1000 Ang^3
#
#
#
# Elastic Constant Matrix: (Units=GPa)
#
#
# Indices 1 2 3 4 5 6 
#
# 1 63.8519 10.7396 30.0514 0.0000 0.0000 0.0000
# 2 10.7396 63.8519 30.0514 0.0000 0.0000 0.0000
# 3 30.0514 30.0514 118.5273 0.0000 0.0000 0.0000
# 4 0.0000 0.0000 0.0000 29.7791 0.0000 0.0000
# 5 0.0000 0.0000 0.0000 0.0000 29.7791 0.0000
# 6 0.0000 0.0000 0.0000 0.0000 0.0000 26.5562
#
#
#
# Elastic Compliance Matrix: (Units=1/GPa)
#
#
# Indices 1 2 3 4 5 6 
#
# 1 0.017838 -0.000990 -0.004272 0.000000 0.000000 0.000000
# 2 -0.000990 0.017838 -0.004272 0.000000 0.000000 0.000000
# 3 -0.004272 -0.004272 0.010603 0.000000 0.000000 0.000000
# 4 0.000000 0.000000 0.000000 0.033581 0.000000 0.000000
# 5 0.000000 0.000000 0.000000 0.000000 0.033581 0.000000
# 6 0.000000 0.000000 0.000000 0.000000 0.000000 0.037656
#
#
# Mechanical properties :
#
#
# Convention : Reuss Voigt Hill
#
# Bulk Modulus (GPa) = 36.74747 43.10176 39.92461
# Shear Modulus (GPa) = 27.89647 28.91545 28.40596
#
# Velocity S-wave (km/s) = 3.59316 3.65820 3.62583
# Velocity P-wave (km/s) = 5.84992 6.14746 6.00053
#
# Compressibility (1/GPa) = 0.02721276
#
# Stress axis : x y z
#
# Youngs Moduli (GPa) = 56.05953 56.05953 94.31313
#
# Poissons Ratio (x) = 0.05549 0.40288
# Poissons Ratio (y) = 0.05549 0.40288
# Poissons Ratio (z) = 0.23947 0.23947
#
# Static dielectric constant tensor:
#      x y z
#    x 1.886230 0.000000 0.000000 
#    y 0.000000 1.886230 0.000000 
#    z 0.000000 0.000000 1.744200 
# 
# From -- ./inp_files/926.got.cif
#   From: 2010.05.17/outbox.cif.g08.bks.cpg/sg171_1_cif.got.tgz:926.got - 2010.05.20 11:16:09.
