data_PCOD9580924
_publ_section_title
;
Structure prediction by ZEFSAII (Michael W. Deem and Ramdas Pophale) SiO2 
 PCOD9580924
Probable space group: P 64
;
_chemical_formula_sum "Si O2"
_cell_formula_units_Z 42
_cell_length_a 21.947202
_cell_length_b 21.947202
_cell_length_c 5.423623
_cell_angle_alpha 90.000000
_cell_angle_beta 90.000000
_cell_angle_gamma 120.000000
_cell_volume 2262.447172
_symmetry_space_group_name_H-M "P 64"
_symmetry_group_IT_number 172
_symmetry_cell_setting 'hexagonal'
loop_
_space_group_symop_operation_xyz
x,y,z
x-y,x,2/3+z
-y,x-y,1/3+z
-x,-y,z
-x+y,-x,2/3+z
y,-x+y,1/3+z
loop_
_atom_site_type_symbol
_atom_site_label
_atom_site_fract_x
_atom_site_fract_y
_atom_site_fract_z
Si Si1 0.513609 0.163250 0.484070
Si Si2 0.680034 0.028350 0.190089
Si Si3 0.351741 0.189040 0.780495
Si Si4 0.291123 0.593539 0.469945
Si Si5 0.060208 0.698499 0.028811
Si Si6 0.794716 0.559090 0.947880
Si Si7 0.365358 0.860009 0.337234
O O1 0.565449 0.234243 0.632464
O O2 0.445310 0.111597 0.644968
O O3 0.483199 0.193682 0.278513
O O4 0.557254 0.127760 0.383837
O O5 0.763788 0.078567 0.137587
O O6 0.644479 0.077361 0.232146
O O7 0.666716 0.985295 0.444566
O O8 0.648284 0.982652 0.945111
O O9 0.323666 0.106590 0.740783
O O10 0.399344 0.218971 0.535625
O O11 0.392063 0.207708 0.041619
O O12 0.340340 0.626648 0.703516
O O13 0.211500 0.533932 0.513121
O O14 0.833629 0.513981 0.922063
#
# Coordination Sequence:
#
# PCOD9580924 Si02
#       7
#     6   6   6   6   6   6   6
#     4  11  22  37  57  82 117 154 197 267 325 362
#     4  11  24  42  62  89 118 156 203 239 301 382
#     4  10  21  42  66  80 114 152 193 240 280 348
#     4  12  23  40  60  86 111 150 226 272 313 370
#     4  11  24  42  62  89 118 156 203 239 301 382
#     4  10  20  38  56  82 104 154 204 238 304 370
#     4  11  22  37  57  82 117 154 197 267 325 362
#
# _framework density 18.563970000000001
#
# number of rings (size 3 to 8) (size 9 to 14) (size 15 to 20)
#    0.000    1.143    1.429    8.571    0.000    2.857 
#    0.000    4.286    0.000    0.000    0.000    0.000 
#    0.000    0.000    0.000    6.429    0.000    1.429 
#
# Total GULP energy -234236.805001 kJ/mol
# GULP energy per Si atom -5577.066786 kJ/mol
# Density = 1.852172 g / cm^3
# Si number density = 18.563970 Si / 1000 Ang^3
#
#
#
# Elastic Constant Matrix: (Units=GPa)
#
#
# Indices 1 2 3 4 5 6 
#
# 1 79.3837 34.9811 34.3391 0.0000 0.0000 0.0000
# 2 34.9811 79.3837 34.3391 0.0000 0.0000 0.0000
# 3 34.3391 34.3391 106.4810 0.0000 0.0000 0.0000
# 4 0.0000 0.0000 0.0000 32.1812 0.0000 0.0000
# 5 0.0000 0.0000 0.0000 0.0000 32.1812 0.0000
# 6 0.0000 0.0000 0.0000 0.0000 0.0000 22.2013
#
#
#
# Elastic Compliance Matrix: (Units=1/GPa)
#
#
# Indices 1 2 3 4 5 6 
#
# 1 0.016683 -0.005839 -0.003497 0.000000 0.000000 0.000000
# 2 -0.005839 0.016683 -0.003497 0.000000 0.000000 0.000000
# 3 -0.003497 -0.003497 0.011647 0.000000 0.000000 0.000000
# 4 0.000000 0.000000 0.000000 0.031074 0.000000 0.000000
# 5 0.000000 0.000000 0.000000 0.000000 0.031074 0.000000
# 6 0.000000 0.000000 0.000000 0.000000 0.000000 0.045042
#
#
# Mechanical properties :
#
#
# Convention : Reuss Voigt Hill
#
# Bulk Modulus (GPa) = 51.68875 52.50746 52.09810
# Shear Modulus (GPa) = 27.12717 28.08534 27.60625
#
# Velocity S-wave (km/s) = 3.82682 3.89382 3.86046
# Velocity P-wave (km/s) = 6.88695 6.96863 6.92791
#
# Compressibility (1/GPa) = 0.01934657
#
# Stress axis : x y z
#
# Youngs Moduli (GPa) = 59.94262 59.94262 85.85964
#
# Poissons Ratio (x) = 0.34998 0.30026
# Poissons Ratio (y) = 0.34998 0.30026
# Poissons Ratio (z) = 0.20963 0.20963
#
# Static dielectric constant tensor:
#      x y z
#    x 1.689340 0.000000 0.000000 
#    y 0.000000 1.689340 0.000000 
#    z 0.000000 0.000000 1.702410 
# 
# From -- ./inp_files/317.got.cif
#   From: 2010.05.17/outbox.cif.g08.bks.cpg/sg172_1_cif.got.tgz:317.got - 2010.05.20 11:19:57.
