data_PCOD9580705
_publ_section_title
;
Structure prediction by ZEFSAII (Michael W. Deem and Ramdas Pophale) SiO2 
 PCOD9580705
Probable space group: P 62
;
_chemical_formula_sum "Si O2"
_cell_formula_units_Z 45
_cell_length_a 11.314383
_cell_length_b 11.314383
_cell_length_c 19.557660
_cell_angle_alpha 90.000000
_cell_angle_beta 90.000000
_cell_angle_gamma 120.000000
_cell_volume 2168.249601
_symmetry_space_group_name_H-M "P 62"
_symmetry_group_IT_number 171
_symmetry_cell_setting 'hexagonal'
loop_
_space_group_symop_operation_xyz
x,y,z
x-y,x,1/3+z
-y,x-y,2/3+z
-x,-y,z
-x+y,-x,1/3+z
y,-x+y,2/3+z
loop_
_atom_site_type_symbol
_atom_site_label
_atom_site_fract_x
_atom_site_fract_y
_atom_site_fract_z
Si Si1 0.715999 0.749407 0.586800
Si Si2 0.320940 0.693533 0.564652
Si Si3 0.750663 0.769036 0.998178
Si Si4 0.064982 0.714382 0.575304
Si Si5 0.159099 0.108161 0.144279
Si Si6 0.762499 0.213508 0.993110
Si Si7 0.360795 0.857009 0.141711
Si Si8 0.500000 0.500000 0.955603
O O1 0.764096 0.890745 0.625613
O O2 0.813187 0.767322 0.522726
O O3 0.720358 0.641452 0.638639
O O4 0.576996 0.700646 0.546184
O O5 0.166916 0.662260 0.555978
O O6 0.310216 0.603807 0.631520
O O7 0.356315 0.631048 0.498572
O O8 0.421057 0.857398 0.577977
O O9 0.805300 0.857738 0.066045
O O10 0.692590 0.849227 0.956687
O O11 0.624142 0.614504 0.000465
O O12 0.038445 0.782930 0.510544
O O13 0.928192 0.614145 0.616732
O O14 0.000000 0.000000 0.152265
O O15 0.729571 0.179686 0.073189
O O16 0.500000 0.000000 0.129576
#
# Coordination Sequence:
#
# PCOD9580705 Si02
#       8
#     6   6   6   6   6   6   6   3
#     4  11  24  44  67 102 144 179 233 295 342 435
#     4  11  23  46  66  98 135 177 234 286 347 420
#     4  11  23  42  68  97 137 178 228 283 352 415
#     4  10  23  44  65  96 136 175 224 287 337 418
#     4  11  24  38  65 100 131 175 224 278 347 405
#     4  11  25  43  73 101 139 182 233 290 357 416
#     4  12  24  45  73 101 140 187 233 294 358 420
#     4  10  24  46  68  88 136 180 218 290 340 414
#
# _framework density 20.754066999999999
#
# number of rings (size 3 to 8) (size 9 to 14) (size 15 to 20)
#    0.000    1.067    4.000    2.000    5.600    2.133 
#    4.800    0.000    0.000    0.000    0.000    0.000 
#    0.000    0.000    0.000    0.000    0.000    0.000 
#
# Total GULP energy -251060.071175 kJ/mol
# GULP energy per Si atom -5579.112693 kJ/mol
# Density = 2.070683 g / cm^3
# Si number density = 20.754067 Si / 1000 Ang^3
#
#
#
# Elastic Constant Matrix: (Units=GPa)
#
#
# Indices 1 2 3 4 5 6 
#
# 1 82.6584 32.7138 34.1776 0.0000 0.0000 0.0000
# 2 32.7138 82.6584 34.1776 0.0000 0.0000 0.0000
# 3 34.1776 34.1776 108.5355 0.0000 0.0000 0.0000
# 4 0.0000 0.0000 0.0000 21.3246 0.0000 0.0000
# 5 0.0000 0.0000 0.0000 0.0000 21.3246 0.0000
# 6 0.0000 0.0000 0.0000 0.0000 0.0000 24.9723
#
#
#
# Elastic Compliance Matrix: (Units=1/GPa)
#
#
# Indices 1 2 3 4 5 6 
#
# 1 0.015339 -0.004683 -0.003355 0.000000 0.000000 0.000000
# 2 -0.004683 0.015339 -0.003355 0.000000 0.000000 0.000000
# 3 -0.003355 -0.003355 0.011327 0.000000 0.000000 0.000000
# 4 0.000000 0.000000 0.000000 0.046894 0.000000 0.000000
# 5 0.000000 0.000000 0.000000 0.000000 0.046894 0.000000
# 6 0.000000 0.000000 0.000000 0.000000 0.000000 0.040044
#
#
# Mechanical properties :
#
#
# Convention : Reuss Voigt Hill
#
# Bulk Modulus (GPa) = 52.03910 52.88779 52.46345
# Shear Modulus (GPa) = 24.38653 25.04317 24.71485
#
# Velocity S-wave (km/s) = 3.43158 3.47747 3.45460
# Velocity P-wave (km/s) = 6.38980 6.45463 6.42230
#
# Compressibility (1/GPa) = 0.01921632
#
# Stress axis : x y z
#
# Youngs Moduli (GPa) = 65.19369 65.19369 88.28617
#
# Poissons Ratio (x) = 0.30532 0.29624
# Poissons Ratio (y) = 0.30532 0.29624
# Poissons Ratio (z) = 0.21875 0.21875
#
# Static dielectric constant tensor:
#      x y z
#    x 1.844180 0.000000 0.000000 
#    y 0.000000 1.844180 0.000000 
#    z 0.000000 0.000000 1.641780 
# 
# From -- ./inp_files/5062.got.cif
#   From: 2010.05.17/outbox.cif.g08.bks.cpg/sg171_3_cif.got.tgz:5062.got - 2010.05.20 11:16:09.
