data_PCOD9580232
_publ_section_title
;
Structure prediction by ZEFSAII (Michael W. Deem and Ramdas Pophale) SiO2 
 PCOD9580232
Probable space group: P 65
;
_chemical_formula_sum "Si O2"
_cell_formula_units_Z 42
_cell_length_a 19.935149
_cell_length_b 19.935149
_cell_length_c 5.131125
_cell_angle_alpha 90.000000
_cell_angle_beta 90.000000
_cell_angle_gamma 120.000000
_cell_volume 1765.965433
_symmetry_space_group_name_H-M "P 65"
_symmetry_group_IT_number 170
_symmetry_cell_setting 'hexagonal'
loop_
_space_group_symop_operation_xyz
x,y,z
x-y,x,5/6+z
-y,x-y,2/3+z
-x,-y,1/2+z
-x+y,-x,1/3+z
y,-x+y,1/6+z
loop_
_atom_site_type_symbol
_atom_site_label
_atom_site_fract_x
_atom_site_fract_y
_atom_site_fract_z
Si Si1 0.131351 0.479682 0.047850
Si Si2 0.827969 0.088134 0.480893
Si Si3 0.563781 0.129740 0.387329
Si Si4 0.964078 0.354781 0.034629
Si Si5 0.732224 0.671350 0.205948
Si Si6 0.717681 0.299181 0.846794
Si Si7 0.832045 0.885483 0.811772
O O1 0.132812 0.507579 0.343384
O O2 0.218997 0.501781 0.971317
O O3 0.057130 0.395221 0.021284
O O4 0.116296 0.531058 0.839815
O O5 0.879281 0.180802 0.440512
O O6 0.841618 0.082939 0.788404
O O7 0.739527 0.029453 0.400822
O O8 0.863144 0.050499 0.280354
O O9 0.479182 0.062980 0.306835
O O10 0.566449 0.212156 0.370068
O O11 0.937474 0.324585 0.325091
O O12 0.922553 0.285709 0.828132
O O13 0.726375 0.357748 0.617855
O O14 0.889936 0.865782 0.664460
#
# Coordination Sequence:
#
# PCOD9580232 Si02
#       7
#     6   6   6   6   6   6   6
#     4  11  23  41  69  97 141 177 225 288 347 416
#     4  12  24  45  66  94 128 181 216 287 344 392
#     4  11  23  41  69  97 141 177 225 288 347 416
#     4  12  26  45  66 102 133 192 232 270 336 424
#     4  12  26  45  70  92 137 176 240 280 338 420
#     4  10  20  38  65 104 136 173 228 293 356 390
#     4  12  22  39  65  96 126 156 218 278 344 410
#
# _framework density 23.783024999999999
#
# number of rings (size 3 to 8) (size 9 to 14) (size 15 to 20)
#    0.000    0.571    4.286    4.286    0.000    3.429 
#    0.000    0.000    0.000    0.000    0.000    0.000 
#    0.000    0.000    0.000    0.000    0.000    0.000 
#
# Total GULP energy -234389.434268 kJ/mol
# GULP energy per Si atom -5580.700816 kJ/mol
# Density = 2.372889 g / cm^3
# Si number density = 23.783025 Si / 1000 Ang^3
#
#
#
# Elastic Constant Matrix: (Units=GPa)
#
#
# Indices 1 2 3 4 5 6 
#
# 1 50.3239 -7.5595 9.4003 0.0000 0.0000 0.0000
# 2 -7.5595 50.3239 9.4003 0.0000 0.0000 0.0000
# 3 9.4003 9.4003 88.6954 0.0000 0.0000 0.0000
# 4 0.0000 0.0000 0.0000 27.5808 0.0000 0.0000
# 5 0.0000 0.0000 0.0000 0.0000 27.5808 0.0000
# 6 0.0000 0.0000 0.0000 0.0000 0.0000 28.9417
#
#
#
# Elastic Compliance Matrix: (Units=1/GPa)
#
#
# Indices 1 2 3 4 5 6 
#
# 1 0.020901 0.003625 -0.002599 0.000000 0.000000 0.000000
# 2 0.003625 0.020901 -0.002599 0.000000 0.000000 0.000000
# 3 -0.002599 -0.002599 0.011826 0.000000 0.000000 0.000000
# 4 0.000000 0.000000 0.000000 0.036257 0.000000 0.000000
# 5 0.000000 0.000000 0.000000 0.000000 0.036257 0.000000
# 6 0.000000 0.000000 0.000000 0.000000 0.000000 0.034552
#
#
# Mechanical properties :
#
#
# Convention : Reuss Voigt Hill
#
# Bulk Modulus (GPa) = 19.80935 23.53616 21.67275
# Shear Modulus (GPa) = 27.67490 28.69412 28.18451
#
# Velocity S-wave (km/s) = 3.41492 3.47723 3.44622
# Velocity P-wave (km/s) = 4.88837 5.10286 4.99677
#
# Compressibility (1/GPa) = 0.05048121
#
# Stress axis : x y z
#
# Youngs Moduli (GPa) = 47.84367 47.84367 84.56274
#
# Poissons Ratio (x) = -0.17345 0.21982
# Poissons Ratio (y) = -0.17345 0.21982
# Poissons Ratio (z) = 0.12437 0.12437
#
# Static dielectric constant tensor:
#      x y z
#    x 1.956260 0.000000 0.000000 
#    y 0.000000 1.956260 0.000000 
#    z 0.000000 0.000000 1.853020 
# 
# From -- ./inp_files/274.got.cif
#   From: 2010.05.17/outbox.cif.g08.bks.cpg/sg170_cif.got.tgz:274.got - 2010.05.20 11:14:30.
