data_PCOD9580340
_publ_section_title
;
Structure prediction by ZEFSAII (Michael W. Deem and Ramdas Pophale) SiO2 
 PCOD9580340
Probable space group: P 65
;
_chemical_formula_sum "Si O2"
_cell_formula_units_Z 36
_cell_length_a 16.766000
_cell_length_b 16.766000
_cell_length_c 6.463398
_cell_angle_alpha 90.000000
_cell_angle_beta 90.000000
_cell_angle_gamma 120.000000
_cell_volume 1573.440972
_symmetry_space_group_name_H-M "P 65"
_symmetry_group_IT_number 170
_symmetry_cell_setting 'hexagonal'
loop_
_space_group_symop_operation_xyz
x,y,z
x-y,x,5/6+z
-y,x-y,2/3+z
-x,-y,1/2+z
-x+y,-x,1/3+z
y,-x+y,1/6+z
loop_
_atom_site_type_symbol
_atom_site_label
_atom_site_fract_x
_atom_site_fract_y
_atom_site_fract_z
Si Si1 0.525569 0.604086 0.614160
Si Si2 0.094617 0.784450 0.886453
Si Si3 0.892701 0.654008 0.713174
Si Si4 0.898643 0.356780 0.693763
Si Si5 0.080842 0.199382 0.886354
Si Si6 0.274069 0.579182 0.813691
O O1 0.560647 0.672726 0.810080
O O2 0.604582 0.585463 0.526992
O O3 0.440105 0.510539 0.697106
O O4 0.489181 0.653605 0.455638
O O5 0.167030 0.814715 0.699484
O O6 0.991317 0.718303 0.815085
O O7 0.111056 0.728937 0.066007
O O8 0.102354 0.874310 0.993540
O O9 0.898136 0.708196 0.503920
O O10 0.793881 0.321542 0.765800
O O11 0.973683 0.129828 0.854906
O O12 0.334027 0.618786 0.608622
#
# Coordination Sequence:
#
# PCOD9580340 Si02
#       6
#     6   6   6   6   6   6
#     4  11  26  46  72 109 143 190 246 310 366 441
#     4  12  26  45  74 106 144 197 240 303 366 429
#     4  12  26  45  74 106 144 197 240 303 366 429
#     4  11  26  46  72 109 143 190 246 310 366 441
#     4  12  25  44  68 106 152 192 252 294 351 436
#     4  10  25  46  72 102 144 192 236 296 365 440
#
# _framework density 22.879788999999999
#
# number of rings (size 3 to 8) (size 9 to 14) (size 15 to 20)
#    0.000    0.667    3.333    3.000    7.000    6.667 
#    0.000    0.000    0.000    0.000    0.000    0.000 
#    0.000    0.000    0.000    0.000    0.000    0.000 
#
# Total GULP energy -201456.158465 kJ/mol
# GULP energy per Si atom -5596.004402 kJ/mol
# Density = 2.282771 g / cm^3
# Si number density = 22.879789 Si / 1000 Ang^3
#
#
#
# Elastic Constant Matrix: (Units=GPa)
#
#
# Indices 1 2 3 4 5 6 
#
# 1 72.6137 10.0631 -2.7154 0.0000 0.0000 0.0000
# 2 10.0631 72.6137 -2.7154 0.0000 0.0000 0.0000
# 3 -2.7154 -2.7154 17.1200 0.0000 0.0000 0.0000
# 4 0.0000 0.0000 0.0000 40.1281 0.0000 0.0000
# 5 0.0000 0.0000 0.0000 0.0000 40.1281 0.0000
# 6 0.0000 0.0000 0.0000 0.0000 0.0000 31.2753
#
#
#
# Elastic Compliance Matrix: (Units=1/GPa)
#
#
# Indices 1 2 3 4 5 6 
#
# 1 0.014105 -0.001882 0.001939 0.000000 0.000000 0.000000
# 2 -0.001882 0.014105 0.001939 0.000000 0.000000 0.000000
# 3 0.001939 0.001939 0.059026 0.000000 0.000000 0.000000
# 4 0.000000 0.000000 0.000000 0.024920 0.000000 0.000000
# 5 0.000000 0.000000 0.000000 0.000000 0.024920 0.000000
# 6 0.000000 0.000000 0.000000 0.000000 0.000000 0.031974
#
#
# Mechanical properties :
#
#
# Convention : Reuss Voigt Hill
#
# Bulk Modulus (GPa) = 10.96176 19.06799 15.01487
# Shear Modulus (GPa) = 25.57950 32.82063 29.20006
#
# Velocity S-wave (km/s) = 3.34727 3.79156 3.57632
# Velocity P-wave (km/s) = 4.44302 5.24595 4.86109
#
# Compressibility (1/GPa) = 0.09122621
#
# Stress axis : x y z
#
# Youngs Moduli (GPa) = 70.89762 70.89762 16.94160
#
# Poissons Ratio (x) = 0.13344 -0.03284
# Poissons Ratio (y) = 0.13344 -0.03284
# Poissons Ratio (z) = -0.13745 -0.13745
#
# Static dielectric constant tensor:
#      x y z
#    x 1.854160 0.000000 0.000000 
#    y 0.000000 1.854160 0.000000 
#    z 0.000000 0.000000 1.843990 
# 
# From -- ./inp_files/594.got.cif
#   From: 2010.05.17/outbox.cif.g08.bks.cpg/sg170_cif.got.tgz:594.got - 2010.05.20 11:14:30.
