data_PCOD9580142
_publ_section_title
;
Structure prediction by ZEFSAII (Michael W. Deem and Ramdas Pophale) SiO2 
 PCOD9580142
Probable space group: P 61
;
_chemical_formula_sum "Si O2"
_cell_formula_units_Z 18
_cell_length_a 7.747291
_cell_length_b 7.747291
_cell_length_c 12.482719
_cell_angle_alpha 90.000000
_cell_angle_beta 90.000000
_cell_angle_gamma 120.000000
_cell_volume 648.842911
_symmetry_space_group_name_H-M "P 61"
_symmetry_group_IT_number 169
_symmetry_cell_setting 'hexagonal'
loop_
_space_group_symop_operation_xyz
x,y,z
x-y,x,1/6+z
-y,x-y,1/3+z
-x,-y,1/2+z
-x+y,-x,2/3+z
y,-x+y,5/6+z
loop_
_atom_site_type_symbol
_atom_site_label
_atom_site_fract_x
_atom_site_fract_y
_atom_site_fract_z
Si Si1 0.668690 0.787138 0.479220
Si Si2 0.328060 0.135534 0.468715
Si Si3 0.812104 0.376767 0.990904
O O1 0.776826 0.777029 0.586939
O O2 0.693751 0.625364 0.404481
O O3 0.431199 0.718634 0.490452
O O4 0.241088 0.188029 0.568977
O O5 0.411203 0.301858 0.378602
O O6 0.504394 0.128489 0.534421
#
# Coordination Sequence:
#
# PCOD9580142 Si02
#       3
#     6   6   6
#     4  12  27  54  95 133 185 245 317 390 476 572
#     4  12  27  51  89 130 179 244 316 392 481 568
#     4  12  24  51  92 129 182 247 311 390 473 566
#
# _framework density 27.741695
#
# number of rings (size 3 to 8) (size 9 to 14) (size 15 to 20)
#    0.000    0.000    6.667    2.000    0.000    0.000 
#    0.000    6.667   58.667    0.000    0.000    0.000 
#    0.000    0.000    0.000    0.000    0.000    0.000 
#
# Total GULP energy -100651.108272 kJ/mol
# GULP energy per Si atom -5591.728237 kJ/mol
# Density = 2.767855 g / cm^3
# Si number density = 27.741695 Si / 1000 Ang^3
#
#
#
# Elastic Constant Matrix: (Units=GPa)
#
#
# Indices 1 2 3 4 5 6 
#
# 1 356.8577 -119.6265 91.9282 0.0000 0.0000 0.0000
# 2 -119.6265 356.8577 91.9282 0.0000 0.0000 0.0000
# 3 91.9282 91.9282 169.9528 0.0000 0.0000 0.0000
# 4 0.0000 0.0000 0.0000 70.7825 0.0000 0.0000
# 5 0.0000 0.0000 0.0000 0.0000 70.7825 0.0000
# 6 0.0000 0.0000 0.0000 0.0000 0.0000 238.2421
#
#
#
# Elastic Compliance Matrix: (Units=1/GPa)
#
#
# Indices 1 2 3 4 5 6 
#
# 1 0.004678 0.002580 -0.003926 0.000000 0.000000 0.000000
# 2 0.002580 0.004678 -0.003926 0.000000 0.000000 0.000000
# 3 -0.003926 -0.003926 0.010131 0.000000 0.000000 0.000000
# 4 0.000000 0.000000 0.000000 0.014128 0.000000 0.000000
# 5 0.000000 0.000000 0.000000 0.000000 0.014128 0.000000
# 6 0.000000 0.000000 0.000000 0.000000 0.000000 0.004197
#
#
# Mechanical properties :
#
#
# Convention : Reuss Voigt Hill
#
# Bulk Modulus (GPa) = 111.81395 112.45870 112.13632
# Shear Modulus (GPa) = 76.37596 130.59062 103.48329
#
# Velocity S-wave (km/s) = 5.25270 6.86848 6.11420
# Velocity P-wave (km/s) = 8.78526 10.17483 9.50547
#
# Compressibility (1/GPa) = 0.00894343
#
# Stress axis : x y z
#
# Youngs Moduli (GPa) = 213.75465 213.75465 98.70756
#
# Poissons Ratio (x) = -0.55139 0.38750
# Poissons Ratio (y) = -0.55139 0.38750
# Poissons Ratio (z) = 0.83915 0.83915
#
# Static dielectric constant tensor:
#      x y z
#    x 2.776550 0.000000 0.000000 
#    y 0.000000 2.776550 0.000000 
#    z 0.000000 0.000000 2.019250 
# 
# From -- ./inp_files/818.got.cif
#   From: 2010.05.17/outbox.cif.g08.bks.cpg/sg169_cif.got.tgz:818.got - 2010.05.20 11:12:54.
