data_PCOD9580045
_publ_section_title
;
Structure prediction by ZEFSAII (Michael W. Deem and Ramdas Pophale) SiO2 
 PCOD9580045
Probable space group: P 61
;
_chemical_formula_sum "Si O2"
_cell_formula_units_Z 24
_cell_length_a 12.860785
_cell_length_b 12.860785
_cell_length_c 8.218397
_cell_angle_alpha 90.000000
_cell_angle_beta 90.000000
_cell_angle_gamma 120.000000
_cell_volume 1177.206643
_symmetry_space_group_name_H-M "P 61"
_symmetry_group_IT_number 169
_symmetry_cell_setting 'hexagonal'
loop_
_space_group_symop_operation_xyz
x,y,z
x-y,x,1/6+z
-y,x-y,1/3+z
-x,-y,1/2+z
-x+y,-x,2/3+z
y,-x+y,5/6+z
loop_
_atom_site_type_symbol
_atom_site_label
_atom_site_fract_x
_atom_site_fract_y
_atom_site_fract_z
Si Si1 0.521615 0.760807 0.930440
Si Si2 0.698878 0.160027 0.110798
Si Si3 0.839973 0.301122 0.416748
Si Si4 0.463428 0.536572 0.763773
O O1 0.581349 0.811953 0.754861
O O2 0.454676 0.837533 0.956149
O O3 0.581349 0.769396 0.106019
O O4 0.454676 0.617143 0.904731
O O5 0.783943 0.216057 0.263773
O O6 0.605778 0.211557 0.097107
O O7 0.603281 0.018543 0.130348
O O8 0.981457 0.396719 0.397199
#
# Coordination Sequence:
#
# PCOD9580045 Si02
#       4
#     6   6   6   6
#     4  12  22  37  60  78 136 166 223 284 306 424
#     4  10  24  37  57  87 122 170 233 266 328 415
#     4  10  24  37  57  87 122 170 233 266 328 415
#     4  10  26  39  58  98 122 190 233 256 364 408
#
# _framework density 20.387245
#
# number of rings (size 3 to 8) (size 9 to 14) (size 15 to 20)
#    1.500    0.000    0.000    4.500   17.500    0.000 
#    0.000    0.000    0.000    0.000    0.000    0.000 
#    0.000    0.000  136.000    1.000    0.000    0.000 
#
# Total GULP energy -133623.001928 kJ/mol
# GULP energy per Si atom -5567.625080 kJ/mol
# Density = 2.034084 g / cm^3
# Si number density = 20.387245 Si / 1000 Ang^3
#
#
#
# Elastic Constant Matrix: (Units=GPa)
#
#
# Indices 1 2 3 4 5 6 
#
# 1 113.2056 32.4612 51.9902 0.0000 0.0000 0.0000
# 2 32.4612 113.2056 51.9902 0.0000 0.0000 0.0000
# 3 51.9902 51.9902 198.6724 0.0000 0.0000 0.0000
# 4 0.0000 0.0000 0.0000 21.3977 0.0000 0.0000
# 5 0.0000 0.0000 0.0000 0.0000 21.3977 0.0000
# 6 0.0000 0.0000 0.0000 0.0000 0.0000 40.3722
#
#
#
# Elastic Compliance Matrix: (Units=1/GPa)
#
#
# Indices 1 2 3 4 5 6 
#
# 1 0.010413 -0.001971 -0.002209 0.000000 0.000000 0.000000
# 2 -0.001971 0.010413 -0.002209 0.000000 0.000000 0.000000
# 3 -0.002209 -0.002209 0.006190 0.000000 0.000000 0.000000
# 4 0.000000 0.000000 0.000000 0.046734 0.000000 0.000000
# 5 0.000000 0.000000 0.000000 0.000000 0.046734 0.000000
# 6 0.000000 0.000000 0.000000 0.000000 0.000000 0.024770
#
#
# Mechanical properties :
#
#
# Convention : Reuss Voigt Hill
#
# Bulk Modulus (GPa) = 70.24013 77.55186 73.89599
# Shear Modulus (GPa) = 30.71648 35.87630 33.29639
#
# Velocity S-wave (km/s) = 3.88577 4.19948 4.04567
# Velocity P-wave (km/s) = 7.39325 7.85087 7.62549
#
# Compressibility (1/GPa) = 0.01423688
#
# Stress axis : x y z
#
# Youngs Moduli (GPa) = 96.03063 96.03063 161.56058
#
# Poissons Ratio (x) = 0.18932 0.35691
# Poissons Ratio (y) = 0.18932 0.35691
# Poissons Ratio (z) = 0.21215 0.21215
#
# Static dielectric constant tensor:
#      x y z
#    x 1.744020 0.000000 0.000000 
#    y 0.000000 1.744020 0.000000 
#    z 0.000000 0.000000 1.837050 
# 
# From -- ./inp_files/469.got.cif
#   From: 2010.05.17/outbox.cif.g08.bks.cpg/sg169_cif.got.tgz:469.got - 2010.05.20 11:12:54.
