data_PCOD9580749
_publ_section_title
;
Structure prediction by ZEFSAII (Michael W. Deem and Ramdas Pophale) SiO2 
 PCOD9580749
Probable space group: P 62
;
_chemical_formula_sum "Si O2"
_cell_formula_units_Z 39
_cell_length_a 12.025984
_cell_length_b 12.025984
_cell_length_c 13.716709
_cell_angle_alpha 90.000000
_cell_angle_beta 90.000000
_cell_angle_gamma 120.000000
_cell_volume 1717.994623
_symmetry_space_group_name_H-M "P 62"
_symmetry_group_IT_number 171
_symmetry_cell_setting 'hexagonal'
loop_
_space_group_symop_operation_xyz
x,y,z
x-y,x,1/3+z
-y,x-y,2/3+z
-x,-y,z
-x+y,-x,1/3+z
y,-x+y,2/3+z
loop_
_atom_site_type_symbol
_atom_site_label
_atom_site_fract_x
_atom_site_fract_y
_atom_site_fract_z
Si Si1 0.704300 0.720265 0.965510
Si Si2 0.000000 0.500000 0.445065
Si Si3 0.500000 0.000000 0.257513
Si Si4 0.000000 0.000000 0.847130
Si Si5 0.381862 0.236964 0.485609
Si Si6 0.763648 0.275595 0.542916
Si Si7 0.155095 0.146419 0.354342
Si Si8 0.261364 0.649230 0.031773
O O1 0.779673 0.667435 0.894734
O O2 0.618493 0.768200 0.907284
O O3 0.603553 0.611643 0.039659
O O4 0.795128 0.854211 0.023152
O O5 0.887134 0.411529 0.519455
O O6 0.635682 0.042563 0.206822
O O7 0.527470 0.127832 0.312604
O O8 0.074721 0.113418 0.771809
O O9 0.080253 0.958723 0.916194
O O10 0.298393 0.230590 0.389836
O O11 0.519685 0.276431 0.440763
O O12 0.704382 0.240448 0.435709
O O13 0.688129 0.308139 0.625810
#
# Coordination Sequence:
#
# PCOD9580749 Si02
#       8
#     6   3   3   3   6   6   6   6
#     4  12  27  51  78 109 158 211 262 326 408 485
#     4  12  28  46  80 108 152 204 268 324 400 476
#     4  12  28  48  82 114 156 204 266 328 398 480
#     4  10  24  48  70 106 150 192 248 310 376 476
#     4  12  28  47  80 115 156 207 260 329 407 475
#     4  12  27  50  78 114 152 209 261 327 395 481
#     4  11  26  45  74 110 148 196 254 312 385 477
#     4  12  26  52  77 112 154 199 259 326 400 473
#
# _framework density 22.700887000000002
#
# number of rings (size 3 to 8) (size 9 to 14) (size 15 to 20)
#    0.000    0.308    4.615    2.769   10.769    0.000 
#    0.000    0.000    0.000    0.000    0.000    0.000 
#    0.000    0.000    0.000    0.000    0.000    0.000 
#
# Total GULP energy -217138.001315 kJ/mol
# GULP energy per Si atom -5567.641059 kJ/mol
# Density = 2.264922 g / cm^3
# Si number density = 22.700887 Si / 1000 Ang^3
#
#
#
# Elastic Constant Matrix: (Units=GPa)
#
#
# Indices 1 2 3 4 5 6 
#
# 1 39.9650 72.1885 41.1689 0.0000 0.0000 0.0000
# 2 72.1885 39.9650 41.1689 0.0000 0.0000 0.0000
# 3 41.1689 41.1689 118.5702 0.0000 0.0000 0.0000
# 4 0.0000 0.0000 0.0000 48.0959 0.0000 0.0000
# 5 0.0000 0.0000 0.0000 0.0000 48.0959 0.0000
# 6 0.0000 0.0000 0.0000 0.0000 0.0000 -16.1118
#
#
#
# Elastic Compliance Matrix: (Units=1/GPa)
#
#
# Indices 1 2 3 4 5 6 
#
# 1 -0.009533 0.021500 -0.004155 0.000000 0.000000 0.000000
# 2 0.021500 -0.009533 -0.004155 0.000000 0.000000 0.000000
# 3 -0.004155 -0.004155 0.011319 0.000000 0.000000 0.000000
# 4 0.000000 0.000000 0.000000 0.020792 0.000000 0.000000
# 5 0.000000 0.000000 0.000000 0.000000 0.020792 0.000000
# 6 0.000000 0.000000 0.000000 0.000000 0.000000 -0.062066
#
#
# Mechanical properties :
#
#
# Convention : Reuss Voigt Hill
#
# Bulk Modulus (GPa) = 53.66912 56.39474 55.03193
# Shear Modulus (GPa) = -103.30739 18.94759 -42.17990
#
# Velocity S-wave (km/s) = -6.75329 2.89219 -4.31521
# Velocity P-wave (km/s) = 6.09229 6.00412 0.73025
#
# Compressibility (1/GPa) = 0.01863269
#
# Stress axis : x y z
#
# Youngs Moduli (GPa) = -104.89627 -104.89627 88.34598
#
# Poissons Ratio (x) = 2.25527 0.36708
# Poissons Ratio (y) = 2.25527 0.36708
# Poissons Ratio (z) = -0.43584 -0.43584
#
# Static dielectric constant tensor:
#      x y z
#    x 1.925730 0.000000 0.000000 
#    y 0.000000 1.925730 0.000000 
#    z 0.000000 0.000000 1.873580 
# 
# From -- ./inp_files/2047.got.cif
#   From: 2010.05.17/outbox.cif.g08.bks.cpg/sg171_2_cif.got.tgz:2047.got - 2010.05.20 11:16:09.
