data_PCOD9580416
_publ_section_title
;
Structure prediction by ZEFSAII (Michael W. Deem and Ramdas Pophale) SiO2 
 PCOD9580416
Probable space group: P 62
;
_chemical_formula_sum "Si O2"
_cell_formula_units_Z 30
_cell_length_a 10.759820
_cell_length_b 10.759820
_cell_length_c 11.445144
_cell_angle_alpha 90.000000
_cell_angle_beta 90.000000
_cell_angle_gamma 120.000000
_cell_volume 1147.524338
_symmetry_space_group_name_H-M "P 62"
_symmetry_group_IT_number 171
_symmetry_cell_setting 'hexagonal'
loop_
_space_group_symop_operation_xyz
x,y,z
x-y,x,1/3+z
-y,x-y,2/3+z
-x,-y,z
-x+y,-x,1/3+z
y,-x+y,2/3+z
loop_
_atom_site_type_symbol
_atom_site_label
_atom_site_fract_x
_atom_site_fract_y
_atom_site_fract_z
Si Si1 0.076243 0.673266 0.016160
Si Si2 0.931600 0.327446 0.766829
Si Si3 0.672057 0.605173 0.185015
Si Si4 0.929371 0.326481 0.268996
Si Si5 0.688495 0.320099 0.644115
O O1 0.045337 0.718588 0.142172
O O2 0.245473 0.726331 0.004922
O O3 0.000000 0.500000 0.020185
O O4 0.037492 0.715798 0.891970
O O5 0.972687 0.286239 0.642736
O O6 0.762333 0.276768 0.748777
O O7 0.000000 0.500000 0.768069
O O8 0.500000 0.500000 0.185040
O O9 0.717917 0.483916 0.205433
O O10 0.717663 0.682308 0.060587
O O11 0.764805 0.286118 0.283357
O O12 0.000000 0.500000 0.271043
#
# Coordination Sequence:
#
# PCOD9580416 Si02
#       5
#     6   6   6   6   6
#     4  10  18  25  35  53  72  92 122 151 176 213
#     4   8  16  27  38  52  68  91 122 151 180 215
#     4   8  16  27  38  52  68  91 122 151 180 215
#     4  10  18  25  35  53  72  92 122 151 176 213
#     4  10  17  28  42  52  72 104 125 148 184 214
#
# _framework density 26.143236000000002
#
# number of rings (size 3 to 8) (size 9 to 14) (size 15 to 20)
#    1.200    1.600    0.000    3.600    0.000    0.000 
#    0.000    0.000    0.000    0.000    0.000    0.000 
#    0.000    0.000    0.000    7.200    0.000  144.000 
#
# Total GULP energy -167040.533905 kJ/mol
# GULP energy per Si atom -5568.017797 kJ/mol
# Density = 2.608373 g / cm^3
# Si number density = 26.143236 Si / 1000 Ang^3
#
#
#
# Elastic Constant Matrix: (Units=GPa)
#
#
# Indices 1 2 3 4 5 6 
#
# 1 43.8381 22.4797 3.0224 0.0000 0.0000 0.0000
# 2 22.4797 43.8381 3.0224 0.0000 0.0000 0.0000
# 3 3.0224 3.0224 375.9984 0.0000 0.0000 0.0000
# 4 0.0000 0.0000 0.0000 7.3121 0.0000 0.0000
# 5 0.0000 0.0000 0.0000 0.0000 7.3121 0.0000
# 6 0.0000 0.0000 0.0000 0.0000 0.0000 10.6792
#
#
#
# Elastic Compliance Matrix: (Units=1/GPa)
#
#
# Indices 1 2 3 4 5 6 
#
# 1 0.030955 -0.015865 -0.000121 0.000000 0.000000 0.000000
# 2 -0.015865 0.030955 -0.000121 0.000000 0.000000 0.000000
# 3 -0.000121 -0.000121 0.002662 0.000000 0.000000 0.000000
# 4 0.000000 0.000000 0.000000 0.136761 0.000000 0.000000
# 5 0.000000 0.000000 0.000000 0.000000 0.136761 0.000000
# 6 0.000000 0.000000 0.000000 0.000000 0.000000 0.093640
#
#
# Mechanical properties :
#
#
# Convention : Reuss Voigt Hill
#
# Bulk Modulus (GPa) = 30.90594 57.85819 44.38206
# Shear Modulus (GPa) = 10.53223 34.07067 22.30145
#
# Velocity S-wave (km/s) = 2.00933 3.61395 2.92387
# Velocity P-wave (km/s) = 4.15098 6.29233 5.33029
#
# Compressibility (1/GPa) = 0.03235624
#
# Stress axis : x y z
#
# Youngs Moduli (GPa) = 32.30498 32.30498 375.72288
#
# Poissons Ratio (x) = 0.51252 0.04557
# Poissons Ratio (y) = 0.51252 0.04557
# Poissons Ratio (z) = 0.00392 0.00392
#
# Static dielectric constant tensor:
#      x y z
#    x 2.099930 0.000000 0.000000 
#    y 0.000000 2.099930 0.000000 
#    z 0.000000 0.000000 2.275580 
# 
# From -- ./inp_files/1894.got.cif
#   From: 2010.05.17/outbox.cif.g08.bks.cpg/sg171_1_cif.got.tgz:1894.got - 2010.05.20 11:16:09.
