data_PCOD9580444
_publ_section_title
;
Structure prediction by ZEFSAII (Michael W. Deem and Ramdas Pophale) SiO2 
 PCOD9580444
Probable space group: P 62
;
_chemical_formula_sum "Si O2"
_cell_formula_units_Z 36
_cell_length_a 8.252503
_cell_length_b 8.252503
_cell_length_c 25.777420
_cell_angle_alpha 90.000000
_cell_angle_beta 90.000000
_cell_angle_gamma 120.000000
_cell_volume 1520.342588
_symmetry_space_group_name_H-M "P 62"
_symmetry_group_IT_number 171
_symmetry_cell_setting 'hexagonal'
loop_
_space_group_symop_operation_xyz
x,y,z
x-y,x,1/3+z
-y,x-y,2/3+z
-x,-y,z
-x+y,-x,1/3+z
y,-x+y,2/3+z
loop_
_atom_site_type_symbol
_atom_site_label
_atom_site_fract_x
_atom_site_fract_y
_atom_site_fract_z
Si Si1 0.952713 0.649430 0.307970
Si Si2 0.781341 0.843999 0.172512
Si Si3 0.192441 0.490648 0.416392
Si Si4 0.804791 0.800162 0.699167
Si Si5 0.144415 0.456108 0.131756
Si Si6 0.718650 0.066094 0.942556
O O1 0.805924 0.553815 0.356163
O O2 0.856405 0.734361 0.273254
O O3 0.000000 0.500000 0.285234
O O4 0.138159 0.817359 0.332538
O O5 0.672918 0.847779 0.120442
O O6 0.771815 0.643587 0.166599
O O7 0.661441 0.829256 0.223473
O O8 0.000000 0.000000 0.173470
O O9 0.335606 0.691210 0.439179
O O10 0.000000 0.500000 0.418778
O O11 0.693791 0.725738 0.752507
O O12 0.837183 0.660856 0.662754
O O13 0.000000 0.000000 0.706003
O O14 0.000000 0.500000 0.159779
O O15 0.500000 0.000000 0.940988
#
# Coordination Sequence:
#
# PCOD9580444 Si02
#       6
#     6   6   6   6   6   6
#     4  10  18  36  61  88 119 166 204 251 315 382
#     4  11  22  43  65  87 120 176 213 257 319 389
#     4   9  18  36  62  86 117 167 202 252 317 379
#     4  10  20  37  59  89 120 163 212 257 306 385
#     4  11  22  36  63  93 127 157 212 263 320 382
#     4  11  25  38  60  93 129 161 213 270 319 383
#
# _framework density 23.678875999999999
#
# number of rings (size 3 to 8) (size 9 to 14) (size 15 to 20)
#    0.000    1.667    5.000    3.500    4.667    0.667 
#    0.000    0.833    0.000    2.000    0.000    0.000 
#    0.000    0.000    0.000    0.000    0.000    0.000 
#
# Total GULP energy -200919.090980 kJ/mol
# GULP energy per Si atom -5581.085861 kJ/mol
# Density = 2.362498 g / cm^3
# Si number density = 23.678876 Si / 1000 Ang^3
#
#
#
# Elastic Constant Matrix: (Units=GPa)
#
#
# Indices 1 2 3 4 5 6 
#
# 1 66.4904 -2.7948 6.0692 0.0000 0.0000 0.0000
# 2 -2.7948 66.4904 6.0692 0.0000 0.0000 0.0000
# 3 6.0692 6.0692 118.0971 0.0000 0.0000 0.0000
# 4 0.0000 0.0000 0.0000 16.4405 0.0000 0.0000
# 5 0.0000 0.0000 0.0000 0.0000 16.4405 0.0000
# 6 0.0000 0.0000 0.0000 0.0000 0.0000 34.6426
#
#
#
# Elastic Compliance Matrix: (Units=1/GPa)
#
#
# Indices 1 2 3 4 5 6 
#
# 1 0.015144 0.000711 -0.000815 0.000000 0.000000 0.000000
# 2 0.000711 0.015144 -0.000815 0.000000 0.000000 0.000000
# 3 -0.000815 -0.000815 0.008551 0.000000 0.000000 0.000000
# 4 0.000000 0.000000 0.000000 0.060825 0.000000 0.000000
# 5 0.000000 0.000000 0.000000 0.000000 0.060825 0.000000
# 6 0.000000 0.000000 0.000000 0.000000 0.000000 0.028866
#
#
# Mechanical properties :
#
#
# Convention : Reuss Voigt Hill
#
# Bulk Modulus (GPa) = 27.02554 29.97388 28.49971
# Shear Modulus (GPa) = 24.56669 29.62035 27.09352
#
# Velocity S-wave (km/s) = 3.22451 3.54067 3.38628
# Velocity P-wave (km/s) = 5.03005 5.42228 5.22984
#
# Compressibility (1/GPa) = 0.03700204
#
# Stress axis : x y z
#
# Youngs Moduli (GPa) = 66.03263 66.03263 116.94050
#
# Poissons Ratio (x) = -0.04694 0.09528
# Poissons Ratio (y) = -0.04694 0.09528
# Poissons Ratio (z) = 0.05380 0.05380
#
# Static dielectric constant tensor:
#      x y z
#    x 1.931440 0.000000 0.000000 
#    y 0.000000 1.931440 0.000000 
#    z 0.000000 0.000000 1.964270 
# 
# From -- ./inp_files/5746.got.cif
#   From: 2010.05.17/outbox.cif.g08.bks.cpg/sg171_3_cif.got.tgz:5746.got - 2010.05.20 11:16:09.
