data_PCOD9580519
_publ_section_title
;
Structure prediction by ZEFSAII (Michael W. Deem and Ramdas Pophale) SiO2 
 PCOD9580519
Probable space group: P 62
;
_chemical_formula_sum "Si O2"
_cell_formula_units_Z 48
_cell_length_a 11.844562
_cell_length_b 11.844562
_cell_length_c 18.689416
_cell_angle_alpha 90.000000
_cell_angle_beta 90.000000
_cell_angle_gamma 120.000000
_cell_volume 2270.724123
_symmetry_space_group_name_H-M "P 62"
_symmetry_group_IT_number 171
_symmetry_cell_setting 'hexagonal'
loop_
_space_group_symop_operation_xyz
x,y,z
x-y,x,1/3+z
-y,x-y,2/3+z
-x,-y,z
-x+y,-x,1/3+z
y,-x+y,2/3+z
loop_
_atom_site_type_symbol
_atom_site_label
_atom_site_fract_x
_atom_site_fract_y
_atom_site_fract_z
Si Si1 0.568050 0.360954 0.349240
Si Si2 0.576036 0.693517 0.588583
Si Si3 0.196318 0.373994 0.387569
Si Si4 0.465078 0.746821 0.203013
Si Si5 0.634928 0.006830 0.410477
Si Si6 0.461043 0.743875 0.769523
Si Si7 0.910303 0.673961 0.772911
Si Si8 0.416983 0.054386 0.656359
O O1 0.685550 0.508062 0.343524
O O2 0.495855 0.295007 0.276001
O O3 0.633241 0.279039 0.382285
O O4 0.462359 0.347418 0.406146
O O5 0.431869 0.589198 0.559402
O O6 0.619094 0.645821 0.658068
O O7 0.673346 0.730836 0.522504
O O8 0.581300 0.827874 0.612938
O O9 0.223479 0.439804 0.467841
O O10 0.216415 0.250473 0.397495
O O11 0.061980 0.340755 0.349641
O O12 0.337680 0.615615 0.175229
O O13 0.738572 0.146475 0.442598
O O14 0.500000 0.000000 0.432645
O O15 0.663290 0.893266 0.431657
O O16 0.499780 0.875770 0.727933
O O17 0.500000 0.000000 0.616479
#
# Coordination Sequence:
#
# PCOD9580519 Si02
#       8
#     6   6   6   6   6   6   6   6
#     4  11  20  38  60 101 131 162 217 282 342 403
#     4  11  23  37  68  94 126 173 226 274 340 402
#     4  11  25  41  65  92 147 175 217 288 350 416
#     4  11  19  38  67  99 125 177 219 279 360 403
#     4  11  21  38  62  93 132 167 223 285 326 407
#     4  10  20  37  61  94 130 166 221 276 329 400
#     4  12  25  40  60 102 132 175 223 280 346 410
#     4  11  20  43  65  96 134 181 221 282 345 414
#
# _framework density 21.138632000000001
#
# number of rings (size 3 to 8) (size 9 to 14) (size 15 to 20)
#    0.000    1.000    8.750    0.375    3.500    2.500 
#    4.500    2.500    0.000    3.000    0.000    0.000 
#    0.000    0.000    0.000    0.000    0.000    0.000 
#
# Total GULP energy -267862.419740 kJ/mol
# GULP energy per Si atom -5580.467078 kJ/mol
# Density = 2.109052 g / cm^3
# Si number density = 21.138632 Si / 1000 Ang^3
#
#
#
# Elastic Constant Matrix: (Units=GPa)
#
#
# Indices 1 2 3 4 5 6 
#
# 1 73.2701 11.0525 2.3355 0.0000 0.0000 0.0000
# 2 11.0525 73.2701 2.3355 0.0000 0.0000 0.0000
# 3 2.3355 2.3355 61.8997 0.0000 0.0000 0.0000
# 4 0.0000 0.0000 0.0000 17.5095 0.0000 0.0000
# 5 0.0000 0.0000 0.0000 0.0000 17.5095 0.0000
# 6 0.0000 0.0000 0.0000 0.0000 0.0000 31.1088
#
#
#
# Elastic Compliance Matrix: (Units=1/GPa)
#
#
# Indices 1 2 3 4 5 6 
#
# 1 0.013978 -0.002094 -0.000448 0.000000 0.000000 0.000000
# 2 -0.002094 0.013978 -0.000448 0.000000 0.000000 0.000000
# 3 -0.000448 -0.000448 0.016189 0.000000 0.000000 0.000000
# 4 0.000000 0.000000 0.000000 0.057112 0.000000 0.000000
# 5 0.000000 0.000000 0.000000 0.000000 0.057112 0.000000
# 6 0.000000 0.000000 0.000000 0.000000 0.000000 0.032145
#
#
# Mechanical properties :
#
#
# Convention : Reuss Voigt Hill
#
# Bulk Modulus (GPa) = 26.20299 26.65408 26.42853
# Shear Modulus (GPa) = 23.89852 26.07332 24.98592
#
# Velocity S-wave (km/s) = 3.36603 3.51585 3.44176
# Velocity P-wave (km/s) = 5.24686 5.39613 5.32202
#
# Compressibility (1/GPa) = 0.03816359
#
# Stress axis : x y z
#
# Youngs Moduli (GPa) = 71.53926 71.53926 61.77030
#
# Poissons Ratio (x) = 0.14982 0.02770
# Poissons Ratio (y) = 0.14982 0.02770
# Poissons Ratio (z) = 0.03208 0.03208
#
# Static dielectric constant tensor:
#      x y z
#    x 1.819050 0.000000 0.000000 
#    y 0.000000 1.819050 0.000000 
#    z 0.000000 0.000000 1.782560 
# 
# From -- ./inp_files/5213.got.cif
#   From: 2010.05.17/outbox.cif.g08.bks.cpg/sg171_3_cif.got.tgz:5213.got - 2010.05.20 11:16:09.
