data_PCOD9580532
_publ_section_title
;
Structure prediction by ZEFSAII (Michael W. Deem and Ramdas Pophale) SiO2 
 PCOD9580532
Probable space group: P 62
;
_chemical_formula_sum "Si O2"
_cell_formula_units_Z 45
_cell_length_a 18.810136
_cell_length_b 18.810136
_cell_length_c 7.971370
_cell_angle_alpha 90.000000
_cell_angle_beta 90.000000
_cell_angle_gamma 120.000000
_cell_volume 2442.572542
_symmetry_space_group_name_H-M "P 62"
_symmetry_group_IT_number 171
_symmetry_cell_setting 'hexagonal'
loop_
_space_group_symop_operation_xyz
x,y,z
x-y,x,1/3+z
-y,x-y,2/3+z
-x,-y,z
-x+y,-x,1/3+z
y,-x+y,2/3+z
loop_
_atom_site_type_symbol
_atom_site_label
_atom_site_fract_x
_atom_site_fract_y
_atom_site_fract_z
Si Si1 0.761928 0.235756 0.023550
Si Si2 0.891413 0.338575 0.447873
Si Si3 0.459110 0.253745 0.975063
Si Si4 0.317008 0.245541 0.730860
Si Si5 0.500000 0.000000 0.957120
Si Si6 0.596946 0.416958 0.828963
Si Si7 0.470815 0.373835 0.568647
Si Si8 0.101231 0.783971 0.201799
O O1 0.773919 0.326571 0.035951
O O2 0.700742 0.184791 0.175316
O O3 0.845279 0.234320 0.066990
O O4 0.733207 0.196045 0.840857
O O5 0.832057 0.285885 0.598331
O O6 0.844043 0.365805 0.317822
O O7 0.916982 0.281464 0.348748
O O8 0.967103 0.420431 0.512373
O O9 0.381495 0.251104 0.876740
O O10 0.544434 0.324737 0.896380
O O11 0.375467 0.327161 0.620441
O O12 0.292649 0.164587 0.618687
O O13 0.239823 0.252236 0.796235
O O14 0.433397 0.933529 0.079405
O O15 0.527137 0.423441 0.724768
#
# Coordination Sequence:
#
# PCOD9580532 Si02
#       8
#     6   6   6   6   3   6   6   6
#     4  10  21  39  54  81 110 150 198 249 290 343
#     4  10  23  35  52  79 108 149 197 242 289 339
#     4  10  21  39  54  81 110 150 198 249 290 343
#     4   9  20  38  60  82 116 153 185 239 298 354
#     4  12  24  34  52  88 104 150 202 240 292 342
#     4  10  20  39  56  72 110 152 194 234 292 330
#     4  10  23  35  52  79 108 149 197 242 289 339
#     4   9  20  38  60  82 116 153 185 239 298 354
#
# _framework density 18.423200000000001
#
# number of rings (size 3 to 8) (size 9 to 14) (size 15 to 20)
#    0.000    2.133    0.000    4.000   11.200    0.000 
#   14.400    0.000    0.000    0.000    0.000    0.000 
#    0.000    5.333    0.000    0.000    0.000    0.000 
#
# Total GULP energy -250844.331643 kJ/mol
# GULP energy per Si atom -5574.318481 kJ/mol
# Density = 1.838127 g / cm^3
# Si number density = 18.423200 Si / 1000 Ang^3
#
#
#
# Elastic Constant Matrix: (Units=GPa)
#
#
# Indices 1 2 3 4 5 6 
#
# 1 60.9849 28.4786 6.6562 0.0000 0.0000 0.0000
# 2 28.4786 60.9849 6.6562 0.0000 0.0000 0.0000
# 3 6.6562 6.6562 62.5511 0.0000 0.0000 0.0000
# 4 0.0000 0.0000 0.0000 -845.2595 -0.0006 0.0000
# 5 0.0000 0.0000 0.0000 -0.0006 -845.2595 0.0000
# 6 0.0000 0.0000 0.0000 0.0000 0.0000 16.2532
#
#
#
# Elastic Compliance Matrix: (Units=1/GPa)
#
#
# Indices 1 2 3 4 5 6 
#
# 1 0.021060 -0.009703 -0.001209 0.000000 0.000000 0.000000
# 2 -0.009703 0.021060 -0.001209 0.000000 0.000000 0.000000
# 3 -0.001209 -0.001209 0.016244 0.000000 0.000000 0.000000
# 4 0.000000 0.000000 0.000000 -0.001183 0.000000 0.000000
# 5 0.000000 0.000000 0.000000 0.000000 -0.001183 0.000000
# 6 0.000000 0.000000 0.000000 0.000000 0.000000 0.061527
#
#
# Mechanical properties :
#
#
# Convention : Reuss Voigt Hill
#
# Bulk Modulus (GPa) = 29.30408 29.78924 29.54666
# Shear Modulus (GPa) = 32.64978 -325.33784 -146.34403
#
# Velocity S-wave (km/s) = 4.21433 -13.30319 -8.92228
# Velocity P-wave (km/s) = 6.29455 14.82437 9.49053
#
# Compressibility (1/GPa) = 0.03412494
#
# Stress axis : x y z
#
# Youngs Moduli (GPa) = 47.48245 47.48245 61.56060
#
# Poissons Ratio (x) = 0.46071 0.07440
# Poissons Ratio (y) = 0.46071 0.07440
# Poissons Ratio (z) = 0.05739 0.05739
#
# Static dielectric constant tensor:
#      x y z
#    x 4.888130 0.000000 0.000000 
#    y 0.000000 4.888130 0.000000 
#    z 0.000000 0.000000 1.659000 
# 
# From -- ./inp_files/4460.got.cif
#   From: 2010.05.17/outbox.cif.g08.bks.cpg/sg171_3_cif.got.tgz:4460.got - 2010.05.20 11:16:09.
