data_PCOD9580571
_publ_section_title
;
Structure prediction by ZEFSAII (Michael W. Deem and Ramdas Pophale) SiO2 
 PCOD9580571
Probable space group: P 62
;
_chemical_formula_sum "Si O2"
_cell_formula_units_Z 36
_cell_length_a 10.155490
_cell_length_b 10.155490
_cell_length_c 18.817621
_cell_angle_alpha 90.000000
_cell_angle_beta 90.000000
_cell_angle_gamma 120.000000
_cell_volume 1680.726759
_symmetry_space_group_name_H-M "P 62"
_symmetry_group_IT_number 171
_symmetry_cell_setting 'hexagonal'
loop_
_space_group_symop_operation_xyz
x,y,z
x-y,x,1/3+z
-y,x-y,2/3+z
-x,-y,z
-x+y,-x,1/3+z
y,-x+y,2/3+z
loop_
_atom_site_type_symbol
_atom_site_label
_atom_site_fract_x
_atom_site_fract_y
_atom_site_fract_z
Si Si1 0.162185 0.551086 0.467070
Si Si2 0.611343 0.364408 0.583918
Si Si3 0.500000 0.500000 0.706790
Si Si4 0.275802 0.117773 0.590240
Si Si5 0.000000 0.000000 0.835025
Si Si6 0.320411 0.193717 0.756388
Si Si7 0.551810 0.676905 0.977405
O O1 0.286090 0.546034 0.517169
O O2 0.200002 0.720488 0.442418
O O3 0.138166 0.449151 0.396357
O O4 0.000000 0.500000 0.503212
O O5 0.587211 0.448869 0.650553
O O6 0.440880 0.238058 0.560005
O O7 0.697009 0.278834 0.613513
O O8 0.374472 0.371769 0.757733
O O9 0.138645 0.118829 0.550651
O O10 0.290922 0.158419 0.672956
O O11 0.240373 0.943428 0.597032
O O12 0.839611 0.921110 0.792735
O O13 0.500000 0.500000 0.967479
#
# Coordination Sequence:
#
# PCOD9580571 Si02
#       7
#     6   6   3   6   3   6   6
#     4  11  20  38  69  93 123 172 236 277 333 407
#     4  10  21  36  66  93 125 172 230 280 337 406
#     4  10  22  42  64  88 140 178 220 282 350 408
#     4  10  21  42  61  92 135 177 216 279 345 407
#     4  12  26  36  66 104 136 176 228 280 342 418
#     4  11  23  42  64  96 133 179 215 283 341 414
#     4   9  16  38  62  84 121 168 217 264 328 408
#
# _framework density 21.419307
#
# number of rings (size 3 to 8) (size 9 to 14) (size 15 to 20)
#    0.000    1.667    6.667    1.500    2.333    2.667 
#    0.000    1.667    1.833    0.000    0.000    0.000 
#    0.000    0.000    0.000    0.000    0.000    0.000 
#
# Total GULP energy -200506.838996 kJ/mol
# GULP energy per Si atom -5569.634417 kJ/mol
# Density = 2.137056 g / cm^3
# Si number density = 21.419307 Si / 1000 Ang^3
#
#
#
# Elastic Constant Matrix: (Units=GPa)
#
#
# Indices 1 2 3 4 5 6 
#
# 1 83.4917 30.0683 31.0613 0.0000 0.0000 0.0000
# 2 30.0683 83.4917 31.0613 0.0000 0.0000 0.0000
# 3 31.0613 31.0613 65.0510 0.0000 0.0000 0.0000
# 4 0.0000 0.0000 0.0000 25.7531 0.0000 0.0000
# 5 0.0000 0.0000 0.0000 0.0000 25.7531 0.0000
# 6 0.0000 0.0000 0.0000 0.0000 0.0000 26.7117
#
#
#
# Elastic Compliance Matrix: (Units=1/GPa)
#
#
# Indices 1 2 3 4 5 6 
#
# 1 0.015319 -0.003399 -0.005691 0.000000 0.000000 0.000000
# 2 -0.003399 0.015319 -0.005691 0.000000 0.000000 0.000000
# 3 -0.005691 -0.005691 0.020808 0.000000 0.000000 0.000000
# 4 0.000000 0.000000 0.000000 0.038830 0.000000 0.000000
# 5 0.000000 0.000000 0.000000 0.000000 0.038830 0.000000
# 6 0.000000 0.000000 0.000000 0.000000 0.000000 0.037437
#
#
# Mechanical properties :
#
#
# Convention : Reuss Voigt Hill
#
# Bulk Modulus (GPa) = 45.70197 46.26847 45.98522
# Shear Modulus (GPa) = 24.58195 24.96647 24.77421
#
# Velocity S-wave (km/s) = 3.39138 3.41780 3.40462
# Velocity P-wave (km/s) = 6.05957 6.10109 6.08037
#
# Compressibility (1/GPa) = 0.02188089
#
# Stress axis : x y z
#
# Youngs Moduli (GPa) = 65.27889 65.27889 48.05896
#
# Poissons Ratio (x) = 0.22192 0.27352
# Poissons Ratio (y) = 0.22192 0.27352
# Poissons Ratio (z) = 0.37153 0.37153
#
# Static dielectric constant tensor:
#      x y z
#    x 1.881730 0.000000 0.000000 
#    y 0.000000 1.881730 0.000000 
#    z 0.000000 0.000000 1.825240 
# 
# From -- ./inp_files/3666.got.cif
#   From: 2010.05.17/outbox.cif.g08.bks.cpg/sg171_2_cif.got.tgz:3666.got - 2010.05.20 11:16:09.
