data_PCOD9580803
_publ_section_title
;
Structure prediction by ZEFSAII (Michael W. Deem and Ramdas Pophale) SiO2 
 PCOD9580803
Probable space group: P 62
;
_chemical_formula_sum "Si O2"
_cell_formula_units_Z 39
_cell_length_a 22.157329
_cell_length_b 22.157329
_cell_length_c 4.851260
_cell_angle_alpha 90.000000
_cell_angle_beta 90.000000
_cell_angle_gamma 120.000000
_cell_volume 2062.623661
_symmetry_space_group_name_H-M "P 62"
_symmetry_group_IT_number 171
_symmetry_cell_setting 'hexagonal'
loop_
_space_group_symop_operation_xyz
x,y,z
x-y,x,1/3+z
-y,x-y,2/3+z
-x,-y,z
-x+y,-x,1/3+z
y,-x+y,2/3+z
loop_
_atom_site_type_symbol
_atom_site_label
_atom_site_fract_x
_atom_site_fract_y
_atom_site_fract_z
Si Si1 0.932355 0.573282 0.075180
Si Si2 0.573289 0.932363 0.765121
Si Si3 0.601109 0.731959 0.203007
Si Si4 0.050613 0.813483 0.007745
Si Si5 0.869156 0.268045 0.970629
Si Si6 0.000000 0.500000 0.753498
Si Si7 0.813493 0.050625 0.832685
O O1 0.874556 0.551170 0.310111
O O2 0.999995 0.627270 0.253485
O O3 0.908637 0.601401 0.815658
O O4 0.953391 0.519890 0.945230
O O5 0.551171 0.874567 0.530175
O O6 0.601410 0.908641 0.024628
O O7 0.519898 0.953398 0.895098
O O8 0.580226 0.790116 0.253493
O O9 0.680740 0.774113 0.090733
O O10 0.093367 0.774105 0.082946
O O11 0.108776 0.891208 0.920174
O O12 0.999979 0.774714 0.753593
O O13 0.000009 0.807406 0.253592
#
# Coordination Sequence:
#
# PCOD9580803 Si02
#       7
#     6   6   6   6   6   3   6
#     4  12  22  38  58  87 127 166 206 249 305 378
#     4  12  22  38  58  87 127 166 206 249 305 378
#     4  11  23  37  59  88 124 162 202 253 313 375
#     4  11  22  36  56  82 111 152 196 241 298 359
#     4  11  23  37  59  88 124 162 202 253 313 375
#     4  12  26  36  62  92 126 180 210 248 312 388
#     4  11  22  36  56  82 111 152 196 241 298 359
#
# _framework density 18.907958000000001
#
# number of rings (size 3 to 8) (size 9 to 14) (size 15 to 20)
#    0.000    0.615    3.077    6.923    0.000    4.923 
#    0.000    0.000    0.000    4.615    0.000    0.000 
#    9.231    0.615    0.000    0.000    0.000    0.000 
#
# Total GULP energy -217763.640729 kJ/mol
# GULP energy per Si atom -5583.683096 kJ/mol
# Density = 1.886492 g / cm^3
# Si number density = 18.907958 Si / 1000 Ang^3
#
#
#
# Elastic Constant Matrix: (Units=GPa)
#
#
# Indices 1 2 3 4 5 6 
#
# 1 89.6685 61.1878 53.4167 0.0000 0.0000 0.0000
# 2 61.1878 89.6685 53.4167 0.0000 0.0000 0.0000
# 3 53.4167 53.4167 141.0847 0.0000 0.0000 0.0000
# 4 0.0000 0.0000 0.0000 27.7894 0.0000 0.0000
# 5 0.0000 0.0000 0.0000 0.0000 27.7894 0.0000
# 6 0.0000 0.0000 0.0000 0.0000 0.0000 14.2403
#
#
#
# Elastic Compliance Matrix: (Units=1/GPa)
#
#
# Indices 1 2 3 4 5 6 
#
# 1 0.022084 -0.013027 -0.003429 0.000000 0.000000 0.000000
# 2 -0.013027 0.022084 -0.003429 0.000000 0.000000 0.000000
# 3 -0.003429 -0.003429 0.009685 0.000000 0.000000 0.000000
# 4 0.000000 0.000000 0.000000 0.035985 0.000000 0.000000
# 5 0.000000 0.000000 0.000000 0.000000 0.035985 0.000000
# 6 0.000000 0.000000 0.000000 0.000000 0.000000 0.070223
#
#
# Mechanical properties :
#
#
# Convention : Reuss Voigt Hill
#
# Bulk Modulus (GPa) = 71.01068 72.94045 71.97557
# Shear Modulus (GPa) = 20.78900 24.12387 22.45644
#
# Velocity S-wave (km/s) = 3.31944 3.57579 3.45000
# Velocity P-wave (km/s) = 7.23389 7.46383 7.34976
#
# Compressibility (1/GPa) = 0.01408239
#
# Stress axis : x y z
#
# Youngs Moduli (GPa) = 45.28073 45.28073 103.25608
#
# Poissons Ratio (x) = 0.58988 0.35409
# Poissons Ratio (y) = 0.58988 0.35409
# Poissons Ratio (z) = 0.15528 0.15528
#
# Static dielectric constant tensor:
#      x y z
#    x 1.678840 0.000000 0.000000 
#    y 0.000000 1.678840 0.000000 
#    z 0.000000 0.000000 1.736560 
# 
# From -- ./inp_files/450.got.cif
#   From: 2010.05.17/outbox.cif.g08.bks.cpg/sg171_1_cif.got.tgz:450.got - 2010.05.20 11:16:09.
