data_PCOD9580898
_publ_section_title
;
Structure prediction by ZEFSAII (Michael W. Deem and Ramdas Pophale) SiO2 
 PCOD9580898
Probable space group: P 64
;
_chemical_formula_sum "Si O2"
_cell_formula_units_Z 36
_cell_length_a 9.278425
_cell_length_b 9.278425
_cell_length_c 22.731463
_cell_angle_alpha 90.000000
_cell_angle_beta 90.000000
_cell_angle_gamma 120.000000
_cell_volume 1694.753513
_symmetry_space_group_name_H-M "P 64"
_symmetry_group_IT_number 172
_symmetry_cell_setting 'hexagonal'
loop_
_space_group_symop_operation_xyz
x,y,z
x-y,x,2/3+z
-y,x-y,1/3+z
-x,-y,z
-x+y,-x,2/3+z
y,-x+y,1/3+z
loop_
_atom_site_type_symbol
_atom_site_label
_atom_site_fract_x
_atom_site_fract_y
_atom_site_fract_z
Si Si1 0.536289 0.784810 0.561780
Si Si2 0.846518 0.525410 0.099768
Si Si3 0.500000 0.500000 0.644119
Si Si4 0.849041 0.614671 0.914928
Si Si5 0.065153 0.869877 0.704001
Si Si6 0.201522 0.504351 0.695307
Si Si7 0.500000 0.500000 0.916524
O O1 0.481048 0.687687 0.500441
O O2 0.568268 0.666733 0.604864
O O3 0.391553 0.818197 0.586400
O O4 0.692174 0.970247 0.552318
O O5 0.920531 0.720587 0.088304
O O6 0.672719 0.425464 0.063456
O O7 0.000000 0.500000 0.082435
O O8 0.365282 0.498632 0.686057
O O9 0.678596 0.588367 0.884955
O O10 0.864601 0.707582 0.976869
O O11 0.930835 0.677737 0.718963
O O12 0.000000 0.000000 0.697849
O O13 0.135208 0.508127 0.629746
#
# Coordination Sequence:
#
# PCOD9580898 Si02
#       7
#     6   6   3   6   6   6   3
#     4  11  24  41  67 100 134 182 230 284 346 413
#     4  12  26  44  66 100 143 185 227 287 349 425
#     4  12  22  42  67 102 130 177 242 288 322 420
#     4  10  22  40  72  94 132 181 225 277 346 417
#     4  11  24  44  69 106 133 175 233 289 346 419
#     4  11  23  40  71  92 138 175 227 276 341 408
#     4  10  18  40  61 106 120 167 226 280 318 412
#
# _framework density 21.242028000000001
#
# number of rings (size 3 to 8) (size 9 to 14) (size 15 to 20)
#    0.000    1.000    5.833    1.000   11.667    0.000 
#    0.000    6.667    0.000    0.000    0.000    0.000 
#    0.000    0.000    0.000    0.000    0.000    0.000 
#
# Total GULP energy -200655.365911 kJ/mol
# GULP energy per Si atom -5573.760164 kJ/mol
# Density = 2.119368 g / cm^3
# Si number density = 21.242028 Si / 1000 Ang^3
#
#
#
# Elastic Constant Matrix: (Units=GPa)
#
#
# Indices 1 2 3 4 5 6 
#
# 1 130.0132 48.3241 16.2271 0.0000 0.0000 0.0000
# 2 48.3241 130.0132 16.2271 0.0000 0.0000 0.0000
# 3 16.2271 16.2271 23.6404 0.0000 0.0000 0.0000
# 4 0.0000 0.0000 0.0000 17.0642 0.0000 0.0000
# 5 0.0000 0.0000 0.0000 0.0000 17.0642 0.0000
# 6 0.0000 0.0000 0.0000 0.0000 0.0000 40.8445
#
#
#
# Elastic Compliance Matrix: (Units=1/GPa)
#
#
# Indices 1 2 3 4 5 6 
#
# 1 0.009325 -0.002917 -0.004398 0.000000 0.000000 0.000000
# 2 -0.002917 0.009325 -0.004398 0.000000 0.000000 0.000000
# 3 -0.004398 -0.004398 0.048339 0.000000 0.000000 0.000000
# 4 0.000000 0.000000 0.000000 0.058602 0.000000 0.000000
# 5 0.000000 0.000000 0.000000 0.000000 0.058602 0.000000
# 6 0.000000 0.000000 0.000000 0.000000 0.000000 0.024483
#
#
# Mechanical properties :
#
#
# Convention : Reuss Voigt Hill
#
# Bulk Modulus (GPa) = 22.95644 49.46926 36.21285
# Shear Modulus (GPa) = 20.27386 28.52049 24.39718
#
# Velocity S-wave (km/s) = 3.09272 3.66819 3.39268
# Velocity P-wave (km/s) = 4.85632 6.42493 5.69489
#
# Compressibility (1/GPa) = 0.04356076
#
# Stress axis : x y z
#
# Youngs Moduli (GPa) = 107.24252 107.24252 20.68733
#
# Poissons Ratio (x) = 0.31281 0.09099
# Poissons Ratio (y) = 0.31281 0.09099
# Poissons Ratio (z) = 0.47169 0.47169
#
# Static dielectric constant tensor:
#      x y z
#    x 1.787880 0.000000 0.000000 
#    y 0.000000 1.787880 0.000000 
#    z 0.000000 0.000000 1.760730 
# 
# From -- ./inp_files/2648.got.cif
#   From: 2010.05.17/outbox.cif.g08.bks.cpg/sg172_2_cif.got.tgz:2648.got - 2010.05.20 11:19:57.
