data_PCOD9580187
_publ_section_title
;
Structure prediction by ZEFSAII (Michael W. Deem and Ramdas Pophale) SiO2 
 PCOD9580187
Probable space group: P 65
;
_chemical_formula_sum "Si O2"
_cell_formula_units_Z 36
_cell_length_a 11.906388
_cell_length_b 11.906388
_cell_length_c 14.330287
_cell_angle_alpha 90.000000
_cell_angle_beta 90.000000
_cell_angle_gamma 120.000000
_cell_volume 1759.323007
_symmetry_space_group_name_H-M "P 65"
_symmetry_group_IT_number 170
_symmetry_cell_setting 'hexagonal'
loop_
_space_group_symop_operation_xyz
x,y,z
x-y,x,5/6+z
-y,x-y,2/3+z
-x,-y,1/2+z
-x+y,-x,1/3+z
y,-x+y,1/6+z
loop_
_atom_site_type_symbol
_atom_site_label
_atom_site_fract_x
_atom_site_fract_y
_atom_site_fract_z
Si Si1 0.529350 0.176925 0.157930
Si Si2 0.148923 0.997097 0.606965
Si Si3 0.353343 0.396830 0.518697
Si Si4 0.339274 0.291668 0.908926
Si Si5 0.621706 0.340726 0.970112
Si Si6 0.267797 0.022689 0.878000
O O1 0.597880 0.285712 0.237802
O O2 0.555276 0.060077 0.182728
O O3 0.376188 0.085280 0.132602
O O4 0.595313 0.258441 0.064315
O O5 0.130189 0.026944 0.501327
O O6 0.269230 0.973984 0.620235
O O7 0.209605 0.131358 0.666288
O O8 0.317052 0.504197 0.485199
O O9 0.303995 0.364162 0.624702
O O10 0.479386 0.308335 0.933585
O O11 0.246990 0.138183 0.915232
O O12 0.339996 0.320258 0.798890
#
# Coordination Sequence:
#
# PCOD9580187 Si02
#       6
#     6   6   6   6   6   6
#     4  11  25  39  62  97 130 167 218 271 341 394
#     4  10  19  33  59  85 112 152 210 260 310 386
#     4  10  22  38  62  91 122 168 216 267 325 400
#     4  11  22  39  63  96 129 165 222 266 331 397
#     4  11  23  40  62  92 133 172 210 270 331 400
#     4  11  19  37  66  91 118 162 216 268 314 391
#
# _framework density 20.462416000000001
#
# number of rings (size 3 to 8) (size 9 to 14) (size 15 to 20)
#    0.000    1.333    5.000    3.000    2.333    0.000 
#    0.000    1.667    0.000    0.000    0.000    0.000 
#    0.000    0.000    0.000    0.000    0.000    0.000 
#
# Total GULP energy -200419.643466 kJ/mol
# GULP energy per Si atom -5567.212318 kJ/mol
# Density = 2.041584 g / cm^3
# Si number density = 20.462416 Si / 1000 Ang^3
#
#
#
# Elastic Constant Matrix: (Units=GPa)
#
#
# Indices 1 2 3 4 5 6 
#
# 1 34.5388 -0.9687 16.5260 0.0000 0.0000 0.0000
# 2 -0.9687 34.5388 16.5260 0.0000 0.0000 0.0000
# 3 16.5260 16.5260 62.2019 0.0000 0.0000 0.0000
# 4 0.0000 0.0000 0.0000 23.3358 0.0000 0.0000
# 5 0.0000 0.0000 0.0000 0.0000 23.3358 0.0000
# 6 0.0000 0.0000 0.0000 0.0000 0.0000 17.7538
#
#
#
# Elastic Compliance Matrix: (Units=1/GPa)
#
#
# Indices 1 2 3 4 5 6 
#
# 1 0.034252 0.006089 -0.010718 0.000000 0.000000 0.000000
# 2 0.006089 0.034252 -0.010718 0.000000 0.000000 0.000000
# 3 -0.010718 -0.010718 0.021772 0.000000 0.000000 0.000000
# 4 0.000000 0.000000 0.000000 0.042853 0.000000 0.000000
# 5 0.000000 0.000000 0.000000 0.000000 0.042853 0.000000
# 6 0.000000 0.000000 0.000000 0.000000 0.000000 0.056326
#
#
# Mechanical properties :
#
#
# Convention : Reuss Voigt Hill
#
# Bulk Modulus (GPa) = 16.78357 21.71622 19.24989
# Shear Modulus (GPa) = 17.67649 19.49815 18.58732
#
# Velocity S-wave (km/s) = 2.94232 3.09022 3.01718
# Velocity P-wave (km/s) = 4.44556 4.83408 4.64389
#
# Compressibility (1/GPa) = 0.05958210
#
# Stress axis : x y z
#
# Youngs Moduli (GPa) = 29.19538 29.19538 45.93098
#
# Poissons Ratio (x) = -0.17777 0.49228
# Poissons Ratio (y) = -0.17777 0.49228
# Poissons Ratio (z) = 0.31291 0.31291
#
# Static dielectric constant tensor:
#      x y z
#    x 1.803400 0.000000 0.000000 
#    y 0.000000 1.803400 0.000000 
#    z 0.000000 0.000000 1.741330 
# 
# From -- ./inp_files/1187.got.cif
#   From: 2010.05.17/outbox.cif.g08.bks.cpg/sg170_cif.got.tgz:1187.got - 2010.05.20 11:14:30.
