data_PCOD9580845
_publ_section_title
;
Structure prediction by ZEFSAII (Michael W. Deem and Ramdas Pophale) SiO2 
 PCOD9580845
Probable space group: P 62
;
_chemical_formula_sum "Si O2"
_cell_formula_units_Z 12
_cell_length_a 8.327580
_cell_length_b 8.327580
_cell_length_c 6.942570
_cell_angle_alpha 90.000000
_cell_angle_beta 90.000000
_cell_angle_gamma 120.000000
_cell_volume 416.954366
_symmetry_space_group_name_H-M "P 62"
_symmetry_group_IT_number 171
_symmetry_cell_setting 'hexagonal'
loop_
_space_group_symop_operation_xyz
x,y,z
x-y,x,1/3+z
-y,x-y,2/3+z
-x,-y,z
-x+y,-x,1/3+z
y,-x+y,2/3+z
loop_
_atom_site_type_symbol
_atom_site_label
_atom_site_fract_x
_atom_site_fract_y
_atom_site_fract_z
Si Si1 0.997447 0.308266 0.470350
Si Si2 0.310819 0.308265 0.528184
O O1 0.856625 0.143375 0.332600
O O2 0.000000 0.500000 0.442867
O O3 0.196682 0.344853 0.343887
O O4 0.148171 0.344853 0.654647
O O5 0.500000 0.500000 0.555666
#
# Coordination Sequence:
#
# PCOD9580845 Si02
#       2
#     6   6
#     4  11  27  48  83 121 164 217 276 343 416 494
#     4  11  27  48  83 121 164 217 276 343 416 494
#
# _framework density 28.780131000000001
#
# number of rings (size 3 to 8) (size 9 to 14) (size 15 to 20)
#    0.000    1.000    0.000    3.000   14.000   10.000 
#    0.000    0.000   22.000    0.000    0.000    0.000 
#    0.000    0.000    0.000    0.000    0.000    0.000 
#
# Total GULP energy -66885.055850 kJ/mol
# GULP energy per Si atom -5573.754654 kJ/mol
# Density = 2.871463 g / cm^3
# Si number density = 28.780131 Si / 1000 Ang^3
#
#
#
# Elastic Constant Matrix: (Units=GPa)
#
#
# Indices 1 2 3 4 5 6 
#
# 1 367.4831 166.5669 17.7468 0.0000 0.0000 0.0000
# 2 166.5669 367.4831 17.7468 0.0000 0.0000 0.0000
# 3 17.7468 17.7468 186.4112 0.0000 0.0000 0.0000
# 4 0.0000 0.0000 0.0000 29.1885 0.0000 0.0000
# 5 0.0000 0.0000 0.0000 0.0000 29.1885 0.0000
# 6 0.0000 0.0000 0.0000 0.0000 0.0000 100.4581
#
#
#
# Elastic Compliance Matrix: (Units=1/GPa)
#
#
# Indices 1 2 3 4 5 6 
#
# 1 0.003431 -0.001546 -0.000179 0.000000 0.000000 0.000000
# 2 -0.001546 0.003431 -0.000179 0.000000 0.000000 0.000000
# 3 -0.000179 -0.000179 0.005399 0.000000 0.000000 0.000000
# 4 0.000000 0.000000 0.000000 0.034260 0.000000 0.000000
# 5 0.000000 0.000000 0.000000 0.000000 0.034260 0.000000
# 6 0.000000 0.000000 0.000000 0.000000 0.000000 0.009954
#
#
# Mechanical properties :
#
#
# Convention : Reuss Voigt Hill
#
# Bulk Modulus (GPa) = 118.34522 147.27761 132.81142
# Shear Modulus (GPa) = 51.35479 79.72146 65.53812
#
# Velocity S-wave (km/s) = 4.22878 5.26881 4.77718
# Velocity P-wave (km/s) = 8.06555 9.39671 8.75646
#
# Compressibility (1/GPa) = 0.00844986
#
# Stress axis : x y z
#
# Youngs Moduli (GPa) = 291.47698 291.47698 185.23172
#
# Poissons Ratio (x) = 0.45074 0.03323
# Poissons Ratio (y) = 0.45074 0.03323
# Poissons Ratio (z) = 0.05229 0.05229
#
# Static dielectric constant tensor:
#      x y z
#    x 2.385910 0.000000 0.000000 
#    y 0.000000 2.385910 0.000000 
#    z 0.000000 0.000000 2.730150 
# 
# From -- ./inp_files/850.got.cif
#   From: 2010.05.17/outbox.cif.g08.bks.cpg/sg171_1_cif.got.tgz:850.got - 2010.05.20 11:16:09.
