data_PCOD9580072
_publ_section_title
;
Structure prediction by ZEFSAII (Michael W. Deem and Ramdas Pophale) SiO2 
 PCOD9580072
Probable space group: P 61
;
_chemical_formula_sum "Si O2"
_cell_formula_units_Z 42
_cell_length_a 8.596777
_cell_length_b 8.596777
_cell_length_c 28.552427
_cell_angle_alpha 90.000000
_cell_angle_beta 90.000000
_cell_angle_gamma 120.000000
_cell_volume 1827.447816
_symmetry_space_group_name_H-M "P 61"
_symmetry_group_IT_number 169
_symmetry_cell_setting 'hexagonal'
loop_
_space_group_symop_operation_xyz
x,y,z
x-y,x,1/6+z
-y,x-y,1/3+z
-x,-y,1/2+z
-x+y,-x,2/3+z
y,-x+y,5/6+z
loop_
_atom_site_type_symbol
_atom_site_label
_atom_site_fract_x
_atom_site_fract_y
_atom_site_fract_z
Si Si1 0.936742 0.824227 0.338900
Si Si2 0.513211 0.353810 0.936580
Si Si3 0.604690 0.989533 0.474103
Si Si4 0.662208 0.795432 0.265218
Si Si5 0.473531 0.831601 0.665675
Si Si6 0.901460 0.123338 0.392579
Si Si7 0.137841 0.837894 0.139970
O O1 0.827235 0.787402 0.290672
O O2 0.891962 0.665956 0.375639
O O3 0.878708 0.946495 0.368675
O O4 0.146009 0.957704 0.330120
O O5 0.312329 0.324923 0.943323
O O6 0.553148 0.395474 0.881922
O O7 0.653198 0.518245 0.967965
O O8 0.546177 0.188876 0.949869
O O9 0.637426 0.176881 0.493898
O O10 0.658000 0.907947 0.517940
O O11 0.750064 0.065645 0.431649
O O12 0.487352 0.638267 0.289869
O O13 0.678764 0.000904 0.662672
O O14 0.085917 0.227683 0.421282
#
# Coordination Sequence:
#
# PCOD9580072 Si02
#       7
#     6   6   6   6   6   6   6
#     4  12  19  40  72 102 132 194 236 283 361 448
#     4  12  23  43  71 102 136 193 241 294 366 449
#     4  11  22  39  72 100 138 185 243 289 371 442
#     4  12  23  41  70 101 141 184 244 290 359 445
#     4  11  24  45  65 102 143 185 236 308 348 438
#     4  11  16  37  69  98 123 184 236 284 347 442
#     4  11  23  41  69  99 147 177 234 302 366 418
#
# _framework density 22.982872
#
# number of rings (size 3 to 8) (size 9 to 14) (size 15 to 20)
#    0.000    0.571   10.000    0.000    0.000    0.000 
#    7.714    1.429    0.000    0.000    0.000    0.000 
#    0.000    0.000    0.000    0.000    0.000    0.000 
#
# Total GULP energy -234450.762489 kJ/mol
# GULP energy per Si atom -5582.161012 kJ/mol
# Density = 2.293056 g / cm^3
# Si number density = 22.982872 Si / 1000 Ang^3
#
#
#
# Elastic Constant Matrix: (Units=GPa)
#
#
# Indices 1 2 3 4 5 6 
#
# 1 69.2979 16.9352 -0.0650 0.0000 0.0000 0.0000
# 2 16.9352 69.2979 -0.0650 0.0000 0.0000 0.0000
# 3 -0.0650 -0.0650 79.9636 0.0000 0.0000 0.0000
# 4 0.0000 0.0000 0.0000 21.1102 0.0000 0.0000
# 5 0.0000 0.0000 0.0000 0.0000 21.1102 0.0000
# 6 0.0000 0.0000 0.0000 0.0000 0.0000 26.1813
#
#
#
# Elastic Compliance Matrix: (Units=1/GPa)
#
#
# Indices 1 2 3 4 5 6 
#
# 1 0.015347 -0.003751 0.000009 0.000000 0.000000 0.000000
# 2 -0.003751 0.015347 0.000009 0.000000 0.000000 0.000000
# 3 0.000009 0.000009 0.012506 0.000000 0.000000 0.000000
# 4 0.000000 0.000000 0.000000 0.047371 0.000000 0.000000
# 5 0.000000 0.000000 0.000000 0.000000 0.047371 0.000000
# 6 0.000000 0.000000 0.000000 0.000000 0.000000 0.038195
#
#
# Mechanical properties :
#
#
# Convention : Reuss Voigt Hill
#
# Bulk Modulus (GPa) = 27.98268 28.01887 28.00077
# Shear Modulus (GPa) = 25.57394 27.13061 26.35228
#
# Velocity S-wave (km/s) = 3.33939 3.43953 3.38983
# Velocity P-wave (km/s) = 5.20294 5.29069 5.24700
#
# Compressibility (1/GPa) = 0.03573639
#
# Stress axis : x y z
#
# Youngs Moduli (GPa) = 65.15916 65.15916 79.96347
#
# Poissons Ratio (x) = 0.24438 -0.00075
# Poissons Ratio (y) = 0.24438 -0.00075
# Poissons Ratio (z) = -0.00061 -0.00061
#
# Static dielectric constant tensor:
#      x y z
#    x 1.913890 0.000000 0.000000 
#    y 0.000000 1.913890 0.000000 
#    z 0.000000 0.000000 1.887220 
# 
# From -- ./inp_files/1878.got.cif
#   From: 2010.05.17/outbox.cif.g08.bks.cpg/sg169_cif.got.tgz:1878.got - 2010.05.20 11:12:54.
