data_PCOD9580014
_publ_section_title
;
Structure prediction by ZEFSAII (Michael W. Deem and Ramdas Pophale) SiO2 
 PCOD9580014
Probable space group: P 61
;
_chemical_formula_sum "Si O2"
_cell_formula_units_Z 36
_cell_length_a 14.059436
_cell_length_b 14.059436
_cell_length_c 8.864352
_cell_angle_alpha 90.000000
_cell_angle_beta 90.000000
_cell_angle_gamma 120.000000
_cell_volume 1517.446623
_symmetry_space_group_name_H-M "P 61"
_symmetry_group_IT_number 169
_symmetry_cell_setting 'hexagonal'
loop_
_space_group_symop_operation_xyz
x,y,z
x-y,x,1/6+z
-y,x-y,1/3+z
-x,-y,1/2+z
-x+y,-x,2/3+z
y,-x+y,5/6+z
loop_
_atom_site_type_symbol
_atom_site_label
_atom_site_fract_x
_atom_site_fract_y
_atom_site_fract_z
Si Si1 0.316344 0.780635 0.365750
Si Si2 0.001603 0.808789 0.104472
Si Si3 0.990619 0.601251 0.018332
Si Si4 0.541815 0.413004 0.077448
Si Si5 0.239525 0.461483 0.018345
Si Si6 0.898069 0.121798 0.085425
O O1 0.314217 0.868355 0.254504
O O2 0.226345 0.655156 0.318965
O O3 0.439387 0.802577 0.357791
O O4 0.295157 0.804668 0.534183
O O5 0.040898 0.730717 0.030257
O O6 0.932713 0.762170 0.262693
O O7 0.102129 0.923340 0.154009
O O8 0.067184 0.573530 0.119656
O O9 0.962481 0.537372 0.862261
O O10 0.476331 0.295152 0.997174
O O11 0.215177 0.339725 0.984306
O O12 0.853603 0.023094 0.204047
#
# Coordination Sequence:
#
# PCOD9580014 Si02
#       6
#     6   6   6   6   6   6
#     4  12  24  43  71 107 159 203 251 319 397 470
#     4  10  22  44  78 104 142 196 258 323 391 456
#     4  12  25  44  72 107 152 200 259 317 386 479
#     4  12  27  45  71 110 155 207 255 324 394 474
#     4  12  24  44  74 110 156 204 253 312 395 479
#     4  10  24  46  82 110 146 200 264 325 395 466
#
# _framework density 23.724063000000001
#
# number of rings (size 3 to 8) (size 9 to 14) (size 15 to 20)
#    0.000    0.667    5.000    2.000    4.667    0.000 
#    3.000    0.000   25.667    0.000    0.000    0.000 
#    0.000    0.000    0.000    0.000    0.000    0.000 
#
# Total GULP energy -201652.541261 kJ/mol
# GULP energy per Si atom -5601.459479 kJ/mol
# Density = 2.367007 g / cm^3
# Si number density = 23.724063 Si / 1000 Ang^3
#
#
#
# Elastic Constant Matrix: (Units=GPa)
#
#
# Indices 1 2 3 4 5 6 
#
# 1 106.5943 49.1679 55.5698 0.0000 0.0000 0.0000
# 2 49.1679 106.5943 55.5698 0.0000 0.0000 0.0000
# 3 55.5698 55.5698 73.2928 0.0000 0.0000 0.0000
# 4 0.0000 0.0000 0.0000 32.3991 0.0000 0.0000
# 5 0.0000 0.0000 0.0000 0.0000 32.3991 0.0000
# 6 0.0000 0.0000 0.0000 0.0000 0.0000 28.7132
#
#
#
# Elastic Compliance Matrix: (Units=1/GPa)
#
#
# Indices 1 2 3 4 5 6 
#
# 1 0.015700 -0.001714 -0.010604 0.000000 0.000000 0.000000
# 2 -0.001714 0.015700 -0.010604 0.000000 0.000000 0.000000
# 3 -0.010604 -0.010604 0.029724 0.000000 0.000000 0.000000
# 4 0.000000 0.000000 0.000000 0.030865 0.000000 0.000000
# 5 0.000000 0.000000 0.000000 0.000000 0.030865 0.000000
# 6 0.000000 0.000000 0.000000 0.000000 0.000000 0.034827
#
#
# Mechanical properties :
#
#
# Convention : Reuss Voigt Hill
#
# Bulk Modulus (GPa) = 65.44689 67.45513 66.45101
# Shear Modulus (GPa) = 23.96706 27.11387 25.54046
#
# Velocity S-wave (km/s) = 3.18188 3.38433 3.28466
# Velocity P-wave (km/s) = 6.41449 6.61562 6.51584
#
# Compressibility (1/GPa) = 0.01527956
#
# Stress axis : x y z
#
# Youngs Moduli (GPa) = 63.69399 63.69399 33.64258
#
# Poissons Ratio (x) = 0.10914 0.35676
# Poissons Ratio (y) = 0.10914 0.35676
# Poissons Ratio (z) = 0.67544 0.67544
#
# Static dielectric constant tensor:
#      x y z
#    x 1.880700 0.000000 0.000000 
#    y 0.000000 1.880700 0.000000 
#    z 0.000000 0.000000 1.912300 
# 
# From -- ./inp_files/584.got.cif
#   From: 2010.05.17/outbox.cif.g08.bks.cpg/sg169_cif.got.tgz:584.got - 2010.05.20 11:12:54.
