data_PCOD9580609
_publ_section_title
;
Structure prediction by ZEFSAII (Michael W. Deem and Ramdas Pophale) SiO2 
 PCOD9580609
Probable space group: P 62
;
_chemical_formula_sum "Si O2"
_cell_formula_units_Z 45
_cell_length_a 15.544708
_cell_length_b 15.544708
_cell_length_c 11.131047
_cell_angle_alpha 90.000000
_cell_angle_beta 90.000000
_cell_angle_gamma 120.000000
_cell_volume 2329.334103
_symmetry_space_group_name_H-M "P 62"
_symmetry_group_IT_number 171
_symmetry_cell_setting 'hexagonal'
loop_
_space_group_symop_operation_xyz
x,y,z
x-y,x,1/3+z
-y,x-y,2/3+z
-x,-y,z
-x+y,-x,1/3+z
y,-x+y,2/3+z
loop_
_atom_site_type_symbol
_atom_site_label
_atom_site_fract_x
_atom_site_fract_y
_atom_site_fract_z
Si Si1 0.049646 0.368397 0.417770
Si Si2 0.799383 0.356610 0.676475
Si Si3 0.300260 0.268694 0.690089
Si Si4 0.500000 0.000000 0.906834
Si Si5 0.396441 0.155151 0.204334
Si Si6 0.326691 0.832501 0.522305
Si Si7 0.210492 0.320878 0.909694
Si Si8 0.768632 0.293005 0.109659
O O1 0.125862 0.347631 0.495574
O O2 0.111627 0.451710 0.315867
O O3 0.994243 0.410718 0.497310
O O4 0.965195 0.277303 0.345405
O O5 0.897014 0.457789 0.641920
O O6 0.838392 0.298972 0.757252
O O7 0.746003 0.283223 0.562751
O O8 0.734315 0.388707 0.759038
O O9 0.293359 0.335474 0.584000
O O10 0.403854 0.296250 0.760379
O O11 0.230378 0.274642 0.791664
O O12 0.266051 0.165229 0.627075
O O13 0.470062 0.208363 0.315266
O O14 0.423874 0.833687 0.471662
O O15 0.240386 0.434705 0.873314
#
# Coordination Sequence:
#
# PCOD9580609 Si02
#       8
#     6   6   6   3   6   6   6   6
#     4  10  21  42  59  90 121 166 215 263 320 390
#     4  11  24  35  55  90 128 174 207 261 310 375
#     4  10  23  42  66  94 122 169 215 270 329 387
#     4  12  22  34  58  82 124 170 212 246 312 376
#     4  10  23  39  59  90 127 161 214 264 321 376
#     4  10  23  38  61  87 126 172 212 259 314 373
#     4  10  23  41  65  90 122 162 214 266 329 390
#     4  11  22  38  59  90 126 172 213 264 302 383
#
# _framework density 19.318826000000001
#
# number of rings (size 3 to 8) (size 9 to 14) (size 15 to 20)
#    0.000    1.600    1.333    2.400    7.467    4.267 
#    0.000    0.000    0.000    2.400    0.000    0.000 
#    0.000    0.000    0.000    0.000    0.000    0.000 
#
# Total GULP energy -250613.285783 kJ/mol
# GULP energy per Si atom -5569.184129 kJ/mol
# Density = 1.927486 g / cm^3
# Si number density = 19.318826 Si / 1000 Ang^3
#
#
#
# Elastic Constant Matrix: (Units=GPa)
#
#
# Indices 1 2 3 4 5 6 
#
# 1 75.4364 42.6385 34.2731 0.0000 0.0000 0.0000
# 2 42.6385 75.4364 34.2731 0.0000 0.0000 0.0000
# 3 34.2731 34.2731 80.2043 0.0000 0.0000 0.0000
# 4 0.0000 0.0000 0.0000 9.2192 0.0000 0.0000
# 5 0.0000 0.0000 0.0000 0.0000 9.2192 0.0000
# 6 0.0000 0.0000 0.0000 0.0000 0.0000 16.3989
#
#
#
# Elastic Compliance Matrix: (Units=1/GPa)
#
#
# Indices 1 2 3 4 5 6 
#
# 1 0.020877 -0.009613 -0.004813 0.000000 0.000000 0.000000
# 2 -0.009613 0.020877 -0.004813 0.000000 0.000000 0.000000
# 3 -0.004813 -0.004813 0.016582 0.000000 0.000000 0.000000
# 4 0.000000 0.000000 0.000000 0.108470 0.000000 0.000000
# 5 0.000000 0.000000 0.000000 0.000000 0.108470 0.000000
# 6 0.000000 0.000000 0.000000 0.000000 0.000000 0.060980
#
#
# Mechanical properties :
#
#
# Convention : Reuss Voigt Hill
#
# Bulk Modulus (GPa) = 50.36263 50.38297 50.37280
# Shear Modulus (GPa) = 13.11128 14.96028 14.03578
#
# Velocity S-wave (km/s) = 2.60797 2.78580 2.69835
# Velocity P-wave (km/s) = 5.93249 6.04019 5.98659
#
# Compressibility (1/GPa) = 0.01985599
#
# Stress axis : x y z
#
# Youngs Moduli (GPa) = 47.90063 47.90063 60.30765
#
# Poissons Ratio (x) = 0.46048 0.29027
# Poissons Ratio (y) = 0.46048 0.29027
# Poissons Ratio (z) = 0.23055 0.23055
#
# Static dielectric constant tensor:
#      x y z
#    x 1.814300 0.000000 0.000000 
#    y 0.000000 1.814300 0.000000 
#    z 0.000000 0.000000 1.704280 
# 
# From -- ./inp_files/2125.got.cif
#   From: 2010.05.17/outbox.cif.g08.bks.cpg/sg171_2_cif.got.tgz:2125.got - 2010.05.20 11:16:09.
