data_PCOD9580790
_publ_section_title
;
Structure prediction by ZEFSAII (Michael W. Deem and Ramdas Pophale) SiO2 
 PCOD9580790
Probable space group: P 62
;
_chemical_formula_sum "Si O2"
_cell_formula_units_Z 36
_cell_length_a 9.014958
_cell_length_b 9.014958
_cell_length_c 25.558208
_cell_angle_alpha 90.000000
_cell_angle_beta 90.000000
_cell_angle_gamma 120.000000
_cell_volume 1798.823064
_symmetry_space_group_name_H-M "P 62"
_symmetry_group_IT_number 171
_symmetry_cell_setting 'hexagonal'
loop_
_space_group_symop_operation_xyz
x,y,z
x-y,x,1/3+z
-y,x-y,2/3+z
-x,-y,z
-x+y,-x,1/3+z
y,-x+y,2/3+z
loop_
_atom_site_type_symbol
_atom_site_label
_atom_site_fract_x
_atom_site_fract_y
_atom_site_fract_z
Si Si1 0.833214 0.518595 0.471910
Si Si2 0.442613 0.799967 0.413397
Si Si3 0.486252 0.170523 0.655765
Si Si4 0.812756 0.343067 0.913204
Si Si5 0.040955 0.188985 0.381258
Si Si6 0.916214 0.620114 0.672284
O O1 0.668705 0.333801 0.457611
O O2 0.780259 0.538917 0.529946
O O3 0.885437 0.671006 0.428910
O O4 0.000000 0.500000 0.473399
O O5 0.313181 0.711331 0.364731
O O6 0.597962 0.773702 0.395228
O O7 0.500000 0.000000 0.420261
O O8 0.559213 0.271291 0.600989
O O9 0.500000 0.000000 0.657265
O O10 0.301627 0.113851 0.682245
O O11 0.801124 0.222447 0.961121
O O12 0.000000 0.500000 0.904317
O O13 0.188300 0.256005 0.337772
O O14 0.000000 0.000000 0.398071
O O15 0.000000 0.500000 0.668117
#
# Coordination Sequence:
#
# PCOD9580790 Si02
#       6
#     6   6   6   6   6   6
#     4  12  25  45  62  97 142 181 222 291 348 411
#     4  11  21  39  66  94 130 177 226 267 331 417
#     4  11  20  44  69  97 129 176 230 278 326 413
#     4  11  26  44  64  95 138 178 228 279 344 410
#     4  12  22  39  70 100 131 172 227 284 346 407
#     4  11  21  39  68  99 126 172 223 277 333 410
#
# _framework density 20.013085
#
# number of rings (size 3 to 8) (size 9 to 14) (size 15 to 20)
#    0.000    0.667    5.000    5.500    2.333    0.667 
#    0.000    4.167    0.000    0.000    0.000    0.000 
#    0.000    0.000    0.000    0.000    0.000    0.000 
#
# Total GULP energy -200484.117686 kJ/mol
# GULP energy per Si atom -5569.003269 kJ/mol
# Density = 1.996753 g / cm^3
# Si number density = 20.013085 Si / 1000 Ang^3
#
#
#
# Elastic Constant Matrix: (Units=GPa)
#
#
# Indices 1 2 3 4 5 6 
#
# 1 78.8434 10.6882 16.4428 0.0000 0.0000 0.0000
# 2 10.6882 78.8434 16.4428 0.0000 0.0000 0.0000
# 3 16.4428 16.4428 67.5435 0.0000 0.0000 0.0000
# 4 0.0000 0.0000 0.0000 8.8667 0.0000 0.0000
# 5 0.0000 0.0000 0.0000 0.0000 8.8667 0.0000
# 6 0.0000 0.0000 0.0000 0.0000 0.0000 34.0776
#
#
#
# Elastic Compliance Matrix: (Units=1/GPa)
#
#
# Indices 1 2 3 4 5 6 
#
# 1 0.013469 -0.001203 -0.002986 0.000000 0.000000 0.000000
# 2 -0.001203 0.013469 -0.002986 0.000000 0.000000 0.000000
# 3 -0.002986 -0.002986 0.016259 0.000000 0.000000 0.000000
# 4 0.000000 0.000000 0.000000 0.112781 0.000000 0.000000
# 5 0.000000 0.000000 0.000000 0.000000 0.112781 0.000000
# 6 0.000000 0.000000 0.000000 0.000000 0.000000 0.029345
#
#
# Mechanical properties :
#
#
# Convention : Reuss Voigt Hill
#
# Bulk Modulus (GPa) = 34.66561 34.70863 34.68712
# Shear Modulus (GPa) = 15.52451 22.47265 18.99858
#
# Velocity S-wave (km/s) = 2.78819 3.35460 3.08443
# Velocity P-wave (km/s) = 5.26540 5.69079 5.48222
#
# Compressibility (1/GPa) = 0.02884703
#
# Stress axis : x y z
#
# Youngs Moduli (GPa) = 74.24339 74.24339 61.50396
#
# Poissons Ratio (x) = 0.08933 0.18365
# Poissons Ratio (y) = 0.08933 0.18365
# Poissons Ratio (z) = 0.22169 0.22169
#
# Static dielectric constant tensor:
#      x y z
#    x 1.884140 0.000000 0.000000 
#    y 0.000000 1.884140 0.000000 
#    z 0.000000 0.000000 1.727190 
# 
# From -- ./inp_files/5768.got.cif
#   From: 2010.05.17/outbox.cif.g08.bks.cpg/sg171_3_cif.got.tgz:5768.got - 2010.05.20 11:16:09.
