data_PCOD9580905
_publ_section_title
;
Structure prediction by ZEFSAII (Michael W. Deem and Ramdas Pophale) SiO2 
 PCOD9580905
Probable space group: P 64
;
_chemical_formula_sum "Si O2"
_cell_formula_units_Z 48
_cell_length_a 11.761846
_cell_length_b 11.761846
_cell_length_c 19.942990
_cell_angle_alpha 90.000000
_cell_angle_beta 90.000000
_cell_angle_gamma 120.000000
_cell_volume 2389.306589
_symmetry_space_group_name_H-M "P 64"
_symmetry_group_IT_number 172
_symmetry_cell_setting 'hexagonal'
loop_
_space_group_symop_operation_xyz
x,y,z
x-y,x,2/3+z
-y,x-y,1/3+z
-x,-y,z
-x+y,-x,2/3+z
y,-x+y,1/3+z
loop_
_atom_site_type_symbol
_atom_site_label
_atom_site_fract_x
_atom_site_fract_y
_atom_site_fract_z
Si Si1 0.193543 0.802891 0.565990
Si Si2 0.642655 0.631683 0.537462
Si Si3 0.634510 0.002194 0.131479
Si Si4 0.477731 0.128604 0.000458
Si Si5 0.853658 0.412064 0.822764
Si Si6 0.407142 0.138698 0.736971
Si Si7 0.103152 0.765066 0.921961
Si Si8 0.693303 0.274728 0.693882
O O1 0.051449 0.718196 0.532023
O O2 0.293232 0.792183 0.513706
O O3 0.230601 0.759590 0.636769
O O4 0.233883 0.955541 0.567434
O O5 0.500000 0.500000 0.532338
O O6 0.710314 0.590264 0.596038
O O7 0.692543 0.656721 0.462229
O O8 0.659286 0.767229 0.563145
O O9 0.500000 0.000000 0.146318
O O10 0.733805 0.147248 0.104333
O O11 0.609031 0.905542 0.067619
O O12 0.500000 0.000000 0.999239
O O13 0.606247 0.272380 0.005595
O O14 0.872499 0.347532 0.890131
O O15 0.770619 0.314785 0.764030
O O16 0.000000 0.500000 0.795043
O O17 0.329976 0.105362 0.668242
O O18 0.548196 0.161178 0.714059
#
# Coordination Sequence:
#
# PCOD9580905 Si02
#       8
#     6   6   6   6   6   6   6   6
#     4  11  25  40  66  91 139 179 211 279 351 413
#     4  11  24  38  66  98 128 170 226 283 337 404
#     4  11  21  42  63  97 135 180 221 279 349 405
#     4  10  19  36  59  93 134 166 210 277 328 389
#     4  10  22  38  55  88 135 172 202 263 338 404
#     4  12  23  38  69  96 125 169 232 283 330 407
#     4  11  24  44  60  96 136 168 223 283 349 399
#     4  12  22  37  64 100 134 175 228 275 343 409
#
# _framework density 20.089509
#
# number of rings (size 3 to 8) (size 9 to 14) (size 15 to 20)
#    0.000    1.000    6.250    1.500    7.000    0.500 
#    0.000    0.625    0.000    1.500    0.000    0.000 
#    0.000    0.000    0.000    0.000    0.000    0.000 
#
# Total GULP energy -267510.868529 kJ/mol
# GULP energy per Si atom -5573.143094 kJ/mol
# Density = 2.004378 g / cm^3
# Si number density = 20.089509 Si / 1000 Ang^3
#
#
#
# Elastic Constant Matrix: (Units=GPa)
#
#
# Indices 1 2 3 4 5 6 
#
# 1 50.8371 20.3073 38.6623 0.0000 0.0000 0.0000
# 2 20.3073 50.8371 38.6623 0.0000 0.0000 0.0000
# 3 38.6623 38.6623 146.4501 0.0000 0.0000 0.0000
# 4 0.0000 0.0000 0.0000 -3.2371 0.0000 0.0000
# 5 0.0000 0.0000 0.0000 0.0000 -3.2371 0.0000
# 6 0.0000 0.0000 0.0000 0.0000 0.0000 15.2649
#
#
#
# Elastic Compliance Matrix: (Units=1/GPa)
#
#
# Indices 1 2 3 4 5 6 
#
# 1 0.026233 -0.006522 -0.005204 0.000000 0.000000 0.000000
# 2 -0.006522 0.026233 -0.005204 0.000000 0.000000 0.000000
# 3 -0.005204 -0.005204 0.009576 0.000000 0.000000 0.000000
# 4 0.000000 0.000000 0.000000 -0.308921 0.000000 0.000000
# 5 0.000000 0.000000 0.000000 0.000000 -0.308921 0.000000
# 6 0.000000 0.000000 0.000000 0.000000 0.000000 0.065510
#
#
# Mechanical properties :
#
#
# Convention : Reuss Voigt Hill
#
# Bulk Modulus (GPa) = 35.48101 49.26534 42.37318
# Shear Modulus (GPa) = -11.18475 11.79098 0.30312
#
# Velocity S-wave (km/s) = -2.36211 2.42528 0.38886
# Velocity P-wave (km/s) = 3.20319 5.69375 4.61948
#
# Compressibility (1/GPa) = 0.02818409
#
# Stress axis : x y z
#
# Youngs Moduli (GPa) = 38.11942 38.11942 104.42936
#
# Poissons Ratio (x) = 0.24860 0.54343
# Poissons Ratio (y) = 0.24860 0.54343
# Poissons Ratio (z) = 0.19837 0.19837
#
# Static dielectric constant tensor:
#      x y z
#    x 1.882540 0.000000 0.000000 
#    y 0.000000 1.882540 0.000000 
#    z 0.000000 0.000000 1.756940 
# 
# From -- ./inp_files/2073.got.cif
#   From: 2010.05.17/outbox.cif.g08.bks.cpg/sg172_2_cif.got.tgz:2073.got - 2010.05.20 11:19:57.
