data_PCOD9580846
_publ_section_title
;
Structure prediction by ZEFSAII (Michael W. Deem and Ramdas Pophale) SiO2 
 PCOD9580846
Probable space group: P 62
;
_chemical_formula_sum "Si O2"
_cell_formula_units_Z 48
_cell_length_a 17.530591
_cell_length_b 17.530591
_cell_length_c 6.724759
_cell_angle_alpha 90.000000
_cell_angle_beta 90.000000
_cell_angle_gamma 120.000000
_cell_volume 1789.783383
_symmetry_space_group_name_H-M "P 62"
_symmetry_group_IT_number 171
_symmetry_cell_setting 'hexagonal'
loop_
_space_group_symop_operation_xyz
x,y,z
x-y,x,1/3+z
-y,x-y,2/3+z
-x,-y,z
-x+y,-x,1/3+z
y,-x+y,2/3+z
loop_
_atom_site_type_symbol
_atom_site_label
_atom_site_fract_x
_atom_site_fract_y
_atom_site_fract_z
Si Si1 0.866520 0.892395 0.625000
Si Si2 0.384842 0.417479 0.032304
Si Si3 0.569419 0.833039 0.424641
Si Si4 0.854464 0.438954 0.114064
Si Si5 0.246802 0.891642 0.795985
Si Si6 0.392403 0.477877 0.440653
Si Si7 0.584512 0.276259 0.918183
Si Si8 0.820661 0.754918 0.277733
O O1 0.899589 0.962580 0.449600
O O2 0.837169 0.804548 0.493555
O O3 0.801774 0.909457 0.766370
O O4 0.398415 0.334527 0.989407
O O5 0.407383 0.428332 0.264664
O O6 0.329749 0.536634 0.766006
O O7 0.437963 0.516959 0.943501
O O8 0.606195 0.892035 0.624032
O O9 0.596817 0.768207 0.321336
O O10 0.589118 0.912150 0.266710
O O11 0.784308 0.469277 0.136707
O O12 0.909156 0.465606 0.909721
O O13 0.248085 0.980109 0.870313
O O14 0.160168 0.832618 0.666235
O O15 0.346028 0.524787 0.327009
O O16 0.658693 0.282288 0.771786
#
# Coordination Sequence:
#
# PCOD9580846 Si02
#       8
#     6   6   6   6   6   6   6   6
#     4  12  24  43  52  71 112 136 174 269 335 404
#     4   9  20  38  57  80 125 161 208 269 314 377
#     4   8  21  39  54  84 122 156 216 263 307 391
#     4   8  20  33  54  92 130 155 211 248 305 393
#     4  12  23  43  62  81 115 164 223 273 332 391
#     4   9  18  36  55  87 134 161 204 249 319 378
#     4  12  17  29  61 103 133 166 190 249 315 376
#     4  12  27  37  60  86 104 147 215 269 344 389
#
# _framework density 26.818888000000001
#
# number of rings (size 3 to 8) (size 9 to 14) (size 15 to 20)
#    1.500    0.000    5.000    0.750    3.500    2.500 
#    0.000    0.000    0.000    0.750    0.000    0.000 
#    0.000    0.000    0.000    0.000    0.000    0.000 
#
# Total GULP energy -267576.546018 kJ/mol
# GULP energy per Si atom -5574.511375 kJ/mol
# Density = 2.675785 g / cm^3
# Si number density = 26.818888 Si / 1000 Ang^3
#
#
#
# Elastic Constant Matrix: (Units=GPa)
#
#
# Indices 1 2 3 4 5 6 
#
# 1 78.8499 0.3554 1.7925 0.0000 0.0000 0.0000
# 2 0.3554 78.8499 1.7925 0.0000 0.0000 0.0000
# 3 1.7925 1.7925 131.2267 0.0000 0.0000 0.0000
# 4 0.0000 0.0000 0.0000 35.1927 0.0000 0.0000
# 5 0.0000 0.0000 0.0000 0.0000 35.1927 0.0000
# 6 0.0000 0.0000 0.0000 0.0000 0.0000 39.2472
#
#
#
# Elastic Compliance Matrix: (Units=1/GPa)
#
#
# Indices 1 2 3 4 5 6 
#
# 1 0.012686 -0.000053 -0.000173 0.000000 0.000000 0.000000
# 2 -0.000053 0.012686 -0.000173 0.000000 0.000000 0.000000
# 3 -0.000173 -0.000173 0.007625 0.000000 0.000000 0.000000
# 4 0.000000 0.000000 0.000000 0.028415 0.000000 0.000000
# 5 0.000000 0.000000 0.000000 0.000000 0.028415 0.000000
# 6 0.000000 0.000000 0.000000 0.000000 0.000000 0.025480
#
#
# Mechanical properties :
#
#
# Convention : Reuss Voigt Hill
#
# Bulk Modulus (GPa) = 31.05464 32.97860 32.01662
# Shear Modulus (GPa) = 39.42034 40.92561 40.17297
#
# Velocity S-wave (km/s) = 3.83805 3.91064 3.87452
# Velocity P-wave (km/s) = 5.58976 5.71964 5.65507
#
# Compressibility (1/GPa) = 0.03220131
#
# Stress axis : x y z
#
# Youngs Moduli (GPa) = 78.82399 78.82399 131.14560
#
# Poissons Ratio (x) = 0.00420 0.02263
# Poissons Ratio (y) = 0.00420 0.02263
# Poissons Ratio (z) = 0.01360 0.01360
#
# Static dielectric constant tensor:
#      x y z
#    x 2.186010 0.000000 0.000000 
#    y 0.000000 2.186010 0.000000 
#    z 0.000000 0.000000 2.256460 
# 
# From -- ./inp_files/837.got.cif
#   From: 2010.05.17/outbox.cif.g08.bks.cpg/sg171_1_cif.got.tgz:837.got - 2010.05.20 11:16:09.
