data_PCOD9580928
_publ_section_title
;
Structure prediction by ZEFSAII (Michael W. Deem and Ramdas Pophale) SiO2 
 PCOD9580928
Probable space group: P 64
;
_chemical_formula_sum "Si O2"
_cell_formula_units_Z 39
_cell_length_a 8.776801
_cell_length_b 8.776801
_cell_length_c 28.393986
_cell_angle_alpha 90.000000
_cell_angle_beta 90.000000
_cell_angle_gamma 120.000000
_cell_volume 1894.215991
_symmetry_space_group_name_H-M "P 64"
_symmetry_group_IT_number 172
_symmetry_cell_setting 'hexagonal'
loop_
_space_group_symop_operation_xyz
x,y,z
x-y,x,2/3+z
-y,x-y,1/3+z
-x,-y,z
-x+y,-x,2/3+z
y,-x+y,1/3+z
loop_
_atom_site_type_symbol
_atom_site_label
_atom_site_fract_x
_atom_site_fract_y
_atom_site_fract_z
Si Si1 0.165637 0.366208 0.481950
Si Si2 0.798416 0.696128 0.934292
Si Si3 0.735967 0.848385 0.373807
Si Si4 0.000000 0.000000 0.862087
Si Si5 0.552178 0.301114 0.916135
Si Si6 0.000000 0.500000 0.315441
Si Si7 0.950756 0.226732 0.397173
Si Si8 0.000000 0.500000 0.084668
O O1 0.215801 0.486977 0.528442
O O2 0.336334 0.461351 0.449999
O O3 0.997503 0.321324 0.448428
O O4 0.126924 0.172532 0.498651
O O5 0.719689 0.493468 0.920984
O O6 0.623357 0.712707 0.938971
O O7 0.928484 0.829625 0.895422
O O8 0.887320 0.743708 0.984555
O O9 0.556796 0.676070 0.388452
O O10 0.891338 0.815165 0.390475
O O11 0.775551 0.035953 0.394452
O O12 0.585655 0.163422 0.945388
O O13 0.032554 0.653069 0.352664
#
# Coordination Sequence:
#
# PCOD9580928 Si02
#       8
#     6   6   6   3   6   3   6   3
#     4  10  21  40  60  94 128 176 222 280 341 417
#     4  10  21  39  65  93 127 171 218 284 336 411
#     4  10  20  39  62  94 123 163 224 282 337 405
#     4  10  20  38  70  90 126 178 226 274 348 410
#     4  10  23  39  64  95 138 172 226 281 349 399
#     4  12  23  40  66 102 134 190 230 289 340 430
#     4  10  22  38  66  93 127 170 235 273 338 407
#     4  10  21  36  62  86 132 172 210 285 346 400
#
# _framework density 20.588992999999999
#
# number of rings (size 3 to 8) (size 9 to 14) (size 15 to 20)
#    0.000    1.846    1.538    3.231    6.462    2.462 
#    0.000    0.000    0.000    3.692    0.000    0.000 
#    0.000    0.000    0.000    0.000    0.000    0.000 
#
# Total GULP energy -217377.468346 kJ/mol
# GULP energy per Si atom -5573.781240 kJ/mol
# Density = 2.054213 g / cm^3
# Si number density = 20.588993 Si / 1000 Ang^3
#
#
#
# Elastic Constant Matrix: (Units=GPa)
#
#
# Indices 1 2 3 4 5 6 
#
# 1 78.4926 25.8733 34.9212 0.0000 0.0000 0.0000
# 2 25.8733 78.4926 34.9212 0.0000 0.0000 0.0000
# 3 34.9212 34.9212 124.3274 0.0000 0.0000 0.0000
# 4 0.0000 0.0000 0.0000 37.8674 0.0000 0.0000
# 5 0.0000 0.0000 0.0000 0.0000 37.8674 0.0000
# 6 0.0000 0.0000 0.0000 0.0000 0.0000 26.3096
#
#
#
# Elastic Compliance Matrix: (Units=1/GPa)
#
#
# Indices 1 2 3 4 5 6 
#
# 1 0.015402 -0.003602 -0.003314 0.000000 0.000000 0.000000
# 2 -0.003602 0.015402 -0.003314 0.000000 0.000000 0.000000
# 3 -0.003314 -0.003314 0.009905 0.000000 0.000000 0.000000
# 4 0.000000 0.000000 0.000000 0.026408 0.000000 0.000000
# 5 0.000000 0.000000 0.000000 0.000000 0.026408 0.000000
# 6 0.000000 0.000000 0.000000 0.000000 0.000000 0.038009
#
#
# Mechanical properties :
#
#
# Convention : Reuss Voigt Hill
#
# Bulk Modulus (GPa) = 49.38954 52.52712 50.95833
# Shear Modulus (GPa) = 31.49706 32.78202 32.13954
#
# Velocity S-wave (km/s) = 3.91551 3.99458 3.95524
# Velocity P-wave (km/s) = 6.66948 6.84421 6.75741
#
# Compressibility (1/GPa) = 0.02024720
#
# Stress axis : x y z
#
# Youngs Moduli (GPa) = 64.92651 64.92651 100.95783
#
# Poissons Ratio (x) = 0.23389 0.33460
# Poissons Ratio (y) = 0.23389 0.33460
# Poissons Ratio (z) = 0.21519 0.21519
#
# Static dielectric constant tensor:
#      x y z
#    x 1.762890 0.000000 0.000000 
#    y 0.000000 1.762890 0.000000 
#    z 0.000000 0.000000 1.781980 
# 
# From -- ./inp_files/2960.got.cif
#   From: 2010.05.17/outbox.cif.g08.bks.cpg/sg172_2_cif.got.tgz:2960.got - 2010.05.20 11:19:57.
