data_PCOD9580021
_publ_section_title
;
Structure prediction by ZEFSAII (Michael W. Deem and Ramdas Pophale) SiO2 
 PCOD9580021
Probable space group: P 61
;
_chemical_formula_sum "Si O2"
_cell_formula_units_Z 42
_cell_length_a 8.639643
_cell_length_b 8.639643
_cell_length_c 26.126718
_cell_angle_alpha 90.000000
_cell_angle_beta 90.000000
_cell_angle_gamma 120.000000
_cell_volume 1688.912243
_symmetry_space_group_name_H-M "P 61"
_symmetry_group_IT_number 169
_symmetry_cell_setting 'hexagonal'
loop_
_space_group_symop_operation_xyz
x,y,z
x-y,x,1/6+z
-y,x-y,1/3+z
-x,-y,1/2+z
-x+y,-x,2/3+z
y,-x+y,5/6+z
loop_
_atom_site_type_symbol
_atom_site_label
_atom_site_fract_x
_atom_site_fract_y
_atom_site_fract_z
Si Si1 0.686823 0.016363 0.751460
Si Si2 0.388918 0.719829 0.981955
Si Si3 0.208089 0.341807 0.737780
Si Si4 0.281117 0.804083 0.516446
Si Si5 0.281375 0.356548 0.138830
Si Si6 0.080723 0.963606 0.169148
Si Si7 0.454342 0.332714 0.882322
O O1 0.745154 0.027136 0.693353
O O2 0.806904 0.961935 0.785314
O O3 0.480222 0.867938 0.751773
O O4 0.721055 0.206280 0.770753
O O5 0.355174 0.885627 0.974102
O O6 0.503809 0.733132 0.032816
O O7 0.214491 0.535134 0.995113
O O8 0.395145 0.352537 0.726367
O O9 0.154799 0.374461 0.793878
O O10 0.071408 0.154773 0.710463
O O11 0.088743 0.661456 0.538080
O O12 0.458709 0.793769 0.502633
O O13 0.128821 0.166843 0.161456
O O14 0.211201 0.365310 0.082408
#
# Coordination Sequence:
#
# PCOD9580021 Si02
#       7
#     6   6   6   6   6   6   6
#     4  11  27  46  74 109 155 201 258 326 388 474
#     4  10  23  49  74 102 151 204 245 320 396 465
#     4  10  22  45  75 102 150 205 253 310 389 463
#     4  11  26  45  75 109 158 202 251 326 395 473
#     4  11  25  49  75 107 147 200 259 316 394 473
#     4  11  24  48  76 108 146 203 264 318 393 467
#     4  12  27  46  75 117 151 199 260 322 401 473
#
# _framework density 24.868078000000001
#
# number of rings (size 3 to 8) (size 9 to 14) (size 15 to 20)
#    0.000    1.143    2.857    2.571   10.000    0.000 
#    2.571    0.000    0.000    0.000    0.000    0.000 
#    0.000    0.000    0.000    0.000    0.000    0.000 
#
# Total GULP energy -234422.849054 kJ/mol
# GULP energy per Si atom -5581.496406 kJ/mol
# Density = 2.481148 g / cm^3
# Si number density = 24.868078 Si / 1000 Ang^3
#
#
#
# Elastic Constant Matrix: (Units=GPa)
#
#
# Indices 1 2 3 4 5 6 
#
# 1 85.6863 20.5100 38.8125 0.0000 0.0000 0.0000
# 2 20.5100 85.6863 38.8125 0.0000 0.0000 0.0000
# 3 38.8125 38.8125 106.7713 0.0000 0.0000 0.0000
# 4 0.0000 0.0000 0.0000 41.4224 0.0000 0.0000
# 5 0.0000 0.0000 0.0000 0.0000 41.4224 0.0000
# 6 0.0000 0.0000 0.0000 0.0000 0.0000 32.5882
#
#
#
# Elastic Compliance Matrix: (Units=1/GPa)
#
#
# Indices 1 2 3 4 5 6 
#
# 1 0.014083 -0.001259 -0.004662 0.000000 0.000000 0.000000
# 2 -0.001259 0.014083 -0.004662 0.000000 0.000000 0.000000
# 3 -0.004662 -0.004662 0.012755 0.000000 0.000000 0.000000
# 4 0.000000 0.000000 0.000000 0.024142 0.000000 0.000000
# 5 0.000000 0.000000 0.000000 0.000000 0.024142 0.000000
# 6 0.000000 0.000000 0.000000 0.000000 0.000000 0.030686
#
#
# Mechanical properties :
#
#
# Convention : Reuss Voigt Hill
#
# Bulk Modulus (GPa) = 50.61678 52.71266 51.66472
# Shear Modulus (GPa) = 33.86569 35.08718 34.47643
#
# Velocity S-wave (km/s) = 3.69428 3.76031 3.72744
# Velocity P-wave (km/s) = 6.21251 6.33216 6.27262
#
# Compressibility (1/GPa) = 0.01975630
#
# Stress axis : x y z
#
# Youngs Moduli (GPa) = 71.00512 71.00512 78.40098
#
# Poissons Ratio (x) = 0.08943 0.36548
# Poissons Ratio (y) = 0.08943 0.36548
# Poissons Ratio (z) = 0.33100 0.33100
#
# Static dielectric constant tensor:
#      x y z
#    x 2.060390 0.000000 0.000000 
#    y 0.000000 2.060390 0.000000 
#    z 0.000000 0.000000 1.980520 
# 
# From -- ./inp_files/1881.got.cif
#   From: 2010.05.17/outbox.cif.g08.bks.cpg/sg169_cif.got.tgz:1881.got - 2010.05.20 11:12:54.
