data_PCOD9580884
_publ_section_title
;
Structure prediction by ZEFSAII (Michael W. Deem and Ramdas Pophale) SiO2 
 PCOD9580884
Probable space group: P 62
;
_chemical_formula_sum "Si O2"
_cell_formula_units_Z 21
_cell_length_a 13.184401
_cell_length_b 13.184401
_cell_length_c 5.346984
_cell_angle_alpha 90.000000
_cell_angle_beta 90.000000
_cell_angle_gamma 120.000000
_cell_volume 804.934095
_symmetry_space_group_name_H-M "P 62"
_symmetry_group_IT_number 171
_symmetry_cell_setting 'hexagonal'
loop_
_space_group_symop_operation_xyz
x,y,z
x-y,x,1/3+z
-y,x-y,2/3+z
-x,-y,z
-x+y,-x,1/3+z
y,-x+y,2/3+z
loop_
_atom_site_type_symbol
_atom_site_label
_atom_site_fract_x
_atom_site_fract_y
_atom_site_fract_z
Si Si1 0.128411 0.755730 0.806860
Si Si2 0.655478 0.217713 0.570498
Si Si3 0.500000 0.000000 0.215534
Si Si4 0.809782 0.825278 0.827189
O O1 0.260961 0.782433 0.791610
O O2 0.143815 0.868886 0.654979
O O3 0.047978 0.619833 0.722011
O O4 0.060549 0.753074 0.059101
O O5 0.740818 0.315430 0.372369
O O6 0.584435 0.104064 0.402324
O O7 0.844693 0.916767 0.608653
#
# Coordination Sequence:
#
# PCOD9580884 Si02
#       4
#     6   6   3   6
#     4  12  28  50  84 120 162 216 277 338 413 495
#     4  12  28  51  85 118 165 218 278 340 422 493
#     4  12  28  54  84 120 170 224 274 356 406 504
#     4  12  30  52  81 118 163 217 276 343 419 500
#
# _framework density 26.089092000000001
#
# number of rings (size 3 to 8) (size 9 to 14) (size 15 to 20)
#    0.000    0.000    5.714    1.714    4.000   16.000 
#    0.000    0.000    0.000    0.000    0.000    0.000 
#    0.000    0.000    0.000    0.000    0.000    0.000 
#
# Total GULP energy -117484.387160 kJ/mol
# GULP energy per Si atom -5594.494627 kJ/mol
# Density = 2.602971 g / cm^3
# Si number density = 26.089092 Si / 1000 Ang^3
#
#
#
# Elastic Constant Matrix: (Units=GPa)
#
#
# Indices 1 2 3 4 5 6 
#
# 1 169.3471 65.6976 44.0561 0.0000 0.0000 0.0000
# 2 65.6976 169.3471 44.0561 0.0000 0.0000 0.0000
# 3 44.0561 44.0561 62.5002 0.0000 0.0000 0.0000
# 4 0.0000 0.0000 0.0000 34.3799 0.0000 0.0000
# 5 0.0000 0.0000 0.0000 0.0000 34.3799 0.0000
# 6 0.0000 0.0000 0.0000 0.0000 0.0000 51.8247
#
#
#
# Elastic Compliance Matrix: (Units=1/GPa)
#
#
# Indices 1 2 3 4 5 6 
#
# 1 0.007715 -0.001933 -0.004076 0.000000 0.000000 0.000000
# 2 -0.001933 0.007715 -0.004076 0.000000 0.000000 0.000000
# 3 -0.004076 -0.004076 0.021746 0.000000 0.000000 0.000000
# 4 0.000000 0.000000 0.000000 0.029087 0.000000 0.000000
# 5 0.000000 0.000000 0.000000 0.000000 0.029087 0.000000
# 6 0.000000 0.000000 0.000000 0.000000 0.000000 0.019296
#
#
# Mechanical properties :
#
#
# Convention : Reuss Voigt Hill
#
# Bulk Modulus (GPa) = 58.79892 78.75709 68.77801
# Shear Modulus (GPa) = 35.59106 40.60923 38.10014
#
# Velocity S-wave (km/s) = 3.69753 3.94961 3.82565
# Velocity P-wave (km/s) = 6.38871 7.14510 6.77747
#
# Compressibility (1/GPa) = 0.01700711
#
# Stress axis : x y z
#
# Youngs Moduli (GPa) = 129.61405 129.61405 45.98474
#
# Poissons Ratio (x) = 0.25050 0.18744
# Poissons Ratio (y) = 0.25050 0.18744
# Poissons Ratio (z) = 0.52832 0.52832
#
# Static dielectric constant tensor:
#      x y z
#    x 2.030800 0.000000 0.000000 
#    y 0.000000 2.030800 0.000000 
#    z 0.000000 0.000000 2.099040 
# 
# From -- ./inp_files/189.got.cif
#   From: 2010.05.17/outbox.cif.g08.bks.cpg/sg171_1_cif.got.tgz:189.got - 2010.05.20 11:16:09.
