data_PCOD9580985
_publ_section_title
;
Structure prediction by ZEFSAII (Michael W. Deem and Ramdas Pophale) SiO2 
 PCOD9580985
Probable space group: P 64
;
_chemical_formula_sum "Si O2"
_cell_formula_units_Z 39
_cell_length_a 8.396789
_cell_length_b 8.396789
_cell_length_c 30.860455
_cell_angle_alpha 90.000000
_cell_angle_beta 90.000000
_cell_angle_gamma 120.000000
_cell_volume 1884.340736
_symmetry_space_group_name_H-M "P 64"
_symmetry_group_IT_number 172
_symmetry_cell_setting 'hexagonal'
loop_
_space_group_symop_operation_xyz
x,y,z
x-y,x,2/3+z
-y,x-y,1/3+z
-x,-y,z
-x+y,-x,2/3+z
y,-x+y,1/3+z
loop_
_atom_site_type_symbol
_atom_site_label
_atom_site_fract_x
_atom_site_fract_y
_atom_site_fract_z
Si Si1 0.000108 0.310596 0.308400
Si Si2 0.756452 0.261258 0.720898
Si Si3 0.317206 0.179012 0.063021
Si Si4 0.178157 0.970919 0.237469
Si Si5 0.000000 0.500000 0.121906
Si Si6 0.067291 0.376608 0.962150
Si Si7 0.916839 0.778954 0.475138
O O1 0.195488 0.321621 0.305375
O O2 0.000000 0.500000 0.315986
O O3 0.912035 0.178665 0.349469
O O4 0.888319 0.215089 0.264620
O O5 0.809000 0.471650 0.723562
O O6 0.599316 0.168571 0.755932
O O7 0.701023 0.174921 0.673021
O O8 0.919049 0.222686 0.736058
O O9 0.266180 0.026092 0.100319
O O10 0.238361 0.973376 0.188367
O O11 0.328363 0.135801 0.266131
O O12 0.000000 0.000000 0.236667
O O13 0.036384 0.692378 0.143130
O O14 0.000000 0.500000 0.937820
O O15 0.000000 0.000000 0.475046
#
# Coordination Sequence:
#
# PCOD9580985 Si02
#       7
#     6   6   6   6   3   6   6
#     4  11  23  38  67  95 129 172 220 280 338 402
#     4  11  23  40  66  99 127 176 222 274 338 406
#     4  11  24  41  64  94 140 170 223 281 340 404
#     4   9  22  43  64  91 131 178 222 273 347 407
#     4  12  24  40  72  96 132 174 232 274 346 426
#     4  11  21  40  65  94 129 170 223 273 337 409
#     4  11  24  44  67  97 136 183 223 287 353 420
#
# _framework density 20.696894
#
# number of rings (size 3 to 8) (size 9 to 14) (size 15 to 20)
#    0.000    1.231    3.846    1.846    3.231    0.000 
#    2.769    0.000   10.154    0.000    0.000    0.000 
#    0.000    0.000    0.000    0.000    0.000    0.000 
#
# Total GULP energy -217429.687903 kJ/mol
# GULP energy per Si atom -5575.120203 kJ/mol
# Density = 2.064979 g / cm^3
# Si number density = 20.696894 Si / 1000 Ang^3
#
#
#
# Elastic Constant Matrix: (Units=GPa)
#
#
# Indices 1 2 3 4 5 6 
#
# 1 73.1202 17.7489 19.1835 0.0000 0.0000 0.0000
# 2 17.7489 73.1202 19.1835 0.0000 0.0000 0.0000
# 3 19.1835 19.1835 100.5222 0.0000 0.0000 0.0000
# 4 0.0000 0.0000 0.0000 14.4253 0.0000 0.0000
# 5 0.0000 0.0000 0.0000 0.0000 14.4253 0.0000
# 6 0.0000 0.0000 0.0000 0.0000 0.0000 27.6856
#
#
#
# Elastic Compliance Matrix: (Units=1/GPa)
#
#
# Indices 1 2 3 4 5 6 
#
# 1 0.015015 -0.003045 -0.002284 0.000000 0.000000 0.000000
# 2 -0.003045 0.015015 -0.002284 0.000000 0.000000 0.000000
# 3 -0.002284 -0.002284 0.010820 0.000000 0.000000 0.000000
# 4 0.000000 0.000000 0.000000 0.069322 0.000000 0.000000
# 5 0.000000 0.000000 0.000000 0.000000 0.069322 0.000000
# 6 0.000000 0.000000 0.000000 0.000000 0.000000 0.036120
#
#
# Mechanical properties :
#
#
# Convention : Reuss Voigt Hill
#
# Bulk Modulus (GPa) = 39.02950 39.88827 39.45889
# Shear Modulus (GPa) = 20.88714 24.01705 22.45210
#
# Velocity S-wave (km/s) = 3.18022 3.41019 3.29721
# Velocity P-wave (km/s) = 5.69067 5.90087 5.79672
#
# Compressibility (1/GPa) = 0.02562164
#
# Stress axis : x y z
#
# Youngs Moduli (GPa) = 66.60191 66.60191 92.42255
#
# Poissons Ratio (x) = 0.20282 0.21111
# Poissons Ratio (y) = 0.20282 0.21111
# Poissons Ratio (z) = 0.15213 0.15213
#
# Static dielectric constant tensor:
#      x y z
#    x 1.753780 0.000000 0.000000 
#    y 0.000000 1.753780 0.000000 
#    z 0.000000 0.000000 1.717850 
# 
# From -- ./inp_files/2859.got.cif
#   From: 2010.05.17/outbox.cif.g08.bks.cpg/sg172_2_cif.got.tgz:2859.got - 2010.05.20 11:19:57.
