data_PCOD9580503
_publ_section_title
;
Structure prediction by ZEFSAII (Michael W. Deem and Ramdas Pophale) SiO2 
 PCOD9580503
Probable space group: P 62
;
_chemical_formula_sum "Si O2"
_cell_formula_units_Z 36
_cell_length_a 9.199946
_cell_length_b 9.199946
_cell_length_c 22.374422
_cell_angle_alpha 90.000000
_cell_angle_beta 90.000000
_cell_angle_gamma 120.000000
_cell_volume 1640.034610
_symmetry_space_group_name_H-M "P 62"
_symmetry_group_IT_number 171
_symmetry_cell_setting 'hexagonal'
loop_
_space_group_symop_operation_xyz
x,y,z
x-y,x,1/3+z
-y,x-y,2/3+z
-x,-y,z
-x+y,-x,1/3+z
y,-x+y,2/3+z
loop_
_atom_site_type_symbol
_atom_site_label
_atom_site_fract_x
_atom_site_fract_y
_atom_site_fract_z
Si Si1 0.836924 0.015983 0.500000
Si Si2 0.848386 0.520894 0.837918
Si Si3 0.646415 0.474049 0.147283
Si Si4 0.990998 0.828848 0.311768
Si Si5 0.141415 0.474234 0.976161
Si Si6 0.519743 0.346718 0.013983
O O1 0.838182 0.184047 0.478907
O O2 0.833057 0.023438 0.573002
O O3 0.670534 0.846323 0.479146
O O4 0.000000 0.000000 0.484336
O O5 0.671894 0.347538 0.840048
O O6 0.901570 0.571366 0.906911
O O7 0.000000 0.500000 0.810477
O O8 0.500000 0.500000 0.176622
O O9 0.574002 0.398198 0.081808
O O10 0.842333 0.658568 0.339356
O O11 0.164438 0.844918 0.334596
O O12 0.000000 0.000000 0.328120
O O13 0.000000 0.500000 0.005838
O O14 0.320353 0.641530 0.982207
O O15 0.500000 0.500000 0.985778
#
# Coordination Sequence:
#
# PCOD9580503 Si02
#       6
#     6   6   6   6   6   6
#     4  10  20  36  61  88 112 146 194 245 292 342
#     4  10  20  36  57  82 112 148 189 236 286 341
#     4  11  22  36  54  81 117 155 188 230 290 351
#     4   9  18  36  60  83 108 142 189 241 290 338
#     4   9  18  34  56  80 107 141 184 233 281 333
#     4   9  19  36  54  78 112 148 184 225 282 349
#
# _framework density 21.950755000000001
#
# number of rings (size 3 to 8) (size 9 to 14) (size 15 to 20)
#    0.000    2.333    0.000    2.500    0.000    5.333 
#    0.000   15.000    0.000    0.000    0.000    0.000 
#    0.000    0.000    0.000    0.000    0.000    0.000 
#
# Total GULP energy -200750.862316 kJ/mol
# GULP energy per Si atom -5576.412842 kJ/mol
# Density = 2.190079 g / cm^3
# Si number density = 21.950755 Si / 1000 Ang^3
#
#
#
# Elastic Constant Matrix: (Units=GPa)
#
#
# Indices 1 2 3 4 5 6 
#
# 1 171.9248 83.1606 5.4137 0.0000 0.0000 0.0000
# 2 83.1606 171.9248 5.4137 0.0000 0.0000 0.0000
# 3 5.4137 5.4137 36.6331 0.0000 0.0000 0.0000
# 4 0.0000 0.0000 0.0000 5.8860 0.0000 0.0000
# 5 0.0000 0.0000 0.0000 0.0000 5.8860 0.0000
# 6 0.0000 0.0000 0.0000 0.0000 0.0000 44.3821
#
#
#
# Elastic Compliance Matrix: (Units=1/GPa)
#
#
# Indices 1 2 3 4 5 6 
#
# 1 0.007605 -0.003660 -0.000583 0.000000 0.000000 0.000000
# 2 -0.003660 0.007605 -0.000583 0.000000 0.000000 0.000000
# 3 -0.000583 -0.000583 0.027470 0.000000 0.000000 0.000000
# 4 0.000000 0.000000 0.000000 0.169893 0.000000 0.000000
# 5 0.000000 0.000000 0.000000 0.000000 0.169893 0.000000
# 6 0.000000 0.000000 0.000000 0.000000 0.000000 0.022532
#
#
# Mechanical properties :
#
#
# Convention : Reuss Voigt Hill
#
# Bulk Modulus (GPa) = 30.27732 63.16206 46.71969
# Shear Modulus (GPa) = 11.74643 30.33049 21.03846
#
# Velocity S-wave (km/s) = 2.31579 3.72122 3.09923
# Velocity P-wave (km/s) = 4.57971 6.87752 5.84269
#
# Compressibility (1/GPa) = 0.03302803
#
# Stress axis : x y z
#
# Youngs Moduli (GPa) = 131.48546 131.48546 36.40335
#
# Poissons Ratio (x) = 0.48129 0.02122
# Poissons Ratio (y) = 0.48129 0.02122
# Poissons Ratio (z) = 0.07666 0.07666
#
# Static dielectric constant tensor:
#      x y z
#    x 1.881810 0.000000 0.000000 
#    y 0.000000 1.881810 0.000000 
#    z 0.000000 0.000000 1.847630 
# 
# From -- ./inp_files/5959.got.cif
#   From: 2010.05.17/outbox.cif.g08.bks.cpg/sg171_3_cif.got.tgz:5959.got - 2010.05.20 11:16:09.
