data_PCOD9580767
_publ_section_title
;
Structure prediction by ZEFSAII (Michael W. Deem and Ramdas Pophale) SiO2 
 PCOD9580767
Probable space group: P 62
;
_chemical_formula_sum "Si O2"
_cell_formula_units_Z 30
_cell_length_a 10.198562
_cell_length_b 10.198562
_cell_length_c 13.072315
_cell_angle_alpha 90.000000
_cell_angle_beta 90.000000
_cell_angle_gamma 120.000000
_cell_volume 1177.500274
_symmetry_space_group_name_H-M "P 62"
_symmetry_group_IT_number 171
_symmetry_cell_setting 'hexagonal'
loop_
_space_group_symop_operation_xyz
x,y,z
x-y,x,1/3+z
-y,x-y,2/3+z
-x,-y,z
-x+y,-x,1/3+z
y,-x+y,2/3+z
loop_
_atom_site_type_symbol
_atom_site_label
_atom_site_fract_x
_atom_site_fract_y
_atom_site_fract_z
Si Si1 0.170104 0.559272 0.840810
Si Si2 0.202080 0.850403 0.901786
Si Si3 0.837928 0.488160 0.140281
Si Si4 0.719275 0.840603 0.639592
Si Si5 0.168449 0.820124 0.654981
O O1 0.195666 0.691206 0.920195
O O2 0.326149 0.631161 0.779607
O O3 0.162183 0.411423 0.889502
O O4 0.000000 0.500000 0.798426
O O5 0.184753 0.837453 0.777907
O O6 0.055232 0.831286 0.959578
O O7 0.329748 0.011333 0.944699
O O8 0.818862 0.514786 0.259937
O O9 0.000000 0.500000 0.123043
O O10 0.839337 0.625029 0.077983
O O11 0.808767 0.017647 0.622564
#
# Coordination Sequence:
#
# PCOD9580767 Si02
#       5
#     6   6   6   6   6
#     4  10  25  47  74 112 153 201 260 324 400 473
#     4  11  27  47  75 114 157 202 259 326 394 473
#     4  12  25  46  82 110 159 211 268 327 400 485
#     4  11  25  48  76 114 155 211 259 323 403 473
#     4  12  26  47  76 116 154 207 266 325 391 479
#
# _framework density 25.477702000000001
#
# number of rings (size 3 to 8) (size 9 to 14) (size 15 to 20)
#    0.000    0.800    4.000    2.400    5.600    5.600 
#    3.600    0.000    0.000    0.000    0.000    0.000 
#    0.000    0.000    0.000    0.000    0.000    0.000 
#
# Total GULP energy -167648.160331 kJ/mol
# GULP energy per Si atom -5588.272011 kJ/mol
# Density = 2.541971 g / cm^3
# Si number density = 25.477702 Si / 1000 Ang^3
#
#
#
# Elastic Constant Matrix: (Units=GPa)
#
#
# Indices 1 2 3 4 5 6 
#
# 1 118.2071 46.4256 29.1416 0.0000 0.0000 0.0000
# 2 46.4256 118.2071 29.1416 0.0000 0.0000 0.0000
# 3 29.1416 29.1416 133.1837 0.0000 0.0000 0.0000
# 4 0.0000 0.0000 0.0000 28.4414 0.0000 0.0000
# 5 0.0000 0.0000 0.0000 0.0000 28.4414 0.0000
# 6 0.0000 0.0000 0.0000 0.0000 0.0000 35.8907
#
#
#
# Elastic Compliance Matrix: (Units=1/GPa)
#
#
# Indices 1 2 3 4 5 6 
#
# 1 0.010258 -0.003674 -0.001441 0.000000 0.000000 0.000000
# 2 -0.003674 0.010258 -0.001441 0.000000 0.000000 0.000000
# 3 -0.001441 -0.001441 0.008139 0.000000 0.000000 0.000000
# 4 0.000000 0.000000 0.000000 0.035160 0.000000 0.000000
# 5 0.000000 0.000000 0.000000 0.000000 0.035160 0.000000
# 6 0.000000 0.000000 0.000000 0.000000 0.000000 0.027862
#
#
# Mechanical properties :
#
#
# Convention : Reuss Voigt Hill
#
# Bulk Modulus (GPa) = 64.33128 64.33504 64.33316
# Shear Modulus (GPa) = 34.45240 36.21398 35.33319
#
# Velocity S-wave (km/s) = 3.68129 3.77423 3.72805
# Velocity P-wave (km/s) = 6.58590 6.65578 6.62093
#
# Compressibility (1/GPa) = 0.01554454
#
# Stress axis : x y z
#
# Youngs Moduli (GPa) = 97.48810 97.48810 122.86707
#
# Poissons Ratio (x) = 0.35812 0.17701
# Poissons Ratio (y) = 0.35812 0.17701
# Poissons Ratio (z) = 0.14045 0.14045
#
# Static dielectric constant tensor:
#      x y z
#    x 2.009310 0.000000 0.000000 
#    y 0.000000 2.009310 0.000000 
#    z 0.000000 0.000000 2.095790 
# 
# From -- ./inp_files/2365.got.cif
#   From: 2010.05.17/outbox.cif.g08.bks.cpg/sg171_2_cif.got.tgz:2365.got - 2010.05.20 11:16:09.
