data_PCOD9580732
_publ_section_title
;
Structure prediction by ZEFSAII (Michael W. Deem and Ramdas Pophale) SiO2 
 PCOD9580732
Probable space group: P 62
;
_chemical_formula_sum "Si O2"
_cell_formula_units_Z 39
_cell_length_a 11.845375
_cell_length_b 11.845375
_cell_length_c 13.440415
_cell_angle_alpha 90.000000
_cell_angle_beta 90.000000
_cell_angle_gamma 120.000000
_cell_volume 1633.205894
_symmetry_space_group_name_H-M "P 62"
_symmetry_group_IT_number 171
_symmetry_cell_setting 'hexagonal'
loop_
_space_group_symop_operation_xyz
x,y,z
x-y,x,1/3+z
-y,x-y,2/3+z
-x,-y,z
-x+y,-x,1/3+z
y,-x+y,2/3+z
loop_
_atom_site_type_symbol
_atom_site_label
_atom_site_fract_x
_atom_site_fract_y
_atom_site_fract_z
Si Si1 0.263554 0.252004 0.738860
Si Si2 0.515462 0.373583 0.853880
Si Si3 0.298640 0.567443 0.551878
Si Si4 0.500000 0.000000 0.216502
Si Si5 0.858063 0.982456 0.612915
Si Si6 0.702589 0.109355 0.040305
Si Si7 0.371871 0.176009 0.030584
O O1 0.415821 0.313471 0.762134
O O2 0.190485 0.169814 0.838321
O O3 0.198002 0.341723 0.726127
O O4 0.235819 0.167162 0.640443
O O5 0.500000 0.500000 0.874526
O O6 0.649985 0.367803 0.847084
O O7 0.450696 0.281121 0.947694
O O8 0.395569 0.525175 0.603580
O O9 0.185436 0.529054 0.633182
O O10 0.237193 0.461744 0.462137
O O11 0.622939 0.064532 0.142136
O O12 0.834886 0.065360 0.698039
O O13 0.000000 0.000000 0.618109
O O14 0.666618 0.969189 0.996116
#
# Coordination Sequence:
#
# PCOD9580732 Si02
#       7
#     6   6   6   3   6   6   6
#     4  11  26  42  72 108 146 194 242 307 370 447
#     4  11  26  50  67 104 146 191 249 303 373 450
#     4  11  24  45  76  98 143 192 238 301 369 436
#     4  10  24  44  64 106 134 182 246 292 352 436
#     4  11  23  41  69 107 151 187 242 297 369 441
#     4  11  23  44  70 105 142 180 244 300 360 443
#     4  10  25  43  71 107 142 186 239 299 361 444
#
# _framework density 23.879415000000002
#
# number of rings (size 3 to 8) (size 9 to 14) (size 15 to 20)
#    0.000    1.231    1.538    3.231    8.615    2.462 
#    8.308    0.000    0.000    0.000    0.000    0.000 
#    0.000    0.000    0.000    0.000    0.000    0.000 
#
# Total GULP energy -217811.635421 kJ/mol
# GULP energy per Si atom -5584.913729 kJ/mol
# Density = 2.382506 g / cm^3
# Si number density = 23.879415 Si / 1000 Ang^3
#
#
#
# Elastic Constant Matrix: (Units=GPa)
#
#
# Indices 1 2 3 4 5 6 
#
# 1 145.8293 63.7424 42.5752 0.0000 0.0000 0.0000
# 2 63.7424 145.8293 42.5752 0.0000 0.0000 0.0000
# 3 42.5752 42.5752 69.6843 0.0000 0.0000 0.0000
# 4 0.0000 0.0000 0.0000 -0.1137 0.0000 0.0000
# 5 0.0000 0.0000 0.0000 0.0000 -0.1137 0.0000
# 6 0.0000 0.0000 0.0000 0.0000 0.0000 41.0434
#
#
#
# Elastic Compliance Matrix: (Units=1/GPa)
#
#
# Indices 1 2 3 4 5 6 
#
# 1 0.009265 -0.002917 -0.003878 0.000000 0.000000 0.000000
# 2 -0.002917 0.009265 -0.003878 0.000000 0.000000 0.000000
# 3 -0.003878 -0.003878 0.019089 0.000000 0.000000 0.000000
# 4 0.000000 0.000000 0.000000 -8.796639 0.000003 0.000000
# 5 0.000000 0.000000 0.000000 0.000003 -8.796637 0.000000
# 6 0.000000 0.000000 0.000000 0.000000 0.000000 0.024364
#
#
# Mechanical properties :
#
#
# Convention : Reuss Voigt Hill
#
# Bulk Modulus (GPa) = 61.45652 73.23651 67.34652
# Shear Modulus (GPa) = -0.28564 22.32655 11.02046
#
# Velocity S-wave (km/s) = -0.34623 3.06105 2.15060
# Velocity P-wave (km/s) = 5.06283 6.57489 5.86777
#
# Compressibility (1/GPa) = 0.01627167
#
# Stress axis : x y z
#
# Youngs Moduli (GPa) = 107.93587 107.93587 52.38572
#
# Poissons Ratio (x) = 0.31490 0.20315
# Poissons Ratio (y) = 0.31490 0.20315
# Poissons Ratio (z) = 0.41858 0.41858
#
# Static dielectric constant tensor:
#      x y z
#    x 1.979270 0.000000 0.000000 
#    y 0.000000 1.979270 0.000000 
#    z 0.000000 0.000000 1.900330 
# 
# From -- ./inp_files/1993.got.cif
#   From: 2010.05.17/outbox.cif.g08.bks.cpg/sg171_1_cif.got.tgz:1993.got - 2010.05.20 11:16:09.
