data_PCOD9580842
_publ_section_title
;
Structure prediction by ZEFSAII (Michael W. Deem and Ramdas Pophale) SiO2 
 PCOD9580842
Probable space group: P 62
;
_chemical_formula_sum "Si O2"
_cell_formula_units_Z 30
_cell_length_a 9.708510
_cell_length_b 9.708510
_cell_length_c 13.621247
_cell_angle_alpha 90.000000
_cell_angle_beta 90.000000
_cell_angle_gamma 120.000000
_cell_volume 1111.866549
_symmetry_space_group_name_H-M "P 62"
_symmetry_group_IT_number 171
_symmetry_cell_setting 'hexagonal'
loop_
_space_group_symop_operation_xyz
x,y,z
x-y,x,1/3+z
-y,x-y,2/3+z
-x,-y,z
-x+y,-x,1/3+z
y,-x+y,2/3+z
loop_
_atom_site_type_symbol
_atom_site_label
_atom_site_fract_x
_atom_site_fract_y
_atom_site_fract_z
Si Si1 0.582950 0.855906 0.411410
Si Si2 0.056446 0.731397 0.855691
Si Si3 0.184837 0.351120 0.326696
Si Si4 0.000000 0.500000 0.339388
Si Si5 0.554023 0.762787 0.807694
Si Si6 0.000000 0.000000 0.609496
O O1 0.615991 0.722676 0.460856
O O2 0.410902 0.811090 0.451211
O O3 0.583251 0.879061 0.292345
O O4 0.728242 0.030877 0.442440
O O5 0.179674 0.764544 0.767955
O O6 0.025953 0.874693 0.882444
O O7 0.292842 0.396543 0.231636
O O8 0.099167 0.440125 0.277701
O O9 0.072378 0.164373 0.334762
O O10 0.874084 0.339371 0.392063
#
# Coordination Sequence:
#
# PCOD9580842 Si02
#       6
#     6   6   6   3   6   3
#     4  11  26  49  84 120 169 220 279 354 435 515
#     4  12  25  46  80 124 163 215 289 355 417 517
#     4  12  26  47  80 117 166 219 287 353 423 513
#     4  12  28  48  76 110 170 222 276 350 432 502
#     4  11  27  52  77 117 168 229 277 352 442 511
#     4  12  22  42  82 124 162 220 286 356 414 502
#
# _framework density 26.981655
#
# number of rings (size 3 to 8) (size 9 to 14) (size 15 to 20)
#    0.000    0.400    4.000    4.200    2.800    1.600 
#    3.600    0.000    0.000    0.000    0.000    0.000 
#    0.000    0.000    0.000    0.000    0.000    0.000 
#
# Total GULP energy -167187.964513 kJ/mol
# GULP energy per Si atom -5572.932150 kJ/mol
# Density = 2.692024 g / cm^3
# Si number density = 26.981655 Si / 1000 Ang^3
#
#
#
# Elastic Constant Matrix: (Units=GPa)
#
#
# Indices 1 2 3 4 5 6 
#
# 1 84.6883 24.3954 36.6136 0.0000 0.0000 0.0000
# 2 24.3954 84.6883 36.6136 0.0000 0.0000 0.0000
# 3 36.6136 36.6136 268.2909 0.0000 0.0000 0.0000
# 4 0.0000 0.0000 0.0000 79.4191 0.0000 0.0000
# 5 0.0000 0.0000 0.0000 0.0000 79.4191 0.0000
# 6 0.0000 0.0000 0.0000 0.0000 0.0000 30.1464
#
#
#
# Elastic Compliance Matrix: (Units=1/GPa)
#
#
# Indices 1 2 3 4 5 6 
#
# 1 0.013339 -0.003247 -0.001377 0.000000 0.000000 0.000000
# 2 -0.003247 0.013339 -0.001377 0.000000 0.000000 0.000000
# 3 -0.001377 -0.001377 0.004103 0.000000 0.000000 0.000000
# 4 0.000000 0.000000 0.000000 0.012591 0.000000 0.000000
# 5 0.000000 0.000000 0.000000 0.000000 0.012591 0.000000
# 6 0.000000 0.000000 0.000000 0.000000 0.000000 0.033171
#
#
# Mechanical properties :
#
#
# Convention : Reuss Voigt Hill
#
# Bulk Modulus (GPa) = 53.25413 70.32362 61.78888
# Shear Modulus (GPa) = 46.55619 60.46660 53.51139
#
# Velocity S-wave (km/s) = 4.15839 4.73908 4.45820
# Velocity P-wave (km/s) = 6.54494 7.48768 7.03213
#
# Compressibility (1/GPa) = 0.01877789
#
# Stress axis : x y z
#
# Youngs Moduli (GPa) = 74.96951 74.96951 243.71245
#
# Poissons Ratio (x) = 0.24342 0.33565
# Poissons Ratio (y) = 0.24342 0.33565
# Poissons Ratio (z) = 0.10325 0.10325
#
# Static dielectric constant tensor:
#      x y z
#    x 1.909440 0.000000 0.000000 
#    y 0.000000 1.909440 0.000000 
#    z 0.000000 0.000000 2.162810 
# 
# From -- ./inp_files/2400.got.cif
#   From: 2010.05.17/outbox.cif.g08.bks.cpg/sg171_2_cif.got.tgz:2400.got - 2010.05.20 11:16:09.
