data_PCOD9580988
_publ_section_title
;
Structure prediction by ZEFSAII (Michael W. Deem and Ramdas Pophale) SiO2 
 PCOD9580988
Probable space group: P 64
;
_chemical_formula_sum "Si O2"
_cell_formula_units_Z 36
_cell_length_a 11.193548
_cell_length_b 11.193548
_cell_length_c 14.634710
_cell_angle_alpha 90.000000
_cell_angle_beta 90.000000
_cell_angle_gamma 120.000000
_cell_volume 1587.999219
_symmetry_space_group_name_H-M "P 64"
_symmetry_group_IT_number 172
_symmetry_cell_setting 'hexagonal'
loop_
_space_group_symop_operation_xyz
x,y,z
x-y,x,2/3+z
-y,x-y,1/3+z
-x,-y,z
-x+y,-x,2/3+z
y,-x+y,1/3+z
loop_
_atom_site_type_symbol
_atom_site_label
_atom_site_fract_x
_atom_site_fract_y
_atom_site_fract_z
Si Si1 0.636243 0.173440 0.017690
Si Si2 0.873675 0.698659 0.480903
Si Si3 0.336107 0.143232 0.027880
Si Si4 0.657397 0.031571 0.513756
Si Si5 0.882396 0.633573 0.179850
Si Si6 0.634227 0.153672 0.676476
O O1 0.711927 0.164298 0.109485
O O2 0.482864 0.145129 0.032151
O O3 0.733866 0.328300 0.983157
O O4 0.658035 0.087506 0.936204
O O5 0.867631 0.703834 0.591572
O O6 0.750693 0.732069 0.462561
O O7 0.012255 0.791015 0.421205
O O8 0.361534 0.275171 0.084313
O O9 0.722623 0.141732 0.595235
O O10 0.500000 0.000000 0.510354
O O11 0.679457 0.905502 0.540891
O O12 0.805351 0.514988 0.105686
O O13 0.500000 0.000000 0.690403
#
# Coordination Sequence:
#
# PCOD9580988 Si02
#       6
#     6   6   6   6   6   6
#     4  12  24  47  74 112 153 211 270 352 415 497
#     4  12  27  48  72 115 151 215 272 335 424 496
#     4  12  30  46  76 111 164 208 280 348 419 507
#     4  11  25  47  68 108 147 199 261 330 412 495
#     4  12  23  44  76 105 155 204 260 334 408 506
#     4  11  22  41  71 104 141 189 266 322 405 487
#
# _framework density 22.670034000000001
#
# number of rings (size 3 to 8) (size 9 to 14) (size 15 to 20)
#    0.000    0.333    6.667    2.500    4.667    2.000 
#    0.000    1.667    0.000    0.000    0.000    0.000 
#    0.000    0.000    0.000    0.000    0.000    0.000 
#
# Total GULP energy -200922.227002 kJ/mol
# GULP energy per Si atom -5581.172972 kJ/mol
# Density = 2.261844 g / cm^3
# Si number density = 22.670034 Si / 1000 Ang^3
#
#
#
# Elastic Constant Matrix: (Units=GPa)
#
#
# Indices 1 2 3 4 5 6 
#
# 1 81.5800 24.5364 24.1819 0.0000 0.0000 0.0000
# 2 24.5364 81.5800 24.1819 0.0000 0.0000 0.0000
# 3 24.1819 24.1819 149.1149 0.0000 0.0000 0.0000
# 4 0.0000 0.0000 0.0000 37.1795 0.0000 0.0000
# 5 0.0000 0.0000 0.0000 0.0000 37.1795 0.0000
# 6 0.0000 0.0000 0.0000 0.0000 0.0000 28.5218
#
#
#
# Elastic Compliance Matrix: (Units=1/GPa)
#
#
# Indices 1 2 3 4 5 6 
#
# 1 0.013853 -0.003677 -0.001650 0.000000 0.000000 0.000000
# 2 -0.003677 0.013853 -0.001650 0.000000 0.000000 0.000000
# 3 -0.001650 -0.001650 0.007241 0.000000 0.000000 0.000000
# 4 0.000000 0.000000 0.000000 0.026897 0.000000 0.000000
# 5 0.000000 0.000000 0.000000 0.000000 0.026897 0.000000
# 6 0.000000 0.000000 0.000000 0.000000 0.000000 0.035061
#
#
# Mechanical properties :
#
#
# Convention : Reuss Voigt Hill
#
# Bulk Modulus (GPa) = 47.63694 50.89726 49.26710
# Shear Modulus (GPa) = 34.54123 36.53446 35.53784
#
# Velocity S-wave (km/s) = 3.90763 4.01880 3.96360
# Velocity P-wave (km/s) = 6.43570 6.63584 6.53654
#
# Compressibility (1/GPa) = 0.02099211
#
# Stress axis : x y z
#
# Youngs Moduli (GPa) = 72.18612 72.18612 138.09374
#
# Poissons Ratio (x) = 0.26546 0.22788
# Poissons Ratio (y) = 0.26546 0.22788
# Poissons Ratio (z) = 0.11912 0.11912
#
# Static dielectric constant tensor:
#      x y z
#    x 1.957530 0.000000 0.000000 
#    y 0.000000 1.957530 0.000000 
#    z 0.000000 0.000000 1.897440 
# 
# From -- ./inp_files/1245.got.cif
#   From: 2010.05.17/outbox.cif.g08.bks.cpg/sg172_1_cif.got.tgz:1245.got - 2010.05.20 11:19:57.
