data_PCOD9580727
_publ_section_title
;
Structure prediction by ZEFSAII (Michael W. Deem and Ramdas Pophale) SiO2 
 PCOD9580727
Probable space group: P 62
;
_chemical_formula_sum "Si O2"
_cell_formula_units_Z 30
_cell_length_a 9.862029
_cell_length_b 9.862029
_cell_length_c 14.553285
_cell_angle_alpha 90.000000
_cell_angle_beta 90.000000
_cell_angle_gamma 120.000000
_cell_volume 1225.812982
_symmetry_space_group_name_H-M "P 62"
_symmetry_group_IT_number 171
_symmetry_cell_setting 'hexagonal'
loop_
_space_group_symop_operation_xyz
x,y,z
x-y,x,1/3+z
-y,x-y,2/3+z
-x,-y,z
-x+y,-x,1/3+z
y,-x+y,2/3+z
loop_
_atom_site_type_symbol
_atom_site_label
_atom_site_fract_x
_atom_site_fract_y
_atom_site_fract_z
Si Si1 0.270982 0.150897 0.409890
Si Si2 0.641839 0.426520 0.058240
Si Si3 0.577536 0.677238 0.236921
Si Si4 0.208397 0.222614 0.090140
Si Si5 0.363527 0.534387 0.862761
O O1 0.385125 0.209387 0.322105
O O2 0.383753 0.185016 0.498798
O O3 0.157264 0.226715 0.409081
O O4 0.146315 0.967845 0.403833
O O5 0.514015 0.335110 0.140252
O O6 0.682413 0.606816 0.044407
O O7 0.785836 0.428745 0.107344
O O8 0.633315 0.369942 0.954055
O O9 0.500000 0.500000 0.271325
O O10 0.751465 0.734384 0.197109
O O11 0.500000 0.500000 0.883753
#
# Coordination Sequence:
#
# PCOD9580727 Si02
#       5
#     6   6   6   6   6
#     4  11  25  41  74 110 147 189 252 316 374 459
#     4  11  25  48  75 104 151 202 250 310 387 461
#     4  10  24  46  69 104 150 195 241 307 383 459
#     4  10  24  42  70 109 146 189 245 318 383 449
#     4  12  25  45  73 107 146 199 251 310 377 465
#
# _framework density 24.473552999999999
#
# number of rings (size 3 to 8) (size 9 to 14) (size 15 to 20)
#    0.000    1.200    2.000    3.000    5.600    6.400 
#    0.000    1.000    0.000    0.000    0.000    0.000 
#    0.000    0.000    0.000    0.000    0.000    0.000 
#
# Total GULP energy -167111.952263 kJ/mol
# GULP energy per Si atom -5570.398409 kJ/mol
# Density = 2.441785 g / cm^3
# Si number density = 24.473553 Si / 1000 Ang^3
#
#
#
# Elastic Constant Matrix: (Units=GPa)
#
#
# Indices 1 2 3 4 5 6 
#
# 1 97.8835 47.7064 59.4447 0.0000 0.0000 0.0000
# 2 47.7064 97.8835 59.4447 0.0000 0.0000 0.0000
# 3 59.4447 59.4447 179.2084 0.0000 0.0000 0.0000
# 4 0.0000 0.0000 0.0000 34.7482 0.0000 0.0000
# 5 0.0000 0.0000 0.0000 0.0000 34.7482 0.0000
# 6 0.0000 0.0000 0.0000 0.0000 0.0000 25.0886
#
#
#
# Elastic Compliance Matrix: (Units=1/GPa)
#
#
# Indices 1 2 3 4 5 6 
#
# 1 0.014675 -0.005255 -0.003125 0.000000 0.000000 0.000000
# 2 -0.005255 0.014675 -0.003125 0.000000 0.000000 0.000000
# 3 -0.003125 -0.003125 0.007653 0.000000 0.000000 0.000000
# 4 0.000000 0.000000 0.000000 0.028778 0.000000 0.000000
# 5 0.000000 0.000000 0.000000 0.000000 0.028778 0.000000
# 6 0.000000 0.000000 0.000000 0.000000 0.000000 0.039859
#
#
# Mechanical properties :
#
#
# Convention : Reuss Voigt Hill
#
# Bulk Modulus (GPa) = 71.45603 78.68523 75.07063
# Shear Modulus (GPa) = 30.84674 32.80897 31.82785
#
# Velocity S-wave (km/s) = 3.55408 3.66538 3.61016
# Velocity P-wave (km/s) = 6.78989 7.08055 6.93674
#
# Compressibility (1/GPa) = 0.01399462
#
# Stress axis : x y z
#
# Youngs Moduli (GPa) = 68.14376 68.14376 130.66558
#
# Poissons Ratio (x) = 0.35806 0.40830
# Poissons Ratio (y) = 0.35806 0.40830
# Poissons Ratio (z) = 0.21293 0.21293
#
# Static dielectric constant tensor:
#      x y z
#    x 2.085110 0.000000 0.000000 
#    y 0.000000 2.085110 0.000000 
#    z 0.000000 0.000000 2.001440 
# 
# From -- ./inp_files/2381.got.cif
#   From: 2010.05.17/outbox.cif.g08.bks.cpg/sg171_2_cif.got.tgz:2381.got - 2010.05.20 11:16:09.
