data_PCOD9580761
_publ_section_title
;
Structure prediction by ZEFSAII (Michael W. Deem and Ramdas Pophale) SiO2 
 PCOD9580761
Probable space group: P 62
;
_chemical_formula_sum "Si O2"
_cell_formula_units_Z 39
_cell_length_a 11.980718
_cell_length_b 11.980718
_cell_length_c 13.876138
_cell_angle_alpha 90.000000
_cell_angle_beta 90.000000
_cell_angle_gamma 120.000000
_cell_volume 1724.904018
_symmetry_space_group_name_H-M "P 62"
_symmetry_group_IT_number 171
_symmetry_cell_setting 'hexagonal'
loop_
_space_group_symop_operation_xyz
x,y,z
x-y,x,1/3+z
-y,x-y,2/3+z
-x,-y,z
-x+y,-x,1/3+z
y,-x+y,2/3+z
loop_
_atom_site_type_symbol
_atom_site_label
_atom_site_fract_x
_atom_site_fract_y
_atom_site_fract_z
Si Si1 0.136927 0.376052 0.471270
Si Si2 0.890232 0.374839 0.929874
Si Si3 0.741182 0.471937 0.306858
Si Si4 0.779089 0.022083 0.381611
Si Si5 0.000000 0.500000 0.585136
Si Si6 0.977512 0.862602 0.854773
Si Si7 0.713248 0.234018 0.417446
O O1 0.272723 0.481180 0.521842
O O2 0.155621 0.394787 0.356738
O O3 0.033756 0.407487 0.520099
O O4 0.130488 0.242131 0.495689
O O5 0.000000 0.500000 0.875777
O O6 0.837998 0.428751 0.013354
O O7 0.953030 0.304699 0.986885
O O8 0.601425 0.467454 0.307184
O O9 0.767488 0.374557 0.371528
O O10 0.764895 0.450475 0.196702
O O11 0.884799 0.048401 0.301175
O O12 0.791777 0.156869 0.414047
O O13 0.769654 0.919926 0.460746
O O14 0.000000 0.000000 0.829719
#
# Coordination Sequence:
#
# PCOD9580761 Si02
#       7
#     6   6   6   6   3   6   6
#     4  11  26  46  72 106 145 194 251 305 393 454
#     4   9  20  44  69 104 135 183 243 302 369 451
#     4  12  26  45  73 108 143 192 242 319 384 472
#     4  10  25  44  71 105 143 199 250 309 378 457
#     4  12  26  48  72 108 152 194 250 320 398 470
#     4  11  26  46  70 103 146 199 256 311 375 462
#     4  11  23  46  71 106 144 183 247 305 389 455
#
# _framework density 22.609953999999998
#
# number of rings (size 3 to 8) (size 9 to 14) (size 15 to 20)
#    0.000    1.231    3.077    0.462    9.692    1.231 
#    4.154    0.000    0.000    0.000    0.000    0.000 
#    0.000    0.000    0.000    0.000    0.000    0.000 
#
# Total GULP energy -217429.107258 kJ/mol
# GULP energy per Si atom -5575.105314 kJ/mol
# Density = 2.255849 g / cm^3
# Si number density = 22.609954 Si / 1000 Ang^3
#
#
#
# Elastic Constant Matrix: (Units=GPa)
#
#
# Indices 1 2 3 4 5 6 
#
# 1 94.5023 28.6105 23.9267 0.0000 0.0000 0.0000
# 2 28.6105 94.5023 23.9267 0.0000 0.0000 0.0000
# 3 23.9267 23.9267 119.6807 0.0000 0.0000 0.0000
# 4 0.0000 0.0000 0.0000 8.6128 0.0000 0.0000
# 5 0.0000 0.0000 0.0000 0.0000 8.6128 0.0000
# 6 0.0000 0.0000 0.0000 0.0000 0.0000 32.9459
#
#
#
# Elastic Compliance Matrix: (Units=1/GPa)
#
#
# Indices 1 2 3 4 5 6 
#
# 1 0.011992 -0.003185 -0.001761 0.000000 0.000000 0.000000
# 2 -0.003185 0.011992 -0.001761 0.000000 0.000000 0.000000
# 3 -0.001761 -0.001761 0.009060 0.000000 0.000000 0.000000
# 4 0.000000 0.000000 0.000000 0.116106 0.000000 0.000000
# 5 0.000000 0.000000 0.000000 0.000000 0.116106 0.000000
# 6 0.000000 0.000000 0.000000 0.000000 0.000000 0.030353
#
#
# Mechanical properties :
#
#
# Convention : Reuss Voigt Hill
#
# Bulk Modulus (GPa) = 50.94044 51.29033 51.11539
# Shear Modulus (GPa) = 15.84470 25.51574 20.68022
#
# Velocity S-wave (km/s) = 2.65010 3.36299 3.02760
# Velocity P-wave (km/s) = 5.65182 6.14928 5.90579
#
# Compressibility (1/GPa) = 0.01963077
#
# Stress axis : x y z
#
# Youngs Moduli (GPa) = 83.39096 83.39096 110.38058
#
# Poissons Ratio (x) = 0.26558 0.19435
# Poissons Ratio (y) = 0.26558 0.19435
# Poissons Ratio (z) = 0.14683 0.14683
#
# Static dielectric constant tensor:
#      x y z
#    x 2.002570 0.000000 0.000000 
#    y 0.000000 2.002570 0.000000 
#    z 0.000000 0.000000 1.835690 
# 
# From -- ./inp_files/2027.got.cif
#   From: 2010.05.17/outbox.cif.g08.bks.cpg/sg171_2_cif.got.tgz:2027.got - 2010.05.20 11:16:09.
