data_PCOD9580762
_publ_section_title
;
Structure prediction by ZEFSAII (Michael W. Deem and Ramdas Pophale) SiO2 
 PCOD9580762
Probable space group: P 62
;
_chemical_formula_sum "Si O2"
_cell_formula_units_Z 33
_cell_length_a 9.902883
_cell_length_b 9.902883
_cell_length_c 19.249573
_cell_angle_alpha 90.000000
_cell_angle_beta 90.000000
_cell_angle_gamma 120.000000
_cell_volume 1634.839145
_symmetry_space_group_name_H-M "P 62"
_symmetry_group_IT_number 171
_symmetry_cell_setting 'hexagonal'
loop_
_space_group_symop_operation_xyz
x,y,z
x-y,x,1/3+z
-y,x-y,2/3+z
-x,-y,z
-x+y,-x,1/3+z
y,-x+y,2/3+z
loop_
_atom_site_type_symbol
_atom_site_label
_atom_site_fract_x
_atom_site_fract_y
_atom_site_fract_z
Si Si1 0.122665 0.178851 0.858970
Si Si2 0.367255 0.123703 0.778446
Si Si3 0.345764 0.747266 0.884063
Si Si4 0.454732 0.134306 0.629134
Si Si5 0.500000 0.500000 0.329532
Si Si6 0.360683 0.121301 0.112459
O O1 0.252383 0.177858 0.809363
O O2 0.213417 0.291898 0.922888
O O3 0.023855 0.235850 0.814015
O O4 0.000000 0.000000 0.880748
O O5 0.501405 0.167134 0.835131
O O6 0.445169 0.195446 0.705086
O O7 0.257283 0.938487 0.765068
O O8 0.327789 0.591880 0.916581
O O9 0.197133 0.703462 0.837126
O O10 0.373042 0.867262 0.946010
O O11 0.500000 0.000000 0.637597
O O12 0.348040 0.421573 0.378475
#
# Coordination Sequence:
#
# PCOD9580762 Si02
#       6
#     6   6   6   6   3   6
#     4  10  25  45  69 100 143 180 233 296 351 429
#     4  11  23  45  66 100 137 184 234 290 349 434
#     4  12  23  43  69 102 138 179 239 294 353 424
#     4  12  24  42  72 101 136 187 230 289 362 422
#     4  12  24  40  70 100 138 192 226 298 358 414
#     4  11  24  43  66 102 140 180 238 288 352 426
#
# _framework density 20.185471
#
# number of rings (size 3 to 8) (size 9 to 14) (size 15 to 20)
#    0.000    0.727    3.636    4.364    0.000    3.636 
#    0.000    1.818    0.000    0.000    0.000    0.000 
#    0.000    0.000    0.000    0.000    0.000    0.000 
#
# Total GULP energy -184641.401481 kJ/mol
# GULP energy per Si atom -5595.193984 kJ/mol
# Density = 2.013953 g / cm^3
# Si number density = 20.185471 Si / 1000 Ang^3
#
#
#
# Elastic Constant Matrix: (Units=GPa)
#
#
# Indices 1 2 3 4 5 6 
#
# 1 89.1134 51.9049 65.2723 0.0000 0.0000 0.0000
# 2 51.9049 89.1134 65.2723 0.0000 0.0000 0.0000
# 3 65.2723 65.2723 152.1609 0.0000 0.0000 0.0000
# 4 0.0000 0.0000 0.0000 9.4881 0.0000 0.0000
# 5 0.0000 0.0000 0.0000 0.0000 9.4881 0.0000
# 6 0.0000 0.0000 0.0000 0.0000 0.0000 18.6043
#
#
#
# Elastic Compliance Matrix: (Units=1/GPa)
#
#
# Indices 1 2 3 4 5 6 
#
# 1 0.019319 -0.007557 -0.005046 0.000000 0.000000 0.000000
# 2 -0.007557 0.019319 -0.005046 0.000000 0.000000 0.000000
# 3 -0.005046 -0.005046 0.010901 0.000000 0.000000 0.000000
# 4 0.000000 0.000000 0.000000 0.105395 0.000000 0.000000
# 5 0.000000 0.000000 0.000000 0.000000 0.105395 0.000000
# 6 0.000000 0.000000 0.000000 0.000000 0.000000 0.053751
#
#
# Mechanical properties :
#
#
# Convention : Reuss Voigt Hill
#
# Bulk Modulus (GPa) = 70.21149 77.25411 73.73280
# Shear Modulus (GPa) = 14.11936 17.37862 15.74899
#
# Velocity S-wave (km/s) = 2.64764 2.93737 2.79626
# Velocity P-wave (km/s) = 6.64871 7.06112 6.85802
#
# Compressibility (1/GPa) = 0.01424268
#
# Stress axis : x y z
#
# Youngs Moduli (GPa) = 51.76293 51.76293 91.73639
#
# Poissons Ratio (x) = 0.39116 0.46286
# Poissons Ratio (y) = 0.39116 0.46286
# Poissons Ratio (z) = 0.26117 0.26117
#
# Static dielectric constant tensor:
#      x y z
#    x 1.747880 0.000000 0.000000 
#    y 0.000000 1.747880 0.000000 
#    z 0.000000 0.000000 1.685290 
# 
# From -- ./inp_files/2898.got.cif
#   From: 2010.05.17/outbox.cif.g08.bks.cpg/sg171_2_cif.got.tgz:2898.got - 2010.05.20 11:16:09.
