data_PCOD9580936
_publ_section_title
;
Structure prediction by ZEFSAII (Michael W. Deem and Ramdas Pophale) SiO2 
 PCOD9580936
Probable space group: P 64
;
_chemical_formula_sum "Si O2"
_cell_formula_units_Z 36
_cell_length_a 8.027790
_cell_length_b 8.027790
_cell_length_c 32.388304
_cell_angle_alpha 90.000000
_cell_angle_beta 90.000000
_cell_angle_gamma 120.000000
_cell_volume 1807.635430
_symmetry_space_group_name_H-M "P 64"
_symmetry_group_IT_number 172
_symmetry_cell_setting 'hexagonal'
loop_
_space_group_symop_operation_xyz
x,y,z
x-y,x,2/3+z
-y,x-y,1/3+z
-x,-y,z
-x+y,-x,2/3+z
y,-x+y,1/3+z
loop_
_atom_site_type_symbol
_atom_site_label
_atom_site_fract_x
_atom_site_fract_y
_atom_site_fract_z
Si Si1 0.654307 0.439344 0.077870
Si Si2 0.661829 0.220364 0.000618
Si Si3 0.614357 0.230886 0.576609
Si Si4 0.500000 0.500000 0.867388
Si Si5 0.796623 0.964245 0.718631
Si Si6 0.193326 0.398994 0.464404
Si Si7 0.500000 0.500000 0.523651
O O1 0.500000 0.500000 0.091724
O O2 0.699977 0.312586 0.110153
O O3 0.848187 0.635614 0.065665
O O4 0.589950 0.313968 0.035550
O O5 0.726029 0.335609 0.958172
O O6 0.500000 0.000000 0.993233
O O7 0.845659 0.219358 0.020141
O O8 0.833853 0.337045 0.561506
O O9 0.540262 0.358150 0.551549
O O10 0.500000 0.000000 0.569030
O O11 0.606656 0.669249 0.834645
O O12 0.743749 0.836030 0.760252
O O13 0.000000 0.000000 0.702986
O O14 0.339844 0.362061 0.490709
#
# Coordination Sequence:
#
# PCOD9580936 Si02
#       7
#     6   6   6   3   6   6   3
#     4  11  23  38  67  97 131 178 218 278 347 405
#     4  11  23  44  67  93 134 175 221 288 343 404
#     4  11  24  46  70  95 134 181 231 281 348 409
#     4  10  26  40  69  98 130 180 232 279 346 424
#     4  11  23  39  63 102 131 170 222 276 341 421
#     4  10  21  41  62  90 136 164 218 274 328 401
#     4  10  20  44  65  92 132 174 222 275 328 400
#
# _framework density 19.915517999999999
#
# number of rings (size 3 to 8) (size 9 to 14) (size 15 to 20)
#    0.000    1.333    2.500    3.500    8.167    4.000 
#    3.000    2.500    0.000    0.000    0.000    0.000 
#    0.000    0.000    0.000    0.000    0.000    0.000 
#
# Total GULP energy -200767.824100 kJ/mol
# GULP energy per Si atom -5576.884003 kJ/mol
# Density = 1.987019 g / cm^3
# Si number density = 19.915518 Si / 1000 Ang^3
#
#
#
# Elastic Constant Matrix: (Units=GPa)
#
#
# Indices 1 2 3 4 5 6 
#
# 1 84.4077 25.4141 28.5304 0.0000 0.0000 0.0000
# 2 25.4141 84.4077 28.5304 0.0000 0.0000 0.0000
# 3 28.5304 28.5304 130.3437 0.0000 0.0000 0.0000
# 4 0.0000 0.0000 0.0000 17.2735 0.0000 0.0000
# 5 0.0000 0.0000 0.0000 0.0000 17.2735 0.0000
# 6 0.0000 0.0000 0.0000 0.0000 0.0000 29.4968
#
#
#
# Elastic Compliance Matrix: (Units=1/GPa)
#
#
# Indices 1 2 3 4 5 6 
#
# 1 0.013613 -0.003338 -0.002249 0.000000 0.000000 0.000000
# 2 -0.003338 0.013613 -0.002249 0.000000 0.000000 0.000000
# 3 -0.002249 -0.002249 0.008657 0.000000 0.000000 0.000000
# 4 0.000000 0.000000 0.000000 0.057892 0.000000 0.000000
# 5 0.000000 0.000000 0.000000 0.000000 0.057892 0.000000
# 6 0.000000 0.000000 0.000000 0.000000 0.000000 0.033902
#
#
# Mechanical properties :
#
#
# Convention : Reuss Voigt Hill
#
# Bulk Modulus (GPa) = 49.48213 51.56763 50.52488
# Shear Modulus (GPa) = 24.04115 27.25437 25.64776
#
# Velocity S-wave (km/s) = 3.47819 3.70334 3.59253
# Velocity P-wave (km/s) = 6.40549 6.65099 6.52939
#
# Compressibility (1/GPa) = 0.02020931
#
# Stress axis : x y z
#
# Youngs Moduli (GPa) = 73.46162 73.46162 115.52000
#
# Poissons Ratio (x) = 0.24525 0.25979
# Poissons Ratio (y) = 0.24525 0.25979
# Poissons Ratio (z) = 0.16520 0.16520
#
# Static dielectric constant tensor:
#      x y z
#    x 1.580150 0.000000 0.000000 
#    y 0.000000 1.580150 0.000000 
#    z 0.000000 0.000000 1.666620 
# 
# From -- ./inp_files/2815.got.cif
#   From: 2010.05.17/outbox.cif.g08.bks.cpg/sg172_2_cif.got.tgz:2815.got - 2010.05.20 11:19:57.
