data_PCOD9580580
_publ_section_title
;
Structure prediction by ZEFSAII (Michael W. Deem and Ramdas Pophale) SiO2 
 PCOD9580580
Probable space group: P 62
;
_chemical_formula_sum "Si O2"
_cell_formula_units_Z 48
_cell_length_a 15.596235
_cell_length_b 15.596235
_cell_length_c 11.495470
_cell_angle_alpha 90.000000
_cell_angle_beta 90.000000
_cell_angle_gamma 120.000000
_cell_volume 2421.569315
_symmetry_space_group_name_H-M "P 62"
_symmetry_group_IT_number 171
_symmetry_cell_setting 'hexagonal'
loop_
_space_group_symop_operation_xyz
x,y,z
x-y,x,1/3+z
-y,x-y,2/3+z
-x,-y,z
-x+y,-x,1/3+z
y,-x+y,2/3+z
loop_
_atom_site_type_symbol
_atom_site_label
_atom_site_fract_x
_atom_site_fract_y
_atom_site_fract_z
Si Si1 0.850052 0.310384 0.519610
Si Si2 0.778264 0.310782 0.148395
Si Si3 0.759550 0.590058 0.440070
Si Si4 0.720938 0.712138 0.633639
Si Si5 0.280958 0.596390 0.572300
Si Si6 0.026515 0.348878 0.360148
Si Si7 0.812505 0.699086 0.866262
Si Si8 0.462080 0.350462 0.794071
O O1 0.872276 0.281026 0.645738
O O2 0.805772 0.382460 0.537471
O O3 0.758381 0.210081 0.466409
O O4 0.945808 0.353847 0.440144
O O5 0.700441 0.315738 0.237180
O O6 0.828917 0.250241 0.192855
O O7 0.856629 0.423926 0.115114
O O8 0.718891 0.263443 0.029828
O O9 0.733079 0.645666 0.537074
O O10 0.713880 0.476322 0.478285
O O11 0.877148 0.633854 0.428947
O O12 0.797021 0.733901 0.739952
O O13 0.731917 0.809565 0.572741
O O14 0.612840 0.655083 0.695413
O O15 0.062131 0.425916 0.253643
O O16 0.971507 0.242664 0.295849
#
# Coordination Sequence:
#
# PCOD9580580 Si02
#       8
#     6   6   6   6   6   6   6   6
#     4  10  21  39  63  89 130 175 210 269 318 391
#     4  11  22  40  63  92 135 178 216 272 307 386
#     4  11  24  40  61  95 131 171 212 271 334 395
#     4  11  23  43  65  98 129 171 214 274 338 394
#     4  11  22  38  58  93 135 176 218 254 331 381
#     4  10  23  41  64  95 124 166 222 269 324 389
#     4  11  24  43  69  92 127 167 223 274 330 393
#     4   9  21  40  65  94 123 170 222 260 318 379
#
# _framework density 19.821856
#
# number of rings (size 3 to 8) (size 9 to 14) (size 15 to 20)
#    0.000    1.500    3.750    0.750    3.500    3.500 
#    2.250    0.000    0.000    2.250    0.000    0.000 
#    0.000    0.000    0.000    0.000    0.000    0.000 
#
# Total GULP energy -268493.502686 kJ/mol
# GULP energy per Si atom -5593.614639 kJ/mol
# Density = 1.977674 g / cm^3
# Si number density = 19.821856 Si / 1000 Ang^3
#
#
#
# Elastic Constant Matrix: (Units=GPa)
#
#
# Indices 1 2 3 4 5 6 
#
# 1 95.8849 54.5391 48.8472 0.0000 0.0000 0.0000
# 2 54.5391 95.8849 48.8472 0.0000 0.0000 0.0000
# 3 48.8472 48.8472 102.5441 0.0000 0.0000 0.0000
# 4 0.0000 0.0000 0.0000 30.6393 0.0000 0.0000
# 5 0.0000 0.0000 0.0000 0.0000 30.6393 0.0000
# 6 0.0000 0.0000 0.0000 0.0000 0.0000 20.6729
#
#
#
# Elastic Compliance Matrix: (Units=1/GPa)
#
#
# Indices 1 2 3 4 5 6 
#
# 1 0.016906 -0.007280 -0.004585 0.000000 0.000000 0.000000
# 2 -0.007280 0.016906 -0.004585 0.000000 0.000000 0.000000
# 3 -0.004585 -0.004585 0.014120 0.000000 0.000000 0.000000
# 4 0.000000 0.000000 0.000000 0.032638 0.000000 0.000000
# 5 0.000000 0.000000 0.000000 0.000000 0.032638 0.000000
# 6 0.000000 0.000000 0.000000 0.000000 0.000000 0.048373
#
#
# Mechanical properties :
#
#
# Convention : Reuss Voigt Hill
#
# Bulk Modulus (GPa) = 66.52993 66.53123 66.53058
# Shear Modulus (GPa) = 25.06359 25.86232 25.46295
#
# Velocity S-wave (km/s) = 3.55976 3.61603 3.58801
# Velocity P-wave (km/s) = 7.10863 7.14645 7.12756
#
# Compressibility (1/GPa) = 0.01503083
#
# Stress axis : x y z
#
# Youngs Moduli (GPa) = 59.15037 59.15037 70.81980
#
# Poissons Ratio (x) = 0.43063 0.32473
# Poissons Ratio (y) = 0.43063 0.32473
# Poissons Ratio (z) = 0.27122 0.27122
#
# Static dielectric constant tensor:
#      x y z
#    x 1.694430 0.000000 0.000000 
#    y 0.000000 1.694430 0.000000 
#    z 0.000000 0.000000 1.713370 
# 
# From -- ./inp_files/4707.got.cif
#   From: 2010.05.17/outbox.cif.g08.bks.cpg/sg171_3_cif.got.tgz:4707.got - 2010.05.20 11:16:09.
