data_PCOD9580943
_publ_section_title
;
Structure prediction by ZEFSAII (Michael W. Deem and Ramdas Pophale) SiO2 
 PCOD9580943
Probable space group: P 64
;
_chemical_formula_sum "Si O2"
_cell_formula_units_Z 42
_cell_length_a 8.521088
_cell_length_b 8.521088
_cell_length_c 26.645549
_cell_angle_alpha 90.000000
_cell_angle_beta 90.000000
_cell_angle_gamma 120.000000
_cell_volume 1675.503754
_symmetry_space_group_name_H-M "P 64"
_symmetry_group_IT_number 172
_symmetry_cell_setting 'hexagonal'
loop_
_space_group_symop_operation_xyz
x,y,z
x-y,x,2/3+z
-y,x-y,1/3+z
-x,-y,z
-x+y,-x,2/3+z
y,-x+y,1/3+z
loop_
_atom_site_type_symbol
_atom_site_label
_atom_site_fract_x
_atom_site_fract_y
_atom_site_fract_z
Si Si1 0.617273 0.211698 0.535380
Si Si2 0.344980 0.022296 0.146302
Si Si3 0.311986 0.261581 0.498355
Si Si4 0.549318 0.688731 0.984649
Si Si5 0.837918 0.033440 0.938940
Si Si6 0.186665 0.013422 0.405940
Si Si7 0.465456 0.811947 0.653321
O O1 0.825936 0.289499 0.521150
O O2 0.522991 0.325448 0.513343
O O3 0.603407 0.203625 0.595639
O O4 0.500000 0.000000 0.517301
O O5 0.275907 0.121918 0.109946
O O6 0.500000 0.000000 0.119153
O O7 0.166787 0.834627 0.162110
O O8 0.232669 0.133443 0.547974
O O9 0.296248 0.183698 0.442434
O O10 0.500000 0.500000 0.959898
O O11 0.696468 0.714807 0.026561
O O12 0.645716 0.852363 0.945708
O O13 0.375737 0.687234 0.009137
O O14 0.830047 0.171071 0.978132
O O15 0.000000 0.000000 0.950006
O O16 0.000000 0.000000 0.389671
O O17 0.500000 0.000000 0.676228
#
# Coordination Sequence:
#
# PCOD9580943 Si02
#       7
#     6   6   6   6   6   6   6
#     4  10  21  38  69  97 143 186 238 306 367 442
#     4  11  24  38  66 103 142 187 236 309 366 448
#     4  10  23  42  72 101 142 189 250 302 376 457
#     4  12  27  42  71 103 144 199 250 306 380 466
#     4  11  23  42  71 104 140 191 239 310 377 445
#     4  10  23  47  70 100 138 192 251 294 374 454
#     4  10  24  43  65 105 142 188 242 308 371 450
#
# _framework density 25.067084999999999
#
# number of rings (size 3 to 8) (size 9 to 14) (size 15 to 20)
#    0.000    1.429    1.429    3.000   10.000    1.714 
#    0.000    1.429    0.000    0.000    0.000    0.000 
#    0.000    0.000    0.000    0.000    0.000    0.000 
#
# Total GULP energy -234539.351588 kJ/mol
# GULP energy per Si atom -5584.270276 kJ/mol
# Density = 2.501003 g / cm^3
# Si number density = 25.067085 Si / 1000 Ang^3
#
#
#
# Elastic Constant Matrix: (Units=GPa)
#
#
# Indices 1 2 3 4 5 6 
#
# 1 120.7492 49.8420 6.3422 0.0000 0.0000 0.0000
# 2 49.8420 120.7492 6.3422 0.0000 0.0000 0.0000
# 3 6.3422 6.3422 74.8168 0.0000 0.0000 0.0000
# 4 0.0000 0.0000 0.0000 10.8891 0.0000 0.0000
# 5 0.0000 0.0000 0.0000 0.0000 10.8891 0.0000
# 6 0.0000 0.0000 0.0000 0.0000 0.0000 35.4536
#
#
#
# Elastic Compliance Matrix: (Units=1/GPa)
#
#
# Indices 1 2 3 4 5 6 
#
# 1 0.010001 -0.004102 -0.000500 0.000000 0.000000 0.000000
# 2 -0.004102 0.010001 -0.000500 0.000000 0.000000 0.000000
# 3 -0.000500 -0.000500 0.013451 0.000000 0.000000 0.000000
# 4 0.000000 0.000000 0.000000 0.091835 0.000000 0.000000
# 5 0.000000 0.000000 0.000000 0.000000 0.091835 0.000000
# 6 0.000000 0.000000 0.000000 0.000000 0.000000 0.028206
#
#
# Mechanical properties :
#
#
# Convention : Reuss Voigt Hill
#
# Bulk Modulus (GPa) = 43.01300 49.04089 46.02695
# Shear Modulus (GPa) = 18.99103 28.36562 23.67832
#
# Velocity S-wave (km/s) = 2.75545 3.36756 3.07677
# Velocity P-wave (km/s) = 5.22683 5.89296 5.56986
#
# Compressibility (1/GPa) = 0.02324878
#
# Stress axis : x y z
#
# Youngs Moduli (GPa) = 99.98958 99.98958 74.34521
#
# Poissons Ratio (x) = 0.41015 0.03718
# Poissons Ratio (y) = 0.41015 0.03718
# Poissons Ratio (z) = 0.05000 0.05000
#
# Static dielectric constant tensor:
#      x y z
#    x 2.095270 0.000000 0.000000 
#    y 0.000000 2.095270 0.000000 
#    z 0.000000 0.000000 1.928530 
# 
# From -- ./inp_files/2972.got.cif
#   From: 2010.05.17/outbox.cif.g08.bks.cpg/sg172_2_cif.got.tgz:2972.got - 2010.05.20 11:19:57.
