data_PCOD9580152
_publ_section_title
;
Structure prediction by ZEFSAII (Michael W. Deem and Ramdas Pophale) SiO2 
 PCOD9580152
Probable space group: P 61
;
_chemical_formula_sum "Si O2"
_cell_formula_units_Z 18
_cell_length_a 10.722719
_cell_length_b 10.722719
_cell_length_c 7.608243
_cell_angle_alpha 90.000000
_cell_angle_beta 90.000000
_cell_angle_gamma 120.000000
_cell_volume 757.573643
_symmetry_space_group_name_H-M "P 61"
_symmetry_group_IT_number 169
_symmetry_cell_setting 'hexagonal'
loop_
_space_group_symop_operation_xyz
x,y,z
x-y,x,1/6+z
-y,x-y,1/3+z
-x,-y,1/2+z
-x+y,-x,2/3+z
y,-x+y,5/6+z
loop_
_atom_site_type_symbol
_atom_site_label
_atom_site_fract_x
_atom_site_fract_y
_atom_site_fract_z
Si Si1 0.980348 0.237775 0.065000
Si Si2 0.174049 0.438753 0.639868
Si Si3 0.552684 0.049526 0.462558
O O1 0.017235 0.393188 0.130333
O O2 0.886544 0.126640 0.211725
O O3 0.875118 0.179402 0.894962
O O4 0.345840 0.538988 0.608674
O O5 0.085105 0.425519 0.462982
O O6 0.094168 0.487162 0.783332
#
# Coordination Sequence:
#
# PCOD9580152 Si02
#       3
#     6   6   6
#     4  12  29  50  75 121 163 228 284 349 444 524
#     4  12  26  51  81 122 173 219 291 367 442 526
#     4  12  29  49  86 121 166 223 295 358 436 530
#
# _framework density 23.760065000000001
#
# number of rings (size 3 to 8) (size 9 to 14) (size 15 to 20)
#    0.000    0.000    6.667    0.000    9.333    2.667 
#    0.000    0.000    0.000    0.000    0.000    0.000 
#    0.000    0.000    0.000    0.000    0.000    0.000 
#
# Total GULP energy -100341.748659 kJ/mol
# GULP energy per Si atom -5574.541592 kJ/mol
# Density = 2.370599 g / cm^3
# Si number density = 23.760065 Si / 1000 Ang^3
#
#
#
# Elastic Constant Matrix: (Units=GPa)
#
#
# Indices 1 2 3 4 5 6 
#
# 1 176.9843 35.9824 44.4137 0.0000 0.0000 0.0000
# 2 35.9824 176.9843 44.4137 0.0000 0.0000 0.0000
# 3 44.4137 44.4137 67.2710 0.0000 0.0000 0.0000
# 4 0.0000 0.0000 0.0000 40.2244 0.0000 0.0000
# 5 0.0000 0.0000 0.0000 0.0000 40.2244 0.0000
# 6 0.0000 0.0000 0.0000 0.0000 0.0000 70.5010
#
#
#
# Elastic Compliance Matrix: (Units=1/GPa)
#
#
# Indices 1 2 3 4 5 6 
#
# 1 0.006786 -0.000306 -0.004278 0.000000 0.000000 0.000000
# 2 -0.000306 0.006786 -0.004278 0.000000 0.000000 0.000000
# 3 -0.004278 -0.004278 0.020514 0.000000 0.000000 0.000000
# 4 0.000000 0.000000 0.000000 0.024861 0.000000 0.000000
# 5 0.000000 0.000000 0.000000 0.000000 0.024861 0.000000
# 6 0.000000 0.000000 0.000000 0.000000 0.000000 0.014184
#
#
# Mechanical properties :
#
#
# Convention : Reuss Voigt Hill
#
# Bulk Modulus (GPa) = 61.11917 74.53992 67.82954
# Shear Modulus (GPa) = 41.26414 49.95195 45.60805
#
# Velocity S-wave (km/s) = 4.17190 4.59011 4.38599
# Velocity P-wave (km/s) = 6.99897 7.71571 7.36607
#
# Compressibility (1/GPa) = 0.01636148
#
# Stress axis : x y z
#
# Youngs Moduli (GPa) = 147.36115 147.36115 48.74626
#
# Poissons Ratio (x) = 0.04510 0.20855
# Poissons Ratio (y) = 0.04510 0.20855
# Poissons Ratio (z) = 0.63044 0.63044
#
# Static dielectric constant tensor:
#      x y z
#    x 1.889360 0.000000 0.000000 
#    y 0.000000 1.889360 0.000000 
#    z 0.000000 0.000000 2.009640 
# 
# From -- ./inp_files/424.got.cif
#   From: 2010.05.17/outbox.cif.g08.bks.cpg/sg169_cif.got.tgz:424.got - 2010.05.20 11:12:54.
