data_PCOD9580220
_publ_section_title
;
Structure prediction by ZEFSAII (Michael W. Deem and Ramdas Pophale) SiO2 
 PCOD9580220
Probable space group: P 65
;
_chemical_formula_sum "Si O2"
_cell_formula_units_Z 42
_cell_length_a 13.440976
_cell_length_b 13.440976
_cell_length_c 15.188006
_cell_angle_alpha 90.000000
_cell_angle_beta 90.000000
_cell_angle_gamma 120.000000
_cell_volume 2376.254777
_symmetry_space_group_name_H-M "P 65"
_symmetry_group_IT_number 170
_symmetry_cell_setting 'hexagonal'
loop_
_space_group_symop_operation_xyz
x,y,z
x-y,x,5/6+z
-y,x-y,2/3+z
-x,-y,1/2+z
-x+y,-x,1/3+z
y,-x+y,1/6+z
loop_
_atom_site_type_symbol
_atom_site_label
_atom_site_fract_x
_atom_site_fract_y
_atom_site_fract_z
Si Si1 0.520171 0.144280 0.349980
Si Si2 0.147862 0.505411 0.171215
Si Si3 0.096387 0.463296 0.969527
Si Si4 0.475616 0.249123 0.971245
Si Si5 0.749752 0.168422 0.299758
Si Si6 0.292469 0.397819 0.634665
Si Si7 0.598751 0.499187 0.880090
O O1 0.487014 0.238658 0.372353
O O2 0.642168 0.190863 0.304315
O O3 0.531207 0.097145 0.444510
O O4 0.425292 0.040222 0.293749
O O5 0.202431 0.641516 0.162071
O O6 0.035476 0.454163 0.231923
O O7 0.124581 0.455693 0.071438
O O8 0.161623 0.431017 0.897417
O O9 0.121325 0.594862 0.958882
O O10 0.395078 0.159968 0.895895
O O11 0.541537 0.377750 0.929863
O O12 0.819307 0.206196 0.391394
O O13 0.836612 0.265184 0.232059
O O14 0.691958 0.030691 0.289591
#
# Coordination Sequence:
#
# PCOD9580220 Si02
#       7
#     6   6   6   6   6   6   6
#     4  10  20  36  53  80 121 144 185 233 276 359
#     4  10  22  34  53  82 115 151 191 230 287 358
#     4   9  20  35  50  82 114 147 182 228 286 350
#     4  11  20  35  56  79 119 154 185 236 296 349
#     4  11  21  37  55  85 114 149 194 237 290 352
#     4  10  21  35  54  83 113 146 193 239 282 356
#     4  11  22  34  55  83 116 149 188 233 297 346
#
# _framework density 17.674873000000002
#
# number of rings (size 3 to 8) (size 9 to 14) (size 15 to 20)
#    0.000    1.714    4.286    0.857    4.000    1.143 
#    0.000    0.000    0.000    0.000    3.714    0.000 
#    0.000    0.000    0.000    0.000    0.000    0.000 
#
# Total GULP energy -233967.966940 kJ/mol
# GULP energy per Si atom -5570.665880 kJ/mol
# Density = 1.763464 g / cm^3
# Si number density = 17.674873 Si / 1000 Ang^3
#
#
#
# Elastic Constant Matrix: (Units=GPa)
#
#
# Indices 1 2 3 4 5 6 
#
# 1 77.5470 39.4338 15.3857 0.0000 0.0000 0.0000
# 2 39.4338 77.5470 15.3857 0.0000 0.0000 0.0000
# 3 15.3857 15.3857 52.9131 0.0000 0.0000 0.0000
# 4 0.0000 0.0000 0.0000 26.1878 0.0000 0.0000
# 5 0.0000 0.0000 0.0000 0.0000 26.1878 0.0000
# 6 0.0000 0.0000 0.0000 0.0000 0.0000 19.0566
#
#
#
# Elastic Compliance Matrix: (Units=1/GPa)
#
#
# Indices 1 2 3 4 5 6 
#
# 1 0.017747 -0.008491 -0.002692 0.000000 0.000000 0.000000
# 2 -0.008491 0.017747 -0.002692 0.000000 0.000000 0.000000
# 3 -0.002692 -0.002692 0.020464 0.000000 0.000000 0.000000
# 4 0.000000 0.000000 0.000000 0.038186 0.000000 0.000000
# 5 0.000000 0.000000 0.000000 0.000000 0.038186 0.000000
# 6 0.000000 0.000000 0.000000 0.000000 0.000000 0.052475
#
#
# Mechanical properties :
#
#
# Convention : Reuss Voigt Hill
#
# Bulk Modulus (GPa) = 35.44727 38.71305 37.08016
# Shear Modulus (GPa) = 22.52702 23.47325 23.00014
#
# Velocity S-wave (km/s) = 3.57392 3.64821 3.61125
# Velocity P-wave (km/s) = 6.09338 6.30050 6.19780
#
# Compressibility (1/GPa) = 0.02821091
#
# Stress axis : x y z
#
# Youngs Moduli (GPa) = 56.34754 56.34754 48.86599
#
# Poissons Ratio (x) = 0.47842 0.13152
# Poissons Ratio (y) = 0.47842 0.13152
# Poissons Ratio (z) = 0.15166 0.15166
#
# Static dielectric constant tensor:
#      x y z
#    x 1.621720 0.000000 0.000000 
#    y 0.000000 1.621720 0.000000 
#    z 0.000000 0.000000 1.659360 
# 
# From -- ./inp_files/1436.got.cif
#   From: 2010.05.17/outbox.cif.g08.bks.cpg/sg170_cif.got.tgz:1436.got - 2010.05.20 11:14:30.
