data_PCOD9580650
_publ_section_title
;
Structure prediction by ZEFSAII (Michael W. Deem and Ramdas Pophale) SiO2 
 PCOD9580650
Probable space group: P 62
;
_chemical_formula_sum "Si O2"
_cell_formula_units_Z 48
_cell_length_a 10.558414
_cell_length_b 10.558414
_cell_length_c 21.099983
_cell_angle_alpha 90.000000
_cell_angle_beta 90.000000
_cell_angle_gamma 120.000000
_cell_volume 2037.089503
_symmetry_space_group_name_H-M "P 62"
_symmetry_group_IT_number 171
_symmetry_cell_setting 'hexagonal'
loop_
_space_group_symop_operation_xyz
x,y,z
x-y,x,1/3+z
-y,x-y,2/3+z
-x,-y,z
-x+y,-x,1/3+z
y,-x+y,2/3+z
loop_
_atom_site_type_symbol
_atom_site_label
_atom_site_fract_x
_atom_site_fract_y
_atom_site_fract_z
Si Si1 0.380528 0.729895 0.547950
Si Si2 0.670330 0.577816 0.560361
Si Si3 0.048891 0.840436 0.116032
Si Si4 0.882771 0.203043 0.759657
Si Si5 0.159455 0.631885 0.079575
Si Si6 0.573846 0.317795 0.011436
Si Si7 0.146783 0.278241 0.920983
Si Si8 0.651569 0.915802 0.723150
O O1 0.296741 0.554622 0.554853
O O2 0.375298 0.780484 0.477161
O O3 0.324505 0.788098 0.605094
O O4 0.551381 0.794766 0.566027
O O5 0.500000 0.500000 0.577439
O O6 0.697397 0.634949 0.488075
O O7 0.748122 0.730204 0.599219
O O8 0.149300 0.770995 0.099282
O O9 0.042461 0.854479 0.192502
O O10 0.894202 0.718280 0.088556
O O11 0.147092 0.002038 0.085584
O O12 0.832341 0.278976 0.707443
O O13 0.723638 0.058758 0.766509
O O14 0.272083 0.676288 0.022512
O O15 0.000000 0.500000 0.063606
O O16 0.629918 0.479760 0.042729
O O17 0.220820 0.272614 0.986353
#
# Coordination Sequence:
#
# PCOD9580650 Si02
#       8
#     6   6   6   6   6   6   6   6
#     4   9  19  34  60  92 122 153 207 264 322 367
#     4   9  17  36  62  88 117 156 208 261 307 369
#     4  10  22  40  65  91 121 162 215 265 308 370
#     4  11  23  39  60  87 130 167 196 251 327 388
#     4  11  21  38  66  97 123 157 213 277 312 365
#     4  11  23  37  64  93 124 166 207 260 320 381
#     4   8  19  35  62  90 116 161 207 261 307 366
#     4  11  22  41  61  91 126 167 213 252 314 393
#
# _framework density 23.563027999999999
#
# number of rings (size 3 to 8) (size 9 to 14) (size 15 to 20)
#    0.000    2.000    2.500    1.500    1.750    3.500 
#    0.000    5.000    0.000    0.000    0.000    0.000 
#    0.000    0.000    0.000    0.000    0.000    0.000 
#
# Total GULP energy -267233.048770 kJ/mol
# GULP energy per Si atom -5567.355183 kJ/mol
# Density = 2.350940 g / cm^3
# Si number density = 23.563028 Si / 1000 Ang^3
#
#
#
# Elastic Constant Matrix: (Units=GPa)
#
#
# Indices 1 2 3 4 5 6 
#
# 1 60.3353 -3.3162 18.4367 0.0000 0.0000 0.0000
# 2 -3.3162 60.3353 18.4367 0.0000 0.0000 0.0000
# 3 18.4367 18.4367 97.5612 0.0000 0.0000 0.0000
# 4 0.0000 0.0000 0.0000 -0.6447 0.0000 0.0000
# 5 0.0000 0.0000 0.0000 0.0000 -0.6447 0.0000
# 6 0.0000 0.0000 0.0000 0.0000 0.0000 31.8258
#
#
#
# Elastic Compliance Matrix: (Units=1/GPa)
#
#
# Indices 1 2 3 4 5 6 
#
# 1 0.017845 0.002135 -0.003776 0.000000 0.000000 0.000000
# 2 0.002135 0.017845 -0.003776 0.000000 0.000000 0.000000
# 3 -0.003776 -0.003776 0.011677 0.000000 0.000000 0.000000
# 4 0.000000 0.000000 0.000000 -1.551169 0.000000 0.000000
# 5 0.000000 0.000000 0.000000 0.000000 -1.551169 0.000000
# 6 0.000000 0.000000 0.000000 0.000000 0.000000 0.031421
#
#
# Mechanical properties :
#
#
# Convention : Reuss Voigt Hill
#
# Bulk Modulus (GPa) = 27.37206 31.70515 29.53861
# Shear Modulus (GPa) = -1.66637 18.41892 8.37628
#
# Velocity S-wave (km/s) = -0.84186 2.79890 1.88747
# Velocity P-wave (km/s) = 3.27059 4.89181 4.16092
#
# Compressibility (1/GPa) = 0.03653360
#
# Stress axis : x y z
#
# Youngs Moduli (GPa) = 56.03782 56.03782 85.63848
#
# Poissons Ratio (x) = -0.11962 0.32334
# Poissons Ratio (y) = -0.11962 0.32334
# Poissons Ratio (z) = 0.21158 0.21158
#
# Static dielectric constant tensor:
#      x y z
#    x 2.083550 0.000000 0.000000 
#    y 0.000000 2.083550 0.000000 
#    z 0.000000 0.000000 1.901130 
# 
# From -- ./inp_files/5231.got.cif
#   From: 2010.05.17/outbox.cif.g08.bks.cpg/sg171_3_cif.got.tgz:5231.got - 2010.05.20 11:16:09.
