data_PCOD9580560
_publ_section_title
;
Structure prediction by ZEFSAII (Michael W. Deem and Ramdas Pophale) SiO2 
 PCOD9580560
Probable space group: P 62
;
_chemical_formula_sum "Si O2"
_cell_formula_units_Z 42
_cell_length_a 10.009655
_cell_length_b 10.009655
_cell_length_c 22.528057
_cell_angle_alpha 90.000000
_cell_angle_beta 90.000000
_cell_angle_gamma 120.000000
_cell_volume 1954.756141
_symmetry_space_group_name_H-M "P 62"
_symmetry_group_IT_number 171
_symmetry_cell_setting 'hexagonal'
loop_
_space_group_symop_operation_xyz
x,y,z
x-y,x,1/3+z
-y,x-y,2/3+z
-x,-y,z
-x+y,-x,1/3+z
y,-x+y,2/3+z
loop_
_atom_site_type_symbol
_atom_site_label
_atom_site_fract_x
_atom_site_fract_y
_atom_site_fract_z
Si Si1 0.328560 0.975689 0.276930
Si Si2 0.702251 0.081925 0.983576
Si Si3 0.633333 0.269685 0.795971
Si Si4 0.684891 0.067625 0.405593
Si Si5 0.500000 0.500000 0.215945
Si Si6 0.515405 0.769046 0.010862
Si Si7 0.388694 0.172146 0.501113
Si Si8 0.000000 0.500000 0.259105
O O1 0.255715 0.876604 0.338002
O O2 0.243293 0.925117 0.213804
O O3 0.500000 0.000000 0.268839
O O4 0.337514 0.129542 0.300844
O O5 0.618988 0.983343 0.924641
O O6 0.614072 0.176461 0.000464
O O7 0.668409 0.936296 0.023335
O O8 0.470486 0.256142 0.780628
O O9 0.603917 0.156056 0.848979
O O10 0.682347 0.211480 0.739421
O O11 0.754831 0.446991 0.810245
O O12 0.500000 0.000000 0.400307
O O13 0.696941 0.935965 0.443781
O O14 0.510863 0.643920 0.963978
O O15 0.433809 0.077936 0.547561
#
# Coordination Sequence:
#
# PCOD9580560 Si02
#       8
#     6   6   6   6   3   6   6   3
#     4  11  21  39  60  91 131 174 224 270 353 416
#     4  10  22  42  57  94 125 167 208 285 334 393
#     4  11  19  38  58  97 118 158 213 275 335 404
#     4   9  19  34  58  85 127 153 209 285 318 388
#     4  10  21  34  60  84 124 151 198 262 326 380
#     4  10  22  37  67  88 131 165 213 281 349 400
#     4  11  21  34  63  92 123 168 219 274 326 416
#     4  12  19  38  64  96 118 179 232 260 350 444
#
# _framework density 21.486058
#
# number of rings (size 3 to 8) (size 9 to 14) (size 15 to 20)
#    0.000    1.714    2.143    7.286    0.000    0.000 
#   12.857    0.714    0.000    0.000    0.000    0.000 
#    0.000    0.000    0.000    0.000    0.000    0.000 
#
# Total GULP energy -233840.966345 kJ/mol
# GULP energy per Si atom -5567.642056 kJ/mol
# Density = 2.143715 g / cm^3
# Si number density = 21.486058 Si / 1000 Ang^3
#
#
#
# Elastic Constant Matrix: (Units=GPa)
#
#
# Indices 1 2 3 4 5 6 
#
# 1 40.5030 5.1491 -8.5765 0.0000 0.0000 0.0000
# 2 5.1491 40.5030 -8.5765 0.0000 0.0000 0.0000
# 3 -8.5765 -8.5765 74.2499 0.0000 0.0000 0.0000
# 4 0.0000 0.0000 0.0000 -5.4526 0.0000 0.0000
# 5 0.0000 0.0000 0.0000 0.0000 -5.4526 0.0000
# 6 0.0000 0.0000 0.0000 0.0000 0.0000 17.6769
#
#
#
# Elastic Compliance Matrix: (Units=1/GPa)
#
#
# Indices 1 2 3 4 5 6 
#
# 1 0.025592 -0.002693 0.002645 0.000000 0.000000 0.000000
# 2 -0.002693 0.025592 0.002645 0.000000 0.000000 0.000000
# 3 0.002645 0.002645 0.014079 0.000000 0.000000 0.000000
# 4 0.000000 0.000000 0.000000 -0.183400 0.000000 0.000000
# 5 0.000000 0.000000 0.000000 0.000000 -0.183400 0.000000
# 6 0.000000 0.000000 0.000000 0.000000 0.000000 0.056571
#
#
# Mechanical properties :
#
#
# Convention : Reuss Voigt Hill
#
# Bulk Modulus (GPa) = 14.19321 14.58312 14.38816
# Shear Modulus (GPa) = -22.05812 12.50502 -4.77655
#
# Velocity S-wave (km/s) = -3.20757 2.41510 -1.49262
# Velocity P-wave (km/s) = 2.66419 3.81823 1.93403
#
# Compressibility (1/GPa) = 0.07045624
#
# Stress axis : x y z
#
# Youngs Moduli (GPa) = 39.07468 39.07468 71.02744
#
# Poissons Ratio (x) = 0.10524 -0.18787
# Poissons Ratio (y) = 0.10524 -0.18787
# Poissons Ratio (z) = -0.10335 -0.10335
#
# Static dielectric constant tensor:
#      x y z
#    x 1.893030 0.000000 0.000000 
#    y 0.000000 1.893030 0.000000 
#    z 0.000000 0.000000 1.849890 
# 
# From -- ./inp_files/3983.got.cif
#   From: 2010.05.17/outbox.cif.g08.bks.cpg/sg171_2_cif.got.tgz:3983.got - 2010.05.20 11:16:09.
