data_PCOD9580194
_publ_section_title
;
Structure prediction by ZEFSAII (Michael W. Deem and Ramdas Pophale) SiO2 
 PCOD9580194
Probable space group: P 65
;
_chemical_formula_sum "Si O2"
_cell_formula_units_Z 42
_cell_length_a 10.769439
_cell_length_b 10.769439
_cell_length_c 24.052582
_cell_angle_alpha 90.000000
_cell_angle_beta 90.000000
_cell_angle_gamma 120.000000
_cell_volume 2415.897459
_symmetry_space_group_name_H-M "P 65"
_symmetry_group_IT_number 170
_symmetry_cell_setting 'hexagonal'
loop_
_space_group_symop_operation_xyz
x,y,z
x-y,x,5/6+z
-y,x-y,2/3+z
-x,-y,1/2+z
-x+y,-x,1/3+z
y,-x+y,1/6+z
loop_
_atom_site_type_symbol
_atom_site_label
_atom_site_fract_x
_atom_site_fract_y
_atom_site_fract_z
Si Si1 0.664215 0.250038 0.281000
Si Si2 0.500966 0.004999 0.867958
Si Si3 0.836901 0.258974 0.621359
Si Si4 0.039617 0.657466 0.237345
Si Si5 0.151539 0.744630 0.615539
Si Si6 0.627609 0.960031 0.065273
Si Si7 0.580189 0.270596 0.158545
O O1 0.686501 0.406950 0.296193
O O2 0.820499 0.269031 0.270574
O O3 0.586610 0.214380 0.220551
O O4 0.583801 0.128417 0.326678
O O5 0.412018 0.041419 0.912872
O O6 0.593823 0.152687 0.834251
O O7 0.598176 0.962704 0.905454
O O8 0.752169 0.104528 0.592757
O O9 0.896419 0.252867 0.681525
O O10 0.998664 0.495760 0.220748
O O11 0.154539 0.699965 0.286688
O O12 0.078880 0.744465 0.673092
O O13 0.269239 0.695353 0.630199
O O14 0.241938 0.903308 0.592195
#
# Coordination Sequence:
#
# PCOD9580194 Si02
#       7
#     6   6   6   6   6   6   6
#     4   9  19  35  53  88 111 142 194 238 288 338
#     4  11  21  33  59  85 112 145 198 239 282 352
#     4  10  21  36  58  85 113 151 186 240 296 338
#     4  10  19  37  56  80 117 146 186 237 290 334
#     4  10  19  36  57  81 113 147 182 238 291 331
#     4   9  18  35  55  81 111 145 183 233 284 335
#     4   9  21  34  56  86 111 146 193 237 291 340
#
# _framework density 17.384844999999999
#
# number of rings (size 3 to 8) (size 9 to 14) (size 15 to 20)
#    0.000    2.286    1.429    2.571    4.000    0.000 
#    5.143    0.000    0.000    5.143    0.000    0.000 
#    0.000    0.000    0.000    0.000    0.000    0.000 
#
# Total GULP energy -234211.254510 kJ/mol
# GULP energy per Si atom -5576.458441 kJ/mol
# Density = 1.734528 g / cm^3
# Si number density = 17.384845 Si / 1000 Ang^3
#
#
#
# Elastic Constant Matrix: (Units=GPa)
#
#
# Indices 1 2 3 4 5 6 
#
# 1 59.8981 20.9693 50.5771 0.0000 0.0000 0.0000
# 2 20.9693 59.8981 50.5771 0.0000 0.0000 0.0000
# 3 50.5771 50.5771 96.6800 0.0000 0.0000 0.0000
# 4 0.0000 0.0000 0.0000 26.3520 0.0000 0.0000
# 5 0.0000 0.0000 0.0000 0.0000 26.3520 0.0000
# 6 0.0000 0.0000 0.0000 0.0000 0.0000 19.4644
#
#
#
# Elastic Compliance Matrix: (Units=1/GPa)
#
#
# Indices 1 2 3 4 5 6 
#
# 1 0.030733 0.005045 -0.018717 0.000000 0.000000 0.000000
# 2 0.005045 0.030733 -0.018717 0.000000 0.000000 0.000000
# 3 -0.018717 -0.018717 0.029927 0.000000 0.000000 0.000000
# 4 0.000000 0.000000 0.000000 0.037948 0.000000 0.000000
# 5 0.000000 0.000000 0.000000 0.000000 0.037948 0.000000
# 6 0.000000 0.000000 0.000000 0.000000 0.000000 0.051376
#
#
# Mechanical properties :
#
#
# Convention : Reuss Voigt Hill
#
# Bulk Modulus (GPa) = 37.57245 51.19148 44.38196
# Shear Modulus (GPa) = 17.10483 20.72383 18.91433
#
# Velocity S-wave (km/s) = 3.14011 3.45637 3.30203
# Velocity P-wave (km/s) = 5.89967 6.74082 6.33422
#
# Compressibility (1/GPa) = 0.02661525
#
# Stress axis : x y z
#
# Youngs Moduli (GPa) = 32.53798 32.53798 33.41476
#
# Poissons Ratio (x) = -0.16417 0.62543
# Poissons Ratio (y) = -0.16417 0.62543
# Poissons Ratio (z) = 0.60902 0.60902
#
# Static dielectric constant tensor:
#      x y z
#    x 1.582830 0.000000 0.000000 
#    y 0.000000 1.582830 0.000000 
#    z 0.000000 0.000000 1.606520 
# 
# From -- ./inp_files/1692.got.cif
#   From: 2010.05.17/outbox.cif.g08.bks.cpg/sg170_cif.got.tgz:1692.got - 2010.05.20 11:14:30.
