data_PCOD9580552
_publ_section_title
;
Structure prediction by ZEFSAII (Michael W. Deem and Ramdas Pophale) SiO2 
 PCOD9580552
Probable space group: P 62
;
_chemical_formula_sum "Si O2"
_cell_formula_units_Z 42
_cell_length_a 15.433395
_cell_length_b 15.433395
_cell_length_c 9.348973
_cell_angle_alpha 90.000000
_cell_angle_beta 90.000000
_cell_angle_gamma 120.000000
_cell_volume 1928.490396
_symmetry_space_group_name_H-M "P 62"
_symmetry_group_IT_number 171
_symmetry_cell_setting 'hexagonal'
loop_
_space_group_symop_operation_xyz
x,y,z
x-y,x,1/3+z
-y,x-y,2/3+z
-x,-y,z
-x+y,-x,1/3+z
y,-x+y,2/3+z
loop_
_atom_site_type_symbol
_atom_site_label
_atom_site_fract_x
_atom_site_fract_y
_atom_site_fract_z
Si Si1 0.282801 0.506517 0.950360
Si Si2 0.274053 0.105566 0.136660
Si Si3 0.231741 0.050488 0.809911
Si Si4 0.305957 0.834853 0.823134
Si Si5 0.671621 0.407362 0.259862
Si Si6 0.375269 0.004122 0.611362
Si Si7 0.927271 0.676934 0.994857
O O1 0.322587 0.619465 0.898254
O O2 0.360055 0.470121 0.905862
O O3 0.294307 0.521458 0.121703
O O4 0.171417 0.414916 0.922545
O O5 0.182172 0.127882 0.155301
O O6 0.366921 0.209706 0.193941
O O7 0.275885 0.016424 0.219575
O O8 0.278208 0.086721 0.967538
O O9 0.301115 0.029462 0.702212
O O10 0.238763 0.146423 0.733892
O O11 0.265066 0.737786 0.722626
O O12 0.362385 0.809110 0.944054
O O13 0.380114 0.927272 0.722501
O O14 0.324843 0.953527 0.462227
#
# Coordination Sequence:
#
# PCOD9580552 Si02
#       7
#     6   6   6   6   6   6   6
#     4  10  22  40  64  93 132 174 224 277 335 397
#     4  11  24  40  70  95 135 174 227 279 344 398
#     4  10  21  42  63  96 132 171 221 275 322 407
#     4  10  20  42  61  98 127 179 218 281 334 408
#     4  10  21  38  65  89 134 169 220 284 332 383
#     4  10  20  41  72  89 131 173 233 262 332 415
#     4  11  22  42  69  99 130 180 220 278 341 402
#
# _framework density 21.778694000000002
#
# number of rings (size 3 to 8) (size 9 to 14) (size 15 to 20)
#    0.000    1.714    4.286    0.857    4.000    4.571 
#    5.143    4.286    0.000    0.000    0.000    0.000 
#    0.000    0.000    0.000    0.000    0.000    0.000 
#
# Total GULP energy -234195.848205 kJ/mol
# GULP energy per Si atom -5576.091624 kJ/mol
# Density = 2.172912 g / cm^3
# Si number density = 21.778694 Si / 1000 Ang^3
#
#
#
# Elastic Constant Matrix: (Units=GPa)
#
#
# Indices 1 2 3 4 5 6 
#
# 1 86.8852 14.9676 -0.7644 0.0000 0.0000 0.0000
# 2 14.9676 86.8852 -0.7644 0.0000 0.0000 0.0000
# 3 -0.7644 -0.7644 31.5092 0.0000 0.0000 0.0000
# 4 0.0000 0.0000 0.0000 33.2519 0.0000 0.0000
# 5 0.0000 0.0000 0.0000 0.0000 33.2519 0.0000
# 6 0.0000 0.0000 0.0000 0.0000 0.0000 35.9588
#
#
#
# Elastic Compliance Matrix: (Units=1/GPa)
#
#
# Indices 1 2 3 4 5 6 
#
# 1 0.011863 -0.002042 0.000238 0.000000 0.000000 0.000000
# 2 -0.002042 0.011863 0.000238 0.000000 0.000000 0.000000
# 3 0.000238 0.000238 0.031748 0.000000 0.000000 0.000000
# 4 0.000000 0.000000 0.000000 0.030074 0.000000 0.000000
# 5 0.000000 0.000000 0.000000 0.000000 0.030074 0.000000
# 6 0.000000 0.000000 0.000000 0.000000 0.000000 0.027810
#
#
# Mechanical properties :
#
#
# Convention : Reuss Voigt Hill
#
# Bulk Modulus (GPa) = 19.10415 25.79527 22.44971
# Shear Modulus (GPa) = 30.48600 33.28188 31.88394
#
# Velocity S-wave (km/s) = 3.74546 3.91344 3.83037
# Velocity P-wave (km/s) = 5.24363 5.68243 5.46743
#
# Compressibility (1/GPa) = 0.05234464
#
# Stress axis : x y z
#
# Youngs Moduli (GPa) = 84.29404 84.29404 31.49776
#
# Poissons Ratio (x) = 0.17209 -0.00750
# Poissons Ratio (y) = 0.17209 -0.00750
# Poissons Ratio (z) = -0.02008 -0.02008
#
# Static dielectric constant tensor:
#      x y z
#    x 1.869260 0.000000 0.000000 
#    y 0.000000 1.869260 0.000000 
#    z 0.000000 0.000000 1.787580 
# 
# From -- ./inp_files/1671.got.cif
#   From: 2010.05.17/outbox.cif.g08.bks.cpg/sg171_1_cif.got.tgz:1671.got - 2010.05.20 11:16:09.
