data_PCOD9580851
_publ_section_title
;
Structure prediction by ZEFSAII (Michael W. Deem and Ramdas Pophale) SiO2 
 PCOD9580851
Probable space group: P 62
;
_chemical_formula_sum "Si O2"
_cell_formula_units_Z 33
_cell_length_a 12.388460
_cell_length_b 12.388460
_cell_length_c 10.892436
_cell_angle_alpha 90.000000
_cell_angle_beta 90.000000
_cell_angle_gamma 120.000000
_cell_volume 1447.739069
_symmetry_space_group_name_H-M "P 62"
_symmetry_group_IT_number 171
_symmetry_cell_setting 'hexagonal'
loop_
_space_group_symop_operation_xyz
x,y,z
x-y,x,1/3+z
-y,x-y,2/3+z
-x,-y,z
-x+y,-x,1/3+z
y,-x+y,2/3+z
loop_
_atom_site_type_symbol
_atom_site_label
_atom_site_fract_x
_atom_site_fract_y
_atom_site_fract_z
Si Si1 0.601996 0.352097 0.647020
Si Si2 0.500000 0.500000 0.096398
Si Si3 0.848667 0.661878 0.871758
Si Si4 0.356694 0.134793 0.260398
Si Si5 0.061079 0.303121 0.351752
Si Si6 0.269515 0.495606 0.223018
O O1 0.487123 0.258316 0.560941
O O2 0.680646 0.494009 0.600783
O O3 0.701194 0.303991 0.656378
O O4 0.531741 0.322514 0.777153
O O5 0.580460 0.618265 0.013389
O O6 0.399750 0.511710 0.178284
O O7 0.833551 0.683657 0.729639
O O8 0.989754 0.701747 0.897877
O O9 0.806187 0.739890 0.960839
O O10 0.310817 0.196139 0.155370
O O11 0.181253 0.353968 0.264220
#
# Coordination Sequence:
#
# PCOD9580851 Si02
#       6
#     6   3   6   6   6   6
#     4  12  22  45  74 113 152 191 248 319 391 461
#     4  12  24  42  76 106 150 200 240 320 396 470
#     4  12  28  49  76 111 153 204 256 325 390 463
#     4  12  29  49  78 112 152 202 265 323 382 472
#     4  12  27  48  75 109 154 209 254 316 398 473
#     4  12  23  44  76 112 150 196 251 310 395 467
#
# _framework density 22.794160999999999
#
# number of rings (size 3 to 8) (size 9 to 14) (size 15 to 20)
#    0.000    0.000    7.273    1.636    2.545    0.000 
#    0.000    2.727    0.000    0.000    0.000    0.000 
#    0.000    0.000    0.000    0.000    0.000    0.000 
#
# Total GULP energy -184401.469492 kJ/mol
# GULP energy per Si atom -5587.923318 kJ/mol
# Density = 2.274228 g / cm^3
# Si number density = 22.794161 Si / 1000 Ang^3
#
#
#
# Elastic Constant Matrix: (Units=GPa)
#
#
# Indices 1 2 3 4 5 6 
#
# 1 92.9305 38.0781 29.2244 0.0000 0.0000 0.0000
# 2 38.0781 92.9305 29.2244 0.0000 0.0000 0.0000
# 3 29.2244 29.2244 135.8505 0.0000 0.0000 0.0000
# 4 0.0000 0.0000 0.0000 22.5689 0.0000 0.0000
# 5 0.0000 0.0000 0.0000 0.0000 22.5689 0.0000
# 6 0.0000 0.0000 0.0000 0.0000 0.0000 27.4262
#
#
#
# Elastic Compliance Matrix: (Units=1/GPa)
#
#
# Indices 1 2 3 4 5 6 
#
# 1 0.013337 -0.004894 -0.001816 0.000000 0.000000 0.000000
# 2 -0.004894 0.013337 -0.001816 0.000000 0.000000 0.000000
# 3 -0.001816 -0.001816 0.008143 0.000000 0.000000 0.000000
# 4 0.000000 0.000000 0.000000 0.044309 0.000000 0.000000
# 5 0.000000 0.000000 0.000000 0.000000 0.044309 0.000000
# 6 0.000000 0.000000 0.000000 0.000000 0.000000 0.036461
#
#
# Mechanical properties :
#
#
# Convention : Reuss Voigt Hill
#
# Bulk Modulus (GPa) = 56.29381 57.19612 56.74497
# Shear Modulus (GPa) = 27.34188 29.52513 28.43350
#
# Velocity S-wave (km/s) = 3.46715 3.60292 3.53569
# Velocity P-wave (km/s) = 6.38580 6.51575 6.45110
#
# Compressibility (1/GPa) = 0.01776394
#
# Stress axis : x y z
#
# Youngs Moduli (GPa) = 74.97893 74.97893 122.81220
#
# Poissons Ratio (x) = 0.36692 0.22307
# Poissons Ratio (y) = 0.36692 0.22307
# Poissons Ratio (z) = 0.13619 0.13619
#
# Static dielectric constant tensor:
#      x y z
#    x 1.915230 0.000000 0.000000 
#    y 0.000000 1.915230 0.000000 
#    z 0.000000 0.000000 2.025330 
# 
# From -- ./inp_files/1523.got.cif
#   From: 2010.05.17/outbox.cif.g08.bks.cpg/sg171_1_cif.got.tgz:1523.got - 2010.05.20 11:16:09.
