data_PCOD9580603
_publ_section_title
;
Structure prediction by ZEFSAII (Michael W. Deem and Ramdas Pophale) SiO2 
 PCOD9580603
Probable space group: P 62
;
_chemical_formula_sum "Si O2"
_cell_formula_units_Z 36
_cell_length_a 19.306437
_cell_length_b 19.306437
_cell_length_c 5.004891
_cell_angle_alpha 90.000000
_cell_angle_beta 90.000000
_cell_angle_gamma 120.000000
_cell_volume 1615.583911
_symmetry_space_group_name_H-M "P 62"
_symmetry_group_IT_number 171
_symmetry_cell_setting 'hexagonal'
loop_
_space_group_symop_operation_xyz
x,y,z
x-y,x,1/3+z
-y,x-y,2/3+z
-x,-y,z
-x+y,-x,1/3+z
y,-x+y,2/3+z
loop_
_atom_site_type_symbol
_atom_site_label
_atom_site_fract_x
_atom_site_fract_y
_atom_site_fract_z
Si Si1 0.963446 0.593156 0.519280
Si Si2 0.025480 0.306974 0.024610
Si Si3 0.118327 0.584266 0.463584
Si Si4 0.787340 0.251568 0.675678
Si Si5 0.844668 0.191981 0.175141
Si Si6 0.753121 0.387737 0.073293
O O1 0.942449 0.637120 0.287838
O O2 0.899941 0.501156 0.573705
O O3 0.038457 0.587307 0.413536
O O4 0.985906 0.643034 0.789474
O O5 0.097324 0.295432 0.909518
O O6 0.938281 0.233052 0.097592
O O7 0.167481 0.652139 0.680183
O O8 0.166316 0.605192 0.189369
O O9 0.831656 0.230801 0.440987
O O10 0.701940 0.235709 0.572409
O O11 0.798416 0.211155 0.940757
O O12 0.687508 0.294827 0.151534
#
# Coordination Sequence:
#
# PCOD9580603 Si02
#       6
#     6   6   6   6   6   6
#     4  11  24  41  64  94 126 169 222 280 333 394
#     4  12  24  43  65  96 129 171 216 271 341 400
#     4  10  21  41  60  89 124 173 226 280 331 383
#     4  11  24  42  62  87 130 172 224 276 325 380
#     4  12  24  43  66  93 127 167 214 267 331 405
#     4  10  23  37  54  83 119 176 222 276 325 384
#
# _framework density 22.282965999999998
#
# number of rings (size 3 to 8) (size 9 to 14) (size 15 to 20)
#    0.000    1.000    3.333    3.000    4.667    4.000 
#    3.000    0.000    0.000    0.000    0.000    0.000 
#    0.000   34.667    0.000    0.000    0.000    0.167 
#
# Total GULP energy -200980.780296 kJ/mol
# GULP energy per Si atom -5582.799453 kJ/mol
# Density = 2.223225 g / cm^3
# Si number density = 22.282966 Si / 1000 Ang^3
#
#
#
# Elastic Constant Matrix: (Units=GPa)
#
#
# Indices 1 2 3 4 5 6 
#
# 1 67.3384 7.9300 -12.5293 0.0000 0.0000 0.0000
# 2 7.9300 67.3384 -12.5293 0.0000 0.0000 0.0000
# 3 -12.5293 -12.5293 83.0831 0.0000 0.0000 0.0000
# 4 0.0000 0.0000 0.0000 -9.9898 0.0000 0.0000
# 5 0.0000 0.0000 0.0000 0.0000 -9.9898 0.0000
# 6 0.0000 0.0000 0.0000 0.0000 0.0000 29.7042
#
#
#
# Elastic Compliance Matrix: (Units=1/GPa)
#
#
# Indices 1 2 3 4 5 6 
#
# 1 0.015410 -0.001422 0.002109 0.000000 0.000000 0.000000
# 2 -0.001422 0.015410 0.002109 0.000000 0.000000 0.000000
# 3 0.002109 0.002109 0.012672 0.000000 0.000000 0.000000
# 4 0.000000 0.000000 0.000000 -0.100103 0.000000 0.000000
# 5 0.000000 0.000000 0.000000 0.000000 -0.100103 0.000000
# 6 0.000000 0.000000 0.000000 0.000000 0.000000 0.033665
#
#
# Mechanical properties :
#
#
# Convention : Reuss Voigt Hill
#
# Bulk Modulus (GPa) = 20.37226 20.38921 20.38073
# Shear Modulus (GPa) = -44.53231 17.60418 -13.46406
#
# Velocity S-wave (km/s) = -4.47530 2.81379 -2.46078
# Velocity P-wave (km/s) = 4.18832 4.44146 1.04512
#
# Compressibility (1/GPa) = 0.04908635
#
# Stress axis : x y z
#
# Youngs Moduli (GPa) = 64.89146 64.89146 78.91184
#
# Poissons Ratio (x) = 0.09229 -0.16646
# Poissons Ratio (y) = 0.09229 -0.16646
# Poissons Ratio (z) = -0.13689 -0.13689
#
# Static dielectric constant tensor:
#      x y z
#    x 1.990560 0.000000 0.000000 
#    y 0.000000 1.990560 0.000000 
#    z 0.000000 0.000000 2.119550 
# 
# From -- ./inp_files/416.got.cif
#   From: 2010.05.17/outbox.cif.g08.bks.cpg/sg171_1_cif.got.tgz:416.got - 2010.05.20 11:16:09.
