data_PCOD9580926
_publ_section_title
;
Structure prediction by ZEFSAII (Michael W. Deem and Ramdas Pophale) SiO2 
 PCOD9580926
Probable space group: P 64
;
_chemical_formula_sum "Si O2"
_cell_formula_units_Z 39
_cell_length_a 8.641871
_cell_length_b 8.641871
_cell_length_c 25.653523
_cell_angle_alpha 90.000000
_cell_angle_beta 90.000000
_cell_angle_gamma 120.000000
_cell_volume 1659.178859
_symmetry_space_group_name_H-M "P 64"
_symmetry_group_IT_number 172
_symmetry_cell_setting 'hexagonal'
loop_
_space_group_symop_operation_xyz
x,y,z
x-y,x,2/3+z
-y,x-y,1/3+z
-x,-y,z
-x+y,-x,2/3+z
y,-x+y,1/3+z
loop_
_atom_site_type_symbol
_atom_site_label
_atom_site_fract_x
_atom_site_fract_y
_atom_site_fract_z
Si Si1 0.133678 0.300797 0.207830
Si Si2 0.768911 0.753706 0.894225
Si Si3 0.000000 0.500000 0.131376
Si Si4 0.813190 0.952710 0.707092
Si Si5 0.113604 0.410821 0.452777
Si Si6 0.492349 0.809412 0.635084
Si Si7 0.134125 0.686925 0.673138
O O1 0.238875 0.188734 0.204851
O O2 0.248593 0.471613 0.243719
O O3 0.073525 0.384381 0.161631
O O4 0.952521 0.150790 0.235245
O O5 0.626018 0.688515 0.847154
O O6 0.717556 0.650545 0.949524
O O7 0.817959 0.329217 0.107980
O O8 0.779607 0.838362 0.759173
O O9 0.653128 0.828807 0.669448
O O10 0.817536 0.141484 0.708708
O O11 0.000000 0.000000 0.683465
O O12 0.000000 0.500000 0.432162
O O13 0.305647 0.672156 0.658445
O O14 0.500000 0.000000 0.637090
O O15 0.000000 0.500000 0.698290
#
# Coordination Sequence:
#
# PCOD9580926 Si02
#       7
#     6   6   3   6   6   6   6
#     4  10  20  38  65 101 135 184 225 306 365 426
#     4  10  21  41  69  98 141 183 242 298 370 446
#     4  10  26  40  70 100 142 182 248 306 360 454
#     4  11  25  47  68  97 141 194 240 296 367 452
#     4  11  27  47  72 102 149 197 247 306 377 460
#     4  10  21  38  66 100 135 181 229 302 364 432
#     4  11  24  41  71 105 143 180 242 314 363 437
#
# _framework density 23.505600000000001
#
# number of rings (size 3 to 8) (size 9 to 14) (size 15 to 20)
#    0.000    1.538    3.077    1.385   14.000    1.231 
#    1.385    0.000    0.000    0.000    0.000    0.000 
#    0.000    0.000    0.000    0.000    0.000    0.000 
#
# Total GULP energy -217436.634011 kJ/mol
# GULP energy per Si atom -5575.298308 kJ/mol
# Density = 2.345210 g / cm^3
# Si number density = 23.505600 Si / 1000 Ang^3
#
#
#
# Elastic Constant Matrix: (Units=GPa)
#
#
# Indices 1 2 3 4 5 6 
#
# 1 108.5341 32.2665 12.6498 0.0000 0.0000 0.0000
# 2 32.2665 108.5341 12.6498 0.0000 0.0000 0.0000
# 3 12.6498 12.6498 67.8959 0.0000 0.0000 0.0000
# 4 0.0000 0.0000 0.0000 21.0819 0.0000 0.0000
# 5 0.0000 0.0000 0.0000 0.0000 21.0819 0.0000
# 6 0.0000 0.0000 0.0000 0.0000 0.0000 38.1338
#
#
#
# Elastic Compliance Matrix: (Units=1/GPa)
#
#
# Indices 1 2 3 4 5 6 
#
# 1 0.010230 -0.002882 -0.001369 0.000000 0.000000 0.000000
# 2 -0.002882 0.010230 -0.001369 0.000000 0.000000 0.000000
# 3 -0.001369 -0.001369 0.015239 0.000000 0.000000 0.000000
# 4 0.000000 0.000000 0.000000 0.047434 0.000000 0.000000
# 5 0.000000 0.000000 0.000000 0.000000 0.047434 0.000000
# 6 0.000000 0.000000 0.000000 0.000000 0.000000 0.026223
#
#
# Mechanical properties :
#
#
# Convention : Reuss Voigt Hill
#
# Bulk Modulus (GPa) = 40.88506 44.45514 42.67010
# Shear Modulus (GPa) = 28.37960 31.21938 29.79949
#
# Velocity S-wave (km/s) = 3.47847 3.64836 3.56443
# Velocity P-wave (km/s) = 5.79349 6.05813 5.92729
#
# Compressibility (1/GPa) = 0.02445881
#
# Stress axis : x y z
#
# Youngs Moduli (GPa) = 97.75188 97.75188 65.62295
#
# Poissons Ratio (x) = 0.28170 0.08984
# Poissons Ratio (y) = 0.28170 0.08984
# Poissons Ratio (z) = 0.13383 0.13383
#
# Static dielectric constant tensor:
#      x y z
#    x 1.935900 0.000000 0.000000 
#    y 0.000000 1.935900 0.000000 
#    z 0.000000 0.000000 1.927990 
# 
# From -- ./inp_files/2895.got.cif
#   From: 2010.05.17/outbox.cif.g08.bks.cpg/sg172_2_cif.got.tgz:2895.got - 2010.05.20 11:19:57.
