data_PCOD9580266
_publ_section_title
;
Structure prediction by ZEFSAII (Michael W. Deem and Ramdas Pophale) SiO2 
 PCOD9580266
Probable space group: P 65
;
_chemical_formula_sum "Si O2"
_cell_formula_units_Z 48
_cell_length_a 18.400543
_cell_length_b 18.400543
_cell_length_c 8.250101
_cell_angle_alpha 90.000000
_cell_angle_beta 90.000000
_cell_angle_gamma 120.000000
_cell_volume 2419.085261
_symmetry_space_group_name_H-M "P 65"
_symmetry_group_IT_number 170
_symmetry_cell_setting 'hexagonal'
loop_
_space_group_symop_operation_xyz
x,y,z
x-y,x,5/6+z
-y,x-y,2/3+z
-x,-y,1/2+z
-x+y,-x,1/3+z
y,-x+y,1/6+z
loop_
_atom_site_type_symbol
_atom_site_label
_atom_site_fract_x
_atom_site_fract_y
_atom_site_fract_z
Si Si1 0.328579 0.609757 0.289120
Si Si2 0.828359 0.283637 0.749037
Si Si3 0.496166 0.342464 0.926137
Si Si4 0.115145 0.337260 0.544461
Si Si5 0.329627 0.071250 0.804548
Si Si6 0.602535 0.610909 0.887440
Si Si7 0.763869 0.184454 0.042415
Si Si8 0.518519 0.969061 0.727933
O O1 0.308772 0.651238 0.447007
O O2 0.412981 0.610046 0.343219
O O3 0.251616 0.515853 0.261246
O O4 0.728293 0.228834 0.709020
O O5 0.876864 0.285920 0.586857
O O6 0.883677 0.379858 0.807767
O O7 0.831424 0.229079 0.899941
O O8 0.424002 0.283506 0.800933
O O9 0.468005 0.407538 0.994341
O O10 0.160108 0.291665 0.623207
O O11 0.153255 0.361941 0.365338
O O12 0.016708 0.283591 0.547131
O O13 0.357074 0.049498 0.633932
O O14 0.588082 0.684574 0.820445
O O15 0.578268 0.545331 0.743930
O O16 0.537778 0.566229 0.035207
#
# Coordination Sequence:
#
# PCOD9580266 Si02
#       8
#     6   6   6   6   6   6   6   6
#     4  12  27  41  62  85 124 178 224 279 337 380
#     4  11  23  41  64  86 122 166 209 273 330 382
#     4  11  24  42  58  90 124 164 221 270 321 389
#     4  10  21  42  61  92 124 159 203 258 322 390
#     4  10  22  41  66  92 123 160 202 265 319 396
#     4  11  26  41  63  94 124 167 221 269 327 387
#     4  11  24  42  61  90 128 164 219 270 321 399
#     4  12  25  40  63  89 123 168 217 274 327 387
#
# _framework density 19.842210999999999
#
# number of rings (size 3 to 8) (size 9 to 14) (size 15 to 20)
#    0.000    1.000    3.750    2.250    8.750    0.000 
#    0.000    0.000    0.000    0.000    0.000    3.500 
#    0.000    0.000    0.000    0.000    0.000    0.000 
#
# Total GULP energy -267799.325698 kJ/mol
# GULP energy per Si atom -5579.152619 kJ/mol
# Density = 1.979705 g / cm^3
# Si number density = 19.842211 Si / 1000 Ang^3
#
#
#
# Elastic Constant Matrix: (Units=GPa)
#
#
# Indices 1 2 3 4 5 6 
#
# 1 66.9210 27.1766 7.8048 0.0000 0.0000 0.0000
# 2 27.1766 66.9210 7.8048 0.0000 0.0000 0.0000
# 3 7.8048 7.8048 57.2459 0.0000 0.0000 0.0000
# 4 0.0000 0.0000 0.0000 28.9516 0.0000 0.0000
# 5 0.0000 0.0000 0.0000 0.0000 28.9516 0.0000
# 6 0.0000 0.0000 0.0000 0.0000 0.0000 19.8722
#
#
#
# Elastic Compliance Matrix: (Units=1/GPa)
#
#
# Indices 1 2 3 4 5 6 
#
# 1 0.018017 -0.007144 -0.001482 0.000000 0.000000 0.000000
# 2 -0.007144 0.018017 -0.001482 0.000000 0.000000 0.000000
# 3 -0.001482 -0.001482 0.017873 0.000000 0.000000 0.000000
# 4 0.000000 0.000000 0.000000 0.034540 0.000000 0.000000
# 5 0.000000 0.000000 0.000000 0.000000 0.034540 0.000000
# 6 0.000000 0.000000 0.000000 0.000000 0.000000 0.050322
#
#
# Mechanical properties :
#
#
# Convention : Reuss Voigt Hill
#
# Bulk Modulus (GPa) = 29.68297 30.74004 30.21150
# Shear Modulus (GPa) = 24.41926 25.44183 24.93055
#
# Velocity S-wave (km/s) = 3.51190 3.58468 3.54848
# Velocity P-wave (km/s) = 5.60683 5.71481 5.66108
#
# Compressibility (1/GPa) = 0.03368935
#
# Stress axis : x y z
#
# Youngs Moduli (GPa) = 55.50315 55.50315 55.95121
#
# Poissons Ratio (x) = 0.39650 0.08294
# Poissons Ratio (y) = 0.39650 0.08294
# Poissons Ratio (z) = 0.08228 0.08228
#
# Static dielectric constant tensor:
#      x y z
#    x 1.715190 0.000000 0.000000 
#    y 0.000000 1.715190 0.000000 
#    z 0.000000 0.000000 1.784320 
# 
# From -- ./inp_files/720.got.cif
#   From: 2010.05.17/outbox.cif.g08.bks.cpg/sg170_cif.got.tgz:720.got - 2010.05.20 11:14:30.
