data_PCOD9580407
_publ_section_title
;
Structure prediction by ZEFSAII (Michael W. Deem and Ramdas Pophale) SiO2 
 PCOD9580407
Probable space group: P 65
;
_chemical_formula_sum "Si O2"
_cell_formula_units_Z 24
_cell_length_a 13.528649
_cell_length_b 13.528649
_cell_length_c 6.443609
_cell_angle_alpha 90.000000
_cell_angle_beta 90.000000
_cell_angle_gamma 120.000000
_cell_volume 1021.336069
_symmetry_space_group_name_H-M "P 65"
_symmetry_group_IT_number 170
_symmetry_cell_setting 'hexagonal'
loop_
_space_group_symop_operation_xyz
x,y,z
x-y,x,5/6+z
-y,x-y,2/3+z
-x,-y,1/2+z
-x+y,-x,1/3+z
y,-x+y,1/6+z
loop_
_atom_site_type_symbol
_atom_site_label
_atom_site_fract_x
_atom_site_fract_y
_atom_site_fract_z
Si Si1 0.155916 0.592254 0.381990
Si Si2 0.933759 0.754385 0.446003
Si Si3 0.767389 0.236316 0.538247
Si Si4 0.030497 0.647384 0.720314
O O1 0.203501 0.535884 0.541379
O O2 0.104060 0.654297 0.519477
O O3 0.058590 0.484916 0.257597
O O4 0.238274 0.684967 0.218222
O O5 0.847701 0.800185 0.496995
O O6 0.871444 0.638592 0.310119
O O7 0.968326 0.717732 0.661731
O O8 0.886638 0.304442 0.415939
#
# Coordination Sequence:
#
# PCOD9580407 Si02
#       4
#     6   6   6   6
#     4  12  26  48  78 112 158 210 264 333 406 481
#     4  12  27  51  78 116 159 211 273 330 397 478
#     4  12  28  49  78 116 162 208 271 330 405 488
#     4  12  25  52  76 110 161 205 264 333 398 477
#
# _framework density 23.498632000000001
#
# number of rings (size 3 to 8) (size 9 to 14) (size 15 to 20)
#    0.000    0.000    5.000    4.500    0.000    4.000 
#    0.000    0.000    0.000    0.000    0.000    0.000 
#    0.000    0.000    0.000    0.000    0.000    0.000 
#
# Total GULP energy -134711.739166 kJ/mol
# GULP energy per Si atom -5612.989132 kJ/mol
# Density = 2.344515 g / cm^3
# Si number density = 23.498632 Si / 1000 Ang^3
#
#
#
# Elastic Constant Matrix: (Units=GPa)
#
#
# Indices 1 2 3 4 5 6 
#
# 1 116.4096 53.3582 47.2019 0.0000 0.0000 0.0000
# 2 53.3582 116.4096 47.2019 0.0000 0.0000 0.0000
# 3 47.2019 47.2019 109.8515 0.0000 0.0000 0.0000
# 4 0.0000 0.0000 0.0000 50.7432 0.0000 0.0000
# 5 0.0000 0.0000 0.0000 0.0000 50.7432 0.0000
# 6 0.0000 0.0000 0.0000 0.0000 0.0000 31.5257
#
#
#
# Elastic Compliance Matrix: (Units=1/GPa)
#
#
# Indices 1 2 3 4 5 6 
#
# 1 0.011800 -0.004060 -0.003326 0.000000 0.000000 0.000000
# 2 -0.004060 0.011800 -0.003326 0.000000 0.000000 0.000000
# 3 -0.003326 -0.003326 0.011961 0.000000 0.000000 0.000000
# 4 0.000000 0.000000 0.000000 0.019707 0.000000 0.000000
# 5 0.000000 0.000000 0.000000 0.000000 0.019707 0.000000
# 6 0.000000 0.000000 0.000000 0.000000 0.000000 0.031720
#
#
# Mechanical properties :
#
#
# Convention : Reuss Voigt Hill
#
# Bulk Modulus (GPa) = 70.73150 70.91053 70.82102
# Shear Modulus (GPa) = 37.64183 39.59634 38.61908
#
# Velocity S-wave (km/s) = 4.00668 4.10939 4.05836
# Velocity P-wave (km/s) = 7.18125 7.26347 7.22248
#
# Compressibility (1/GPa) = 0.01413797
#
# Stress axis : x y z
#
# Youngs Moduli (GPa) = 84.74653 84.74653 83.60363
#
# Poissons Ratio (x) = 0.34409 0.27804
# Poissons Ratio (y) = 0.34409 0.27804
# Poissons Ratio (z) = 0.28184 0.28184
#
# Static dielectric constant tensor:
#      x y z
#    x 1.880930 0.000000 0.000000 
#    y 0.000000 1.880930 0.000000 
#    z 0.000000 0.000000 1.846810 
# 
# From -- ./inp_files/72.got.cif
#   From: 2010.05.17/outbox.cif.g08.bks.cpg/sg170_cif.got.tgz:72.got - 2010.05.20 11:14:30.
