data_PCOD9580920
_publ_section_title
;
Structure prediction by ZEFSAII (Michael W. Deem and Ramdas Pophale) SiO2 
 PCOD9580920
Probable space group: P 64
;
_chemical_formula_sum "Si O2"
_cell_formula_units_Z 42
_cell_length_a 10.235162
_cell_length_b 10.235162
_cell_length_c 22.716226
_cell_angle_alpha 90.000000
_cell_angle_beta 90.000000
_cell_angle_gamma 120.000000
_cell_volume 2060.896845
_symmetry_space_group_name_H-M "P 64"
_symmetry_group_IT_number 172
_symmetry_cell_setting 'hexagonal'
loop_
_space_group_symop_operation_xyz
x,y,z
x-y,x,2/3+z
-y,x-y,1/3+z
-x,-y,z
-x+y,-x,2/3+z
y,-x+y,1/3+z
loop_
_atom_site_type_symbol
_atom_site_label
_atom_site_fract_x
_atom_site_fract_y
_atom_site_fract_z
Si Si1 0.154805 0.641943 0.141990
Si Si2 0.769401 0.224776 0.607932
Si Si3 0.846971 0.377085 0.835756
Si Si4 0.555917 0.275959 0.688226
Si Si5 0.200767 0.302670 0.265852
Si Si6 0.000000 0.000000 0.883918
Si Si7 0.000000 0.500000 0.423103
Si Si8 0.693464 0.725796 0.855569
O O1 0.282674 0.594275 0.138068
O O2 0.149996 0.677381 0.073043
O O3 0.202426 0.785693 0.184386
O O4 0.000000 0.500000 0.162027
O O5 0.652649 0.187546 0.553822
O O6 0.704888 0.286075 0.659153
O O7 0.936913 0.312266 0.578792
O O8 0.737917 0.059709 0.626033
O O9 0.884121 0.259776 0.868263
O O10 0.573569 0.425014 0.717325
O O11 0.432581 0.230474 0.637080
O O12 0.500000 0.000000 0.470742
O O13 0.050299 0.146664 0.257164
O O14 0.868724 0.856008 0.849976
O O15 0.014583 0.631078 0.466243
#
# Coordination Sequence:
#
# PCOD9580920 Si02
#       8
#     6   6   6   6   6   3   3   6
#     4  11  21  35  60  92 119 161 210 261 316 388
#     4   9  17  35  61  83 112 161 198 254 310 372
#     4   9  18  34  58  81 111 154 203 246 300 370
#     4  10  20  37  58  85 126 165 202 252 327 386
#     4   9  18  35  59  87 114 153 205 261 308 374
#     4  10  20  38  62  92 122 160 222 268 318 376
#     4  10  22  40  58  92 132 170 208 272 334 392
#     4  10  21  38  62  92 124 163 215 265 323 377
#
# _framework density 20.379479
#
# number of rings (size 3 to 8) (size 9 to 14) (size 15 to 20)
#    0.000    2.286    0.000    4.714    0.000    0.000 
#   12.857    2.857    7.857   18.857    7.429    0.000 
#    0.000    0.000    0.000    0.000    0.000    0.000 
#
# Total GULP energy -233865.600344 kJ/mol
# GULP energy per Si atom -5568.228580 kJ/mol
# Density = 2.033309 g / cm^3
# Si number density = 20.379479 Si / 1000 Ang^3
#
#
#
# Elastic Constant Matrix: (Units=GPa)
#
#
# Indices 1 2 3 4 5 6 
#
# 1 119.9948 38.2335 36.0739 0.0000 0.0000 0.0000
# 2 38.2335 119.9948 36.0739 0.0000 0.0000 0.0000
# 3 36.0739 36.0739 51.8969 0.0000 0.0000 0.0000
# 4 0.0000 0.0000 0.0000 14.6786 0.0000 0.0000
# 5 0.0000 0.0000 0.0000 0.0000 14.6786 0.0000
# 6 0.0000 0.0000 0.0000 0.0000 0.0000 40.8807
#
#
#
# Elastic Compliance Matrix: (Units=1/GPa)
#
#
# Indices 1 2 3 4 5 6 
#
# 1 0.010742 -0.001489 -0.006432 0.000000 0.000000 0.000000
# 2 -0.001489 0.010742 -0.006432 0.000000 0.000000 0.000000
# 3 -0.006432 -0.006432 0.028210 0.000000 0.000000 0.000000
# 4 0.000000 0.000000 0.000000 0.068127 0.000000 0.000000
# 5 0.000000 0.000000 0.000000 0.000000 0.068127 0.000000
# 6 0.000000 0.000000 0.000000 0.000000 0.000000 0.024461
#
#
# Mechanical properties :
#
#
# Convention : Reuss Voigt Hill
#
# Bulk Modulus (GPa) = 47.64354 56.96101 52.30227
# Shear Modulus (GPa) = 20.31622 26.14790 23.23206
#
# Velocity S-wave (km/s) = 3.16079 3.58586 3.38001
# Velocity P-wave (km/s) = 6.06216 6.71977 6.39942
#
# Compressibility (1/GPa) = 0.02098921
#
# Stress axis : x y z
#
# Youngs Moduli (GPa) = 93.09551 93.09551 35.44821
#
# Poissons Ratio (x) = 0.13863 0.22799
# Poissons Ratio (y) = 0.13863 0.22799
# Poissons Ratio (z) = 0.59875 0.59875
#
# Static dielectric constant tensor:
#      x y z
#    x 1.777780 0.000000 0.000000 
#    y 0.000000 1.777780 0.000000 
#    z 0.000000 0.000000 1.725620 
# 
# From -- ./inp_files/2316.got.cif
#   From: 2010.05.17/outbox.cif.g08.bks.cpg/sg172_2_cif.got.tgz:2316.got - 2010.05.20 11:19:57.
