data_PCOD9580271
_publ_section_title
;
Structure prediction by ZEFSAII (Michael W. Deem and Ramdas Pophale) SiO2 
 PCOD9580271
Probable space group: P 65
;
_chemical_formula_sum "Si O2"
_cell_formula_units_Z 48
_cell_length_a 14.853460
_cell_length_b 14.853460
_cell_length_c 10.800487
_cell_angle_alpha 90.000000
_cell_angle_beta 90.000000
_cell_angle_gamma 120.000000
_cell_volume 2063.617643
_symmetry_space_group_name_H-M "P 65"
_symmetry_group_IT_number 170
_symmetry_cell_setting 'hexagonal'
loop_
_space_group_symop_operation_xyz
x,y,z
x-y,x,5/6+z
-y,x-y,2/3+z
-x,-y,1/2+z
-x+y,-x,1/3+z
y,-x+y,1/6+z
loop_
_atom_site_type_symbol
_atom_site_label
_atom_site_fract_x
_atom_site_fract_y
_atom_site_fract_z
Si Si1 0.229220 0.578586 0.621880
Si Si2 0.379432 0.605313 0.849957
Si Si3 0.115924 0.195585 0.314701
Si Si4 0.221399 0.399065 0.919185
Si Si5 0.289750 0.300998 0.131737
Si Si6 0.474026 0.480336 0.276532
Si Si7 0.320036 0.357866 0.679109
Si Si8 0.195038 0.817291 0.815865
O O1 0.308601 0.581969 0.725975
O O2 0.281158 0.693117 0.564303
O O3 0.113492 0.543863 0.672210
O O4 0.221474 0.498409 0.513360
O O5 0.293456 0.521155 0.943279
O O6 0.471301 0.577464 0.843422
O O7 0.135838 0.136374 0.427590
O O8 0.197179 0.209213 0.208431
O O9 0.154207 0.315633 0.353430
O O10 0.263980 0.378154 0.792563
O O11 0.241380 0.340179 0.028861
O O12 0.101644 0.361752 0.906721
O O13 0.366487 0.394271 0.220928
O O14 0.561405 0.548391 0.173674
O O15 0.321917 0.253743 0.709421
O O16 0.262214 0.353610 0.553931
#
# Coordination Sequence:
#
# PCOD9580271 Si02
#       8
#     6   6   6   6   6   6   6   6
#     4  11  25  44  71 111 146 197 255 308 382 453
#     4  11  25  47  72 106 152 189 256 314 371 469
#     4  12  27  52  72 106 149 192 252 317 383 455
#     4  11  24  43  76 100 147 187 242 306 370 448
#     4  12  26  46  70 104 146 191 239 300 375 450
#     4  10  25  44  68 102 144 192 246 297 379 441
#     4  10  21  44  68 107 135 183 243 295 364 441
#     4  11  21  44  71 102 147 187 239 305 366 449
#
# _framework density 23.260121999999999
#
# number of rings (size 3 to 8) (size 9 to 14) (size 15 to 20)
#    0.000    1.000    5.000    1.500    8.750    0.000 
#    6.750    0.000    0.000    0.000    0.000    0.000 
#    0.000    0.000    0.000    0.000    0.000    0.000 
#
# Total GULP energy -268153.250261 kJ/mol
# GULP energy per Si atom -5586.526047 kJ/mol
# Density = 2.320718 g / cm^3
# Si number density = 23.260122 Si / 1000 Ang^3
#
#
#
# Elastic Constant Matrix: (Units=GPa)
#
#
# Indices 1 2 3 4 5 6 
#
# 1 100.5350 50.7028 19.3032 0.0000 0.0000 0.0000
# 2 50.7028 100.5350 19.3032 0.0000 0.0000 0.0000
# 3 19.3032 19.3032 45.5998 0.0000 0.0000 0.0000
# 4 0.0000 0.0000 0.0000 30.9324 0.0000 0.0000
# 5 0.0000 0.0000 0.0000 0.0000 30.9324 0.0000
# 6 0.0000 0.0000 0.0000 0.0000 0.0000 24.9161
#
#
#
# Elastic Compliance Matrix: (Units=1/GPa)
#
#
# Indices 1 2 3 4 5 6 
#
# 1 0.013740 -0.006327 -0.003138 0.000000 0.000000 0.000000
# 2 -0.006327 0.013740 -0.003138 0.000000 0.000000 0.000000
# 3 -0.003138 -0.003138 0.024587 0.000000 0.000000 0.000000
# 4 0.000000 0.000000 0.000000 0.032329 0.000000 0.000000
# 5 0.000000 0.000000 0.000000 0.000000 0.032329 0.000000
# 6 0.000000 0.000000 0.000000 0.000000 0.000000 0.040135
#
#
# Mechanical properties :
#
#
# Convention : Reuss Voigt Hill
#
# Bulk Modulus (GPa) = 37.22924 47.25425 42.24175
# Shear Modulus (GPa) = 26.17537 27.84690 27.01113
#
# Velocity S-wave (km/s) = 3.35824 3.46380 3.41143
# Velocity P-wave (km/s) = 5.57471 6.02967 5.80665
#
# Compressibility (1/GPa) = 0.02686061
#
# Stress axis : x y z
#
# Youngs Moduli (GPa) = 72.77885 72.77885 40.67224
#
# Poissons Ratio (x) = 0.46048 0.12764
# Poissons Ratio (y) = 0.46048 0.12764
# Poissons Ratio (z) = 0.22839 0.22839
#
# Static dielectric constant tensor:
#      x y z
#    x 1.888470 0.000000 0.000000 
#    y 0.000000 1.888470 0.000000 
#    z 0.000000 0.000000 1.908820 
# 
# From -- ./inp_files/1103.got.cif
#   From: 2010.05.17/outbox.cif.g08.bks.cpg/sg170_cif.got.tgz:1103.got - 2010.05.20 11:14:30.
