data_PCOD9580667
_publ_section_title
;
Structure prediction by ZEFSAII (Michael W. Deem and Ramdas Pophale) SiO2 
 PCOD9580667
Probable space group: P 62
;
_chemical_formula_sum "Si O2"
_cell_formula_units_Z 33
_cell_length_a 9.989183
_cell_length_b 9.989183
_cell_length_c 17.056395
_cell_angle_alpha 90.000000
_cell_angle_beta 90.000000
_cell_angle_gamma 120.000000
_cell_volume 1473.933248
_symmetry_space_group_name_H-M "P 62"
_symmetry_group_IT_number 171
_symmetry_cell_setting 'hexagonal'
loop_
_space_group_symop_operation_xyz
x,y,z
x-y,x,1/3+z
-y,x-y,2/3+z
-x,-y,z
-x+y,-x,1/3+z
y,-x+y,2/3+z
loop_
_atom_site_type_symbol
_atom_site_label
_atom_site_fract_x
_atom_site_fract_y
_atom_site_fract_z
Si Si1 0.082682 0.397273 0.089160
Si Si2 0.258983 0.192463 0.376764
Si Si3 0.256553 0.406447 0.943357
Si Si4 0.467461 0.268909 0.918125
Si Si5 0.500000 0.000000 0.001790
Si Si6 0.047311 0.871170 0.869848
O O1 0.171053 0.394838 0.166160
O O2 0.000000 0.500000 0.095758
O O3 0.956363 0.221867 0.070835
O O4 0.203933 0.457066 0.020059
O O5 0.423717 0.344727 0.384617
O O6 0.154087 0.219505 0.442343
O O7 0.234330 0.162359 0.280778
O O8 0.351354 0.316386 0.960727
O O9 0.375015 0.568752 0.904317
O O10 0.101261 0.291709 0.896603
O O11 0.493726 0.138067 0.955618
O O12 0.000000 0.000000 0.868577
#
# Coordination Sequence:
#
# PCOD9580667 Si02
#       6
#     6   6   6   6   3   6
#     4  11  21  43  73 102 139 191 245 306 385 465
#     4  11  25  45  69 106 146 190 253 319 385 469
#     4  10  22  41  72 105 140 189 244 306 378 461
#     4  11  22  45  68 102 152 185 246 306 380 464
#     4  12  28  48  64 110 150 194 254 322 396 476
#     4  11  22  44  73 105 139 189 247 313 381 460
#
# _framework density 22.389071999999999
#
# number of rings (size 3 to 8) (size 9 to 14) (size 15 to 20)
#    0.000    1.091    3.636    2.727    0.000    2.909 
#   16.364    0.000    0.000    0.000    0.000    0.000 
#    0.000    0.000    0.000    0.000    0.000    0.000 
#
# Total GULP energy -183796.057702 kJ/mol
# GULP energy per Si atom -5569.577506 kJ/mol
# Density = 2.233811 g / cm^3
# Si number density = 22.389072 Si / 1000 Ang^3
#
#
#
# Elastic Constant Matrix: (Units=GPa)
#
#
# Indices 1 2 3 4 5 6 
#
# 1 67.8918 5.6128 22.0209 0.0000 0.0000 0.0000
# 2 5.6128 67.8918 22.0209 0.0000 0.0000 0.0000
# 3 22.0209 22.0209 117.4657 0.0000 0.0000 0.0000
# 4 0.0000 0.0000 0.0000 1.6094 0.0000 0.0000
# 5 0.0000 0.0000 0.0000 0.0000 1.6094 0.0000
# 6 0.0000 0.0000 0.0000 0.0000 0.0000 31.1395
#
#
#
# Elastic Compliance Matrix: (Units=1/GPa)
#
#
# Indices 1 2 3 4 5 6 
#
# 1 0.015691 -0.000365 -0.002873 0.000000 0.000000 0.000000
# 2 -0.000365 0.015691 -0.002873 0.000000 0.000000 0.000000
# 3 -0.002873 -0.002873 0.009590 0.000000 0.000000 0.000000
# 4 0.000000 0.000000 0.000000 0.621360 0.000000 0.000000
# 5 0.000000 0.000000 0.000000 0.000000 0.621360 0.000000
# 6 0.000000 0.000000 0.000000 0.000000 0.000000 0.032114
#
#
# Mechanical properties :
#
#
# Convention : Reuss Voigt Hill
#
# Bulk Modulus (GPa) = 34.78260 39.17316 36.97788
# Shear Modulus (GPa) = 3.73800 20.44464 12.09132
#
# Velocity S-wave (km/s) = 1.29352 3.02512 2.32643
# Velocity P-wave (km/s) = 4.21902 5.45310 4.87527
#
# Compressibility (1/GPa) = 0.02875001
#
# Stress axis : x y z
#
# Youngs Moduli (GPa) = 63.72907 63.72907 104.27147
#
# Poissons Ratio (x) = 0.02328 0.29958
# Poissons Ratio (y) = 0.02328 0.29958
# Poissons Ratio (z) = 0.18310 0.18310
#
# Static dielectric constant tensor:
#      x y z
#    x 1.916480 0.000000 0.000000 
#    y 0.000000 1.916480 0.000000 
#    z 0.000000 0.000000 1.939510 
# 
# From -- ./inp_files/2886.got.cif
#   From: 2010.05.17/outbox.cif.g08.bks.cpg/sg171_2_cif.got.tgz:2886.got - 2010.05.20 11:16:09.
