data_PCOD9580093
_publ_section_title
;
Structure prediction by ZEFSAII (Michael W. Deem and Ramdas Pophale) SiO2 
 PCOD9580093
Probable space group: P 61
;
_chemical_formula_sum "Si O2"
_cell_formula_units_Z 48
_cell_length_a 12.304905
_cell_length_b 12.304905
_cell_length_c 18.779895
_cell_angle_alpha 90.000000
_cell_angle_beta 90.000000
_cell_angle_gamma 120.000000
_cell_volume 2462.523148
_symmetry_space_group_name_H-M "P 61"
_symmetry_group_IT_number 169
_symmetry_cell_setting 'hexagonal'
loop_
_space_group_symop_operation_xyz
x,y,z
x-y,x,1/6+z
-y,x-y,1/3+z
-x,-y,1/2+z
-x+y,-x,2/3+z
y,-x+y,5/6+z
loop_
_atom_site_type_symbol
_atom_site_label
_atom_site_fract_x
_atom_site_fract_y
_atom_site_fract_z
Si Si1 0.912559 0.315472 0.719660
Si Si2 0.091160 0.719700 0.856288
Si Si3 0.776264 0.193874 0.862296
Si Si4 0.634720 0.034354 0.371392
Si Si5 0.406903 0.232610 0.250726
Si Si6 0.211065 0.667013 0.634856
Si Si7 0.378048 0.534298 0.812725
Si Si8 0.590730 0.474321 0.820010
O O1 0.873190 0.265130 0.799243
O O2 0.916587 0.449764 0.709545
O O3 0.817591 0.214555 0.663546
O O4 0.045946 0.329130 0.701265
O O5 0.222370 0.852515 0.858098
O O6 0.118655 0.627156 0.904098
O O7 0.038258 0.663464 0.778617
O O8 0.963814 0.702080 0.894839
O O9 0.654636 0.203925 0.841465
O O10 0.830238 0.259846 0.937474
O O11 0.581179 0.921940 0.313886
O O12 0.541030 0.360999 0.253566
O O13 0.430551 0.145788 0.196807
O O14 0.235868 0.659990 0.551174
O O15 0.330250 0.786652 0.667167
O O16 0.478555 0.497158 0.838675
#
# Coordination Sequence:
#
# PCOD9580093 Si02
#       8
#     6   6   6   6   6   6   6   6
#     4  11  24  39  65  97 129 172 221 278 345 404
#     4  11  24  41  64  98 134 177 222 279 343 405
#     4  11  23  41  61  95 129 166 218 273 339 403
#     4  11  25  41  66  97 136 176 225 280 343 408
#     4  11  22  40  67  94 132 166 221 276 330 406
#     4  11  24  38  63  93 127 178 209 274 328 403
#     4  11  24  38  61  95 132 163 211 269 337 399
#     4  11  22  38  63  95 127 166 215 267 343 388
#
# _framework density 19.492201000000001
#
# number of rings (size 3 to 8) (size 9 to 14) (size 15 to 20)
#    0.000    1.000    3.750    3.750   10.500    0.000 
#    0.000    0.000    0.000    4.500    0.000    0.000 
#    0.000    0.000    0.000    0.000    0.000    0.000 
#
# Total GULP energy -267772.174319 kJ/mol
# GULP energy per Si atom -5578.586965 kJ/mol
# Density = 1.944784 g / cm^3
# Si number density = 19.492201 Si / 1000 Ang^3
#
#
#
# Elastic Constant Matrix: (Units=GPa)
#
#
# Indices 1 2 3 4 5 6 
#
# 1 60.9400 24.9395 25.1713 0.0000 0.0000 0.0000
# 2 24.9395 60.9400 25.1713 0.0000 0.0000 0.0000
# 3 25.1713 25.1713 55.7475 0.0000 0.0000 0.0000
# 4 0.0000 0.0000 0.0000 31.4771 0.0000 0.0000
# 5 0.0000 0.0000 0.0000 0.0000 31.4771 0.0000
# 6 0.0000 0.0000 0.0000 0.0000 0.0000 18.0003
#
#
#
# Elastic Compliance Matrix: (Units=1/GPa)
#
#
# Indices 1 2 3 4 5 6 
#
# 1 0.021806 -0.005971 -0.007150 0.000000 0.000000 0.000000
# 2 -0.005971 0.021806 -0.007150 0.000000 0.000000 0.000000
# 3 -0.007150 -0.007150 0.024395 0.000000 0.000000 0.000000
# 4 0.000000 0.000000 0.000000 0.031769 0.000000 0.000000
# 5 0.000000 0.000000 0.000000 0.000000 0.031769 0.000000
# 6 0.000000 0.000000 0.000000 0.000000 0.000000 0.055555
#
#
# Mechanical properties :
#
#
# Convention : Reuss Voigt Hill
#
# Bulk Modulus (GPa) = 36.40919 36.46575 36.43747
# Shear Modulus (GPa) = 21.11500 23.01393 22.06447
#
# Velocity S-wave (km/s) = 3.29485 3.43982 3.36812
# Velocity P-wave (km/s) = 5.76144 5.87579 5.81890
#
# Compressibility (1/GPa) = 0.02746560
#
# Stress axis : x y z
#
# Youngs Moduli (GPa) = 45.85789 45.85789 40.99217
#
# Poissons Ratio (x) = 0.27381 0.29310
# Poissons Ratio (y) = 0.27381 0.29310
# Poissons Ratio (z) = 0.32789 0.32789
#
# Static dielectric constant tensor:
#      x y z
#    x 1.691740 0.000000 0.000000 
#    y 0.000000 1.691740 0.000000 
#    z 0.000000 0.000000 1.740290 
# 
# From -- ./inp_files/1407.got.cif
#   From: 2010.05.17/outbox.cif.g08.bks.cpg/sg169_cif.got.tgz:1407.got - 2010.05.20 11:12:54.
