data_PCOD9580894
_publ_section_title
;
Structure prediction by ZEFSAII (Michael W. Deem and Ramdas Pophale) SiO2 
 PCOD9580894
Probable space group: P 64
;
_chemical_formula_sum "Si O2"
_cell_formula_units_Z 45
_cell_length_a 24.750921
_cell_length_b 24.750921
_cell_length_c 5.723228
_cell_angle_alpha 90.000000
_cell_angle_beta 90.000000
_cell_angle_gamma 120.000000
_cell_volume 3036.368010
_symmetry_space_group_name_H-M "P 64"
_symmetry_group_IT_number 172
_symmetry_cell_setting 'hexagonal'
loop_
_space_group_symop_operation_xyz
x,y,z
x-y,x,2/3+z
-y,x-y,1/3+z
-x,-y,z
-x+y,-x,2/3+z
y,-x+y,1/3+z
loop_
_atom_site_type_symbol
_atom_site_label
_atom_site_fract_x
_atom_site_fract_y
_atom_site_fract_z
Si Si1 0.587247 0.167016 0.082920
Si Si2 0.393840 0.390232 0.738071
Si Si3 0.462721 0.199237 0.516996
Si Si4 0.500000 0.500000 0.466732
Si Si5 0.862285 0.543305 0.160256
Si Si6 0.725342 0.335695 0.763676
Si Si7 0.688039 0.553609 0.676831
Si Si8 0.078230 0.479748 0.774565
O O1 0.615191 0.230285 0.233238
O O2 0.579097 0.111640 0.252170
O O3 0.637345 0.166141 0.907952
O O4 0.518890 0.150143 0.999225
O O5 0.442407 0.455362 0.620555
O O6 0.411615 0.341017 0.620085
O O7 0.331345 0.392842 0.704001
O O8 0.417744 0.397385 0.003122
O O9 0.439282 0.249022 0.532896
O O10 0.538901 0.237788 0.516426
O O11 0.439436 0.158674 0.755014
O O12 0.445159 0.166187 0.259874
O O13 0.490385 0.546304 0.303859
O O14 0.876163 0.540948 0.887910
O O15 0.710572 0.370547 0.969436
#
# Coordination Sequence:
#
# PCOD9580894 Si02
#       8
#     6   6   6   3   6   6   6   6
#     4  10  22  32  51  69  92 125 160 203 244 299
#     4  10  21  34  54  72  93 123 160 197 247 303
#     4  11  27  38  54  73 103 127 158 205 251 298
#     4  10  18  28  50  72  92 112 154 202 240 290
#     4  10  22  36  56  69  97 124 164 199 248 306
#     4  11  24  34  51  65  94 129 170 196 244 310
#     4  11  25  39  53  77  98 126 155 206 247 299
#     4  10  19  32  52  71  96 117 163 197 255 289
#
# _framework density 14.820335999999999
#
# number of rings (size 3 to 8) (size 9 to 14) (size 15 to 20)
#    0.000    1.600    0.000    5.200   24.267    0.000 
#    0.000    0.000    0.000    0.000    0.000    0.000 
#    0.000    0.000    0.000    0.000    0.000    0.000 
#
# Total GULP energy -250755.260903 kJ/mol
# GULP energy per Si atom -5572.339131 kJ/mol
# Density = 1.478660 g / cm^3
# Si number density = 14.820336 Si / 1000 Ang^3
#
#
#
# Elastic Constant Matrix: (Units=GPa)
#
#
# Indices 1 2 3 4 5 6 
#
# 1 63.1818 31.0065 30.1331 0.0000 0.0000 0.0000
# 2 31.0065 63.1818 30.1331 0.0000 0.0000 0.0000
# 3 30.1331 30.1331 78.9931 0.0000 0.0000 0.0000
# 4 0.0000 0.0000 0.0000 47.9716 0.0000 0.0000
# 5 0.0000 0.0000 0.0000 0.0000 47.9716 0.0000
# 6 0.0000 0.0000 0.0000 0.0000 0.0000 16.0877
#
#
#
# Elastic Compliance Matrix: (Units=1/GPa)
#
#
# Indices 1 2 3 4 5 6 
#
# 1 0.022562 -0.008517 -0.005358 0.000000 0.000000 0.000000
# 2 -0.008517 0.022562 -0.005358 0.000000 0.000000 0.000000
# 3 -0.005358 -0.005358 0.016747 0.000000 0.000000 0.000000
# 4 0.000000 0.000000 0.000000 0.020846 0.000000 0.000000
# 5 0.000000 0.000000 0.000000 0.000000 0.020846 0.000000
# 6 0.000000 0.000000 0.000000 0.000000 0.000000 0.062159
#
#
# Mechanical properties :
#
#
# Convention : Reuss Voigt Hill
#
# Bulk Modulus (GPa) = 42.72356 43.10024 42.91190
# Shear Modulus (GPa) = 23.58602 30.01180 26.79891
#
# Velocity S-wave (km/s) = 3.99364 4.50493 4.25697
# Velocity P-wave (km/s) = 7.08208 7.49694 7.29246
#
# Compressibility (1/GPa) = 0.02340629
#
# Stress axis : x y z
#
# Youngs Moduli (GPa) = 44.32147 44.32147 59.71245
#
# Poissons Ratio (x) = 0.37750 0.31992
# Poissons Ratio (y) = 0.37750 0.31992
# Poissons Ratio (z) = 0.23746 0.23746
#
# Static dielectric constant tensor:
#      x y z
#    x 1.506900 0.000000 0.000000 
#    y 0.000000 1.506900 0.000000 
#    z 0.000000 0.000000 1.578380 
# 
# From -- ./inp_files/403.got.cif
#   From: 2010.05.17/outbox.cif.g08.bks.cpg/sg172_1_cif.got.tgz:403.got - 2010.05.20 11:19:57.
