data_PCOD9580698
_publ_section_title
;
Structure prediction by ZEFSAII (Michael W. Deem and Ramdas Pophale) SiO2 
 PCOD9580698
Probable space group: P 62
;
_chemical_formula_sum "Si O2"
_cell_formula_units_Z 45
_cell_length_a 11.426261
_cell_length_b 11.426261
_cell_length_c 19.323991
_cell_angle_alpha 90.000000
_cell_angle_beta 90.000000
_cell_angle_gamma 120.000000
_cell_volume 2184.920997
_symmetry_space_group_name_H-M "P 62"
_symmetry_group_IT_number 171
_symmetry_cell_setting 'hexagonal'
loop_
_space_group_symop_operation_xyz
x,y,z
x-y,x,1/3+z
-y,x-y,2/3+z
-x,-y,z
-x+y,-x,1/3+z
y,-x+y,2/3+z
loop_
_atom_site_type_symbol
_atom_site_label
_atom_site_fract_x
_atom_site_fract_y
_atom_site_fract_z
Si Si1 0.463280 0.226995 0.755600
Si Si2 0.363420 0.357483 0.986971
Si Si3 0.000000 0.000000 0.122044
Si Si4 0.559623 0.257070 0.148722
Si Si5 0.831655 0.568766 0.733086
Si Si6 0.881718 0.184413 0.735042
Si Si7 0.978967 0.249089 0.172067
Si Si8 0.157236 0.598342 0.964311
O O1 0.369903 0.084437 0.719787
O O2 0.585343 0.226373 0.796039
O O3 0.377993 0.269627 0.804606
O O4 0.525968 0.327133 0.689807
O O5 0.500000 0.500000 0.979613
O O6 0.280819 0.322678 0.916494
O O7 0.375209 0.228378 0.007989
O O8 0.857016 0.932574 0.079995
O O9 0.000156 0.879906 0.165516
O O10 0.617587 0.189391 0.095284
O O11 0.399014 0.186589 0.135488
O O12 0.598061 0.234792 0.225335
O O13 0.782118 0.631459 0.793413
O O14 0.737379 0.547152 0.667669
O O15 0.984529 0.676538 0.718142
O O16 0.000000 0.500000 0.949378
#
# Coordination Sequence:
#
# PCOD9580698 Si02
#       8
#     6   6   3   6   6   6   6   6
#     4  11  24  44  65 103 141 174 235 292 343 433
#     4  12  26  43  71  99 139 188 228 286 363 420
#     4  10  24  46  68  98 138 178 224 294 334 412
#     4  11  24  40  68  94 135 174 226 286 353 410
#     4  10  23  42  65  96 134 172 226 291 334 415
#     4  11  23  45  65  96 134 177 226 282 345 420
#     4  11  24  43  71 102 140 182 234 288 354 418
#     4  11  22  39  67  99 128 177 226 284 347 410
#
# _framework density 20.595708999999999
#
# number of rings (size 3 to 8) (size 9 to 14) (size 15 to 20)
#    0.000    1.067    4.000    2.000    5.600    2.667 
#    0.000    0.000    2.933    0.000    0.000    0.000 
#    0.000    0.000    0.000    0.000    0.000    0.000 
#
# Total GULP energy -251427.160698 kJ/mol
# GULP energy per Si atom -5587.270238 kJ/mol
# Density = 2.054883 g / cm^3
# Si number density = 20.595709 Si / 1000 Ang^3
#
#
#
# Elastic Constant Matrix: (Units=GPa)
#
#
# Indices 1 2 3 4 5 6 
#
# 1 94.3358 40.0981 32.5744 0.0000 0.0000 0.0000
# 2 40.0981 94.3358 32.5744 0.0000 0.0000 0.0000
# 3 32.5744 32.5744 85.5315 0.0000 0.0000 0.0000
# 4 0.0000 0.0000 0.0000 339.7993 0.0000 0.0000
# 5 0.0000 0.0000 0.0000 0.0000 339.7993 0.0000
# 6 0.0000 0.0000 0.0000 0.0000 0.0000 27.1189
#
#
#
# Elastic Compliance Matrix: (Units=1/GPa)
#
#
# Indices 1 2 3 4 5 6 
#
# 1 0.013780 -0.004658 -0.003474 0.000000 0.000000 0.000000
# 2 -0.004658 0.013780 -0.003474 0.000000 0.000000 0.000000
# 3 -0.003474 -0.003474 0.014338 0.000000 0.000000 0.000000
# 4 0.000000 0.000000 0.000000 0.002943 0.000000 0.000000
# 5 0.000000 0.000000 0.000000 0.000000 0.002943 0.000000
# 6 0.000000 0.000000 0.000000 0.000000 0.000000 0.036875
#
#
# Mechanical properties :
#
#
# Convention : Reuss Voigt Hill
#
# Bulk Modulus (GPa) = 53.51704 53.85520 53.68612
# Shear Modulus (GPa) = 43.82185 152.60725 98.21455
#
# Velocity S-wave (km/s) = 4.61772 8.61728 6.91306
# Velocity P-wave (km/s) = 7.38052 11.18997 9.47860
#
# Compressibility (1/GPa) = 0.01868564
#
# Stress axis : x y z
#
# Youngs Moduli (GPa) = 72.56999 72.56999 69.74549
#
# Poissons Ratio (x) = 0.33800 0.24231
# Poissons Ratio (y) = 0.33800 0.24231
# Poissons Ratio (z) = 0.25212 0.25212
#
# Static dielectric constant tensor:
#      x y z
#    x 1.603580 0.000000 0.000000 
#    y 0.000000 1.603580 0.000000 
#    z 0.000000 0.000000 1.709580 
# 
# From -- ./inp_files/4028.got.cif
#   From: 2010.05.17/outbox.cif.g08.bks.cpg/sg171_3_cif.got.tgz:4028.got - 2010.05.20 11:16:09.
