data_PCOD9580261
_publ_section_title
;
Structure prediction by ZEFSAII (Michael W. Deem and Ramdas Pophale) SiO2 
 PCOD9580261
Probable space group: P 65
;
_chemical_formula_sum "Si O2"
_cell_formula_units_Z 42
_cell_length_a 13.531496
_cell_length_b 13.531496
_cell_length_c 12.763969
_cell_angle_alpha 90.000000
_cell_angle_beta 90.000000
_cell_angle_gamma 120.000000
_cell_volume 2023.988308
_symmetry_space_group_name_H-M "P 65"
_symmetry_group_IT_number 170
_symmetry_cell_setting 'hexagonal'
loop_
_space_group_symop_operation_xyz
x,y,z
x-y,x,5/6+z
-y,x-y,2/3+z
-x,-y,1/2+z
-x+y,-x,1/3+z
y,-x+y,1/6+z
loop_
_atom_site_type_symbol
_atom_site_label
_atom_site_fract_x
_atom_site_fract_y
_atom_site_fract_z
Si Si1 0.608482 0.145562 0.103070
Si Si2 0.238146 0.544379 0.840929
Si Si3 0.147895 0.405951 0.649237
Si Si4 0.001464 0.820650 0.284828
Si Si5 0.632524 0.617306 0.561896
Si Si6 0.465861 0.030582 0.454263
Si Si7 0.199259 0.746688 0.766443
O O1 0.710219 0.171383 0.180497
O O2 0.489705 0.052123 0.152850
O O3 0.592514 0.253308 0.089538
O O4 0.605568 0.101638 0.985835
O O5 0.246049 0.483986 0.733442
O O6 0.122156 0.443260 0.890940
O O7 0.232859 0.654629 0.806103
O O8 0.075180 0.284544 0.705893
O O9 0.081125 0.477741 0.629219
O O10 0.189659 0.388372 0.537533
O O11 0.925114 0.841004 0.373180
O O12 0.058577 0.759657 0.352641
O O13 0.622702 0.564932 0.675258
O O14 0.418003 0.084044 0.539171
#
# Coordination Sequence:
#
# PCOD9580261 Si02
#       7
#     6   6   6   6   6   6   6
#     4  12  23  36  61  90 132 173 218 272 327 401
#     4  10  22  36  58  91 125 179 216 266 330 392
#     4  10  21  39  64  91 131 171 223 269 336 415
#     4  11  25  47  73  99 124 173 238 299 359 415
#     4  11  22  40  64  93 136 172 226 273 337 421
#     4  11  24  39  59 100 134 177 223 261 332 411
#     4  11  23  39  57  94 136 171 216 268 331 405
#
# _framework density 20.751107999999999
#
# number of rings (size 3 to 8) (size 9 to 14) (size 15 to 20)
#    0.000    1.143    5.714    3.429    4.000    2.286 
#    0.000    1.429    0.000    0.000    0.000    0.000 
#    0.000    0.000    0.000    0.000    0.000    0.000 
#
# Total GULP energy -234104.697301 kJ/mol
# GULP energy per Si atom -5573.921364 kJ/mol
# Density = 2.070388 g / cm^3
# Si number density = 20.751108 Si / 1000 Ang^3
#
#
#
# Elastic Constant Matrix: (Units=GPa)
#
#
# Indices 1 2 3 4 5 6 
#
# 1 43.8728 17.5070 18.9025 0.0000 0.0000 0.0000
# 2 17.5070 43.8728 18.9025 0.0000 0.0000 0.0000
# 3 18.9025 18.9025 92.6848 0.0000 0.0000 0.0000
# 4 0.0000 0.0000 0.0000 26.6011 0.0000 0.0000
# 5 0.0000 0.0000 0.0000 0.0000 26.6011 0.0000
# 6 0.0000 0.0000 0.0000 0.0000 0.0000 13.1829
#
#
#
# Elastic Compliance Matrix: (Units=1/GPa)
#
#
# Indices 1 2 3 4 5 6 
#
# 1 0.028280 -0.009648 -0.003800 0.000000 0.000000 0.000000
# 2 -0.009648 0.028280 -0.003800 0.000000 0.000000 0.000000
# 3 -0.003800 -0.003800 0.012339 0.000000 0.000000 0.000000
# 4 0.000000 0.000000 0.000000 0.037592 0.000000 0.000000
# 5 0.000000 0.000000 0.000000 0.000000 0.037592 0.000000
# 6 0.000000 0.000000 0.000000 0.000000 0.000000 0.075856
#
#
# Mechanical properties :
#
#
# Convention : Reuss Voigt Hill
#
# Bulk Modulus (GPa) = 29.06618 32.33938 30.70278
# Shear Modulus (GPa) = 18.80380 21.61826 20.21103
#
# Velocity S-wave (km/s) = 3.01351 3.23118 3.12424
# Velocity P-wave (km/s) = 5.11330 5.43497 5.27659
#
# Compressibility (1/GPa) = 0.03440425
#
# Stress axis : x y z
#
# Youngs Moduli (GPa) = 35.36044 35.36044 81.04248
#
# Poissons Ratio (x) = 0.34115 0.30796
# Poissons Ratio (y) = 0.34115 0.30796
# Poissons Ratio (z) = 0.13437 0.13437
#
# Static dielectric constant tensor:
#      x y z
#    x 1.793280 0.000000 0.000000 
#    y 0.000000 1.793280 0.000000 
#    z 0.000000 0.000000 1.807610 
# 
# From -- ./inp_files/1020.got.cif
#   From: 2010.05.17/outbox.cif.g08.bks.cpg/sg170_cif.got.tgz:1020.got - 2010.05.20 11:14:30.
