data_PCOD9580876
_publ_section_title
;
Structure prediction by ZEFSAII (Michael W. Deem and Ramdas Pophale) SiO2 
 PCOD9580876
Probable space group: P 62
;
_chemical_formula_sum "Si O2"
_cell_formula_units_Z 21
_cell_length_a 5.025905
_cell_length_b 5.025905
_cell_length_c 39.683493
_cell_angle_alpha 90.000000
_cell_angle_beta 90.000000
_cell_angle_gamma 120.000000
_cell_volume 868.098638
_symmetry_space_group_name_H-M "P 62"
_symmetry_group_IT_number 171
_symmetry_cell_setting 'hexagonal'
loop_
_space_group_symop_operation_xyz
x,y,z
x-y,x,1/3+z
-y,x-y,2/3+z
-x,-y,z
-x+y,-x,1/3+z
y,-x+y,2/3+z
loop_
_atom_site_type_symbol
_atom_site_label
_atom_site_fract_x
_atom_site_fract_y
_atom_site_fract_z
Si Si1 0.000000 0.500000 0.054891
Si Si2 0.000000 0.000000 0.006824
Si Si3 0.500000 0.500000 0.862222
Si Si4 0.500000 0.000000 0.245010
Si Si5 0.500000 0.000000 0.961131
Si Si6 0.000000 0.000000 0.149863
Si Si7 0.000000 0.500000 0.768463
O O1 0.289977 0.710023 0.078343
O O2 0.949960 0.724024 0.030683
O O3 0.692960 0.896006 0.984730
O O4 0.768249 0.532405 0.886671
O O5 0.307041 0.203046 0.838623
O O6 0.467596 0.231751 0.270016
O O7 0.724025 0.949961 0.126004
#
# Coordination Sequence:
#
# PCOD9580876 Si02
#       7
#     3   3   3   3   3   3   3
#     4  12  30  52  80 115 156 204 257 318 384 457
#     4  12  29  51  80 114 154 204 256 317 383 456
#     4  12  27  48  78 113 154 202 256 316 382 456
#     4  12  26  48  76 112 152 200 252 314 380 452
#     4  12  27  48  78 113 154 202 256 316 382 456
#     4  12  29  51  80 114 154 204 256 317 383 456
#     4  12  30  52  80 115 156 204 257 318 384 457
#
# _framework density 24.190802999999999
#
# number of rings (size 3 to 8) (size 9 to 14) (size 15 to 20)
#    0.000    0.000    0.000    7.714    0.000   25.143 
#    0.000    0.000    0.000    0.000    0.000    0.000 
#    0.000    0.000    0.000    0.000    0.000    0.000 
#
# Total GULP energy -117831.348863 kJ/mol
# GULP energy per Si atom -5611.016613 kJ/mol
# Density = 2.413574 g / cm^3
# Si number density = 24.190803 Si / 1000 Ang^3
#
#
#
# Elastic Constant Matrix: (Units=GPa)
#
#
# Indices 1 2 3 4 5 6 
#
# 1 218.1142 100.5011 128.1069 0.0000 0.0000 0.0000
# 2 100.5011 218.1142 128.1069 0.0000 0.0000 0.0000
# 3 128.1069 128.1069 212.1858 0.0000 0.0000 0.0000
# 4 0.0000 0.0000 0.0000 35.1210 0.0000 0.0000
# 5 0.0000 0.0000 0.0000 0.0000 35.1210 0.0000
# 6 0.0000 0.0000 0.0000 0.0000 0.0000 58.8066
#
#
#
# Elastic Compliance Matrix: (Units=1/GPa)
#
#
# Indices 1 2 3 4 5 6 
#
# 1 0.007301 -0.001201 -0.003683 0.000000 0.000000 0.000000
# 2 -0.001201 0.007301 -0.003683 0.000000 0.000000 0.000000
# 3 -0.003683 -0.003683 0.009160 0.000000 0.000000 0.000000
# 4 0.000000 0.000000 0.000000 0.028473 0.000000 0.000000
# 5 0.000000 0.000000 0.000000 0.000000 0.028473 0.000000
# 6 0.000000 0.000000 0.000000 0.000000 0.000000 0.017005
#
#
# Mechanical properties :
#
#
# Convention : Reuss Voigt Hill
#
# Bulk Modulus (GPa) = 150.86309 151.31600 151.08954
# Shear Modulus (GPa) = 42.71404 45.25635 43.98520
#
# Velocity S-wave (km/s) = 4.20660 4.32998 4.26873
# Velocity P-wave (km/s) = 9.27864 9.36403 9.32143
#
# Compressibility (1/GPa) = 0.00662853
#
# Stress axis : x y z
#
# Youngs Moduli (GPa) = 136.96055 136.96055 109.16889
#
# Poissons Ratio (x) = 0.16450 0.40207
# Poissons Ratio (y) = 0.16450 0.40207
# Poissons Ratio (z) = 0.50443 0.50443
#
# Static dielectric constant tensor:
#      x y z
#    x 1.884820 0.000000 0.000000 
#    y 0.000000 1.884820 0.000000 
#    z 0.000000 0.000000 1.914010 
# 
# From -- ./inp_files/5901.got.cif
#   From: 2010.05.17/outbox.cif.g08.bks.cpg/sg171_3_cif.got.tgz:5901.got - 2010.05.20 11:16:09.
