data_PCOD9580141
_publ_section_title
;
Structure prediction by ZEFSAII (Michael W. Deem and Ramdas Pophale) SiO2 
 PCOD9580141
Probable space group: P 61
;
_chemical_formula_sum "Si O2"
_cell_formula_units_Z 18
_cell_length_a 7.598896
_cell_length_b 7.598896
_cell_length_c 13.628726
_cell_angle_alpha 90.000000
_cell_angle_beta 90.000000
_cell_angle_gamma 120.000000
_cell_volume 681.533006
_symmetry_space_group_name_H-M "P 61"
_symmetry_group_IT_number 169
_symmetry_cell_setting 'hexagonal'
loop_
_space_group_symop_operation_xyz
x,y,z
x-y,x,1/6+z
-y,x-y,1/3+z
-x,-y,1/2+z
-x+y,-x,2/3+z
y,-x+y,5/6+z
loop_
_atom_site_type_symbol
_atom_site_label
_atom_site_fract_x
_atom_site_fract_y
_atom_site_fract_z
Si Si1 0.612022 0.306011 0.900950
Si Si2 0.737208 0.019588 0.543191
Si Si3 0.717622 0.980415 0.092041
O O1 0.467722 0.147307 0.983602
O O2 0.782129 0.247392 0.871248
O O3 0.782124 0.534739 0.930652
O O4 0.679588 0.147310 0.151630
O O5 0.776271 0.894381 0.622873
O O6 0.776273 0.881892 0.179025
#
# Coordination Sequence:
#
# PCOD9580141 Si02
#       3
#     6   6   6
#     4  12  24  50  84 122 170 228 286 342 418 512
#     4  12  27  54  86 127 175 226 287 352 427 510
#     4  12  27  54  86 127 175 226 287 352 427 510
#
# _framework density 26.411047
#
# number of rings (size 3 to 8) (size 9 to 14) (size 15 to 20)
#    0.000    0.000    6.667    2.000    0.000    0.000 
#    0.000   33.333    0.000    0.000    0.000    0.000 
#    0.000    0.000    0.000    0.000    0.000    0.000 
#
# Total GULP energy -100577.601346 kJ/mol
# GULP energy per Si atom -5587.644519 kJ/mol
# Density = 2.635093 g / cm^3
# Si number density = 26.411047 Si / 1000 Ang^3
#
#
#
# Elastic Constant Matrix: (Units=GPa)
#
#
# Indices 1 2 3 4 5 6 
#
# 1 213.0778 82.5306 85.0190 0.0000 0.0000 0.0000
# 2 82.5306 213.0778 85.0190 0.0000 0.0000 0.0000
# 3 85.0190 85.0190 112.9241 0.0000 0.0000 0.0000
# 4 0.0000 0.0000 0.0000 41.1209 0.0000 0.0000
# 5 0.0000 0.0000 0.0000 0.0000 41.1209 0.0000
# 6 0.0000 0.0000 0.0000 0.0000 0.0000 65.2736
#
#
#
# Elastic Compliance Matrix: (Units=1/GPa)
#
#
# Indices 1 2 3 4 5 6 
#
# 1 0.006814 -0.000847 -0.004492 0.000000 0.000000 0.000000
# 2 -0.000847 0.006814 -0.004492 0.000000 0.000000 0.000000
# 3 -0.004492 -0.004492 0.015620 0.000000 0.000000 0.000000
# 4 0.000000 0.000000 0.000000 0.024319 0.000000 0.000000
# 5 0.000000 0.000000 0.000000 0.000000 0.024319 0.000000
# 6 0.000000 0.000000 0.000000 0.000000 0.000000 0.015320
#
#
# Mechanical properties :
#
#
# Convention : Reuss Voigt Hill
#
# Bulk Modulus (GPa) = 104.33781 116.02409 110.18095
# Shear Modulus (GPa) = 43.08044 48.60384 45.84214
#
# Velocity S-wave (km/s) = 4.04313 4.29451 4.17072
# Velocity P-wave (km/s) = 7.83499 8.28347 8.06235
#
# Compressibility (1/GPa) = 0.00958425
#
# Stress axis : x y z
#
# Youngs Moduli (GPa) = 146.76705 146.76705 64.02005
#
# Poissons Ratio (x) = 0.12424 0.28761
# Poissons Ratio (y) = 0.12424 0.28761
# Poissons Ratio (z) = 0.65934 0.65934
#
# Static dielectric constant tensor:
#      x y z
#    x 2.222330 0.000000 0.000000 
#    y 0.000000 2.222330 0.000000 
#    z 0.000000 0.000000 2.077910 
# 
# From -- ./inp_files/820.got.cif
#   From: 2010.05.17/outbox.cif.g08.bks.cpg/sg169_cif.got.tgz:820.got - 2010.05.20 11:12:54.
