data_PCOD9580744
_publ_section_title
;
Structure prediction by ZEFSAII (Michael W. Deem and Ramdas Pophale) SiO2 
 PCOD9580744
Probable space group: P 62
;
_chemical_formula_sum "Si O2"
_cell_formula_units_Z 39
_cell_length_a 12.960624
_cell_length_b 12.960624
_cell_length_c 13.430237
_cell_angle_alpha 90.000000
_cell_angle_beta 90.000000
_cell_angle_gamma 120.000000
_cell_volume 1953.737135
_symmetry_space_group_name_H-M "P 62"
_symmetry_group_IT_number 171
_symmetry_cell_setting 'hexagonal'
loop_
_space_group_symop_operation_xyz
x,y,z
x-y,x,1/3+z
-y,x-y,2/3+z
-x,-y,z
-x+y,-x,1/3+z
y,-x+y,2/3+z
loop_
_atom_site_type_symbol
_atom_site_label
_atom_site_fract_x
_atom_site_fract_y
_atom_site_fract_z
Si Si1 0.234925 0.554592 0.155080
Si Si2 0.500000 0.000000 0.160867
Si Si3 0.000000 0.000000 0.551991
Si Si4 0.630837 0.945330 0.782070
Si Si5 0.054670 0.369163 0.655247
Si Si6 0.445408 0.765075 0.282236
Si Si7 0.000000 0.500000 0.276449
Si Si8 0.188835 0.094418 0.051991
O O1 0.236536 0.432374 0.135768
O O2 0.351431 0.648568 0.218658
O O3 0.113442 0.522839 0.211825
O O4 0.240019 0.620010 0.051991
O O5 0.477161 0.886558 0.225492
O O6 0.391100 0.958353 0.085241
O O7 0.917868 0.892504 0.479432
O O8 0.082132 0.974636 0.624551
O O9 0.567253 0.958353 0.685409
O O10 0.616321 0.000000 0.885325
O O11 0.770052 0.026496 0.755495
O O12 0.195838 0.432374 0.634881
O O13 0.973504 0.229948 0.681822
#
# Coordination Sequence:
#
# PCOD9580744 Si02
#       8
#     6   3   3   6   6   6   3   6
#     4  12  26  49  72 109 149 194 248 308 376 450
#     4  12  26  44  74 106 150 198 242 306 376 442
#     4  10  24  46  68 104 144 182 244 304 372 444
#     4  12  25  45  75 107 145 194 251 305 370 456
#     4  12  25  45  75 107 145 194 251 305 370 456
#     4  12  26  49  72 109 149 194 248 308 376 450
#     4  12  26  44  74 106 150 198 242 306 376 442
#     4  11  24  46  72 106 140 192 242 311 374 443
#
# _framework density 19.961742999999998
#
# number of rings (size 3 to 8) (size 9 to 14) (size 15 to 20)
#    0.000    0.308    4.615    4.615    0.000    2.462 
#    5.538    0.000    0.000    0.000    0.000    0.000 
#    0.000    0.000    0.000    0.000    0.000    0.000 
#
# Total GULP energy -217868.528917 kJ/mol
# GULP energy per Si atom -5586.372536 kJ/mol
# Density = 1.991631 g / cm^3
# Si number density = 19.961743 Si / 1000 Ang^3
#
#
#
# Elastic Constant Matrix: (Units=GPa)
#
#
# Indices 1 2 3 4 5 6 
#
# 1 135.3538 91.5563 67.1564 0.0000 0.0000 0.0000
# 2 91.5563 135.3538 67.1564 0.0000 0.0000 0.0000
# 3 67.1564 67.1564 155.0134 0.0000 0.0000 0.0000
# 4 0.0000 0.0000 0.0000 92.8733 0.0000 0.0000
# 5 0.0000 0.0000 0.0000 0.0000 92.8733 0.0000
# 6 0.0000 0.0000 0.0000 0.0000 0.0000 21.8987
#
#
#
# Elastic Compliance Matrix: (Units=1/GPa)
#
#
# Indices 1 2 3 4 5 6 
#
# 1 0.014380 -0.008453 -0.002568 0.000000 0.000000 0.000000
# 2 -0.008453 0.014380 -0.002568 0.000000 0.000000 0.000000
# 3 -0.002568 -0.002568 0.008676 0.000000 0.000000 0.000000
# 4 0.000000 0.000000 0.000000 0.010767 0.000000 0.000000
# 5 0.000000 0.000000 0.000000 0.000000 0.010767 0.000000
# 6 0.000000 0.000000 0.000000 0.000000 0.000000 0.045665
#
#
# Mechanical properties :
#
#
# Convention : Reuss Voigt Hill
#
# Bulk Modulus (GPa) = 97.47685 97.49546 97.48616
# Shear Modulus (GPa) = 36.97390 54.85251 45.91320
#
# Velocity S-wave (km/s) = 4.30843 5.24771 4.80110
# Velocity P-wave (km/s) = 8.58417 9.25555 8.92617
#
# Compressibility (1/GPa) = 0.01025885
#
# Stress axis : x y z
#
# Youngs Moduli (GPa) = 69.54277 69.54277 115.26208
#
# Poissons Ratio (x) = 0.58783 0.29596
# Poissons Ratio (y) = 0.58783 0.29596
# Poissons Ratio (z) = 0.17857 0.17857
#
# Static dielectric constant tensor:
#      x y z
#    x 1.715310 0.000000 0.000000 
#    y 0.000000 1.715310 0.000000 
#    z 0.000000 0.000000 1.694890 
# 
# From -- ./inp_files/2040.got.cif
#   From: 2010.05.17/outbox.cif.g08.bks.cpg/sg171_2_cif.got.tgz:2040.got - 2010.05.20 11:16:09.
