data_PCOD9580408
_publ_section_title
;
Structure prediction by ZEFSAII (Michael W. Deem and Ramdas Pophale) SiO2 
 PCOD9580408
Probable space group: P 65
;
_chemical_formula_sum "Si O2"
_cell_formula_units_Z 24
_cell_length_a 13.316206
_cell_length_b 13.316206
_cell_length_c 5.578052
_cell_angle_alpha 90.000000
_cell_angle_beta 90.000000
_cell_angle_gamma 120.000000
_cell_volume 856.592367
_symmetry_space_group_name_H-M "P 65"
_symmetry_group_IT_number 170
_symmetry_cell_setting 'hexagonal'
loop_
_space_group_symop_operation_xyz
x,y,z
x-y,x,5/6+z
-y,x-y,2/3+z
-x,-y,1/2+z
-x+y,-x,1/3+z
y,-x+y,1/6+z
loop_
_atom_site_type_symbol
_atom_site_label
_atom_site_fract_x
_atom_site_fract_y
_atom_site_fract_z
Si Si1 0.293080 0.550161 0.435260
Si Si2 0.058505 0.500895 0.991740
Si Si3 0.259659 0.209250 0.092512
Si Si4 0.276388 0.143828 0.548125
O O1 0.376751 0.614670 0.210734
O O2 0.378550 0.556562 0.647066
O O3 0.205005 0.417053 0.379013
O O4 0.069885 0.389081 0.937555
O O5 0.993292 0.511455 0.756211
O O6 0.221541 0.219932 0.408943
O O7 0.159669 0.252016 0.066943
O O8 0.247516 0.163209 0.820361
#
# Coordination Sequence:
#
# PCOD9580408 Si02
#       4
#     6   6   6   6
#     4  12  27  41  67 103 155 207 264 313 376 462
#     4  12  26  42  68 100 148 203 260 319 373 452
#     4  12  26  48  74 106 147 197 258 318 400 465
#     4  12  27  47  75 107 148 199 256 326 391 475
#
# _framework density 28.017994999999999
#
# number of rings (size 3 to 8) (size 9 to 14) (size 15 to 20)
#    0.000    0.000    5.000    4.500    7.000    0.000 
#    0.000    0.000    0.000    3.000    0.000    0.000 
#    0.000    0.000    0.000    0.000    0.000    0.000 
#
# Total GULP energy -134499.244824 kJ/mol
# GULP energy per Si atom -5604.135201 kJ/mol
# Density = 2.795423 g / cm^3
# Si number density = 28.017995 Si / 1000 Ang^3
#
#
#
# Elastic Constant Matrix: (Units=GPa)
#
#
# Indices 1 2 3 4 5 6 
#
# 1 199.8183 118.6533 79.1642 0.0000 0.0000 0.0000
# 2 118.6533 199.8183 79.1642 0.0000 0.0000 0.0000
# 3 79.1642 79.1642 222.7353 0.0000 0.0000 0.0000
# 4 0.0000 0.0000 0.0000 68.2038 0.0000 0.0000
# 5 0.0000 0.0000 0.0000 0.0000 68.2038 0.0000
# 6 0.0000 0.0000 0.0000 0.0000 0.0000 40.5825
#
#
#
# Elastic Compliance Matrix: (Units=1/GPa)
#
#
# Indices 1 2 3 4 5 6 
#
# 1 0.008067 -0.004253 -0.001356 0.000000 0.000000 0.000000
# 2 -0.004253 0.008067 -0.001356 0.000000 0.000000 0.000000
# 3 -0.001356 -0.001356 0.005453 0.000000 0.000000 0.000000
# 4 0.000000 0.000000 0.000000 0.014662 0.000000 0.000000
# 5 0.000000 0.000000 0.000000 0.000000 0.014662 0.000000
# 6 0.000000 0.000000 0.000000 0.000000 0.000000 0.024641
#
#
# Mechanical properties :
#
#
# Convention : Reuss Voigt Hill
#
# Bulk Modulus (GPa) = 130.56750 130.70395 130.63572
# Shear Modulus (GPa) = 54.32747 58.42404 56.37576
#
# Velocity S-wave (km/s) = 4.40821 4.57139 4.49054
# Velocity P-wave (km/s) = 8.52128 8.63798 8.57983
#
# Compressibility (1/GPa) = 0.00765887
#
# Stress axis : x y z
#
# Youngs Moduli (GPa) = 123.95813 123.95813 183.37879
#
# Poissons Ratio (x) = 0.52724 0.24858
# Poissons Ratio (y) = 0.52724 0.24858
# Poissons Ratio (z) = 0.16803 0.16803
#
# Static dielectric constant tensor:
#      x y z
#    x 2.112770 0.000000 0.000000 
#    y 0.000000 2.112770 0.000000 
#    z 0.000000 0.000000 2.184720 
# 
# From -- ./inp_files/49.got.cif
#   From: 2010.05.17/outbox.cif.g08.bks.cpg/sg170_cif.got.tgz:49.got - 2010.05.20 11:14:30.
