data_PCOD9580460
_publ_section_title
;
Structure prediction by ZEFSAII (Michael W. Deem and Ramdas Pophale) SiO2 
 PCOD9580460
Probable space group: P 62
;
_chemical_formula_sum "Si O2"
_cell_formula_units_Z 36
_cell_length_a 19.704327
_cell_length_b 19.704327
_cell_length_c 5.026040
_cell_angle_alpha 90.000000
_cell_angle_beta 90.000000
_cell_angle_gamma 120.000000
_cell_volume 1689.973072
_symmetry_space_group_name_H-M "P 62"
_symmetry_group_IT_number 171
_symmetry_cell_setting 'hexagonal'
loop_
_space_group_symop_operation_xyz
x,y,z
x-y,x,1/3+z
-y,x-y,2/3+z
-x,-y,z
-x+y,-x,1/3+z
y,-x+y,2/3+z
loop_
_atom_site_type_symbol
_atom_site_label
_atom_site_fract_x
_atom_site_fract_y
_atom_site_fract_z
Si Si1 0.996447 0.778246 0.042540
Si Si2 0.145093 0.093890 0.103736
Si Si3 0.885963 0.260885 0.779619
Si Si4 0.807367 0.167779 0.271620
Si Si5 0.209427 0.666413 0.886939
Si Si6 0.704964 0.231760 0.387640
O O1 0.973273 0.791741 0.338855
O O2 0.909733 0.722517 0.933738
O O3 0.050072 0.867461 0.936588
O O4 0.040729 0.733410 0.937440
O O5 0.076323 0.106322 0.208786
O O6 0.873803 0.228194 0.479832
O O7 0.868512 0.332331 0.794310
O O8 0.817385 0.196533 0.968755
O O9 0.729733 0.165061 0.389139
O O10 0.275311 0.721982 0.668814
O O11 0.234931 0.705320 0.176923
O O12 0.203744 0.583513 0.931736
#
# Coordination Sequence:
#
# PCOD9580460 Si02
#       6
#     6   6   6   6   6   6
#     4  12  24  41  61  82 116 162 202 248 314 374
#     4  12  26  41  60  84 114 146 198 256 322 362
#     4  10  22  39  58  86 118 158 203 248 301 371
#     4  10  22  39  58  86 118 158 203 248 301 371
#     4  10  19  33  58  89 124 156 198 250 304 359
#     4  10  19  33  58  89 124 156 198 250 304 359
#
# _framework density 21.302114
#
# number of rings (size 3 to 8) (size 9 to 14) (size 15 to 20)
#    0.000    1.333    1.667    5.000    0.000    3.333 
#    0.000    0.833    0.000    0.000    0.000   14.000 
#    0.000    0.000    0.000    0.000    0.000    0.000 
#
# Total GULP energy -200428.257783 kJ/mol
# GULP energy per Si atom -5567.451605 kJ/mol
# Density = 2.125363 g / cm^3
# Si number density = 21.302114 Si / 1000 Ang^3
#
#
#
# Elastic Constant Matrix: (Units=GPa)
#
#
# Indices 1 2 3 4 5 6 
#
# 1 72.0685 29.7806 15.7792 0.0000 0.0000 0.0000
# 2 29.7806 72.0685 15.7792 0.0000 0.0000 0.0000
# 3 15.7792 15.7792 97.0078 0.0000 0.0000 0.0000
# 4 0.0000 0.0000 0.0000 27.6133 0.0000 0.0000
# 5 0.0000 0.0000 0.0000 0.0000 27.6133 0.0000
# 6 0.0000 0.0000 0.0000 0.0000 0.0000 21.1439
#
#
#
# Elastic Compliance Matrix: (Units=1/GPa)
#
#
# Indices 1 2 3 4 5 6 
#
# 1 0.016993 -0.006654 -0.001682 0.000000 0.000000 0.000000
# 2 -0.006654 0.016993 -0.001682 0.000000 0.000000 0.000000
# 3 -0.001682 -0.001682 0.010856 0.000000 0.000000 0.000000
# 4 0.000000 0.000000 0.000000 0.036214 0.000000 0.000000
# 5 0.000000 0.000000 0.000000 0.000000 0.036214 0.000000
# 6 0.000000 0.000000 0.000000 0.000000 0.000000 0.047295
#
#
# Mechanical properties :
#
#
# Convention : Reuss Voigt Hill
#
# Bulk Modulus (GPa) = 40.31054 40.42477 40.36766
# Shear Modulus (GPa) = 25.92413 27.26118 26.59265
#
# Velocity S-wave (km/s) = 3.49230 3.58123 3.53704
# Velocity P-wave (km/s) = 5.93514 6.00985 5.97261
#
# Compressibility (1/GPa) = 0.02480740
#
# Stress axis : x y z
#
# Youngs Moduli (GPa) = 58.84604 58.84604 92.11860
#
# Poissons Ratio (x) = 0.39156 0.15493
# Poissons Ratio (y) = 0.39156 0.15493
# Poissons Ratio (z) = 0.09897 0.09897
#
# Static dielectric constant tensor:
#      x y z
#    x 1.828550 0.000000 0.000000 
#    y 0.000000 1.828550 0.000000 
#    z 0.000000 0.000000 1.829560 
# 
# From -- ./inp_files/400.got.cif
#   From: 2010.05.17/outbox.cif.g08.bks.cpg/sg171_1_cif.got.tgz:400.got - 2010.05.20 11:16:09.
