data_PCOD9580461
_publ_section_title
;
Structure prediction by ZEFSAII (Michael W. Deem and Ramdas Pophale) SiO2 
 PCOD9580461
Probable space group: P 62
;
_chemical_formula_sum "Si O2"
_cell_formula_units_Z 36
_cell_length_a 12.944214
_cell_length_b 12.944214
_cell_length_c 12.112425
_cell_angle_alpha 90.000000
_cell_angle_beta 90.000000
_cell_angle_gamma 120.000000
_cell_volume 1757.571903
_symmetry_space_group_name_H-M "P 62"
_symmetry_group_IT_number 171
_symmetry_cell_setting 'hexagonal'
loop_
_space_group_symop_operation_xyz
x,y,z
x-y,x,1/3+z
-y,x-y,2/3+z
-x,-y,z
-x+y,-x,1/3+z
y,-x+y,2/3+z
loop_
_atom_site_type_symbol
_atom_site_label
_atom_site_fract_x
_atom_site_fract_y
_atom_site_fract_z
Si Si1 0.203431 0.269807 0.885360
Si Si2 0.713279 0.977742 0.952396
Si Si3 0.274551 0.805827 0.070852
Si Si4 0.810906 0.628422 0.106884
Si Si5 0.088544 0.135719 0.475411
Si Si6 0.448396 0.590941 0.628733
O O1 0.214019 0.373489 0.806897
O O2 0.280112 0.220283 0.826190
O O3 0.063546 0.172757 0.887347
O O4 0.233235 0.316378 0.010020
O O5 0.830437 0.028961 0.874751
O O6 0.605519 0.876289 0.881117
O O7 0.687965 0.079474 0.994910
O O8 0.764401 0.938301 0.055100
O O9 0.369080 0.830983 0.167570
O O10 0.225984 0.687168 0.999508
O O11 0.824089 0.526726 0.043843
O O12 0.000000 0.000000 0.430845
O O13 0.500000 0.500000 0.640177
#
# Coordination Sequence:
#
# PCOD9580461 Si02
#       6
#     6   6   6   6   6   6
#     4  10  19  34  56  92 131 179 216 260 332 410
#     4  11  23  34  58  98 132 174 221 277 331 418
#     4  10  24  44  69  95 126 177 232 281 347 412
#     4  11  21  36  62  94 135 172 225 275 337 409
#     4  11  20  30  49  88 144 178 208 257 338 408
#     4  11  24  48  73  96 131 184 231 286 352 423
#
# _framework density 20.482802
#
# number of rings (size 3 to 8) (size 9 to 14) (size 15 to 20)
#    0.000    1.333    3.333    3.500    4.667    0.000 
#    3.000    0.000    0.000    0.000    0.000    0.000 
#    0.000    0.000    0.000    0.000    0.000    0.000 
#
# Total GULP energy -200830.713391 kJ/mol
# GULP energy per Si atom -5578.630928 kJ/mol
# Density = 2.043618 g / cm^3
# Si number density = 20.482802 Si / 1000 Ang^3
#
#
#
# Elastic Constant Matrix: (Units=GPa)
#
#
# Indices 1 2 3 4 5 6 
#
# 1 64.7448 25.9314 34.4690 0.0000 0.0000 0.0000
# 2 25.9314 64.7448 34.4690 0.0000 0.0000 0.0000
# 3 34.4690 34.4690 78.7705 0.0000 0.0000 0.0000
# 4 0.0000 0.0000 0.0000 22.4426 0.0000 0.0000
# 5 0.0000 0.0000 0.0000 0.0000 22.4426 0.0000
# 6 0.0000 0.0000 0.0000 0.0000 0.0000 19.4067
#
#
#
# Elastic Compliance Matrix: (Units=1/GPa)
#
#
# Indices 1 2 3 4 5 6 
#
# 1 0.021145 -0.004619 -0.007232 0.000000 0.000000 0.000000
# 2 -0.004619 0.021145 -0.007232 0.000000 0.000000 0.000000
# 3 -0.007232 -0.007232 0.019024 0.000000 0.000000 0.000000
# 4 0.000000 0.000000 0.000000 0.044558 0.000000 0.000000
# 5 0.000000 0.000000 0.000000 0.000000 0.044558 0.000000
# 6 0.000000 0.000000 0.000000 0.000000 0.000000 0.051529
#
#
# Mechanical properties :
#
#
# Convention : Reuss Voigt Hill
#
# Bulk Modulus (GPa) = 43.19679 44.22210 43.70945
# Shear Modulus (GPa) = 20.17421 20.41774 20.29598
#
# Velocity S-wave (km/s) = 3.14177 3.16068 3.15124
# Velocity P-wave (km/s) = 5.85628 5.91241 5.88441
#
# Compressibility (1/GPa) = 0.02314987
#
# Stress axis : x y z
#
# Youngs Moduli (GPa) = 47.29187 47.29187 52.56491
#
# Poissons Ratio (x) = 0.21844 0.38013
# Poissons Ratio (y) = 0.21844 0.38013
# Poissons Ratio (z) = 0.34200 0.34200
#
# Static dielectric constant tensor:
#      x y z
#    x 1.757350 0.000000 0.000000 
#    y 0.000000 1.757350 0.000000 
#    z 0.000000 0.000000 1.748380 
# 
# From -- ./inp_files/1938.got.cif
#   From: 2010.05.17/outbox.cif.g08.bks.cpg/sg171_1_cif.got.tgz:1938.got - 2010.05.20 11:16:09.
