data_PCOD9580127
_publ_section_title
;
Structure prediction by ZEFSAII (Michael W. Deem and Ramdas Pophale) SiO2 
 PCOD9580127
Probable space group: P 61
;
_chemical_formula_sum "Si O2"
_cell_formula_units_Z 24
_cell_length_a 6.877622
_cell_length_b 6.877622
_cell_length_c 22.597500
_cell_angle_alpha 90.000000
_cell_angle_beta 90.000000
_cell_angle_gamma 120.000000
_cell_volume 925.694392
_symmetry_space_group_name_H-M "P 61"
_symmetry_group_IT_number 169
_symmetry_cell_setting 'hexagonal'
loop_
_space_group_symop_operation_xyz
x,y,z
x-y,x,1/6+z
-y,x-y,1/3+z
-x,-y,1/2+z
-x+y,-x,2/3+z
y,-x+y,5/6+z
loop_
_atom_site_type_symbol
_atom_site_label
_atom_site_fract_x
_atom_site_fract_y
_atom_site_fract_z
Si Si1 0.125168 0.701963 0.752280
Si Si2 0.875511 0.936994 0.108277
Si Si3 0.124317 0.432285 0.863695
Si Si4 0.497064 0.421938 0.454844
O O1 0.059928 0.581514 0.688018
O O2 0.046077 0.885764 0.766259
O O3 0.270887 0.069236 0.664658
O O4 0.394606 0.844392 0.757637
O O5 0.689301 0.913469 0.061238
O O6 0.448714 0.511708 0.145923
O O7 0.911648 0.726454 0.111827
O O8 0.302650 0.573016 0.914462
#
# Coordination Sequence:
#
# PCOD9580127 Si02
#       4
#     6   6   6   6
#     4  11  26  52  81 122 165 218 285 347 422 512
#     4  11  25  53  81 115 166 215 275 350 422 506
#     4  11  25  49  79 121 162 210 282 344 417 506
#     4  11  26  52  81 122 167 225 274 355 427 504
#
# _framework density 25.926480999999999
#
# number of rings (size 3 to 8) (size 9 to 14) (size 15 to 20)
#    0.000    1.000    0.000    7.500    7.000    0.000 
#   18.000    5.000    0.000    0.000    0.000    0.000 
#    0.000    0.000    0.000    0.000    0.000    0.000 
#
# Total GULP energy -133633.842667 kJ/mol
# GULP energy per Si atom -5568.076778 kJ/mol
# Density = 2.586747 g / cm^3
# Si number density = 25.926481 Si / 1000 Ang^3
#
#
#
# Elastic Constant Matrix: (Units=GPa)
#
#
# Indices 1 2 3 4 5 6 
#
# 1 168.0140 66.8055 70.3613 0.0000 0.0000 0.0000
# 2 66.8055 168.0140 70.3613 0.0000 0.0000 0.0000
# 3 70.3613 70.3613 202.7218 0.0000 0.0000 0.0000
# 4 0.0000 0.0000 0.0000 42.5887 0.0000 0.0000
# 5 0.0000 0.0000 0.0000 0.0000 42.5887 0.0000
# 6 0.0000 0.0000 0.0000 0.0000 0.0000 50.6042
#
#
#
# Elastic Compliance Matrix: (Units=1/GPa)
#
#
# Indices 1 2 3 4 5 6 
#
# 1 0.007629 -0.002252 -0.001866 0.000000 0.000000 0.000000
# 2 -0.002252 0.007629 -0.001866 0.000000 0.000000 0.000000
# 3 -0.001866 -0.001866 0.006228 0.000000 0.000000 0.000000
# 4 0.000000 0.000000 0.000000 0.023480 0.000000 0.000000
# 5 0.000000 0.000000 0.000000 0.000000 0.023480 0.000000
# 6 0.000000 0.000000 0.000000 0.000000 0.000000 0.019761
#
#
# Mechanical properties :
#
#
# Convention : Reuss Voigt Hill
#
# Bulk Modulus (GPa) = 105.07168 105.97843 105.52505
# Shear Modulus (GPa) = 48.37973 49.23777 48.80875
#
# Velocity S-wave (km/s) = 4.32445 4.36263 4.34358
# Velocity P-wave (km/s) = 8.09625 8.14506 8.12069
#
# Compressibility (1/GPa) = 0.00951731
#
# Stress axis : x y z
#
# Youngs Moduli (GPa) = 131.08217 131.08217 160.55568
#
# Poissons Ratio (x) = 0.29517 0.29964
# Poissons Ratio (y) = 0.29517 0.29964
# Poissons Ratio (z) = 0.24463 0.24463
#
# Static dielectric constant tensor:
#      x y z
#    x 2.134440 0.000000 0.000000 
#    y 0.000000 2.134440 0.000000 
#    z 0.000000 0.000000 2.556220 
# 
# From -- ./inp_files/1579.got.cif
#   From: 2010.05.17/outbox.cif.g08.bks.cpg/sg169_cif.got.tgz:1579.got - 2010.05.20 11:12:54.
