data_PCOD9580567
_publ_section_title
;
Structure prediction by ZEFSAII (Michael W. Deem and Ramdas Pophale) SiO2 
 PCOD9580567
Probable space group: P 62
;
_chemical_formula_sum "Si O2"
_cell_formula_units_Z 42
_cell_length_a 17.642546
_cell_length_b 17.642546
_cell_length_c 8.500922
_cell_angle_alpha 90.000000
_cell_angle_beta 90.000000
_cell_angle_gamma 120.000000
_cell_volume 2291.496403
_symmetry_space_group_name_H-M "P 62"
_symmetry_group_IT_number 171
_symmetry_cell_setting 'hexagonal'
loop_
_space_group_symop_operation_xyz
x,y,z
x-y,x,1/3+z
-y,x-y,2/3+z
-x,-y,z
-x+y,-x,1/3+z
y,-x+y,2/3+z
loop_
_atom_site_type_symbol
_atom_site_label
_atom_site_fract_x
_atom_site_fract_y
_atom_site_fract_z
Si Si1 0.289221 0.661215 0.491950
Si Si2 0.592960 0.590443 0.153576
Si Si3 0.168902 0.491207 0.642366
Si Si4 0.424492 0.134637 0.424670
Si Si5 0.434922 0.903125 0.265753
Si Si6 0.313915 0.944783 0.483840
Si Si7 0.755090 0.570860 0.123154
O O1 0.330690 0.672171 0.319593
O O2 0.207508 0.562748 0.504502
O O3 0.257265 0.731117 0.505419
O O4 0.500000 0.500000 0.142585
O O5 0.579992 0.649656 0.278637
O O6 0.677390 0.582659 0.196600
O O7 0.610935 0.639835 0.986647
O O8 0.223411 0.441845 0.658124
O O9 0.164234 0.543393 0.795533
O O10 0.504603 0.120197 0.373036
O O11 0.431241 0.167048 0.603613
O O12 0.336198 0.039662 0.413494
O O13 0.367499 0.914118 0.374262
O O14 0.500000 0.000000 0.196442
O O15 0.218749 0.857186 0.491967
#
# Coordination Sequence:
#
# PCOD9580567 Si02
#       7
#     6   6   6   6   6   6   6
#     4  12  26  37  54  83 119 157 210 254 303 362
#     4  11  22  40  55  81 121 154 192 251 313 365
#     4  12  22  37  55  84 116 150 198 250 305 363
#     4  10  22  38  57  82 116 151 201 254 299 360
#     4  10  21  36  58  80 112 154 198 243 301 356
#     4  10  21  39  58  77 107 159 200 241 304 359
#     4  11  22  38  61  81 111 161 204 247 301 372
#
# _framework density 18.328634999999998
#
# number of rings (size 3 to 8) (size 9 to 14) (size 15 to 20)
#    0.000    1.143    2.857    5.143    4.000    0.000 
#    2.571    0.000    0.000    0.000    0.000    0.000 
#    0.000   13.714    0.000    0.000    0.000    0.000 
#
# Total GULP energy -234357.671092 kJ/mol
# GULP energy per Si atom -5579.944550 kJ/mol
# Density = 1.828692 g / cm^3
# Si number density = 18.328635 Si / 1000 Ang^3
#
#
#
# Elastic Constant Matrix: (Units=GPa)
#
#
# Indices 1 2 3 4 5 6 
#
# 1 91.8853 33.5838 12.6480 0.0000 0.0000 0.0000
# 2 33.5838 91.8853 12.6480 0.0000 0.0000 0.0000
# 3 12.6480 12.6480 47.6706 0.0000 0.0000 0.0000
# 4 0.0000 0.0000 0.0000 26.1761 0.0000 0.0000
# 5 0.0000 0.0000 0.0000 0.0000 26.1761 0.0000
# 6 0.0000 0.0000 0.0000 0.0000 0.0000 29.1508
#
#
#
# Elastic Compliance Matrix: (Units=1/GPa)
#
#
# Indices 1 2 3 4 5 6 
#
# 1 0.012786 -0.004366 -0.002234 0.000000 0.000000 0.000000
# 2 -0.004366 0.012786 -0.002234 0.000000 0.000000 0.000000
# 3 -0.002234 -0.002234 0.022163 0.000000 0.000000 0.000000
# 4 0.000000 0.000000 0.000000 0.038203 0.000000 0.000000
# 5 0.000000 0.000000 0.000000 0.000000 0.038203 0.000000
# 6 0.000000 0.000000 0.000000 0.000000 0.000000 0.034304
#
#
# Mechanical properties :
#
#
# Convention : Reuss Voigt Hill
#
# Bulk Modulus (GPa) = 33.25873 38.80009 36.02941
# Shear Modulus (GPa) = 26.86207 27.80471 27.33339
#
# Velocity S-wave (km/s) = 3.83244 3.89911 3.86592
# Velocity P-wave (km/s) = 6.14562 6.44094 6.29501
#
# Compressibility (1/GPa) = 0.03006729
#
# Stress axis : x y z
#
# Youngs Moduli (GPa) = 78.20835 78.20835 45.12065
#
# Poissons Ratio (x) = 0.34145 0.10081
# Poissons Ratio (y) = 0.34145 0.10081
# Poissons Ratio (z) = 0.17473 0.17473
#
# Static dielectric constant tensor:
#      x y z
#    x 1.682170 0.000000 0.000000 
#    y 0.000000 1.682170 0.000000 
#    z 0.000000 0.000000 1.703290 
# 
# From -- ./inp_files/1255.got.cif
#   From: 2010.05.17/outbox.cif.g08.bks.cpg/sg171_1_cif.got.tgz:1255.got - 2010.05.20 11:16:09.
