data_PCOD9580498
_publ_section_title
;
Structure prediction by ZEFSAII (Michael W. Deem and Ramdas Pophale) SiO2 
 PCOD9580498
Probable space group: P 62
;
_chemical_formula_sum "Si O2"
_cell_formula_units_Z 42
_cell_length_a 12.757672
_cell_length_b 12.757672
_cell_length_c 14.731438
_cell_angle_alpha 90.000000
_cell_angle_beta 90.000000
_cell_angle_gamma 120.000000
_cell_volume 2076.436424
_symmetry_space_group_name_H-M "P 62"
_symmetry_group_IT_number 171
_symmetry_cell_setting 'hexagonal'
loop_
_space_group_symop_operation_xyz
x,y,z
x-y,x,1/3+z
-y,x-y,2/3+z
-x,-y,z
-x+y,-x,1/3+z
y,-x+y,2/3+z
loop_
_atom_site_type_symbol
_atom_site_label
_atom_site_fract_x
_atom_site_fract_y
_atom_site_fract_z
Si Si1 0.798042 0.536879 0.097310
Si Si2 0.732092 0.714168 0.651367
Si Si3 0.591415 0.333222 0.423077
Si Si4 0.768770 0.513328 0.575944
Si Si5 0.948665 0.591562 0.265799
Si Si6 0.680416 0.849993 0.497140
Si Si7 0.016359 0.384261 0.459940
O O1 0.732794 0.400472 0.064915
O O2 0.837576 0.533172 0.199081
O O3 0.721321 0.604047 0.104361
O O4 0.913096 0.616339 0.035622
O O5 0.707834 0.584354 0.619597
O O6 0.744705 0.795326 0.562092
O O7 0.829531 0.745407 0.734658
O O8 0.681724 0.433306 0.494340
O O9 0.558809 0.354584 0.321152
O O10 0.459217 0.251198 0.471213
O O11 0.899661 0.615629 0.539025
O O12 0.000000 0.500000 0.269842
O O13 0.048897 0.718888 0.223447
O O14 0.912573 0.602122 0.366897
O O15 0.000000 0.500000 0.475322
#
# Coordination Sequence:
#
# PCOD9580498 Si02
#       7
#     6   6   6   6   6   6   6
#     4  11  21  39  70  92 136 170 229 262 330 406
#     4  10  23  43  64  96 133 179 224 281 330 407
#     4  11  23  39  64 100 137 176 211 269 336 416
#     4  11  26  41  63  99 140 175 225 274 345 406
#     4  10  20  35  65  95 120 171 218 269 319 401
#     4  10  20  39  65  95 127 169 227 270 333 395
#     4  11  23  40  61  94 132 170 218 274 343 402
#
# _framework density 20.226962
#
# number of rings (size 3 to 8) (size 9 to 14) (size 15 to 20)
#    0.000    1.429    4.286    0.857    2.000    2.857 
#   10.286    0.000    0.000    6.857    0.000    0.000 
#    0.000    0.000    0.000    0.000    0.000    0.000 
#
# Total GULP energy -233962.878247 kJ/mol
# GULP energy per Si atom -5570.544720 kJ/mol
# Density = 2.018092 g / cm^3
# Si number density = 20.226962 Si / 1000 Ang^3
#
#
#
# Elastic Constant Matrix: (Units=GPa)
#
#
# Indices 1 2 3 4 5 6 
#
# 1 33.4917 18.4802 26.9957 0.0000 0.0000 0.0000
# 2 18.4802 33.4917 26.9957 0.0000 0.0000 0.0000
# 3 26.9957 26.9957 126.5095 0.0000 0.0000 0.0000
# 4 0.0000 0.0000 0.0000 18.6436 0.0000 0.0000
# 5 0.0000 0.0000 0.0000 0.0000 18.6436 0.0000
# 6 0.0000 0.0000 0.0000 0.0000 0.0000 7.5058
#
#
#
# Elastic Compliance Matrix: (Units=1/GPa)
#
#
# Indices 1 2 3 4 5 6 
#
# 1 0.045668 -0.020947 -0.005275 0.000000 0.000000 0.000000
# 2 -0.020947 0.045668 -0.005275 0.000000 0.000000 0.000000
# 3 -0.005275 -0.005275 0.010156 0.000000 0.000000 0.000000
# 4 0.000000 0.000000 0.000000 0.053638 0.000000 0.000000
# 5 0.000000 0.000000 0.000000 0.000000 0.053638 0.000000
# 6 0.000000 0.000000 0.000000 0.000000 0.000000 0.133231
#
#
# Mechanical properties :
#
#
# Convention : Reuss Voigt Hill
#
# Bulk Modulus (GPa) = 25.97558 37.60400 31.78979
# Shear Modulus (GPa) = 11.96669 17.02668 14.49669
#
# Velocity S-wave (km/s) = 2.43496 2.90449 2.68003
# Velocity P-wave (km/s) = 4.55800 5.46621 5.03264
#
# Compressibility (1/GPa) = 0.03849769
#
# Stress axis : x y z
#
# Youngs Moduli (GPa) = 21.89699 21.89699 98.46476
#
# Poissons Ratio (x) = 0.45867 0.51943
# Poissons Ratio (y) = 0.45867 0.51943
# Poissons Ratio (z) = 0.11551 0.11551
#
# Static dielectric constant tensor:
#      x y z
#    x 1.667690 0.000000 0.000000 
#    y 0.000000 1.667690 0.000000 
#    z 0.000000 0.000000 1.794680 
# 
# From -- ./inp_files/2486.got.cif
#   From: 2010.05.17/outbox.cif.g08.bks.cpg/sg171_2_cif.got.tgz:2486.got - 2010.05.20 11:16:09.
