data_PCOD9580984
_publ_section_title
;
Structure prediction by ZEFSAII (Michael W. Deem and Ramdas Pophale) SiO2 
 PCOD9580984
Probable space group: P 64
;
_chemical_formula_sum "Si O2"
_cell_formula_units_Z 39
_cell_length_a 8.415914
_cell_length_b 8.415914
_cell_length_c 30.803259
_cell_angle_alpha 90.000000
_cell_angle_beta 90.000000
_cell_angle_gamma 120.000000
_cell_volume 1889.425955
_symmetry_space_group_name_H-M "P 64"
_symmetry_group_IT_number 172
_symmetry_cell_setting 'hexagonal'
loop_
_space_group_symop_operation_xyz
x,y,z
x-y,x,2/3+z
-y,x-y,1/3+z
-x,-y,z
-x+y,-x,2/3+z
y,-x+y,1/3+z
loop_
_atom_site_type_symbol
_atom_site_label
_atom_site_fract_x
_atom_site_fract_y
_atom_site_fract_z
Si Si1 0.318919 0.640684 0.413560
Si Si2 0.143990 0.424478 0.000596
Si Si3 0.869823 0.065138 0.512107
Si Si4 0.684730 0.191764 0.837595
Si Si5 0.475402 0.680538 0.240808
Si Si6 0.743085 0.737313 0.752023
Si Si7 0.000000 0.000000 0.348125
O O1 0.478887 0.737713 0.377760
O O2 0.394053 0.700225 0.461680
O O3 0.153440 0.680595 0.409936
O O4 0.206490 0.417427 0.413207
O O5 0.051876 0.201852 0.995025
O O6 0.000000 0.500000 0.001371
O O7 0.258714 0.511127 0.956439
O O8 0.826678 0.188297 0.543896
O O9 0.957669 0.168744 0.466769
O O10 0.683973 0.874007 0.504191
O O11 0.000000 0.000000 0.533695
O O12 0.673758 0.289233 0.881388
O O13 0.500000 0.000000 0.833288
O O14 0.500000 0.500000 0.241948
O O15 0.884315 0.835765 0.714008
#
# Coordination Sequence:
#
# PCOD9580984 Si02
#       7
#     6   6   6   6   6   6   3
#     4  11  23  41  65  93 137 171 214 279 333 397
#     4  11  23  44  66  96 136 175 224 281 344 413
#     4  11  21  38  63  94 125 163 221 273 323 403
#     4  11  22  39  64  93 127 175 217 271 338 392
#     4   9  22  42  63  90 130 177 214 278 339 400
#     4  11  23  39  64  99 126 171 219 275 335 396
#     4  12  24  40  70  98 126 176 226 280 342 412
#
# _framework density 20.641189000000001
#
# number of rings (size 3 to 8) (size 9 to 14) (size 15 to 20)
#    0.000    1.231    3.846    2.308    1.077    1.846 
#    2.769    0.000   10.154    0.000    0.000    0.000 
#    0.000    0.000    0.000    0.000    0.000    0.000 
#
# Total GULP energy -217437.954695 kJ/mol
# GULP energy per Si atom -5575.332172 kJ/mol
# Density = 2.059421 g / cm^3
# Si number density = 20.641189 Si / 1000 Ang^3
#
#
#
# Elastic Constant Matrix: (Units=GPa)
#
#
# Indices 1 2 3 4 5 6 
#
# 1 71.9572 20.6757 19.9466 0.0000 0.0000 0.0000
# 2 20.6757 71.9572 19.9466 0.0000 0.0000 0.0000
# 3 19.9466 19.9466 107.3764 0.0000 0.0000 0.0000
# 4 0.0000 0.0000 0.0000 20.3055 0.0000 0.0000
# 5 0.0000 0.0000 0.0000 0.0000 20.3055 0.0000
# 6 0.0000 0.0000 0.0000 0.0000 0.0000 25.6408
#
#
#
# Elastic Compliance Matrix: (Units=1/GPa)
#
#
# Indices 1 2 3 4 5 6 
#
# 1 0.015617 -0.003883 -0.002180 0.000000 0.000000 0.000000
# 2 -0.003883 0.015617 -0.002180 0.000000 0.000000 0.000000
# 3 -0.002180 -0.002180 0.010123 0.000000 0.000000 0.000000
# 4 0.000000 0.000000 0.000000 0.049248 0.000000 0.000000
# 5 0.000000 0.000000 0.000000 0.000000 0.049248 0.000000
# 6 0.000000 0.000000 0.000000 0.000000 0.000000 0.039000
#
#
# Mechanical properties :
#
#
# Convention : Reuss Voigt Hill
#
# Bulk Modulus (GPa) = 40.20599 41.38097 40.79348
# Shear Modulus (GPa) = 24.55446 25.96513 25.25980
#
# Velocity S-wave (km/s) = 3.45278 3.55058 3.50202
# Velocity P-wave (km/s) = 5.95117 6.07454 6.01317
#
# Compressibility (1/GPa) = 0.02487191
#
# Stress axis : x y z
#
# Youngs Moduli (GPa) = 64.03231 64.03231 98.78618
#
# Poissons Ratio (x) = 0.24864 0.21533
# Poissons Ratio (y) = 0.24864 0.21533
# Poissons Ratio (z) = 0.13958 0.13958
#
# Static dielectric constant tensor:
#      x y z
#    x 1.782930 0.000000 0.000000 
#    y 0.000000 1.782930 0.000000 
#    z 0.000000 0.000000 1.733060 
# 
# From -- ./inp_files/2869.got.cif
#   From: 2010.05.17/outbox.cif.g08.bks.cpg/sg172_2_cif.got.tgz:2869.got - 2010.05.20 11:19:57.
