data_PCOD9580049
_publ_section_title
;
Structure prediction by ZEFSAII (Michael W. Deem and Ramdas Pophale) SiO2 
 PCOD9580049
Probable space group: P 61
;
_chemical_formula_sum "Si O2"
_cell_formula_units_Z 36
_cell_length_a 10.609973
_cell_length_b 10.609973
_cell_length_c 13.831254
_cell_angle_alpha 90.000000
_cell_angle_beta 90.000000
_cell_angle_gamma 120.000000
_cell_volume 1348.406216
_symmetry_space_group_name_H-M "P 61"
_symmetry_group_IT_number 169
_symmetry_cell_setting 'hexagonal'
loop_
_space_group_symop_operation_xyz
x,y,z
x-y,x,1/6+z
-y,x-y,1/3+z
-x,-y,1/2+z
-x+y,-x,2/3+z
y,-x+y,5/6+z
loop_
_atom_site_type_symbol
_atom_site_label
_atom_site_fract_x
_atom_site_fract_y
_atom_site_fract_z
Si Si1 0.778123 0.222871 0.401560
Si Si2 0.252153 0.508578 0.837482
Si Si3 0.758499 0.639541 0.150638
Si Si4 0.930928 0.108760 0.654197
Si Si5 0.186773 0.226729 0.958502
Si Si6 0.069254 0.487998 0.404788
O O1 0.744280 0.340914 0.353969
O O2 0.736813 0.075214 0.345540
O O3 0.699112 0.188853 0.503124
O O4 0.949830 0.322648 0.416297
O O5 0.214021 0.460911 0.724223
O O6 0.194723 0.369390 0.908836
O O7 0.425093 0.554922 0.835477
O O8 0.790718 0.663332 0.036328
O O9 0.587750 0.572282 0.177814
O O10 0.954682 0.108190 0.540677
O O11 0.106138 0.201932 0.681247
O O12 0.061957 0.177025 0.040906
#
# Coordination Sequence:
#
# PCOD9580049 Si02
#       6
#     6   6   6   6   6   6
#     4  12  24  48  77 124 161 223 291 369 456 551
#     4  10  25  41  78 118 165 216 290 364 447 542
#     4   8  18  35  60 102 144 201 266 344 423 515
#     4   8  15  28  54  95 150 199 262 336 416 503
#     4  12  28  51  87 125 185 247 311 379 475 561
#     4  10  24  41  76 110 161 208 278 364 449 532
#
# _framework density 26.698184999999999
#
# number of rings (size 3 to 8) (size 9 to 14) (size 15 to 20)
#    2.000    0.000    1.667    2.000    7.000    0.000 
#    0.000    0.000    7.333    0.000    4.333    0.000 
#    5.000    0.000    0.000    0.000    0.000    0.000 
#
# Total GULP energy -200582.494537 kJ/mol
# GULP energy per Si atom -5571.735959 kJ/mol
# Density = 2.663742 g / cm^3
# Si number density = 26.698185 Si / 1000 Ang^3
#
#
#
# Elastic Constant Matrix: (Units=GPa)
#
#
# Indices 1 2 3 4 5 6 
#
# 1 112.8223 17.3959 42.2805 0.0000 0.0000 0.0000
# 2 17.3959 112.8223 42.2805 0.0000 0.0000 0.0000
# 3 42.2805 42.2805 129.1729 0.0000 0.0000 0.0000
# 4 0.0000 0.0000 0.0000 52.2789 0.0000 0.0000
# 5 0.0000 0.0000 0.0000 0.0000 52.2789 0.0000
# 6 0.0000 0.0000 0.0000 0.0000 0.0000 47.7132
#
#
#
# Elastic Compliance Matrix: (Units=1/GPa)
#
#
# Indices 1 2 3 4 5 6 
#
# 1 0.010116 -0.000363 -0.003192 0.000000 0.000000 0.000000
# 2 -0.000363 0.010116 -0.003192 0.000000 0.000000 0.000000
# 3 -0.003192 -0.003192 0.009831 0.000000 0.000000 0.000000
# 4 0.000000 0.000000 0.000000 0.019128 0.000000 0.000000
# 5 0.000000 0.000000 0.000000 0.000000 0.019128 0.000000
# 6 0.000000 0.000000 0.000000 0.000000 0.000000 0.020959
#
#
# Mechanical properties :
#
#
# Convention : Reuss Voigt Hill
#
# Bulk Modulus (GPa) = 60.35939 62.08128 61.22033
# Shear Modulus (GPa) = 46.16993 47.31156 46.74074
#
# Velocity S-wave (km/s) = 4.16303 4.21419 4.18869
# Velocity P-wave (km/s) = 6.76498 6.85439 6.80983
#
# Compressibility (1/GPa) = 0.01656743
#
# Stress axis : x y z
#
# Youngs Moduli (GPa) = 98.85533 98.85533 101.71681
#
# Poissons Ratio (x) = 0.03593 0.32469
# Poissons Ratio (y) = 0.03593 0.32469
# Poissons Ratio (z) = 0.31556 0.31556
#
# Static dielectric constant tensor:
#      x y z
#    x 2.286470 0.000000 0.000000 
#    y 0.000000 2.286470 0.000000 
#    z 0.000000 0.000000 2.077790 
# 
# From -- ./inp_files/1338.got.cif
#   From: 2010.05.17/outbox.cif.g08.bks.cpg/sg169_cif.got.tgz:1338.got - 2010.05.20 11:12:54.
