data_PCOD9580130
_publ_section_title
;
Structure prediction by ZEFSAII (Michael W. Deem and Ramdas Pophale) SiO2 
 PCOD9580130
Probable space group: P 61
;
_chemical_formula_sum "Si O2"
_cell_formula_units_Z 48
_cell_length_a 11.312096
_cell_length_b 11.312096
_cell_length_c 15.932655
_cell_angle_alpha 90.000000
_cell_angle_beta 90.000000
_cell_angle_gamma 120.000000
_cell_volume 1765.651339
_symmetry_space_group_name_H-M "P 61"
_symmetry_group_IT_number 169
_symmetry_cell_setting 'hexagonal'
loop_
_space_group_symop_operation_xyz
x,y,z
x-y,x,1/6+z
-y,x-y,1/3+z
-x,-y,1/2+z
-x+y,-x,2/3+z
y,-x+y,5/6+z
loop_
_atom_site_type_symbol
_atom_site_label
_atom_site_fract_x
_atom_site_fract_y
_atom_site_fract_z
Si Si1 0.169044 0.872825 0.097150
Si Si2 0.703036 0.202506 0.364044
Si Si3 0.306753 0.399888 0.582000
Si Si4 0.898993 0.241463 0.215084
Si Si5 0.350137 0.511733 0.897910
Si Si6 0.450090 0.062043 0.148136
Si Si7 0.021435 0.042040 0.061961
Si Si8 0.286211 0.780348 0.391374
O O1 0.131832 0.826731 0.193670
O O2 0.332099 0.948384 0.088896
O O3 0.117404 0.973174 0.064858
O O4 0.097810 0.733387 0.046710
O O5 0.685832 0.054337 0.389186
O O6 0.699227 0.446244 0.313283
O O7 0.799152 0.323524 0.428813
O O8 0.789005 0.246781 0.277423
O O9 0.380874 0.546985 0.534497
O O10 0.408952 0.343919 0.582580
O O11 0.278287 0.421816 0.676686
O O12 0.908425 0.111087 0.243244
O O13 0.855099 0.238104 0.118008
O O14 0.469386 0.482523 0.863581
O O15 0.413977 0.618620 0.976209
O O16 0.924873 0.963083 0.138079
#
# Coordination Sequence:
#
# PCOD9580130 Si02
#       8
#     6   6   6   6   6   6   6   6
#     4  12  21  44  77 115 160 217 286 353 420 523
#     4  12  26  47  87 121 170 226 292 360 438 532
#     4  12  28  55  83 126 176 231 297 362 456 534
#     4  12  25  50  77 126 169 222 287 364 436 525
#     4  12  30  55  84 125 183 229 304 364 455 532
#     4  12  24  46  81 121 163 224 284 360 424 515
#     4  12  24  47  78 118 165 219 289 350 439 518
#     4  12  30  58  87 126 178 238 297 375 450 541
#
# _framework density 27.185434999999998
#
# number of rings (size 3 to 8) (size 9 to 14) (size 15 to 20)
#    0.000    0.000    7.500    0.750    5.250    1.000 
#    4.500    0.000    0.000    0.000    0.000    0.000 
#    0.000    0.000    0.000    0.000    0.000    0.000 
#
# Total GULP energy -268686.417642 kJ/mol
# GULP energy per Si atom -5597.633701 kJ/mol
# Density = 2.712356 g / cm^3
# Si number density = 27.185435 Si / 1000 Ang^3
#
#
#
# Elastic Constant Matrix: (Units=GPa)
#
#
# Indices 1 2 3 4 5 6 
#
# 1 105.1296 40.9316 58.0679 0.0000 0.0000 0.0000
# 2 40.9316 105.1296 58.0679 0.0000 0.0000 0.0000
# 3 58.0679 58.0679 205.8921 0.0000 0.0000 0.0000
# 4 0.0000 0.0000 0.0000 46.4554 0.0000 0.0000
# 5 0.0000 0.0000 0.0000 0.0000 46.4554 0.0000
# 6 0.0000 0.0000 0.0000 0.0000 0.0000 32.0990
#
#
#
# Elastic Compliance Matrix: (Units=1/GPa)
#
#
# Indices 1 2 3 4 5 6 
#
# 1 0.012201 -0.003376 -0.002489 0.000000 0.000000 0.000000
# 2 -0.003376 0.012201 -0.002489 0.000000 0.000000 0.000000
# 3 -0.002489 -0.002489 0.006261 0.000000 0.000000 0.000000
# 4 0.000000 0.000000 0.000000 0.021526 0.000000 0.000000
# 5 0.000000 0.000000 0.000000 0.000000 0.021526 0.000000
# 6 0.000000 0.000000 0.000000 0.000000 0.000000 0.031154
#
#
# Mechanical properties :
#
#
# Convention : Reuss Voigt Hill
#
# Bulk Modulus (GPa) = 71.65530 81.14291 76.39911
# Shear Modulus (GPa) = 39.61075 42.27423 40.94249
#
# Velocity S-wave (km/s) = 3.82128 3.94767 3.88499
# Velocity P-wave (km/s) = 6.77383 7.11980 6.94897
#
# Compressibility (1/GPa) = 0.01395570
#
# Stress axis : x y z
#
# Youngs Moduli (GPa) = 81.95930 81.95930 159.72121
#
# Poissons Ratio (x) = 0.27666 0.39756
# Poissons Ratio (y) = 0.27666 0.39756
# Poissons Ratio (z) = 0.20400 0.20400
#
# Static dielectric constant tensor:
#      x y z
#    x 2.137080 0.000000 0.000000 
#    y 0.000000 2.137080 0.000000 
#    z 0.000000 0.000000 2.266860 
# 
# From -- ./inp_files/1435.got.cif
#   From: 2010.05.17/outbox.cif.g08.bks.cpg/sg169_cif.got.tgz:1435.got - 2010.05.20 11:12:54.
