data_PCOD9580272
_publ_section_title
;
Structure prediction by ZEFSAII (Michael W. Deem and Ramdas Pophale) SiO2 
 PCOD9580272
Probable space group: P 65
;
_chemical_formula_sum "Si O2"
_cell_formula_units_Z 42
_cell_length_a 8.826403
_cell_length_b 8.826403
_cell_length_c 28.155626
_cell_angle_alpha 90.000000
_cell_angle_beta 90.000000
_cell_angle_gamma 120.000000
_cell_volume 1899.605092
_symmetry_space_group_name_H-M "P 65"
_symmetry_group_IT_number 170
_symmetry_cell_setting 'hexagonal'
loop_
_space_group_symop_operation_xyz
x,y,z
x-y,x,5/6+z
-y,x-y,2/3+z
-x,-y,1/2+z
-x+y,-x,1/3+z
y,-x+y,1/6+z
loop_
_atom_site_type_symbol
_atom_site_label
_atom_site_fract_x
_atom_site_fract_y
_atom_site_fract_z
Si Si1 0.497888 0.071998 0.457450
Si Si2 0.627137 0.157803 0.865368
Si Si3 0.112970 0.610627 0.935397
Si Si4 0.144060 0.040187 0.490107
Si Si5 0.165059 0.315425 0.951256
Si Si6 0.488591 0.415054 0.890806
Si Si7 0.721498 0.876078 0.086886
O O1 0.404481 0.951157 0.412462
O O2 0.686503 0.229494 0.439910
O O3 0.347249 0.109168 0.477005
O O4 0.535982 0.988948 0.504502
O O5 0.489408 0.047281 0.823511
O O6 0.804537 0.224351 0.835150
O O7 0.586050 0.307782 0.879224
O O8 0.122293 0.441776 0.919120
O O9 0.975465 0.647826 0.909617
O O10 0.134767 0.018864 0.546399
O O11 0.103412 0.185641 0.470811
O O12 0.008117 0.862127 0.464354
O O13 0.319562 0.309535 0.923442
O O14 0.639718 0.585216 0.917031
#
# Coordination Sequence:
#
# PCOD9580272 Si02
#       7
#     6   6   6   6   6   6   6
#     4  10  21  44  69  93 137 178 218 285 349 397
#     4   9  22  42  70  98 135 173 230 283 342 406
#     4   9  23  42  68  98 136 173 229 277 340 418
#     4  11  25  43  69 102 138 183 228 285 351 410
#     4  10  23  45  67  98 136 178 234 278 340 420
#     4  10  23  44  67  99 135 183 225 282 347 409
#     4  11  25  42  68 102 139 180 224 288 347 416
#
# _framework density 22.109857000000002
#
# number of rings (size 3 to 8) (size 9 to 14) (size 15 to 20)
#    0.857    1.143    0.000    1.714    8.000    2.286 
#    5.143    0.000    0.000    0.000    0.000    0.000 
#    0.000    0.000    0.000    0.000    0.000    0.000 
#
# Total GULP energy -233912.384208 kJ/mol
# GULP energy per Si atom -5569.342481 kJ/mol
# Density = 2.205953 g / cm^3
# Si number density = 22.109857 Si / 1000 Ang^3
#
#
#
# Elastic Constant Matrix: (Units=GPa)
#
#
# Indices 1 2 3 4 5 6 
#
# 1 48.4380 9.6163 13.9761 0.0000 0.0000 0.0000
# 2 9.6163 48.4380 13.9761 0.0000 0.0000 0.0000
# 3 13.9761 13.9761 57.6997 0.0000 0.0000 0.0000
# 4 0.0000 0.0000 0.0000 33.7761 0.0000 0.0000
# 5 0.0000 0.0000 0.0000 0.0000 33.7761 0.0000
# 6 0.0000 0.0000 0.0000 0.0000 0.0000 19.4108
#
#
#
# Elastic Compliance Matrix: (Units=1/GPa)
#
#
# Indices 1 2 3 4 5 6 
#
# 1 0.022629 -0.003130 -0.004723 0.000000 0.000000 0.000000
# 2 -0.003130 0.022629 -0.004723 0.000000 0.000000 0.000000
# 3 -0.004723 -0.004723 0.019619 0.000000 0.000000 0.000000
# 4 0.000000 0.000000 0.000000 0.029607 0.000000 0.000000
# 5 0.000000 0.000000 0.000000 0.000000 0.029607 0.000000
# 6 0.000000 0.000000 0.000000 0.000000 0.000000 0.051518
#
#
# Mechanical properties :
#
#
# Convention : Reuss Voigt Hill
#
# Bulk Modulus (GPa) = 25.17285 25.52362 25.34823
# Shear Modulus (GPa) = 23.36421 25.19307 24.27864
#
# Velocity S-wave (km/s) = 3.25427 3.37924 3.31734
# Velocity P-wave (km/s) = 5.05276 5.17636 5.11494
#
# Compressibility (1/GPa) = 0.03972534
#
# Stress axis : x y z
#
# Youngs Moduli (GPa) = 44.19086 44.19086 50.97042
#
# Poissons Ratio (x) = 0.13831 0.24074
# Poissons Ratio (y) = 0.13831 0.24074
# Poissons Ratio (z) = 0.20872 0.20872
#
# Static dielectric constant tensor:
#      x y z
#    x 1.835940 0.000000 0.000000 
#    y 0.000000 1.835940 0.000000 
#    z 0.000000 0.000000 1.862280 
# 
# From -- ./inp_files/1939.got.cif
#   From: 2010.05.17/outbox.cif.g08.bks.cpg/sg170_cif.got.tgz:1939.got - 2010.05.20 11:14:30.
