data_PCOD9580872
_publ_section_title
;
Structure prediction by ZEFSAII (Michael W. Deem and Ramdas Pophale) SiO2 
 PCOD9580872
Probable space group: P 62
;
_chemical_formula_sum "Si O2"
_cell_formula_units_Z 21
_cell_length_a 4.990475
_cell_length_b 4.990475
_cell_length_c 40.149235
_cell_angle_alpha 90.000000
_cell_angle_beta 90.000000
_cell_angle_gamma 120.000000
_cell_volume 865.947724
_symmetry_space_group_name_H-M "P 62"
_symmetry_group_IT_number 171
_symmetry_cell_setting 'hexagonal'
loop_
_space_group_symop_operation_xyz
x,y,z
x-y,x,1/3+z
-y,x-y,2/3+z
-x,-y,z
-x+y,-x,1/3+z
y,-x+y,2/3+z
loop_
_atom_site_type_symbol
_atom_site_label
_atom_site_fract_x
_atom_site_fract_y
_atom_site_fract_z
Si Si1 0.000000 0.000000 0.576710
Si Si2 0.000000 0.500000 0.626055
Si Si3 0.000000 0.500000 0.342684
Si Si4 0.000000 0.500000 0.483406
Si Si5 0.500000 0.000000 0.197335
Si Si6 0.000000 0.500000 0.058046
Si Si7 0.000000 0.000000 0.767954
O O1 0.042548 0.273784 0.601072
O O2 0.293369 0.193545 0.552731
O O3 0.745807 0.254587 0.651042
O O4 0.216862 0.773536 0.367712
O O5 0.717361 0.428230 0.507551
O O6 0.024756 0.760481 0.458707
O O7 0.133463 0.813839 0.080059
#
# Coordination Sequence:
#
# PCOD9580872 Si02
#       7
#     3   3   3   3   3   3   3
#     4  12  27  47  76 110 150 198 252 313 379 452
#     4  12  25  46  73 109 150 198 251 312 378 451
#     4  12  25  46  74 110 150 198 250 311 377 450
#     4  12  28  50  78 112 154 201 255 316 382 455
#     4  12  28  51  77 114 152 201 256 317 383 456
#     4  12  26  47  76 111 152 200 254 314 380 454
#     4  12  27  49  76 112 152 202 254 315 381 454
#
# _framework density 24.250882000000001
#
# number of rings (size 3 to 8) (size 9 to 14) (size 15 to 20)
#    0.000    0.000    0.000    9.429    0.000   10.286 
#    0.000    0.000    0.000    0.000    0.000    0.000 
#    0.000    0.000    0.000    0.000    0.000    0.000 
#
# Total GULP energy -117477.210257 kJ/mol
# GULP energy per Si atom -5594.152869 kJ/mol
# Density = 2.419569 g / cm^3
# Si number density = 24.250882 Si / 1000 Ang^3
#
#
#
# Elastic Constant Matrix: (Units=GPa)
#
#
# Indices 1 2 3 4 5 6 
#
# 1 204.5729 87.3116 109.7606 0.0000 0.0000 0.0000
# 2 87.3116 204.5729 109.7606 0.0000 0.0000 0.0000
# 3 109.7606 109.7606 194.0958 0.0000 0.0000 0.0000
# 4 0.0000 0.0000 0.0000 70.6935 0.0000 0.0000
# 5 0.0000 0.0000 0.0000 0.0000 70.6935 0.0000
# 6 0.0000 0.0000 0.0000 0.0000 0.0000 58.6306
#
#
#
# Elastic Compliance Matrix: (Units=1/GPa)
#
#
# Indices 1 2 3 4 5 6 
#
# 1 0.007245 -0.001283 -0.003371 0.000000 0.000000 0.000000
# 2 -0.001283 0.007245 -0.003371 0.000000 0.000000 0.000000
# 3 -0.003371 -0.003371 0.008965 0.000000 0.000000 0.000000
# 4 0.000000 0.000000 0.000000 0.014146 0.000000 0.000000
# 5 0.000000 0.000000 0.000000 0.000000 0.014146 0.000000
# 6 0.000000 0.000000 0.000000 0.000000 0.000000 0.017056
#
#
# Mechanical properties :
#
#
# Convention : Reuss Voigt Hill
#
# Bulk Modulus (GPa) = 135.07980 135.21194 135.14587
# Shear Modulus (GPa) = 57.26056 59.76412 58.51234
#
# Velocity S-wave (km/s) = 4.86446 4.96967 4.91735
# Velocity P-wave (km/s) = 9.34733 9.42373 9.38561
#
# Compressibility (1/GPa) = 0.00740303
#
# Stress axis : x y z
#
# Youngs Moduli (GPa) = 138.03229 138.03229 111.54673
#
# Poissons Ratio (x) = 0.17713 0.37604
# Poissons Ratio (y) = 0.17713 0.37604
# Poissons Ratio (z) = 0.46533 0.46533
#
# Static dielectric constant tensor:
#      x y z
#    x 1.900750 0.000000 0.000000 
#    y 0.000000 1.900750 0.000000 
#    z 0.000000 0.000000 1.951440 
# 
# From -- ./inp_files/5903.got.cif
#   From: 2010.05.17/outbox.cif.g08.bks.cpg/sg171_3_cif.got.tgz:5903.got - 2010.05.20 11:16:09.
