data_PCOD9580697
_publ_section_title
;
Structure prediction by ZEFSAII (Michael W. Deem and Ramdas Pophale) SiO2 
 PCOD9580697
Probable space group: P 62
;
_chemical_formula_sum "Si O2"
_cell_formula_units_Z 24
_cell_length_a 12.357322
_cell_length_b 12.357322
_cell_length_c 7.167639
_cell_angle_alpha 90.000000
_cell_angle_beta 90.000000
_cell_angle_gamma 120.000000
_cell_volume 947.884633
_symmetry_space_group_name_H-M "P 62"
_symmetry_group_IT_number 171
_symmetry_cell_setting 'hexagonal'
loop_
_space_group_symop_operation_xyz
x,y,z
x-y,x,1/3+z
-y,x-y,2/3+z
-x,-y,z
-x+y,-x,1/3+z
y,-x+y,2/3+z
loop_
_atom_site_type_symbol
_atom_site_label
_atom_site_fract_x
_atom_site_fract_y
_atom_site_fract_z
Si Si1 0.037592 0.763207 0.581760
Si Si2 0.319424 0.904292 0.629998
Si Si3 0.291235 0.117178 0.523952
Si Si4 0.575222 0.265599 0.495464
O O1 0.172912 0.803074 0.660269
O O2 0.066541 0.844308 0.389739
O O3 0.978086 0.625355 0.491934
O O4 0.940959 0.772804 0.717697
O O5 0.399390 0.843132 0.570681
O O6 0.317604 0.002880 0.479453
O O7 0.434709 0.228476 0.541344
O O8 0.613027 0.282943 0.280526
#
# Coordination Sequence:
#
# PCOD9580697 Si02
#       4
#     6   6   6   6
#     4  10  23  41  70  96 147 187 250 311 384 452
#     4  10  23  43  66  97 147 188 252 309 386 448
#     4  10  24  43  69 102 144 197 251 318 386 457
#     4  12  23  44  70 109 146 199 255 317 385 469
#
# _framework density 25.319534999999998
#
# number of rings (size 3 to 8) (size 9 to 14) (size 15 to 20)
#    1.500    0.000    2.500    2.250    3.500    0.000 
#    0.000    3.750    0.000    0.000    0.000    0.000 
#    0.000    0.000    0.000    0.000    0.000    0.000 
#
# Total GULP energy -133889.232988 kJ/mol
# GULP energy per Si atom -5578.718041 kJ/mol
# Density = 2.526191 g / cm^3
# Si number density = 25.319535 Si / 1000 Ang^3
#
#
#
# Elastic Constant Matrix: (Units=GPa)
#
#
# Indices 1 2 3 4 5 6 
#
# 1 104.2501 36.5004 52.0635 0.0000 0.0000 0.0000
# 2 36.5004 104.2501 52.0635 0.0000 0.0000 0.0000
# 3 52.0635 52.0635 124.6593 0.0000 0.0000 0.0000
# 4 0.0000 0.0000 0.0000 42.6639 0.0000 0.0000
# 5 0.0000 0.0000 0.0000 0.0000 42.6639 0.0000
# 6 0.0000 0.0000 0.0000 0.0000 0.0000 33.8748
#
#
#
# Elastic Compliance Matrix: (Units=1/GPa)
#
#
# Indices 1 2 3 4 5 6 
#
# 1 0.012521 -0.002239 -0.004294 0.000000 0.000000 0.000000
# 2 -0.002239 0.012521 -0.004294 0.000000 0.000000 0.000000
# 3 -0.004294 -0.004294 0.011609 0.000000 0.000000 0.000000
# 4 0.000000 0.000000 0.000000 0.023439 0.000000 0.000000
# 5 0.000000 0.000000 0.000000 0.000000 0.023439 0.000000
# 6 0.000000 0.000000 0.000000 0.000000 0.000000 0.029520
#
#
# Mechanical properties :
#
#
# Convention : Reuss Voigt Hill
#
# Bulk Modulus (GPa) = 66.68664 68.26823 67.47744
# Shear Modulus (GPa) = 35.79043 36.67599 36.23321
#
# Velocity S-wave (km/s) = 3.76380 3.81008 3.78701
# Velocity P-wave (km/s) = 6.72930 6.81005 6.76980
#
# Compressibility (1/GPa) = 0.01499551
#
# Stress axis : x y z
#
# Youngs Moduli (GPa) = 79.86680 79.86680 86.14289
#
# Poissons Ratio (x) = 0.17885 0.36990
# Poissons Ratio (y) = 0.17885 0.36990
# Poissons Ratio (z) = 0.34295 0.34295
#
# Static dielectric constant tensor:
#      x y z
#    x 2.050190 0.000000 0.000000 
#    y 0.000000 2.050190 0.000000 
#    z 0.000000 0.000000 2.107370 
# 
# From -- ./inp_files/997.got.cif
#   From: 2010.05.17/outbox.cif.g08.bks.cpg/sg171_1_cif.got.tgz:997.got - 2010.05.20 11:16:09.
