data_PCOD9580773
_publ_section_title
;
Structure prediction by ZEFSAII (Michael W. Deem and Ramdas Pophale) SiO2 
 PCOD9580773
Probable space group: P 62
;
_chemical_formula_sum "Si O2"
_cell_formula_units_Z 24
_cell_length_a 12.349494
_cell_length_b 12.349494
_cell_length_c 6.984435
_cell_angle_alpha 90.000000
_cell_angle_beta 90.000000
_cell_angle_gamma 120.000000
_cell_volume 922.486966
_symmetry_space_group_name_H-M "P 62"
_symmetry_group_IT_number 171
_symmetry_cell_setting 'hexagonal'
loop_
_space_group_symop_operation_xyz
x,y,z
x-y,x,1/3+z
-y,x-y,2/3+z
-x,-y,z
-x+y,-x,1/3+z
y,-x+y,2/3+z
loop_
_atom_site_type_symbol
_atom_site_label
_atom_site_fract_x
_atom_site_fract_y
_atom_site_fract_z
Si Si1 0.955577 0.146864 0.642440
Si Si2 0.099583 0.432508 0.632999
Si Si3 0.916111 0.596944 0.206277
Si Si4 0.384281 0.530635 0.638854
O O1 0.048709 0.140394 0.485273
O O2 0.044977 0.413579 0.421262
O O3 0.825771 0.122140 0.542401
O O4 0.031005 0.291053 0.715479
O O5 0.243929 0.483777 0.590212
O O6 0.113280 0.538950 0.775943
O O7 0.034662 0.624415 0.077364
O O8 0.814856 0.462469 0.116860
#
# Coordination Sequence:
#
# PCOD9580773 Si02
#       4
#     6   6   6   6
#     4  10  25  56  91 126 184 242 297 365 446 542
#     4  11  28  53  89 130 176 232 296 373 441 527
#     4  10  27  51  83 123 170 229 295 368 434 518
#     4  11  28  51  88 121 172 231 306 365 438 523
#
# _framework density 26.016628000000001
#
# number of rings (size 3 to 8) (size 9 to 14) (size 15 to 20)
#    0.000    1.500    0.000    0.000   24.500    4.000 
#   13.500    6.250    5.500    0.000    0.000    0.000 
#    0.000    0.000    0.000    0.000    0.000    0.000 
#
# Total GULP energy -134205.547134 kJ/mol
# GULP energy per Si atom -5591.897797 kJ/mol
# Density = 2.595741 g / cm^3
# Si number density = 26.016628 Si / 1000 Ang^3
#
#
#
# Elastic Constant Matrix: (Units=GPa)
#
#
# Indices 1 2 3 4 5 6 
#
# 1 171.6467 73.5014 70.9841 0.0000 0.0000 0.0000
# 2 73.5014 171.6467 70.9841 0.0000 0.0000 0.0000
# 3 70.9841 70.9841 173.3487 0.0000 0.0000 0.0000
# 4 0.0000 0.0000 0.0000 57.2264 0.0000 0.0000
# 5 0.0000 0.0000 0.0000 0.0000 57.2264 0.0000
# 6 0.0000 0.0000 0.0000 0.0000 0.0000 49.0726
#
#
#
# Elastic Compliance Matrix: (Units=1/GPa)
#
#
# Indices 1 2 3 4 5 6 
#
# 1 0.007768 -0.002421 -0.002190 0.000000 0.000000 0.000000
# 2 -0.002421 0.007768 -0.002190 0.000000 0.000000 0.000000
# 3 -0.002190 -0.002190 0.007562 0.000000 0.000000 0.000000
# 4 0.000000 0.000000 0.000000 0.017474 0.000000 0.000000
# 5 0.000000 0.000000 0.000000 0.000000 0.017474 0.000000
# 6 0.000000 0.000000 0.000000 0.000000 0.000000 0.020378
#
#
# Mechanical properties :
#
#
# Convention : Reuss Voigt Hill
#
# Bulk Modulus (GPa) = 105.28634 105.28682 105.28658
# Shear Modulus (GPa) = 52.52587 52.78324 52.65456
#
# Velocity S-wave (km/s) = 4.49813 4.50914 4.50364
# Velocity P-wave (km/s) = 8.21792 8.22597 8.22195
#
# Compressibility (1/GPa) = 0.00949791
#
# Stress axis : x y z
#
# Youngs Moduli (GPa) = 128.73187 128.73187 132.24097
#
# Poissons Ratio (x) = 0.31165 0.28956
# Poissons Ratio (y) = 0.31165 0.28956
# Poissons Ratio (z) = 0.28187 0.28187
#
# Static dielectric constant tensor:
#      x y z
#    x 2.032560 0.000000 0.000000 
#    y 0.000000 2.032560 0.000000 
#    z 0.000000 0.000000 2.066730 
# 
# From -- ./inp_files/1024.got.cif
#   From: 2010.05.17/outbox.cif.g08.bks.cpg/sg171_1_cif.got.tgz:1024.got - 2010.05.20 11:16:09.
