data_PCOD9580892
_publ_section_title
;
Structure prediction by ZEFSAII (Michael W. Deem and Ramdas Pophale) SiO2 
 PCOD9580892
Probable space group: P 62
;
_chemical_formula_sum "Si O2"
_cell_formula_units_Z 18
_cell_length_a 13.000000
_cell_length_b 13.000000
_cell_length_c 5.000000
_cell_angle_alpha 90.000000
_cell_angle_beta 90.000000
_cell_angle_gamma 120.000000
_cell_volume 731.791466
_symmetry_space_group_name_H-M "P 62"
_symmetry_group_IT_number 171
_symmetry_cell_setting 'hexagonal'
loop_
_space_group_symop_operation_xyz
x,y,z
x-y,x,1/3+z
-y,x-y,2/3+z
-x,-y,z
-x+y,-x,1/3+z
y,-x+y,2/3+z
loop_
_atom_site_type_symbol
_atom_site_label
_atom_site_fract_x
_atom_site_fract_y
_atom_site_fract_z
Si Si1 0.203293 0.217786 0.136440
Si Si2 0.800256 0.414804 0.064092
Si Si3 0.020589 0.662711 0.975998
O O1 0.087791 0.190600 0.313219
O O2 0.302285 0.282972 0.368242
O O3 0.239614 0.305417 0.879860
O O4 0.688344 0.421130 0.948204
O O5 0.907345 0.548451 0.112412
O O6 0.874791 0.365399 0.899720
#
# Coordination Sequence:
#
# PCOD9580892 Si02
#       3
#     6   6   6
#     4  12  26  51  81 112 156 208 267 326 395 466
#     4  11  26  44  78 116 158 209 264 316 392 475
#     4  11  28  48  75 116 166 206 255 330 393 462
#
# _framework density 24.597170999999999
#
# number of rings (size 3 to 8) (size 9 to 14) (size 15 to 20)
#    0.000    0.667    0.000    6.000   14.000    2.667 
#    0.000   11.667    0.000    0.000    0.000    0.000 
#    0.000    0.000    0.000    0.000    0.000    0.000 
#
# Total GULP energy -100465.643234 kJ/mol
# GULP energy per Si atom -5581.424624 kJ/mol
# Density = 2.454119 g / cm^3
# Si number density = 24.597171 Si / 1000 Ang^3
#
#
#
# Elastic Constant Matrix: (Units=GPa)
#
#
# Indices 1 2 3 4 5 6 
#
# 1 101.6053 6.6716 41.3448 0.0000 0.0000 0.0000
# 2 6.6716 101.6053 41.3448 0.0000 0.0000 0.0000
# 3 41.3448 41.3448 153.7107 0.0000 0.0000 0.0000
# 4 0.0000 0.0000 0.0000 43.4282 0.0000 0.0000
# 5 0.0000 0.0000 0.0000 0.0000 43.4282 0.0000
# 6 0.0000 0.0000 0.0000 0.0000 0.0000 47.4669
#
#
#
# Elastic Compliance Matrix: (Units=1/GPa)
#
#
# Indices 1 2 3 4 5 6 
#
# 1 0.011078 0.000545 -0.003126 0.000000 0.000000 0.000000
# 2 0.000545 0.011078 -0.003126 0.000000 0.000000 0.000000
# 3 -0.003126 -0.003126 0.008188 0.000000 0.000000 0.000000
# 4 0.000000 0.000000 0.000000 0.023027 0.000000 0.000000
# 5 0.000000 0.000000 0.000000 0.000000 0.023027 0.000000
# 6 0.000000 0.000000 0.000000 0.000000 0.000000 0.021067
#
#
# Mechanical properties :
#
#
# Convention : Reuss Voigt Hill
#
# Bulk Modulus (GPa) = 52.83067 59.51596 56.17331
# Shear Modulus (GPa) = 43.40644 44.70197 44.05420
#
# Velocity S-wave (km/s) = 4.20538 4.26768 4.23664
# Velocity P-wave (km/s) = 6.71605 6.96656 6.84245
#
# Compressibility (1/GPa) = 0.01892840
#
# Stress axis : x y z
#
# Youngs Moduli (GPa) = 90.26564 90.26564 122.13622
#
# Poissons Ratio (x) = -0.04917 0.38184
# Poissons Ratio (y) = -0.04917 0.38184
# Poissons Ratio (z) = 0.28220 0.28220
#
# Static dielectric constant tensor:
#      x y z
#    x 2.034730 0.000000 0.000000 
#    y 0.000000 2.034730 0.000000 
#    z 0.000000 0.000000 1.913470 
# 
# From -- ./inp_files/105.got.cif
#   From: 2010.05.17/outbox.ucp.g08.bks.cvg/sg171_1_cif.got.tgz:105.got - 2010.06.11 15:18:14.
