data_PCOD9580528
_publ_section_title
;
Structure prediction by ZEFSAII (Michael W. Deem and Ramdas Pophale) SiO2 
 PCOD9580528
Probable space group: P 62
;
_chemical_formula_sum "Si O2"
_cell_formula_units_Z 39
_cell_length_a 13.425494
_cell_length_b 13.425494
_cell_length_c 13.724211
_cell_angle_alpha 90.000000
_cell_angle_beta 90.000000
_cell_angle_gamma 120.000000
_cell_volume 2142.291515
_symmetry_space_group_name_H-M "P 62"
_symmetry_group_IT_number 171
_symmetry_cell_setting 'hexagonal'
loop_
_space_group_symop_operation_xyz
x,y,z
x-y,x,1/3+z
-y,x-y,2/3+z
-x,-y,z
-x+y,-x,1/3+z
y,-x+y,2/3+z
loop_
_atom_site_type_symbol
_atom_site_label
_atom_site_fract_x
_atom_site_fract_y
_atom_site_fract_z
Si Si1 0.157131 0.012322 0.056920
Si Si2 0.044485 0.732996 0.554569
Si Si3 0.511312 0.703580 0.202435
Si Si4 0.080150 0.193942 0.059721
Si Si5 0.278328 0.315198 0.569482
Si Si6 0.798465 0.328092 0.680135
Si Si7 0.000000 0.500000 0.820492
O O1 0.134035 0.114872 0.027063
O O2 0.254371 0.045322 0.137268
O O3 0.198816 0.982763 0.957347
O O4 0.042529 0.905828 0.101481
O O5 0.103688 0.823026 0.467038
O O6 0.141950 0.729675 0.618731
O O7 0.944820 0.603218 0.530331
O O8 0.585046 0.830486 0.251749
O O9 0.400395 0.629747 0.269565
O O10 0.472033 0.710903 0.092475
O O11 0.036190 0.251204 0.980291
O O12 0.414115 0.388546 0.548420
O O13 0.894712 0.423319 0.750237
#
# Coordination Sequence:
#
# PCOD9580528 Si02
#       7
#     6   6   6   6   6   6   3
#     4  11  19  35  56  89 130 166 194 237 313 405
#     4  12  19  38  61  90 124 166 206 253 313 383
#     4  11  21  39  65  88 115 166 220 258 299 372
#     4  11  22  31  56  95 132 155 190 256 320 378
#     4  11  21  37  58  86 122 161 209 251 312 374
#     4  11  22  40  66  84 115 161 217 261 301 370
#     4  10  20  38  64  80 108 168 214 252 296 372
#
# _framework density 18.204806999999999
#
# number of rings (size 3 to 8) (size 9 to 14) (size 15 to 20)
#    0.000    0.923    7.692    0.923    0.000    2.462 
#    5.538    0.000    0.000    0.000    0.000    0.000 
#    0.000    0.000    0.000    0.000    0.000    0.000 
#
# Total GULP energy -217235.619573 kJ/mol
# GULP energy per Si atom -5570.144092 kJ/mol
# Density = 1.816337 g / cm^3
# Si number density = 18.204807 Si / 1000 Ang^3
#
#
#
# Elastic Constant Matrix: (Units=GPa)
#
#
# Indices 1 2 3 4 5 6 
#
# 1 79.7547 28.0605 54.2066 0.0000 0.0000 0.0000
# 2 28.0605 79.7547 54.2066 0.0000 0.0000 0.0000
# 3 54.2066 54.2066 111.3692 0.0000 0.0000 0.0000
# 4 0.0000 0.0000 0.0000 28.0650 0.0000 0.0000
# 5 0.0000 0.0000 0.0000 0.0000 28.0650 0.0000
# 6 0.0000 0.0000 0.0000 0.0000 0.0000 25.8471
#
#
#
# Elastic Compliance Matrix: (Units=1/GPa)
#
#
# Indices 1 2 3 4 5 6 
#
# 1 0.018755 -0.000589 -0.008842 0.000000 0.000000 0.000000
# 2 -0.000589 0.018755 -0.008842 0.000000 0.000000 0.000000
# 3 -0.008842 -0.008842 0.017586 0.000000 0.000000 0.000000
# 4 0.000000 0.000000 0.000000 0.035632 0.000000 0.000000
# 5 0.000000 0.000000 0.000000 0.000000 0.035632 0.000000
# 6 0.000000 0.000000 0.000000 0.000000 0.000000 0.038689
#
#
# Mechanical properties :
#
#
# Convention : Reuss Voigt Hill
#
# Bulk Modulus (GPa) = 53.90603 60.42513 57.16558
# Shear Modulus (GPa) = 24.06398 25.35574 24.70986
#
# Velocity S-wave (km/s) = 3.63967 3.73608 3.68819
# Velocity P-wave (km/s) = 6.88027 7.20243 7.04319
#
# Compressibility (1/GPa) = 0.01855080
#
# Stress axis : x y z
#
# Youngs Moduli (GPa) = 53.31811 53.31811 56.86181
#
# Poissons Ratio (x) = 0.03141 0.50277
# Poissons Ratio (y) = 0.03141 0.50277
# Poissons Ratio (z) = 0.47144 0.47144
#
# Static dielectric constant tensor:
#      x y z
#    x 1.675730 0.000000 0.000000 
#    y 0.000000 1.675730 0.000000 
#    z 0.000000 0.000000 1.642220 
# 
# From -- ./inp_files/2014.got.cif
#   From: 2010.05.17/outbox.cif.g08.bks.cpg/sg171_2_cif.got.tgz:2014.got - 2010.05.20 11:16:09.
