data_PCOD9580813
_publ_section_title
;
Structure prediction by ZEFSAII (Michael W. Deem and Ramdas Pophale) SiO2 
 PCOD9580813
Probable space group: P 62
;
_chemical_formula_sum "Si O2"
_cell_formula_units_Z 18
_cell_length_a 12.953558
_cell_length_b 12.953558
_cell_length_c 4.762479
_cell_angle_alpha 90.000000
_cell_angle_beta 90.000000
_cell_angle_gamma 120.000000
_cell_volume 692.056980
_symmetry_space_group_name_H-M "P 62"
_symmetry_group_IT_number 171
_symmetry_cell_setting 'hexagonal'
loop_
_space_group_symop_operation_xyz
x,y,z
x-y,x,1/3+z
-y,x-y,2/3+z
-x,-y,z
-x+y,-x,1/3+z
y,-x+y,2/3+z
loop_
_atom_site_type_symbol
_atom_site_label
_atom_site_fract_x
_atom_site_fract_y
_atom_site_fract_z
Si Si1 0.175475 0.763932 0.980750
Si Si2 0.417845 0.614245 0.968603
Si Si3 0.847525 0.757867 0.161134
O O1 0.312597 0.834815 0.859947
O O2 0.090871 0.758437 0.728030
O O3 0.131668 0.628247 0.088755
O O4 0.164292 0.838058 0.236307
O O5 0.431738 0.725491 0.794143
O O6 0.969034 0.820482 0.339498
#
# Coordination Sequence:
#
# PCOD9580813 Si02
#       3
#     6   6   6
#     4  11  22  44  81 117 160 210 260 322 399 494
#     4   9  18  38  77 111 161 214 239 292 401 474
#     4  12  28  52  81 114 154 210 283 352 400 454
#
# _framework density 26.009419999999999
#
# number of rings (size 3 to 8) (size 9 to 14) (size 15 to 20)
#    0.000    1.333    3.333    2.000    0.000    0.000 
#    0.000   13.333   29.333    0.000    0.000    0.000 
#    0.000    0.000    0.000    0.000    0.000    0.000 
#
# Total GULP energy -100333.497662 kJ/mol
# GULP energy per Si atom -5574.083203 kJ/mol
# Density = 2.595022 g / cm^3
# Si number density = 26.009420 Si / 1000 Ang^3
#
#
#
# Elastic Constant Matrix: (Units=GPa)
#
#
# Indices 1 2 3 4 5 6 
#
# 1 90.1220 69.1473 55.3499 0.0000 0.0000 0.0000
# 2 69.1473 90.1220 55.3499 0.0000 0.0000 0.0000
# 3 55.3499 55.3499 188.5973 0.0000 0.0000 0.0000
# 4 0.0000 0.0000 0.0000 63.7916 0.0000 0.0000
# 5 0.0000 0.0000 0.0000 0.0000 63.7916 0.0000
# 6 0.0000 0.0000 0.0000 0.0000 0.0000 10.4874
#
#
#
# Elastic Compliance Matrix: (Units=1/GPa)
#
#
# Indices 1 2 3 4 5 6 
#
# 1 0.027782 -0.019894 -0.002315 0.000000 0.000000 0.000000
# 2 -0.019894 0.027782 -0.002315 0.000000 0.000000 0.000000
# 3 -0.002315 -0.002315 0.006661 0.000000 0.000000 0.000000
# 4 0.000000 0.000000 0.000000 0.015676 0.000000 0.000000
# 5 0.000000 0.000000 0.000000 0.000000 0.015676 0.000000
# 6 0.000000 0.000000 0.000000 0.000000 0.000000 0.095353
#
#
# Mechanical properties :
#
#
# Convention : Reuss Voigt Hill
#
# Bulk Modulus (GPa) = 75.89098 80.94840 78.41969
# Shear Modulus (GPa) = 20.62955 40.21372 30.42164
#
# Velocity S-wave (km/s) = 2.81936 3.93634 3.42371
# Velocity P-wave (km/s) = 6.31189 7.20069 6.77089
#
# Compressibility (1/GPa) = 0.01317680
#
# Stress axis : x y z
#
# Youngs Moduli (GPa) = 35.99447 35.99447 150.12645
#
# Poissons Ratio (x) = 0.71609 0.34752
# Poissons Ratio (y) = 0.71609 0.34752
# Poissons Ratio (z) = 0.08332 0.08332
#
# Static dielectric constant tensor:
#      x y z
#    x 2.138930 0.000000 0.000000 
#    y 0.000000 2.138930 0.000000 
#    z 0.000000 0.000000 2.639720 
# 
# From -- ./inp_files/141.got.cif
#   From: 2010.05.17/outbox.cif.g08.bks.cpg/sg171_1_cif.got.tgz:141.got - 2010.05.20 11:16:09.
