data_PCOD9580939
_publ_section_title
;
Structure prediction by ZEFSAII (Michael W. Deem and Ramdas Pophale) SiO2 
 PCOD9580939
Probable space group: P 64
;
_chemical_formula_sum "Si O2"
_cell_formula_units_Z 42
_cell_length_a 14.145268
_cell_length_b 14.145268
_cell_length_c 11.912833
_cell_angle_alpha 90.000000
_cell_angle_beta 90.000000
_cell_angle_gamma 120.000000
_cell_volume 2064.277342
_symmetry_space_group_name_H-M "P 64"
_symmetry_group_IT_number 172
_symmetry_cell_setting 'hexagonal'
loop_
_space_group_symop_operation_xyz
x,y,z
x-y,x,2/3+z
-y,x-y,1/3+z
-x,-y,z
-x+y,-x,2/3+z
y,-x+y,1/3+z
loop_
_atom_site_type_symbol
_atom_site_label
_atom_site_fract_x
_atom_site_fract_y
_atom_site_fract_z
Si Si1 0.062225 0.434444 0.545830
Si Si2 0.724671 0.967275 0.380723
Si Si3 0.155461 0.731844 0.903957
Si Si4 0.604072 0.102238 0.963488
Si Si5 0.771303 0.050353 0.613753
Si Si6 0.729777 0.424108 0.686673
Si Si7 0.465147 0.653134 0.272496
O O1 0.057612 0.429489 0.411782
O O2 0.184989 0.507090 0.590140
O O3 0.000000 0.500000 0.580524
O O4 0.014392 0.318817 0.606641
O O5 0.610348 0.897152 0.447659
O O6 0.764189 0.882898 0.347081
O O7 0.794280 0.051374 0.479408
O O8 0.280569 0.826847 0.902377
O O9 0.142431 0.618648 0.946692
O O10 0.077260 0.765357 0.972084
O O11 0.500000 0.000000 0.906334
O O12 0.571514 0.191732 0.000714
O O13 0.699817 0.109130 0.633766
O O14 0.778800 0.465154 0.809115
O O15 0.702443 0.299680 0.675428
#
# Coordination Sequence:
#
# PCOD9580939 Si02
#       7
#     6   6   6   6   6   6   6
#     4  11  20  34  60  87 123 167 214 257 310 373
#     4  10  22  36  62  87 122 157 219 257 320 371
#     4   9  21  38  57  87 130 165 211 256 316 382
#     4  10  23  39  56  90 130 171 213 259 324 389
#     4  10  21  36  60  89 122 164 210 260 315 377
#     4  11  20  33  55  89 129 164 210 261 308 382
#     4  11  18  32  55  87 126 169 207 253 315 375
#
# _framework density 20.346102999999999
#
# number of rings (size 3 to 8) (size 9 to 14) (size 15 to 20)
#    0.857    0.857    2.857    3.000    2.000    0.000 
#    2.571    0.000    0.000    0.000    0.000    8.000 
#    0.000    0.000    0.000    0.000    0.000    0.000 
#
# Total GULP energy -234232.064820 kJ/mol
# GULP energy per Si atom -5576.953924 kJ/mol
# Density = 2.029979 g / cm^3
# Si number density = 20.346103 Si / 1000 Ang^3
#
#
#
# Elastic Constant Matrix: (Units=GPa)
#
#
# Indices 1 2 3 4 5 6 
#
# 1 64.4093 19.2275 6.1560 0.0000 0.0000 0.0000
# 2 19.2275 64.4093 6.1560 0.0000 0.0000 0.0000
# 3 6.1560 6.1560 34.2532 0.0000 0.0000 0.0000
# 4 0.0000 0.0000 0.0000 23.0818 0.0000 0.0000
# 5 0.0000 0.0000 0.0000 0.0000 23.0818 0.0000
# 6 0.0000 0.0000 0.0000 0.0000 0.0000 22.5909
#
#
#
# Elastic Compliance Matrix: (Units=1/GPa)
#
#
# Indices 1 2 3 4 5 6 
#
# 1 0.017207 -0.004926 -0.002207 0.000000 0.000000 0.000000
# 2 -0.004926 0.017207 -0.002207 0.000000 0.000000 0.000000
# 3 -0.002207 -0.002207 0.029988 0.000000 0.000000 0.000000
# 4 0.000000 0.000000 0.000000 0.043324 0.000000 0.000000
# 5 0.000000 0.000000 0.000000 0.000000 0.043324 0.000000
# 6 0.000000 0.000000 0.000000 0.000000 0.000000 0.044266
#
#
# Mechanical properties :
#
#
# Convention : Reuss Voigt Hill
#
# Bulk Modulus (GPa) = 21.87151 25.12788 23.49969
# Shear Modulus (GPa) = 21.81152 22.51972 22.16562
#
# Velocity S-wave (km/s) = 3.27773 3.33052 3.30423
# Velocity P-wave (km/s) = 5.00977 5.21218 5.11198
#
# Compressibility (1/GPa) = 0.04572159
#
# Stress axis : x y z
#
# Youngs Moduli (GPa) = 58.11552 58.11552 33.34698
#
# Poissons Ratio (x) = 0.28626 0.07360
# Poissons Ratio (y) = 0.28626 0.07360
# Poissons Ratio (z) = 0.12827 0.12827
#
# Static dielectric constant tensor:
#      x y z
#    x 1.733210 0.000000 0.000000 
#    y 0.000000 1.733210 0.000000 
#    z 0.000000 0.000000 1.766370 
# 
# From -- ./inp_files/1103.got.cif
#   From: 2010.05.17/outbox.cif.g08.bks.cpg/sg172_1_cif.got.tgz:1103.got - 2010.05.20 11:19:57.
