data_PCOD9580199
_publ_section_title
;
Structure prediction by ZEFSAII (Michael W. Deem and Ramdas Pophale) SiO2 
 PCOD9580199
Probable space group: P 65
;
_chemical_formula_sum "Si O2"
_cell_formula_units_Z 48
_cell_length_a 14.076320
_cell_length_b 14.076320
_cell_length_c 14.448155
_cell_angle_alpha 90.000000
_cell_angle_beta 90.000000
_cell_angle_gamma 120.000000
_cell_volume 2479.255505
_symmetry_space_group_name_H-M "P 65"
_symmetry_group_IT_number 170
_symmetry_cell_setting 'hexagonal'
loop_
_space_group_symop_operation_xyz
x,y,z
x-y,x,5/6+z
-y,x-y,2/3+z
-x,-y,1/2+z
-x+y,-x,1/3+z
y,-x+y,1/6+z
loop_
_atom_site_type_symbol
_atom_site_label
_atom_site_fract_x
_atom_site_fract_y
_atom_site_fract_z
Si Si1 0.555644 0.105104 0.830260
Si Si2 0.853311 0.004542 0.253460
Si Si3 0.221910 0.500468 0.845982
Si Si4 0.599167 0.461871 0.866663
Si Si5 0.491785 0.361290 0.699412
Si Si6 0.532312 0.414318 0.374275
Si Si7 0.831158 0.605253 0.852328
Si Si8 0.623952 0.820763 0.334256
O O1 0.650117 0.136608 0.757230
O O2 0.474050 0.153468 0.808034
O O3 0.470551 0.977262 0.836407
O O4 0.607655 0.139916 0.931520
O O5 0.878043 0.944092 0.168137
O O6 0.742016 0.917251 0.306318
O O7 0.819701 0.087903 0.206226
O O8 0.212694 0.587671 0.777374
O O9 0.338876 0.539144 0.893951
O O10 0.190640 0.399599 0.775771
O O11 0.592891 0.402214 0.768921
O O12 0.503931 0.492788 0.883626
O O13 0.706840 0.578570 0.854136
O O14 0.467129 0.293647 0.607450
O O15 0.396132 0.282465 0.771417
O O16 0.448463 0.309697 0.434064
#
# Coordination Sequence:
#
# PCOD9580199 Si02
#       8
#     6   6   6   6   6   6   6   6
#     4  10  19  37  55  87 131 170 210 266 320 397
#     4  12  25  45  77 103 125 171 236 300 347 398
#     4  10  22  36  63  85 135 179 216 265 333 397
#     4  10  23  38  57  91 134 169 218 270 324 404
#     4  10  20  35  60  90 126 169 214 269 318 393
#     4  10  24  35  54  93 132 166 219 267 324 405
#     4  12  22  36  66  95 130 174 217 272 336 403
#     4  10  19  38  64  96 125 168 228 273 324 393
#
# _framework density 19.360652000000002
#
# number of rings (size 3 to 8) (size 9 to 14) (size 15 to 20)
#    0.000    1.500    2.500    2.250    7.000    0.000 
#    0.000    0.000    8.250    0.000    0.000    0.000 
#    0.000    0.000    0.000    0.000    0.000    0.000 
#
# Total GULP energy -267268.282621 kJ/mol
# GULP energy per Si atom -5568.089221 kJ/mol
# Density = 1.931659 g / cm^3
# Si number density = 19.360652 Si / 1000 Ang^3
#
#
#
# Elastic Constant Matrix: (Units=GPa)
#
#
# Indices 1 2 3 4 5 6 
#
# 1 77.0751 33.9625 29.4714 0.0000 0.0000 0.0000
# 2 33.9625 77.0751 29.4714 0.0000 0.0000 0.0000
# 3 29.4714 29.4714 79.2077 0.0000 0.0000 0.0000
# 4 0.0000 0.0000 0.0000 6.8623 0.0000 0.0000
# 5 0.0000 0.0000 0.0000 0.0000 6.8623 0.0000
# 6 0.0000 0.0000 0.0000 0.0000 0.0000 21.5563
#
#
#
# Elastic Compliance Matrix: (Units=1/GPa)
#
#
# Indices 1 2 3 4 5 6 
#
# 1 0.017209 -0.005986 -0.004176 0.000000 0.000000 0.000000
# 2 -0.005986 0.017209 -0.004176 0.000000 0.000000 0.000000
# 3 -0.004176 -0.004176 0.015732 0.000000 0.000000 0.000000
# 4 0.000000 0.000000 0.000000 0.145723 0.000000 0.000000
# 5 0.000000 0.000000 0.000000 0.000000 0.145723 0.000000
# 6 0.000000 0.000000 0.000000 0.000000 0.000000 0.046390
#
#
# Mechanical properties :
#
#
# Convention : Reuss Voigt Hill
#
# Bulk Modulus (GPa) = 46.56610 46.57426 46.57018
# Shear Modulus (GPa) = 11.79748 16.41972 14.10860
#
# Velocity S-wave (km/s) = 2.47119 2.91537 2.70242
# Velocity P-wave (km/s) = 5.67860 5.95322 5.81753
#
# Compressibility (1/GPa) = 0.02147485
#
# Stress axis : x y z
#
# Youngs Moduli (GPa) = 58.10984 58.10984 63.56326
#
# Poissons Ratio (x) = 0.34786 0.26542
# Poissons Ratio (y) = 0.34786 0.26542
# Poissons Ratio (z) = 0.24265 0.24265
#
# Static dielectric constant tensor:
#      x y z
#    x 1.751270 0.000000 0.000000 
#    y 0.000000 1.751270 0.000000 
#    z 0.000000 0.000000 1.742860 
# 
# From -- ./inp_files/1295.got.cif
#   From: 2010.05.17/outbox.cif.g08.bks.cpg/sg170_cif.got.tgz:1295.got - 2010.05.20 11:14:30.
