data_PCOD9580480
_publ_section_title
;
Structure prediction by ZEFSAII (Michael W. Deem and Ramdas Pophale) SiO2 
 PCOD9580480
Probable space group: P 62
;
_chemical_formula_sum "Si O2"
_cell_formula_units_Z 42
_cell_length_a 11.675758
_cell_length_b 11.675758
_cell_length_c 15.673116
_cell_angle_alpha 90.000000
_cell_angle_beta 90.000000
_cell_angle_gamma 120.000000
_cell_volume 1850.359650
_symmetry_space_group_name_H-M "P 62"
_symmetry_group_IT_number 171
_symmetry_cell_setting 'hexagonal'
loop_
_space_group_symop_operation_xyz
x,y,z
x-y,x,1/3+z
-y,x-y,2/3+z
-x,-y,z
-x+y,-x,1/3+z
y,-x+y,2/3+z
loop_
_atom_site_type_symbol
_atom_site_label
_atom_site_fract_x
_atom_site_fract_y
_atom_site_fract_z
Si Si1 0.327111 0.106192 0.976020
Si Si2 0.847947 0.815057 0.892015
Si Si3 0.008519 0.230506 0.039259
Si Si4 0.524997 0.747495 0.806776
Si Si5 0.442291 0.276479 0.387479
Si Si6 0.679427 0.516166 0.875851
Si Si7 0.572742 0.320278 0.034154
O O1 0.188932 0.091852 0.947294
O O2 0.407412 0.160510 0.887992
O O3 0.415505 0.231970 0.036170
O O4 0.320089 0.979047 0.018955
O O5 0.865967 0.841954 0.790100
O O6 0.716330 0.666567 0.892578
O O7 0.957412 0.806950 0.948290
O O8 0.139602 0.362444 0.070917
O O9 0.879749 0.246460 0.030992
O O10 0.444700 0.588367 0.819547
O O11 0.406496 0.773164 0.783797
O O12 0.460440 0.270152 0.490190
O O13 0.590311 0.366519 0.354636
O O14 0.637323 0.431217 0.961338
#
# Coordination Sequence:
#
# PCOD9580480 Si02
#       7
#     6   6   6   6   6   6   6
#     4  10  22  39  60  91 131 166 202 263 326 391
#     4  10  21  41  65  93 124 168 226 274 323 391
#     4  10  21  41  65  93 124 168 226 274 323 391
#     4   9  19  38  65  93 122 164 216 268 319 384
#     4  10  22  39  60  91 131 166 202 263 326 391
#     4   9  19  38  65  93 122 164 216 268 319 384
#     4  10  19  38  66  92 125 164 214 258 322 386
#
# _framework density 22.698291999999999
#
# number of rings (size 3 to 8) (size 9 to 14) (size 15 to 20)
#    0.000    2.286    1.429    0.429    0.000   13.714 
#    0.000   35.714    0.000    0.000    0.000    0.000 
#    0.000    0.000    0.000    0.000    0.000    0.000 
#
# Total GULP energy -233872.791058 kJ/mol
# GULP energy per Si atom -5568.399787 kJ/mol
# Density = 2.264663 g / cm^3
# Si number density = 22.698292 Si / 1000 Ang^3
#
#
#
# Elastic Constant Matrix: (Units=GPa)
#
#
# Indices 1 2 3 4 5 6 
#
# 1 52.9441 -3.2813 12.7825 0.0000 0.0000 0.0000
# 2 -3.2813 52.9441 12.7825 0.0000 0.0000 0.0000
# 3 12.7825 12.7825 38.9979 0.0000 0.0000 0.0000
# 4 0.0000 0.0000 0.0000 30.2906 0.0000 0.0000
# 5 0.0000 0.0000 0.0000 0.0000 30.2906 0.0000
# 6 0.0000 0.0000 0.0000 0.0000 0.0000 28.1127
#
#
#
# Elastic Compliance Matrix: (Units=1/GPa)
#
#
# Indices 1 2 3 4 5 6 
#
# 1 0.021004 0.003219 -0.007940 0.000000 0.000000 0.000000
# 2 0.003219 0.021004 -0.007940 0.000000 0.000000 0.000000
# 3 -0.007940 -0.007940 0.030847 0.000000 0.000000 0.000000
# 4 0.000000 0.000000 0.000000 0.033014 0.000000 0.000000
# 5 0.000000 0.000000 0.000000 0.000000 0.033014 0.000000
# 6 0.000000 0.000000 0.000000 0.000000 0.000000 0.035571
#
#
# Mechanical properties :
#
#
# Convention : Reuss Voigt Hill
#
# Bulk Modulus (GPa) = 21.03738 21.05040 21.04389
# Shear Modulus (GPa) = 23.18895 25.91228 24.55061
#
# Velocity S-wave (km/s) = 3.19974 3.38242 3.29235
# Velocity P-wave (km/s) = 4.78952 4.95464 4.87278
#
# Compressibility (1/GPa) = 0.04753444
#
# Stress axis : x y z
#
# Youngs Moduli (GPa) = 47.60945 47.60945 32.41778
#
# Poissons Ratio (x) = -0.15324 0.25739
# Poissons Ratio (y) = -0.15324 0.25739
# Poissons Ratio (z) = 0.37800 0.37800
#
# Static dielectric constant tensor:
#      x y z
#    x 1.900030 0.000000 0.000000 
#    y 0.000000 1.900030 0.000000 
#    z 0.000000 0.000000 1.921620 
# 
# From -- ./inp_files/4987.got.cif
#   From: 2010.05.17/outbox.cif.g08.bks.cpg/sg171_3_cif.got.tgz:4987.got - 2010.05.20 11:16:09.
