data_PCOD9580675
_publ_section_title
;
Structure prediction by ZEFSAII (Michael W. Deem and Ramdas Pophale) SiO2 
 PCOD9580675
Probable space group: P 62
;
_chemical_formula_sum "Si O2"
_cell_formula_units_Z 30
_cell_length_a 12.415993
_cell_length_b 12.415993
_cell_length_c 7.899037
_cell_angle_alpha 90.000000
_cell_angle_beta 90.000000
_cell_angle_gamma 120.000000
_cell_volume 1054.551267
_symmetry_space_group_name_H-M "P 62"
_symmetry_group_IT_number 171
_symmetry_cell_setting 'hexagonal'
loop_
_space_group_symop_operation_xyz
x,y,z
x-y,x,1/3+z
-y,x-y,2/3+z
-x,-y,z
-x+y,-x,1/3+z
y,-x+y,2/3+z
loop_
_atom_site_type_symbol
_atom_site_label
_atom_site_fract_x
_atom_site_fract_y
_atom_site_fract_z
Si Si1 0.278303 0.402943 0.288730
Si Si2 0.798718 0.454561 0.490656
Si Si3 0.921407 0.839743 0.136459
Si Si4 0.346161 0.016469 0.333649
Si Si5 0.500148 0.262790 0.506306
O O1 0.186525 0.456992 0.337711
O O2 0.209316 0.276512 0.189845
O O3 0.321672 0.393528 0.478549
O O4 0.380103 0.508784 0.169063
O O5 0.648999 0.298884 0.180082
O O6 0.835470 0.533567 0.661126
O O7 0.981775 0.891042 0.321464
O O8 0.007294 0.791603 0.048842
O O9 0.444212 0.115784 0.468410
O O10 0.307304 0.871529 0.311124
#
# Coordination Sequence:
#
# PCOD9580675 Si02
#       5
#     6   6   6   6   6
#     4  10  25  47  78 113 168 207 284 347 425 516
#     4   9  22  45  72 118 167 216 272 345 426 531
#     4  12  29  53  83 117 163 221 298 373 446 520
#     4  11  24  47  76 110 155 215 270 350 424 515
#     4  10  22  42  74 111 159 212 278 338 428 507
#
# _framework density 28.448118000000001
#
# number of rings (size 3 to 8) (size 9 to 14) (size 15 to 20)
#    0.000    1.600    2.000    0.000   11.200    7.200 
#    0.000    7.000    0.000    0.000    0.000    0.000 
#    0.000    0.000    0.000    0.000    0.000    0.000 
#
# Total GULP energy -167768.105158 kJ/mol
# GULP energy per Si atom -5592.270172 kJ/mol
# Density = 2.838337 g / cm^3
# Si number density = 28.448118 Si / 1000 Ang^3
#
#
#
# Elastic Constant Matrix: (Units=GPa)
#
#
# Indices 1 2 3 4 5 6 
#
# 1 130.2328 47.6116 57.8292 0.0000 0.0000 0.0000
# 2 47.6116 130.2328 57.8292 0.0000 0.0000 0.0000
# 3 57.8292 57.8292 209.7416 0.0000 0.0000 0.0000
# 4 0.0000 0.0000 0.0000 40.4514 0.0000 0.0000
# 5 0.0000 0.0000 0.0000 0.0000 40.4514 0.0000
# 6 0.0000 0.0000 0.0000 0.0000 0.0000 41.3106
#
#
#
# Elastic Compliance Matrix: (Units=1/GPa)
#
#
# Indices 1 2 3 4 5 6 
#
# 1 0.009477 -0.002626 -0.001889 0.000000 0.000000 0.000000
# 2 -0.002626 0.009477 -0.001889 0.000000 0.000000 0.000000
# 3 -0.001889 -0.001889 0.005809 0.000000 0.000000 0.000000
# 4 0.000000 0.000000 0.000000 0.024721 0.000000 0.000000
# 5 0.000000 0.000000 0.000000 0.000000 0.024721 0.000000
# 6 0.000000 0.000000 0.000000 0.000000 0.000000 0.024207
#
#
# Mechanical properties :
#
#
# Convention : Reuss Voigt Hill
#
# Bulk Modulus (GPa) = 83.63944 88.52745 86.08345
# Shear Modulus (GPa) = 43.40021 44.90515 44.15268
#
# Velocity S-wave (km/s) = 3.91012 3.97734 3.94387
# Velocity P-wave (km/s) = 7.06045 7.23040 7.14593
#
# Compressibility (1/GPa) = 0.01195608
#
# Stress axis : x y z
#
# Youngs Moduli (GPa) = 105.51397 105.51397 172.13328
#
# Poissons Ratio (x) = 0.27708 0.32517
# Poissons Ratio (y) = 0.27708 0.32517
# Poissons Ratio (z) = 0.19932 0.19932
#
# Static dielectric constant tensor:
#      x y z
#    x 2.322910 0.000000 0.000000 
#    y 0.000000 2.322910 0.000000 
#    z 0.000000 0.000000 2.221570 
# 
# From -- ./inp_files/619.got.cif
#   From: 2010.05.17/outbox.cif.g08.bks.cpg/sg171_1_cif.got.tgz:619.got - 2010.05.20 11:16:09.
