data_PCOD9580103
_publ_section_title
;
Structure prediction by ZEFSAII (Michael W. Deem and Ramdas Pophale) SiO2 
 PCOD9580103
Probable space group: P 61
;
_chemical_formula_sum "Si O2"
_cell_formula_units_Z 36
_cell_length_a 15.248346
_cell_length_b 15.248346
_cell_length_c 8.922994
_cell_angle_alpha 90.000000
_cell_angle_beta 90.000000
_cell_angle_gamma 120.000000
_cell_volume 1796.746091
_symmetry_space_group_name_H-M "P 61"
_symmetry_group_IT_number 169
_symmetry_cell_setting 'hexagonal'
loop_
_space_group_symop_operation_xyz
x,y,z
x-y,x,1/6+z
-y,x-y,1/3+z
-x,-y,1/2+z
-x+y,-x,2/3+z
y,-x+y,5/6+z
loop_
_atom_site_type_symbol
_atom_site_label
_atom_site_fract_x
_atom_site_fract_y
_atom_site_fract_z
Si Si1 0.758969 0.694188 0.683130
Si Si2 0.312754 0.470160 0.920776
Si Si3 0.054717 0.192909 0.991522
Si Si4 0.976855 0.317036 0.835229
Si Si5 0.501383 0.666852 0.035716
Si Si6 0.364351 0.195251 0.293681
O O1 0.722238 0.624588 0.534409
O O2 0.872422 0.779187 0.635391
O O3 0.696603 0.747169 0.744163
O O4 0.768233 0.626693 0.812470
O O5 0.352051 0.436119 0.775927
O O6 0.230004 0.492788 0.842364
O O7 0.395441 0.567342 0.009184
O O8 0.944270 0.105177 0.030894
O O9 0.045062 0.287321 0.936642
O O10 0.898093 0.214027 0.746936
O O11 0.050836 0.408095 0.729344
O O12 0.533126 0.728436 0.879253
#
# Coordination Sequence:
#
# PCOD9580103 Si02
#       6
#     6   6   6   6   6   6
#     4  12  22  41  66 100 137 181 228 280 340 412
#     4  11  26  45  72 100 136 182 229 292 361 409
#     4  12  23  38  63  95 139 185 221 272 335 406
#     4  11  22  46  66  95 144 183 224 285 346 417
#     4  11  25  46  69 102 135 181 231 292 356 417
#     4  11  24  40  68  98 137 180 229 277 338 421
#
# _framework density 20.036218999999999
#
# number of rings (size 3 to 8) (size 9 to 14) (size 15 to 20)
#    0.000    0.667    6.667    1.000    2.333    2.667 
#    0.000    3.333    0.000    0.000    0.000    0.000 
#    0.000    0.000    0.000    0.000    0.000    0.000 
#
# Total GULP energy -200682.503069 kJ/mol
# GULP energy per Si atom -5574.513974 kJ/mol
# Density = 1.999062 g / cm^3
# Si number density = 20.036219 Si / 1000 Ang^3
#
#
#
# Elastic Constant Matrix: (Units=GPa)
#
#
# Indices 1 2 3 4 5 6 
#
# 1 81.3527 42.2692 25.4583 0.0000 0.0000 0.0000
# 2 42.2692 81.3527 25.4583 0.0000 0.0000 0.0000
# 3 25.4583 25.4583 90.1909 0.0000 0.0000 0.0000
# 4 0.0000 0.0000 0.0000 35.4240 0.0000 0.0000
# 5 0.0000 0.0000 0.0000 0.0000 35.4240 0.0000
# 6 0.0000 0.0000 0.0000 0.0000 0.0000 19.5418
#
#
#
# Elastic Compliance Matrix: (Units=1/GPa)
#
#
# Indices 1 2 3 4 5 6 
#
# 1 0.017370 -0.008216 -0.002584 0.000000 0.000000 0.000000
# 2 -0.008216 0.017370 -0.002584 0.000000 0.000000 0.000000
# 3 -0.002584 -0.002584 0.012546 0.000000 0.000000 0.000000
# 4 0.000000 0.000000 0.000000 0.028229 0.000000 0.000000
# 5 0.000000 0.000000 0.000000 0.000000 0.028229 0.000000
# 6 0.000000 0.000000 0.000000 0.000000 0.000000 0.051172
#
#
# Mechanical properties :
#
#
# Convention : Reuss Voigt Hill
#
# Bulk Modulus (GPa) = 48.73766 48.80753 48.77259
# Shear Modulus (GPa) = 26.52179 28.72534 27.62356
#
# Velocity S-wave (km/s) = 3.64221 3.79049 3.71709
# Velocity P-wave (km/s) = 6.48576 6.60073 6.54350
#
# Compressibility (1/GPa) = 0.02051801
#
# Stress axis : x y z
#
# Youngs Moduli (GPa) = 57.57120 57.57120 79.70533
#
# Poissons Ratio (x) = 0.47303 0.20594
# Poissons Ratio (y) = 0.47303 0.20594
# Poissons Ratio (z) = 0.14875 0.14875
#
# Static dielectric constant tensor:
#      x y z
#    x 1.705910 0.000000 0.000000 
#    y 0.000000 1.705910 0.000000 
#    z 0.000000 0.000000 1.730320 
# 
# From -- ./inp_files/595.got.cif
#   From: 2010.05.17/outbox.cif.g08.bks.cpg/sg169_cif.got.tgz:595.got - 2010.05.20 11:12:54.
