data_PCOD9580196
_publ_section_title
;
Structure prediction by ZEFSAII (Michael W. Deem and Ramdas Pophale) SiO2 
 PCOD9580196
Probable space group: P 65
;
_chemical_formula_sum "Si O2"
_cell_formula_units_Z 48
_cell_length_a 17.507705
_cell_length_b 17.507705
_cell_length_c 7.652286
_cell_angle_alpha 90.000000
_cell_angle_beta 90.000000
_cell_angle_gamma 120.000000
_cell_volume 2031.328984
_symmetry_space_group_name_H-M "P 65"
_symmetry_group_IT_number 170
_symmetry_cell_setting 'hexagonal'
loop_
_space_group_symop_operation_xyz
x,y,z
x-y,x,5/6+z
-y,x-y,2/3+z
-x,-y,1/2+z
-x+y,-x,1/3+z
y,-x+y,1/6+z
loop_
_atom_site_type_symbol
_atom_site_label
_atom_site_fract_x
_atom_site_fract_y
_atom_site_fract_z
Si Si1 0.202585 0.356423 0.608970
Si Si2 0.311419 0.227568 0.315299
Si Si3 0.609900 0.342212 0.094381
Si Si4 0.091931 0.734422 0.541439
Si Si5 0.158215 0.617479 0.409326
Si Si6 0.606381 0.505637 0.199458
Si Si7 0.569038 0.663065 0.130245
Si Si8 0.829973 0.983993 0.257952
O O1 0.229047 0.350433 0.405946
O O2 0.287565 0.437567 0.689625
O O3 0.122468 0.376362 0.593811
O O4 0.188291 0.264619 0.683749
O O5 0.336352 0.155283 0.257876
O O6 0.295384 0.286072 0.177163
O O7 0.389249 0.295873 0.442534
O O8 0.222234 0.183114 0.434023
O O9 0.690782 0.373651 0.234723
O O10 0.546093 0.249673 0.190051
O O11 0.580618 0.415983 0.093979
O O12 0.108035 0.652826 0.527222
O O13 0.104150 0.580676 0.230785
O O14 0.164908 0.534434 0.475472
O O15 0.576658 0.575980 0.153064
O O16 0.851870 0.910100 0.197141
#
# Coordination Sequence:
#
# PCOD9580196 Si02
#       8
#     6   6   6   6   6   6   6   6
#     4  10  20  41  70  88 126 176 221 263 334 400
#     4  10  19  36  68  90 119 170 218 267 321 399
#     4  10  24  42  64  93 134 178 222 287 348 409
#     4  10  21  38  64  93 123 171 215 275 330 395
#     4  11  27  39  59  96 133 167 222 285 337 396
#     4  11  23  42  62  97 125 167 225 270 340 402
#     4  11  22  40  66  93 122 172 226 270 317 409
#     4  11  18  36  69 100 124 161 221 273 321 402
#
# _framework density 23.629850999999999
#
# number of rings (size 3 to 8) (size 9 to 14) (size 15 to 20)
#    0.000    1.500    6.250    0.750   10.500    0.000 
#    6.750    0.000    5.500    0.000    0.000    0.000 
#    0.000    0.000    0.000    0.000    0.000    0.000 
#
# Total GULP energy -268017.812182 kJ/mol
# GULP energy per Si atom -5583.704420 kJ/mol
# Density = 2.357607 g / cm^3
# Si number density = 23.629851 Si / 1000 Ang^3
#
#
#
# Elastic Constant Matrix: (Units=GPa)
#
#
# Indices 1 2 3 4 5 6 
#
# 1 114.2807 37.0695 8.9358 0.0000 0.0000 0.0000
# 2 37.0695 114.2807 8.9358 0.0000 0.0000 0.0000
# 3 8.9358 8.9358 34.0280 0.0000 0.0000 0.0000
# 4 0.0000 0.0000 0.0000 17.6631 0.0000 0.0000
# 5 0.0000 0.0000 0.0000 0.0000 17.6631 0.0000
# 6 0.0000 0.0000 0.0000 0.0000 0.0000 38.6056
#
#
#
# Elastic Compliance Matrix: (Units=1/GPa)
#
#
# Indices 1 2 3 4 5 6 
#
# 1 0.009885 -0.003066 -0.001791 0.000000 0.000000 0.000000
# 2 -0.003066 0.009885 -0.001791 0.000000 0.000000 0.000000
# 3 -0.001791 -0.001791 0.030328 0.000000 0.000000 0.000000
# 4 0.000000 0.000000 0.000000 0.056615 0.000000 0.000000
# 5 0.000000 0.000000 0.000000 0.000000 0.056615 0.000000
# 6 0.000000 0.000000 0.000000 0.000000 0.000000 0.025903
#
#
# Mechanical properties :
#
#
# Convention : Reuss Voigt Hill
#
# Bulk Modulus (GPa) = 27.17175 41.38573 34.27874
# Shear Modulus (GPa) = 23.27806 28.62956 25.95381
#
# Velocity S-wave (km/s) = 3.14205 3.48456 3.31773
# Velocity P-wave (km/s) = 4.96862 5.80876 5.40504
#
# Compressibility (1/GPa) = 0.03680293
#
# Stress axis : x y z
#
# Youngs Moduli (GPa) = 101.16276 101.16276 32.97286
#
# Poissons Ratio (x) = 0.31021 0.05904
# Poissons Ratio (y) = 0.31021 0.05904
# Poissons Ratio (z) = 0.18114 0.18114
#
# Static dielectric constant tensor:
#      x y z
#    x 1.928330 0.000000 0.000000 
#    y 0.000000 1.928330 0.000000 
#    z 0.000000 0.000000 1.938110 
# 
# From -- ./inp_files/768.got.cif
#   From: 2010.05.17/outbox.cif.g08.bks.cpg/sg170_cif.got.tgz:768.got - 2010.05.20 11:14:30.
