data_PCOD9580857
_publ_section_title
;
Structure prediction by ZEFSAII (Michael W. Deem and Ramdas Pophale) SiO2 
 PCOD9580857
Probable space group: P 62
;
_chemical_formula_sum "Si O2"
_cell_formula_units_Z 15
_cell_length_a 10.126147
_cell_length_b 10.126147
_cell_length_c 6.446220
_cell_angle_alpha 90.000000
_cell_angle_beta 90.000000
_cell_angle_gamma 120.000000
_cell_volume 572.432404
_symmetry_space_group_name_H-M "P 62"
_symmetry_group_IT_number 171
_symmetry_cell_setting 'hexagonal'
loop_
_space_group_symop_operation_xyz
x,y,z
x-y,x,1/3+z
-y,x-y,2/3+z
-x,-y,z
-x+y,-x,1/3+z
y,-x+y,2/3+z
loop_
_atom_site_type_symbol
_atom_site_label
_atom_site_fract_x
_atom_site_fract_y
_atom_site_fract_z
Si Si1 0.500000 0.000000 0.103791
Si Si2 0.241048 0.195368 0.634444
Si Si3 0.230316 0.692518 0.448520
O O1 0.368691 0.010112 0.227802
O O2 0.421002 0.860029 0.947101
O O3 0.187831 0.080762 0.440289
O O4 0.357260 0.160919 0.765968
O O5 0.222243 0.617203 0.226910
#
# Coordination Sequence:
#
# PCOD9580857 Si02
#       3
#     3   6   6
#     4  12  24  48  78 118 164 222 274 344 414 500
#     4  12  27  51  82 121 167 223 282 348 424 505
#     4  12  23  46  79 119 159 209 277 341 413 497
#
# _framework density 26.203969000000001
#
# number of rings (size 3 to 8) (size 9 to 14) (size 15 to 20)
#    0.000    0.000    4.000    7.200    0.000    0.000 
#    0.000   10.000    0.000    0.000    0.000    0.000 
#    0.000    0.000    0.000    0.000    0.000    0.000 
#
# Total GULP energy -84063.744586 kJ/mol
# GULP energy per Si atom -5604.249639 kJ/mol
# Density = 2.614433 g / cm^3
# Si number density = 26.203969 Si / 1000 Ang^3
#
#
#
# Elastic Constant Matrix: (Units=GPa)
#
#
# Indices 1 2 3 4 5 6 
#
# 1 129.3355 51.5627 85.9715 0.0000 0.0000 0.0000
# 2 51.5627 129.3355 85.9715 0.0000 0.0000 0.0000
# 3 85.9715 85.9715 149.1569 0.0000 0.0000 0.0000
# 4 0.0000 0.0000 0.0000 75.5294 0.0000 0.0000
# 5 0.0000 0.0000 0.0000 0.0000 75.5294 0.0000
# 6 0.0000 0.0000 0.0000 0.0000 0.0000 38.8864
#
#
#
# Elastic Compliance Matrix: (Units=1/GPa)
#
#
# Indices 1 2 3 4 5 6 
#
# 1 0.012542 -0.000316 -0.007047 0.000000 0.000000 0.000000
# 2 -0.000316 0.012542 -0.007047 0.000000 0.000000 0.000000
# 3 -0.007047 -0.007047 0.014828 0.000000 0.000000 0.000000
# 4 0.000000 0.000000 0.000000 0.013240 0.000000 0.000000
# 5 0.000000 0.000000 0.000000 0.000000 0.013240 0.000000
# 6 0.000000 0.000000 0.000000 0.000000 0.000000 0.025716
#
#
# Mechanical properties :
#
#
# Convention : Reuss Voigt Hill
#
# Bulk Modulus (GPa) = 90.15282 94.98218 92.56750
# Shear Modulus (GPa) = 40.12064 50.27718 45.19891
#
# Velocity S-wave (km/s) = 3.91716 4.38503 4.15768
# Velocity P-wave (km/s) = 7.41200 7.87172 7.64532
#
# Compressibility (1/GPa) = 0.01109228
#
# Stress axis : x y z
#
# Youngs Moduli (GPa) = 79.73232 79.73232 67.44130
#
# Poissons Ratio (x) = 0.02520 0.47525
# Poissons Ratio (y) = 0.02520 0.47525
# Poissons Ratio (z) = 0.56186 0.56186
#
# Static dielectric constant tensor:
#      x y z
#    x 2.122810 0.000000 0.000000 
#    y 0.000000 2.122810 0.000000 
#    z 0.000000 0.000000 2.034940 
# 
# From -- ./inp_files/89.got.cif
#   From: 2010.05.17/outbox.cif.g08.bks.cpg/sg171_1_cif.got.tgz:89.got - 2010.05.20 11:16:09.
