data_PCOD9580831
_publ_section_title
;
Structure prediction by ZEFSAII (Michael W. Deem and Ramdas Pophale) SiO2 
 PCOD9580831
Probable space group: P 62
;
_chemical_formula_sum "Si O2"
_cell_formula_units_Z 39
_cell_length_a 19.686399
_cell_length_b 19.686399
_cell_length_c 5.217215
_cell_angle_alpha 90.000000
_cell_angle_beta 90.000000
_cell_angle_gamma 120.000000
_cell_volume 1751.063647
_symmetry_space_group_name_H-M "P 62"
_symmetry_group_IT_number 171
_symmetry_cell_setting 'hexagonal'
loop_
_space_group_symop_operation_xyz
x,y,z
x-y,x,1/3+z
-y,x-y,2/3+z
-x,-y,z
-x+y,-x,1/3+z
y,-x+y,2/3+z
loop_
_atom_site_type_symbol
_atom_site_label
_atom_site_fract_x
_atom_site_fract_y
_atom_site_fract_z
Si Si1 0.281318 0.524595 0.626270
Si Si2 0.019527 0.774857 0.881071
Si Si3 0.455629 0.659734 0.777516
Si Si4 0.189053 0.919371 0.739277
Si Si5 0.058898 0.416612 0.396570
Si Si6 0.411339 0.070409 0.357084
Si Si7 0.500000 0.500000 0.428342
O O1 0.366193 0.591864 0.730958
O O2 0.258217 0.541728 0.345745
O O3 0.283190 0.444401 0.648422
O O4 0.221038 0.519337 0.838516
O O5 0.108593 0.841758 0.816980
O O6 0.022365 0.694195 0.884069
O O7 0.975398 0.779479 0.635667
O O8 0.968115 0.766931 0.138227
O O9 0.520031 0.636153 0.855346
O O10 0.264828 0.907216 0.763577
O O11 0.051752 0.472671 0.602191
O O12 0.968583 0.360222 0.303978
O O13 0.477892 0.054568 0.254211
#
# Coordination Sequence:
#
# PCOD9580831 Si02
#       7
#     6   6   6   6   6   6   3
#     4  12  27  45  65  92 129 177 229 282 342 407
#     4  11  24  46  74 110 148 190 239 300 370 442
#     4  12  27  45  65  92 129 177 229 282 342 407
#     4  11  24  46  74 110 148 190 239 300 370 442
#     4  11  26  42  69  97 138 183 236 294 356 419
#     4  11  26  42  69  97 138 183 236 294 356 419
#     4  12  22  44  64  98 140 180 240 284 370 412
#
# _framework density 22.272175000000001
#
# number of rings (size 3 to 8) (size 9 to 14) (size 15 to 20)
#    0.000    0.615    1.538    6.000    8.615    4.923 
#    0.000    0.000    0.000    4.615    0.000    0.000 
#    0.000    0.000    0.000    0.000    0.000    0.000 
#
# Total GULP energy -217671.156206 kJ/mol
# GULP energy per Si atom -5581.311698 kJ/mol
# Density = 2.222148 g / cm^3
# Si number density = 22.272175 Si / 1000 Ang^3
#
#
#
# Elastic Constant Matrix: (Units=GPa)
#
#
# Indices 1 2 3 4 5 6 
#
# 1 87.5478 36.5830 26.0917 0.0000 0.0000 0.0000
# 2 36.5830 87.5478 26.0917 0.0000 0.0000 0.0000
# 3 26.0917 26.0917 93.5835 0.0000 0.0000 0.0000
# 4 0.0000 0.0000 0.0000 10.0336 0.0000 0.0000
# 5 0.0000 0.0000 0.0000 0.0000 10.0336 0.0000
# 6 0.0000 0.0000 0.0000 0.0000 0.0000 25.4824
#
#
#
# Elastic Compliance Matrix: (Units=1/GPa)
#
#
# Indices 1 2 3 4 5 6 
#
# 1 0.014373 -0.005248 -0.002544 0.000000 0.000000 0.000000
# 2 -0.005248 0.014373 -0.002544 0.000000 0.000000 0.000000
# 3 -0.002544 -0.002544 0.012104 0.000000 0.000000 0.000000
# 4 0.000000 0.000000 0.000000 0.099665 0.000000 0.000000
# 5 0.000000 0.000000 0.000000 0.000000 0.099665 0.000000
# 6 0.000000 0.000000 0.000000 0.000000 0.000000 0.039243
#
#
# Mechanical properties :
#
#
# Convention : Reuss Voigt Hill
#
# Bulk Modulus (GPa) = 49.55777 49.57909 49.56843
# Shear Modulus (GPa) = 16.29598 21.10409 18.70003
#
# Velocity S-wave (km/s) = 2.70788 3.08158 2.90075
# Velocity P-wave (km/s) = 5.66358 5.91357 5.78993
#
# Compressibility (1/GPa) = 0.02017847
#
# Stress axis : x y z
#
# Youngs Moduli (GPa) = 69.57249 69.57249 82.61480
#
# Poissons Ratio (x) = 0.36511 0.21019
# Poissons Ratio (y) = 0.36511 0.21019
# Poissons Ratio (z) = 0.17701 0.17701
#
# Static dielectric constant tensor:
#      x y z
#    x 1.945330 0.000000 0.000000 
#    y 0.000000 1.945330 0.000000 
#    z 0.000000 0.000000 1.866050 
# 
# From -- ./inp_files/451.got.cif
#   From: 2010.05.17/outbox.cif.g08.bks.cpg/sg171_1_cif.got.tgz:451.got - 2010.05.20 11:16:09.
