data_PCOD9580496
_publ_section_title
;
Structure prediction by ZEFSAII (Michael W. Deem and Ramdas Pophale) SiO2 
 PCOD9580496
Probable space group: P 62
;
_chemical_formula_sum "Si O2"
_cell_formula_units_Z 36
_cell_length_a 8.316955
_cell_length_b 8.316955
_cell_length_c 28.758742
_cell_angle_alpha 90.000000
_cell_angle_beta 90.000000
_cell_angle_gamma 120.000000
_cell_volume 1722.777614
_symmetry_space_group_name_H-M "P 62"
_symmetry_group_IT_number 171
_symmetry_cell_setting 'hexagonal'
loop_
_space_group_symop_operation_xyz
x,y,z
x-y,x,1/3+z
-y,x-y,2/3+z
-x,-y,z
-x+y,-x,1/3+z
y,-x+y,2/3+z
loop_
_atom_site_type_symbol
_atom_site_label
_atom_site_fract_x
_atom_site_fract_y
_atom_site_fract_z
Si Si1 0.798906 0.953634 0.371610
Si Si2 0.122072 0.727330 0.860365
Si Si3 0.665419 0.459189 0.031738
Si Si4 0.294028 0.711358 0.470309
Si Si5 0.797206 0.730552 0.812214
Si Si6 0.807606 0.300259 0.964088
O O1 0.767841 0.898844 0.425641
O O2 0.646900 0.812719 0.336432
O O3 0.789989 0.140330 0.366023
O O4 0.000000 0.000000 0.357042
O O5 0.301748 0.789148 0.828122
O O6 0.198623 0.774604 0.912829
O O7 0.000000 0.500000 0.857413
O O8 0.979092 0.796472 0.844568
O O9 0.500000 0.500000 0.032789
O O10 0.674288 0.377720 0.081846
O O11 0.658044 0.348452 0.985290
O O12 0.508603 0.829778 0.485531
O O13 0.208881 0.846984 0.481132
O O14 0.000000 0.500000 0.964466
#
# Coordination Sequence:
#
# PCOD9580496 Si02
#       6
#     6   6   6   6   6   6
#     4  10  20  35  58  84 110 152 198 241 296 365
#     4   9  18  32  57  88 116 158 197 250 310 371
#     4  10  20  35  58  86 113 151 198 254 299 358
#     4   9  17  33  56  83 116 151 203 250 297 364
#     4   9  17  33  56  84 113 154 199 248 302 363
#     4   9  18  38  56  81 123 153 194 244 308 370
#
# _framework density 20.896488000000002
#
# number of rings (size 3 to 8) (size 9 to 14) (size 15 to 20)
#    0.000    2.667    1.667    0.000    2.333    0.000 
#   12.000    1.667    0.000    0.000    0.000    0.000 
#    0.000    0.000    0.000    0.000    0.000    0.000 
#
# Total GULP energy -200518.079188 kJ/mol
# GULP energy per Si atom -5569.946644 kJ/mol
# Density = 2.084893 g / cm^3
# Si number density = 20.896488 Si / 1000 Ang^3
#
#
#
# Elastic Constant Matrix: (Units=GPa)
#
#
# Indices 1 2 3 4 5 6 
#
# 1 53.2653 23.5596 39.0137 0.0000 0.0000 0.0000
# 2 23.5596 53.2653 39.0137 0.0000 0.0000 0.0000
# 3 39.0137 39.0137 117.3156 0.0000 0.0000 0.0000
# 4 0.0000 0.0000 0.0000 -5.2321 0.0000 0.0000
# 5 0.0000 0.0000 0.0000 0.0000 -5.2321 0.0000
# 6 0.0000 0.0000 0.0000 0.0000 0.0000 14.8528
#
#
#
# Elastic Compliance Matrix: (Units=1/GPa)
#
#
# Indices 1 2 3 4 5 6 
#
# 1 0.026659 -0.007004 -0.006536 0.000000 0.000000 0.000000
# 2 -0.007004 0.026659 -0.006536 0.000000 0.000000 0.000000
# 3 -0.006536 -0.006536 0.012871 0.000000 0.000000 0.000000
# 4 0.000000 0.000000 0.000000 -0.191128 0.000000 0.000000
# 5 0.000000 0.000000 0.000000 0.000000 -0.191128 0.000000
# 6 0.000000 0.000000 0.000000 0.000000 0.000000 0.067327
#
#
# Mechanical properties :
#
#
# Convention : Reuss Voigt Hill
#
# Bulk Modulus (GPa) = 38.40780 47.44666 42.92723
# Shear Modulus (GPa) = -25.01185 9.02834 -7.99175
#
# Velocity S-wave (km/s) = -3.46344 2.08084 -1.95774
# Velocity P-wave (km/s) = 1.55759 5.34116 3.93409
#
# Compressibility (1/GPa) = 0.02603638
#
# Stress axis : x y z
#
# Youngs Moduli (GPa) = 37.51010 37.51010 77.69129
#
# Poissons Ratio (x) = 0.26273 0.50783
# Poissons Ratio (y) = 0.26273 0.50783
# Poissons Ratio (z) = 0.24518 0.24518
#
# Static dielectric constant tensor:
#      x y z
#    x 1.774420 0.000000 0.000000 
#    y 0.000000 1.774420 0.000000 
#    z 0.000000 0.000000 1.747340 
# 
# From -- ./inp_files/5737.got.cif
#   From: 2010.05.17/outbox.cif.g08.bks.cpg/sg171_3_cif.got.tgz:5737.got - 2010.05.20 11:16:09.
