data_PCOD9580225
_publ_section_title
;
Structure prediction by ZEFSAII (Michael W. Deem and Ramdas Pophale) SiO2 
 PCOD9580225
Probable space group: P 65
;
_chemical_formula_sum "Si O2"
_cell_formula_units_Z 42
_cell_length_a 19.723691
_cell_length_b 19.723691
_cell_length_c 6.749863
_cell_angle_alpha 90.000000
_cell_angle_beta 90.000000
_cell_angle_gamma 120.000000
_cell_volume 2274.060266
_symmetry_space_group_name_H-M "P 65"
_symmetry_group_IT_number 170
_symmetry_cell_setting 'hexagonal'
loop_
_space_group_symop_operation_xyz
x,y,z
x-y,x,5/6+z
-y,x-y,2/3+z
-x,-y,1/2+z
-x+y,-x,1/3+z
y,-x+y,1/6+z
loop_
_atom_site_type_symbol
_atom_site_label
_atom_site_fract_x
_atom_site_fract_y
_atom_site_fract_z
Si Si1 0.767384 0.632300 0.975200
Si Si2 0.497705 0.101480 0.692320
Si Si3 0.268204 0.289166 0.111221
Si Si4 0.981628 0.568472 0.536788
Si Si5 0.149753 0.316181 0.867517
Si Si6 0.449947 0.272588 0.324393
Si Si7 0.354666 0.738864 0.299589
O O1 0.686190 0.576560 0.093000
O O2 0.751463 0.686827 0.824981
O O3 0.792126 0.580345 0.838814
O O4 0.835365 0.677215 0.134121
O O5 0.571536 0.186713 0.704965
O O6 0.468501 0.062655 0.478857
O O7 0.529654 0.048516 0.792339
O O8 0.358020 0.357648 0.062157
O O9 0.267695 0.207947 0.100898
O O10 0.204885 0.287401 0.962999
O O11 0.911125 0.563788 0.674606
O O12 0.176991 0.400633 0.966472
O O13 0.539511 0.306821 0.269249
O O14 0.382220 0.695383 0.450663
#
# Coordination Sequence:
#
# PCOD9580225 Si02
#       7
#     6   6   6   6   6   6   6
#     4  10  20  37  60  84 116 152 195 242 303 344
#     4  10  21  37  53  82 106 153 196 241 298 346
#     4   9  21  37  56  89 119 145 196 243 280 364
#     4   9  20  38  54  79 116 149 194 250 294 339
#     4  10  20  36  62  86 115 157 188 239 300 349
#     4   9  20  39  53  83 116 145 201 249 288 362
#     4  11  22  38  56  79 112 153 200 244 299 356
#
# _framework density 18.469166999999999
#
# number of rings (size 3 to 8) (size 9 to 14) (size 15 to 20)
#    0.000    2.286    0.000    1.714    2.000    4.571 
#   20.571    0.000    0.000    0.000    3.714    0.000 
#    0.000    0.000    0.000    0.000    0.000    0.000 
#
# Total GULP energy -233970.643942 kJ/mol
# GULP energy per Si atom -5570.729618 kJ/mol
# Density = 1.842713 g / cm^3
# Si number density = 18.469167 Si / 1000 Ang^3
#
#
#
# Elastic Constant Matrix: (Units=GPa)
#
#
# Indices 1 2 3 4 5 6 
#
# 1 90.7292 49.4475 42.8766 0.0000 0.0000 0.0000
# 2 49.4475 90.7292 42.8766 0.0000 0.0000 0.0000
# 3 42.8766 42.8766 59.2905 0.0000 0.0000 0.0000
# 4 0.0000 0.0000 0.0000 10.2780 0.0000 0.0000
# 5 0.0000 0.0000 0.0000 0.0000 10.2780 0.0000
# 6 0.0000 0.0000 0.0000 0.0000 0.0000 20.6409
#
#
#
# Elastic Compliance Matrix: (Units=1/GPa)
#
#
# Indices 1 2 3 4 5 6 
#
# 1 0.018509 -0.005715 -0.009252 0.000000 0.000000 0.000000
# 2 -0.005715 0.018509 -0.009252 0.000000 0.000000 0.000000
# 3 -0.009252 -0.009252 0.030247 0.000000 0.000000 0.000000
# 4 0.000000 0.000000 0.000000 0.097295 0.000000 0.000000
# 5 0.000000 0.000000 0.000000 0.000000 0.097295 0.000000
# 6 0.000000 0.000000 0.000000 0.000000 0.000000 0.048448
#
#
# Mechanical properties :
#
#
# Convention : Reuss Voigt Hill
#
# Bulk Modulus (GPa) = 53.11483 56.79446 54.95464
# Shear Modulus (GPa) = 13.69801 15.27593 14.48697
#
# Velocity S-wave (km/s) = 2.72631 2.87906 2.80373
# Velocity P-wave (km/s) = 6.22346 6.47068 6.34827
#
# Compressibility (1/GPa) = 0.01882713
#
# Stress axis : x y z
#
# Youngs Moduli (GPa) = 54.02854 54.02854 33.06073
#
# Poissons Ratio (x) = 0.30877 0.30588
# Poissons Ratio (y) = 0.30877 0.30588
# Poissons Ratio (z) = 0.49987 0.49987
#
# Static dielectric constant tensor:
#      x y z
#    x 1.662810 0.000000 0.000000 
#    y 0.000000 1.662810 0.000000 
#    z 0.000000 0.000000 1.636900 
# 
# From -- ./inp_files/258.got.cif
#   From: 2010.05.17/outbox.cif.g08.bks.cpg/sg170_cif.got.tgz:258.got - 2010.05.20 11:14:30.
