data_PCOD9580080
_publ_section_title
;
Structure prediction by ZEFSAII (Michael W. Deem and Ramdas Pophale) SiO2 
 PCOD9580080
Probable space group: P 61
;
_chemical_formula_sum "Si O2"
_cell_formula_units_Z 48
_cell_length_a 14.655852
_cell_length_b 14.655852
_cell_length_c 12.660893
_cell_angle_alpha 90.000000
_cell_angle_beta 90.000000
_cell_angle_gamma 120.000000
_cell_volume 2355.142077
_symmetry_space_group_name_H-M "P 61"
_symmetry_group_IT_number 169
_symmetry_cell_setting 'hexagonal'
loop_
_space_group_symop_operation_xyz
x,y,z
x-y,x,1/6+z
-y,x-y,1/3+z
-x,-y,1/2+z
-x+y,-x,2/3+z
y,-x+y,5/6+z
loop_
_atom_site_type_symbol
_atom_site_label
_atom_site_fract_x
_atom_site_fract_y
_atom_site_fract_z
Si Si1 0.311744 0.712768 0.013360
Si Si2 0.209293 0.574559 0.565913
Si Si3 0.119381 0.742869 0.749253
Si Si4 0.998408 0.639881 0.332259
Si Si5 0.599952 0.837362 0.175191
Si Si6 0.971605 0.421711 0.613634
Si Si7 0.409270 0.525517 0.236113
Si Si8 0.419820 0.319005 0.041362
O O1 0.292490 0.728242 0.133006
O O2 0.409521 0.695500 0.996095
O O3 0.221827 0.606896 0.956974
O O4 0.318589 0.810264 0.949383
O O5 0.188962 0.668478 0.527063
O O6 0.095755 0.480110 0.592698
O O7 0.120976 0.764535 0.626077
O O8 0.147638 0.655802 0.794418
O O9 0.212483 0.845490 0.805069
O O10 0.994406 0.674044 0.773469
O O11 0.881162 0.623504 0.322380
O O12 0.972670 0.526249 0.378545
O O13 0.075559 0.725289 0.416248
O O14 0.049369 0.648407 0.217596
O O15 0.920962 0.366537 0.502065
O O16 0.941541 0.513603 0.640190
#
# Coordination Sequence:
#
# PCOD9580080 Si02
#       8
#     6   6   6   6   6   6   6   6
#     4  11  25  35  57  90 129 176 226 259 326 396
#     4  12  22  34  55  87 128 178 222 272 320 396
#     4  11  22  39  61  90 123 169 215 275 335 382
#     4  12  24  41  63  89 131 175 223 278 340 400
#     4  12  23  38  62  88 126 173 220 275 335 401
#     4  12  23  39  58  86 129 174 218 271 328 396
#     4  11  21  37  58  84 127 173 214 268 316 395
#     4  11  22  39  62  86 129 170 220 272 326 394
#
# _framework density 20.380936999999999
#
# number of rings (size 3 to 8) (size 9 to 14) (size 15 to 20)
#    0.000    0.500    5.000    4.500    3.500    1.000 
#    0.000    0.000    0.000    0.000    0.000    0.000 
#   41.250    0.000    0.000    0.000    0.000    0.000 
#
# Total GULP energy -267708.470886 kJ/mol
# GULP energy per Si atom -5577.259810 kJ/mol
# Density = 2.033455 g / cm^3
# Si number density = 20.380937 Si / 1000 Ang^3
#
#
#
# Elastic Constant Matrix: (Units=GPa)
#
#
# Indices 1 2 3 4 5 6 
#
# 1 58.4494 5.3980 20.3861 0.0000 0.0000 0.0000
# 2 5.3980 58.4494 20.3861 0.0000 0.0000 0.0000
# 3 20.3861 20.3861 85.8548 0.0000 0.0000 0.0000
# 4 0.0000 0.0000 0.0000 32.5414 0.0000 0.0000
# 5 0.0000 0.0000 0.0000 0.0000 32.5414 0.0000
# 6 0.0000 0.0000 0.0000 0.0000 0.0000 26.5257
#
#
#
# Elastic Compliance Matrix: (Units=1/GPa)
#
#
# Indices 1 2 3 4 5 6 
#
# 1 0.018656 -0.000194 -0.004384 0.000000 0.000000 0.000000
# 2 -0.000194 0.018656 -0.004384 0.000000 0.000000 0.000000
# 3 -0.004384 -0.004384 0.013729 0.000000 0.000000 0.000000
# 4 0.000000 0.000000 0.000000 0.030730 0.000000 0.000000
# 5 0.000000 0.000000 0.000000 0.000000 0.030730 0.000000
# 6 0.000000 0.000000 0.000000 0.000000 0.000000 0.037699
#
#
# Mechanical properties :
#
#
# Convention : Reuss Voigt Hill
#
# Bulk Modulus (GPa) = 30.19508 32.78823 31.49165
# Shear Modulus (GPa) = 27.90765 28.76058 28.33412
#
# Velocity S-wave (km/s) = 3.70442 3.76060 3.73262
# Velocity P-wave (km/s) = 5.75713 5.91429 5.83624
#
# Compressibility (1/GPa) = 0.03311798
#
# Stress axis : x y z
#
# Youngs Moduli (GPa) = 53.60299 53.60299 72.83646
#
# Poissons Ratio (x) = 0.01040 0.31929
# Poissons Ratio (y) = 0.01040 0.31929
# Poissons Ratio (z) = 0.23498 0.23498
#
# Static dielectric constant tensor:
#      x y z
#    x 1.778370 0.000000 0.000000 
#    y 0.000000 1.778370 0.000000 
#    z 0.000000 0.000000 1.793910 
# 
# From -- ./inp_files/1058.got.cif
#   From: 2010.05.17/outbox.cif.g08.bks.cpg/sg169_cif.got.tgz:1058.got - 2010.05.20 11:12:54.
