data_PCOD9580147
_publ_section_title
;
Structure prediction by ZEFSAII (Michael W. Deem and Ramdas Pophale) SiO2 
 PCOD9580147
Probable space group: P 61
;
_chemical_formula_sum "Si O2"
_cell_formula_units_Z 42
_cell_length_a 8.008189
_cell_length_b 8.008189
_cell_length_c 28.844164
_cell_angle_alpha 90.000000
_cell_angle_beta 90.000000
_cell_angle_gamma 120.000000
_cell_volume 1601.980467
_symmetry_space_group_name_H-M "P 61"
_symmetry_group_IT_number 169
_symmetry_cell_setting 'hexagonal'
loop_
_space_group_symop_operation_xyz
x,y,z
x-y,x,1/6+z
-y,x-y,1/3+z
-x,-y,1/2+z
-x+y,-x,2/3+z
y,-x+y,5/6+z
loop_
_atom_site_type_symbol
_atom_site_label
_atom_site_fract_x
_atom_site_fract_y
_atom_site_fract_z
Si Si1 0.342426 0.558202 0.778350
Si Si2 0.959970 0.849975 0.721445
Si Si3 0.272198 0.050906 0.411473
Si Si4 0.415570 0.056282 0.709694
Si Si5 0.407224 0.886646 0.845326
Si Si6 0.632141 0.363879 0.457296
Si Si7 0.409469 0.205497 0.198470
O O1 0.351408 0.440746 0.821830
O O2 0.317060 0.722707 0.805592
O O3 0.518615 0.647776 0.742129
O O4 0.159711 0.405073 0.749966
O O5 0.887561 0.619482 0.719619
O O6 0.803866 0.844580 0.683738
O O7 0.944494 0.018746 0.750152
O O8 0.189506 0.946246 0.718814
O O9 0.405861 0.119833 0.364797
O O10 0.416980 0.187328 0.450238
O O11 0.526061 0.245132 0.742046
O O12 0.533524 0.945910 0.720077
O O13 0.478713 0.090843 0.820787
O O14 0.729634 0.269601 0.486781
#
# Coordination Sequence:
#
# PCOD9580147 Si02
#       7
#     6   6   6   6   6   6   6
#     4  12  26  50  81 118 165 219 276 358 432 506
#     4  12  28  51  81 122 157 223 281 347 423 518
#     4  12  27  50  80 116 166 212 282 349 423 508
#     4  12  27  51  77 126 166 215 289 355 422 527
#     4  12  25  51  80 111 161 216 277 340 428 503
#     4  12  25  52  79 115 171 214 275 367 416 509
#     4  12  26  55  84 118 172 225 284 358 436 509
#
# _framework density 26.217545000000001
#
# number of rings (size 3 to 8) (size 9 to 14) (size 15 to 20)
#    0.000    0.000    7.143    0.857    4.000    2.286 
#   10.286    0.000    0.000    0.000    0.000    0.000 
#    0.000    0.000    0.000    0.000    0.000    0.000 
#
# Total GULP energy -234215.134243 kJ/mol
# GULP energy per Si atom -5576.550815 kJ/mol
# Density = 2.615787 g / cm^3
# Si number density = 26.217545 Si / 1000 Ang^3
#
#
#
# Elastic Constant Matrix: (Units=GPa)
#
#
# Indices 1 2 3 4 5 6 
#
# 1 101.8184 31.9599 7.0628 0.0000 0.0000 0.0000
# 2 31.9599 101.8184 7.0628 0.0000 0.0000 0.0000
# 3 7.0628 7.0628 86.9030 0.0000 0.0000 0.0000
# 4 0.0000 0.0000 0.0000 39.0491 0.0000 0.0000
# 5 0.0000 0.0000 0.0000 0.0000 39.0491 0.0000
# 6 0.0000 0.0000 0.0000 0.0000 0.0000 34.9293
#
#
#
# Elastic Compliance Matrix: (Units=1/GPa)
#
#
# Indices 1 2 3 4 5 6 
#
# 1 0.010927 -0.003387 -0.000613 0.000000 0.000000 0.000000
# 2 -0.003387 0.010927 -0.000613 0.000000 0.000000 0.000000
# 3 -0.000613 -0.000613 0.011607 0.000000 0.000000 0.000000
# 4 0.000000 0.000000 0.000000 0.025609 0.000000 0.000000
# 5 0.000000 0.000000 0.000000 0.000000 0.025609 0.000000
# 6 0.000000 0.000000 0.000000 0.000000 0.000000 0.028629
#
#
# Mechanical properties :
#
#
# Convention : Reuss Voigt Hill
#
# Bulk Modulus (GPa) = 41.26248 42.52344 41.89296
# Shear Modulus (GPa) = 38.28123 38.90244 38.59184
#
# Velocity S-wave (km/s) = 3.82532 3.85623 3.84081
# Velocity P-wave (km/s) = 5.93999 6.00683 5.97350
#
# Compressibility (1/GPa) = 0.02423509
#
# Stress axis : x y z
#
# Youngs Moduli (GPa) = 91.51476 91.51476 86.15726
#
# Poissons Ratio (x) = 0.31000 0.05280
# Poissons Ratio (y) = 0.31000 0.05280
# Poissons Ratio (z) = 0.05608 0.05608
#
# Static dielectric constant tensor:
#      x y z
#    x 2.136720 0.000000 0.000000 
#    y 0.000000 2.136720 0.000000 
#    z 0.000000 0.000000 2.128550 
# 
# From -- ./inp_files/1875.got.cif
#   From: 2010.05.17/outbox.cif.g08.bks.cpg/sg169_cif.got.tgz:1875.got - 2010.05.20 11:12:54.
