data_PCOD9580805
_publ_section_title
;
Structure prediction by ZEFSAII (Michael W. Deem and Ramdas Pophale) SiO2 
 PCOD9580805
Probable space group: P 62
;
_chemical_formula_sum "Si O2"
_cell_formula_units_Z 39
_cell_length_a 14.564687
_cell_length_b 14.564687
_cell_length_c 11.071943
_cell_angle_alpha 90.000000
_cell_angle_beta 90.000000
_cell_angle_gamma 120.000000
_cell_volume 2034.027334
_symmetry_space_group_name_H-M "P 62"
_symmetry_group_IT_number 171
_symmetry_cell_setting 'hexagonal'
loop_
_space_group_symop_operation_xyz
x,y,z
x-y,x,1/3+z
-y,x-y,2/3+z
-x,-y,z
-x+y,-x,1/3+z
y,-x+y,2/3+z
loop_
_atom_site_type_symbol
_atom_site_label
_atom_site_fract_x
_atom_site_fract_y
_atom_site_fract_z
Si Si1 0.177963 0.626333 0.411200
Si Si2 0.100772 0.666393 0.968604
Si Si3 0.500000 0.500000 0.424873
Si Si4 0.880101 0.569409 0.569389
Si Si5 0.053809 0.750091 0.431509
Si Si6 0.955057 0.689664 0.165642
Si Si7 0.438693 0.616330 0.820835
O O1 0.137369 0.509044 0.458002
O O2 0.108059 0.677265 0.450758
O O3 0.296003 0.702932 0.457474
O O4 0.176269 0.626720 0.267713
O O5 0.052972 0.603347 0.844401
O O6 0.212012 0.770551 0.943801
O O7 0.123153 0.585983 0.045215
O O8 0.029532 0.698726 0.051789
O O9 0.476635 0.401233 0.339037
O O10 0.955491 0.689797 0.523257
O O11 0.143767 0.869566 0.464837
O O12 0.015607 0.739996 0.291910
O O13 0.886307 0.562684 0.184352
#
# Coordination Sequence:
#
# PCOD9580805 Si02
#       7
#     6   6   3   6   6   6   6
#     4  11  22  38  64  98 138 176 217 262 327 411
#     4  12  27  41  65  96 139 179 220 277 339 404
#     4  12  28  44  58 100 142 176 220 270 336 414
#     4  12  27  41  65  96 139 179 220 277 339 404
#     4  11  24  44  69  95 128 178 232 283 335 396
#     4  11  24  44  69  95 128 178 232 283 335 396
#     4  11  22  38  64  98 138 176 217 262 327 411
#
# _framework density 19.173783
#
# number of rings (size 3 to 8) (size 9 to 14) (size 15 to 20)
#    0.000    0.615    6.154    0.923   10.769    0.000 
#    0.000    0.000    0.000    2.769    0.000    0.000 
#    0.000    0.000    0.000    0.000    0.000    0.000 
#
# Total GULP energy -217775.837738 kJ/mol
# GULP energy per Si atom -5583.995839 kJ/mol
# Density = 1.913014 g / cm^3
# Si number density = 19.173783 Si / 1000 Ang^3
#
#
#
# Elastic Constant Matrix: (Units=GPa)
#
#
# Indices 1 2 3 4 5 6 
#
# 1 65.6158 54.5970 33.2057 0.0000 0.0000 0.0000
# 2 54.5970 65.6158 33.2057 0.0000 0.0000 0.0000
# 3 33.2057 33.2057 92.1648 0.0000 0.0000 0.0000
# 4 0.0000 0.0000 0.0000 86.8861 0.0000 0.0000
# 5 0.0000 0.0000 0.0000 0.0000 86.8861 0.0000
# 6 0.0000 0.0000 0.0000 0.0000 0.0000 5.5094
#
#
#
# Elastic Compliance Matrix: (Units=1/GPa)
#
#
# Indices 1 2 3 4 5 6 
#
# 1 0.050570 -0.040184 -0.003742 0.000000 0.000000 0.000000
# 2 -0.040184 0.050570 -0.003742 0.000000 0.000000 0.000000
# 3 -0.003742 -0.003742 0.013546 0.000000 0.000000 0.000000
# 4 0.000000 0.000000 0.000000 0.011509 0.000000 0.000000
# 5 0.000000 0.000000 0.000000 0.000000 0.011509 0.000000
# 6 0.000000 0.000000 0.000000 0.000000 0.000000 0.181508
#
#
# Mechanical properties :
#
#
# Convention : Reuss Voigt Hill
#
# Bulk Modulus (GPa) = 51.67813 51.71256 51.69535
# Shear Modulus (GPa) = 11.87651 42.68219 27.27935
#
# Velocity S-wave (km/s) = 2.49150 4.72324 3.77602
# Velocity P-wave (km/s) = 5.94035 7.53488 6.78462
#
# Compressibility (1/GPa) = 0.01935054
#
# Stress axis : x y z
#
# Youngs Moduli (GPa) = 19.77459 19.77459 73.82037
#
# Poissons Ratio (x) = 0.79463 0.27622
# Poissons Ratio (y) = 0.79463 0.27622
# Poissons Ratio (z) = 0.07399 0.07399
#
# Static dielectric constant tensor:
#      x y z
#    x 1.625140 0.000000 0.000000 
#    y 0.000000 1.625140 0.000000 
#    z 0.000000 0.000000 1.670850 
# 
# From -- ./inp_files/1637.got.cif
#   From: 2010.05.17/outbox.cif.g08.bks.cpg/sg171_1_cif.got.tgz:1637.got - 2010.05.20 11:16:09.
