data_PCOD9580691
_publ_section_title
;
Structure prediction by ZEFSAII (Michael W. Deem and Ramdas Pophale) SiO2 
 PCOD9580691
Probable space group: P 62
;
_chemical_formula_sum "Si O2"
_cell_formula_units_Z 42
_cell_length_a 11.259805
_cell_length_b 11.259805
_cell_length_c 20.138966
_cell_angle_alpha 90.000000
_cell_angle_beta 90.000000
_cell_angle_gamma 120.000000
_cell_volume 2211.207706
_symmetry_space_group_name_H-M "P 62"
_symmetry_group_IT_number 171
_symmetry_cell_setting 'hexagonal'
loop_
_space_group_symop_operation_xyz
x,y,z
x-y,x,1/3+z
-y,x-y,2/3+z
-x,-y,z
-x+y,-x,1/3+z
y,-x+y,2/3+z
loop_
_atom_site_type_symbol
_atom_site_label
_atom_site_fract_x
_atom_site_fract_y
_atom_site_fract_z
Si Si1 0.348339 0.651661 0.346610
Si Si2 0.119602 0.880398 0.346610
Si Si3 0.574014 0.663479 0.433734
Si Si4 0.574014 0.910535 0.926153
Si Si5 0.872397 0.528469 0.919163
Si Si6 0.656073 0.528470 0.107391
Si Si7 0.000000 0.186400 0.679943
O O1 0.496616 0.705946 0.379769
O O2 0.294053 0.503384 0.313451
O O3 0.349421 0.747325 0.287520
O O4 0.252675 0.650579 0.405701
O O5 0.224812 0.884547 0.291063
O O6 0.115453 0.775188 0.402157
O O7 0.960075 0.827224 0.332264
O O8 0.172776 0.039925 0.360956
O O9 0.500000 0.500000 0.429435
O O10 0.550515 0.695165 0.508336
O O11 0.730204 0.725537 0.410764
O O12 0.550515 0.855350 0.851551
O O13 0.500000 0.000000 0.930452
O O14 0.730204 0.004667 0.949122
O O15 0.000000 0.500000 0.925342
O O16 0.500000 0.500000 0.101211
#
# Coordination Sequence:
#
# PCOD9580691 Si02
#       7
#     6   6   6   6   6   6   6
#     4  11  19  39  59  89 121 158 212 266 315 381
#     4  10  24  41  59  94 124 174 198 270 336 374
#     4  11  21  37  64  94 117 170 215 265 318 386
#     4  11  21  37  64  94 117 170 215 265 318 386
#     4  10  23  38  60  89 127 161 213 259 326 391
#     4  10  23  38  60  89 127 161 213 259 326 391
#     4  11  21  40  64  84 133 159 216 264 316 403
#
# _framework density 18.994143999999999
#
# number of rings (size 3 to 8) (size 9 to 14) (size 15 to 20)
#    0.000    1.429    2.857    2.571    0.000    2.286 
#    0.000    2.857    0.000    5.143    0.000    0.000 
#    0.000    0.000    0.000    0.000    0.000    0.000 
#
# Total GULP energy -234093.643490 kJ/mol
# GULP energy per Si atom -5573.658178 kJ/mol
# Density = 1.895091 g / cm^3
# Si number density = 18.994144 Si / 1000 Ang^3
#
#
#
# Elastic Constant Matrix: (Units=GPa)
#
#
# Indices 1 2 3 4 5 6 
#
# 1 96.3076 34.6072 46.9314 0.0000 0.0000 0.0000
# 2 34.6072 96.3076 46.9314 0.0000 0.0000 0.0000
# 3 46.9314 46.9314 145.3340 0.0000 0.0000 0.0000
# 4 0.0000 0.0000 0.0000 15.2851 0.0000 0.0000
# 5 0.0000 0.0000 0.0000 0.0000 15.2851 0.0000
# 6 0.0000 0.0000 0.0000 0.0000 0.0000 30.8502
#
#
#
# Elastic Compliance Matrix: (Units=1/GPa)
#
#
# Indices 1 2 3 4 5 6 
#
# 1 0.013074 -0.003134 -0.003210 0.000000 0.000000 0.000000
# 2 -0.003134 0.013074 -0.003210 0.000000 0.000000 0.000000
# 3 -0.003210 -0.003210 0.008954 0.000000 0.000000 0.000000
# 4 0.000000 0.000000 0.000000 0.065423 0.000000 0.000000
# 5 0.000000 0.000000 0.000000 0.000000 0.065423 0.000000
# 6 0.000000 0.000000 0.000000 0.000000 0.000000 0.032415
#
#
# Mechanical properties :
#
#
# Convention : Reuss Voigt Hill
#
# Bulk Modulus (GPa) = 62.52214 66.09878 64.31046
# Shear Modulus (GPa) = 22.44159 26.24934 24.34547
#
# Velocity S-wave (km/s) = 3.44103 3.72152 3.58402
# Velocity P-wave (km/s) = 6.98395 7.30352 7.14552
#
# Compressibility (1/GPa) = 0.01599433
#
# Stress axis : x y z
#
# Youngs Moduli (GPa) = 76.48982 76.48982 111.68535
#
# Poissons Ratio (x) = 0.23970 0.35849
# Poissons Ratio (y) = 0.23970 0.35849
# Poissons Ratio (z) = 0.24552 0.24552
#
# Static dielectric constant tensor:
#      x y z
#    x 1.687020 0.000000 0.000000 
#    y 0.000000 1.687020 0.000000 
#    z 0.000000 0.000000 1.651950 
# 
# From -- ./inp_files/3976.got.cif
#   From: 2010.05.17/outbox.cif.g08.bks.cpg/sg171_2_cif.got.tgz:3976.got - 2010.05.20 11:16:09.
