data_PCOD9580458
_publ_section_title
;
Structure prediction by ZEFSAII (Michael W. Deem and Ramdas Pophale) SiO2 
 PCOD9580458
Probable space group: P 62
;
_chemical_formula_sum "Si O2"
_cell_formula_units_Z 39
_cell_length_a 15.165410
_cell_length_b 15.165410
_cell_length_c 10.643098
_cell_angle_alpha 90.000000
_cell_angle_beta 90.000000
_cell_angle_gamma 120.000000
_cell_volume 2119.859144
_symmetry_space_group_name_H-M "P 62"
_symmetry_group_IT_number 171
_symmetry_cell_setting 'hexagonal'
loop_
_space_group_symop_operation_xyz
x,y,z
x-y,x,1/3+z
-y,x-y,2/3+z
-x,-y,z
-x+y,-x,1/3+z
y,-x+y,2/3+z
loop_
_atom_site_type_symbol
_atom_site_label
_atom_site_fract_x
_atom_site_fract_y
_atom_site_fract_z
Si Si1 0.644974 0.161093 0.567890
Si Si2 0.503889 0.162991 0.225894
Si Si3 0.304470 0.003029 0.924921
Si Si4 0.498117 0.662354 0.371036
Si Si5 0.809941 0.156327 0.723417
Si Si6 0.000000 0.500000 0.035200
Si Si7 0.524619 0.160025 0.814039
O O1 0.714592 0.120006 0.630838
O O2 0.570569 0.161154 0.677194
O O3 0.728216 0.270991 0.514128
O O4 0.579970 0.089075 0.455959
O O5 0.513253 0.240521 0.335142
O O6 0.437935 0.178777 0.120089
O O7 0.450901 0.050467 0.282068
O O8 0.605385 0.175810 0.158597
O O9 0.408482 0.073744 0.844538
O O10 0.316621 0.930069 0.027717
O O11 0.219443 0.926049 0.830333
O O12 0.280204 0.084018 0.987919
O O13 0.449259 0.589267 0.250656
#
# Coordination Sequence:
#
# PCOD9580458 Si02
#       7
#     6   6   6   6   6   3   6
#     4  11  23  35  51  81 113 159 203 243 298 338
#     4  11  23  35  51  81 113 159 203 243 298 338
#     4  10  19  32  56  84 114 153 196 240 289 354
#     4  11  20  35  59  81 112 157 205 247 285 359
#     4  10  20  35  56  78 108 148 198 235 294 358
#     4  12  28  34  50  80 128 154 196 260 292 348
#     4  11  20  35  59  81 112 157 205 247 285 359
#
# _framework density 18.397448000000001
#
# number of rings (size 3 to 8) (size 9 to 14) (size 15 to 20)
#    0.000    1.231    6.154    2.308    4.308    0.000 
#    0.000    0.000    0.000    0.000    0.000    0.000 
#    0.000   68.923    0.000    0.000    0.000    0.000 
#
# Total GULP energy -217647.897521 kJ/mol
# GULP energy per Si atom -5580.715321 kJ/mol
# Density = 1.835557 g / cm^3
# Si number density = 18.397448 Si / 1000 Ang^3
#
#
#
# Elastic Constant Matrix: (Units=GPa)
#
#
# Indices 1 2 3 4 5 6 
#
# 1 76.4885 32.7016 32.9035 0.0000 0.0000 0.0000
# 2 32.7016 76.4885 32.9035 0.0000 0.0000 0.0000
# 3 32.9035 32.9035 62.8414 0.0000 0.0000 0.0000
# 4 0.0000 0.0000 0.0000 34.0011 0.0000 0.0000
# 5 0.0000 0.0000 0.0000 0.0000 34.0011 0.0000
# 6 0.0000 0.0000 0.0000 0.0000 0.0000 21.8934
#
#
#
# Elastic Compliance Matrix: (Units=1/GPa)
#
#
# Indices 1 2 3 4 5 6 
#
# 1 0.018109 -0.004729 -0.007006 0.000000 0.000000 0.000000
# 2 -0.004729 0.018109 -0.007006 0.000000 0.000000 0.000000
# 3 -0.007006 -0.007006 0.023250 0.000000 0.000000 0.000000
# 4 0.000000 0.000000 0.000000 0.029411 0.000000 0.000000
# 5 0.000000 0.000000 0.000000 0.000000 0.029411 0.000000
# 6 0.000000 0.000000 0.000000 0.000000 0.000000 0.045676
#
#
# Mechanical properties :
#
#
# Convention : Reuss Voigt Hill
#
# Bulk Modulus (GPa) = 45.48156 45.87060 45.67608
# Shear Modulus (GPa) = 23.94903 25.79976 24.87440
#
# Velocity S-wave (km/s) = 3.61190 3.74887 3.68102
# Velocity P-wave (km/s) = 6.49383 6.61256 6.55346
#
# Compressibility (1/GPa) = 0.02198693
#
# Stress axis : x y z
#
# Youngs Moduli (GPa) = 55.22003 55.22003 43.01105
#
# Poissons Ratio (x) = 0.26111 0.30134
# Poissons Ratio (y) = 0.26111 0.30134
# Poissons Ratio (z) = 0.38688 0.38688
#
# Static dielectric constant tensor:
#      x y z
#    x 1.666080 0.000000 0.000000 
#    y 0.000000 1.666080 0.000000 
#    z 0.000000 0.000000 1.672630 
# 
# From -- ./inp_files/4645.got.cif
#   From: 2010.05.17/outbox.cif.g08.bks.cpg/sg171_3_cif.got.tgz:4645.got - 2010.05.20 11:16:09.
