data_PCOD9580708
_publ_section_title
;
Structure prediction by ZEFSAII (Michael W. Deem and Ramdas Pophale) SiO2 
 PCOD9580708
Probable space group: P 62
;
_chemical_formula_sum "Si O2"
_cell_formula_units_Z 18
_cell_length_a 13.660620
_cell_length_b 13.660620
_cell_length_c 5.155377
_cell_angle_alpha 90.000000
_cell_angle_beta 90.000000
_cell_angle_gamma 120.000000
_cell_volume 833.166660
_symmetry_space_group_name_H-M "P 62"
_symmetry_group_IT_number 171
_symmetry_cell_setting 'hexagonal'
loop_
_space_group_symop_operation_xyz
x,y,z
x-y,x,1/3+z
-y,x-y,2/3+z
-x,-y,z
-x+y,-x,1/3+z
y,-x+y,2/3+z
loop_
_atom_site_type_symbol
_atom_site_label
_atom_site_fract_x
_atom_site_fract_y
_atom_site_fract_z
Si Si1 0.370092 0.120271 0.565670
Si Si2 0.439240 0.673414 0.354252
Si Si3 0.687060 0.025995 0.067906
O O1 0.496831 0.227752 0.571496
O O2 0.302897 0.182468 0.461530
O O3 0.362433 0.035775 0.339875
O O4 0.329314 0.059053 0.838415
O O5 0.420279 0.739665 0.123866
O O6 0.530799 0.635016 0.308430
#
# Coordination Sequence:
#
# PCOD9580708 Si02
#       3
#     6   6   6
#     4  10  23  44  69  98 137 181 228 284 343 409
#     4  10  26  42  65 100 147 176 240 280 332 442
#     4  10  23  44  69  98 137 181 228 284 343 409
#
# _framework density 21.604323000000001
#
# number of rings (size 3 to 8) (size 9 to 14) (size 15 to 20)
#    2.000    0.000    0.000    2.000    9.333    1.333 
#    0.000    0.000    0.000   10.000    0.000    0.000 
#    0.000    0.000    0.000    0.000    0.000    0.000 
#
# Total GULP energy -100313.298375 kJ/mol
# GULP energy per Si atom -5572.961021 kJ/mol
# Density = 2.155515 g / cm^3
# Si number density = 21.604323 Si / 1000 Ang^3
#
#
#
# Elastic Constant Matrix: (Units=GPa)
#
#
# Indices 1 2 3 4 5 6 
#
# 1 70.8855 16.6959 26.2271 0.0000 0.0000 0.0000
# 2 16.6959 70.8855 26.2271 0.0000 0.0000 0.0000
# 3 26.2271 26.2271 128.9122 0.0000 0.0000 0.0000
# 4 0.0000 0.0000 0.0000 37.8591 0.0000 0.0000
# 5 0.0000 0.0000 0.0000 0.0000 37.8591 0.0000
# 6 0.0000 0.0000 0.0000 0.0000 0.0000 27.0948
#
#
#
# Elastic Compliance Matrix: (Units=1/GPa)
#
#
# Indices 1 2 3 4 5 6 
#
# 1 0.015728 -0.002726 -0.002645 0.000000 0.000000 0.000000
# 2 -0.002726 0.015728 -0.002645 0.000000 0.000000 0.000000
# 3 -0.002645 -0.002645 0.008834 0.000000 0.000000 0.000000
# 4 0.000000 0.000000 0.000000 0.026414 0.000000 0.000000
# 5 0.000000 0.000000 0.000000 0.000000 0.026414 0.000000
# 6 0.000000 0.000000 0.000000 0.000000 0.000000 0.036907
#
#
# Mechanical properties :
#
#
# Convention : Reuss Voigt Hill
#
# Bulk Modulus (GPa) = 41.22533 45.44259 43.33396
# Shear Modulus (GPa) = 32.43745 33.99813 33.21779
#
# Velocity S-wave (km/s) = 3.87904 3.97126 3.92542
# Velocity P-wave (km/s) = 6.25987 6.48903 6.37548
#
# Compressibility (1/GPa) = 0.02425693
#
# Stress axis : x y z
#
# Youngs Moduli (GPa) = 63.58087 63.58087 113.20429
#
# Poissons Ratio (x) = 0.17330 0.29946
# Poissons Ratio (y) = 0.17330 0.29946
# Poissons Ratio (z) = 0.16819 0.16819
#
# Static dielectric constant tensor:
#      x y z
#    x 1.850110 0.000000 0.000000 
#    y 0.000000 1.850110 0.000000 
#    z 0.000000 0.000000 1.775490 
# 
# From -- ./inp_files/45.got.cif
#   From: 2010.05.17/outbox.cif.g08.bks.cpg/sg171_1_cif.got.tgz:45.got - 2010.05.20 11:16:09.
