data_PCOD9580885
_publ_section_title
;
Structure prediction by ZEFSAII (Michael W. Deem and Ramdas Pophale) SiO2 
 PCOD9580885
Probable space group: P 62
;
_chemical_formula_sum "Si O2"
_cell_formula_units_Z 24
_cell_length_a 12.427939
_cell_length_b 12.427939
_cell_length_c 6.564010
_cell_angle_alpha 90.000000
_cell_angle_beta 90.000000
_cell_angle_gamma 120.000000
_cell_volume 878.007229
_symmetry_space_group_name_H-M "P 62"
_symmetry_group_IT_number 171
_symmetry_cell_setting 'hexagonal'
loop_
_space_group_symop_operation_xyz
x,y,z
x-y,x,1/3+z
-y,x-y,2/3+z
-x,-y,z
-x+y,-x,1/3+z
y,-x+y,2/3+z
loop_
_atom_site_type_symbol
_atom_site_label
_atom_site_fract_x
_atom_site_fract_y
_atom_site_fract_z
Si Si1 0.358991 0.052292 0.689150
Si Si2 0.192712 0.080246 0.184107
Si Si3 0.613953 0.409144 0.312546
Si Si4 0.682795 0.068308 0.280698
O O1 0.360124 0.177348 0.624312
O O2 0.218072 0.961469 0.760117
O O3 0.374325 0.975283 0.505104
O O4 0.300746 0.046787 0.214566
O O5 0.128267 0.093985 0.384138
O O6 0.587299 0.305605 0.135653
O O7 0.642496 0.532252 0.188581
O O8 0.499578 0.378892 0.461502
#
# Coordination Sequence:
#
# PCOD9580885 Si02
#       4
#     6   6   6   6
#     4  12  28  58  98 147 199 261 333 422 520 604
#     4  12  28  53  96 146 196 252 318 409 502 608
#     4  12  30  66 105 142 209 272 356 430 514 626
#     4  12  28  58  98 147 199 261 333 422 520 604
#
# _framework density 27.334624999999999
#
# number of rings (size 3 to 8) (size 9 to 14) (size 15 to 20)
#    0.000    0.000    7.500    0.000    3.500    3.000 
#    9.000   11.250    0.000    0.000    0.000    0.000 
#    0.000    0.000    0.000    0.000    0.000    0.000 
#
# Total GULP energy -134667.526050 kJ/mol
# GULP energy per Si atom -5611.146919 kJ/mol
# Density = 2.727241 g / cm^3
# Si number density = 27.334625 Si / 1000 Ang^3
#
#
#
# Elastic Constant Matrix: (Units=GPa)
#
#
# Indices 1 2 3 4 5 6 
#
# 1 180.5710 79.0164 108.1360 0.0000 0.0000 0.0000
# 2 79.0164 180.5710 108.1360 0.0000 0.0000 0.0000
# 3 108.1360 108.1360 226.9789 0.0000 0.0000 0.0000
# 4 0.0000 0.0000 0.0000 76.9112 0.0000 0.0000
# 5 0.0000 0.0000 0.0000 0.0000 76.9112 0.0000
# 6 0.0000 0.0000 0.0000 0.0000 0.0000 50.7773
#
#
#
# Elastic Compliance Matrix: (Units=1/GPa)
#
#
# Indices 1 2 3 4 5 6 
#
# 1 0.008117 -0.001730 -0.003043 0.000000 0.000000 0.000000
# 2 -0.001730 0.008117 -0.003043 0.000000 0.000000 0.000000
# 3 -0.003043 -0.003043 0.007305 0.000000 0.000000 0.000000
# 4 0.000000 0.000000 0.000000 0.013002 0.000000 0.000000
# 5 0.000000 0.000000 0.000000 0.000000 0.013002 0.000000
# 6 0.000000 0.000000 0.000000 0.000000 0.000000 0.019694
#
#
# Mechanical properties :
#
#
# Convention : Reuss Voigt Hill
#
# Bulk Modulus (GPa) = 126.45521 130.96639 128.71080
# Shear Modulus (GPa) = 57.13918 60.44211 58.79065
#
# Velocity S-wave (km/s) = 4.57700 4.70743 4.64268
# Velocity P-wave (km/s) = 8.61941 8.80698 8.71370
#
# Compressibility (1/GPa) = 0.00790794
#
# Stress axis : x y z
#
# Youngs Moduli (GPa) = 123.19398 123.19398 136.88676
#
# Poissons Ratio (x) = 0.21308 0.41657
# Poissons Ratio (y) = 0.21308 0.41657
# Poissons Ratio (z) = 0.37490 0.37490
#
# Static dielectric constant tensor:
#      x y z
#    x 2.127510 0.000000 0.000000 
#    y 0.000000 2.127510 0.000000 
#    z 0.000000 0.000000 2.275110 
# 
# From -- ./inp_files/4102.got.cif
#   From: 2010.05.17/outbox.cif.g08.bks.cpg/sg171_3_cif.got.tgz:4102.got - 2010.05.20 11:16:09.
