data_PCOD9580960
_publ_section_title
;
Structure prediction by ZEFSAII (Michael W. Deem and Ramdas Pophale) SiO2 
 PCOD9580960
Probable space group: P 64
;
_chemical_formula_sum "Si O2"
_cell_formula_units_Z 21
_cell_length_a 14.560780
_cell_length_b 14.560780
_cell_length_c 4.697272
_cell_angle_alpha 90.000000
_cell_angle_beta 90.000000
_cell_angle_gamma 120.000000
_cell_volume 862.473224
_symmetry_space_group_name_H-M "P 64"
_symmetry_group_IT_number 172
_symmetry_cell_setting 'hexagonal'
loop_
_space_group_symop_operation_xyz
x,y,z
x-y,x,2/3+z
-y,x-y,1/3+z
-x,-y,z
-x+y,-x,2/3+z
y,-x+y,1/3+z
loop_
_atom_site_type_symbol
_atom_site_label
_atom_site_fract_x
_atom_site_fract_y
_atom_site_fract_z
Si Si1 0.500000 0.000000 0.548861
Si Si2 0.368271 0.192427 0.782986
Si Si3 0.718178 0.665606 0.933160
Si Si4 0.433791 0.655433 0.155784
O O1 0.425687 0.029388 0.365613
O O2 0.585689 0.114641 0.673833
O O3 0.344245 0.149591 0.459832
O O4 0.354394 0.089528 0.942947
O O5 0.286617 0.226592 0.910163
O O6 0.482047 0.283432 0.903009
O O7 0.418119 0.737835 0.345101
#
# Coordination Sequence:
#
# PCOD9580960 Si02
#       4
#     3   6   6   6
#     4  10  22  40  60  96 134 182 234 278 346 410
#     4  11  24  42  70  96 140 177 230 281 346 409
#     4  11  23  44  65 102 131 184 224 287 341 415
#     4  11  22  39  61  92 138 181 232 282 342 415
#
# _framework density 24.348583999999999
#
# number of rings (size 3 to 8) (size 9 to 14) (size 15 to 20)
#    0.000    1.143    2.857    3.429    0.000    1.143 
#    5.143    0.000    0.000    8.571    0.000    0.000 
#    0.000    0.000    0.000    0.000    0.000    0.000 
#
# Total GULP energy -117271.213918 kJ/mol
# GULP energy per Si atom -5584.343520 kJ/mol
# Density = 2.429317 g / cm^3
# Si number density = 24.348584 Si / 1000 Ang^3
#
#
#
# Elastic Constant Matrix: (Units=GPa)
#
#
# Indices 1 2 3 4 5 6 
#
# 1 114.5667 51.4934 20.8337 0.0000 0.0000 0.0000
# 2 51.4934 114.5667 20.8337 0.0000 0.0000 0.0000
# 3 20.8337 20.8337 88.9223 0.0000 0.0000 0.0000
# 4 0.0000 0.0000 0.0000 10.8270 0.0000 0.0000
# 5 0.0000 0.0000 0.0000 0.0000 10.8270 0.0000
# 6 0.0000 0.0000 0.0000 0.0000 0.0000 31.5366
#
#
#
# Elastic Compliance Matrix: (Units=1/GPa)
#
#
# Indices 1 2 3 4 5 6 
#
# 1 0.011126 -0.004728 -0.001499 0.000000 0.000000 0.000000
# 2 -0.004728 0.011126 -0.001499 0.000000 0.000000 0.000000
# 3 -0.001499 -0.001499 0.011948 0.000000 0.000000 0.000000
# 4 0.000000 0.000000 0.000000 0.092362 0.000000 0.000000
# 5 0.000000 0.000000 0.000000 0.000000 0.092362 0.000000
# 6 0.000000 0.000000 0.000000 0.000000 0.000000 0.031709
#
#
# Mechanical properties :
#
#
# Convention : Reuss Voigt Hill
#
# Bulk Modulus (GPa) = 53.33829 56.04190 54.69010
# Shear Modulus (GPa) = 18.35967 25.63110 21.99539
#
# Velocity S-wave (km/s) = 2.74895 3.24801 3.00885
# Velocity P-wave (km/s) = 5.65944 6.09365 5.88056
#
# Compressibility (1/GPa) = 0.01874826
#
# Stress axis : x y z
#
# Youngs Moduli (GPa) = 89.87706 89.87706 83.69475
#
# Poissons Ratio (x) = 0.42496 0.12546
# Poissons Ratio (y) = 0.42496 0.12546
# Poissons Ratio (z) = 0.13473 0.13473
#
# Static dielectric constant tensor:
#      x y z
#    x 1.972260 0.000000 0.000000 
#    y 0.000000 1.972260 0.000000 
#    z 0.000000 0.000000 1.913680 
# 
# From -- ./inp_files/104.got.cif
#   From: 2010.05.17/outbox.cif.g08.bks.cpg/sg172_1_cif.got.tgz:104.got - 2010.05.20 11:19:57.
