data_PCOD9580540
_publ_section_title
;
Structure prediction by ZEFSAII (Michael W. Deem and Ramdas Pophale) SiO2 
 PCOD9580540
Probable space group: P 62
;
_chemical_formula_sum "Si O2"
_cell_formula_units_Z 39
_cell_length_a 20.108464
_cell_length_b 20.108464
_cell_length_c 4.908412
_cell_angle_alpha 90.000000
_cell_angle_beta 90.000000
_cell_angle_gamma 120.000000
_cell_volume 1718.816194
_symmetry_space_group_name_H-M "P 62"
_symmetry_group_IT_number 171
_symmetry_cell_setting 'hexagonal'
loop_
_space_group_symop_operation_xyz
x,y,z
x-y,x,1/3+z
-y,x-y,2/3+z
-x,-y,z
-x+y,-x,1/3+z
y,-x+y,2/3+z
loop_
_atom_site_type_symbol
_atom_site_label
_atom_site_fract_x
_atom_site_fract_y
_atom_site_fract_z
Si Si1 0.222378 0.214556 0.733830
Si Si2 0.407668 0.817273 0.199354
Si Si3 0.762421 0.915108 0.898608
Si Si4 0.459899 0.760489 0.715142
Si Si5 0.000000 0.500000 0.962725
Si Si6 0.347935 0.367717 0.863756
Si Si7 0.120109 0.728217 0.698201
O O1 0.197365 0.134381 0.875522
O O2 0.191519 0.203572 0.429273
O O3 0.311976 0.279264 0.765619
O O4 0.181414 0.248161 0.923394
O O5 0.450010 0.796206 0.435585
O O6 0.320320 0.774890 0.312739
O O7 0.456583 0.912012 0.157690
O O8 0.401775 0.768972 0.925923
O O9 0.677855 0.863906 0.019129
O O10 0.536476 0.812665 0.885168
O O11 0.006209 0.435751 0.140201
O O12 0.302045 0.395471 0.666278
O O13 0.324806 0.369998 0.174797
#
# Coordination Sequence:
#
# PCOD9580540 Si02
#       7
#     6   6   6   6   3   6   6
#     4  10  21  39  63  95 124 173 206 266 314 403
#     4  12  27  41  73  88 141 171 242 268 356 400
#     4  10  21  37  64  90 126 163 213 254 322 383
#     4  12  23  46  59  97 121 186 214 283 325 430
#     4  12  24  44  64 108 126 176 216 312 326 404
#     4  10  22  38  61  87 129 162 205 268 338 373
#     4  10  20  40  58  83 124 160 212 264 314 393
#
# _framework density 22.690038000000001
#
# number of rings (size 3 to 8) (size 9 to 14) (size 15 to 20)
#    0.000    1.231    3.077    2.769    2.154    2.462 
#    0.000    0.000    0.000    4.615    0.000    0.000 
#    0.000    0.000    0.000    0.000    0.000    0.000 
#
# Total GULP energy -217146.809571 kJ/mol
# GULP energy per Si atom -5567.866912 kJ/mol
# Density = 2.263839 g / cm^3
# Si number density = 22.690038 Si / 1000 Ang^3
#
#
#
# Elastic Constant Matrix: (Units=GPa)
#
#
# Indices 1 2 3 4 5 6 
#
# 1 63.2429 26.7000 13.0537 0.0000 0.0000 0.0000
# 2 26.7000 63.2429 13.0537 0.0000 0.0000 0.0000
# 3 13.0537 13.0537 111.0992 0.0000 0.0000 0.0000
# 4 0.0000 0.0000 0.0000 16.8232 0.0000 0.0000
# 5 0.0000 0.0000 0.0000 0.0000 16.8232 0.0000
# 6 0.0000 0.0000 0.0000 0.0000 0.0000 18.2714
#
#
#
# Elastic Compliance Matrix: (Units=1/GPa)
#
#
# Indices 1 2 3 4 5 6 
#
# 1 0.019438 -0.007927 -0.001352 0.000000 0.000000 0.000000
# 2 -0.007927 0.019438 -0.001352 0.000000 0.000000 0.000000
# 3 -0.001352 -0.001352 0.009319 0.000000 0.000000 0.000000
# 4 0.000000 0.000000 0.000000 0.059442 0.000000 0.000000
# 5 0.000000 0.000000 0.000000 0.000000 0.059442 0.000000
# 6 0.000000 0.000000 0.000000 0.000000 0.000000 0.054730
#
#
# Mechanical properties :
#
#
# Convention : Reuss Voigt Hill
#
# Bulk Modulus (GPa) = 37.13274 38.13330 37.63302
# Shear Modulus (GPa) = 19.83741 22.70208 21.26975
#
# Velocity S-wave (km/s) = 2.96003 3.16655 3.06503
# Velocity P-wave (km/s) = 5.29935 5.49655 5.39885
#
# Compressibility (1/GPa) = 0.02693041
#
# Stress axis : x y z
#
# Youngs Moduli (GPa) = 51.44579 51.44579 107.31012
#
# Poissons Ratio (x) = 0.40782 0.14513
# Poissons Ratio (y) = 0.40782 0.14513
# Poissons Ratio (z) = 0.06958 0.06958
#
# Static dielectric constant tensor:
#      x y z
#    x 1.935540 0.000000 0.000000 
#    y 0.000000 1.935540 0.000000 
#    z 0.000000 0.000000 1.813140 
# 
# From -- ./inp_files/445.got.cif
#   From: 2010.05.17/outbox.cif.g08.bks.cpg/sg171_1_cif.got.tgz:445.got - 2010.05.20 11:16:09.
