data_PCOD9580617
_publ_section_title
;
Structure prediction by ZEFSAII (Michael W. Deem and Ramdas Pophale) SiO2 
 PCOD9580617
Probable space group: P 62
;
_chemical_formula_sum "Si O2"
_cell_formula_units_Z 48
_cell_length_a 14.985799
_cell_length_b 14.985799
_cell_length_c 11.993042
_cell_angle_alpha 90.000000
_cell_angle_beta 90.000000
_cell_angle_gamma 120.000000
_cell_volume 2332.490012
_symmetry_space_group_name_H-M "P 62"
_symmetry_group_IT_number 171
_symmetry_cell_setting 'hexagonal'
loop_
_space_group_symop_operation_xyz
x,y,z
x-y,x,1/3+z
-y,x-y,2/3+z
-x,-y,z
-x+y,-x,1/3+z
y,-x+y,2/3+z
loop_
_atom_site_type_symbol
_atom_site_label
_atom_site_fract_x
_atom_site_fract_y
_atom_site_fract_z
Si Si1 0.121893 0.267739 0.094080
Si Si2 0.256719 0.752154 0.946074
Si Si3 0.408046 0.400657 0.333968
Si Si4 0.997939 0.220613 0.795321
Si Si5 0.690878 0.275118 0.703492
Si Si6 0.914469 0.031981 0.633442
Si Si7 0.826489 0.306310 0.495077
Si Si8 0.085715 0.776737 0.034820
O O1 0.123448 0.192345 0.999624
O O2 0.094075 0.195874 0.202106
O O3 0.224616 0.375404 0.102901
O O4 0.027573 0.289468 0.083499
O O5 0.247797 0.722867 0.815606
O O6 0.151203 0.722338 0.007953
O O7 0.325603 0.876491 0.958080
O O8 0.319574 0.706821 0.008952
O O9 0.500000 0.500000 0.396307
O O10 0.304532 0.329116 0.402965
O O11 0.379675 0.451344 0.232288
O O12 0.121729 0.273670 0.776801
O O13 0.953788 0.112424 0.733989
O O14 0.941308 0.194729 0.913918
O O15 0.737054 0.253380 0.591225
O O16 0.572816 0.203222 0.742216
O O17 0.000000 0.000000 0.608394
#
# Coordination Sequence:
#
# PCOD9580617 Si02
#       8
#     6   6   6   6   6   6   6   6
#     4  12  26  42  66 101 138 176 221 273 331 412
#     4  10  23  40  73  95 131 170 225 280 335 399
#     4  11  20  41  70 101 124 162 237 283 327 396
#     4  11  23  41  67  98 134 175 221 277 323 407
#     4  10  21  45  70  92 129 171 220 283 345 384
#     4  12  24  42  67  95 141 184 215 263 339 408
#     4  11  24  44  68  99 130 172 224 277 341 400
#     4  11  24  42  63 101 135 173 220 269 330 397
#
# _framework density 20.578868
#
# number of rings (size 3 to 8) (size 9 to 14) (size 15 to 20)
#    0.000    1.000    5.000    2.625    1.750    0.000 
#   13.500    0.625    0.000    0.000    0.000    0.000 
#    0.000    0.000    0.000    0.000    0.000    0.000 
#
# Total GULP energy -267979.649495 kJ/mol
# GULP energy per Si atom -5582.909364 kJ/mol
# Density = 2.053203 g / cm^3
# Si number density = 20.578868 Si / 1000 Ang^3
#
#
#
# Elastic Constant Matrix: (Units=GPa)
#
#
# Indices 1 2 3 4 5 6 
#
# 1 85.5738 2.0689 -6.8746 0.0000 0.0000 0.0000
# 2 2.0689 85.5738 -6.8746 0.0000 0.0000 0.0000
# 3 -6.8746 -6.8746 33.8768 0.0000 0.0000 0.0000
# 4 0.0000 0.0000 0.0000 22.9110 0.0000 0.0000
# 5 0.0000 0.0000 0.0000 0.0000 22.9110 0.0000
# 6 0.0000 0.0000 0.0000 0.0000 0.0000 41.7525
#
#
#
# Elastic Compliance Matrix: (Units=1/GPa)
#
#
# Indices 1 2 3 4 5 6 
#
# 1 0.011880 -0.000095 0.002392 0.000000 0.000000 0.000000
# 2 -0.000095 0.011880 0.002392 0.000000 0.000000 0.000000
# 3 0.002392 0.002392 0.030489 0.000000 0.000000 0.000000
# 4 0.000000 0.000000 0.000000 0.043647 0.000000 0.000000
# 5 0.000000 0.000000 0.000000 0.000000 0.043647 0.000000
# 6 0.000000 0.000000 0.000000 0.000000 0.000000 0.023951
#
#
# Mechanical properties :
#
#
# Convention : Reuss Voigt Hill
#
# Bulk Modulus (GPa) = 15.71690 20.18489 17.95089
# Shear Modulus (GPa) = 28.19641 31.96187 30.07914
#
# Velocity S-wave (km/s) = 3.70559 3.94527 3.82730
# Velocity P-wave (km/s) = 5.09534 5.53022 5.31723
#
# Compressibility (1/GPa) = 0.06362579
#
# Stress axis : x y z
#
# Youngs Moduli (GPa) = 84.17340 84.17340 32.79832
#
# Poissons Ratio (x) = 0.00800 -0.07844
# Poissons Ratio (y) = 0.00800 -0.07844
# Poissons Ratio (z) = -0.20130 -0.20130
#
# Static dielectric constant tensor:
#      x y z
#    x 1.744990 0.000000 0.000000 
#    y 0.000000 1.744990 0.000000 
#    z 0.000000 0.000000 1.777360 
# 
# From -- ./inp_files/4705.got.cif
#   From: 2010.05.17/outbox.cif.g08.bks.cpg/sg171_3_cif.got.tgz:4705.got - 2010.05.20 11:16:09.
