data_PCOD9580949
_publ_section_title
;
Structure prediction by ZEFSAII (Michael W. Deem and Ramdas Pophale) SiO2 
 PCOD9580949
Probable space group: P 64
;
_chemical_formula_sum "Si O2"
_cell_formula_units_Z 42
_cell_length_a 13.593818
_cell_length_b 13.593818
_cell_length_c 12.685677
_cell_angle_alpha 90.000000
_cell_angle_beta 90.000000
_cell_angle_gamma 120.000000
_cell_volume 2030.145586
_symmetry_space_group_name_H-M "P 64"
_symmetry_group_IT_number 172
_symmetry_cell_setting 'hexagonal'
loop_
_space_group_symop_operation_xyz
x,y,z
x-y,x,2/3+z
-y,x-y,1/3+z
-x,-y,z
-x+y,-x,2/3+z
y,-x+y,1/3+z
loop_
_atom_site_type_symbol
_atom_site_label
_atom_site_fract_x
_atom_site_fract_y
_atom_site_fract_z
Si Si1 0.908409 0.523140 0.650440
Si Si2 0.035035 0.742459 0.761618
Si Si3 0.784279 0.538038 0.463600
Si Si4 0.341262 0.195752 0.242069
Si Si5 0.993678 0.602199 0.070783
Si Si6 0.445058 0.251577 0.564924
Si Si7 0.401928 0.669459 0.156392
O O1 0.860208 0.578136 0.568192
O O2 0.801372 0.424459 0.712779
O O3 0.000000 0.500000 0.592834
O O4 0.985110 0.608780 0.742234
O O5 0.085470 0.794677 0.648205
O O6 0.139476 0.793183 0.842228
O O7 0.925116 0.739096 0.811577
O O8 0.690565 0.576836 0.455174
O O9 0.846356 0.578336 0.351498
O O10 0.732460 0.401836 0.468884
O O11 0.344085 0.291756 0.319294
O O12 0.473020 0.245568 0.205718
O O13 0.897475 0.544498 0.160099
O O14 0.000000 0.500000 0.015900
O O15 0.559218 0.242235 0.558390
#
# Coordination Sequence:
#
# PCOD9580949 Si02
#       7
#     6   6   6   6   6   6   6
#     4  11  23  40  61  93 132 171 220 269 333 392
#     4  10  21  40  62  92 122 170 221 267 322 400
#     4  12  24  39  59  94 132 171 209 272 323 383
#     4  10  22  38  67  92 125 170 223 269 326 394
#     4  11  22  37  57  86 127 173 218 261 314 393
#     4  11  22  37  60  85 123 173 223 256 317 388
#     4  11  22  37  60  89 127 179 217 255 310 399
#
# _framework density 20.688172999999999
#
# number of rings (size 3 to 8) (size 9 to 14) (size 15 to 20)
#    0.000    1.143    4.286    2.571    4.000    0.571 
#    5.143    0.000    0.000    0.000    0.000   12.000 
#    0.000    0.000    0.000    0.000    0.000    0.000 
#
# Total GULP energy -234254.505273 kJ/mol
# GULP energy per Si atom -5577.488221 kJ/mol
# Density = 2.064109 g / cm^3
# Si number density = 20.688173 Si / 1000 Ang^3
#
#
#
# Elastic Constant Matrix: (Units=GPa)
#
#
# Indices 1 2 3 4 5 6 
#
# 1 76.3491 26.2607 25.1245 0.0000 0.0000 0.0000
# 2 26.2607 76.3491 25.1245 0.0000 0.0000 0.0000
# 3 25.1245 25.1245 88.2367 0.0000 0.0000 0.0000
# 4 0.0000 0.0000 0.0000 36.6210 0.0000 0.0000
# 5 0.0000 0.0000 0.0000 0.0000 36.6210 0.0000
# 6 0.0000 0.0000 0.0000 0.0000 0.0000 25.0442
#
#
#
# Elastic Compliance Matrix: (Units=1/GPa)
#
#
# Indices 1 2 3 4 5 6 
#
# 1 0.015645 -0.004320 -0.003225 0.000000 0.000000 0.000000
# 2 -0.004320 0.015645 -0.003225 0.000000 0.000000 0.000000
# 3 -0.003225 -0.003225 0.013170 0.000000 0.000000 0.000000
# 4 0.000000 0.000000 0.000000 0.027307 0.000000 0.000000
# 5 0.000000 0.000000 0.000000 0.000000 0.027307 0.000000
# 6 0.000000 0.000000 0.000000 0.000000 0.000000 0.039929
#
#
# Mechanical properties :
#
#
# Convention : Reuss Voigt Hill
#
# Bulk Modulus (GPa) = 43.62885 43.77268 43.70076
# Shear Modulus (GPa) = 29.72998 30.61894 30.17446
#
# Velocity S-wave (km/s) = 3.79496 3.85128 3.82322
# Velocity P-wave (km/s) = 6.35113 6.40162 6.37642
#
# Compressibility (1/GPa) = 0.02292062
#
# Stress axis : x y z
#
# Youngs Moduli (GPa) = 63.91925 63.91925 75.93299
#
# Poissons Ratio (x) = 0.27613 0.24485
# Poissons Ratio (y) = 0.27613 0.24485
# Poissons Ratio (z) = 0.20611 0.20611
#
# Static dielectric constant tensor:
#      x y z
#    x 1.775810 0.000000 0.000000 
#    y 0.000000 1.775810 0.000000 
#    z 0.000000 0.000000 1.807500 
# 
# From -- ./inp_files/1112.got.cif
#   From: 2010.05.17/outbox.cif.g08.bks.cpg/sg172_1_cif.got.tgz:1112.got - 2010.05.20 11:19:57.
