data_PCOD9580896
_publ_section_title
;
Structure prediction by ZEFSAII (Michael W. Deem and Ramdas Pophale) SiO2 
 PCOD9580896
Probable space group: P 64
;
_chemical_formula_sum "Si O2"
_cell_formula_units_Z 45
_cell_length_a 14.832362
_cell_length_b 14.832362
_cell_length_c 11.031415
_cell_angle_alpha 90.000000
_cell_angle_beta 90.000000
_cell_angle_gamma 120.000000
_cell_volume 2101.756927
_symmetry_space_group_name_H-M "P 64"
_symmetry_group_IT_number 172
_symmetry_cell_setting 'hexagonal'
loop_
_space_group_symop_operation_xyz
x,y,z
x-y,x,2/3+z
-y,x-y,1/3+z
-x,-y,z
-x+y,-x,2/3+z
y,-x+y,1/3+z
loop_
_atom_site_type_symbol
_atom_site_label
_atom_site_fract_x
_atom_site_fract_y
_atom_site_fract_z
Si Si1 0.705062 0.257704 0.486480
Si Si2 0.319707 0.995966 0.216373
Si Si3 0.353945 0.152153 0.577049
Si Si4 0.335290 0.155668 0.025530
Si Si5 0.309014 0.016846 0.798323
Si Si6 0.159933 0.671743 0.701290
Si Si7 0.500000 0.500000 0.538345
Si Si8 0.515154 0.345096 0.721005
O O1 0.770510 0.221111 0.407029
O O2 0.588373 0.183752 0.443928
O O3 0.734020 0.254366 0.626553
O O4 0.748182 0.379646 0.455470
O O5 0.289550 0.064016 0.126883
O O6 0.436442 0.071734 0.265916
O O7 0.232075 0.939581 0.319831
O O8 0.330392 0.908335 0.142262
O O9 0.292343 0.059168 0.671496
O O10 0.298655 0.213127 0.523372
O O11 0.394757 0.122169 0.460493
O O12 0.459300 0.238534 0.645113
O O13 0.336634 0.103257 0.899987
O O14 0.409767 0.002130 0.793988
O O15 0.538371 0.438919 0.627987
#
# Coordination Sequence:
#
# PCOD9580896 Si02
#       8
#     6   6   6   6   6   6   3   6
#     4  11  23  38  63  90 144 184 236 273 346 397
#     4  11  23  40  67  96 139 174 249 284 363 407
#     4  11  25  40  65  91 139 173 233 280 352 414
#     4  11  20  39  64  99 121 181 229 299 334 421
#     4  11  21  41  64  96 128 178 234 285 346 414
#     4  11  26  41  58 101 136 186 221 291 343 424
#     4  10  18  32  58  94 128 168 228 278 328 396
#     4  11  19  37  62  92 125 184 235 278 317 419
#
# _framework density 21.410658000000002
#
# number of rings (size 3 to 8) (size 9 to 14) (size 15 to 20)
#    0.000    1.067    5.333    2.400    0.000    9.067 
#    0.000    1.333    0.000    0.000    0.000    9.333 
#    0.000    0.000    0.000    0.000    0.000    0.000 
#
# Total GULP energy -251278.588019 kJ/mol
# GULP energy per Si atom -5583.968623 kJ/mol
# Density = 2.136193 g / cm^3
# Si number density = 21.410658 Si / 1000 Ang^3
#
#
#
# Elastic Constant Matrix: (Units=GPa)
#
#
# Indices 1 2 3 4 5 6 
#
# 1 72.8466 42.1654 43.3051 0.0000 0.0000 0.0000
# 2 42.1654 72.8466 43.3051 0.0000 0.0000 0.0000
# 3 43.3051 43.3051 106.4482 0.0000 0.0000 0.0000
# 4 0.0000 0.0000 0.0000 -9.9824 0.0000 0.0000
# 5 0.0000 0.0000 0.0000 0.0000 -9.9824 0.0000
# 6 0.0000 0.0000 0.0000 0.0000 0.0000 15.3406
#
#
#
# Elastic Compliance Matrix: (Units=1/GPa)
#
#
# Indices 1 2 3 4 5 6 
#
# 1 0.022564 -0.010029 -0.005099 0.000000 0.000000 0.000000
# 2 -0.010029 0.022564 -0.005099 0.000000 0.000000 0.000000
# 3 -0.005099 -0.005099 0.013543 0.000000 0.000000 0.000000
# 4 0.000000 0.000000 0.000000 -0.100176 0.000000 0.000000
# 5 0.000000 0.000000 0.000000 0.000000 -0.100176 0.000000
# 6 0.000000 0.000000 0.000000 0.000000 0.000000 0.065186
#
#
# Mechanical properties :
#
#
# Convention : Reuss Voigt Hill
#
# Bulk Modulus (GPa) = 54.89861 56.63250 55.76555
# Shear Modulus (GPa) = -166.85572 7.29953 -79.77809
#
# Velocity S-wave (km/s) = -8.83744 1.84843 -6.11079
# Velocity P-wave (km/s) = 8.85648 5.57348 4.86691
#
# Compressibility (1/GPa) = 0.01821540
#
# Stress axis : x y z
#
# Youngs Moduli (GPa) = 44.31827 44.31827 73.83718
#
# Poissons Ratio (x) = 0.44448 0.37653
# Poissons Ratio (y) = 0.44448 0.37653
# Poissons Ratio (z) = 0.22600 0.22600
#
# Static dielectric constant tensor:
#      x y z
#    x 1.841590 0.000000 0.000000 
#    y 0.000000 1.841590 0.000000 
#    z 0.000000 0.000000 1.805970 
# 
# From -- ./inp_files/1143.got.cif
#   From: 2010.05.17/outbox.cif.g08.bks.cpg/sg172_1_cif.got.tgz:1143.got - 2010.05.20 11:19:57.
