data_PCOD9580364
_publ_section_title
;
Structure prediction by ZEFSAII (Michael W. Deem and Ramdas Pophale) SiO2 
 PCOD9580364
Probable space group: P 65
;
_chemical_formula_sum "Si O2"
_cell_formula_units_Z 48
_cell_length_a 14.936632
_cell_length_b 14.936632
_cell_length_c 12.014815
_cell_angle_alpha 90.000000
_cell_angle_beta 90.000000
_cell_angle_gamma 120.000000
_cell_volume 2321.416582
_symmetry_space_group_name_H-M "P 65"
_symmetry_group_IT_number 170
_symmetry_cell_setting 'hexagonal'
loop_
_space_group_symop_operation_xyz
x,y,z
x-y,x,5/6+z
-y,x-y,2/3+z
-x,-y,1/2+z
-x+y,-x,1/3+z
y,-x+y,1/6+z
loop_
_atom_site_type_symbol
_atom_site_label
_atom_site_fract_x
_atom_site_fract_y
_atom_site_fract_z
Si Si1 0.439725 0.934775 0.356290
Si Si2 0.676243 0.777612 0.274226
Si Si3 0.606743 0.886365 0.460331
Si Si4 0.426970 0.684829 0.531475
Si Si5 0.178974 0.053305 0.595356
Si Si6 0.376232 0.906216 0.751735
Si Si7 0.679697 0.432499 0.823631
Si Si8 0.632438 0.975573 0.036055
O O1 0.529814 0.924004 0.415573
O O2 0.386523 0.836530 0.277370
O O3 0.504980 0.042038 0.289275
O O4 0.366844 0.943735 0.447105
O O5 0.641210 0.835744 0.361378
O O6 0.718518 0.708544 0.333433
O O7 0.761141 0.858551 0.189006
O O8 0.586585 0.698886 0.190122
O O9 0.529845 0.795738 0.541829
O O10 0.315575 0.674422 0.556134
O O11 0.412073 0.644380 0.405678
O O12 0.136606 0.093668 0.497383
O O13 0.264098 0.029929 0.542853
O O14 0.326762 0.795061 0.697743
O O15 0.378142 0.986925 0.659811
O O16 0.671749 0.536465 0.830869
#
# Coordination Sequence:
#
# PCOD9580364 Si02
#       8
#     6   6   6   6   6   6   6   6
#     4  11  24  41  63  97 132 179 226 280 342 403
#     4  11  21  41  70 103 132 170 237 279 346 400
#     4  11  24  40  69 100 136 180 225 289 335 418
#     4  12  25  41  61  95 143 177 228 275 351 416
#     4  12  23  45  76 105 133 175 235 296 346 421
#     4  11  22  38  67  95 129 177 225 287 333 404
#     4  12  24  40  64  96 131 180 226 280 334 422
#     4  12  23  42  68  99 134 176 236 286 349 408
#
# _framework density 20.677029999999998
#
# number of rings (size 3 to 8) (size 9 to 14) (size 15 to 20)
#    0.000    0.500    6.250    3.000    3.500    1.000 
#    2.250    1.250    0.000    0.000    0.000    0.000 
#    0.000    0.000    0.000    0.000    0.000    0.000 
#
# Total GULP energy -267878.983631 kJ/mol
# GULP energy per Si atom -5580.812159 kJ/mol
# Density = 2.062997 g / cm^3
# Si number density = 20.677030 Si / 1000 Ang^3
#
#
#
# Elastic Constant Matrix: (Units=GPa)
#
#
# Indices 1 2 3 4 5 6 
#
# 1 84.4860 39.2590 26.0760 0.0000 0.0000 0.0000
# 2 39.2590 84.4860 26.0760 0.0000 0.0000 0.0000
# 3 26.0760 26.0760 37.9246 0.0000 0.0000 0.0000
# 4 0.0000 0.0000 0.0000 31.5342 0.0000 0.0000
# 5 0.0000 0.0000 0.0000 0.0000 31.5342 0.0000
# 6 0.0000 0.0000 0.0000 0.0000 0.0000 22.6135
#
#
#
# Elastic Compliance Matrix: (Units=1/GPa)
#
#
# Indices 1 2 3 4 5 6 
#
# 1 0.016745 -0.005366 -0.007823 0.000000 0.000000 0.000000
# 2 -0.005366 0.016745 -0.007823 0.000000 0.000000 0.000000
# 3 -0.007823 -0.007823 0.037127 0.000000 0.000000 0.000000
# 4 0.000000 0.000000 0.000000 0.031712 0.000000 0.000000
# 5 0.000000 0.000000 0.000000 0.000000 0.031712 0.000000
# 6 0.000000 0.000000 0.000000 0.000000 0.000000 0.044221
#
#
# Mechanical properties :
#
#
# Convention : Reuss Voigt Hill
#
# Bulk Modulus (GPa) = 34.97802 43.30206 39.14004
# Shear Modulus (GPa) = 21.75653 24.83541 23.29597
#
# Velocity S-wave (km/s) = 3.24729 3.46947 3.36022
# Velocity P-wave (km/s) = 5.56893 6.08582 5.83310
#
# Compressibility (1/GPa) = 0.02858939
#
# Stress axis : x y z
#
# Youngs Moduli (GPa) = 59.72108 59.72108 26.93493
#
# Poissons Ratio (x) = 0.32048 0.21072
# Poissons Ratio (y) = 0.32048 0.21072
# Poissons Ratio (z) = 0.46722 0.46722
#
# Static dielectric constant tensor:
#      x y z
#    x 1.785000 0.000000 0.000000 
#    y 0.000000 1.785000 0.000000 
#    z 0.000000 0.000000 1.820420 
# 
# From -- ./inp_files/1099.got.cif
#   From: 2010.05.17/outbox.cif.g08.bks.cpg/sg170_cif.got.tgz:1099.got - 2010.05.20 11:14:30.
