data_PCOD9580663
_publ_section_title
;
Structure prediction by ZEFSAII (Michael W. Deem and Ramdas Pophale) SiO2 
 PCOD9580663
Probable space group: P 62
;
_chemical_formula_sum "Si O2"
_cell_formula_units_Z 36
_cell_length_a 8.198859
_cell_length_b 8.198859
_cell_length_c 25.716128
_cell_angle_alpha 90.000000
_cell_angle_beta 90.000000
_cell_angle_gamma 120.000000
_cell_volume 1497.073234
_symmetry_space_group_name_H-M "P 62"
_symmetry_group_IT_number 171
_symmetry_cell_setting 'hexagonal'
loop_
_space_group_symop_operation_xyz
x,y,z
x-y,x,1/3+z
-y,x-y,2/3+z
-x,-y,z
-x+y,-x,1/3+z
y,-x+y,2/3+z
loop_
_atom_site_type_symbol
_atom_site_label
_atom_site_fract_x
_atom_site_fract_y
_atom_site_fract_z
Si Si1 0.005384 0.803332 0.847530
Si Si2 0.458531 0.307531 0.612603
Si Si3 0.308250 0.958890 0.459158
Si Si4 0.812594 0.301929 0.562020
Si Si5 0.220872 0.154201 0.987475
Si Si6 0.347383 0.280702 0.091290
O O1 0.970822 0.694667 0.901095
O O2 0.822532 0.672905 0.813352
O O3 0.000000 0.000000 0.853350
O O4 0.179914 0.835969 0.811986
O O5 0.500000 0.500000 0.639584
O O6 0.643668 0.321811 0.586954
O O7 0.357135 0.120857 0.646744
O O8 0.264530 0.823541 0.509788
O O9 0.124583 0.855128 0.424533
O O10 0.500000 0.000000 0.433777
O O11 0.869739 0.190775 0.603465
O O12 0.000000 0.500000 0.553073
O O13 0.337793 0.168376 0.039377
O O14 0.000000 0.000000 0.990103
O O15 0.500000 0.500000 0.090227
#
# Coordination Sequence:
#
# PCOD9580663 Si02
#       6
#     6   6   6   6   6   6
#     4  10  22  41  66  99 134 185 230 292 350 415
#     4  12  25  40  70 107 142 181 243 292 351 426
#     4  11  21  41  69 102 138 181 236 293 348 415
#     4  12  25  43  72 104 139 189 239 293 352 417
#     4  12  25  49  71 103 143 193 233 297 360 416
#     4  11  26  44  71 100 146 187 238 288 357 431
#
# _framework density 24.046918999999999
#
# number of rings (size 3 to 8) (size 9 to 14) (size 15 to 20)
#    0.000    0.667    3.333    5.000    9.333    0.667 
#    0.000    5.833    0.000    0.000    0.000    0.000 
#    0.000    0.000    0.000    0.000    0.000    0.000 
#
# Total GULP energy -201559.359414 kJ/mol
# GULP energy per Si atom -5598.871095 kJ/mol
# Density = 2.399219 g / cm^3
# Si number density = 24.046919 Si / 1000 Ang^3
#
#
#
# Elastic Constant Matrix: (Units=GPa)
#
#
# Indices 1 2 3 4 5 6 
#
# 1 98.5598 16.8939 19.4096 0.0000 0.0000 0.0000
# 2 16.8939 98.5598 19.4096 0.0000 0.0000 0.0000
# 3 19.4096 19.4096 113.1066 0.0000 0.0000 0.0000
# 4 0.0000 0.0000 0.0000 10.3558 0.0000 0.0000
# 5 0.0000 0.0000 0.0000 0.0000 10.3558 0.0000
# 6 0.0000 0.0000 0.0000 0.0000 0.0000 40.8329
#
#
#
# Elastic Compliance Matrix: (Units=1/GPa)
#
#
# Indices 1 2 3 4 5 6 
#
# 1 0.010718 -0.001527 -0.001577 0.000000 0.000000 0.000000
# 2 -0.001527 0.010718 -0.001577 0.000000 0.000000 0.000000
# 3 -0.001577 -0.001577 0.009383 0.000000 0.000000 0.000000
# 4 0.000000 0.000000 0.000000 0.096564 0.000000 0.000000
# 5 0.000000 0.000000 0.000000 0.000000 0.096564 0.000000
# 6 0.000000 0.000000 0.000000 0.000000 0.000000 0.024490
#
#
# Mechanical properties :
#
#
# Convention : Reuss Voigt Hill
#
# Bulk Modulus (GPa) = 46.60522 46.85025 46.72773
# Shear Modulus (GPa) = 18.87127 29.27644 24.07386
#
# Velocity S-wave (km/s) = 2.80441 3.49301 3.16748
# Velocity P-wave (km/s) = 5.46894 5.98275 5.73161
#
# Compressibility (1/GPa) = 0.02145682
#
# Stress axis : x y z
#
# Youngs Moduli (GPa) = 93.29725 93.29725 106.58053
#
# Poissons Ratio (x) = 0.14243 0.16812
# Poissons Ratio (y) = 0.14243 0.16812
# Poissons Ratio (z) = 0.14716 0.14716
#
# Static dielectric constant tensor:
#      x y z
#    x 1.935840 0.000000 0.000000 
#    y 0.000000 1.935840 0.000000 
#    z 0.000000 0.000000 1.930780 
# 
# From -- ./inp_files/5798.got.cif
#   From: 2010.05.17/outbox.cif.g08.bks.cpg/sg171_3_cif.got.tgz:5798.got - 2010.05.20 11:16:09.
