data_PCOD9580587
_publ_section_title
;
Structure prediction by ZEFSAII (Michael W. Deem and Ramdas Pophale) SiO2 
 PCOD9580587
Probable space group: P 62
;
_chemical_formula_sum "Si O2"
_cell_formula_units_Z 33
_cell_length_a 10.015644
_cell_length_b 10.015644
_cell_length_c 18.773653
_cell_angle_alpha 90.000000
_cell_angle_beta 90.000000
_cell_angle_gamma 120.000000
_cell_volume 1630.936968
_symmetry_space_group_name_H-M "P 62"
_symmetry_group_IT_number 171
_symmetry_cell_setting 'hexagonal'
loop_
_space_group_symop_operation_xyz
x,y,z
x-y,x,1/3+z
-y,x-y,2/3+z
-x,-y,z
-x+y,-x,1/3+z
y,-x+y,2/3+z
loop_
_atom_site_type_symbol
_atom_site_label
_atom_site_fract_x
_atom_site_fract_y
_atom_site_fract_z
Si Si1 0.944800 0.708668 0.956610
Si Si2 0.162021 0.705289 0.732875
Si Si3 0.291332 0.055200 0.761009
Si Si4 0.500000 0.000000 0.197147
Si Si5 0.500000 0.000000 0.853805
Si Si6 0.000000 0.000000 0.192143
Si Si7 0.294711 0.837979 0.984744
O O1 0.903555 0.560333 0.908353
O O2 0.961906 0.852057 0.908640
O O3 0.113632 0.750334 0.983854
O O4 0.842055 0.684111 0.025476
O O5 0.113401 0.636937 0.811617
O O6 0.238903 0.619452 0.692143
O O7 1.000000 0.646857 0.692143
O O8 0.249666 0.886368 0.733765
O O9 0.439667 0.096445 0.809266
O O10 0.147943 0.038094 0.808980
O O11 0.363062 0.886599 0.906002
#
# Coordination Sequence:
#
# PCOD9580587 Si02
#       7
#     6   6   6   3   3   3   6
#     4  12  24  38  67 102 135 177 243 298 342 415
#     4   9  19  38  62  89 127 180 223 274 357 419
#     4  12  24  38  67 102 135 177 243 298 342 415
#     4  10  21  40  56  89 136 182 202 280 368 423
#     4  10  21  40  56  89 136 182 202 280 368 423
#     4  12  22  40  68 100 136 174 242 318 340 398
#     4   9  19  38  62  89 127 180 223 274 357 419
#
# _framework density 20.233765999999999
#
# number of rings (size 3 to 8) (size 9 to 14) (size 15 to 20)
#    0.000    1.818    3.636    2.727    5.091    1.455 
#    0.000    0.000    0.000    0.000    0.000    0.000 
#    0.000    0.000    0.000    0.000    0.000    0.000 
#
# Total GULP energy -184265.322706 kJ/mol
# GULP energy per Si atom -5583.797658 kJ/mol
# Density = 2.018771 g / cm^3
# Si number density = 20.233766 Si / 1000 Ang^3
#
#
#
# Elastic Constant Matrix: (Units=GPa)
#
#
# Indices 1 2 3 4 5 6 
#
# 1 100.5374 34.2149 62.5775 0.0000 0.0000 0.0000
# 2 34.2149 100.5374 62.5775 0.0000 0.0000 0.0000
# 3 62.5775 62.5775 155.3044 0.0000 0.0000 0.0000
# 4 0.0000 0.0000 0.0000 -387.2846 0.0000 0.0000
# 5 0.0000 0.0000 0.0000 0.0000 -387.2846 0.0000
# 6 0.0000 0.0000 0.0000 0.0000 0.0000 33.1612
#
#
#
# Elastic Compliance Matrix: (Units=1/GPa)
#
#
# Indices 1 2 3 4 5 6 
#
# 1 0.013469 -0.001609 -0.004778 0.000000 0.000000 0.000000
# 2 -0.001609 0.013469 -0.004778 0.000000 0.000000 0.000000
# 3 -0.004778 -0.004778 0.010290 0.000000 0.000000 0.000000
# 4 0.000000 0.000000 0.000000 -0.002582 0.000000 0.000000
# 5 0.000000 0.000000 0.000000 0.000000 -0.002582 0.000000
# 6 0.000000 0.000000 0.000000 0.000000 0.000000 0.030156
#
#
# Mechanical properties :
#
#
# Convention : Reuss Voigt Hill
#
# Bulk Modulus (GPa) = 67.14004 75.01321 71.07663
# Shear Modulus (GPa) = 55.85617 -135.14766 -39.64574
#
# Velocity S-wave (km/s) = 5.25979 -8.18157 -4.43130
# Velocity P-wave (km/s) = 8.37504 7.21783 3.00369
#
# Compressibility (1/GPa) = 0.01489424
#
# Stress axis : x y z
#
# Youngs Moduli (GPa) = 74.24730 74.24730 97.18377
#
# Poissons Ratio (x) = 0.11949 0.46439
# Poissons Ratio (y) = 0.11949 0.46439
# Poissons Ratio (z) = 0.35479 0.35479
#
# Static dielectric constant tensor:
#      x y z
#    x 1.809120 0.000000 0.000000 
#    y 0.000000 1.809120 0.000000 
#    z 0.000000 0.000000 1.820930 
# 
# From -- ./inp_files/2930.got.cif
#   From: 2010.05.17/outbox.cif.g08.bks.cpg/sg171_2_cif.got.tgz:2930.got - 2010.05.20 11:16:09.
