data_PCOD9580160
_publ_section_title
;
Structure prediction by ZEFSAII (Michael W. Deem and Ramdas Pophale) SiO2 
 PCOD9580160
Probable space group: P 65
;
_chemical_formula_sum "Si O2"
_cell_formula_units_Z 48
_cell_length_a 18.472587
_cell_length_b 18.472587
_cell_length_c 6.623658
_cell_angle_alpha 90.000000
_cell_angle_beta 90.000000
_cell_angle_gamma 120.000000
_cell_volume 1957.419783
_symmetry_space_group_name_H-M "P 65"
_symmetry_group_IT_number 170
_symmetry_cell_setting 'hexagonal'
loop_
_space_group_symop_operation_xyz
x,y,z
x-y,x,5/6+z
-y,x-y,2/3+z
-x,-y,1/2+z
-x+y,-x,1/3+z
y,-x+y,1/6+z
loop_
_atom_site_type_symbol
_atom_site_label
_atom_site_fract_x
_atom_site_fract_y
_atom_site_fract_z
Si Si1 0.304997 0.993063 0.829080
Si Si2 0.791443 0.566187 0.509177
Si Si3 0.682512 0.955250 0.805774
Si Si4 0.643271 0.392769 0.610121
Si Si5 0.423662 0.928933 0.940061
Si Si6 0.309257 0.154720 0.805307
Si Si7 0.826869 0.868043 0.623800
Si Si8 0.457030 0.393137 0.233162
O O1 0.371060 0.961605 0.814015
O O2 0.214679 0.911809 0.809335
O O3 0.318378 0.077560 0.726586
O O4 0.309827 0.020229 0.066138
O O5 0.776616 0.632681 0.632476
O O6 0.707137 0.477440 0.489262
O O7 0.823833 0.613622 0.292813
O O8 0.854794 0.546622 0.630877
O O9 0.776963 0.012124 0.880716
O O10 0.626655 0.989120 0.897994
O O11 0.616090 0.311266 0.466988
O O12 0.568803 0.411114 0.678755
O O13 0.511981 0.015896 0.970273
O O14 0.394475 0.907533 0.169523
O O15 0.224397 0.121807 0.937063
O O16 0.905543 0.857511 0.576857
#
# Coordination Sequence:
#
# PCOD9580160 Si02
#       8
#     6   6   6   6   6   6   6   6
#     4   9  18  32  58  90 129 164 222 272 340 407
#     4  11  19  36  66  92 129 166 219 286 333 410
#     4   9  16  33  57  92 117 159 216 277 334 401
#     4  12  29  49  71 102 141 186 235 291 357 419
#     4  11  24  43  61  97 136 174 226 277 347 414
#     4  10  16  31  60  95 122 166 215 281 335 400
#     4  11  17  28  52  87 118 157 216 271 328 405
#     4  11  21  38  65  97 130 170 221 281 346 412
#
# _framework density 24.522079999999999
#
# number of rings (size 3 to 8) (size 9 to 14) (size 15 to 20)
#    0.000    1.500    8.750    0.750    1.750    0.000 
#    2.250    0.000    0.000    1.500    0.000    0.000 
#    0.000    0.000    0.000    0.000    0.000    0.000 
#
# Total GULP energy -268060.564436 kJ/mol
# GULP energy per Si atom -5584.595092 kJ/mol
# Density = 2.446627 g / cm^3
# Si number density = 24.522080 Si / 1000 Ang^3
#
#
#
# Elastic Constant Matrix: (Units=GPa)
#
#
# Indices 1 2 3 4 5 6 
#
# 1 148.8714 48.3709 20.0025 0.0000 0.0000 0.0000
# 2 48.3709 148.8714 20.0025 0.0000 0.0000 0.0000
# 3 20.0025 20.0025 57.8598 0.0000 0.0000 0.0000
# 4 0.0000 0.0000 0.0000 28.0647 0.0000 0.0000
# 5 0.0000 0.0000 0.0000 0.0000 28.0647 0.0000
# 6 0.0000 0.0000 0.0000 0.0000 0.0000 50.2502
#
#
#
# Elastic Compliance Matrix: (Units=1/GPa)
#
#
# Indices 1 2 3 4 5 6 
#
# 1 0.007701 -0.002249 -0.001885 0.000000 0.000000 0.000000
# 2 -0.002249 0.007701 -0.001885 0.000000 0.000000 0.000000
# 3 -0.001885 -0.001885 0.018586 0.000000 0.000000 0.000000
# 4 0.000000 0.000000 0.000000 0.035632 0.000000 0.000000
# 5 0.000000 0.000000 0.000000 0.000000 0.035632 0.000000
# 6 0.000000 0.000000 0.000000 0.000000 0.000000 0.019900
#
#
# Mechanical properties :
#
#
# Convention : Reuss Voigt Hill
#
# Bulk Modulus (GPa) = 45.55532 59.15048 52.35290
# Shear Modulus (GPa) = 34.60023 39.09103 36.84563
#
# Velocity S-wave (km/s) = 3.76038 3.99697 3.88048
# Velocity P-wave (km/s) = 6.12140 6.74349 6.43996
#
# Compressibility (1/GPa) = 0.02195133
#
# Stress axis : x y z
#
# Youngs Moduli (GPa) = 129.84989 129.84989 53.80282
#
# Poissons Ratio (x) = 0.29203 0.10141
# Poissons Ratio (y) = 0.29203 0.10141
# Poissons Ratio (z) = 0.24475 0.24475
#
# Static dielectric constant tensor:
#      x y z
#    x 1.942860 0.000000 0.000000 
#    y 0.000000 1.942860 0.000000 
#    z 0.000000 0.000000 2.122150 
# 
# From -- ./inp_files/751.got.cif
#   From: 2010.05.17/outbox.cif.g08.bks.cpg/sg170_cif.got.tgz:751.got - 2010.05.20 11:14:30.
