data_PCOD9580007
_publ_section_title
;
Structure prediction by ZEFSAII (Michael W. Deem and Ramdas Pophale) SiO2 
 PCOD9580007
Probable space group: P 61
;
_chemical_formula_sum "Si O2"
_cell_formula_units_Z 48
_cell_length_a 10.732169
_cell_length_b 10.732169
_cell_length_c 18.333365
_cell_angle_alpha 90.000000
_cell_angle_beta 90.000000
_cell_angle_gamma 120.000000
_cell_volume 1828.722559
_symmetry_space_group_name_H-M "P 61"
_symmetry_group_IT_number 169
_symmetry_cell_setting 'hexagonal'
loop_
_space_group_symop_operation_xyz
x,y,z
x-y,x,1/6+z
-y,x-y,1/3+z
-x,-y,1/2+z
-x+y,-x,2/3+z
y,-x+y,5/6+z
loop_
_atom_site_type_symbol
_atom_site_label
_atom_site_fract_x
_atom_site_fract_y
_atom_site_fract_z
Si Si1 0.942244 0.946142 0.010700
Si Si2 0.656037 0.168553 0.868297
Si Si3 0.107164 0.743221 0.735871
Si Si4 0.191441 0.501339 0.207754
Si Si5 0.722959 0.633760 0.980228
Si Si6 0.262805 0.914777 0.516925
Si Si7 0.544711 0.227365 0.189638
Si Si8 0.360477 0.351650 0.839570
O O1 0.022158 0.999736 0.091384
O O2 0.858473 0.771487 0.015377
O O3 0.830373 0.006228 0.008770
O O4 0.496228 0.134393 0.850882
O O5 0.728011 0.338126 0.879860
O O6 0.690474 0.082870 0.808430
O O7 0.661503 0.090982 0.942894
O O8 0.200435 0.762424 0.807383
O O9 0.182283 0.894934 0.695450
O O10 0.939475 0.641659 0.745021
O O11 0.156013 0.628730 0.185744
O O12 0.308788 0.553434 0.270054
O O13 0.770737 0.597363 0.903822
O O14 0.359918 0.988915 0.586134
O O15 0.149643 0.747597 0.532046
O O16 0.579443 0.098811 0.204622
#
# Coordination Sequence:
#
# PCOD9580007 Si02
#       8
#     6   6   6   6   6   6   6   6
#     4  12  27  54  79 116 161 208 276 336 421 493
#     4  10  22  42  73 103 147 190 252 326 382 478
#     4  10  22  44  66 101 147 193 243 313 398 453
#     4  11  23  46  70 103 152 199 255 319 395 488
#     4  11  24  47  74 108 153 207 258 328 413 476
#     4  12  23  43  74 109 139 201 266 324 394 478
#     4  11  26  44  70 114 151 204 259 326 411 486
#     4  11  23  40  70 104 142 188 261 318 386 474
#
# _framework density 26.247827999999998
#
# number of rings (size 3 to 8) (size 9 to 14) (size 15 to 20)
#    0.000    1.000    5.000    1.500    5.250    3.000 
#    6.750    0.000    0.000    0.000    0.000    0.000 
#    0.000    0.000    0.000    0.000    0.000    0.000 
#
# Total GULP energy -267695.000743 kJ/mol
# GULP energy per Si atom -5576.979182 kJ/mol
# Density = 2.618809 g / cm^3
# Si number density = 26.247828 Si / 1000 Ang^3
#
#
#
# Elastic Constant Matrix: (Units=GPa)
#
#
# Indices 1 2 3 4 5 6 
#
# 1 63.8836 28.9288 37.2801 0.0000 0.0000 0.0000
# 2 28.9288 63.8836 37.2801 0.0000 0.0000 0.0000
# 3 37.2801 37.2801 169.6765 0.0000 0.0000 0.0000
# 4 0.0000 0.0000 0.0000 38.7865 0.0000 0.0000
# 5 0.0000 0.0000 0.0000 0.0000 38.7865 0.0000
# 6 0.0000 0.0000 0.0000 0.0000 0.0000 17.4774
#
#
#
# Elastic Compliance Matrix: (Units=1/GPa)
#
#
# Indices 1 2 3 4 5 6 
#
# 1 0.020846 -0.007762 -0.002875 0.000000 0.000000 0.000000
# 2 -0.007762 0.020846 -0.002875 0.000000 0.000000 0.000000
# 3 -0.002875 -0.002875 0.007157 0.000000 0.000000 0.000000
# 4 0.000000 0.000000 0.000000 0.025782 0.000000 0.000000
# 5 0.000000 0.000000 0.000000 0.000000 0.025782 0.000000
# 6 0.000000 0.000000 0.000000 0.000000 0.000000 0.057217
#
#
# Mechanical properties :
#
#
# Convention : Reuss Voigt Hill
#
# Bulk Modulus (GPa) = 45.81772 56.04687 50.93230
# Shear Modulus (GPa) = 26.05136 31.94039 28.99587
#
# Velocity S-wave (km/s) = 3.15384 3.49216 3.32730
# Velocity P-wave (km/s) = 5.54581 6.13674 5.84874
#
# Compressibility (1/GPa) = 0.02182562
#
# Stress axis : x y z
#
# Youngs Moduli (GPa) = 47.97064 47.97064 139.72779
#
# Poissons Ratio (x) = 0.37236 0.40167
# Poissons Ratio (y) = 0.37236 0.40167
# Poissons Ratio (z) = 0.13790 0.13790
#
# Static dielectric constant tensor:
#      x y z
#    x 2.135960 0.000000 0.000000 
#    y 0.000000 2.135960 0.000000 
#    z 0.000000 0.000000 2.112850 
# 
# From -- ./inp_files/1430.got.cif
#   From: 2010.05.17/outbox.cif.g08.bks.cpg/sg169_cif.got.tgz:1430.got - 2010.05.20 11:12:54.
