data_PCOD9580055
_publ_section_title
;
Structure prediction by ZEFSAII (Michael W. Deem and Ramdas Pophale) SiO2 
 PCOD9580055
Probable space group: P 61
;
_chemical_formula_sum "Si O2"
_cell_formula_units_Z 42
_cell_length_a 8.780902
_cell_length_b 8.780902
_cell_length_c 29.177274
_cell_angle_alpha 90.000000
_cell_angle_beta 90.000000
_cell_angle_gamma 120.000000
_cell_volume 1948.290020
_symmetry_space_group_name_H-M "P 61"
_symmetry_group_IT_number 169
_symmetry_cell_setting 'hexagonal'
loop_
_space_group_symop_operation_xyz
x,y,z
x-y,x,1/6+z
-y,x-y,1/3+z
-x,-y,1/2+z
-x+y,-x,2/3+z
y,-x+y,5/6+z
loop_
_atom_site_type_symbol
_atom_site_label
_atom_site_fract_x
_atom_site_fract_y
_atom_site_fract_z
Si Si1 0.998595 0.963149 0.606550
Si Si2 0.229746 0.149023 0.190306
Si Si3 0.427137 0.359532 0.925788
Si Si4 0.301940 0.640491 0.367392
Si Si5 0.119414 0.378573 0.773208
Si Si6 0.462721 0.766439 0.508086
Si Si7 0.722686 0.446714 0.095031
O O1 0.855177 0.952679 0.643122
O O2 0.983924 0.774639 0.598427
O O3 0.956122 0.039840 0.561607
O O4 0.199465 0.089199 0.621426
O O5 0.429441 0.211369 0.204264
O O6 0.250261 0.337163 0.180001
O O7 0.501900 0.287939 0.885963
O O8 0.464930 0.554844 0.917341
O O9 0.534446 0.370524 0.972005
O O10 0.225034 0.734538 0.400756
O O11 0.291087 0.682731 0.314741
O O12 0.159424 0.509665 0.816006
O O13 0.921793 0.314302 0.755431
O O14 0.400552 0.696451 0.558422
#
# Coordination Sequence:
#
# PCOD9580055 Si02
#       7
#     6   6   6   6   6   6   6
#     4  11  27  45  75 105 146 183 244 298 361 430
#     4  11  24  46  71 103 143 186 235 291 360 423
#     4  10  26  45  67 108 141 189 230 296 362 429
#     4  11  25  47  73 103 143 191 238 290 365 432
#     4  11  26  47  71 105 145 185 241 299 360 428
#     4  10  24  46  69 103 144 184 233 295 356 427
#     4  12  24  44  76 101 142 188 239 295 356 427
#
# _framework density 21.557365999999998
#
# number of rings (size 3 to 8) (size 9 to 14) (size 15 to 20)
#    0.000    1.143    1.429    2.571   14.000    0.000 
#   15.429    0.000    0.000    0.000    0.000    0.000 
#    0.000    0.000    0.000    0.000    0.000    0.000 
#
# Total GULP energy -234510.269195 kJ/mol
# GULP energy per Si atom -5583.577838 kJ/mol
# Density = 2.150830 g / cm^3
# Si number density = 21.557366 Si / 1000 Ang^3
#
#
#
# Elastic Constant Matrix: (Units=GPa)
#
#
# Indices 1 2 3 4 5 6 
#
# 1 60.7808 11.1197 -12.8062 0.0000 0.0000 0.0000
# 2 11.1197 60.7808 -12.8062 0.0000 0.0000 0.0000
# 3 -12.8062 -12.8062 59.3735 0.0000 0.0000 0.0000
# 4 0.0000 0.0000 0.0000 21.7963 0.0000 0.0000
# 5 0.0000 0.0000 0.0000 0.0000 21.7963 0.0000
# 6 0.0000 0.0000 0.0000 0.0000 0.0000 24.8306
#
#
#
# Elastic Compliance Matrix: (Units=1/GPa)
#
#
# Indices 1 2 3 4 5 6 
#
# 1 0.017601 -0.002535 0.003249 0.000000 0.000000 0.000000
# 2 -0.002535 0.017601 0.003249 0.000000 0.000000 0.000000
# 3 0.003249 0.003249 0.018244 0.000000 0.000000 0.000000
# 4 0.000000 0.000000 0.000000 0.045879 0.000000 0.000000
# 5 0.000000 0.000000 0.000000 0.000000 0.045879 0.000000
# 6 0.000000 0.000000 0.000000 0.000000 0.000000 0.040273
#
#
# Mechanical properties :
#
#
# Convention : Reuss Voigt Hill
#
# Bulk Modulus (GPa) = 16.29367 16.88330 16.58848
# Shear Modulus (GPa) = 25.25142 26.71317 25.98230
#
# Velocity S-wave (km/s) = 3.42623 3.52400 3.47546
# Velocity P-wave (km/s) = 4.81941 4.94033 4.88025
#
# Compressibility (1/GPa) = 0.06137354
#
# Stress axis : x y z
#
# Youngs Moduli (GPa) = 56.81477 56.81477 54.81167
#
# Poissons Ratio (x) = 0.14405 -0.17811
# Poissons Ratio (y) = 0.14405 -0.17811
# Poissons Ratio (z) = -0.18462 -0.18462
#
# Static dielectric constant tensor:
#      x y z
#    x 1.802150 0.000000 0.000000 
#    y 0.000000 1.802150 0.000000 
#    z 0.000000 0.000000 1.796880 
# 
# From -- ./inp_files/1884.got.cif
#   From: 2010.05.17/outbox.cif.g08.bks.cpg/sg169_cif.got.tgz:1884.got - 2010.05.20 11:12:54.
