data_PCOD9580005
_publ_section_title
;
Structure prediction by ZEFSAII (Michael W. Deem and Ramdas Pophale) SiO2 
 PCOD9580005
Probable space group: P 61
;
_chemical_formula_sum "Si O2"
_cell_formula_units_Z 48
_cell_length_a 14.274655
_cell_length_b 14.274655
_cell_length_c 11.804104
_cell_angle_alpha 90.000000
_cell_angle_beta 90.000000
_cell_angle_gamma 120.000000
_cell_volume 2083.027005
_symmetry_space_group_name_H-M "P 61"
_symmetry_group_IT_number 169
_symmetry_cell_setting 'hexagonal'
loop_
_space_group_symop_operation_xyz
x,y,z
x-y,x,1/6+z
-y,x-y,1/3+z
-x,-y,1/2+z
-x+y,-x,2/3+z
y,-x+y,5/6+z
loop_
_atom_site_type_symbol
_atom_site_label
_atom_site_fract_x
_atom_site_fract_y
_atom_site_fract_z
Si Si1 0.627496 0.164886 0.481800
Si Si2 0.591139 0.066419 0.251671
Si Si3 0.009027 0.840809 0.969473
Si Si4 0.659112 0.047932 0.693914
Si Si5 0.338031 0.838166 0.401268
Si Si6 0.585426 0.300377 0.783862
Si Si7 0.358465 0.395315 0.709016
Si Si8 0.977969 0.148314 0.835311
O O1 0.625167 0.087549 0.381573
O O2 0.661806 0.128552 0.596055
O O3 0.693441 0.291455 0.451186
O O4 0.502974 0.137342 0.494296
O O5 0.666246 0.183721 0.197012
O O6 0.606179 0.981190 0.176809
O O7 0.465146 0.030361 0.231703
O O8 0.952234 0.840761 0.849881
O O9 0.019217 0.733797 0.982620
O O10 0.920457 0.819182 0.066473
O O11 0.713858 0.119756 0.807038
O O12 0.409601 0.801563 0.330874
O O13 0.277943 0.744473 0.493564
O O14 0.403870 0.938751 0.484686
O O15 0.260789 0.280761 0.673776
O O16 0.088378 0.156845 0.788507
#
# Coordination Sequence:
#
# PCOD9580005 Si02
#       8
#     6   6   6   6   6   6   6   6
#     4  11  23  40  61  94 139 184 221 272 332 411
#     4  10  23  44  58  95 137 181 224 281 325 405
#     4  10  23  42  71 101 129 167 225 292 345 411
#     4  11  24  39  69  97 135 177 233 277 342 409
#     4  11  21  39  55  99 123 179 219 274 326 396
#     4  11  23  36  64  87 137 176 226 271 331 407
#     4  10  23  40  66  93 137 174 225 279 341 409
#     4  10  22  42  72 100 127 170 229 296 346 412
#
# _framework density 23.043386000000002
#
# number of rings (size 3 to 8) (size 9 to 14) (size 15 to 20)
#    0.000    1.500    2.500    2.250    5.250    0.000 
#    2.250    0.000   16.500    0.000    0.000    0.000 
#    0.000    0.000    0.000    0.000    0.000    0.000 
#
# Total GULP energy -267967.721557 kJ/mol
# GULP energy per Si atom -5582.660866 kJ/mol
# Density = 2.299094 g / cm^3
# Si number density = 23.043386 Si / 1000 Ang^3
#
#
#
# Elastic Constant Matrix: (Units=GPa)
#
#
# Indices 1 2 3 4 5 6 
#
# 1 40.9019 3.1558 11.7385 0.0000 0.0000 0.0000
# 2 3.1558 40.9019 11.7385 0.0000 0.0000 0.0000
# 3 11.7385 11.7385 117.1304 0.0000 0.0000 0.0000
# 4 0.0000 0.0000 0.0000 29.8172 0.0000 0.0000
# 5 0.0000 0.0000 0.0000 0.0000 29.8172 0.0000
# 6 0.0000 0.0000 0.0000 0.0000 0.0000 18.8730
#
#
#
# Elastic Compliance Matrix: (Units=1/GPa)
#
#
# Indices 1 2 3 4 5 6 
#
# 1 0.025235 -0.001257 -0.002403 0.000000 0.000000 0.000000
# 2 -0.001257 0.025235 -0.002403 0.000000 0.000000 0.000000
# 3 -0.002403 -0.002403 0.009019 0.000000 0.000000 0.000000
# 4 0.000000 0.000000 0.000000 0.033538 0.000000 0.000000
# 5 0.000000 0.000000 0.000000 0.000000 0.033538 0.000000
# 6 0.000000 0.000000 0.000000 0.000000 0.000000 0.052986
#
#
# Mechanical properties :
#
#
# Convention : Reuss Voigt Hill
#
# Bulk Modulus (GPa) = 21.11348 28.02219 24.56784
# Shear Modulus (GPa) = 24.10040 27.18825 25.64432
#
# Velocity S-wave (km/s) = 3.23750 3.43865 3.33959
# Velocity P-wave (km/s) = 4.81223 5.28704 5.05522
#
# Compressibility (1/GPa) = 0.04736310
#
# Stress axis : x y z
#
# Youngs Moduli (GPa) = 39.62687 39.62687 110.87530
#
# Poissons Ratio (x) = 0.04983 0.26643
# Poissons Ratio (y) = 0.04983 0.26643
# Poissons Ratio (z) = 0.09522 0.09522
#
# Static dielectric constant tensor:
#      x y z
#    x 1.907850 0.000000 0.000000 
#    y 0.000000 1.907850 0.000000 
#    z 0.000000 0.000000 1.889010 
# 
# From -- ./inp_files/1025.got.cif
#   From: 2010.05.17/outbox.cif.g08.bks.cpg/sg169_cif.got.tgz:1025.got - 2010.05.20 11:12:54.
