data_PCOD9580403
_publ_section_title
;
Structure prediction by ZEFSAII (Michael W. Deem and Ramdas Pophale) SiO2 
 PCOD9580403
Probable space group: P 65
;
_chemical_formula_sum "Si O2"
_cell_formula_units_Z 36
_cell_length_a 13.990353
_cell_length_b 13.990353
_cell_length_c 9.535038
_cell_angle_alpha 90.000000
_cell_angle_beta 90.000000
_cell_angle_gamma 120.000000
_cell_volume 1616.256949
_symmetry_space_group_name_H-M "P 65"
_symmetry_group_IT_number 170
_symmetry_cell_setting 'hexagonal'
loop_
_space_group_symop_operation_xyz
x,y,z
x-y,x,5/6+z
-y,x-y,2/3+z
-x,-y,1/2+z
-x+y,-x,1/3+z
y,-x+y,1/6+z
loop_
_atom_site_type_symbol
_atom_site_label
_atom_site_fract_x
_atom_site_fract_y
_atom_site_fract_z
Si Si1 0.524447 0.387523 0.380310
Si Si2 0.219756 0.619319 0.517171
Si Si3 0.798924 0.591797 0.110617
Si Si4 0.041631 0.684613 0.175415
Si Si5 0.177217 0.214915 0.096525
Si Si6 0.300255 0.370266 0.335513
O O1 0.575792 0.317645 0.313071
O O2 0.549104 0.384212 0.544574
O O3 0.587543 0.516970 0.346691
O O4 0.397005 0.339848 0.342653
O O5 0.249997 0.539819 0.604170
O O6 0.136807 0.644096 0.604027
O O7 0.778424 0.634262 0.257144
O O8 0.929356 0.646480 0.092214
O O9 0.743110 0.624905 0.988539
O O10 0.024528 0.724256 0.326915
O O11 0.180293 0.110096 0.164838
O O12 0.199797 0.288962 0.235704
#
# Coordination Sequence:
#
# PCOD9580403 Si02
#       6
#     6   6   6   6   6   6
#     4  12  26  45  75 115 156 212 257 327 393 475
#     4  12  24  46  71 112 160 209 267 319 396 479
#     4  12  27  48  71 117 153 209 256 327 394 471
#     4  12  26  47  80 109 157 200 262 321 392 471
#     4  12  28  55  80 111 146 204 262 330 394 469
#     4  12  27  47  79 110 160 202 264 324 399 469
#
# _framework density 22.273686000000001
#
# number of rings (size 3 to 8) (size 9 to 14) (size 15 to 20)
#    0.000    0.000    6.667    3.000    2.333    0.000 
#    3.000    0.000    0.000    0.000    0.000    0.000 
#    0.000    0.000    0.000    0.000    0.000    0.000 
#
# Total GULP energy -201211.277769 kJ/mol
# GULP energy per Si atom -5589.202160 kJ/mol
# Density = 2.222299 g / cm^3
# Si number density = 22.273686 Si / 1000 Ang^3
#
#
#
# Elastic Constant Matrix: (Units=GPa)
#
#
# Indices 1 2 3 4 5 6 
#
# 1 103.6972 64.9997 17.9355 0.0000 0.0000 -0.0003
# 2 64.9997 103.6961 17.9353 0.0000 0.0000 0.0000
# 3 17.9355 17.9353 67.4511 0.0000 0.0000 -0.0001
# 4 0.0000 0.0000 0.0000 27.3975 0.0000 0.0000
# 5 0.0000 0.0000 0.0000 0.0000 27.3975 0.0000
# 6 -0.0003 0.0000 -0.0001 0.0000 0.0000 19.3482
#
#
#
# Elastic Compliance Matrix: (Units=1/GPa)
#
#
# Indices 1 2 3 4 5 6 
#
# 1 0.016062 -0.009779 -0.001671 0.000000 0.000000 0.000000
# 2 -0.009779 0.016063 -0.001671 0.000000 0.000000 0.000000
# 3 -0.001671 -0.001671 0.015714 0.000000 0.000000 0.000000
# 4 0.000000 0.000000 0.000000 0.036500 0.000000 0.000000
# 5 0.000000 0.000000 0.000000 0.000000 0.036500 0.000000
# 6 0.000000 0.000000 0.000000 0.000000 0.000000 0.051684
#
#
# Mechanical properties :
#
#
# Convention : Reuss Voigt Hill
#
# Bulk Modulus (GPa) = 46.30181 52.95394 49.62788
# Shear Modulus (GPa) = 24.27616 26.42689 25.35153
#
# Velocity S-wave (km/s) = 3.30495 3.44824 3.37736
# Velocity P-wave (km/s) = 5.94949 6.29918 6.12683
#
# Compressibility (1/GPa) = 0.02159743
#
# Stress axis : x y z
#
# Youngs Moduli (GPa) = 62.25727 62.25666 63.63737
#
# Poissons Ratio (x) = 0.60883 0.10632
# Poissons Ratio (y) = 0.60884 0.10632
# Poissons Ratio (z) = 0.10401 0.10401
#
# Static dielectric constant tensor:
#      x y z
#    x 1.843070 0.000000 0.000000 
#    y 0.000000 1.843070 0.000000 
#    z 0.000000 0.000000 1.795880 
# 
# From -- ./inp_files/606.got.cif
#   From: 2010.05.17/outbox.cif.g08.bks.cpg/sg170_cif.got.tgz:606.got - 2010.05.20 11:14:30.
