data_PCOD9580677
_publ_section_title
;
Structure prediction by ZEFSAII (Michael W. Deem and Ramdas Pophale) SiO2 
 PCOD9580677
Probable space group: P 62
;
_chemical_formula_sum "Si O2"
_cell_formula_units_Z 21
_cell_length_a 7.804871
_cell_length_b 7.804871
_cell_length_c 14.646178
_cell_angle_alpha 90.000000
_cell_angle_beta 90.000000
_cell_angle_gamma 120.000000
_cell_volume 772.656386
_symmetry_space_group_name_H-M "P 62"
_symmetry_group_IT_number 171
_symmetry_cell_setting 'hexagonal'
loop_
_space_group_symop_operation_xyz
x,y,z
x-y,x,1/3+z
-y,x-y,2/3+z
-x,-y,z
-x+y,-x,1/3+z
y,-x+y,2/3+z
loop_
_atom_site_type_symbol
_atom_site_label
_atom_site_fract_x
_atom_site_fract_y
_atom_site_fract_z
Si Si1 0.414748 0.713076 0.293920
Si Si2 0.000000 0.500000 0.117153
Si Si3 0.810939 0.754067 0.334745
Si Si4 0.717562 0.838380 0.538783
O O1 0.650921 0.796887 0.278216
O O2 0.292922 0.480878 0.312838
O O3 0.321650 0.809568 0.228233
O O4 0.415478 0.809072 0.388966
O O5 0.983709 0.668700 0.167814
O O6 0.794304 0.785620 0.444176
O O7 0.963152 0.134890 0.298305
#
# Coordination Sequence:
#
# PCOD9580677 Si02
#       4
#     6   3   6   6
#     4  10  22  45  78 124 166 236 296 363 458 546
#     4  10  22  42  78 110 166 224 280 356 442 538
#     4  10  23  46  87 124 171 238 298 376 457 558
#     4  11  22  50  81 122 173 229 297 371 459 550
#
# _framework density 27.178961999999999
#
# number of rings (size 3 to 8) (size 9 to 14) (size 15 to 20)
#    0.000    1.714    2.857    0.000    0.000    4.571 
#    0.000   34.286    0.000    0.000    0.000    0.000 
#    0.000    0.000    0.000    0.000    0.000    0.000 
#
# Total GULP energy -117002.626691 kJ/mol
# GULP energy per Si atom -5571.553652 kJ/mol
# Density = 2.711710 g / cm^3
# Si number density = 27.178962 Si / 1000 Ang^3
#
#
#
# Elastic Constant Matrix: (Units=GPa)
#
#
# Indices 1 2 3 4 5 6 
#
# 1 106.7806 111.9613 61.7911 0.0000 0.0000 0.0000
# 2 111.9613 106.7806 61.7911 0.0000 0.0000 0.0000
# 3 61.7911 61.7911 225.5800 0.0000 0.0000 0.0000
# 4 0.0000 0.0000 0.0000 316.7814 0.0000 0.0000
# 5 0.0000 0.0000 0.0000 0.0000 316.7814 0.0000
# 6 0.0000 0.0000 0.0000 0.0000 0.0000 -2.5903
#
#
#
# Elastic Compliance Matrix: (Units=1/GPa)
#
#
# Indices 1 2 3 4 5 6 
#
# 1 -0.093808 0.099217 -0.001482 0.000000 0.000000 0.000000
# 2 0.099217 -0.093808 -0.001482 0.000000 0.000000 0.000000
# 3 -0.001482 -0.001482 0.005245 0.000000 0.000000 0.000000
# 4 0.000000 0.000000 0.000000 0.003157 0.000000 0.000000
# 5 0.000000 0.000000 0.000000 0.000000 0.003157 0.000000
# 6 0.000000 0.000000 0.000000 0.000000 0.000000 -0.386049
#
#
# Mechanical properties :
#
#
# Convention : Reuss Voigt Hill
#
# Bulk Modulus (GPa) = 98.66053 101.13644 99.89848
# Shear Modulus (GPa) = -6.65571 139.76766 66.55598
#
# Velocity S-wave (km/s) = -1.56658 7.17890 4.95391
# Velocity P-wave (km/s) = 5.75386 10.29600 8.34010
#
# Compressibility (1/GPa) = 0.01013577
#
# Stress axis : x y z
#
# Youngs Moduli (GPa) = -10.66008 -10.66008 190.67003
#
# Poissons Ratio (x) = 1.05766 0.28248
# Poissons Ratio (y) = 1.05766 0.28248
# Poissons Ratio (z) = -0.01579 -0.01579
#
# Static dielectric constant tensor:
#      x y z
#    x -0.077510 0.000000 0.000000 
#    y 0.000000 -0.077510 0.000000 
#    z 0.000000 0.000000 2.333860 
# 
# From -- ./inp_files/2665.got.cif
#   From: 2010.05.17/outbox.cif.g08.bks.cpg/sg171_2_cif.got.tgz:2665.got - 2010.05.20 11:16:09.
