data_PCOD9580841
_publ_section_title
;
Structure prediction by ZEFSAII (Michael W. Deem and Ramdas Pophale) SiO2 
 PCOD9580841
Probable space group: P 62
;
_chemical_formula_sum "Si O2"
_cell_formula_units_Z 24
_cell_length_a 8.931736
_cell_length_b 8.931736
_cell_length_c 13.479106
_cell_angle_alpha 90.000000
_cell_angle_beta 90.000000
_cell_angle_gamma 120.000000
_cell_volume 931.243975
_symmetry_space_group_name_H-M "P 62"
_symmetry_group_IT_number 171
_symmetry_cell_setting 'hexagonal'
loop_
_space_group_symop_operation_xyz
x,y,z
x-y,x,1/3+z
-y,x-y,2/3+z
-x,-y,z
-x+y,-x,1/3+z
y,-x+y,2/3+z
loop_
_atom_site_type_symbol
_atom_site_label
_atom_site_fract_x
_atom_site_fract_y
_atom_site_fract_z
Si Si1 0.846519 0.042315 0.377300
Si Si2 0.148725 0.474300 0.900238
Si Si3 0.538803 0.692989 0.894997
Si Si4 0.335408 0.997872 0.016888
O O1 0.835682 0.167316 0.295764
O O2 0.791116 0.110734 0.474388
O O3 0.721722 0.858263 0.320606
O O4 0.000000 0.000000 0.401923
O O5 0.061894 0.389456 0.796072
O O6 0.000000 0.500000 0.953462
O O7 0.335301 0.644756 0.882625
O O8 0.500000 0.500000 0.895141
O O9 0.615439 0.807296 0.993987
O O10 0.500000 0.000000 0.967695
#
# Coordination Sequence:
#
# PCOD9580841 Si02
#       4
#     6   6   6   6
#     4  12  28  50  78 115 164 212 272 339 415 500
#     4  11  26  49  81 114 161 211 276 344 414 501
#     4  12  26  50  79 117 159 214 272 336 421 494
#     4  11  27  50  76 113 154 208 272 334 413 485
#
# _framework density 25.771981
#
# number of rings (size 3 to 8) (size 9 to 14) (size 15 to 20)
#    0.000    0.500    2.500    3.750   10.500    0.000 
#    0.000    0.000    0.000    0.000    0.000    0.000 
#    0.000    0.000    0.000    0.000    0.000    0.000 
#
# Total GULP energy -133604.617809 kJ/mol
# GULP energy per Si atom -5566.859075 kJ/mol
# Density = 2.571332 g / cm^3
# Si number density = 25.771981 Si / 1000 Ang^3
#
#
#
# Elastic Constant Matrix: (Units=GPa)
#
#
# Indices 1 2 3 4 5 6 
#
# 1 153.7710 85.7967 46.3515 0.0000 0.0000 0.0000
# 2 85.7967 153.7710 46.3515 0.0000 0.0000 0.0000
# 3 46.3515 46.3515 59.1202 0.0000 0.0000 0.0000
# 4 0.0000 0.0000 0.0000 17.6158 0.0000 0.0000
# 5 0.0000 0.0000 0.0000 0.0000 17.6158 0.0000
# 6 0.0000 0.0000 0.0000 0.0000 0.0000 33.9872
#
#
#
# Elastic Compliance Matrix: (Units=1/GPa)
#
#
# Indices 1 2 3 4 5 6 
#
# 1 0.010352 -0.004360 -0.004698 0.000000 0.000000 0.000000
# 2 -0.004360 0.010352 -0.004698 0.000000 0.000000 0.000000
# 3 -0.004698 -0.004698 0.024281 0.000000 0.000000 0.000000
# 4 0.000000 0.000000 0.000000 0.056767 0.000000 0.000000
# 5 0.000000 0.000000 0.000000 0.000000 0.056767 0.000000
# 6 0.000000 0.000000 0.000000 0.000000 0.000000 0.029423
#
#
# Mechanical properties :
#
#
# Convention : Reuss Voigt Hill
#
# Bulk Modulus (GPa) = 57.22881 80.40683 68.81782
# Shear Modulus (GPa) = 22.59604 26.38792 24.49198
#
# Velocity S-wave (km/s) = 2.96424 3.20331 3.08609
# Velocity P-wave (km/s) = 5.82835 6.70438 6.28165
#
# Compressibility (1/GPa) = 0.01747372
#
# Stress axis : x y z
#
# Youngs Moduli (GPa) = 96.60186 96.60186 41.18405
#
# Poissons Ratio (x) = 0.42115 0.19348
# Poissons Ratio (y) = 0.42115 0.19348
# Poissons Ratio (z) = 0.45383 0.45383
#
# Static dielectric constant tensor:
#      x y z
#    x 2.346690 0.000000 0.000000 
#    y 0.000000 2.346690 0.000000 
#    z 0.000000 0.000000 1.985310 
# 
# From -- ./inp_files/2735.got.cif
#   From: 2010.05.17/outbox.cif.g08.bks.cpg/sg171_2_cif.got.tgz:2735.got - 2010.05.20 11:16:09.
