data_PCOD9580209
_publ_section_title
;
Structure prediction by ZEFSAII (Michael W. Deem and Ramdas Pophale) SiO2 
 PCOD9580209
Probable space group: P 65
;
_chemical_formula_sum "Si O2"
_cell_formula_units_Z 30
_cell_length_a 13.460688
_cell_length_b 13.460688
_cell_length_c 7.995131
_cell_angle_alpha 90.000000
_cell_angle_beta 90.000000
_cell_angle_gamma 120.000000
_cell_volume 1254.557964
_symmetry_space_group_name_H-M "P 65"
_symmetry_group_IT_number 170
_symmetry_cell_setting 'hexagonal'
loop_
_space_group_symop_operation_xyz
x,y,z
x-y,x,5/6+z
-y,x-y,2/3+z
-x,-y,1/2+z
-x+y,-x,1/3+z
y,-x+y,1/6+z
loop_
_atom_site_type_symbol
_atom_site_label
_atom_site_fract_x
_atom_site_fract_y
_atom_site_fract_z
Si Si1 0.638108 0.570517 0.680080
Si Si2 0.590705 0.320751 0.340157
Si Si3 0.040647 0.602633 0.134780
Si Si4 0.769417 0.933006 0.416034
Si Si5 0.219252 0.185364 0.262355
O O1 0.731025 0.529165 0.672092
O O2 0.518476 0.460837 0.733631
O O3 0.619007 0.602003 0.493515
O O4 0.682396 0.683631 0.790551
O O5 0.663186 0.309154 0.189281
O O6 0.587450 0.435766 0.302081
O O7 0.065081 0.718337 0.043808
O O8 0.804810 0.867584 0.284484
O O9 0.754908 0.864033 0.590912
O O10 0.195200 0.088369 0.394709
#
# Coordination Sequence:
#
# PCOD9580209 Si02
#       5
#     6   6   6   6   6
#     4  11  23  41  66 101 133 180 229 280 354 417
#     4  10  25  42  68  97 142 179 230 284 353 416
#     4  11  24  39  70  98 134 179 226 286 344 418
#     4  10  21  40  72  95 128 178 229 278 353 418
#     4  10  19  38  72  93 131 180 230 278 346 417
#
# _framework density 23.912801999999999
#
# number of rings (size 3 to 8) (size 9 to 14) (size 15 to 20)
#    0.000    1.600    4.000    1.200    8.400    0.000 
#    0.000    0.000   70.400    0.000    0.000    0.000 
#    0.000    0.000    0.000    0.000    0.000    0.000 
#
# Total GULP energy -167900.440644 kJ/mol
# GULP energy per Si atom -5596.681355 kJ/mol
# Density = 2.385838 g / cm^3
# Si number density = 23.912802 Si / 1000 Ang^3
#
#
#
# Elastic Constant Matrix: (Units=GPa)
#
#
# Indices 1 2 3 4 5 6 
#
# 1 150.1764 71.1544 16.9860 0.0000 0.0000 0.0000
# 2 71.1544 150.1764 16.9860 0.0000 0.0000 0.0000
# 3 16.9860 16.9860 64.7521 0.0000 0.0000 0.0000
# 4 0.0000 0.0000 0.0000 12.3191 0.0000 0.0000
# 5 0.0000 0.0000 0.0000 0.0000 12.3191 0.0000
# 6 0.0000 0.0000 0.0000 0.0000 0.0000 39.5110
#
#
#
# Elastic Compliance Matrix: (Units=1/GPa)
#
#
# Indices 1 2 3 4 5 6 
#
# 1 0.008681 -0.003974 -0.001235 0.000000 0.000000 0.000000
# 2 -0.003974 0.008681 -0.001235 0.000000 0.000000 0.000000
# 3 -0.001235 -0.001235 0.016091 0.000000 0.000000 0.000000
# 4 0.000000 0.000000 0.000000 0.081175 0.000000 0.000000
# 5 0.000000 0.000000 0.000000 0.000000 0.081175 0.000000
# 6 0.000000 0.000000 0.000000 0.000000 0.000000 0.025309
#
#
# Mechanical properties :
#
#
# Convention : Reuss Voigt Hill
#
# Bulk Modulus (GPa) = 48.62151 63.92864 56.27507
# Shear Modulus (GPa) = 20.75934 30.16174 25.46054
#
# Velocity S-wave (km/s) = 2.94960 3.55536 3.26655
# Velocity P-wave (km/s) = 5.65483 6.60653 6.14912
#
# Compressibility (1/GPa) = 0.02056703
#
# Stress axis : x y z
#
# Youngs Moduli (GPa) = 115.19165 115.19165 62.14492
#
# Poissons Ratio (x) = 0.45772 0.07674
# Poissons Ratio (y) = 0.45772 0.07674
# Poissons Ratio (z) = 0.14225 0.14225
#
# Static dielectric constant tensor:
#      x y z
#    x 1.914000 0.000000 0.000000 
#    y 0.000000 1.914000 0.000000 
#    z 0.000000 0.000000 1.929300 
# 
# From -- ./inp_files/544.got.cif
#   From: 2010.05.17/outbox.cif.g08.bks.cpg/sg170_cif.got.tgz:544.got - 2010.05.20 11:14:30.
