data_PCOD9580381
_publ_section_title
;
Structure prediction by ZEFSAII (Michael W. Deem and Ramdas Pophale) SiO2 
 PCOD9580381
Probable space group: P 65
;
_chemical_formula_sum "Si O2"
_cell_formula_units_Z 24
_cell_length_a 13.721297
_cell_length_b 13.721297
_cell_length_c 6.030445
_cell_angle_alpha 90.000000
_cell_angle_beta 90.000000
_cell_angle_gamma 120.000000
_cell_volume 983.264415
_symmetry_space_group_name_H-M "P 65"
_symmetry_group_IT_number 170
_symmetry_cell_setting 'hexagonal'
loop_
_space_group_symop_operation_xyz
x,y,z
x-y,x,5/6+z
-y,x-y,2/3+z
-x,-y,1/2+z
-x+y,-x,1/3+z
y,-x+y,1/6+z
loop_
_atom_site_type_symbol
_atom_site_label
_atom_site_fract_x
_atom_site_fract_y
_atom_site_fract_z
Si Si1 0.832460 0.083623 0.653380
Si Si2 0.397544 0.350204 0.665157
Si Si3 0.282177 0.797477 0.426521
Si Si4 0.532759 0.142930 0.600142
O O1 0.775573 0.090738 0.417528
O O2 0.768294 0.130796 0.810072
O O3 0.955523 0.151010 0.769636
O O4 0.472075 0.347283 0.466918
O O5 0.340030 0.419595 0.577956
O O6 0.483405 0.426324 0.854855
O O7 0.363377 0.778829 0.260847
O O8 0.192941 0.684628 0.549565
#
# Coordination Sequence:
#
# PCOD9580381 Si02
#       4
#     6   6   6   6
#     4  11  26  49  75 111 154 208 274 344 408 479
#     4  11  23  44  73 106 154 204 258 324 402 473
#     4  11  25  44  75 111 155 204 263 322 403 487
#     4  11  24  43  73 110 155 206 259 326 397 489
#
# _framework density 24.408491999999999
#
# number of rings (size 3 to 8) (size 9 to 14) (size 15 to 20)
#    0.000    1.000    2.500    3.000    3.500    6.000 
#    4.500    0.000    0.000    0.000    0.000    0.000 
#    0.000    0.000    0.000    0.000    0.000    0.000 
#
# Total GULP energy -133619.746007 kJ/mol
# GULP energy per Si atom -5567.489417 kJ/mol
# Density = 2.435294 g / cm^3
# Si number density = 24.408492 Si / 1000 Ang^3
#
#
#
# Elastic Constant Matrix: (Units=GPa)
#
#
# Indices 1 2 3 4 5 6 
#
# 1 112.2601 107.3116 61.5652 0.0000 0.0000 0.0000
# 2 107.3116 112.2601 61.5652 0.0000 0.0000 0.0000
# 3 61.5652 61.5652 114.5915 0.0000 0.0000 0.0000
# 4 0.0000 0.0000 0.0000 47.6941 0.0000 0.0000
# 5 0.0000 0.0000 0.0000 0.0000 47.6941 0.0000
# 6 0.0000 0.0000 0.0000 0.0000 0.0000 2.4742
#
#
#
# Elastic Compliance Matrix: (Units=1/GPa)
#
#
# Indices 1 2 3 4 5 6 
#
# 1 0.104300 -0.097782 -0.003502 0.000000 0.000000 0.000000
# 2 -0.097782 0.104300 -0.003502 0.000000 0.000000 0.000000
# 3 -0.003502 -0.003502 0.012489 0.000000 0.000000 0.000000
# 4 0.000000 0.000000 0.000000 0.020967 0.000000 0.000000
# 5 0.000000 0.000000 0.000000 0.000000 0.020967 0.000000
# 6 0.000000 0.000000 0.000000 0.000000 0.000000 0.404165
#
#
# Mechanical properties :
#
#
# Convention : Reuss Voigt Hill
#
# Bulk Modulus (GPa) = 86.81990 88.88841 87.85416
# Shear Modulus (GPa) = 5.67795 26.81713 16.24754
#
# Velocity S-wave (km/s) = 1.52685 3.31823 2.58282
# Velocity P-wave (km/s) = 6.22536 7.15381 6.70567
#
# Compressibility (1/GPa) = 0.01151810
#
# Stress axis : x y z
#
# Youngs Moduli (GPa) = 9.58770 9.58770 80.06731
#
# Poissons Ratio (x) = 0.93751 0.28039
# Poissons Ratio (y) = 0.93751 0.28039
# Poissons Ratio (z) = 0.03358 0.03358
#
# Static dielectric constant tensor:
#      x y z
#    x 2.091470 0.000000 0.000000 
#    y 0.000000 2.091470 0.000000 
#    z 0.000000 0.000000 1.963870 
# 
# From -- ./inp_files/77.got.cif
#   From: 2010.05.17/outbox.cif.g08.bks.cpg/sg170_cif.got.tgz:77.got - 2010.05.20 11:14:30.
