data_PCOD9580201
_publ_section_title
;
Structure prediction by ZEFSAII (Michael W. Deem and Ramdas Pophale) SiO2 
 PCOD9580201
Probable space group: P 65
;
_chemical_formula_sum "Si O2"
_cell_formula_units_Z 36
_cell_length_a 12.472327
_cell_length_b 12.472327
_cell_length_c 13.166218
_cell_angle_alpha 90.000000
_cell_angle_beta 90.000000
_cell_angle_gamma 120.000000
_cell_volume 1773.726484
_symmetry_space_group_name_H-M "P 65"
_symmetry_group_IT_number 170
_symmetry_cell_setting 'hexagonal'
loop_
_space_group_symop_operation_xyz
x,y,z
x-y,x,5/6+z
-y,x-y,2/3+z
-x,-y,1/2+z
-x+y,-x,1/3+z
y,-x+y,1/6+z
loop_
_atom_site_type_symbol
_atom_site_label
_atom_site_fract_x
_atom_site_fract_y
_atom_site_fract_z
Si Si1 0.086422 0.369222 0.331440
Si Si2 0.136268 0.602857 0.192457
Si Si3 0.467710 0.271240 0.190892
Si Si4 0.602857 0.136268 0.510282
Si Si5 0.369222 0.086422 0.371299
Si Si6 0.803530 0.271241 0.345180
O O1 0.111943 0.485185 0.261179
O O2 0.153560 0.307121 0.268036
O O3 0.157667 0.425188 0.435062
O O4 0.941571 0.292402 0.353695
O O5 0.179530 0.571124 0.086236
O O6 0.230207 0.723641 0.255303
O O7 1.000000 0.587752 0.184703
O O8 0.425189 0.157666 0.267676
O O9 0.350830 0.292400 0.182378
O O10 0.485185 0.111941 0.441561
O O11 0.723640 0.230207 0.447435
O O12 0.571124 0.179531 0.616502
#
# Coordination Sequence:
#
# PCOD9580201 Si02
#       6
#     6   6   6   6   6   6
#     4   9  18  35  58  82 114 159 201 238 289 362
#     4   9  19  36  57  85 118 152 191 238 299 361
#     4  10  19  37  60  85 119 155 198 246 295 357
#     4   9  19  36  57  85 118 152 191 238 299 361
#     4   9  18  35  58  82 114 159 201 238 289 362
#     4  10  19  37  60  85 119 155 198 246 295 357
#
# _framework density 20.296251000000002
#
# number of rings (size 3 to 8) (size 9 to 14) (size 15 to 20)
#    0.000    2.667    0.000    4.000    0.000    0.000 
#    0.000   48.333    0.000    8.000    0.000    0.000 
#    0.000    0.000    0.000    0.000    0.000    0.000 
#
# Total GULP energy -200916.115218 kJ/mol
# GULP energy per Si atom -5581.003200 kJ/mol
# Density = 2.025006 g / cm^3
# Si number density = 20.296251 Si / 1000 Ang^3
#
#
#
# Elastic Constant Matrix: (Units=GPa)
#
#
# Indices 1 2 3 4 5 6 
#
# 1 104.4591 66.2030 64.9463 0.0000 0.0000 0.0000
# 2 66.2030 104.4591 64.9463 0.0000 0.0000 0.0000
# 3 64.9463 64.9463 96.1297 0.0000 0.0000 0.0000
# 4 0.0000 0.0000 0.0000 24.4929 0.0000 0.0000
# 5 0.0000 0.0000 0.0000 0.0000 24.4929 0.0000
# 6 0.0000 0.0000 0.0000 0.0000 0.0000 19.1281
#
#
#
# Elastic Compliance Matrix: (Units=1/GPa)
#
#
# Indices 1 2 3 4 5 6 
#
# 1 0.019101 -0.007039 -0.008149 0.000000 0.000000 0.000000
# 2 -0.007039 0.019101 -0.008149 0.000000 0.000000 0.000000
# 3 -0.008149 -0.008149 0.021414 0.000000 0.000000 0.000000
# 4 0.000000 0.000000 0.000000 0.040828 0.000000 0.000000
# 5 0.000000 0.000000 0.000000 0.000000 0.040828 0.000000
# 6 0.000000 0.000000 0.000000 0.000000 0.000000 0.052279
#
#
# Mechanical properties :
#
#
# Convention : Reuss Voigt Hill
#
# Bulk Modulus (GPa) = 77.27303 77.47102 77.37203
# Shear Modulus (GPa) = 20.44664 20.88629 20.66646
#
# Velocity S-wave (km/s) = 3.17741 3.21139 3.19445
# Velocity P-wave (km/s) = 7.18446 7.21136 7.19792
#
# Compressibility (1/GPa) = 0.01294113
#
# Stress axis : x y z
#
# Youngs Moduli (GPa) = 52.35390 52.35390 46.69842
#
# Poissons Ratio (x) = 0.36851 0.38056
# Poissons Ratio (y) = 0.36851 0.38056
# Poissons Ratio (z) = 0.42664 0.42664
#
# Static dielectric constant tensor:
#      x y z
#    x 1.777820 0.000000 0.000000 
#    y 0.000000 1.777820 0.000000 
#    z 0.000000 0.000000 1.791390 
# 
# From -- ./inp_files/1201.got.cif
#   From: 2010.05.17/outbox.cif.g08.bks.cpg/sg170_cif.got.tgz:1201.got - 2010.05.20 11:14:30.
