data_PCOD9580880
_publ_section_title
;
Structure prediction by ZEFSAII (Michael W. Deem and Ramdas Pophale) SiO2 
 PCOD9580880
Probable space group: P 62
;
_chemical_formula_sum "Si O2"
_cell_formula_units_Z 21
_cell_length_a 14.127824
_cell_length_b 14.127824
_cell_length_c 4.902938
_cell_angle_alpha 90.000000
_cell_angle_beta 90.000000
_cell_angle_gamma 120.000000
_cell_volume 847.495859
_symmetry_space_group_name_H-M "P 62"
_symmetry_group_IT_number 171
_symmetry_cell_setting 'hexagonal'
loop_
_space_group_symop_operation_xyz
x,y,z
x-y,x,1/3+z
-y,x-y,2/3+z
-x,-y,z
-x+y,-x,1/3+z
y,-x+y,2/3+z
loop_
_atom_site_type_symbol
_atom_site_label
_atom_site_fract_x
_atom_site_fract_y
_atom_site_fract_z
Si Si1 0.000000 0.500000 0.247910
Si Si2 0.149675 0.931330 0.228624
Si Si3 0.775847 0.333128 0.974652
Si Si4 0.745616 0.117006 0.731573
O O1 0.103680 0.591585 0.085941
O O2 0.049947 0.435138 0.398694
O O3 0.194544 0.878002 0.448130
O O4 0.032117 0.868158 0.080023
O O5 0.221736 0.943113 0.962029
O O6 0.675673 0.262478 0.178945
O O7 0.779733 0.241513 0.793129
#
# Coordination Sequence:
#
# PCOD9580880 Si02
#       4
#     3   6   6   6
#     4  12  28  54  84 122 172 236 286 372 446 524
#     4  12  29  55  86 123 172 226 297 364 446 532
#     4  12  27  52  81 123 175 228 299 366 443 539
#     4  12  28  51  85 125 171 230 291 366 442 528
#
# _framework density 24.778881999999999
#
# number of rings (size 3 to 8) (size 9 to 14) (size 15 to 20)
#    0.000    0.000    2.857    5.143    0.000   13.714 
#    0.000   12.857    0.000    0.000    0.000    0.000 
#    0.000    0.000    0.000    0.000    0.000    0.000 
#
# Total GULP energy -117511.381618 kJ/mol
# GULP energy per Si atom -5595.780077 kJ/mol
# Density = 2.472248 g / cm^3
# Si number density = 24.778882 Si / 1000 Ang^3
#
#
#
# Elastic Constant Matrix: (Units=GPa)
#
#
# Indices 1 2 3 4 5 6 
#
# 1 129.6025 68.0308 34.9808 0.0000 0.0000 0.0000
# 2 68.0308 129.6025 34.9808 0.0000 0.0000 0.0000
# 3 34.9808 34.9808 110.6958 0.0000 0.0000 0.0000
# 4 0.0000 0.0000 0.0000 129.7962 0.0000 0.0000
# 5 0.0000 0.0000 0.0000 0.0000 129.7962 0.0000
# 6 0.0000 0.0000 0.0000 0.0000 0.0000 30.7858
#
#
#
# Elastic Compliance Matrix: (Units=1/GPa)
#
#
# Indices 1 2 3 4 5 6 
#
# 1 0.010969 -0.005272 -0.001800 0.000000 0.000000 0.000000
# 2 -0.005272 0.010969 -0.001800 0.000000 0.000000 0.000000
# 3 -0.001800 -0.001800 0.010172 0.000000 0.000000 0.000000
# 4 0.000000 0.000000 0.000000 0.007704 0.000000 0.000000
# 5 0.000000 0.000000 0.000000 0.000000 0.007704 0.000000
# 6 0.000000 0.000000 0.000000 0.000000 0.000000 0.032482
#
#
# Mechanical properties :
#
#
# Convention : Reuss Voigt Hill
#
# Bulk Modulus (GPa) = 69.61572 71.76507 70.69040
# Shear Modulus (GPa) = 48.76383 73.53619 61.15001
#
# Velocity S-wave (km/s) = 4.44098 5.45357 4.97311
# Velocity P-wave (km/s) = 7.37917 8.28735 7.84641
#
# Compressibility (1/GPa) = 0.01436457
#
# Stress axis : x y z
#
# Youngs Moduli (GPa) = 91.16417 91.16417 98.31270
#
# Poissons Ratio (x) = 0.48062 0.17700
# Poissons Ratio (y) = 0.48062 0.17700
# Poissons Ratio (z) = 0.16413 0.16413
#
# Static dielectric constant tensor:
#      x y z
#    x 1.915440 0.000000 0.000000 
#    y 0.000000 1.915440 0.000000 
#    z 0.000000 0.000000 2.018660 
# 
# From -- ./inp_files/164.got.cif
#   From: 2010.05.17/outbox.cif.g08.bks.cpg/sg171_1_cif.got.tgz:164.got - 2010.05.20 11:16:09.
