data_PCOD9580153
_publ_section_title
;
Structure prediction by ZEFSAII (Michael W. Deem and Ramdas Pophale) SiO2 
 PCOD9580153
Probable space group: P 61
;
_chemical_formula_sum "Si O2"
_cell_formula_units_Z 18
_cell_length_a 7.444058
_cell_length_b 7.444058
_cell_length_c 14.585277
_cell_angle_alpha 90.000000
_cell_angle_beta 90.000000
_cell_angle_gamma 120.000000
_cell_volume 699.946441
_symmetry_space_group_name_H-M "P 61"
_symmetry_group_IT_number 169
_symmetry_cell_setting 'hexagonal'
loop_
_space_group_symop_operation_xyz
x,y,z
x-y,x,1/6+z
-y,x-y,1/3+z
-x,-y,1/2+z
-x+y,-x,2/3+z
y,-x+y,5/6+z
loop_
_atom_site_type_symbol
_atom_site_label
_atom_site_fract_x
_atom_site_fract_y
_atom_site_fract_z
Si Si1 0.953119 0.514329 0.704790
Si Si2 0.776603 0.827137 0.277879
Si Si3 0.416893 0.614307 0.738321
O O1 0.867051 0.521969 0.805538
O O2 0.794566 0.313596 0.646062
O O3 0.010784 0.720585 0.647012
O O4 0.173422 0.530027 0.719902
O O5 0.956494 0.843932 0.341175
O O6 0.589272 0.590145 0.280525
#
# Coordination Sequence:
#
# PCOD9580153 Si02
#       3
#     6   6   6
#     4  12  28  49  87 117 171 222 280 353 422 503
#     4  12  26  52  79 120 164 213 277 342 419 506
#     4  12  28  51  80 127 167 221 285 355 419 507
#
# _framework density 25.716252999999998
#
# number of rings (size 3 to 8) (size 9 to 14) (size 15 to 20)
#    0.000    0.000    6.667    2.000    0.000    2.667 
#    0.000    0.000    0.000    0.000    0.000    0.000 
#    0.000    0.000    0.000    0.000    0.000    0.000 
#
# Total GULP energy -100905.621999 kJ/mol
# GULP energy per Si atom -5605.867889 kJ/mol
# Density = 2.565772 g / cm^3
# Si number density = 25.716253 Si / 1000 Ang^3
#
#
#
# Elastic Constant Matrix: (Units=GPa)
#
#
# Indices 1 2 3 4 5 6 
#
# 1 88.9518 5.4365 19.5989 0.0000 0.0000 0.0000
# 2 5.4365 88.9518 19.5989 0.0000 0.0000 0.0000
# 3 19.5989 19.5989 116.9818 0.0000 0.0000 0.0000
# 4 0.0000 0.0000 0.0000 42.8407 0.0000 0.0000
# 5 0.0000 0.0000 0.0000 0.0000 42.8407 0.0000
# 6 0.0000 0.0000 0.0000 0.0000 0.0000 41.7576
#
#
#
# Elastic Compliance Matrix: (Units=1/GPa)
#
#
# Indices 1 2 3 4 5 6 
#
# 1 0.011680 -0.000294 -0.001908 0.000000 0.000000 0.000000
# 2 -0.000294 0.011680 -0.001908 0.000000 0.000000 0.000000
# 3 -0.001908 -0.001908 0.009188 0.000000 0.000000 0.000000
# 4 0.000000 0.000000 0.000000 0.023342 0.000000 0.000000
# 5 0.000000 0.000000 0.000000 0.000000 0.023342 0.000000
# 6 0.000000 0.000000 0.000000 0.000000 0.000000 0.023948
#
#
# Mechanical properties :
#
#
# Convention : Reuss Voigt Hill
#
# Bulk Modulus (GPa) = 41.10109 42.68376 41.89243
# Shear Modulus (GPa) = 41.83803 42.17123 42.00463
#
# Velocity S-wave (km/s) = 4.03787 4.05392 4.04590
# Velocity P-wave (km/s) = 6.14463 6.20857 6.17668
#
# Compressibility (1/GPa) = 0.02433026
#
# Stress axis : x y z
#
# Youngs Moduli (GPa) = 85.61412 85.61412 108.84279
#
# Poissons Ratio (x) = 0.02513 0.20764
# Poissons Ratio (y) = 0.02513 0.20764
# Poissons Ratio (z) = 0.16333 0.16333
#
# Static dielectric constant tensor:
#      x y z
#    x 2.067010 0.000000 0.000000 
#    y 0.000000 2.067010 0.000000 
#    z 0.000000 0.000000 2.034720 
# 
# From -- ./inp_files/825.got.cif
#   From: 2010.05.17/outbox.cif.g08.bks.cpg/sg169_cif.got.tgz:825.got - 2010.05.20 11:12:54.
