data_PCOD9580350
_publ_section_title
;
Structure prediction by ZEFSAII (Michael W. Deem and Ramdas Pophale) SiO2 
 PCOD9580350
Probable space group: P 65
;
_chemical_formula_sum "Si O2"
_cell_formula_units_Z 36
_cell_length_a 14.742197
_cell_length_b 14.742197
_cell_length_c 9.296805
_cell_angle_alpha 90.000000
_cell_angle_beta 90.000000
_cell_angle_gamma 120.000000
_cell_volume 1749.801459
_symmetry_space_group_name_H-M "P 65"
_symmetry_group_IT_number 170
_symmetry_cell_setting 'hexagonal'
loop_
_space_group_symop_operation_xyz
x,y,z
x-y,x,5/6+z
-y,x-y,2/3+z
-x,-y,1/2+z
-x+y,-x,1/3+z
y,-x+y,1/6+z
loop_
_atom_site_type_symbol
_atom_site_label
_atom_site_fract_x
_atom_site_fract_y
_atom_site_fract_z
Si Si1 0.786066 0.874381 0.328700
Si Si2 0.256996 0.373630 0.436820
Si Si3 0.177681 0.578089 0.861295
Si Si4 0.618859 0.649987 0.339145
Si Si5 0.824212 0.378503 0.675253
Si Si6 0.580735 0.681710 0.002714
O O1 0.866918 0.844966 0.256358
O O2 0.717303 0.896463 0.212290
O O3 0.699484 0.764838 0.399366
O O4 0.313824 0.490960 0.503543
O O5 0.350785 0.351960 0.406539
O O6 0.183607 0.379517 0.315604
O O7 0.093059 0.489733 0.757428
O O8 0.286791 0.581863 0.834910
O O9 0.150339 0.554888 0.028620
O O10 0.661239 0.568896 0.350473
O O11 0.601691 0.663941 0.169513
O O12 0.846067 0.458860 0.803185
#
# Coordination Sequence:
#
# PCOD9580350 Si02
#       6
#     6   6   6   6   6   6
#     4  11  21  39  72  92 121 166 225 273 326 390
#     4  11  20  39  62  96 120 170 219 265 316 395
#     4  12  24  39  64  96 134 172 220 262 328 395
#     4  11  21  42  69  94 127 171 222 274 326 396
#     4  12  23  42  60  98 136 176 212 270 334 396
#     4  11  23  39  65  92 128 169 220 270 328 390
#
# _framework density 20.573761999999999
#
# number of rings (size 3 to 8) (size 9 to 14) (size 15 to 20)
#    0.000    0.667    6.667    4.000    0.000    1.333 
#    3.000    0.000    7.333    0.000    0.000    0.000 
#    0.000    0.000    0.000    0.000    0.000    0.000 
#
# Total GULP energy -201040.175727 kJ/mol
# GULP energy per Si atom -5584.449326 kJ/mol
# Density = 2.052694 g / cm^3
# Si number density = 20.573762 Si / 1000 Ang^3
#
#
#
# Elastic Constant Matrix: (Units=GPa)
#
#
# Indices 1 2 3 4 5 6 
#
# 1 118.0130 36.4972 20.0713 0.0000 0.0000 0.0000
# 2 36.4972 118.0130 20.0713 0.0000 0.0000 0.0000
# 3 20.0713 20.0713 22.5555 0.0000 0.0000 0.0000
# 4 0.0000 0.0000 0.0000 17.6632 0.0000 0.0000
# 5 0.0000 0.0000 0.0000 0.0000 17.6632 0.0000
# 6 0.0000 0.0000 0.0000 0.0000 0.0000 40.7579
#
#
#
# Elastic Compliance Matrix: (Units=1/GPa)
#
#
# Indices 1 2 3 4 5 6 
#
# 1 0.010343 -0.001925 -0.007491 0.000000 0.000000 0.000000
# 2 -0.001925 0.010343 -0.007491 0.000000 0.000000 0.000000
# 3 -0.007491 -0.007491 0.057667 0.000000 0.000000 0.000000
# 4 0.000000 0.000000 0.000000 0.056615 0.000000 0.000000
# 5 0.000000 0.000000 0.000000 0.000000 0.056615 0.000000
# 6 0.000000 0.000000 0.000000 0.000000 0.000000 0.024535
#
#
# Mechanical properties :
#
#
# Convention : Reuss Voigt Hill
#
# Bulk Modulus (GPa) = 22.45208 45.76236 34.10722
# Shear Modulus (GPa) = 18.88371 27.34630 23.11500
#
# Velocity S-wave (km/s) = 3.03290 3.64975 3.35553
# Velocity P-wave (km/s) = 4.81677 6.32869 5.62377
#
# Compressibility (1/GPa) = 0.04453930
#
# Stress axis : x y z
#
# Youngs Moduli (GPa) = 96.68438 96.68438 17.34085
#
# Poissons Ratio (x) = 0.18608 0.12990
# Poissons Ratio (y) = 0.18608 0.12990
# Poissons Ratio (z) = 0.72428 0.72428
#
# Static dielectric constant tensor:
#      x y z
#    x 1.752010 0.000000 0.000000 
#    y 0.000000 1.752010 0.000000 
#    z 0.000000 0.000000 1.749480 
# 
# From -- ./inp_files/581.got.cif
#   From: 2010.05.17/outbox.cif.g08.bks.cpg/sg170_cif.got.tgz:581.got - 2010.05.20 11:14:30.
