data_PCOD9580239
_publ_section_title
;
Structure prediction by ZEFSAII (Michael W. Deem and Ramdas Pophale) SiO2 
 PCOD9580239
Probable space group: P 65
;
_chemical_formula_sum "Si O2"
_cell_formula_units_Z 48
_cell_length_a 14.810394
_cell_length_b 14.810394
_cell_length_c 14.147302
_cell_angle_alpha 90.000000
_cell_angle_beta 90.000000
_cell_angle_gamma 120.000000
_cell_volume 2687.431978
_symmetry_space_group_name_H-M "P 65"
_symmetry_group_IT_number 170
_symmetry_cell_setting 'hexagonal'
loop_
_space_group_symop_operation_xyz
x,y,z
x-y,x,5/6+z
-y,x-y,2/3+z
-x,-y,1/2+z
-x+y,-x,1/3+z
y,-x+y,1/6+z
loop_
_atom_site_type_symbol
_atom_site_label
_atom_site_fract_x
_atom_site_fract_y
_atom_site_fract_z
Si Si1 0.460404 0.793193 0.345530
Si Si2 0.720239 0.328506 0.306735
Si Si3 0.864159 0.398280 0.883630
Si Si4 0.799929 0.174453 0.804693
Si Si5 0.418646 0.978189 0.376375
Si Si6 0.766523 0.128480 0.581192
Si Si7 0.528301 0.045645 0.574595
Si Si8 0.146182 0.014386 0.116555
O O1 0.407564 0.723330 0.252514
O O2 0.398855 0.727357 0.438194
O O3 0.455566 0.897821 0.340798
O O4 0.575579 0.811174 0.357717
O O5 0.648408 0.220577 0.252537
O O6 0.841057 0.392380 0.275450
O O7 0.815304 0.286635 0.831574
O O8 0.954104 0.482742 0.817007
O O9 0.922537 0.389327 0.975598
O O10 0.705044 0.087174 0.864770
O O11 0.771728 0.151838 0.693666
O O12 0.901410 0.163597 0.819585
O O13 0.461624 0.012909 0.480326
O O14 0.643612 0.059988 0.557258
O O15 0.831805 0.070753 0.566229
O O16 0.070265 0.958961 0.205371
#
# Coordination Sequence:
#
# PCOD9580239 Si02
#       8
#     6   6   6   6   6   6   6   6
#     4  11  22  39  61  90 130 164 206 259 306 372
#     4  11  24  39  58  91 128 168 210 250 311 377
#     4  12  21  38  61  87 126 166 210 254 312 374
#     4  11  20  39  63  96 119 160 208 267 310 367
#     4  12  23  37  62  89 128 167 205 253 316 374
#     4  10  20  39  63  93 125 157 213 262 311 361
#     4  11  23  38  58  92 127 164 209 253 308 383
#     4  10  21  39  68  96 119 156 215 270 314 358
#
# _framework density 17.860917000000001
#
# number of rings (size 3 to 8) (size 9 to 14) (size 15 to 20)
#    0.000    1.000    5.000    3.750    3.500    1.000 
#    0.000    0.000    2.750    0.000    0.000    0.000 
#    0.000    0.000    0.000    0.000    0.000    0.000 
#
# Total GULP energy -268084.510264 kJ/mol
# GULP energy per Si atom -5585.093964 kJ/mol
# Density = 1.782026 g / cm^3
# Si number density = 17.860917 Si / 1000 Ang^3
#
#
#
# Elastic Constant Matrix: (Units=GPa)
#
#
# Indices 1 2 3 4 5 6 
#
# 1 68.8268 22.9916 21.3596 0.0000 0.0000 0.0000
# 2 22.9916 68.8268 21.3596 0.0000 0.0000 0.0000
# 3 21.3596 21.3596 73.9124 0.0000 0.0000 0.0000
# 4 0.0000 0.0000 0.0000 23.6681 0.0000 0.0000
# 5 0.0000 0.0000 0.0000 0.0000 23.6681 0.0000
# 6 0.0000 0.0000 0.0000 0.0000 0.0000 22.9176
#
#
#
# Elastic Compliance Matrix: (Units=1/GPa)
#
#
# Indices 1 2 3 4 5 6 
#
# 1 0.017200 -0.004617 -0.003636 0.000000 0.000000 0.000000
# 2 -0.004617 0.017200 -0.003636 0.000000 0.000000 0.000000
# 3 -0.003636 -0.003636 0.015631 0.000000 0.000000 0.000000
# 4 0.000000 0.000000 0.000000 0.042251 0.000000 0.000000
# 5 0.000000 0.000000 0.000000 0.000000 0.042251 0.000000
# 6 0.000000 0.000000 0.000000 0.000000 0.000000 0.043635
#
#
# Mechanical properties :
#
#
# Convention : Reuss Voigt Hill
#
# Bulk Modulus (GPa) = 38.09252 38.10971 38.10112
# Shear Modulus (GPa) = 23.73066 23.77444 23.75255
#
# Velocity S-wave (km/s) = 3.64900 3.65237 3.65068
# Velocity P-wave (km/s) = 6.25517 6.25856 6.25687
#
# Compressibility (1/GPa) = 0.02625187
#
# Stress axis : x y z
#
# Youngs Moduli (GPa) = 58.13926 58.13926 63.97475
#
# Poissons Ratio (x) = 0.26844 0.23263
# Poissons Ratio (y) = 0.26844 0.23263
# Poissons Ratio (z) = 0.21141 0.21141
#
# Static dielectric constant tensor:
#      x y z
#    x 1.621400 0.000000 0.000000 
#    y 0.000000 1.621400 0.000000 
#    z 0.000000 0.000000 1.612920 
# 
# From -- ./inp_files/1065.got.cif
#   From: 2010.05.17/outbox.cif.g08.bks.cpg/sg170_cif.got.tgz:1065.got - 2010.05.20 11:14:30.
