data_PCOD9580428
_publ_section_title
;
Structure prediction by ZEFSAII (Michael W. Deem and Ramdas Pophale) SiO2 
 PCOD9580428
Probable space group: P 62
;
_chemical_formula_sum "Si O2"
_cell_formula_units_Z 24
_cell_length_a 12.354514
_cell_length_b 12.354514
_cell_length_c 8.300932
_cell_angle_alpha 90.000000
_cell_angle_beta 90.000000
_cell_angle_gamma 120.000000
_cell_volume 1097.258161
_symmetry_space_group_name_H-M "P 62"
_symmetry_group_IT_number 171
_symmetry_cell_setting 'hexagonal'
loop_
_space_group_symop_operation_xyz
x,y,z
x-y,x,1/3+z
-y,x-y,2/3+z
-x,-y,z
-x+y,-x,1/3+z
y,-x+y,2/3+z
loop_
_atom_site_type_symbol
_atom_site_label
_atom_site_fract_x
_atom_site_fract_y
_atom_site_fract_z
Si Si1 0.034334 0.646443 0.774790
Si Si2 0.602238 0.648398 0.786270
Si Si3 0.596333 0.701904 0.118887
Si Si4 0.674745 0.404156 0.091105
O O1 0.955873 0.652008 0.623332
O O2 0.000000 0.500000 0.777939
O O3 0.177584 0.756144 0.759256
O O4 0.003658 0.674159 0.953614
O O5 0.500000 0.500000 0.791324
O O6 0.529097 0.724132 0.767450
O O7 0.664623 0.687340 0.961803
O O8 0.451162 0.590756 0.111162
O O9 0.672748 0.349503 0.914278
#
# Coordination Sequence:
#
# PCOD9580428 Si02
#       4
#     6   6   6   6
#     4  11  23  38  59  89 124 162 201 244 300 363
#     4  10  21  33  54  85 118 158 199 237 286 351
#     4  11  23  38  58  86 124 161 197 244 299 361
#     4  10  18  31  51  76 114 157 189 227 282 347
#
# _framework density 21.872700999999999
#
# number of rings (size 3 to 8) (size 9 to 14) (size 15 to 20)
#    0.000    1.500    0.000    8.250    0.000   10.000 
#    0.000    0.000    0.000    0.000    0.000    8.750 
#    0.000    0.000    0.000    0.000    0.000    0.000 
#
# Total GULP energy -133892.694893 kJ/mol
# GULP energy per Si atom -5578.862287 kJ/mol
# Density = 2.182292 g / cm^3
# Si number density = 21.872701 Si / 1000 Ang^3
#
#
#
# Elastic Constant Matrix: (Units=GPa)
#
#
# Indices 1 2 3 4 5 6 
#
# 1 67.9232 27.4205 29.6392 0.0000 0.0000 0.0000
# 2 27.4205 67.9232 29.6392 0.0000 0.0000 0.0000
# 3 29.6392 29.6392 177.7662 0.0000 0.0000 0.0000
# 4 0.0000 0.0000 0.0000 22.8729 0.0000 0.0000
# 5 0.0000 0.0000 0.0000 0.0000 22.8729 0.0000
# 6 0.0000 0.0000 0.0000 0.0000 0.0000 20.2513
#
#
#
# Elastic Compliance Matrix: (Units=1/GPa)
#
#
# Indices 1 2 3 4 5 6 
#
# 1 0.018196 -0.006494 -0.001951 0.000000 0.000000 0.000000
# 2 -0.006494 0.018196 -0.001951 0.000000 0.000000 0.000000
# 3 -0.001951 -0.001951 0.006276 0.000000 0.000000 0.000000
# 4 0.000000 0.000000 0.000000 0.043720 0.000000 0.000000
# 5 0.000000 0.000000 0.000000 0.000000 0.043720 0.000000
# 6 0.000000 0.000000 0.000000 0.000000 0.000000 0.049379
#
#
# Mechanical properties :
#
#
# Convention : Reuss Voigt Hill
#
# Bulk Modulus (GPa) = 45.71483 54.11227 49.91355
# Shear Modulus (GPa) = 24.08826 28.32702 26.20764
#
# Velocity S-wave (km/s) = 3.32217 3.60263 3.46524
# Velocity P-wave (km/s) = 5.97173 6.48835 6.23539
#
# Compressibility (1/GPa) = 0.02187474
#
# Stress axis : x y z
#
# Youngs Moduli (GPa) = 54.95849 54.95849 159.33850
#
# Poissons Ratio (x) = 0.35691 0.31087
# Poissons Ratio (y) = 0.35691 0.31087
# Poissons Ratio (z) = 0.10722 0.10722
#
# Static dielectric constant tensor:
#      x y z
#    x 1.850510 0.000000 0.000000 
#    y 0.000000 1.850510 0.000000 
#    z 0.000000 0.000000 1.930760 
# 
# From -- ./inp_files/986.got.cif
#   From: 2010.05.17/outbox.cif.g08.bks.cpg/sg171_1_cif.got.tgz:986.got - 2010.05.20 11:16:09.
