data_PCOD9580972
_publ_section_title
;
Structure prediction by ZEFSAII (Michael W. Deem and Ramdas Pophale) SiO2 
 PCOD9580972
Probable space group: P 64
;
_chemical_formula_sum "Si O2"
_cell_formula_units_Z 36
_cell_length_a 11.934804
_cell_length_b 11.934804
_cell_length_c 13.379261
_cell_angle_alpha 90.000000
_cell_angle_beta 90.000000
_cell_angle_gamma 120.000000
_cell_volume 1650.415676
_symmetry_space_group_name_H-M "P 64"
_symmetry_group_IT_number 172
_symmetry_cell_setting 'hexagonal'
loop_
_space_group_symop_operation_xyz
x,y,z
x-y,x,2/3+z
-y,x-y,1/3+z
-x,-y,z
-x+y,-x,2/3+z
y,-x+y,1/3+z
loop_
_atom_site_type_symbol
_atom_site_label
_atom_site_fract_x
_atom_site_fract_y
_atom_site_fract_z
Si Si1 0.000000 0.500000 0.753270
Si Si2 0.582619 0.877412 0.930525
Si Si3 0.294794 0.877413 0.576874
Si Si4 0.605643 0.211287 0.253699
Si Si5 0.000000 0.000000 0.420366
Si Si6 0.000000 0.500000 0.087033
Si Si7 0.816303 0.816303 0.920366
Si Si8 0.000000 0.500000 0.420795
O O1 0.976345 0.596434 0.823399
O O2 0.881995 0.413349 0.679581
O O3 0.449935 0.749728 0.955431
O O4 0.550280 0.925820 0.827457
O O5 0.686805 0.827572 0.933195
O O6 0.596434 0.976344 0.017334
O O7 0.299793 0.749728 0.551968
O O8 0.375540 0.925819 0.679942
O O9 0.140768 0.827573 0.574204
O O10 0.586651 0.118006 0.161150
O O11 0.117114 0.024391 0.349120
O O12 0.975610 0.882886 0.491612
#
# Coordination Sequence:
#
# PCOD9580972 Si02
#       8
#     3   6   6   6   3   3   6   3
#     4  10  24  44  64 100 136 180 226 288 354 426
#     4  11  25  44  70 101 139 185 234 294 360 427
#     4  11  25  44  70 101 139 185 234 294 360 427
#     4  11  24  40  70 102 130 179 238 284 356 427
#     4  10  26  42  66 104 132 186 234 284 348 420
#     4  10  26  50  66 104 148 194 238 296 366 434
#     4  11  24  45  70  98 142 181 238 291 356 428
#     4  10  24  44  64 100 136 180 226 288 354 426
#
# _framework density 21.812685999999999
#
# number of rings (size 3 to 8) (size 9 to 14) (size 15 to 20)
#    0.000    1.333    0.000    4.000   14.000    0.000 
#    0.000    0.000    0.000    0.000    0.000    0.000 
#    0.000    0.000    0.000    0.000    0.000    0.000 
#
# Total GULP energy -200729.661841 kJ/mol
# GULP energy per Si atom -5575.823940 kJ/mol
# Density = 2.176304 g / cm^3
# Si number density = 21.812686 Si / 1000 Ang^3
#
#
#
# Elastic Constant Matrix: (Units=GPa)
#
#
# Indices 1 2 3 4 5 6 
#
# 1 95.9497 40.7218 45.1789 0.0000 0.0000 0.0000
# 2 40.7218 95.9497 45.1789 0.0000 0.0000 0.0000
# 3 45.1789 45.1789 140.5785 0.0000 0.0000 0.0000
# 4 0.0000 0.0000 0.0000 6.2159 0.0000 0.0000
# 5 0.0000 0.0000 0.0000 0.0000 6.2159 0.0000
# 6 0.0000 0.0000 0.0000 0.0000 0.0000 27.6139
#
#
#
# Elastic Compliance Matrix: (Units=1/GPa)
#
#
# Indices 1 2 3 4 5 6 
#
# 1 0.013699 -0.004408 -0.002986 0.000000 0.000000 0.000000
# 2 -0.004408 0.013699 -0.002986 0.000000 0.000000 0.000000
# 3 -0.002986 -0.002986 0.009033 0.000000 0.000000 0.000000
# 4 0.000000 0.000000 0.000000 0.160877 0.000000 0.000000
# 5 0.000000 0.000000 0.000000 0.000000 0.160877 0.000000
# 6 0.000000 0.000000 0.000000 0.000000 0.000000 0.036214
#
#
# Mechanical properties :
#
#
# Convention : Reuss Voigt Hill
#
# Bulk Modulus (GPa) = 63.81268 66.07079 64.94173
# Shear Modulus (GPa) = 11.89395 21.43571 16.66483
#
# Velocity S-wave (km/s) = 2.33765 3.13823 2.76705
# Velocity P-wave (km/s) = 6.05016 6.59448 6.32818
#
# Compressibility (1/GPa) = 0.01567087
#
# Stress axis : x y z
#
# Youngs Moduli (GPa) = 72.99889 72.99889 110.70940
#
# Poissons Ratio (x) = 0.32178 0.33057
# Poissons Ratio (y) = 0.32178 0.33057
# Poissons Ratio (z) = 0.21797 0.21797
#
# Static dielectric constant tensor:
#      x y z
#    x 1.830070 0.000000 0.000000 
#    y 0.000000 1.830070 0.000000 
#    z 0.000000 0.000000 1.803230 
# 
# From -- ./inp_files/1319.got.cif
#   From: 2010.05.17/outbox.cif.g08.bks.cpg/sg172_1_cif.got.tgz:1319.got - 2010.05.20 11:19:57.
