data_PCOD9580919
_publ_section_title
;
Structure prediction by ZEFSAII (Michael W. Deem and Ramdas Pophale) SiO2 
 PCOD9580919
Probable space group: P 64
;
_chemical_formula_sum "Si O2"
_cell_formula_units_Z 39
_cell_length_a 8.909549
_cell_length_b 8.909549
_cell_length_c 21.168976
_cell_angle_alpha 90.000000
_cell_angle_beta 90.000000
_cell_angle_gamma 120.000000
_cell_volume 1455.264461
_symmetry_space_group_name_H-M "P 64"
_symmetry_group_IT_number 172
_symmetry_cell_setting 'hexagonal'
loop_
_space_group_symop_operation_xyz
x,y,z
x-y,x,2/3+z
-y,x-y,1/3+z
-x,-y,z
-x+y,-x,2/3+z
y,-x+y,1/3+z
loop_
_atom_site_type_symbol
_atom_site_label
_atom_site_fract_x
_atom_site_fract_y
_atom_site_fract_z
Si Si1 0.340929 0.319324 0.160420
Si Si2 0.092614 0.886632 0.703822
Si Si3 0.294240 0.409473 0.445932
Si Si4 0.395617 0.592967 0.866197
Si Si5 0.023110 0.187984 0.229975
Si Si6 0.000000 0.500000 0.679804
Si Si7 0.483646 0.163677 0.981490
O O1 0.500000 0.500000 0.134975
O O2 0.209867 0.221816 0.104092
O O3 0.434726 0.226332 0.189221
O O4 0.222560 0.328367 0.215716
O O5 0.082633 0.719603 0.667664
O O6 0.293421 0.035902 0.717073
O O7 0.000000 0.000000 0.690307
O O8 0.500000 0.500000 0.455957
O O9 0.228116 0.541527 0.464552
O O10 0.198724 0.275997 0.502652
O O11 0.500000 0.500000 0.892304
O O12 0.413362 0.735334 0.917216
O O13 0.937418 0.225201 0.288875
O O14 0.000000 0.000000 0.230829
O O15 0.193334 0.520503 0.690859
O O16 0.500000 0.000000 0.003786
#
# Coordination Sequence:
#
# PCOD9580919 Si02
#       7
#     6   6   6   6   6   3   6
#     4  11  19  34  66 106 137 171 222 287 372 434
#     4  11  24  47  67  94 140 189 238 297 356 438
#     4  10  20  37  62 102 143 171 224 296 358 432
#     4  11  19  34  66 108 135 171 220 295 370 429
#     4  10  20  36  64 102 142 175 220 293 368 424
#     4  12  28  50  74  96 144 204 254 290 366 454
#     4  11  24  47  69  97 142 185 242 301 355 437
#
# _framework density 26.799249
#
# number of rings (size 3 to 8) (size 9 to 14) (size 15 to 20)
#    0.000    1.231    1.538    9.231    0.000    0.615 
#    2.769    0.769    0.000    0.000    0.000    0.000 
#    0.000    0.000    0.000    0.000    0.000    0.000 
#
# Total GULP energy -217241.011750 kJ/mol
# GULP energy per Si atom -5570.282353 kJ/mol
# Density = 2.673825 g / cm^3
# Si number density = 26.799249 Si / 1000 Ang^3
#
#
#
# Elastic Constant Matrix: (Units=GPa)
#
#
# Indices 1 2 3 4 5 6 
#
# 1 184.6814 26.6845 55.3593 0.0000 0.0000 0.0000
# 2 26.6845 184.6814 55.3593 0.0000 0.0000 0.0000
# 3 55.3593 55.3593 80.3855 0.0000 0.0000 0.0000
# 4 0.0000 0.0000 0.0000 40.3709 0.0000 0.0000
# 5 0.0000 0.0000 0.0000 0.0000 40.3709 0.0000
# 6 0.0000 0.0000 0.0000 0.0000 0.0000 78.9985
#
#
#
# Elastic Compliance Matrix: (Units=1/GPa)
#
#
# Indices 1 2 3 4 5 6 
#
# 1 0.006865 0.000536 -0.005097 0.000000 0.000000 0.000000
# 2 0.000536 0.006865 -0.005097 0.000000 0.000000 0.000000
# 3 -0.005097 -0.005097 0.019460 0.000000 0.000000 0.000000
# 4 0.000000 0.000000 0.000000 0.024770 0.000000 0.000000
# 5 0.000000 0.000000 0.000000 0.000000 0.024770 0.000000
# 6 0.000000 0.000000 0.000000 0.000000 0.000000 0.012658
#
#
# Mechanical properties :
#
#
# Convention : Reuss Voigt Hill
#
# Bulk Modulus (GPa) = 72.07346 80.50608 76.28977
# Shear Modulus (GPa) = 41.90054 52.77105 47.33580
#
# Velocity S-wave (km/s) = 3.95840 4.44230 4.20731
# Velocity P-wave (km/s) = 6.91694 7.51117 7.22017
#
# Compressibility (1/GPa) = 0.01387473
#
# Stress axis : x y z
#
# Youngs Moduli (GPa) = 145.66399 145.66399 51.38691
#
# Poissons Ratio (x) = -0.07806 0.26191
# Poissons Ratio (y) = -0.07806 0.26191
# Poissons Ratio (z) = 0.74243 0.74243
#
# Static dielectric constant tensor:
#      x y z
#    x 2.068490 0.000000 0.000000 
#    y 0.000000 2.068490 0.000000 
#    z 0.000000 0.000000 1.558880 
# 
# From -- ./inp_files/2898.got.cif
#   From: 2010.05.17/outbox.cif.g08.bks.cpg/sg172_2_cif.got.tgz:2898.got - 2010.05.20 11:19:57.
