data_PCOD9580054
_publ_section_title
;
Structure prediction by ZEFSAII (Michael W. Deem and Ramdas Pophale) SiO2 
 PCOD9580054
Probable space group: P 61
;
_chemical_formula_sum "Si O2"
_cell_formula_units_Z 42
_cell_length_a 8.333828
_cell_length_b 8.333828
_cell_length_c 29.120772
_cell_angle_alpha 90.000000
_cell_angle_beta 90.000000
_cell_angle_gamma 120.000000
_cell_volume 1751.550171
_symmetry_space_group_name_H-M "P 61"
_symmetry_group_IT_number 169
_symmetry_cell_setting 'hexagonal'
loop_
_space_group_symop_operation_xyz
x,y,z
x-y,x,1/6+z
-y,x-y,1/3+z
-x,-y,1/2+z
-x+y,-x,2/3+z
y,-x+y,5/6+z
loop_
_atom_site_type_symbol
_atom_site_label
_atom_site_fract_x
_atom_site_fract_y
_atom_site_fract_z
Si Si1 0.643296 0.257329 0.310590
Si Si2 0.970169 0.342711 0.481679
Si Si3 0.959087 0.000894 0.777135
Si Si4 0.304263 0.609641 0.042770
Si Si5 0.806412 0.993881 0.195248
Si Si6 0.632393 0.198966 0.063672
Si Si7 0.133917 0.463919 0.626268
O O1 0.482450 0.298693 0.327574
O O2 0.719412 0.358443 0.262384
O O3 0.788510 0.317630 0.351586
O O4 0.536472 0.042766 0.296370
O O5 0.832515 0.320405 0.523012
O O6 0.936669 0.437983 0.436626
O O7 0.945196 0.148368 0.465893
O O8 0.031800 0.991235 0.727566
O O9 0.811196 0.069669 0.777730
O O10 0.126320 0.140086 0.809654
O O11 0.172779 0.389211 0.035055
O O12 0.482994 0.703345 0.010336
O O13 0.623599 0.804768 0.211329
O O14 0.720145 0.391956 0.091164
#
# Coordination Sequence:
#
# PCOD9580054 Si02
#       7
#     6   6   6   6   6   6   6
#     4  11  22  42  72  97 132 178 232 279 336 418
#     4  10  24  45  67 101 136 178 228 289 344 411
#     4  11  28  42  70 101 140 178 234 287 348 414
#     4  11  24  46  72  98 140 184 228 285 351 415
#     4  12  26  46  68 102 144 186 228 290 354 408
#     4  11  24  46  72  98 140 184 228 285 351 415
#     4  10  24  45  67 101 136 178 228 289 344 411
#
# _framework density 23.978762
#
# number of rings (size 3 to 8) (size 9 to 14) (size 15 to 20)
#    0.000    1.143    2.857    1.714   12.000    0.000 
#    0.000    0.000    0.000    0.000    0.000    0.000 
#    0.000    0.000    0.000    0.000    0.000    0.000 
#
# Total GULP energy -235180.229011 kJ/mol
# GULP energy per Si atom -5599.529262 kJ/mol
# Density = 2.392418 g / cm^3
# Si number density = 23.978762 Si / 1000 Ang^3
#
#
#
# Elastic Constant Matrix: (Units=GPa)
#
#
# Indices 1 2 3 4 5 6 
#
# 1 45.0369 5.1551 -4.2292 0.0000 0.0000 0.0000
# 2 5.1551 45.0369 -4.2292 0.0000 0.0000 0.0000
# 3 -4.2292 -4.2292 109.4035 0.0000 0.0000 0.0000
# 4 0.0000 0.0000 0.0000 30.8194 0.0000 0.0000
# 5 0.0000 0.0000 0.0000 0.0000 30.8194 0.0000
# 6 0.0000 0.0000 0.0000 0.0000 0.0000 19.9409
#
#
#
# Elastic Compliance Matrix: (Units=1/GPa)
#
#
# Indices 1 2 3 4 5 6 
#
# 1 0.022564 -0.002510 0.000775 0.000000 0.000000 0.000000
# 2 -0.002510 0.022564 0.000775 0.000000 0.000000 0.000000
# 3 0.000775 0.000775 0.009200 0.000000 0.000000 0.000000
# 4 0.000000 0.000000 0.000000 0.032447 0.000000 0.000000
# 5 0.000000 0.000000 0.000000 0.000000 0.032447 0.000000
# 6 0.000000 0.000000 0.000000 0.000000 0.000000 0.050148
#
#
# Mechanical properties :
#
#
# Convention : Reuss Voigt Hill
#
# Bulk Modulus (GPa) = 19.08048 21.43009 20.25529
# Shear Modulus (GPa) = 26.48868 29.83465 28.16167
#
# Velocity S-wave (km/s) = 3.32727 3.53117 3.43073
# Velocity P-wave (km/s) = 4.76817 5.05787 4.91515
#
# Compressibility (1/GPa) = 0.05240959
#
# Stress axis : x y z
#
# Youngs Moduli (GPa) = 44.31817 44.31817 108.69083
#
# Poissons Ratio (x) = 0.11124 -0.08426
# Poissons Ratio (y) = 0.11124 -0.08426
# Poissons Ratio (z) = -0.03436 -0.03436
#
# Static dielectric constant tensor:
#      x y z
#    x 1.924580 0.000000 0.000000 
#    y 0.000000 1.924580 0.000000 
#    z 0.000000 0.000000 1.905400 
# 
# From -- ./inp_files/1892.got.cif
#   From: 2010.05.17/outbox.cif.g08.bks.cpg/sg169_cif.got.tgz:1892.got - 2010.05.20 11:12:54.
