data_PCOD9580026
_publ_section_title
;
Structure prediction by ZEFSAII (Michael W. Deem and Ramdas Pophale) SiO2 
 PCOD9580026
Probable space group: P 61
;
_chemical_formula_sum "Si O2"
_cell_formula_units_Z 42
_cell_length_a 15.357202
_cell_length_b 15.357202
_cell_length_c 9.468349
_cell_angle_alpha 90.000000
_cell_angle_beta 90.000000
_cell_angle_gamma 120.000000
_cell_volume 1933.878044
_symmetry_space_group_name_H-M "P 61"
_symmetry_group_IT_number 169
_symmetry_cell_setting 'hexagonal'
loop_
_space_group_symop_operation_xyz
x,y,z
x-y,x,1/6+z
-y,x-y,1/3+z
-x,-y,1/2+z
-x+y,-x,2/3+z
y,-x+y,5/6+z
loop_
_atom_site_type_symbol
_atom_site_label
_atom_site_fract_x
_atom_site_fract_y
_atom_site_fract_z
Si Si1 0.184553 0.603233 0.885680
Si Si2 0.637652 0.968855 0.446899
Si Si3 0.741840 0.330217 0.681117
Si Si4 0.333604 0.387769 0.787556
Si Si5 0.127929 0.519665 0.426706
Si Si6 0.879362 0.791246 0.573978
Si Si7 0.622207 0.756824 0.189819
O O1 0.109493 0.628291 0.800474
O O2 0.294508 0.664103 0.816166
O O3 0.163792 0.490121 0.907543
O O4 0.193201 0.650125 0.040749
O O5 0.656533 0.985208 0.278526
O O6 0.713193 0.931444 0.498582
O O7 0.657213 0.067251 0.529462
O O8 0.677332 0.211040 0.707017
O O9 0.810064 0.402174 0.802606
O O10 0.436041 0.493852 0.803660
O O11 0.340939 0.323355 0.658354
O O12 0.232435 0.394283 0.771614
O O13 0.850203 0.866903 0.493968
O O14 0.882242 0.713142 0.461161
#
# Coordination Sequence:
#
# PCOD9580026 Si02
#       7
#     6   6   6   6   6   6   6
#     4  11  21  37  60  95 133 177 212 261 314 398
#     4  11  24  37  68  93 131 165 220 277 325 400
#     4  10  23  36  59  86 132 172 210 245 320 388
#     4  11  22  38  61  95 122 172 216 267 328 390
#     4  11  23  39  58  91 134 170 210 259 322 409
#     4  11  24  43  72  96 121 165 232 287 336 389
#     4  11  19  36  62  92 127 155 218 262 317 386
#
# _framework density 21.718017
#
# number of rings (size 3 to 8) (size 9 to 14) (size 15 to 20)
#    0.000    1.143    5.714    2.571    6.000    0.000 
#    0.000    0.000    3.143    0.000    0.000    0.000 
#    0.000    0.000    0.000    0.000    0.000    0.000 
#
# Total GULP energy -233946.347163 kJ/mol
# GULP energy per Si atom -5570.151123 kJ/mol
# Density = 2.166859 g / cm^3
# Si number density = 21.718017 Si / 1000 Ang^3
#
#
#
# Elastic Constant Matrix: (Units=GPa)
#
#
# Indices 1 2 3 4 5 6 
#
# 1 106.5444 38.8154 4.5955 0.0000 0.0000 0.0000
# 2 38.8154 106.5444 4.5955 0.0000 0.0000 0.0000
# 3 4.5955 4.5955 24.9356 0.0000 0.0000 0.0000
# 4 0.0000 0.0000 0.0000 23.2068 0.0000 0.0000
# 5 0.0000 0.0000 0.0000 0.0000 23.2068 0.0000
# 6 0.0000 0.0000 0.0000 0.0000 0.0000 33.8645
#
#
#
# Elastic Compliance Matrix: (Units=1/GPa)
#
#
# Indices 1 2 3 4 5 6 
#
# 1 0.010863 -0.003902 -0.001283 0.000000 0.000000 0.000000
# 2 -0.003902 0.010863 -0.001283 0.000000 0.000000 0.000000
# 3 -0.001283 -0.001283 0.040576 0.000000 0.000000 0.000000
# 4 0.000000 0.000000 0.000000 0.043091 0.000000 0.000000
# 5 0.000000 0.000000 0.000000 0.000000 0.043091 0.000000
# 6 0.000000 0.000000 0.000000 0.000000 0.000000 0.029529
#
#
# Mechanical properties :
#
#
# Convention : Reuss Voigt Hill
#
# Bulk Modulus (GPa) = 20.25680 37.11523 28.68602
# Shear Modulus (GPa) = 24.10763 28.72349 26.41556
#
# Velocity S-wave (km/s) = 3.33532 3.64065 3.49133
# Velocity P-wave (km/s) = 4.91731 5.89908 5.43043
#
# Compressibility (1/GPa) = 0.04936613
#
# Stress axis : x y z
#
# Youngs Moduli (GPa) = 92.05855 92.05855 24.64505
#
# Poissons Ratio (x) = 0.35922 0.03161
# Poissons Ratio (y) = 0.35922 0.03161
# Poissons Ratio (z) = 0.11809 0.11809
#
# Static dielectric constant tensor:
#      x y z
#    x 1.876450 0.000000 0.000000 
#    y 0.000000 1.876450 0.000000 
#    z 0.000000 0.000000 1.825590 
# 
# From -- ./inp_files/990.got.cif
#   From: 2010.05.17/outbox.cif.g08.bks.cpg/sg169_cif.got.tgz:990.got - 2010.05.20 11:12:54.
