data_PCOD9580157
_publ_section_title
;
Structure prediction by ZEFSAII (Michael W. Deem and Ramdas Pophale) SiO2 
 PCOD9580157
Probable space group: P 61
;
_chemical_formula_sum "Si O2"
_cell_formula_units_Z 42
_cell_length_a 15.000000
_cell_length_b 15.000000
_cell_length_c 12.000000
_cell_angle_alpha 90.000000
_cell_angle_beta 90.000000
_cell_angle_gamma 120.000000
_cell_volume 2338.268590
_symmetry_space_group_name_H-M "P 61"
_symmetry_group_IT_number 169
_symmetry_cell_setting 'hexagonal'
loop_
_space_group_symop_operation_xyz
x,y,z
x-y,x,1/6+z
-y,x-y,1/3+z
-x,-y,1/2+z
-x+y,-x,2/3+z
y,-x+y,5/6+z
loop_
_atom_site_type_symbol
_atom_site_label
_atom_site_fract_x
_atom_site_fract_y
_atom_site_fract_z
Si Si1 0.011769 0.168653 0.604680
Si Si2 0.581200 0.064323 0.583099
Si Si3 0.680002 0.165715 0.353910
Si Si4 0.518379 0.248276 0.367223
Si Si5 0.623946 0.887258 0.666074
Si Si6 0.635397 0.817622 0.079383
Si Si7 0.619617 0.663669 0.284135
O O1 0.934506 0.190252 0.529121
O O2 0.080678 0.140026 0.526131
O O3 0.091962 0.272281 0.672693
O O4 0.616828 0.086696 0.454195
O O5 0.643863 0.173307 0.652580
O O6 0.612736 0.984648 0.632867
O O7 0.457682 0.006352 0.589174
O O8 0.620646 0.234557 0.353914
O O9 0.797000 0.225911 0.405002
O O10 0.678297 0.108302 0.235883
O O11 0.437170 0.164038 0.280662
O O12 0.463003 0.223108 0.491041
O O13 0.617412 0.740698 0.186562
O O14 0.670510 0.936753 0.117649
#
# Coordination Sequence:
#
# PCOD9580157 Si02
#       7
#     6   6   6   6   6   6   6
#     4  12  23  46  75 102 134 187 246 301 355 433
#     4  11  24  42  72 100 137 195 234 289 357 436
#     4  11  26  45  66 108 150 183 240 297 365 436
#     4  11  22  45  74 100 137 183 246 290 352 445
#     4  11  22  45  71  99 141 196 237 293 359 433
#     4  12  24  45  74 103 132 190 241 300 360 426
#     4  12  27  44  70 104 147 186 234 304 368 421
#
# _framework density 17.962008000000001
#
# number of rings (size 3 to 8) (size 9 to 14) (size 15 to 20)
#    0.000    0.571    7.143    0.857    4.000    1.143 
#    2.571    0.000    0.000    0.000    0.000    0.000 
#    0.000    0.000    0.000    0.000    0.000    0.000 
#
# Total GULP energy -234176.595269 kJ/mol
# GULP energy per Si atom -5575.633221 kJ/mol
# Density = 1.792113 g / cm^3
# Si number density = 17.962008 Si / 1000 Ang^3
#
#
#
# Elastic Constant Matrix: (Units=GPa)
#
#
# Indices 1 2 3 4 5 6 
#
# 1 131.4179 45.1361 61.3939 0.0000 0.0000 0.0000
# 2 45.1361 131.4179 61.3939 0.0000 0.0000 0.0000
# 3 61.3939 61.3939 141.1412 0.0000 0.0000 0.0000
# 4 0.0000 0.0000 0.0000 42.8425 0.0000 0.0000
# 5 0.0000 0.0000 0.0000 0.0000 42.8425 0.0000
# 6 0.0000 0.0000 0.0000 0.0000 0.0000 43.1409
#
#
#
# Elastic Compliance Matrix: (Units=1/GPa)
#
#
# Indices 1 2 3 4 5 6 
#
# 1 0.009855 -0.001735 -0.003532 0.000000 0.000000 0.000000
# 2 -0.001735 0.009855 -0.003532 0.000000 0.000000 0.000000
# 3 -0.003532 -0.003532 0.010158 0.000000 0.000000 0.000000
# 4 0.000000 0.000000 0.000000 0.023341 0.000000 0.000000
# 5 0.000000 0.000000 0.000000 0.000000 0.023341 0.000000
# 6 0.000000 0.000000 0.000000 0.000000 0.000000 0.023180
#
#
# Mechanical properties :
#
#
# Convention : Reuss Voigt Hill
#
# Bulk Modulus (GPa) = 81.49937 82.20275 81.85106
# Shear Modulus (GPa) = 41.17948 41.50206 41.34077
#
# Velocity S-wave (km/s) = 4.79329 4.81203 4.80267
# Velocity P-wave (km/s) = 8.72387 8.76004 8.74197
#
# Compressibility (1/GPa) = 0.01227003
#
# Stress axis : x y z
#
# Youngs Moduli (GPa) = 101.46855 101.46855 98.44361
#
# Poissons Ratio (x) = 0.17601 0.34773
# Poissons Ratio (y) = 0.17601 0.34773
# Poissons Ratio (z) = 0.35842 0.35842
#
# Static dielectric constant tensor:
#      x y z
#    x 1.639910 0.000000 0.000000 
#    y 0.000000 1.639910 0.000000 
#    z 0.000000 0.000000 1.627800 
# 
# From -- ./inp_files/967.got.cif
#   From: 2010.05.17/outbox.ucp.g08.bks.cvg/sg169_cif.got.tgz:967.got - 2010.06.11 15:17:57.
