data_PCOD9580165
_publ_section_title
;
Structure prediction by ZEFSAII (Michael W. Deem and Ramdas Pophale) SiO2 
 PCOD9580165
Probable space group: P 65
;
_chemical_formula_sum "Si O2"
_cell_formula_units_Z 42
_cell_length_a 15.352064
_cell_length_b 15.352064
_cell_length_c 11.736356
_cell_angle_alpha 90.000000
_cell_angle_beta 90.000000
_cell_angle_gamma 120.000000
_cell_volume 2395.507035
_symmetry_space_group_name_H-M "P 65"
_symmetry_group_IT_number 170
_symmetry_cell_setting 'hexagonal'
loop_
_space_group_symop_operation_xyz
x,y,z
x-y,x,5/6+z
-y,x-y,2/3+z
-x,-y,1/2+z
-x+y,-x,1/3+z
y,-x+y,1/6+z
loop_
_atom_site_type_symbol
_atom_site_label
_atom_site_fract_x
_atom_site_fract_y
_atom_site_fract_z
Si Si1 0.950387 0.615214 0.105070
Si Si2 0.177768 0.138320 0.032432
Si Si3 0.395082 0.697278 0.008957
Si Si4 0.642179 0.647606 0.539438
Si Si5 0.776974 0.471886 0.363720
Si Si6 0.856876 0.209097 0.547746
Si Si7 0.445978 0.856057 0.825801
O O1 0.992115 0.641183 0.234841
O O2 0.850493 0.625671 0.115786
O O3 0.036171 0.695016 0.022411
O O4 0.924748 0.504245 0.072520
O O5 0.256830 0.251114 0.076580
O O6 0.141666 0.052542 0.128821
O O7 0.249636 0.120611 0.944818
O O8 0.366879 0.759424 0.097344
O O9 0.452218 0.650297 0.075462
O O10 0.295933 0.597802 0.962463
O O11 0.445573 0.768802 0.901923
O O12 0.541625 0.650950 0.571994
O O13 0.632303 0.547878 0.590436
O O14 0.756197 0.554274 0.302502
#
# Coordination Sequence:
#
# PCOD9580165 Si02
#       7
#     6   6   6   6   6   6   6
#     4  10  20  34  55  85 110 148 190 239 281 348
#     4  10  19  36  62  84 108 137 189 245 283 340
#     4  10  20  35  54  79 113 151 188 235 278 342
#     4  10  21  35  58  85 113 150 188 237 292 350
#     4   9  19  33  53  81 109 144 189 230 275 333
#     4  10  17  32  55  81 109 137 192 228 281 329
#     4  11  22  37  55  81 120 151 192 232 290 344
#
# _framework density 17.532820999999998
#
# number of rings (size 3 to 8) (size 9 to 14) (size 15 to 20)
#    0.000    2.286    5.714    0.857    4.000    0.000 
#    0.000    0.000    3.143    0.000    0.000    0.000 
#    0.000    0.000    0.000    0.000    0.000    0.000 
#
# Total GULP energy -233863.365867 kJ/mol
# GULP energy per Si atom -5568.175378 kJ/mol
# Density = 1.749292 g / cm^3
# Si number density = 17.532821 Si / 1000 Ang^3
#
#
#
# Elastic Constant Matrix: (Units=GPa)
#
#
# Indices 1 2 3 4 5 6 
#
# 1 83.5019 44.3261 23.3343 0.0000 0.0000 0.0000
# 2 44.3261 83.5019 23.3343 0.0000 0.0000 0.0000
# 3 23.3343 23.3343 39.3278 0.0000 0.0000 0.0000
# 4 0.0000 0.0000 0.0000 13.8384 0.0000 0.0000
# 5 0.0000 0.0000 0.0000 0.0000 13.8384 0.0000
# 6 0.0000 0.0000 0.0000 0.0000 0.0000 19.5879
#
#
#
# Elastic Compliance Matrix: (Units=1/GPa)
#
#
# Indices 1 2 3 4 5 6 
#
# 1 0.017756 -0.007770 -0.005925 0.000000 0.000000 0.000000
# 2 -0.007770 0.017756 -0.005925 0.000000 0.000000 0.000000
# 3 -0.005925 -0.005925 0.032458 0.000000 0.000000 0.000000
# 4 0.000000 0.000000 0.000000 0.072263 0.000000 0.000000
# 5 0.000000 0.000000 0.000000 0.000000 0.072263 0.000000
# 6 0.000000 0.000000 0.000000 0.000000 0.000000 0.051052
#
#
# Mechanical properties :
#
#
# Convention : Reuss Voigt Hill
#
# Bulk Modulus (GPa) = 34.80636 43.14678 38.97657
# Shear Modulus (GPa) = 16.00694 17.14207 16.57451
#
# Velocity S-wave (km/s) = 3.02482 3.13023 3.07798
# Velocity P-wave (km/s) = 5.66521 6.14224 5.90854
#
# Compressibility (1/GPa) = 0.02873038
#
# Stress axis : x y z
#
# Youngs Moduli (GPa) = 56.31871 56.31871 30.80871
#
# Poissons Ratio (x) = 0.43759 0.18254
# Poissons Ratio (y) = 0.43759 0.18254
# Poissons Ratio (z) = 0.33369 0.33369
#
# Static dielectric constant tensor:
#      x y z
#    x 1.622860 0.000000 0.000000 
#    y 0.000000 1.622860 0.000000 
#    z 0.000000 0.000000 1.626330 
# 
# From -- ./inp_files/955.got.cif
#   From: 2010.05.17/outbox.cif.g08.bks.cpg/sg170_cif.got.tgz:955.got - 2010.05.20 11:14:30.
