data_PCOD9580006
_publ_section_title
;
Structure prediction by ZEFSAII (Michael W. Deem and Ramdas Pophale) SiO2 
 PCOD9580006
Probable space group: P 61
;
_chemical_formula_sum "Si O2"
_cell_formula_units_Z 48
_cell_length_a 14.654432
_cell_length_b 14.654432
_cell_length_c 12.268742
_cell_angle_alpha 90.000000
_cell_angle_beta 90.000000
_cell_angle_gamma 120.000000
_cell_volume 2281.753080
_symmetry_space_group_name_H-M "P 61"
_symmetry_group_IT_number 169
_symmetry_cell_setting 'hexagonal'
loop_
_space_group_symop_operation_xyz
x,y,z
x-y,x,1/6+z
-y,x-y,1/3+z
-x,-y,1/2+z
-x+y,-x,2/3+z
y,-x+y,5/6+z
loop_
_atom_site_type_symbol
_atom_site_label
_atom_site_fract_x
_atom_site_fract_y
_atom_site_fract_z
Si Si1 0.870088 0.054475 0.215350
Si Si2 0.068148 0.620901 0.709831
Si Si3 0.154676 0.400781 0.958374
Si Si4 0.906432 0.439169 0.559978
Si Si5 0.263352 0.556965 0.517242
Si Si6 0.010777 0.162198 0.413090
Si Si7 0.534063 0.317872 0.603153
Si Si8 0.950928 0.614915 0.916579
O O1 0.769879 0.061585 0.173671
O O2 0.948315 0.096896 0.109941
O O3 0.923238 0.134390 0.317764
O O4 0.145413 0.736661 0.663680
O O5 0.140091 0.583190 0.771612
O O6 0.007197 0.532415 0.619916
O O7 0.980699 0.617395 0.790541
O O8 0.162152 0.421006 0.829126
O O9 0.145030 0.498927 0.001902
O O10 0.817582 0.354946 0.639301
O O11 0.953563 0.383719 0.483458
O O12 0.242919 0.529276 0.644192
O O13 0.292034 0.677023 0.498753
O O14 0.157667 0.486302 0.448805
O O15 0.091908 0.136710 0.351552
O O16 0.058939 0.283302 0.441217
#
# Coordination Sequence:
#
# PCOD9580006 Si02
#       8
#     6   6   6   6   6   6   6   6
#     4  10  22  43  72 100 130 173 232 295 356 423
#     4  12  24  41  65 102 139 183 236 282 353 432
#     4  12  23  41  71 101 138 180 236 288 357 436
#     4  12  25  40  67 100 143 190 234 293 362 431
#     4  12  25  43  67  98 142 189 235 292 364 429
#     4  10  22  42  73 100 134 177 236 297 355 421
#     4  12  23  44  65  98 141 182 229 287 353 432
#     4  12  24  42  68 103 139 184 242 298 356 434
#
# _framework density 21.036456999999999
#
# number of rings (size 3 to 8) (size 9 to 14) (size 15 to 20)
#    0.000    0.500    6.250    2.250    1.750    1.000 
#    2.250    0.000   16.500    0.000    0.000    0.000 
#    0.000    0.000    0.000    0.000    0.000    0.000 
#
# Total GULP energy -268250.007068 kJ/mol
# GULP energy per Si atom -5588.541814 kJ/mol
# Density = 2.098858 g / cm^3
# Si number density = 21.036457 Si / 1000 Ang^3
#
#
#
# Elastic Constant Matrix: (Units=GPa)
#
#
# Indices 1 2 3 4 5 6 
#
# 1 79.3726 22.8290 27.5999 0.0000 0.0000 0.0000
# 2 22.8290 79.3726 27.5999 0.0000 0.0000 0.0000
# 3 27.5999 27.5999 83.7017 0.0000 0.0000 0.0000
# 4 0.0000 0.0000 0.0000 30.5191 0.0000 0.0000
# 5 0.0000 0.0000 0.0000 0.0000 30.5191 0.0000
# 6 0.0000 0.0000 0.0000 0.0000 0.0000 28.2718
#
#
#
# Elastic Compliance Matrix: (Units=1/GPa)
#
#
# Indices 1 2 3 4 5 6 
#
# 1 0.014795 -0.002890 -0.003926 0.000000 0.000000 0.000000
# 2 -0.002890 0.014795 -0.003926 0.000000 0.000000 0.000000
# 3 -0.003926 -0.003926 0.014536 0.000000 0.000000 0.000000
# 4 0.000000 0.000000 0.000000 0.032766 0.000000 0.000000
# 5 0.000000 0.000000 0.000000 0.000000 0.032766 0.000000
# 6 0.000000 0.000000 0.000000 0.000000 0.000000 0.035371
#
#
# Mechanical properties :
#
#
# Convention : Reuss Voigt Hill
#
# Bulk Modulus (GPa) = 44.16272 44.27831 44.22052
# Shear Modulus (GPa) = 28.72564 28.82319 28.77441
#
# Velocity S-wave (km/s) = 3.69930 3.70558 3.70244
# Velocity P-wave (km/s) = 6.26781 6.27714 6.27247
#
# Compressibility (1/GPa) = 0.02264353
#
# Stress axis : x y z
#
# Youngs Moduli (GPa) = 67.58982 67.58982 68.79476
#
# Poissons Ratio (x) = 0.19536 0.27005
# Poissons Ratio (y) = 0.19536 0.27005
# Poissons Ratio (z) = 0.26532 0.26532
#
# Static dielectric constant tensor:
#      x y z
#    x 1.755640 0.000000 0.000000 
#    y 0.000000 1.755640 0.000000 
#    z 0.000000 0.000000 1.782340 
# 
# From -- ./inp_files/1034.got.cif
#   From: 2010.05.17/outbox.cif.g08.bks.cpg/sg169_cif.got.tgz:1034.got - 2010.05.20 11:12:54.
