data_PCOD9580998
_publ_section_title
;
Structure prediction by ZEFSAII (Michael W. Deem and Ramdas Pophale) SiO2 
 PCOD9580998
Probable space group: P 64
;
_chemical_formula_sum "Si O2"
_cell_formula_units_Z 48
_cell_length_a 18.424473
_cell_length_b 18.424473
_cell_length_c 9.572970
_cell_angle_alpha 90.000000
_cell_angle_beta 90.000000
_cell_angle_gamma 120.000000
_cell_volume 2814.281129
_symmetry_space_group_name_H-M "P 64"
_symmetry_group_IT_number 172
_symmetry_cell_setting 'hexagonal'
loop_
_space_group_symop_operation_xyz
x,y,z
x-y,x,2/3+z
-y,x-y,1/3+z
-x,-y,z
-x+y,-x,2/3+z
y,-x+y,1/3+z
loop_
_atom_site_type_symbol
_atom_site_label
_atom_site_fract_x
_atom_site_fract_y
_atom_site_fract_z
Si Si1 0.548838 0.846000 0.786880
Si Si2 0.026210 0.429051 0.109042
Si Si3 0.330892 0.872397 0.500906
Si Si4 0.449069 0.158549 0.126701
Si Si5 0.371363 0.603847 0.994787
Si Si6 0.861711 0.550550 0.353826
Si Si7 0.367778 0.756054 0.848766
Si Si8 0.987129 0.581227 0.594692
O O1 0.593718 0.940371 0.733840
O O2 0.577473 0.784527 0.720011
O O3 0.449994 0.805696 0.755266
O O4 0.552900 0.848065 0.957765
O O5 0.000000 0.500000 0.145386
O O6 0.066016 0.405322 0.238483
O O7 0.094946 0.461680 0.987376
O O8 0.231475 0.804818 0.495809
O O9 0.375588 0.826336 0.423547
O O10 0.361664 0.956759 0.410559
O O11 0.538462 0.191920 0.203446
O O12 0.402064 0.065887 0.195627
O O13 0.383450 0.688413 0.926991
O O14 0.291071 0.574382 0.093589
O O15 0.813596 0.456959 0.292672
O O16 0.907774 0.554731 0.495796
O O17 0.000000 0.500000 0.600303
#
# Coordination Sequence:
#
# PCOD9580998 Si02
#       8
#     6   6   6   6   6   6   6   6
#     4  12  24  41  62  79 115 163 206 257 308 361
#     4  12  27  42  55  86 125 156 203 263 313 358
#     4  12  26  40  57  85 116 157 208 256 308 362
#     4  12  24  40  61  84 112 161 207 259 304 367
#     4  12  23  35  54  84 119 149 209 265 298 343
#     4  12  24  39  60  82 111 163 205 255 303 363
#     4  12  21  35  52  82 114 152 208 258 299 343
#     4  12  23  40  59  82 116 155 202 255 309 355
#
# _framework density 17.055866000000002
#
# number of rings (size 3 to 8) (size 9 to 14) (size 15 to 20)
#    0.000    0.000    8.750    2.250    1.750    1.000 
#    0.000    0.000    0.000    0.000    0.000    0.000 
#    0.000    0.000    0.000   11.250    0.000    0.000 
#
# Total GULP energy -268132.848683 kJ/mol
# GULP energy per Si atom -5586.101014 kJ/mol
# Density = 1.701705 g / cm^3
# Si number density = 17.055866 Si / 1000 Ang^3
#
#
#
# Elastic Constant Matrix: (Units=GPa)
#
#
# Indices 1 2 3 4 5 6 
#
# 1 80.4453 27.9110 12.0356 0.0000 0.0000 0.0000
# 2 27.9110 80.4453 12.0356 0.0000 0.0000 0.0000
# 3 12.0356 12.0356 59.5284 0.0000 0.0000 0.0000
# 4 0.0000 0.0000 0.0000 29.7123 0.0000 0.0000
# 5 0.0000 0.0000 0.0000 0.0000 29.7123 0.0000
# 6 0.0000 0.0000 0.0000 0.0000 0.0000 26.2671
#
#
#
# Elastic Compliance Matrix: (Units=1/GPa)
#
#
# Indices 1 2 3 4 5 6 
#
# 1 0.014349 -0.004686 -0.001954 0.000000 0.000000 0.000000
# 2 -0.004686 0.014349 -0.001954 0.000000 0.000000 0.000000
# 3 -0.001954 -0.001954 0.017589 0.000000 0.000000 0.000000
# 4 0.000000 0.000000 0.000000 0.033656 0.000000 0.000000
# 5 0.000000 0.000000 0.000000 0.000000 0.033656 0.000000
# 6 0.000000 0.000000 0.000000 0.000000 0.000000 0.038070
#
#
# Mechanical properties :
#
#
# Convention : Reuss Voigt Hill
#
# Bulk Modulus (GPa) = 34.36460 36.04260 35.20360
# Shear Modulus (GPa) = 28.00239 28.36746 28.18492
#
# Velocity S-wave (km/s) = 4.05631 4.08267 4.06951
# Velocity P-wave (km/s) = 6.49078 6.58804 6.53959
#
# Compressibility (1/GPa) = 0.02909972
#
# Stress axis : x y z
#
# Youngs Moduli (GPa) = 69.69127 69.69127 56.85466
#
# Poissons Ratio (x) = 0.32659 0.11107
# Poissons Ratio (y) = 0.32659 0.11107
# Poissons Ratio (z) = 0.13615 0.13615
#
# Static dielectric constant tensor:
#      x y z
#    x 1.602180 0.000000 0.000000 
#    y 0.000000 1.602180 0.000000 
#    z 0.000000 0.000000 1.663870 
# 
# From -- ./inp_files/760.got.cif
#   From: 2010.05.17/outbox.cif.g08.bks.cpg/sg172_1_cif.got.tgz:760.got - 2010.05.20 11:19:57.
