data_PCOD9580183
_publ_section_title
;
Structure prediction by ZEFSAII (Michael W. Deem and Ramdas Pophale) SiO2 
 PCOD9580183
Probable space group: P 65
;
_chemical_formula_sum "Si O2"
_cell_formula_units_Z 48
_cell_length_a 21.670253
_cell_length_b 21.670253
_cell_length_c 7.402658
_cell_angle_alpha 90.000000
_cell_angle_beta 90.000000
_cell_angle_gamma 120.000000
_cell_volume 3010.553024
_symmetry_space_group_name_H-M "P 65"
_symmetry_group_IT_number 170
_symmetry_cell_setting 'hexagonal'
loop_
_space_group_symop_operation_xyz
x,y,z
x-y,x,5/6+z
-y,x-y,2/3+z
-x,-y,1/2+z
-x+y,-x,1/3+z
y,-x+y,1/6+z
loop_
_atom_site_type_symbol
_atom_site_label
_atom_site_fract_x
_atom_site_fract_y
_atom_site_fract_z
Si Si1 0.494079 0.778034 0.637970
Si Si2 0.489013 0.873820 0.322690
Si Si3 0.404161 0.417857 0.233091
Si Si4 0.170661 0.467016 0.412050
Si Si5 0.148465 0.719182 0.667949
Si Si6 0.524232 0.661534 0.655325
Si Si7 0.436194 0.964563 0.790948
Si Si8 0.714141 0.371761 0.001521
O O1 0.490441 0.825793 0.481589
O O2 0.545433 0.823786 0.799973
O O3 0.520417 0.725596 0.559805
O O4 0.418357 0.739530 0.740353
O O5 0.410452 0.860534 0.295359
O O6 0.539057 0.957406 0.371723
O O7 0.514122 0.853466 0.139462
O O8 0.322147 0.385485 0.293077
O O9 0.417538 0.362428 0.118770
O O10 0.450481 0.431077 0.414504
O O11 0.446985 0.498656 0.150920
O O12 0.205795 0.415829 0.421592
O O13 0.154228 0.469221 0.199161
O O14 0.099440 0.457419 0.510084
O O15 0.231690 0.546274 0.463557
O O16 0.644042 0.349196 0.880455
#
# Coordination Sequence:
#
# PCOD9580183 Si02
#       8
#     6   6   6   6   6   6   6   6
#     4  11  20  33  47  60  89 108 139 180 224 266
#     4  10  20  36  46  63  85 113 144 177 224 274
#     4   9  18  32  48  60  83 109 143 177 221 271
#     4  10  19  32  45  66  85 106 142 182 227 270
#     4  10  21  33  46  65  80 107 139 179 224 266
#     4   9  18  33  45  64  82 112 142 177 220 269
#     4   9  19  32  49  61  83 109 145 181 219 273
#     4  12  23  31  44  61  87 114 136 177 229 283
#
# _framework density 15.943913
#
# number of rings (size 3 to 8) (size 9 to 14) (size 15 to 20)
#    0.000    2.000    3.750    0.750    7.000    0.000 
#    6.750    0.000    0.000    0.000    0.000    0.000 
#    0.000    0.000    0.000    0.000    0.000    0.000 
#
# Total GULP energy -267232.116947 kJ/mol
# GULP energy per Si atom -5567.335770 kJ/mol
# Density = 1.590762 g / cm^3
# Si number density = 15.943913 Si / 1000 Ang^3
#
#
#
# Elastic Constant Matrix: (Units=GPa)
#
#
# Indices 1 2 3 4 5 6 
#
# 1 70.7736 26.7919 3.4675 0.0000 0.0000 0.0000
# 2 26.7919 70.7736 3.4675 0.0000 0.0000 0.0000
# 3 3.4675 3.4675 25.9503 0.0000 0.0000 0.0000
# 4 0.0000 0.0000 0.0000 13.6529 0.0000 0.0000
# 5 0.0000 0.0000 0.0000 0.0000 13.6529 0.0000
# 6 0.0000 0.0000 0.0000 0.0000 0.0000 21.9909
#
#
#
# Elastic Compliance Matrix: (Units=1/GPa)
#
#
# Indices 1 2 3 4 5 6 
#
# 1 0.016542 -0.006194 -0.001383 0.000000 0.000000 0.000000
# 2 -0.006194 0.016542 -0.001383 0.000000 0.000000 0.000000
# 3 -0.001383 -0.001383 0.038905 0.000000 0.000000 0.000000
# 4 0.000000 0.000000 0.000000 0.073244 0.000000 0.000000
# 5 0.000000 0.000000 0.000000 0.000000 0.073244 0.000000
# 6 0.000000 0.000000 0.000000 0.000000 0.000000 0.045473
#
#
# Mechanical properties :
#
#
# Convention : Reuss Voigt Hill
#
# Bulk Modulus (GPa) = 18.49470 26.10572 22.30021
# Shear Modulus (GPa) = 16.67256 18.77740 17.72498
#
# Velocity S-wave (km/s) = 3.23724 3.43551 3.33785
# Velocity P-wave (km/s) = 5.05944 5.66974 5.37327
#
# Compressibility (1/GPa) = 0.05406953
#
# Stress axis : x y z
#
# Youngs Moduli (GPa) = 60.45125 60.45125 25.70388
#
# Poissons Ratio (x) = 0.37446 0.03554
# Poissons Ratio (y) = 0.37446 0.03554
# Poissons Ratio (z) = 0.08358 0.08358
#
# Static dielectric constant tensor:
#      x y z
#    x 1.598900 0.000000 0.000000 
#    y 0.000000 1.598900 0.000000 
#    z 0.000000 0.000000 1.628950 
# 
# From -- ./inp_files/807.got.cif
#   From: 2010.05.17/outbox.cif.g08.bks.cpg/sg170_cif.got.tgz:807.got - 2010.05.20 11:14:30.
