data_PCOD9580685
_publ_section_title
;
Structure prediction by ZEFSAII (Michael W. Deem and Ramdas Pophale) SiO2 
 PCOD9580685
Probable space group: P 62
;
_chemical_formula_sum "Si O2"
_cell_formula_units_Z 24
_cell_length_a 7.925051
_cell_length_b 7.925051
_cell_length_c 19.174810
_cell_angle_alpha 90.000000
_cell_angle_beta 90.000000
_cell_angle_gamma 120.000000
_cell_volume 1042.955629
_symmetry_space_group_name_H-M "P 62"
_symmetry_group_IT_number 171
_symmetry_cell_setting 'hexagonal'
loop_
_space_group_symop_operation_xyz
x,y,z
x-y,x,1/3+z
-y,x-y,2/3+z
-x,-y,z
-x+y,-x,1/3+z
y,-x+y,2/3+z
loop_
_atom_site_type_symbol
_atom_site_label
_atom_site_fract_x
_atom_site_fract_y
_atom_site_fract_z
Si Si1 0.006411 0.765811 0.643650
Si Si2 0.828060 0.274992 0.107026
Si Si3 0.695959 0.798500 0.591708
Si Si4 0.398828 0.631690 0.015142
O O1 0.879731 0.700539 0.715826
O O2 0.832788 0.702713 0.588337
O O3 0.165393 0.697772 0.642331
O O4 0.159860 0.995206 0.629399
O O5 0.828615 0.193682 0.182586
O O6 0.643564 0.299259 0.088096
O O7 0.000000 0.500000 0.103608
O O8 0.503967 0.705083 0.639344
O O9 0.500000 0.500000 0.022564
#
# Coordination Sequence:
#
# PCOD9580685 Si02
#       4
#     6   6   6   6
#     4  10  22  44  71 102 150 198 255 313 382 472
#     4  12  23  44  76 109 154 204 256 326 395 470
#     4  10  23  45  74 109 151 198 255 323 400 470
#     4  10  22  47  70 104 154 195 256 329 382 477
#
# _framework density 23.011527000000001
#
# number of rings (size 3 to 8) (size 9 to 14) (size 15 to 20)
#    0.000    1.500    2.500    3.000    0.000    4.000 
#   18.000    0.000    0.000    0.000    0.000    0.000 
#    0.000    0.000    0.000    0.000    0.000    0.000 
#
# Total GULP energy -133626.048796 kJ/mol
# GULP energy per Si atom -5567.752033 kJ/mol
# Density = 2.295915 g / cm^3
# Si number density = 23.011527 Si / 1000 Ang^3
#
#
#
# Elastic Constant Matrix: (Units=GPa)
#
#
# Indices 1 2 3 4 5 6 
#
# 1 155.8654 62.0881 53.6117 0.0000 0.0000 0.0000
# 2 62.0881 155.8654 53.6117 0.0000 0.0000 0.0000
# 3 53.6117 53.6117 123.4504 0.0000 0.0000 0.0000
# 4 0.0000 0.0000 0.0000 2.5159 0.0000 0.0000
# 5 0.0000 0.0000 0.0000 0.0000 2.5159 0.0000
# 6 0.0000 0.0000 0.0000 0.0000 0.0000 46.8887
#
#
#
# Elastic Compliance Matrix: (Units=1/GPa)
#
#
# Indices 1 2 3 4 5 6 
#
# 1 0.008249 -0.002414 -0.002534 0.000000 0.000000 0.000000
# 2 -0.002414 0.008249 -0.002534 0.000000 0.000000 0.000000
# 3 -0.002534 -0.002534 0.010301 0.000000 0.000000 0.000000
# 4 0.000000 0.000000 0.000000 0.397467 0.000000 0.000000
# 5 0.000000 0.000000 0.000000 0.000000 0.397467 0.000000
# 6 0.000000 0.000000 0.000000 0.000000 0.000000 0.021327
#
#
# Mechanical properties :
#
#
# Convention : Reuss Voigt Hill
#
# Bulk Modulus (GPa) = 84.49433 85.97823 85.23628
# Shear Modulus (GPa) = 5.80066 28.10877 16.95472
#
# Velocity S-wave (km/s) = 1.58941 3.49880 2.71734
# Velocity P-wave (km/s) = 6.33769 7.33255 6.85320
#
# Compressibility (1/GPa) = 0.01183511
#
# Stress axis : x y z
#
# Youngs Moduli (GPa) = 121.22506 121.22506 97.07591
#
# Poissons Ratio (x) = 0.29269 0.24598
# Poissons Ratio (y) = 0.29269 0.24598
# Poissons Ratio (z) = 0.30717 0.30717
#
# Static dielectric constant tensor:
#      x y z
#    x 2.058180 0.000000 0.000000 
#    y 0.000000 2.058180 0.000000 
#    z 0.000000 0.000000 1.803670 
# 
# From -- ./inp_files/2737.got.cif
#   From: 2010.05.17/outbox.cif.g08.bks.cpg/sg171_2_cif.got.tgz:2737.got - 2010.05.20 11:16:09.
