data_PCOD9580279
_publ_section_title
;
Structure prediction by ZEFSAII (Michael W. Deem and Ramdas Pophale) SiO2 
 PCOD9580279
Probable space group: P 65
;
_chemical_formula_sum "Si O2"
_cell_formula_units_Z 48
_cell_length_a 14.980057
_cell_length_b 14.980057
_cell_length_c 11.024857
_cell_angle_alpha 90.000000
_cell_angle_beta 90.000000
_cell_angle_gamma 120.000000
_cell_volume 2142.547843
_symmetry_space_group_name_H-M "P 65"
_symmetry_group_IT_number 170
_symmetry_cell_setting 'hexagonal'
loop_
_space_group_symop_operation_xyz
x,y,z
x-y,x,5/6+z
-y,x-y,2/3+z
-x,-y,1/2+z
-x+y,-x,1/3+z
y,-x+y,1/6+z
loop_
_atom_site_type_symbol
_atom_site_label
_atom_site_fract_x
_atom_site_fract_y
_atom_site_fract_z
Si Si1 0.331153 0.356669 0.105020
Si Si2 0.830628 0.971846 0.685460
Si Si3 0.288336 0.350928 0.569331
Si Si4 0.504420 0.753255 0.823929
Si Si5 0.570042 0.104432 0.650413
Si Si6 0.278794 0.235296 0.341291
Si Si7 0.310267 0.707718 0.748505
Si Si8 0.575009 0.696614 0.245115
O O1 0.256777 0.265280 0.014752
O O2 0.314967 0.452306 0.090768
O O3 0.287320 0.314713 0.238395
O O4 0.448151 0.389291 0.086840
O O5 0.852718 0.927537 0.566031
O O6 0.794017 0.877707 0.783714
O O7 0.386326 0.448137 0.501940
O O8 0.245485 0.260520 0.467948
O O9 0.337658 0.318656 0.678482
O O10 0.201910 0.382277 0.603700
O O11 0.604172 0.742820 0.843628
O O12 0.405282 0.686983 0.741690
O O13 0.452874 0.738636 0.955416
O O14 0.614069 0.224707 0.652978
O O15 0.617337 0.088100 0.525071
O O16 0.331884 0.810999 0.820303
#
# Coordination Sequence:
#
# PCOD9580279 Si02
#       8
#     6   6   6   6   6   6   6   6
#     4  10  22  41  63  94 130 177 221 266 340 409
#     4   9  20  41  66  92 126 160 219 276 330 398
#     4  11  25  43  75  97 140 179 232 287 340 411
#     4  11  22  39  63  95 131 172 223 277 334 403
#     4  11  25  42  66  93 141 181 220 277 343 412
#     4  10  22  38  68  96 124 177 222 272 331 405
#     4  11  22  39  62  95 140 171 227 285 334 408
#     4  11  24  47  65 104 136 181 228 288 346 412
#
# _framework density 22.403234000000001
#
# number of rings (size 3 to 8) (size 9 to 14) (size 15 to 20)
#    0.000    1.500    2.500    2.250    7.000    0.000 
#    6.750    1.250    0.000    0.000    0.000    0.000 
#    0.000    0.000    0.000    0.000    0.000    0.000 
#
# Total GULP energy -267773.034547 kJ/mol
# GULP energy per Si atom -5578.604886 kJ/mol
# Density = 2.235224 g / cm^3
# Si number density = 22.403234 Si / 1000 Ang^3
#
#
#
# Elastic Constant Matrix: (Units=GPa)
#
#
# Indices 1 2 3 4 5 6 
#
# 1 59.4866 22.7172 -0.3413 0.0000 0.0000 0.0000
# 2 22.7172 59.4866 -0.3413 0.0000 0.0000 0.0000
# 3 -0.3413 -0.3413 50.3517 0.0000 0.0000 0.0000
# 4 0.0000 0.0000 0.0000 20.8781 0.0000 0.0000
# 5 0.0000 0.0000 0.0000 0.0000 20.8781 0.0000
# 6 0.0000 0.0000 0.0000 0.0000 0.0000 18.3847
#
#
#
# Elastic Compliance Matrix: (Units=1/GPa)
#
#
# Indices 1 2 3 4 5 6 
#
# 1 0.019681 -0.007515 0.000082 0.000000 0.000000 0.000000
# 2 -0.007515 0.019681 0.000082 0.000000 0.000000 0.000000
# 3 0.000082 0.000082 0.019861 0.000000 0.000000 0.000000
# 4 0.000000 0.000000 0.000000 0.047897 0.000000 0.000000
# 5 0.000000 0.000000 0.000000 0.000000 0.047897 0.000000
# 6 0.000000 0.000000 0.000000 0.000000 0.000000 0.054393
#
#
# Mechanical properties :
#
#
# Convention : Reuss Voigt Hill
#
# Bulk Modulus (GPa) = 22.46061 23.71046 23.08553
# Shear Modulus (GPa) = 20.92465 21.84753 21.38609
#
# Velocity S-wave (km/s) = 3.05946 3.12620 3.09301
# Velocity P-wave (km/s) = 4.74634 4.86182 4.80443
#
# Compressibility (1/GPa) = 0.04452240
#
# Stress axis : x y z
#
# Youngs Moduli (GPa) = 50.81026 50.81026 50.34884
#
# Poissons Ratio (x) = 0.38186 -0.00415
# Poissons Ratio (y) = 0.38186 -0.00415
# Poissons Ratio (z) = -0.00419 -0.00419
#
# Static dielectric constant tensor:
#      x y z
#    x 1.872420 0.000000 0.000000 
#    y 0.000000 1.872420 0.000000 
#    z 0.000000 0.000000 1.871040 
# 
# From -- ./inp_files/1054.got.cif
#   From: 2010.05.17/outbox.cif.g08.bks.cpg/sg170_cif.got.tgz:1054.got - 2010.05.20 11:14:30.
