data_PCOD9580447
_publ_section_title
;
Structure prediction by ZEFSAII (Michael W. Deem and Ramdas Pophale) SiO2 
 PCOD9580447
Probable space group: P 62
;
_chemical_formula_sum "Si O2"
_cell_formula_units_Z 33
_cell_length_a 12.601683
_cell_length_b 12.601683
_cell_length_c 10.381406
_cell_angle_alpha 90.000000
_cell_angle_beta 90.000000
_cell_angle_gamma 120.000000
_cell_volume 1427.722845
_symmetry_space_group_name_H-M "P 62"
_symmetry_group_IT_number 171
_symmetry_cell_setting 'hexagonal'
loop_
_space_group_symop_operation_xyz
x,y,z
x-y,x,1/3+z
-y,x-y,2/3+z
-x,-y,z
-x+y,-x,1/3+z
y,-x+y,2/3+z
loop_
_atom_site_type_symbol
_atom_site_label
_atom_site_fract_x
_atom_site_fract_y
_atom_site_fract_z
Si Si1 0.823675 0.225581 0.835580
Si Si2 0.278934 0.255162 0.959699
Si Si3 0.292428 0.227874 0.657868
Si Si4 0.226208 0.535739 0.070073
Si Si5 0.199238 0.609886 0.632160
Si Si6 0.000000 0.500000 0.232176
O O1 0.816165 0.128912 0.729616
O O2 0.691341 0.167899 0.910019
O O3 0.852296 0.348854 0.754206
O O4 0.933951 0.250958 0.930836
O O5 0.297715 0.235465 0.811612
O O6 0.385914 0.397259 0.978259
O O7 0.139257 0.224010 0.962882
O O8 0.434331 0.274245 0.626691
O O9 0.304617 0.512950 0.178669
O O10 0.119270 0.547393 0.142411
O O11 0.322194 0.661071 0.006720
#
# Coordination Sequence:
#
# PCOD9580447 Si02
#       6
#     6   6   6   6   6   3
#     4  11  24  44  72 111 148 201 255 322 390 463
#     4  11  25  45  71 101 141 197 255 317 385 455
#     4  11  25  46  69 102 147 195 258 311 387 460
#     4  10  19  36  64  97 144 190 230 307 389 458
#     4  10  20  39  69 107 150 185 249 313 388 465
#     4  10  18  36  68  98 134 190 232 306 390 454
#
# _framework density 23.11373
#
# number of rings (size 3 to 8) (size 9 to 14) (size 15 to 20)
#    0.000    1.455    3.636    3.273    2.545    2.909 
#    0.000    4.545    4.000    0.000    0.000    0.000 
#    0.000    0.000    0.000    0.000    0.000    0.000 
#
# Total GULP energy -184141.762639 kJ/mol
# GULP energy per Si atom -5580.053413 kJ/mol
# Density = 2.306112 g / cm^3
# Si number density = 23.113730 Si / 1000 Ang^3
#
#
#
# Elastic Constant Matrix: (Units=GPa)
#
#
# Indices 1 2 3 4 5 6 
#
# 1 87.0453 28.3488 22.5216 0.0000 0.0000 0.0000
# 2 28.3488 87.0453 22.5216 0.0000 0.0000 0.0000
# 3 22.5216 22.5216 51.9954 0.0000 0.0000 0.0000
# 4 0.0000 0.0000 0.0000 35.8292 0.0000 0.0000
# 5 0.0000 0.0000 0.0000 0.0000 35.8292 0.0000
# 6 0.0000 0.0000 0.0000 0.0000 0.0000 29.3482
#
#
#
# Elastic Compliance Matrix: (Units=1/GPa)
#
#
# Indices 1 2 3 4 5 6 
#
# 1 0.013733 -0.003304 -0.004517 0.000000 0.000000 0.000000
# 2 -0.003304 0.013733 -0.004517 0.000000 0.000000 0.000000
# 3 -0.004517 -0.004517 0.023146 0.000000 0.000000 0.000000
# 4 0.000000 0.000000 0.000000 0.027910 0.000000 0.000000
# 5 0.000000 0.000000 0.000000 0.000000 0.027910 0.000000
# 6 0.000000 0.000000 0.000000 0.000000 0.000000 0.034074
#
#
# Mechanical properties :
#
#
# Convention : Reuss Voigt Hill
#
# Bulk Modulus (GPa) = 38.55820 41.42999 39.99410
# Shear Modulus (GPa) = 28.76406 30.38093 29.57250
#
# Velocity S-wave (km/s) = 3.53151 3.62941 3.58080
# Velocity P-wave (km/s) = 5.77468 5.96044 5.86830
#
# Compressibility (1/GPa) = 0.02593482
#
# Stress axis : x y z
#
# Youngs Moduli (GPa) = 72.81704 72.81704 43.20422
#
# Poissons Ratio (x) = 0.24057 0.19517
# Poissons Ratio (y) = 0.24057 0.19517
# Poissons Ratio (z) = 0.32895 0.32895
#
# Static dielectric constant tensor:
#      x y z
#    x 1.973540 0.000000 0.000000 
#    y 0.000000 1.973540 0.000000 
#    z 0.000000 0.000000 1.939080 
# 
# From -- ./inp_files/1546.got.cif
#   From: 2010.05.17/outbox.cif.g08.bks.cpg/sg171_1_cif.got.tgz:1546.got - 2010.05.20 11:16:09.
