data_PCOD9580543
_publ_section_title
;
Structure prediction by ZEFSAII (Michael W. Deem and Ramdas Pophale) SiO2 
 PCOD9580543
Probable space group: P 62
;
_chemical_formula_sum "Si O2"
_cell_formula_units_Z 33
_cell_length_a 15.303651
_cell_length_b 15.303651
_cell_length_c 7.218247
_cell_angle_alpha 90.000000
_cell_angle_beta 90.000000
_cell_angle_gamma 120.000000
_cell_volume 1464.038430
_symmetry_space_group_name_H-M "P 62"
_symmetry_group_IT_number 171
_symmetry_cell_setting 'hexagonal'
loop_
_space_group_symop_operation_xyz
x,y,z
x-y,x,1/3+z
-y,x-y,2/3+z
-x,-y,z
-x+y,-x,1/3+z
y,-x+y,2/3+z
loop_
_atom_site_type_symbol
_atom_site_label
_atom_site_fract_x
_atom_site_fract_y
_atom_site_fract_z
Si Si1 0.199389 0.854816 0.119370
Si Si2 0.949576 0.351843 0.649267
Si Si3 0.500000 0.000000 0.277293
Si Si4 0.837121 0.123572 0.548952
Si Si5 0.088897 0.960683 0.988597
Si Si6 0.348542 0.384091 0.903058
O O1 0.189700 0.878282 0.333563
O O2 0.126687 0.880556 0.999770
O O3 0.140362 0.732578 0.135683
O O4 0.310650 0.937631 0.044145
O O5 0.925688 0.414725 0.798910
O O6 0.947549 0.382948 0.436677
O O7 0.870460 0.231742 0.642988
O O8 0.410811 0.972560 0.425268
O O9 0.734493 0.029484 0.623302
O O10 0.935179 0.113554 0.574642
O O11 0.080442 0.991230 0.196234
#
# Coordination Sequence:
#
# PCOD9580543 Si02
#       6
#     6   6   3   6   6   6
#     4  10  20  40  65  95 135 172 214 258 319 387
#     4  10  23  39  66  99 131 169 211 267 322 387
#     4  12  24  42  66  96 126 164 224 278 328 380
#     4  10  20  40  64  98 129 174 214 260 320 390
#     4  11  23  38  58  90 143 188 225 256 296 369
#     4  11  23  40  68  98 129 169 221 264 322 392
#
# _framework density 22.540391
#
# number of rings (size 3 to 8) (size 9 to 14) (size 15 to 20)
#    0.000    1.455    1.818    4.909    5.091    0.000 
#    0.000   25.455    0.000    2.182    0.000    0.000 
#    0.000    0.000    0.000    0.000    0.000    0.000 
#
# Total GULP energy -184094.679711 kJ/mol
# GULP energy per Si atom -5578.626658 kJ/mol
# Density = 2.248909 g / cm^3
# Si number density = 22.540391 Si / 1000 Ang^3
#
#
#
# Elastic Constant Matrix: (Units=GPa)
#
#
# Indices 1 2 3 4 5 6 
#
# 1 68.4870 15.5967 20.8321 0.0000 0.0000 0.0000
# 2 15.5967 68.4870 20.8321 0.0000 0.0000 0.0000
# 3 20.8321 20.8321 138.1516 0.0000 0.0000 0.0000
# 4 0.0000 0.0000 0.0000 46.8985 0.0000 0.0000
# 5 0.0000 0.0000 0.0000 0.0000 46.8985 0.0000
# 6 0.0000 0.0000 0.0000 0.0000 0.0000 26.4451
#
#
#
# Elastic Compliance Matrix: (Units=1/GPa)
#
#
# Indices 1 2 3 4 5 6 
#
# 1 0.015880 -0.003027 -0.001938 0.000000 0.000000 0.000000
# 2 -0.003027 0.015880 -0.001938 0.000000 0.000000 0.000000
# 3 -0.001938 -0.001938 0.007823 0.000000 0.000000 0.000000
# 4 0.000000 0.000000 0.000000 0.021323 0.000000 0.000000
# 5 0.000000 0.000000 0.000000 0.000000 0.021323 0.000000
# 6 0.000000 0.000000 0.000000 0.000000 0.000000 0.037814
#
#
# Mechanical properties :
#
#
# Convention : Reuss Voigt Hill
#
# Bulk Modulus (GPa) = 38.79448 43.29414 41.04431
# Shear Modulus (GPa) = 35.10215 38.57275 36.83745
#
# Velocity S-wave (km/s) = 3.95054 4.14124 4.04702
# Velocity P-wave (km/s) = 6.16908 6.48965 6.33139
#
# Compressibility (1/GPa) = 0.02577686
#
# Stress axis : x y z
#
# Youngs Moduli (GPa) = 62.97157 62.97157 127.82911
#
# Poissons Ratio (x) = 0.19061 0.24775
# Poissons Ratio (y) = 0.19061 0.24775
# Poissons Ratio (z) = 0.12205 0.12205
#
# Static dielectric constant tensor:
#      x y z
#    x 1.888210 0.000000 0.000000 
#    y 0.000000 1.888210 0.000000 
#    z 0.000000 0.000000 1.916440 
# 
# From -- ./inp_files/655.got.cif
#   From: 2010.05.17/outbox.cif.g08.bks.cpg/sg171_1_cif.got.tgz:655.got - 2010.05.20 11:16:09.
