data_PCOD9580830
_publ_section_title
;
Structure prediction by ZEFSAII (Michael W. Deem and Ramdas Pophale) SiO2 
 PCOD9580830
Probable space group: P 62
;
_chemical_formula_sum "Si O2"
_cell_formula_units_Z 33
_cell_length_a 17.437687
_cell_length_b 17.437687
_cell_length_c 5.847284
_cell_angle_alpha 90.000000
_cell_angle_beta 90.000000
_cell_angle_gamma 120.000000
_cell_volume 1539.793831
_symmetry_space_group_name_H-M "P 62"
_symmetry_group_IT_number 171
_symmetry_cell_setting 'hexagonal'
loop_
_space_group_symop_operation_xyz
x,y,z
x-y,x,1/3+z
-y,x-y,2/3+z
-x,-y,z
-x+y,-x,1/3+z
y,-x+y,2/3+z
loop_
_atom_site_type_symbol
_atom_site_label
_atom_site_fract_x
_atom_site_fract_y
_atom_site_fract_z
Si Si1 0.798449 0.631673 0.409550
Si Si2 0.852496 0.370938 0.154844
Si Si3 0.218031 0.835084 0.249076
Si Si4 0.997215 0.379851 0.834038
Si Si5 0.000000 0.500000 0.487401
Si Si6 0.304607 0.725967 0.669440
O O1 0.851081 0.657002 0.654059
O O2 0.722426 0.657484 0.441105
O O3 0.756892 0.523535 0.385034
O O4 0.835210 0.665098 0.153227
O O5 0.803516 0.266543 0.214668
O O6 0.785867 0.408127 0.145620
O O7 0.919082 0.424153 0.355145
O O8 0.922425 0.395906 0.950566
O O9 0.315587 0.916409 0.303920
O O10 0.035529 0.445764 0.625278
O O11 0.263894 0.628273 0.558907
#
# Coordination Sequence:
#
# PCOD9580830 Si02
#       6
#     6   6   6   6   3   6
#     4  11  25  44  60  96 120 164 226 269 342 392
#     4  11  25  40  59  95 123 169 234 266 344 389
#     4  11  24  44  63  86 128 162 220 280 325 398
#     4  11  25  40  64  87 127 169 223 279 340 400
#     4  12  22  38  60  88 120 166 224 278 326 400
#     4  12  23  37  59  79 125 167 218 286 328 393
#
# _framework density 21.431441
#
# number of rings (size 3 to 8) (size 9 to 14) (size 15 to 20)
#    0.000    0.727    3.636    3.818    7.636    1.455 
#    0.000    0.000    0.000    0.000    0.000    0.000 
#    0.000    0.000    0.000  130.909    0.000    0.000 
#
# Total GULP energy -183888.721863 kJ/mol
# GULP energy per Si atom -5572.385511 kJ/mol
# Density = 2.138266 g / cm^3
# Si number density = 21.431441 Si / 1000 Ang^3
#
#
#
# Elastic Constant Matrix: (Units=GPa)
#
#
# Indices 1 2 3 4 5 6 
#
# 1 64.6805 32.4838 5.2528 0.0000 0.0000 0.0000
# 2 32.4838 64.6805 5.2528 0.0000 0.0000 0.0000
# 3 5.2528 5.2528 117.0055 0.0000 0.0000 0.0000
# 4 0.0000 0.0000 0.0000 24.9528 0.0000 0.0000
# 5 0.0000 0.0000 0.0000 0.0000 24.9528 0.0000
# 6 0.0000 0.0000 0.0000 0.0000 0.0000 16.0984
#
#
#
# Elastic Compliance Matrix: (Units=1/GPa)
#
#
# Indices 1 2 3 4 5 6 
#
# 1 0.020701 -0.010359 -0.000464 0.000000 0.000000 0.000000
# 2 -0.010359 0.020701 -0.000464 0.000000 0.000000 0.000000
# 3 -0.000464 -0.000464 0.008588 0.000000 0.000000 0.000000
# 4 0.000000 0.000000 0.000000 0.040076 0.000000 0.000000
# 5 0.000000 0.000000 0.000000 0.000000 0.040076 0.000000
# 6 0.000000 0.000000 0.000000 0.000000 0.000000 0.062118
#
#
# Mechanical properties :
#
#
# Convention : Reuss Voigt Hill
#
# Bulk Modulus (GPa) = 36.47609 36.92726 36.70168
# Shear Modulus (GPa) = 22.32428 26.75928 24.54178
#
# Velocity S-wave (km/s) = 3.23098 3.53739 3.38765
# Velocity P-wave (km/s) = 5.56559 5.82683 5.69771
#
# Compressibility (1/GPa) = 0.02741522
#
# Stress axis : x y z
#
# Youngs Moduli (GPa) = 48.30787 48.30787 116.43758
#
# Poissons Ratio (x) = 0.50040 0.05406
# Poissons Ratio (y) = 0.50040 0.05406
# Poissons Ratio (z) = 0.02243 0.02243
#
# Static dielectric constant tensor:
#      x y z
#    x 1.849140 0.000000 0.000000 
#    y 0.000000 1.849140 0.000000 
#    z 0.000000 0.000000 1.983670 
# 
# From -- ./inp_files/675.got.cif
#   From: 2010.05.17/outbox.cif.g08.bks.cpg/sg171_1_cif.got.tgz:675.got - 2010.05.20 11:16:09.
