data_PCOD9580623
_publ_section_title
;
Structure prediction by ZEFSAII (Michael W. Deem and Ramdas Pophale) SiO2 
 PCOD9580623
Probable space group: P 62
;
_chemical_formula_sum "Si O2"
_cell_formula_units_Z 48
_cell_length_a 19.405882
_cell_length_b 19.405882
_cell_length_c 5.731025
_cell_angle_alpha 90.000000
_cell_angle_beta 90.000000
_cell_angle_gamma 120.000000
_cell_volume 1869.087819
_symmetry_space_group_name_H-M "P 62"
_symmetry_group_IT_number 171
_symmetry_cell_setting 'hexagonal'
loop_
_space_group_symop_operation_xyz
x,y,z
x-y,x,1/3+z
-y,x-y,2/3+z
-x,-y,z
-x+y,-x,1/3+z
y,-x+y,2/3+z
loop_
_atom_site_type_symbol
_atom_site_label
_atom_site_fract_x
_atom_site_fract_y
_atom_site_fract_z
Si Si1 0.474598 0.067468 0.683120
Si Si2 0.146126 0.413058 0.612199
Si Si3 0.569691 0.358583 0.510140
Si Si4 0.307026 0.096114 0.428122
Si Si5 0.905619 0.049535 0.040227
Si Si6 0.783258 0.436982 0.344957
Si Si7 0.529006 0.934627 0.185174
Si Si8 0.016182 0.749841 0.581563
O O1 0.559916 0.149729 0.677967
O O2 0.431097 0.055776 0.436074
O O3 0.500000 0.000000 0.687218
O O4 0.433851 0.059797 0.932389
O O5 0.147663 0.475350 0.801370
O O6 0.205587 0.385308 0.705341
O O7 0.173616 0.467556 0.381880
O O8 0.065256 0.333488 0.569538
O O9 0.589813 0.331348 0.265622
O O10 0.607235 0.452905 0.518881
O O11 0.579027 0.325981 0.755146
O O12 0.228677 0.105713 0.453692
O O13 0.310789 0.066186 0.685977
O O14 0.290264 0.048493 0.181386
O O15 0.988085 0.088037 0.901709
O O16 0.824724 0.001104 0.888856
O O17 0.500000 0.000000 0.184004
#
# Coordination Sequence:
#
# PCOD9580623 Si02
#       8
#     6   6   6   6   6   6   6   6
#     4   8  12  19  30  48  75  98 117 138 161 190
#     4   9  20  30  48  54  76  88 118 149 178 216
#     4   8  15  23  37  57  71  94 119 140 171 193
#     4  10  22  35  48  61  74  91 110 135 182 231
#     4   9  20  38  52  64  77  86 101 127 172 244
#     4   8  15  23  37  57  71  94 119 140 171 193
#     4   8  12  19  30  48  75  98 117 138 161 190
#     4  10  22  35  48  61  74  91 110 135 182 231
#
# _framework density 25.680976000000001
#
# number of rings (size 3 to 8) (size 9 to 14) (size 15 to 20)
#    0.750    2.500    0.000    0.000    3.500    8.000 
#    0.000    5.625    0.000    0.000    0.000    0.000 
#    0.000    0.000    0.000    0.000    0.000    0.000 
#
# Total GULP energy -267879.043446 kJ/mol
# GULP energy per Si atom -5580.813405 kJ/mol
# Density = 2.562252 g / cm^3
# Si number density = 25.680976 Si / 1000 Ang^3
#
#
#
# Elastic Constant Matrix: (Units=GPa)
#
#
# Indices 1 2 3 4 5 6 
#
# 1 76.6409 19.8328 40.8736 0.0000 0.0000 0.0000
# 2 19.8328 76.6409 40.8736 0.0000 0.0000 0.0000
# 3 40.8736 40.8736 265.3961 0.0000 0.0000 0.0000
# 4 0.0000 0.0000 0.0000 8.5835 0.0000 0.0000
# 5 0.0000 0.0000 0.0000 0.0000 8.5835 0.0000
# 6 0.0000 0.0000 0.0000 0.0000 0.0000 28.4040
#
#
#
# Elastic Compliance Matrix: (Units=1/GPa)
#
#
# Indices 1 2 3 4 5 6 
#
# 1 0.014762 -0.002841 -0.001836 0.000000 0.000000 0.000000
# 2 -0.002841 0.014762 -0.001836 0.000000 0.000000 0.000000
# 3 -0.001836 -0.001836 0.004333 0.000000 0.000000 0.000000
# 4 0.000000 0.000000 0.000000 0.116503 0.000000 0.000000
# 5 0.000000 0.000000 0.000000 0.000000 0.116503 0.000000
# 6 0.000000 0.000000 0.000000 0.000000 0.000000 0.035206
#
#
# Mechanical properties :
#
#
# Convention : Reuss Voigt Hill
#
# Bulk Modulus (GPa) = 48.00307 69.09311 58.54809
# Shear Modulus (GPa) = 15.52604 30.25406 22.89005
#
# Velocity S-wave (km/s) = 2.46148 3.43603 2.98874
# Velocity P-wave (km/s) = 5.17795 6.53487 5.89558
#
# Compressibility (1/GPa) = 0.02083200
#
# Stress axis : x y z
#
# Youngs Moduli (GPa) = 67.74065 67.74065 230.76178
#
# Poissons Ratio (x) = 0.19245 0.42368
# Poissons Ratio (y) = 0.19245 0.42368
# Poissons Ratio (z) = 0.12437 0.12437
#
# Static dielectric constant tensor:
#      x y z
#    x 2.053470 0.000000 0.000000 
#    y 0.000000 2.053470 0.000000 
#    z 0.000000 0.000000 2.050930 
# 
# From -- ./inp_files/4325.got.cif
#   From: 2010.05.17/outbox.cif.g08.bks.cpg/sg171_3_cif.got.tgz:4325.got - 2010.05.20 11:16:09.
