data_PCOD9580167
_publ_section_title
;
Structure prediction by ZEFSAII (Michael W. Deem and Ramdas Pophale) SiO2 
 PCOD9580167
Probable space group: P 65
;
_chemical_formula_sum "Si O2"
_cell_formula_units_Z 42
_cell_length_a 15.631888
_cell_length_b 15.631888
_cell_length_c 9.834383
_cell_angle_alpha 90.000000
_cell_angle_beta 90.000000
_cell_angle_gamma 120.000000
_cell_volume 2081.136753
_symmetry_space_group_name_H-M "P 65"
_symmetry_group_IT_number 170
_symmetry_cell_setting 'hexagonal'
loop_
_space_group_symop_operation_xyz
x,y,z
x-y,x,5/6+z
-y,x-y,2/3+z
-x,-y,1/2+z
-x+y,-x,1/3+z
y,-x+y,1/6+z
loop_
_atom_site_type_symbol
_atom_site_label
_atom_site_fract_x
_atom_site_fract_y
_atom_site_fract_z
Si Si1 0.000491 0.744443 0.995540
Si Si2 0.027402 0.664697 0.709756
Si Si3 0.472822 0.649280 0.851815
Si Si4 0.154055 0.379036 0.688642
Si Si5 0.126599 0.188953 0.322947
Si Si6 0.261166 0.533095 0.900369
Si Si7 0.707511 0.475571 0.950426
O O1 0.003546 0.686815 0.861764
O O2 0.930465 0.787990 0.945028
O O3 0.112041 0.820264 0.034639
O O4 0.952162 0.671229 0.120774
O O5 0.930742 0.566899 0.662600
O O6 0.057099 0.768257 0.633338
O O7 0.122293 0.652147 0.720536
O O8 0.367202 0.548808 0.855917
O O9 0.471995 0.715455 0.727260
O O10 0.475708 0.698976 0.996602
O O11 0.174798 0.438077 0.826839
O O12 0.226485 0.456872 0.574990
O O13 0.153481 0.106694 0.369803
O O14 0.259963 0.629279 0.841860
#
# Coordination Sequence:
#
# PCOD9580167 Si02
#       7
#     6   6   6   6   6   6   6
#     4  10  18  36  70  91 120 159 210 258 311 379
#     4  10  21  36  67  94 119 161 221 261 309 370
#     4  12  23  43  64  89 124 172 211 264 320 375
#     4  11  21  40  65  97 122 162 210 267 313 375
#     4  10  17  34  61  94 120 158 211 258 299 389
#     4  12  26  41  60  91 130 163 218 262 320 374
#     4  11  20  42  65  86 121 169 215 256 312 384
#
# _framework density 20.181280000000001
#
# number of rings (size 3 to 8) (size 9 to 14) (size 15 to 20)
#    0.000    1.143    8.571    0.857    0.000    1.143 
#    5.143    1.429    0.000    0.000    0.000    0.000 
#    0.000    0.000    0.000    0.000    0.000    0.000 
#
# Total GULP energy -234380.724035 kJ/mol
# GULP energy per Si atom -5580.493429 kJ/mol
# Density = 2.013535 g / cm^3
# Si number density = 20.181280 Si / 1000 Ang^3
#
#
#
# Elastic Constant Matrix: (Units=GPa)
#
#
# Indices 1 2 3 4 5 6 
#
# 1 50.2366 7.4530 -5.1126 0.0000 0.0000 0.0000
# 2 7.4530 50.2366 -5.1126 0.0000 0.0000 0.0000
# 3 -5.1126 -5.1126 26.1754 0.0000 0.0000 0.0000
# 4 0.0000 0.0000 0.0000 10.0522 0.0000 0.0000
# 5 0.0000 0.0000 0.0000 0.0000 10.0522 0.0000
# 6 0.0000 0.0000 0.0000 0.0000 0.0000 21.3918
#
#
#
# Elastic Compliance Matrix: (Units=1/GPa)
#
#
# Indices 1 2 3 4 5 6 
#
# 1 0.020665 -0.002709 0.003507 0.000000 0.000000 0.000000
# 2 -0.002709 0.020665 0.003507 0.000000 0.000000 0.000000
# 3 0.003507 0.003507 0.039574 0.000000 0.000000 0.000000
# 4 0.000000 0.000000 0.000000 0.099481 0.000000 0.000000
# 5 0.000000 0.000000 0.000000 0.000000 0.099481 0.000000
# 6 0.000000 0.000000 0.000000 0.000000 0.000000 0.046747
#
#
# Mechanical properties :
#
#
# Convention : Reuss Voigt Hill
#
# Bulk Modulus (GPa) = 11.17144 13.45601 12.31372
# Shear Modulus (GPa) = 14.37448 16.92729 15.65088
#
# Velocity S-wave (km/s) = 2.67173 2.89928 2.78783
# Velocity P-wave (km/s) = 3.88138 4.22964 4.05924
#
# Compressibility (1/GPa) = 0.08951399
#
# Stress axis : x y z
#
# Youngs Moduli (GPa) = 48.39190 48.39190 25.26921
#
# Poissons Ratio (x) = 0.13109 -0.08862
# Poissons Ratio (y) = 0.13109 -0.08862
# Poissons Ratio (z) = -0.16972 -0.16972
#
# Static dielectric constant tensor:
#      x y z
#    x 1.737200 0.000000 0.000000 
#    y 0.000000 1.737200 0.000000 
#    z 0.000000 0.000000 1.717010 
# 
# From -- ./inp_files/1011.got.cif
#   From: 2010.05.17/outbox.cif.g08.bks.cpg/sg170_cif.got.tgz:1011.got - 2010.05.20 11:14:30.
