data_PCOD9580298
_publ_section_title
;
Structure prediction by ZEFSAII (Michael W. Deem and Ramdas Pophale) SiO2 
 PCOD9580298
Probable space group: P 65
;
_chemical_formula_sum "Si O2"
_cell_formula_units_Z 42
_cell_length_a 13.397491
_cell_length_b 13.397491
_cell_length_c 12.208262
_cell_angle_alpha 90.000000
_cell_angle_beta 90.000000
_cell_angle_gamma 120.000000
_cell_volume 1897.716880
_symmetry_space_group_name_H-M "P 65"
_symmetry_group_IT_number 170
_symmetry_cell_setting 'hexagonal'
loop_
_space_group_symop_operation_xyz
x,y,z
x-y,x,5/6+z
-y,x-y,2/3+z
-x,-y,1/2+z
-x+y,-x,1/3+z
y,-x+y,1/6+z
loop_
_atom_site_type_symbol
_atom_site_label
_atom_site_fract_x
_atom_site_fract_y
_atom_site_fract_z
Si Si1 0.568270 0.823753 0.222510
Si Si2 0.817048 0.389390 0.979912
Si Si3 0.632266 0.032779 0.693354
Si Si4 0.009443 0.157491 0.874991
Si Si5 0.514712 0.940241 0.030377
Si Si6 0.609637 0.164820 0.883981
Si Si7 0.098784 0.925736 0.902884
O O1 0.497102 0.698221 0.167326
O O2 0.576774 0.915146 0.130324
O O3 0.497998 0.834346 0.325347
O O4 0.692987 0.847481 0.254252
O O5 0.922704 0.410269 0.901554
O O6 0.699141 0.286502 0.933995
O O7 0.851378 0.362392 0.098546
O O8 0.730861 0.000464 0.686838
O O9 0.603415 0.076310 0.582491
O O10 0.666945 0.131037 0.784826
O O11 0.114585 0.160052 0.805266
O O12 0.895205 0.046288 0.831626
O O13 0.574673 0.065679 0.974598
O O14 0.111692 0.968839 0.779390
#
# Coordination Sequence:
#
# PCOD9580298 Si02
#       7
#     6   6   6   6   6   6   6
#     4  11  25  44  70 107 143 199 234 304 370 438
#     4  11  24  44  68 107 146 185 243 293 369 434
#     4  10  23  44  71 106 139 190 240 294 362 444
#     4  10  22  43  69 101 134 180 242 296 360 424
#     4  10  25  41  70 100 145 189 243 292 359 438
#     4  10  24  44  67 106 145 192 238 299 358 435
#     4  10  25  44  71 105 138 185 244 302 360 431
#
# _framework density 22.131857
#
# number of rings (size 3 to 8) (size 9 to 14) (size 15 to 20)
#    0.000    1.714    0.000    1.714   14.000    1.143 
#    0.000   20.000    0.000    0.000    0.000    0.000 
#    0.000    0.000    0.000    0.000    0.000    0.000 
#
# Total GULP energy -234807.593887 kJ/mol
# GULP energy per Si atom -5590.656997 kJ/mol
# Density = 2.208148 g / cm^3
# Si number density = 22.131857 Si / 1000 Ang^3
#
#
#
# Elastic Constant Matrix: (Units=GPa)
#
#
# Indices 1 2 3 4 5 6 
#
# 1 81.0884 30.2499 26.4380 0.0000 0.0000 0.0000
# 2 30.2499 81.0884 26.4380 0.0000 0.0000 0.0000
# 3 26.4380 26.4380 75.0293 0.0000 0.0000 0.0000
# 4 0.0000 0.0000 0.0000 25.3861 0.0000 0.0000
# 5 0.0000 0.0000 0.0000 0.0000 25.3861 0.0000
# 6 0.0000 0.0000 0.0000 0.0000 0.0000 25.4192
#
#
#
# Elastic Compliance Matrix: (Units=1/GPa)
#
#
# Indices 1 2 3 4 5 6 
#
# 1 0.015228 -0.004442 -0.003801 0.000000 0.000000 0.000000
# 2 -0.004442 0.015228 -0.003801 0.000000 0.000000 0.000000
# 3 -0.003801 -0.003801 0.016007 0.000000 0.000000 0.000000
# 4 0.000000 0.000000 0.000000 0.039392 0.000000 0.000000
# 5 0.000000 0.000000 0.000000 0.000000 0.039392 0.000000
# 6 0.000000 0.000000 0.000000 0.000000 0.000000 0.039340
#
#
# Mechanical properties :
#
#
# Convention : Reuss Voigt Hill
#
# Bulk Modulus (GPa) = 44.68954 44.82865 44.75909
# Shear Modulus (GPa) = 25.49289 25.51030 25.50160
#
# Velocity S-wave (km/s) = 3.39759 3.39875 3.39817
# Velocity P-wave (km/s) = 5.96890 5.97505 5.97198
#
# Compressibility (1/GPa) = 0.02237660
#
# Stress axis : x y z
#
# Youngs Moduli (GPa) = 65.66658 65.66658 62.47353
#
# Poissons Ratio (x) = 0.29167 0.23746
# Poissons Ratio (y) = 0.29167 0.23746
# Poissons Ratio (z) = 0.24959 0.24959
#
# Static dielectric constant tensor:
#      x y z
#    x 1.798700 0.000000 0.000000 
#    y 0.000000 1.798700 0.000000 
#    z 0.000000 0.000000 1.915210 
# 
# From -- ./inp_files/956.got.cif
#   From: 2010.05.17/outbox.cif.g08.bks.cpg/sg170_cif.got.tgz:956.got - 2010.05.20 11:14:30.
