data_PCOD9580198
_publ_section_title
;
Structure prediction by ZEFSAII (Michael W. Deem and Ramdas Pophale) SiO2 
 PCOD9580198
Probable space group: P 65
;
_chemical_formula_sum "Si O2"
_cell_formula_units_Z 48
_cell_length_a 14.138900
_cell_length_b 14.138900
_cell_length_c 17.010529
_cell_angle_alpha 90.000000
_cell_angle_beta 90.000000
_cell_angle_gamma 120.000000
_cell_volume 2944.962012
_symmetry_space_group_name_H-M "P 65"
_symmetry_group_IT_number 170
_symmetry_cell_setting 'hexagonal'
loop_
_space_group_symop_operation_xyz
x,y,z
x-y,x,5/6+z
-y,x-y,2/3+z
-x,-y,1/2+z
-x+y,-x,1/3+z
y,-x+y,1/6+z
loop_
_atom_site_type_symbol
_atom_site_label
_atom_site_fract_x
_atom_site_fract_y
_atom_site_fract_z
Si Si1 0.291613 0.899665 0.023540
Si Si2 0.618528 0.924425 0.392720
Si Si3 0.843692 0.406051 0.083269
Si Si4 0.399960 0.904794 0.439742
Si Si5 0.453246 0.632476 0.945666
Si Si6 0.061959 0.481034 0.433876
Si Si7 0.037417 0.377862 0.868390
Si Si8 0.220891 0.421388 0.989396
O O1 0.165052 0.814512 0.036140
O O2 0.340982 0.929137 0.111055
O O3 0.347164 0.844093 0.973274
O O4 0.318614 0.003789 0.969133
O O5 0.490109 0.871728 0.414069
O O6 0.628024 0.999672 0.318367
O O7 0.744088 0.291508 0.104873
O O8 0.965147 0.422764 0.091594
O O9 0.841778 0.435359 0.991896
O O10 0.384695 0.884340 0.531768
O O11 0.290331 0.836808 0.390769
O O12 0.331216 0.529985 0.960378
O O13 0.526114 0.637523 0.018936
O O14 0.986770 0.534350 0.412145
O O15 0.920808 0.266229 0.858533
O O16 0.132658 0.374000 0.918192
#
# Coordination Sequence:
#
# PCOD9580198 Si02
#       8
#     6   6   6   6   6   6   6   6
#     4  10  20  33  53  76 107 134 177 221 265 323
#     4  10  19  37  49  77 109 139 170 224 271 314
#     4  10  20  34  49  76 108 141 173 218 269 315
#     4  10  20  35  48  75 114 135 176 228 259 324
#     4  11  20  32  53  78 100 151 180 209 271 327
#     4   9  19  34  49  75 109 134 177 219 255 330
#     4  11  19  34  53  80 104 140 182 218 273 321
#     4  11  21  33  56  77 113 142 177 231 267 318
#
# _framework density 16.299022000000001
#
# number of rings (size 3 to 8) (size 9 to 14) (size 15 to 20)
#    0.000    2.000    2.500    6.750    0.000    1.000 
#    6.750    0.000    0.000    0.000    0.000    7.000 
#    0.000    0.000    0.000    0.000    0.000    0.000 
#
# Total GULP energy -267549.737382 kJ/mol
# GULP energy per Si atom -5573.952862 kJ/mol
# Density = 1.626192 g / cm^3
# Si number density = 16.299022 Si / 1000 Ang^3
#
#
#
# Elastic Constant Matrix: (Units=GPa)
#
#
# Indices 1 2 3 4 5 6 
#
# 1 44.8870 17.9313 29.3739 0.0000 0.0000 0.0000
# 2 17.9313 44.8870 29.3739 0.0000 0.0000 0.0000
# 3 29.3739 29.3739 146.3942 0.0000 0.0000 0.0000
# 4 0.0000 0.0000 0.0000 20.5121 0.0000 0.0000
# 5 0.0000 0.0000 0.0000 0.0000 20.5121 0.0000
# 6 0.0000 0.0000 0.0000 0.0000 0.0000 13.4779
#
#
#
# Elastic Compliance Matrix: (Units=1/GPa)
#
#
# Indices 1 2 3 4 5 6 
#
# 1 0.028347 -0.008751 -0.003932 0.000000 0.000000 0.000000
# 2 -0.008751 0.028347 -0.003932 0.000000 0.000000 0.000000
# 3 -0.003932 -0.003932 0.008409 0.000000 0.000000 0.000000
# 4 0.000000 0.000000 0.000000 0.048752 0.000000 0.000000
# 5 0.000000 0.000000 0.000000 0.000000 0.048752 0.000000
# 6 0.000000 0.000000 0.000000 0.000000 0.000000 0.074196
#
#
# Mechanical properties :
#
#
# Convention : Reuss Voigt Hill
#
# Bulk Modulus (GPa) = 31.37433 43.28070 37.32751
# Shear Modulus (GPa) = 17.81540 21.53300 19.67420
#
# Velocity S-wave (km/s) = 3.30969 3.63867 3.47807
# Velocity P-wave (km/s) = 5.82206 6.65320 6.25146
#
# Compressibility (1/GPa) = 0.03187319
#
# Stress axis : x y z
#
# Youngs Moduli (GPa) = 35.27709 35.27709 118.92360
#
# Poissons Ratio (x) = 0.30871 0.46760
# Poissons Ratio (y) = 0.30871 0.46760
# Poissons Ratio (z) = 0.13871 0.13871
#
# Static dielectric constant tensor:
#      x y z
#    x 1.551650 0.000000 0.000000 
#    y 0.000000 1.551650 0.000000 
#    z 0.000000 0.000000 1.569820 
# 
# From -- ./inp_files/1291.got.cif
#   From: 2010.05.17/outbox.cif.g08.bks.cpg/sg170_cif.got.tgz:1291.got - 2010.05.20 11:14:30.
