data_PCOD9580053
_publ_section_title
;
Structure prediction by ZEFSAII (Michael W. Deem and Ramdas Pophale) SiO2 
 PCOD9580053
Probable space group: P 61
;
_chemical_formula_sum "Si O2"
_cell_formula_units_Z 24
_cell_length_a 14.601964
_cell_length_b 14.601964
_cell_length_c 5.244453
_cell_angle_alpha 90.000000
_cell_angle_beta 90.000000
_cell_angle_gamma 120.000000
_cell_volume 968.396868
_symmetry_space_group_name_H-M "P 61"
_symmetry_group_IT_number 169
_symmetry_cell_setting 'hexagonal'
loop_
_space_group_symop_operation_xyz
x,y,z
x-y,x,1/6+z
-y,x-y,1/3+z
-x,-y,1/2+z
-x+y,-x,2/3+z
y,-x+y,5/6+z
loop_
_atom_site_type_symbol
_atom_site_label
_atom_site_fract_x
_atom_site_fract_y
_atom_site_fract_z
Si Si1 0.583599 0.681286 0.903330
Si Si2 0.235579 0.651897 0.727950
Si Si3 0.956878 0.319744 0.086046
Si Si4 0.898459 0.130562 0.807404
O O1 0.460403 0.640132 0.913613
O O2 0.612207 0.641359 0.650250
O O3 0.623698 0.642784 0.153621
O O4 0.651957 0.808847 0.884250
O O5 0.256723 0.610944 0.992456
O O6 0.155839 0.692652 0.658832
O O7 0.939111 0.201383 0.064942
O O8 0.005462 0.169264 0.658042
#
# Coordination Sequence:
#
# PCOD9580053 Si02
#       4
#     6   6   6   6
#     4  11  26  49  73 102 149 198 244 302 375 448
#     4  12  28  44  74 110 146 190 252 310 370 446
#     4  11  26  49  73 102 149 198 244 302 375 448
#     4  10  24  44  72 108 148 190 250 302 374 440
#
# _framework density 24.783225999999999
#
# number of rings (size 3 to 8) (size 9 to 14) (size 15 to 20)
#    0.000    1.000    2.500    1.500    7.000   10.000 
#    0.000    0.000    0.000    0.000    0.000    0.000 
#    0.000    0.000    0.000    0.000    0.000    0.000 
#
# Total GULP energy -133947.370039 kJ/mol
# GULP energy per Si atom -5581.140418 kJ/mol
# Density = 2.472682 g / cm^3
# Si number density = 24.783226 Si / 1000 Ang^3
#
#
#
# Elastic Constant Matrix: (Units=GPa)
#
#
# Indices 1 2 3 4 5 6 
#
# 1 76.0548 10.3079 15.3493 0.0000 0.0000 0.0000
# 2 10.3079 76.0548 15.3493 0.0000 0.0000 0.0000
# 3 15.3493 15.3493 122.1181 0.0000 0.0000 0.0000
# 4 0.0000 0.0000 0.0000 9.8279 0.0000 0.0000
# 5 0.0000 0.0000 0.0000 0.0000 9.8279 0.0000
# 6 0.0000 0.0000 0.0000 0.0000 0.0000 32.8735
#
#
#
# Elastic Compliance Matrix: (Units=1/GPa)
#
#
# Indices 1 2 3 4 5 6 
#
# 1 0.013665 -0.001545 -0.001523 0.000000 0.000000 0.000000
# 2 -0.001545 0.013665 -0.001523 0.000000 0.000000 0.000000
# 3 -0.001523 -0.001523 0.008572 0.000000 0.000000 0.000000
# 4 0.000000 0.000000 0.000000 0.101751 0.000000 0.000000
# 5 0.000000 0.000000 0.000000 0.000000 0.101751 0.000000
# 6 0.000000 0.000000 0.000000 0.000000 0.000000 0.030420
#
#
# Mechanical properties :
#
#
# Convention : Reuss Voigt Hill
#
# Bulk Modulus (GPa) = 37.42641 39.58232 38.50436
# Shear Modulus (GPa) = 17.36636 26.05395 21.71015
#
# Velocity S-wave (km/s) = 2.65000 3.24585 2.96294
# Velocity P-wave (km/s) = 4.94951 5.48211 5.22260
#
# Compressibility (1/GPa) = 0.02671910
#
# Stress axis : x y z
#
# Youngs Moduli (GPa) = 73.17850 73.17850 116.66207
#
# Poissons Ratio (x) = 0.11303 0.17773
# Poissons Ratio (y) = 0.11303 0.17773
# Poissons Ratio (z) = 0.11148 0.11148
#
# Static dielectric constant tensor:
#      x y z
#    x 2.019790 0.000000 0.000000 
#    y 0.000000 2.019790 0.000000 
#    z 0.000000 0.000000 2.034880 
# 
# From -- ./inp_files/46.got.cif
#   From: 2010.05.17/outbox.cif.g08.bks.cpg/sg169_cif.got.tgz:46.got - 2010.05.20 11:12:54.
