data_PCOD9580345
_publ_section_title
;
Structure prediction by ZEFSAII (Michael W. Deem and Ramdas Pophale) SiO2 
 PCOD9580345
Probable space group: P 65
;
_chemical_formula_sum "Si O2"
_cell_formula_units_Z 48
_cell_length_a 13.867170
_cell_length_b 13.867170
_cell_length_c 11.241314
_cell_angle_alpha 90.000000
_cell_angle_beta 90.000000
_cell_angle_gamma 120.000000
_cell_volume 1872.075631
_symmetry_space_group_name_H-M "P 65"
_symmetry_group_IT_number 170
_symmetry_cell_setting 'hexagonal'
loop_
_space_group_symop_operation_xyz
x,y,z
x-y,x,5/6+z
-y,x-y,2/3+z
-x,-y,1/2+z
-x+y,-x,1/3+z
y,-x+y,1/6+z
loop_
_atom_site_type_symbol
_atom_site_label
_atom_site_fract_x
_atom_site_fract_y
_atom_site_fract_z
Si Si1 0.282351 0.608881 0.490250
Si Si2 0.400351 0.563308 0.921134
Si Si3 0.129303 0.207007 0.388381
Si Si4 0.163337 0.377455 0.979189
Si Si5 0.300572 0.360754 0.198967
Si Si6 0.417422 0.504604 0.408475
Si Si7 0.118825 0.213068 0.777691
Si Si8 0.155050 0.771127 0.907839
O O1 0.334960 0.740985 0.512557
O O2 0.192345 0.576801 0.386507
O O3 0.390254 0.599000 0.449225
O O4 0.231549 0.501786 0.579767
O O5 0.471352 0.502512 0.897990
O O6 0.272035 0.470281 0.916152
O O7 0.147048 0.128069 0.477592
O O8 0.227037 0.262301 0.291766
O O9 0.139514 0.305324 0.474017
O O10 0.219152 0.357881 0.096564
O O11 0.062637 0.401212 0.999272
O O12 0.099605 0.273189 0.889991
O O13 0.356089 0.468990 0.280939
O O14 0.343671 0.411832 0.508916
O O15 0.152001 0.133696 0.850342
O O16 0.206916 0.315367 0.695019
#
# Coordination Sequence:
#
# PCOD9580345 Si02
#       8
#     6   6   6   6   6   6   6   6
#     4  10  27  46  77 117 159 204 273 341 406 503
#     4  12  27  48  76 118 159 209 273 338 421 513
#     4  11  22  40  73 109 145 202 264 330 392 481
#     4  12  27  46  75 109 153 213 270 337 412 488
#     4  11  23  44  74 104 145 199 271 324 403 478
#     4   9  25  46  78 112 155 207 264 340 410 494
#     4  12  27  51  78 114 171 221 275 353 424 509
#     4   9  24  45  75 109 153 209 264 323 412 486
#
# _framework density 25.639990000000001
#
# number of rings (size 3 to 8) (size 9 to 14) (size 15 to 20)
#    0.750    0.500    2.500    1.500   12.250    0.000 
#    2.250    8.750    0.000    0.000    0.000    0.000 
#    0.000    0.000    0.000    0.000    0.000    0.000 
#
# Total GULP energy -267707.641561 kJ/mol
# GULP energy per Si atom -5577.242533 kJ/mol
# Density = 2.558163 g / cm^3
# Si number density = 25.639990 Si / 1000 Ang^3
#
#
#
# Elastic Constant Matrix: (Units=GPa)
#
#
# Indices 1 2 3 4 5 6 
#
# 1 61.2022 -0.8164 19.5137 0.0000 0.0000 0.0000
# 2 -0.8164 61.2022 19.5137 0.0000 0.0000 0.0000
# 3 19.5137 19.5137 121.6851 0.0000 0.0000 0.0000
# 4 0.0000 0.0000 0.0000 38.0214 0.0000 0.0000
# 5 0.0000 0.0000 0.0000 0.0000 38.0214 0.0000
# 6 0.0000 0.0000 0.0000 0.0000 0.0000 31.0093
#
#
#
# Elastic Compliance Matrix: (Units=1/GPa)
#
#
# Indices 1 2 3 4 5 6 
#
# 1 0.017300 0.001175 -0.002963 0.000000 0.000000 0.000000
# 2 0.001175 0.017300 -0.002963 0.000000 0.000000 0.000000
# 3 -0.002963 -0.002963 0.009168 0.000000 0.000000 0.000000
# 4 0.000000 0.000000 0.000000 0.026301 0.000000 0.000000
# 5 0.000000 0.000000 0.000000 0.000000 0.026301 0.000000
# 6 0.000000 0.000000 0.000000 0.000000 0.000000 0.032248
#
#
# Mechanical properties :
#
#
# Convention : Reuss Voigt Hill
#
# Bulk Modulus (GPa) = 29.18231 35.61238 32.39735
# Shear Modulus (GPa) = 33.43588 35.13567 34.28578
#
# Velocity S-wave (km/s) = 3.61508 3.70584 3.66074
# Velocity P-wave (km/s) = 5.36949 5.67719 5.52548
#
# Compressibility (1/GPa) = 0.03426733
#
# Stress axis : x y z
#
# Youngs Moduli (GPa) = 57.80490 57.80490 109.07338
#
# Poissons Ratio (x) = -0.06794 0.32315
# Poissons Ratio (y) = -0.06794 0.32315
# Poissons Ratio (z) = 0.17126 0.17126
#
# Static dielectric constant tensor:
#      x y z
#    x 2.091870 0.000000 0.000000 
#    y 0.000000 2.091870 0.000000 
#    z 0.000000 0.000000 2.108750 
# 
# From -- ./inp_files/1102.got.cif
#   From: 2010.05.17/outbox.cif.g08.bks.cpg/sg170_cif.got.tgz:1102.got - 2010.05.20 11:14:30.
