data_PCOD9580754
_publ_section_title
;
Structure prediction by ZEFSAII (Michael W. Deem and Ramdas Pophale) SiO2 
 PCOD9580754
Probable space group: P 62
;
_chemical_formula_sum "Si O2"
_cell_formula_units_Z 30
_cell_length_a 9.581432
_cell_length_b 9.581432
_cell_length_c 15.794727
_cell_angle_alpha 90.000000
_cell_angle_beta 90.000000
_cell_angle_gamma 120.000000
_cell_volume 1255.751192
_symmetry_space_group_name_H-M "P 62"
_symmetry_group_IT_number 171
_symmetry_cell_setting 'hexagonal'
loop_
_space_group_symop_operation_xyz
x,y,z
x-y,x,1/3+z
-y,x-y,2/3+z
-x,-y,z
-x+y,-x,1/3+z
y,-x+y,2/3+z
loop_
_atom_site_type_symbol
_atom_site_label
_atom_site_fract_x
_atom_site_fract_y
_atom_site_fract_z
Si Si1 0.000000 0.500000 0.386171
Si Si2 0.408399 0.668285 0.197398
Si Si3 0.643058 0.716963 0.904318
Si Si4 0.500000 0.500000 0.458641
Si Si5 0.152942 0.885966 0.112402
Si Si6 0.906562 0.763726 0.595707
O O1 0.154600 0.560701 0.445881
O O2 0.987992 0.363207 0.323240
O O3 0.234338 0.533336 0.229698
O O4 0.571784 0.731900 0.251378
O O5 0.418832 0.837212 0.179302
O O6 0.712323 0.661626 0.825520
O O7 0.760658 0.905200 0.913112
O O8 0.367779 0.340243 0.413064
O O9 0.179526 0.011307 0.187350
O O10 0.066894 0.870484 0.022887
#
# Coordination Sequence:
#
# PCOD9580754 Si02
#       6
#     3   6   6   3   6   6
#     4  12  26  45  75 110 148 204 262 324 399 471
#     4  11  25  48  78 110 155 206 255 328 398 478
#     4  12  25  45  74 114 153 204 263 331 390 481
#     4  10  24  49  69 108 152 198 260 328 399 471
#     4  11  27  45  77 114 155 208 266 325 398 482
#     4  11  25  47  76 113 159 213 259 329 404 477
#
# _framework density 23.890082
#
# number of rings (size 3 to 8) (size 9 to 14) (size 15 to 20)
#    0.000    0.800    2.000    4.200    8.400    1.600 
#    0.000    1.000    0.000    0.000    0.000    0.000 
#    0.000    0.000    0.000    0.000    0.000    0.000 
#
# Total GULP energy -167459.772477 kJ/mol
# GULP energy per Si atom -5581.992416 kJ/mol
# Density = 2.383571 g / cm^3
# Si number density = 23.890082 Si / 1000 Ang^3
#
#
#
# Elastic Constant Matrix: (Units=GPa)
#
#
# Indices 1 2 3 4 5 6 
#
# 1 106.8053 33.8086 38.7525 0.0000 0.0000 0.0000
# 2 33.8086 106.8053 38.7525 0.0000 0.0000 0.0000
# 3 38.7525 38.7525 165.6326 0.0000 0.0000 0.0000
# 4 0.0000 0.0000 0.0000 39.2321 0.0000 0.0000
# 5 0.0000 0.0000 0.0000 0.0000 39.2321 0.0000
# 6 0.0000 0.0000 0.0000 0.0000 0.0000 36.4984
#
#
#
# Elastic Compliance Matrix: (Units=1/GPa)
#
#
# Indices 1 2 3 4 5 6 
#
# 1 0.010932 -0.002767 -0.001910 0.000000 0.000000 0.000000
# 2 -0.002767 0.010932 -0.001910 0.000000 0.000000 0.000000
# 3 -0.001910 -0.001910 0.006931 0.000000 0.000000 0.000000
# 4 0.000000 0.000000 0.000000 0.025489 0.000000 0.000000
# 5 0.000000 0.000000 0.000000 0.000000 0.025489 0.000000
# 6 0.000000 0.000000 0.000000 0.000000 0.000000 0.027398
#
#
# Mechanical properties :
#
#
# Convention : Reuss Voigt Hill
#
# Bulk Modulus (GPa) = 64.02246 66.87451 65.44848
# Shear Modulus (GPa) = 39.82338 40.85450 40.33894
#
# Velocity S-wave (km/s) = 4.08725 4.13983 4.11362
# Velocity P-wave (km/s) = 7.00936 7.13472 7.07232
#
# Compressibility (1/GPa) = 0.01561952
#
# Stress axis : x y z
#
# Youngs Moduli (GPa) = 91.47530 91.47530 144.27256
#
# Poissons Ratio (x) = 0.25314 0.27560
# Poissons Ratio (y) = 0.25314 0.27560
# Poissons Ratio (z) = 0.17474 0.17474
#
# Static dielectric constant tensor:
#      x y z
#    x 1.864410 0.000000 0.000000 
#    y 0.000000 1.864410 0.000000 
#    z 0.000000 0.000000 1.894950 
# 
# From -- ./inp_files/2386.got.cif
#   From: 2010.05.17/outbox.cif.g08.bks.cpg/sg171_2_cif.got.tgz:2386.got - 2010.05.20 11:16:09.
