data_PCOD9580811
_publ_section_title
;
Structure prediction by ZEFSAII (Michael W. Deem and Ramdas Pophale) SiO2 
 PCOD9580811
Probable space group: P 62
;
_chemical_formula_sum "Si O2"
_cell_formula_units_Z 36
_cell_length_a 11.483907
_cell_length_b 11.483907
_cell_length_c 12.702065
_cell_angle_alpha 90.000000
_cell_angle_beta 90.000000
_cell_angle_gamma 120.000000
_cell_volume 1450.722331
_symmetry_space_group_name_H-M "P 62"
_symmetry_group_IT_number 171
_symmetry_cell_setting 'hexagonal'
loop_
_space_group_symop_operation_xyz
x,y,z
x-y,x,1/3+z
-y,x-y,2/3+z
-x,-y,z
-x+y,-x,1/3+z
y,-x+y,2/3+z
loop_
_atom_site_type_symbol
_atom_site_label
_atom_site_fract_x
_atom_site_fract_y
_atom_site_fract_z
Si Si1 0.880690 0.360714 0.079660
Si Si2 0.363452 0.086640 0.065314
Si Si3 0.988838 0.191339 0.445710
Si Si4 0.616600 0.376622 0.539130
Si Si5 0.124672 0.208883 0.674031
Si Si6 0.114575 0.635804 0.508030
O O1 0.765403 0.267791 0.162137
O O2 0.931010 0.271538 0.016482
O O3 0.000000 0.500000 0.124239
O O4 0.804918 0.400480 0.992169
O O5 0.317175 0.198646 0.058324
O O6 0.489568 0.134657 0.142066
O O7 0.213947 0.961371 0.083017
O O8 0.414151 0.060375 0.956181
O O9 0.048582 0.182393 0.560851
O O10 0.876463 0.234814 0.454703
O O11 0.916656 0.052652 0.382474
O O12 0.752023 0.369453 0.525227
O O13 0.000000 0.500000 0.456293
#
# Coordination Sequence:
#
# PCOD9580811 Si02
#       6
#     6   6   6   6   6   6
#     4  12  28  49  76 111 151 205 255 322 386 457
#     4  11  23  40  72 104 136 192 243 305 373 448
#     4  11  24  46  73 108 153 191 253 315 386 458
#     4  12  24  47  75 108 147 194 261 311 377 463
#     4  11  26  47  72 110 150 199 252 313 389 453
#     4  11  22  44  71 104 140 193 250 305 376 453
#
# _framework density 24.815223
#
# number of rings (size 3 to 8) (size 9 to 14) (size 15 to 20)
#    0.000    0.667    5.000    2.500    2.333    5.333 
#    0.000    7.500    0.000    0.000    0.000    0.000 
#    0.000    0.000    0.000    0.000    0.000    0.000 
#
# Total GULP energy -201142.676917 kJ/mol
# GULP energy per Si atom -5587.296581 kJ/mol
# Density = 2.475874 g / cm^3
# Si number density = 24.815223 Si / 1000 Ang^3
#
#
#
# Elastic Constant Matrix: (Units=GPa)
#
#
# Indices 1 2 3 4 5 6 
#
# 1 104.6545 45.8699 27.4286 0.0000 0.0000 0.0000
# 2 45.8699 104.6545 27.4286 0.0000 0.0000 0.0000
# 3 27.4286 27.4286 44.3949 0.0000 0.0000 0.0000
# 4 0.0000 0.0000 0.0000 31.4611 0.0000 0.0000
# 5 0.0000 0.0000 0.0000 0.0000 31.4611 0.0000
# 6 0.0000 0.0000 0.0000 0.0000 0.0000 29.3923
#
#
#
# Elastic Compliance Matrix: (Units=1/GPa)
#
#
# Indices 1 2 3 4 5 6 
#
# 1 0.012793 -0.004219 -0.005297 0.000000 0.000000 0.000000
# 2 -0.004219 0.012793 -0.005297 0.000000 0.000000 0.000000
# 3 -0.005297 -0.005297 0.029071 0.000000 0.000000 0.000000
# 4 0.000000 0.000000 0.000000 0.031785 0.000000 0.000000
# 5 0.000000 0.000000 0.000000 0.000000 0.031785 0.000000
# 6 0.000000 0.000000 0.000000 0.000000 0.000000 0.034022
#
#
# Mechanical properties :
#
#
# Convention : Reuss Voigt Hill
#
# Bulk Modulus (GPa) = 39.95270 50.57312 45.26291
# Shear Modulus (GPa) = 26.28554 28.66136 27.47345
#
# Velocity S-wave (km/s) = 3.25814 3.40220 3.33095
# Velocity P-wave (km/s) = 5.50355 5.98811 5.75093
#
# Compressibility (1/GPa) = 0.02502960
#
# Stress axis : x y z
#
# Youngs Moduli (GPa) = 78.17012 78.17012 34.39884
#
# Poissons Ratio (x) = 0.32977 0.18222
# Poissons Ratio (y) = 0.32977 0.18222
# Poissons Ratio (z) = 0.41409 0.41409
#
# Static dielectric constant tensor:
#      x y z
#    x 2.025960 0.000000 0.000000 
#    y 0.000000 2.025960 0.000000 
#    z 0.000000 0.000000 1.981870 
# 
# From -- ./inp_files/4810.got.cif
#   From: 2010.05.17/outbox.cif.g08.bks.cpg/sg171_3_cif.got.tgz:4810.got - 2010.05.20 11:16:09.
