data_PCOD9580079
_publ_section_title
;
Structure prediction by ZEFSAII (Michael W. Deem and Ramdas Pophale) SiO2 
 PCOD9580079
Probable space group: P 61
;
_chemical_formula_sum "Si O2"
_cell_formula_units_Z 30
_cell_length_a 16.548044
_cell_length_b 16.548044
_cell_length_c 6.470964
_cell_angle_alpha 90.000000
_cell_angle_beta 90.000000
_cell_angle_gamma 120.000000
_cell_volume 1534.592069
_symmetry_space_group_name_H-M "P 61"
_symmetry_group_IT_number 169
_symmetry_cell_setting 'hexagonal'
loop_
_space_group_symop_operation_xyz
x,y,z
x-y,x,1/6+z
-y,x-y,1/3+z
-x,-y,1/2+z
-x+y,-x,2/3+z
y,-x+y,5/6+z
loop_
_atom_site_type_symbol
_atom_site_label
_atom_site_fract_x
_atom_site_fract_y
_atom_site_fract_z
Si Si1 0.878194 0.256403 0.301060
Si Si2 0.351212 0.599333 0.044582
Si Si3 0.034879 0.630302 0.174271
Si Si4 0.296846 0.928822 0.728965
Si Si5 0.887587 0.476669 0.888539
O O1 0.821683 0.311664 0.256219
O O2 0.910462 0.277049 0.539650
O O3 0.810270 0.149211 0.246806
O O4 0.972538 0.299714 0.169278
O O5 0.382632 0.660270 0.251794
O O6 0.437645 0.633079 0.885478
O O7 0.104866 0.609917 0.303543
O O8 0.956211 0.623370 0.329315
O O9 0.982156 0.545401 0.011950
O O10 0.348556 0.885410 0.864515
#
# Coordination Sequence:
#
# PCOD9580079 Si02
#       5
#     6   6   6   6   6
#     4  11  26  40  63  92 119 170 212 270 323 391
#     4  12  26  38  58  91 134 176 221 261 309 377
#     4  11  21  39  62  87 124 162 212 258 321 376
#     4  11  24  41  63  88 126 161 214 266 328 385
#     4  11  21  36  58  88 123 169 205 253 305 371
#
# _framework density 19.549168000000002
#
# number of rings (size 3 to 8) (size 9 to 14) (size 15 to 20)
#    0.000    0.800    4.000    3.600    8.400    3.200 
#    0.000    0.000    0.000    0.000    5.200    0.000 
#    0.000    0.000    0.000    0.000    0.000    0.000 
#
# Total GULP energy -167767.249031 kJ/mol
# GULP energy per Si atom -5592.241634 kJ/mol
# Density = 1.950467 g / cm^3
# Si number density = 19.549168 Si / 1000 Ang^3
#
#
#
# Elastic Constant Matrix: (Units=GPa)
#
#
# Indices 1 2 3 4 5 6 
#
# 1 91.0076 38.1165 32.0818 0.0000 0.0000 0.0000
# 2 38.1165 91.0076 32.0818 0.0000 0.0000 0.0000
# 3 32.0818 32.0818 103.6686 0.0000 0.0000 0.0000
# 4 0.0000 0.0000 0.0000 32.5786 0.0000 0.0000
# 5 0.0000 0.0000 0.0000 0.0000 32.5786 0.0000
# 6 0.0000 0.0000 0.0000 0.0000 0.0000 26.4455
#
#
#
# Elastic Compliance Matrix: (Units=1/GPa)
#
#
# Indices 1 2 3 4 5 6 
#
# 1 0.014029 -0.004877 -0.002832 0.000000 0.000000 0.000000
# 2 -0.004877 0.014029 -0.002832 0.000000 0.000000 0.000000
# 3 -0.002832 -0.002832 0.011399 0.000000 0.000000 0.000000
# 4 0.000000 0.000000 0.000000 0.030695 0.000000 0.000000
# 5 0.000000 0.000000 0.000000 0.000000 0.030695 0.000000
# 6 0.000000 0.000000 0.000000 0.000000 0.000000 0.037814
#
#
# Mechanical properties :
#
#
# Convention : Reuss Voigt Hill
#
# Bulk Modulus (GPa) = 54.42469 54.47157 54.44813
# Shear Modulus (GPa) = 30.14419 30.54748 30.34583
#
# Velocity S-wave (km/s) = 3.93105 3.95726 3.94418
# Velocity P-wave (km/s) = 6.96452 6.98600 6.97527
#
# Compressibility (1/GPa) = 0.01837401
#
# Stress axis : x y z
#
# Youngs Moduli (GPa) = 71.27938 71.27938 87.72664
#
# Poissons Ratio (x) = 0.34766 0.24846
# Poissons Ratio (y) = 0.34766 0.24846
# Poissons Ratio (z) = 0.20188 0.20188
#
# Static dielectric constant tensor:
#      x y z
#    x 1.691490 0.000000 0.000000 
#    y 0.000000 1.691490 0.000000 
#    z 0.000000 0.000000 1.736190 
# 
# From -- ./inp_files/155.got.cif
#   From: 2010.05.17/outbox.cif.g08.bks.cpg/sg169_cif.got.tgz:155.got - 2010.05.20 11:12:54.
