data_PCOD9580665
_publ_section_title
;
Structure prediction by ZEFSAII (Michael W. Deem and Ramdas Pophale) SiO2 
 PCOD9580665
Probable space group: P 62
;
_chemical_formula_sum "Si O2"
_cell_formula_units_Z 36
_cell_length_a 8.614633
_cell_length_b 8.614633
_cell_length_c 27.957361
_cell_angle_alpha 90.000000
_cell_angle_beta 90.000000
_cell_angle_gamma 120.000000
_cell_volume 1796.802598
_symmetry_space_group_name_H-M "P 62"
_symmetry_group_IT_number 171
_symmetry_cell_setting 'hexagonal'
loop_
_space_group_symop_operation_xyz
x,y,z
x-y,x,1/3+z
-y,x-y,2/3+z
-x,-y,z
-x+y,-x,1/3+z
y,-x+y,2/3+z
loop_
_atom_site_type_symbol
_atom_site_label
_atom_site_fract_x
_atom_site_fract_y
_atom_site_fract_z
Si Si1 0.192757 0.513540 0.299090
Si Si2 0.498286 0.816667 0.480567
Si Si3 0.825937 0.010048 0.209134
Si Si4 0.178393 0.132367 0.311637
Si Si5 0.481788 0.675828 0.375555
Si Si6 0.346316 0.796870 0.876735
O O1 0.178608 0.316446 0.297244
O O2 0.292527 0.607249 0.348704
O O3 0.329081 0.631256 0.256631
O O4 0.000000 0.500000 0.294115
O O5 0.648946 0.823382 0.516555
O O6 0.515929 0.770040 0.426336
O O7 0.304159 0.669317 0.498586
O O8 0.500000 0.000000 0.483496
O O9 0.834772 0.993026 0.266791
O O10 0.633565 0.836571 0.201337
O O11 0.000000 0.000000 0.191547
O O12 0.360529 0.195870 0.339622
O O13 0.000000 0.000000 0.341127
O O14 0.500000 0.500000 0.381807
O O15 0.500000 0.000000 0.881681
#
# Coordination Sequence:
#
# PCOD9580665 Si02
#       6
#     6   6   6   6   6   6
#     4  11  23  41  71 103 137 178 233 292 342 415
#     4  12  28  44  66 103 145 187 233 285 347 415
#     4  11  23  43  68 102 135 179 231 286 346 408
#     4  10  22  41  70 100 135 178 227 282 350 410
#     4  10  22  48  68  95 141 184 229 288 352 412
#     4  12  22  43  69 100 136 182 230 288 339 405
#
# _framework density 20.035589000000002
#
# number of rings (size 3 to 8) (size 9 to 14) (size 15 to 20)
#    0.000    1.000    3.333    3.500    7.000    2.667 
#    0.000    3.333    0.000    0.000    0.000    0.000 
#    0.000    0.000    0.000    0.000    0.000    0.000 
#
# Total GULP energy -200914.015742 kJ/mol
# GULP energy per Si atom -5580.944882 kJ/mol
# Density = 1.998999 g / cm^3
# Si number density = 20.035589 Si / 1000 Ang^3
#
#
#
# Elastic Constant Matrix: (Units=GPa)
#
#
# Indices 1 2 3 4 5 6 
#
# 1 125.2186 60.4467 69.4389 0.0000 0.0000 0.0000
# 2 60.4467 125.2186 69.4389 0.0000 0.0000 0.0000
# 3 69.4389 69.4389 100.2709 0.0000 0.0000 0.0000
# 4 0.0000 0.0000 0.0000 27.8367 0.0000 0.0000
# 5 0.0000 0.0000 0.0000 0.0000 27.8367 0.0000
# 6 0.0000 0.0000 0.0000 0.0000 0.0000 32.3859
#
#
#
# Elastic Compliance Matrix: (Units=1/GPa)
#
#
# Indices 1 2 3 4 5 6 
#
# 1 0.013307 -0.002132 -0.007738 0.000000 0.000000 0.000000
# 2 -0.002132 0.013307 -0.007738 0.000000 0.000000 0.000000
# 3 -0.007738 -0.007738 0.020691 0.000000 0.000000 0.000000
# 4 0.000000 0.000000 0.000000 0.035924 0.000000 0.000000
# 5 0.000000 0.000000 0.000000 0.000000 0.035924 0.000000
# 6 0.000000 0.000000 0.000000 0.000000 0.000000 0.030878
#
#
# Mechanical properties :
#
#
# Convention : Reuss Voigt Hill
#
# Bulk Modulus (GPa) = 82.74029 83.26193 83.00111
# Shear Modulus (GPa) = 26.41647 27.70411 27.06029
#
# Velocity S-wave (km/s) = 3.63502 3.72256 3.67905
# Velocity P-wave (km/s) = 7.68142 7.75396 7.71777
#
# Compressibility (1/GPa) = 0.01208601
#
# Stress axis : x y z
#
# Youngs Moduli (GPa) = 75.15078 75.15078 48.33050
#
# Poissons Ratio (x) = 0.16024 0.37400
# Poissons Ratio (y) = 0.16024 0.37400
# Poissons Ratio (z) = 0.58155 0.58155
#
# Static dielectric constant tensor:
#      x y z
#    x 1.744890 0.000000 0.000000 
#    y 0.000000 1.744890 0.000000 
#    z 0.000000 0.000000 1.718290 
# 
# From -- ./inp_files/5773.got.cif
#   From: 2010.05.17/outbox.cif.g08.bks.cpg/sg171_3_cif.got.tgz:5773.got - 2010.05.20 11:16:09.
