data_PCOD9580016
_publ_section_title
;
Structure prediction by ZEFSAII (Michael W. Deem and Ramdas Pophale) SiO2 
 PCOD9580016
Probable space group: P 61
;
_chemical_formula_sum "Si O2"
_cell_formula_units_Z 48
_cell_length_a 14.873131
_cell_length_b 14.873131
_cell_length_c 11.542106
_cell_angle_alpha 90.000000
_cell_angle_beta 90.000000
_cell_angle_gamma 120.000000
_cell_volume 2211.161665
_symmetry_space_group_name_H-M "P 61"
_symmetry_group_IT_number 169
_symmetry_cell_setting 'hexagonal'
loop_
_space_group_symop_operation_xyz
x,y,z
x-y,x,1/6+z
-y,x-y,1/3+z
-x,-y,1/2+z
-x+y,-x,2/3+z
y,-x+y,5/6+z
loop_
_atom_site_type_symbol
_atom_site_label
_atom_site_fract_x
_atom_site_fract_y
_atom_site_fract_z
Si Si1 0.638975 0.997767 0.318470
Si Si2 0.870942 0.159614 0.255835
Si Si3 0.824158 0.874791 0.754023
Si Si4 0.148087 0.972405 0.538855
Si Si5 0.367019 0.532560 0.840341
Si Si6 0.163115 0.493510 0.721379
Si Si7 0.796751 0.654656 0.071346
Si Si8 0.497026 0.061595 0.439209
O O1 0.758934 0.083866 0.308145
O O2 0.576885 0.054756 0.353380
O O3 0.630944 0.912944 0.412313
O O4 0.583507 0.926160 0.207412
O O5 0.960577 0.155435 0.329463
O O6 0.859470 0.116276 0.125320
O O7 0.881157 0.869076 0.868385
O O8 0.706385 0.838043 0.792380
O O9 0.137946 0.052142 0.621571
O O10 0.254040 0.041136 0.468835
O O11 0.262773 0.532628 0.804006
O O12 0.433617 0.554028 0.723268
O O13 0.427122 0.605270 0.949534
O O14 0.151094 0.391280 0.657270
O O15 0.058705 0.467109 0.788940
O O16 0.680277 0.560835 0.052716
#
# Coordination Sequence:
#
# PCOD9580016 Si02
#       8
#     6   6   6   6   6   6   6   6
#     4  11  25  45  70 101 136 190 231 292 360 420
#     4  12  24  42  66  99 144 181 229 282 345 428
#     4  12  25  41  61 100 147 187 227 276 342 427
#     4  12  24  39  64  99 139 189 229 275 334 421
#     4  10  24  44  74  96 135 176 232 295 355 425
#     4  10  22  45  67 100 133 174 237 293 353 424
#     4  11  25  42  70  97 136 186 233 288 352 418
#     4  10  23  46  68 102 130 181 240 289 349 423
#
# _framework density 21.708046
#
# number of rings (size 3 to 8) (size 9 to 14) (size 15 to 20)
#    0.000    1.000    2.500    3.750    5.250    5.000 
#    9.000    0.000    0.000    0.000    0.000    0.000 
#    0.000    0.000    0.000    0.000    0.000    0.000 
#
# Total GULP energy -268310.939508 kJ/mol
# GULP energy per Si atom -5589.811240 kJ/mol
# Density = 2.165864 g / cm^3
# Si number density = 21.708046 Si / 1000 Ang^3
#
#
#
# Elastic Constant Matrix: (Units=GPa)
#
#
# Indices 1 2 3 4 5 6 
#
# 1 88.8446 21.6841 21.3761 0.0000 0.0000 0.0000
# 2 21.6841 88.8446 21.3761 0.0000 0.0000 0.0000
# 3 21.3761 21.3761 47.2953 0.0000 0.0000 0.0000
# 4 0.0000 0.0000 0.0000 35.2436 0.0000 0.0000
# 5 0.0000 0.0000 0.0000 0.0000 35.2436 0.0000
# 6 0.0000 0.0000 0.0000 0.0000 0.0000 33.5802
#
#
#
# Elastic Compliance Matrix: (Units=1/GPa)
#
#
# Indices 1 2 3 4 5 6 
#
# 1 0.012927 -0.001963 -0.004955 0.000000 0.000000 0.000000
# 2 -0.001963 0.012927 -0.004955 0.000000 0.000000 0.000000
# 3 -0.004955 -0.004955 0.025623 0.000000 0.000000 0.000000
# 4 0.000000 0.000000 0.000000 0.028374 0.000000 0.000000
# 5 0.000000 0.000000 0.000000 0.000000 0.028374 0.000000
# 6 0.000000 0.000000 0.000000 0.000000 0.000000 0.029779
#
#
# Mechanical properties :
#
#
# Convention : Reuss Voigt Hill
#
# Bulk Modulus (GPa) = 36.06249 39.31745 37.68997
# Shear Modulus (GPa) = 29.24059 31.51670 30.37864
#
# Velocity S-wave (km/s) = 3.67412 3.81444 3.74494
# Velocity P-wave (km/s) = 5.88621 6.12790 6.00827
#
# Compressibility (1/GPa) = 0.02772965
#
# Stress axis : x y z
#
# Youngs Moduli (GPa) = 77.35775 77.35776 39.02705
#
# Poissons Ratio (x) = 0.15183 0.19340
# Poissons Ratio (y) = 0.15183 0.19340
# Poissons Ratio (z) = 0.38335 0.38335
#
# Static dielectric constant tensor:
#      x y z
#    x 1.801400 0.000000 0.000000 
#    y 0.000000 1.801400 0.000000 
#    z 0.000000 0.000000 1.821280 
# 
# From -- ./inp_files/1042.got.cif
#   From: 2010.05.17/outbox.cif.g08.bks.cpg/sg169_cif.got.tgz:1042.got - 2010.05.20 11:12:54.
