data_PCOD9580059
_publ_section_title
;
Structure prediction by ZEFSAII (Michael W. Deem and Ramdas Pophale) SiO2 
 PCOD9580059
Probable space group: P 61
;
_chemical_formula_sum "Si O2"
_cell_formula_units_Z 36
_cell_length_a 14.328056
_cell_length_b 14.328056
_cell_length_c 9.227356
_cell_angle_alpha 90.000000
_cell_angle_beta 90.000000
_cell_angle_gamma 120.000000
_cell_volume 1640.523472
_symmetry_space_group_name_H-M "P 61"
_symmetry_group_IT_number 169
_symmetry_cell_setting 'hexagonal'
loop_
_space_group_symop_operation_xyz
x,y,z
x-y,x,1/6+z
-y,x-y,1/3+z
-x,-y,1/2+z
-x+y,-x,2/3+z
y,-x+y,5/6+z
loop_
_atom_site_type_symbol
_atom_site_label
_atom_site_fract_x
_atom_site_fract_y
_atom_site_fract_z
Si Si1 0.396496 0.593069 0.007980
Si Si2 0.839438 0.563856 0.635263
Si Si3 0.447888 0.837747 0.013663
Si Si4 0.213364 0.092253 0.085077
Si Si5 0.651708 0.047789 0.009186
Si Si6 0.160251 0.956973 0.377779
O O1 0.275231 0.510720 0.056854
O O2 0.415567 0.713706 0.998100
O O3 0.481085 0.596002 0.123169
O O4 0.419642 0.564160 0.849615
O O5 0.856659 0.490052 0.749699
O O6 0.841883 0.665101 0.711086
O O7 0.930208 0.607327 0.511534
O O8 0.570358 0.923356 0.973037
O O9 0.150338 0.155228 0.125856
O O10 0.206703 0.026310 0.230548
O O11 0.763859 0.089587 0.925541
O O12 0.169859 0.039051 0.503672
#
# Coordination Sequence:
#
# PCOD9580059 Si02
#       6
#     6   6   6   6   6   6
#     4  12  26  48  72 106 147 195 244 302 387 435
#     4  12  27  47  73 114 146 195 246 312 368 452
#     4  12  26  46  73 102 151 195 240 308 369 450
#     4  10  26  49  75 109 150 198 249 312 380 454
#     4  12  27  45  75 109 142 192 252 304 369 453
#     4  10  24  49  72 106 146 195 247 302 379 452
#
# _framework density 21.944216000000001
#
# number of rings (size 3 to 8) (size 9 to 14) (size 15 to 20)
#    0.000    0.667    3.333    2.000   11.667    0.000 
#   18.000    0.000    0.000    0.000    0.000    0.000 
#    0.000    0.000    0.000    0.000    0.000    0.000 
#
# Total GULP energy -201618.579729 kJ/mol
# GULP energy per Si atom -5600.516104 kJ/mol
# Density = 2.189427 g / cm^3
# Si number density = 21.944216 Si / 1000 Ang^3
#
#
#
# Elastic Constant Matrix: (Units=GPa)
#
#
# Indices 1 2 3 4 5 6 
#
# 1 86.1792 38.4581 12.9443 0.0000 0.0000 0.0000
# 2 38.4581 86.1792 12.9443 0.0000 0.0000 0.0000
# 3 12.9443 12.9443 56.0656 0.0000 0.0000 0.0000
# 4 0.0000 0.0000 0.0000 32.1985 0.0000 0.0000
# 5 0.0000 0.0000 0.0000 0.0000 32.1985 0.0000
# 6 0.0000 0.0000 0.0000 0.0000 0.0000 23.8606
#
#
#
# Elastic Compliance Matrix: (Units=1/GPa)
#
#
# Indices 1 2 3 4 5 6 
#
# 1 0.014691 -0.006264 -0.001946 0.000000 0.000000 0.000000
# 2 -0.006264 0.014691 -0.001946 0.000000 0.000000 0.000000
# 3 -0.001946 -0.001946 0.018735 0.000000 0.000000 0.000000
# 4 0.000000 0.000000 0.000000 0.031057 0.000000 0.000000
# 5 0.000000 0.000000 0.000000 0.000000 0.031057 0.000000
# 6 0.000000 0.000000 0.000000 0.000000 0.000000 0.041910
#
#
# Mechanical properties :
#
#
# Convention : Reuss Voigt Hill
#
# Bulk Modulus (GPa) = 35.96254 39.67971 37.82112
# Shear Modulus (GPa) = 27.51464 28.59001 28.05232
#
# Velocity S-wave (km/s) = 3.54481 3.61342 3.57928
# Velocity P-wave (km/s) = 5.76003 5.96074 5.86124
#
# Compressibility (1/GPa) = 0.02780671
#
# Stress axis : x y z
#
# Youngs Moduli (GPa) = 68.06769 68.06769 53.37688
#
# Poissons Ratio (x) = 0.42636 0.10386
# Poissons Ratio (y) = 0.42636 0.10386
# Poissons Ratio (z) = 0.13244 0.13244
#
# Static dielectric constant tensor:
#      x y z
#    x 1.780480 0.000000 0.000000 
#    y 0.000000 1.780480 0.000000 
#    z 0.000000 0.000000 1.784610 
# 
# From -- ./inp_files/594.got.cif
#   From: 2010.05.17/outbox.cif.g08.bks.cpg/sg169_cif.got.tgz:594.got - 2010.05.20 11:12:54.
