data_PCOD9580061
_publ_section_title
;
Structure prediction by ZEFSAII (Michael W. Deem and Ramdas Pophale) SiO2 
 PCOD9580061
Probable space group: P 61
;
_chemical_formula_sum "Si O2"
_cell_formula_units_Z 48
_cell_length_a 11.891343
_cell_length_b 11.891343
_cell_length_c 16.605882
_cell_angle_alpha 90.000000
_cell_angle_beta 90.000000
_cell_angle_gamma 120.000000
_cell_volume 2033.547831
_symmetry_space_group_name_H-M "P 61"
_symmetry_group_IT_number 169
_symmetry_cell_setting 'hexagonal'
loop_
_space_group_symop_operation_xyz
x,y,z
x-y,x,1/6+z
-y,x-y,1/3+z
-x,-y,1/2+z
-x+y,-x,2/3+z
y,-x+y,5/6+z
loop_
_atom_site_type_symbol
_atom_site_label
_atom_site_fract_x
_atom_site_fract_y
_atom_site_fract_z
Si Si1 0.031285 0.695533 0.172950
Si Si2 0.913141 0.960161 0.795452
Si Si3 0.515819 0.630049 0.467770
Si Si4 0.362287 0.653705 0.227058
Si Si5 0.401063 0.470730 0.828993
Si Si6 0.060878 0.648769 0.935664
Si Si7 0.731884 0.545036 0.163635
Si Si8 0.303485 0.230758 0.119998
O O1 0.879507 0.601862 0.188306
O O2 0.059269 0.826444 0.124470
O O3 0.075473 0.596083 0.140098
O O4 0.102793 0.739605 0.257833
O O5 0.943913 0.995732 0.889129
O O6 0.936613 0.837072 0.782580
O O7 0.428688 0.697448 0.484917
O O8 0.588414 0.634325 0.385150
O O9 0.625327 0.688304 0.539042
O O10 0.476729 0.795288 0.208307
O O11 0.420967 0.564557 0.252638
O O12 0.268342 0.668206 0.292317
O O13 0.544410 0.601964 0.820095
O O14 0.345636 0.444653 0.738965
O O15 0.166463 0.777580 0.978642
O O16 0.017617 0.690064 0.855204
#
# Coordination Sequence:
#
# PCOD9580061 Si02
#       8
#     6   6   6   6   6   6   6   6
#     4  11  23  47  73 106 150 189 260 331 377 458
#     4  12  26  48  78 113 146 207 268 329 388 469
#     4  10  25  45  66 110 146 193 245 324 385 458
#     4  10  25  45  69 106 149 193 250 317 376 461
#     4  12  26  42  76 107 142 209 243 310 402 459
#     4  11  25  44  72 111 144 191 256 312 382 458
#     4  11  25  45  70 110 149 195 258 328 386 467
#     4  11  25  46  72 107 152 191 254 325 374 460
#
# _framework density 23.604068000000002
#
# number of rings (size 3 to 8) (size 9 to 14) (size 15 to 20)
#    0.000    1.000    3.750    2.250   12.250    0.000 
#    4.500    0.000    0.000    0.000    0.000    0.000 
#    0.000    0.000    0.000    0.000    0.000    0.000 
#
# Total GULP energy -267770.882880 kJ/mol
# GULP energy per Si atom -5578.560060 kJ/mol
# Density = 2.355034 g / cm^3
# Si number density = 23.604068 Si / 1000 Ang^3
#
#
#
# Elastic Constant Matrix: (Units=GPa)
#
#
# Indices 1 2 3 4 5 6 
#
# 1 70.7782 5.6139 13.9116 0.0000 0.0000 0.0000
# 2 5.6139 70.7782 13.9116 0.0000 0.0000 0.0000
# 3 13.9116 13.9116 118.2479 0.0000 0.0000 0.0000
# 4 0.0000 0.0000 0.0000 26.2440 0.0000 0.0000
# 5 0.0000 0.0000 0.0000 0.0000 26.2440 0.0000
# 6 0.0000 0.0000 0.0000 0.0000 0.0000 32.5821
#
#
#
# Elastic Compliance Matrix: (Units=1/GPa)
#
#
# Indices 1 2 3 4 5 6 
#
# 1 0.014511 -0.000835 -0.001609 0.000000 0.000000 0.000000
# 2 -0.000835 0.014511 -0.001609 0.000000 0.000000 0.000000
# 3 -0.001609 -0.001609 0.008835 0.000000 0.000000 0.000000
# 4 0.000000 0.000000 0.000000 0.038104 0.000000 0.000000
# 5 0.000000 0.000000 0.000000 0.000000 0.038104 0.000000
# 6 0.000000 0.000000 0.000000 0.000000 0.000000 0.030692
#
#
# Mechanical properties :
#
#
# Convention : Reuss Voigt Hill
#
# Bulk Modulus (GPa) = 33.61097 36.29759 34.95428
# Shear Modulus (GPa) = 30.71631 32.10518 31.41075
#
# Velocity S-wave (km/s) = 3.61129 3.69203 3.65188
# Velocity P-wave (km/s) = 5.62663 5.79533 5.71160
#
# Compressibility (1/GPa) = 0.02975219
#
# Stress axis : x y z
#
# Youngs Moduli (GPa) = 68.91273 68.91273 113.18115
#
# Poissons Ratio (x) = 0.05752 0.18211
# Poissons Ratio (y) = 0.05752 0.18211
# Poissons Ratio (z) = 0.11088 0.11088
#
# Static dielectric constant tensor:
#      x y z
#    x 1.933190 0.000000 0.000000 
#    y 0.000000 1.933190 0.000000 
#    z 0.000000 0.000000 1.964890 
# 
# From -- ./inp_files/1409.got.cif
#   From: 2010.05.17/outbox.cif.g08.bks.cpg/sg169_cif.got.tgz:1409.got - 2010.05.20 11:12:54.
