data_PCOD9580721
_publ_section_title
;
Structure prediction by ZEFSAII (Michael W. Deem and Ramdas Pophale) SiO2 
 PCOD9580721
Probable space group: P 62
;
_chemical_formula_sum "Si O2"
_cell_formula_units_Z 39
_cell_length_a 20.551136
_cell_length_b 20.551136
_cell_length_c 4.984705
_cell_angle_alpha 90.000000
_cell_angle_beta 90.000000
_cell_angle_gamma 120.000000
_cell_volume 1823.231265
_symmetry_space_group_name_H-M "P 62"
_symmetry_group_IT_number 171
_symmetry_cell_setting 'hexagonal'
loop_
_space_group_symop_operation_xyz
x,y,z
x-y,x,1/3+z
-y,x-y,2/3+z
-x,-y,z
-x+y,-x,1/3+z
y,-x+y,2/3+z
loop_
_atom_site_type_symbol
_atom_site_label
_atom_site_fract_x
_atom_site_fract_y
_atom_site_fract_z
Si Si1 0.277221 0.157417 0.814680
Si Si2 0.430151 0.093042 0.441729
Si Si3 0.263661 0.054553 0.325988
Si Si4 0.500000 0.000000 0.231582
Si Si5 0.865715 0.491265 0.564566
Si Si6 0.715961 0.166211 0.413242
Si Si7 0.324881 0.510170 0.274953
O O1 0.266403 0.109064 0.554995
O O2 0.230862 0.200865 0.750340
O O3 0.365435 0.221640 0.821514
O O4 0.257150 0.096824 0.057982
O O5 0.344699 0.058823 0.343710
O O6 0.446904 0.121236 0.746770
O O7 0.462584 0.038205 0.399173
O O8 0.481610 0.162691 0.244478
O O9 0.438014 0.939623 0.036583
O O10 0.880865 0.525409 0.269380
O O11 0.812539 0.401067 0.565132
O O12 0.840305 0.535886 0.767625
O O13 0.742286 0.249874 0.515775
#
# Coordination Sequence:
#
# PCOD9580721 Si02
#       7
#     6   6   6   3   6   6   6
#     4  12  26  44  75 104 144 176 233 287 363 434
#     4  11  21  41  67  95 137 176 216 282 348 397
#     4  12  24  45  70 108 136 185 221 294 358 438
#     4  10  24  40  64 100 130 170 222 270 340 396
#     4  11  25  39  65  93 131 175 224 287 333 409
#     4  12  23  45  66  96 130 183 235 284 341 410
#     4  11  23  42  63  89 137 174 227 283 344 387
#
# _framework density 21.390594
#
# number of rings (size 3 to 8) (size 9 to 14) (size 15 to 20)
#    0.000    0.615    3.077    5.538    0.000    9.231 
#    2.769    0.000    0.000    4.615    0.000    0.000 
#    0.000    0.000    0.000    0.000    0.000    0.000 
#
# Total GULP energy -217894.073948 kJ/mol
# GULP energy per Si atom -5587.027537 kJ/mol
# Density = 2.134191 g / cm^3
# Si number density = 21.390594 Si / 1000 Ang^3
#
#
#
# Elastic Constant Matrix: (Units=GPa)
#
#
# Indices 1 2 3 4 5 6 
#
# 1 78.8532 31.4158 6.2913 0.0000 0.0000 0.0000
# 2 31.4158 78.8532 6.2913 0.0000 0.0000 0.0000
# 3 6.2913 6.2913 85.4123 0.0000 0.0000 0.0000
# 4 0.0000 0.0000 0.0000 42.6638 0.0000 0.0000
# 5 0.0000 0.0000 0.0000 0.0000 42.6638 0.0000
# 6 0.0000 0.0000 0.0000 0.0000 0.0000 23.7187
#
#
#
# Elastic Compliance Matrix: (Units=1/GPa)
#
#
# Indices 1 2 3 4 5 6 
#
# 1 0.015113 -0.005967 -0.000674 0.000000 0.000000 0.000000
# 2 -0.005967 0.015113 -0.000674 0.000000 0.000000 0.000000
# 3 -0.000674 -0.000674 0.011807 0.000000 0.000000 0.000000
# 4 0.000000 0.000000 0.000000 0.023439 0.000000 0.000000
# 5 0.000000 0.000000 0.000000 0.000000 0.023439 0.000000
# 6 0.000000 0.000000 0.000000 0.000000 0.000000 0.042161
#
#
# Mechanical properties :
#
#
# Convention : Reuss Voigt Hill
#
# Bulk Modulus (GPa) = 36.49133 36.79061 36.64097
# Shear Modulus (GPa) = 32.29219 35.08395 33.68807
#
# Velocity S-wave (km/s) = 3.88963 4.05428 3.97281
# Velocity P-wave (km/s) = 6.10482 6.25724 6.18150
#
# Compressibility (1/GPa) = 0.02740377
#
# Stress axis : x y z
#
# Youngs Moduli (GPa) = 66.16813 66.16813 84.69438
#
# Poissons Ratio (x) = 0.39485 0.05705
# Poissons Ratio (y) = 0.39485 0.05705
# Poissons Ratio (z) = 0.04457 0.04457
#
# Static dielectric constant tensor:
#      x y z
#    x 1.668330 0.000000 0.000000 
#    y 0.000000 1.668330 0.000000 
#    z 0.000000 0.000000 1.792510 
# 
# From -- ./inp_files/456.got.cif
#   From: 2010.05.17/outbox.cif.g08.bks.cpg/sg171_1_cif.got.tgz:456.got - 2010.05.20 11:16:09.
