data_PCOD9580756
_publ_section_title
;
Structure prediction by ZEFSAII (Michael W. Deem and Ramdas Pophale) SiO2 
 PCOD9580756
Probable space group: P 62
;
_chemical_formula_sum "Si O2"
_cell_formula_units_Z 18
_cell_length_a 6.923015
_cell_length_b 6.923015
_cell_length_c 14.601731
_cell_angle_alpha 90.000000
_cell_angle_beta 90.000000
_cell_angle_gamma 120.000000
_cell_volume 606.073814
_symmetry_space_group_name_H-M "P 62"
_symmetry_group_IT_number 171
_symmetry_cell_setting 'hexagonal'
loop_
_space_group_symop_operation_xyz
x,y,z
x-y,x,1/3+z
-y,x-y,2/3+z
-x,-y,z
-x+y,-x,1/3+z
y,-x+y,2/3+z
loop_
_atom_site_type_symbol
_atom_site_label
_atom_site_fract_x
_atom_site_fract_y
_atom_site_fract_z
Si Si1 0.677577 0.235795 0.250000
Si Si2 0.809877 0.608981 0.403010
Si Si3 0.740286 0.714557 0.780531
O O1 0.759323 0.443377 0.317836
O O2 0.543416 0.248147 0.160752
O O3 0.871019 0.183037 0.216441
O O4 0.500000 0.000000 0.293527
O O5 0.794260 0.728368 0.092259
O O6 0.292900 0.227814 0.388857
O O7 0.500000 0.500000 0.790979
#
# Coordination Sequence:
#
# PCOD9580756 Si02
#       3
#     6   6   6
#     4  10  24  53  90 133 187 247 319 398 486 576
#     4  10  24  53  91 132 190 242 318 397 480 585
#     4  10  24  52  85 135 180 249 308 397 479 570
#
# _framework density 29.699349000000002
#
# number of rings (size 3 to 8) (size 9 to 14) (size 15 to 20)
#    0.000    2.000    0.000    0.000    0.000    5.333 
#   36.000    3.333    0.000   16.000    0.000    0.000 
#    0.000    0.000    0.000    0.000    0.000    0.000 
#
# Total GULP energy -100795.929819 kJ/mol
# GULP energy per Si atom -5599.773879 kJ/mol
# Density = 2.963175 g / cm^3
# Si number density = 29.699349 Si / 1000 Ang^3
#
#
#
# Elastic Constant Matrix: (Units=GPa)
#
#
# Indices 1 2 3 4 5 6 
#
# 1 244.9919 93.8686 50.9397 0.0000 0.0000 0.0000
# 2 93.8686 244.9919 50.9397 0.0000 0.0000 0.0000
# 3 50.9397 50.9397 140.2994 0.0000 0.0000 0.0000
# 4 0.0000 0.0000 0.0000 -33.4223 0.0000 0.0000
# 5 0.0000 0.0000 0.0000 0.0000 -33.4223 0.0000
# 6 0.0000 0.0000 0.0000 0.0000 0.0000 75.5617
#
#
#
# Elastic Compliance Matrix: (Units=1/GPa)
#
#
# Indices 1 2 3 4 5 6 
#
# 1 0.004965 -0.001652 -0.001203 0.000000 0.000000 0.000000
# 2 -0.001652 0.004965 -0.001203 0.000000 0.000000 0.000000
# 3 -0.001203 -0.001203 0.008001 0.000000 0.000000 0.000000
# 4 0.000000 0.000000 0.000000 -0.029920 0.000000 0.000000
# 5 0.000000 0.000000 0.000000 0.000000 -0.029920 0.000000
# 6 0.000000 0.000000 0.000000 0.000000 0.000000 0.013234
#
#
# Mechanical properties :
#
#
# Convention : Reuss Voigt Hill
#
# Bulk Modulus (GPa) = 101.88159 113.53103 107.70631
# Shear Modulus (GPa) = -289.21837 30.71243 -129.25297
#
# Velocity S-wave (km/s) = -9.87894 3.21925 -6.60416
# Velocity P-wave (km/s) = 9.78498 7.21996 4.67001
#
# Compressibility (1/GPa) = 0.00981532
#
# Stress axis : x y z
#
# Youngs Moduli (GPa) = 201.41408 201.41408 124.98425
#
# Poissons Ratio (x) = 0.33278 0.15033
# Poissons Ratio (y) = 0.33278 0.15033
# Poissons Ratio (z) = 0.24225 0.24225
#
# Static dielectric constant tensor:
#      x y z
#    x 2.953000 0.000000 0.000000 
#    y 0.000000 2.953000 0.000000 
#    z 0.000000 0.000000 2.391620 
# 
# From -- ./inp_files/4528.got.cif
#   From: 2010.05.17/outbox.cif.g08.bks.cpg/sg171_3_cif.got.tgz:4528.got - 2010.05.20 11:16:09.
