data_PCOD9580912
_publ_section_title
;
Structure prediction by ZEFSAII (Michael W. Deem and Ramdas Pophale) SiO2 
 PCOD9580912
Probable space group: P 64
;
_chemical_formula_sum "Si O2"
_cell_formula_units_Z 36
_cell_length_a 8.878172
_cell_length_b 8.878172
_cell_length_c 24.174606
_cell_angle_alpha 90.000000
_cell_angle_beta 90.000000
_cell_angle_gamma 120.000000
_cell_volume 1650.202138
_symmetry_space_group_name_H-M "P 64"
_symmetry_group_IT_number 172
_symmetry_cell_setting 'hexagonal'
loop_
_space_group_symop_operation_xyz
x,y,z
x-y,x,2/3+z
-y,x-y,1/3+z
-x,-y,z
-x+y,-x,2/3+z
y,-x+y,1/3+z
loop_
_atom_site_type_symbol
_atom_site_label
_atom_site_fract_x
_atom_site_fract_y
_atom_site_fract_z
Si Si1 0.266414 0.466712 0.319320
Si Si2 0.299928 0.949082 0.262789
Si Si3 0.811956 0.408470 0.215823
Si Si4 0.500000 0.500000 0.730480
Si Si5 0.500000 0.500000 0.098028
Si Si6 0.180234 0.385569 0.015460
Si Si7 0.811094 0.246305 0.493330
O O1 0.203201 0.452911 0.255721
O O2 0.449779 0.646667 0.315136
O O3 0.285762 0.316236 0.351111
O O4 0.143985 0.502104 0.358300
O O5 0.258752 0.031214 0.314944
O O6 0.317496 0.060782 0.208120
O O7 0.500000 0.000000 0.272961
O O8 0.191526 0.744761 0.253748
O O9 0.638593 0.296973 0.179541
O O10 0.000000 0.500000 0.186356
O O11 0.660370 0.580736 0.772496
O O12 0.598166 0.662470 0.138926
O O13 0.335763 0.476594 0.061070
#
# Coordination Sequence:
#
# PCOD9580912 Si02
#       7
#     6   6   6   3   3   6   6
#     4  11  23  38  70  99 131 172 240 275 335 415
#     4  10  19  40  64  91 127 175 216 267 339 402
#     4  11  22  41  66  98 129 175 225 284 334 411
#     4  12  22  45  62  96 134 181 212 288 348 398
#     4  12  24  41  66 102 138 177 222 290 342 408
#     4  11  22  40  69  99 129 180 228 275 329 428
#     4  11  24  39  66  91 132 179 221 269 347 406
#
# _framework density 21.81551
#
# number of rings (size 3 to 8) (size 9 to 14) (size 15 to 20)
#    0.000    1.000    9.167    0.000    2.333    1.333 
#    0.000    3.333    0.000    0.000    0.000    0.000 
#    0.000    0.000    0.000    0.000    0.000    0.000 
#
# Total GULP energy -200412.689344 kJ/mol
# GULP energy per Si atom -5567.019148 kJ/mol
# Density = 2.176586 g / cm^3
# Si number density = 21.815510 Si / 1000 Ang^3
#
#
#
# Elastic Constant Matrix: (Units=GPa)
#
#
# Indices 1 2 3 4 5 6 
#
# 1 54.4673 1.5645 2.8743 0.0000 0.0000 0.0000
# 2 1.5645 54.4673 2.8743 0.0000 0.0000 0.0000
# 3 2.8743 2.8743 56.4255 0.0000 0.0000 0.0000
# 4 0.0000 0.0000 0.0000 11.4074 0.0000 0.0000
# 5 0.0000 0.0000 0.0000 0.0000 11.4074 0.0000
# 6 0.0000 0.0000 0.0000 0.0000 0.0000 26.4514
#
#
#
# Elastic Compliance Matrix: (Units=1/GPa)
#
#
# Indices 1 2 3 4 5 6 
#
# 1 0.018422 -0.000481 -0.000914 0.000000 0.000000 0.000000
# 2 -0.000481 0.018422 -0.000914 0.000000 0.000000 0.000000
# 3 -0.000914 -0.000914 0.017816 0.000000 0.000000 0.000000
# 4 0.000000 0.000000 0.000000 0.087663 0.000000 0.000000
# 5 0.000000 0.000000 0.000000 0.000000 0.087663 0.000000
# 6 0.000000 0.000000 0.000000 0.000000 0.000000 0.037805
#
#
# Mechanical properties :
#
#
# Convention : Reuss Voigt Hill
#
# Bulk Modulus (GPa) = 19.98339 19.99847 19.99093
# Shear Modulus (GPa) = 17.29582 20.38971 18.84277
#
# Velocity S-wave (km/s) = 2.81876 3.06051 2.94212
# Velocity P-wave (km/s) = 4.44679 4.65574 4.55247
#
# Compressibility (1/GPa) = 0.05004155
#
# Stress axis : x y z
#
# Youngs Moduli (GPa) = 54.28390 54.28390 56.13062
#
# Poissons Ratio (x) = 0.02611 0.05130
# Poissons Ratio (y) = 0.02611 0.05130
# Poissons Ratio (z) = 0.04961 0.04961
#
# Static dielectric constant tensor:
#      x y z
#    x 1.829490 0.000000 0.000000 
#    y 0.000000 1.829490 0.000000 
#    z 0.000000 0.000000 1.825540 
# 
# From -- ./inp_files/2650.got.cif
#   From: 2010.05.17/outbox.cif.g08.bks.cpg/sg172_2_cif.got.tgz:2650.got - 2010.05.20 11:19:57.
