data_PCOD9580779
_publ_section_title
;
Structure prediction by ZEFSAII (Michael W. Deem and Ramdas Pophale) SiO2 
 PCOD9580779
Probable space group: P 62
;
_chemical_formula_sum "Si O2"
_cell_formula_units_Z 18
_cell_length_a 4.901668
_cell_length_b 4.901668
_cell_length_c 34.984290
_cell_angle_alpha 90.000000
_cell_angle_beta 90.000000
_cell_angle_gamma 120.000000
_cell_volume 727.933122
_symmetry_space_group_name_H-M "P 62"
_symmetry_group_IT_number 171
_symmetry_cell_setting 'hexagonal'
loop_
_space_group_symop_operation_xyz
x,y,z
x-y,x,1/3+z
-y,x-y,2/3+z
-x,-y,z
-x+y,-x,1/3+z
y,-x+y,2/3+z
loop_
_atom_site_type_symbol
_atom_site_label
_atom_site_fract_x
_atom_site_fract_y
_atom_site_fract_z
Si Si1 0.500000 0.000000 0.720791
Si Si2 0.000000 0.500000 0.609410
Si Si3 0.500000 0.000000 0.110098
Si Si4 0.000000 0.000000 0.166523
Si Si5 0.000000 0.000000 0.333183
Si Si6 0.500000 0.000000 0.225353
O O1 0.704920 0.906981 0.693907
O O2 0.278460 0.723670 0.749074
O O3 0.321479 0.636049 0.584515
O O4 0.979792 0.740762 0.637829
O O5 0.815455 0.101607 0.135324
O O6 0.731418 0.936991 0.198594
#
# Coordination Sequence:
#
# PCOD9580779 Si02
#       6
#     3   3   3   3   3   3
#     4  12  28  51  80 114 155 204 258 318 383 456
#     4  12  27  49  77 112 154 202 254 316 382 454
#     4  11  27  48  78 110 153 200 254 314 381 452
#     4  10  26  48  76 112 152 200 254 314 380 454
#     4  12  28  50  78 114 154 202 256 316 382 456
#     4  11  26  48  77 110 154 200 256 314 382 452
#
# _framework density 24.727544000000002
#
# number of rings (size 3 to 8) (size 9 to 14) (size 15 to 20)
#    0.000    0.667    0.000    5.000    0.000   22.667 
#    0.000    0.000    0.000    0.000    0.000    0.000 
#    0.000    0.000    0.000    0.000    0.000    0.000 
#
# Total GULP energy -100267.418639 kJ/mol
# GULP energy per Si atom -5570.412147 kJ/mol
# Density = 2.467126 g / cm^3
# Si number density = 24.727544 Si / 1000 Ang^3
#
#
#
# Elastic Constant Matrix: (Units=GPa)
#
#
# Indices 1 2 3 4 5 6 
#
# 1 164.7134 68.6564 87.2737 0.0000 0.0000 0.0000
# 2 68.6564 164.7134 87.2737 0.0000 0.0000 0.0000
# 3 87.2737 87.2737 187.1417 0.0000 0.0000 0.0000
# 4 0.0000 0.0000 0.0000 4.4178 0.0000 0.0000
# 5 0.0000 0.0000 0.0000 0.0000 4.4178 0.0000
# 6 0.0000 0.0000 0.0000 0.0000 0.0000 48.0285
#
#
#
# Elastic Compliance Matrix: (Units=1/GPa)
#
#
# Indices 1 2 3 4 5 6 
#
# 1 0.008495 -0.001915 -0.003069 0.000000 0.000000 0.000000
# 2 -0.001915 0.008495 -0.003069 0.000000 0.000000 0.000000
# 3 -0.003069 -0.003069 0.008206 0.000000 0.000000 0.000000
# 4 0.000000 0.000000 0.000000 0.226357 0.000000 0.000000
# 5 0.000000 0.000000 0.000000 0.000000 0.226357 0.000000
# 6 0.000000 0.000000 0.000000 0.000000 0.000000 0.020821
#
#
# Mechanical properties :
#
#
# Convention : Reuss Voigt Hill
#
# Bulk Modulus (GPa) = 109.99379 111.44178 110.71778
# Shear Modulus (GPa) = 9.65500 29.59713 19.62607
#
# Velocity S-wave (km/s) = 1.97814 3.46342 2.82031
# Velocity P-wave (km/s) = 7.05664 7.82045 7.44834
#
# Compressibility (1/GPa) = 0.00909142
#
# Stress axis : x y z
#
# Youngs Moduli (GPa) = 117.71103 117.71103 121.86591
#
# Poissons Ratio (x) = 0.22543 0.37397
# Poissons Ratio (y) = 0.22543 0.37397
# Poissons Ratio (z) = 0.36122 0.36122
#
# Static dielectric constant tensor:
#      x y z
#    x 1.929840 0.000000 0.000000 
#    y 0.000000 1.929840 0.000000 
#    z 0.000000 0.000000 1.942320 
# 
# From -- ./inp_files/5882.got.cif
#   From: 2010.05.17/outbox.cif.g08.bks.cpg/sg171_3_cif.got.tgz:5882.got - 2010.05.20 11:16:09.
