data_PCOD9580412
_publ_section_title
;
Structure prediction by ZEFSAII (Michael W. Deem and Ramdas Pophale) SiO2 
 PCOD9580412
Probable space group: P 65
;
_chemical_formula_sum "Si O2"
_cell_formula_units_Z 48
_cell_length_a 12.000000
_cell_length_b 12.000000
_cell_length_c 18.000000
_cell_angle_alpha 90.000000
_cell_angle_beta 90.000000
_cell_angle_gamma 120.000000
_cell_volume 2244.737847
_symmetry_space_group_name_H-M "P 65"
_symmetry_group_IT_number 170
_symmetry_cell_setting 'hexagonal'
loop_
_space_group_symop_operation_xyz
x,y,z
x-y,x,5/6+z
-y,x-y,2/3+z
-x,-y,1/2+z
-x+y,-x,1/3+z
y,-x+y,1/6+z
loop_
_atom_site_type_symbol
_atom_site_label
_atom_site_fract_x
_atom_site_fract_y
_atom_site_fract_z
Si Si1 0.827762 0.348581 0.339280
Si Si2 0.485221 0.164544 0.846054
Si Si3 0.554672 0.240514 0.263122
Si Si4 0.766277 0.163262 0.066929
Si Si5 0.889035 0.189993 0.225200
Si Si6 0.039959 0.945409 0.933298
Si Si7 0.673737 0.689100 0.308661
Si Si8 0.525211 0.938772 0.616567
O O1 0.859791 0.364085 0.426477
O O2 0.679098 0.274080 0.314592
O O3 0.875241 0.263604 0.295369
O O4 0.912341 0.490489 0.304683
O O5 0.624055 0.232291 0.886149
O O6 0.401590 0.044349 0.902072
O O7 0.421075 0.255715 0.832154
O O8 0.445406 0.195926 0.326572
O O9 0.503439 0.138841 0.194477
O O10 0.830814 0.210609 0.148729
O O11 0.615442 0.115272 0.079312
O O12 0.784035 0.042110 0.048652
O O13 0.836493 0.044477 0.250778
O O14 0.028476 0.995634 0.849719
O O15 0.187700 0.993328 0.949670
O O16 0.678971 0.615068 0.383482
#
# Coordination Sequence:
#
# PCOD9580412 Si02
#       8
#     6   6   6   6   6   6   6   6
#     4  11  26  42  75 105 140 190 251 303 369 461
#     4  12  27  43  71 105 143 191 247 307 384 454
#     4  12  25  46  72 102 151 201 234 304 390 463
#     4  11  24  44  73 102 148 187 248 308 378 459
#     4  11  24  45  71 106 138 190 248 314 360 448
#     4  12  25  47  77 105 142 191 257 313 380 451
#     4  12  26  46  71 109 146 187 244 326 370 457
#     4  11  25  47  68 106 150 187 245 307 377 463
#
# _framework density 21.383343
#
# number of rings (size 3 to 8) (size 9 to 14) (size 15 to 20)
#    0.000    0.500    6.250    1.500    3.500    1.000 
#    2.250    0.000    0.000    0.000    0.000    0.000 
#    0.000    0.000    0.000    0.000    0.000    0.000 
#
# Total GULP energy -267592.666856 kJ/mol
# GULP energy per Si atom -5574.847226 kJ/mol
# Density = 2.133467 g / cm^3
# Si number density = 21.383343 Si / 1000 Ang^3
#
#
#
# Elastic Constant Matrix: (Units=GPa)
#
#
# Indices 1 2 3 4 5 6 
#
# 1 56.0808 12.0616 38.4840 0.0000 0.0000 0.0000
# 2 12.0616 56.0808 38.4840 0.0000 0.0000 0.0000
# 3 38.4840 38.4840 207.4704 0.0000 0.0000 0.0000
# 4 0.0000 0.0000 0.0000 44.6842 0.0000 0.0000
# 5 0.0000 0.0000 0.0000 0.0000 44.6842 0.0000
# 6 0.0000 0.0000 0.0000 0.0000 0.0000 22.0096
#
#
#
# Elastic Compliance Matrix: (Units=1/GPa)
#
#
# Indices 1 2 3 4 5 6 
#
# 1 0.020641 -0.002076 -0.003444 0.000000 0.000000 0.000000
# 2 -0.002076 0.020641 -0.003444 0.000000 0.000000 0.000000
# 3 -0.003444 -0.003444 0.006097 0.000000 0.000000 0.000000
# 4 0.000000 0.000000 0.000000 0.022379 0.000000 0.000000
# 5 0.000000 0.000000 0.000000 0.000000 0.022379 0.000000
# 6 0.000000 0.000000 0.000000 0.000000 0.000000 0.045435
#
#
# Mechanical properties :
#
#
# Convention : Reuss Voigt Hill
#
# Bulk Modulus (GPa) = 33.95285 55.29899 44.62592
# Shear Modulus (GPa) = 30.24486 37.64911 33.94698
#
# Velocity S-wave (km/s) = 3.76495 4.20059 3.98872
# Velocity P-wave (km/s) = 5.90020 7.03161 6.49061
#
# Compressibility (1/GPa) = 0.02945261
#
# Stress axis : x y z
#
# Youngs Moduli (GPa) = 48.44712 48.44712 164.00213
#
# Poissons Ratio (x) = 0.10059 0.56476
# Poissons Ratio (y) = 0.10059 0.56476
# Poissons Ratio (z) = 0.16683 0.16683
#
# Static dielectric constant tensor:
#      x y z
#    x 1.870110 0.000000 0.000000 
#    y 0.000000 1.870110 0.000000 
#    z 0.000000 0.000000 1.769790 
# 
# From -- ./inp_files/1447.got.cif
#   From: 2010.05.17/outbox.ucp.g08.bks.cvg/sg170_cif.got.tgz:1447.got - 2010.06.11 15:18:05.
