data_PCOD9580886
_publ_section_title
;
Structure prediction by ZEFSAII (Michael W. Deem and Ramdas Pophale) SiO2 
 PCOD9580886
Probable space group: P 62
;
_chemical_formula_sum "Si O2"
_cell_formula_units_Z 18
_cell_length_a 12.001306
_cell_length_b 12.001306
_cell_length_c 4.862806
_cell_angle_alpha 90.000000
_cell_angle_beta 90.000000
_cell_angle_gamma 120.000000
_cell_volume 606.561155
_symmetry_space_group_name_H-M "P 62"
_symmetry_group_IT_number 171
_symmetry_cell_setting 'hexagonal'
loop_
_space_group_symop_operation_xyz
x,y,z
x-y,x,1/3+z
-y,x-y,2/3+z
-x,-y,z
-x+y,-x,1/3+z
y,-x+y,2/3+z
loop_
_atom_site_type_symbol
_atom_site_label
_atom_site_fract_x
_atom_site_fract_y
_atom_site_fract_z
Si Si1 0.667583 0.045575 0.819220
Si Si2 0.775724 0.781926 0.641931
Si Si3 0.697952 0.470165 0.856471
O O1 0.773467 0.076160 0.581507
O O2 0.551942 0.915399 0.661418
O O3 0.716099 0.187472 0.958412
O O4 0.664086 0.978099 0.111735
O O5 0.800886 0.896095 0.438834
O O6 0.577282 0.342070 0.742622
#
# Coordination Sequence:
#
# PCOD9580886 Si02
#       3
#     6   6   6
#     4  12  30  65  97 140 208 253 354 420 515 626
#     4  12  28  58  92 138 188 264 325 421 500 604
#     4  12  34  67 102 151 200 286 342 444 526 626
#
# _framework density 29.675492999999999
#
# number of rings (size 3 to 8) (size 9 to 14) (size 15 to 20)
#    0.000    0.000    3.333    2.000    9.333    1.333 
#   18.000    1.667    0.000    0.000    0.000    0.000 
#    0.000    0.000    0.000    0.000    0.000    0.000 
#
# Total GULP energy -100287.792484 kJ/mol
# GULP energy per Si atom -5571.544027 kJ/mol
# Density = 2.960795 g / cm^3
# Si number density = 29.675493 Si / 1000 Ang^3
#
#
#
# Elastic Constant Matrix: (Units=GPa)
#
#
# Indices 1 2 3 4 5 6 
#
# 1 173.1552 68.3169 80.6234 0.0000 0.0000 0.0000
# 2 68.3169 173.1552 80.6234 0.0000 0.0000 0.0000
# 3 80.6234 80.6234 302.9808 0.0000 0.0000 0.0000
# 4 0.0000 0.0000 0.0000 56.5400 0.0000 0.0000
# 5 0.0000 0.0000 0.0000 0.0000 56.5400 0.0000
# 6 0.0000 0.0000 0.0000 0.0000 0.0000 52.4191
#
#
#
# Elastic Compliance Matrix: (Units=1/GPa)
#
#
# Indices 1 2 3 4 5 6 
#
# 1 0.007287 -0.002251 -0.001340 0.000000 0.000000 0.000000
# 2 -0.002251 0.007287 -0.001340 0.000000 0.000000 0.000000
# 3 -0.001340 -0.001340 0.004014 0.000000 0.000000 0.000000
# 4 0.000000 0.000000 0.000000 0.017687 0.000000 0.000000
# 5 0.000000 0.000000 0.000000 0.000000 0.017687 0.000000
# 6 0.000000 0.000000 0.000000 0.000000 0.000000 0.019077
#
#
# Mechanical properties :
#
#
# Convention : Reuss Voigt Hill
#
# Bulk Modulus (GPa) = 114.60573 123.15761 118.88167
# Shear Modulus (GPa) = 58.26830 61.08166 59.67498
#
# Velocity S-wave (km/s) = 4.43596 4.54179 4.48919
# Velocity P-wave (km/s) = 8.05857 8.31236 8.18645
#
# Compressibility (1/GPa) = 0.00872557
#
# Stress axis : x y z
#
# Youngs Moduli (GPa) = 137.22449 137.22449 249.14323
#
# Poissons Ratio (x) = 0.30892 0.33388
# Poissons Ratio (y) = 0.30892 0.33388
# Poissons Ratio (z) = 0.18390 0.18390
#
# Static dielectric constant tensor:
#      x y z
#    x 2.737220 0.000000 0.000000 
#    y 0.000000 2.737220 0.000000 
#    z 0.000000 0.000000 2.194990 
# 
# From -- ./inp_files/170.got.cif
#   From: 2010.05.17/outbox.cif.g08.bks.cpg/sg171_1_cif.got.tgz:170.got - 2010.05.20 11:16:09.
