data_PCOD9580169
_publ_section_title
;
Structure prediction by ZEFSAII (Michael W. Deem and Ramdas Pophale) SiO2 
 PCOD9580169
Probable space group: P 65
;
_chemical_formula_sum "Si O2"
_cell_formula_units_Z 48
_cell_length_a 17.118938
_cell_length_b 17.118938
_cell_length_c 7.358708
_cell_angle_alpha 90.000000
_cell_angle_beta 90.000000
_cell_angle_gamma 120.000000
_cell_volume 1867.608491
_symmetry_space_group_name_H-M "P 65"
_symmetry_group_IT_number 170
_symmetry_cell_setting 'hexagonal'
loop_
_space_group_symop_operation_xyz
x,y,z
x-y,x,5/6+z
-y,x-y,2/3+z
-x,-y,1/2+z
-x+y,-x,1/3+z
y,-x+y,1/6+z
loop_
_atom_site_type_symbol
_atom_site_label
_atom_site_fract_x
_atom_site_fract_y
_atom_site_fract_z
Si Si1 0.662390 0.987567 0.023830
Si Si2 0.321652 0.315285 0.917327
Si Si3 0.166848 0.633227 0.628398
Si Si4 0.804631 0.529588 0.268533
Si Si5 0.063531 0.878845 0.236409
Si Si6 0.298517 0.826951 0.517217
Si Si7 0.380223 0.509270 0.858500
Si Si8 0.004393 0.841757 0.750933
O O1 0.701608 0.087965 0.103130
O O2 0.731598 0.958940 0.100074
O O3 0.676518 0.997973 0.804263
O O4 0.556782 0.917093 0.046121
O O5 0.377194 0.265768 0.865920
O O6 0.217204 0.271893 0.864356
O O7 0.378015 0.415899 0.842009
O O8 0.180424 0.553794 0.711947
O O9 0.254487 0.735141 0.632735
O O10 0.148931 0.619007 0.409498
O O11 0.804267 0.549909 0.485409
O O12 0.701093 0.498494 0.234908
O O13 0.124183 0.931757 0.414187
O O14 0.960534 0.849492 0.268007
O O15 0.402364 0.869906 0.462368
O O16 0.938409 0.847614 0.892665
#
# Coordination Sequence:
#
# PCOD9580169 Si02
#       8
#     6   6   6   6   6   6   6   6
#     4  10  18  34  55  84 119 150 193 244 295 347
#     4  10  18  34  55  84 119 150 193 244 295 347
#     4  10  22  36  58  86 119 159 194 245 297 346
#     4  10  22  36  58  86 119 159 194 245 297 346
#     4  10  18  29  53  90 115 146 191 242 292 344
#     4  10  22  35  57  87 116 155 200 242 289 350
#     4  10  22  35  57  87 116 155 200 242 289 350
#     4  10  18  29  53  90 115 146 191 242 292 344
#
# _framework density 25.701319000000002
#
# number of rings (size 3 to 8) (size 9 to 14) (size 15 to 20)
#    0.000    2.000    2.500    2.250    7.000    0.000 
#    0.000    0.000    0.000    0.000   71.500    0.000 
#    0.000    0.000    0.000    0.000    0.000    0.000 
#
# Total GULP energy -268241.892748 kJ/mol
# GULP energy per Si atom -5588.372766 kJ/mol
# Density = 2.564282 g / cm^3
# Si number density = 25.701319 Si / 1000 Ang^3
#
#
#
# Elastic Constant Matrix: (Units=GPa)
#
#
# Indices 1 2 3 4 5 6 
#
# 1 93.9671 6.1755 4.5857 0.0000 0.0000 0.0000
# 2 6.1755 93.9671 4.5857 0.0000 0.0000 0.0000
# 3 4.5857 4.5857 92.3132 0.0000 0.0000 0.0000
# 4 0.0000 0.0000 0.0000 4.9255 0.0000 0.0000
# 5 0.0000 0.0000 0.0000 0.0000 4.9255 0.0000
# 6 0.0000 0.0000 0.0000 0.0000 0.0000 43.8958
#
#
#
# Elastic Compliance Matrix: (Units=1/GPa)
#
#
# Indices 1 2 3 4 5 6 
#
# 1 0.010711 -0.000680 -0.000498 0.000000 0.000000 0.000000
# 2 -0.000680 0.010711 -0.000498 0.000000 0.000000 0.000000
# 3 -0.000498 -0.000498 0.010882 0.000000 0.000000 0.000000
# 4 0.000000 0.000000 0.000000 0.203026 0.000000 0.000000
# 5 0.000000 0.000000 0.000000 0.000000 0.203026 0.000000
# 6 0.000000 0.000000 0.000000 0.000000 0.000000 0.022781
#
#
# Mechanical properties :
#
#
# Convention : Reuss Voigt Hill
#
# Bulk Modulus (GPa) = 34.54025 34.54902 34.54464
# Shear Modulus (GPa) = 10.54541 28.40939 19.47740
#
# Velocity S-wave (km/s) = 2.02780 3.32831 2.75587
# Velocity P-wave (km/s) = 4.35326 5.31431 4.85761
#
# Compressibility (1/GPa) = 0.02895173
#
# Stress axis : x y z
#
# Youngs Moduli (GPa) = 93.36193 93.36193 91.89324
#
# Poissons Ratio (x) = 0.06345 0.04579
# Poissons Ratio (y) = 0.06345 0.04579
# Poissons Ratio (z) = 0.04652 0.04652
#
# Static dielectric constant tensor:
#      x y z
#    x 1.990680 0.000000 0.000000 
#    y 0.000000 1.990680 0.000000 
#    z 0.000000 0.000000 2.192780 
# 
# From -- ./inp_files/741.got.cif
#   From: 2010.05.17/outbox.cif.g08.bks.cpg/sg170_cif.got.tgz:741.got - 2010.05.20 11:14:30.
