data_PCOD9580742
_publ_section_title
;
Structure prediction by ZEFSAII (Michael W. Deem and Ramdas Pophale) SiO2 
 PCOD9580742
Probable space group: P 62
;
_chemical_formula_sum "Si O2"
_cell_formula_units_Z 36
_cell_length_a 10.939867
_cell_length_b 10.939867
_cell_length_c 14.779236
_cell_angle_alpha 90.000000
_cell_angle_beta 90.000000
_cell_angle_gamma 120.000000
_cell_volume 1531.816348
_symmetry_space_group_name_H-M "P 62"
_symmetry_group_IT_number 171
_symmetry_cell_setting 'hexagonal'
loop_
_space_group_symop_operation_xyz
x,y,z
x-y,x,1/3+z
-y,x-y,2/3+z
-x,-y,z
-x+y,-x,1/3+z
y,-x+y,2/3+z
loop_
_atom_site_type_symbol
_atom_site_label
_atom_site_fract_x
_atom_site_fract_y
_atom_site_fract_z
Si Si1 0.274084 0.944364 0.419780
Si Si2 0.207449 0.957915 0.038818
Si Si3 0.000000 0.500000 0.771108
Si Si4 0.720354 0.299737 0.347498
Si Si5 0.454312 0.716991 0.190951
Si Si6 0.192151 0.967074 0.835419
Si Si7 0.000000 0.500000 0.238177
O O1 0.311881 0.859777 0.347149
O O2 0.371444 0.973396 0.506846
O O3 0.110906 0.842094 0.446312
O O4 0.295856 0.090976 0.383554
O O5 0.364669 0.982246 0.049104
O O6 0.184936 0.046503 0.117918
O O7 0.182473 0.002948 0.939879
O O8 0.864186 0.401252 0.831848
O O9 0.732623 0.343373 0.451792
O O10 0.604909 0.318491 0.292023
O O11 0.866173 0.403643 0.299287
O O12 0.604193 0.727873 0.174341
#
# Coordination Sequence:
#
# PCOD9580742 Si02
#       7
#     6   6   3   6   6   6   3
#     4  12  29  47  78 111 151 204 256 324 387 470
#     4  11  27  49  78 113 152 206 260 322 393 457
#     4  10  24  45  75 106 152 194 258 311 381 464
#     4  12  26  48  75 112 154 201 260 317 391 463
#     4  11  25  47  74 111 151 207 251 319 382 454
#     4  11  28  48  78 108 156 200 262 322 389 463
#     4  12  28  47  77 112 156 196 258 323 391 468
#
# _framework density 23.50151
#
# number of rings (size 3 to 8) (size 9 to 14) (size 15 to 20)
#    0.000    0.667    1.667    3.500   16.333    2.667 
#    0.000    0.000    0.000    0.000    0.000    0.000 
#    0.000    0.000    0.000    0.000    0.000    0.000 
#
# Total GULP energy -201747.411779 kJ/mol
# GULP energy per Si atom -5604.094772 kJ/mol
# Density = 2.344802 g / cm^3
# Si number density = 23.501510 Si / 1000 Ang^3
#
#
#
# Elastic Constant Matrix: (Units=GPa)
#
#
# Indices 1 2 3 4 5 6 
#
# 1 89.3155 23.1770 10.2036 0.0000 0.0000 0.0000
# 2 23.1770 89.3155 10.2036 0.0000 0.0000 0.0000
# 3 10.2036 10.2036 85.8224 0.0000 0.0000 0.0000
# 4 0.0000 0.0000 0.0000 32.7767 0.0000 0.0000
# 5 0.0000 0.0000 0.0000 0.0000 32.7767 0.0000
# 6 0.0000 0.0000 0.0000 0.0000 0.0000 33.0692
#
#
#
# Elastic Compliance Matrix: (Units=1/GPa)
#
#
# Indices 1 2 3 4 5 6 
#
# 1 0.012103 -0.003017 -0.001080 0.000000 0.000000 0.000000
# 2 -0.003017 0.012103 -0.001080 0.000000 0.000000 0.000000
# 3 -0.001080 -0.001080 0.011909 0.000000 0.000000 0.000000
# 4 0.000000 0.000000 0.000000 0.030509 0.000000 0.000000
# 5 0.000000 0.000000 0.000000 0.000000 0.030509 0.000000
# 6 0.000000 0.000000 0.000000 0.000000 0.000000 0.030240
#
#
# Mechanical properties :
#
#
# Convention : Reuss Voigt Hill
#
# Bulk Modulus (GPa) = 38.82143 39.06907 38.94525
# Shear Modulus (GPa) = 34.17308 34.44914 34.31111
#
# Velocity S-wave (km/s) = 3.81738 3.83277 3.82508
# Velocity P-wave (km/s) = 5.99870 6.02054 6.00963
#
# Compressibility (1/GPa) = 0.02575897
#
# Stress axis : x y z
#
# Youngs Moduli (GPa) = 82.62675 82.62675 83.97136
#
# Poissons Ratio (x) = 0.24930 0.09070
# Poissons Ratio (y) = 0.24930 0.09070
# Poissons Ratio (z) = 0.08925 0.08925
#
# Static dielectric constant tensor:
#      x y z
#    x 1.872470 0.000000 0.000000 
#    y 0.000000 1.872470 0.000000 
#    z 0.000000 0.000000 1.871450 
# 
# From -- ./inp_files/4829.got.cif
#   From: 2010.05.17/outbox.cif.g08.bks.cpg/sg171_3_cif.got.tgz:4829.got - 2010.05.20 11:16:09.
