data_PCOD9580051
_publ_section_title
;
Structure prediction by ZEFSAII (Michael W. Deem and Ramdas Pophale) SiO2 
 PCOD9580051
Probable space group: P 61
;
_chemical_formula_sum "Si O2"
_cell_formula_units_Z 48
_cell_length_a 12.173643
_cell_length_b 12.173643
_cell_length_c 16.022908
_cell_angle_alpha 90.000000
_cell_angle_beta 90.000000
_cell_angle_gamma 120.000000
_cell_volume 2056.426037
_symmetry_space_group_name_H-M "P 61"
_symmetry_group_IT_number 169
_symmetry_cell_setting 'hexagonal'
loop_
_space_group_symop_operation_xyz
x,y,z
x-y,x,1/6+z
-y,x-y,1/3+z
-x,-y,1/2+z
-x+y,-x,2/3+z
y,-x+y,5/6+z
loop_
_atom_site_type_symbol
_atom_site_label
_atom_site_fract_x
_atom_site_fract_y
_atom_site_fract_z
Si Si1 0.394486 0.993646 0.605550
Si Si2 0.882273 0.336619 0.645483
Si Si3 0.116166 0.575763 0.725455
Si Si4 0.932022 0.692059 0.016914
Si Si5 0.436166 0.360796 0.174396
Si Si6 0.629008 0.789138 0.143873
Si Si7 0.358918 0.612742 0.336801
Si Si8 0.085934 0.971344 0.396152
O O1 0.262783 0.931189 0.555972
O O2 0.413256 0.882094 0.639684
O O3 0.512049 0.069554 0.543841
O O4 0.391758 0.095045 0.666360
O O5 0.813150 0.216255 0.706731
O O6 0.770211 0.347096 0.601433
O O7 0.989581 0.466271 0.682755
O O8 0.961817 0.310731 0.573970
O O9 0.166561 0.500201 0.782065
O O10 0.235688 0.656206 0.665538
O O11 0.049830 0.636438 0.782856
O O12 0.941967 0.826327 0.032050
O O13 0.937060 0.650625 0.921284
O O14 0.509682 0.290928 0.135993
O O15 0.731547 0.829812 0.068797
O O16 0.059733 0.976562 0.494041
#
# Coordination Sequence:
#
# PCOD9580051 Si02
#       8
#     6   6   6   6   6   6   6   6
#     4  11  23  41  68  97 140 183 232 303 369 441
#     4  11  24  39  69 103 140 180 241 306 365 448
#     4  11  24  41  68 100 136 185 234 298 363 452
#     4  11  21  41  66 101 134 179 237 312 362 432
#     4  10  24  43  64 100 137 180 239 295 370 448
#     4  11  22  40  68 100 134 178 241 302 363 437
#     4  11  25  43  65 101 141 189 234 295 379 444
#     4  12  23  42  70 104 138 184 250 313 375 440
#
# _framework density 23.341467000000002
#
# number of rings (size 3 to 8) (size 9 to 14) (size 15 to 20)
#    0.000    1.000    6.250    0.000    3.500    2.000 
#    0.000    1.250    0.000    0.000    0.000    0.000 
#    0.000    0.000    0.000    0.000    0.000    0.000 
#
# Total GULP energy -267699.949509 kJ/mol
# GULP energy per Si atom -5577.082281 kJ/mol
# Density = 2.328834 g / cm^3
# Si number density = 23.341467 Si / 1000 Ang^3
#
#
#
# Elastic Constant Matrix: (Units=GPa)
#
#
# Indices 1 2 3 4 5 6 
#
# 1 91.7471 21.2149 16.4986 0.0000 0.0000 0.0000
# 2 21.2149 91.7471 16.4986 0.0000 0.0000 0.0000
# 3 16.4986 16.4986 44.4309 0.0000 0.0000 0.0000
# 4 0.0000 0.0000 0.0000 36.1572 0.0000 0.0000
# 5 0.0000 0.0000 0.0000 0.0000 36.1572 0.0000
# 6 0.0000 0.0000 0.0000 0.0000 0.0000 35.2661
#
#
#
# Elastic Compliance Matrix: (Units=1/GPa)
#
#
# Indices 1 2 3 4 5 6 
#
# 1 0.012054 -0.002124 -0.003687 0.000000 0.000000 0.000000
# 2 -0.002124 0.012054 -0.003687 0.000000 0.000000 0.000000
# 3 -0.003687 -0.003687 0.025245 0.000000 0.000000 0.000000
# 4 0.000000 0.000000 0.000000 0.027657 0.000000 0.000000
# 5 0.000000 0.000000 0.000000 0.000000 0.027657 0.000000
# 6 0.000000 0.000000 0.000000 0.000000 0.000000 0.028356
#
#
# Mechanical properties :
#
#
# Convention : Reuss Voigt Hill
#
# Bulk Modulus (GPa) = 32.94276 37.37215 35.15746
# Shear Modulus (GPa) = 30.83788 33.09695 31.96741
#
# Velocity S-wave (km/s) = 3.63872 3.76965 3.70476
# Velocity P-wave (km/s) = 5.63895 5.91547 5.77887
#
# Compressibility (1/GPa) = 0.03035568
#
# Stress axis : x y z
#
# Youngs Moduli (GPa) = 82.96163 82.96163 39.61147
#
# Poissons Ratio (x) = 0.17622 0.14605
# Poissons Ratio (y) = 0.17622 0.14605
# Poissons Ratio (z) = 0.30589 0.30589
#
# Static dielectric constant tensor:
#      x y z
#    x 1.944490 0.000000 0.000000 
#    y 0.000000 1.944490 0.000000 
#    z 0.000000 0.000000 1.983320 
# 
# From -- ./inp_files/1427.got.cif
#   From: 2010.05.17/outbox.cif.g08.bks.cpg/sg169_cif.got.tgz:1427.got - 2010.05.20 11:12:54.
