data_PCOD9580781
_publ_section_title
;
Structure prediction by ZEFSAII (Michael W. Deem and Ramdas Pophale) SiO2 
 PCOD9580781
Probable space group: P 62
;
_chemical_formula_sum "Si O2"
_cell_formula_units_Z 33
_cell_length_a 16.741160
_cell_length_b 16.741160
_cell_length_c 4.781329
_cell_angle_alpha 90.000000
_cell_angle_beta 90.000000
_cell_angle_gamma 120.000000
_cell_volume 1160.513920
_symmetry_space_group_name_H-M "P 62"
_symmetry_group_IT_number 171
_symmetry_cell_setting 'hexagonal'
loop_
_space_group_symop_operation_xyz
x,y,z
x-y,x,1/3+z
-y,x-y,2/3+z
-x,-y,z
-x+y,-x,1/3+z
y,-x+y,2/3+z
loop_
_atom_site_type_symbol
_atom_site_label
_atom_site_fract_x
_atom_site_fract_y
_atom_site_fract_z
Si Si1 0.825525 0.422000 0.507340
Si Si2 0.500000 0.500000 0.579881
Si Si3 0.228416 0.506615 0.972202
Si Si4 0.183360 0.058235 0.535231
Si Si5 0.325673 0.233777 0.305765
Si Si6 0.676321 0.665466 0.821739
O O1 0.916928 0.477930 0.697040
O O2 0.819464 0.461802 0.207372
O O3 0.750089 0.424364 0.711503
O O4 0.971574 0.409187 0.105312
O O5 0.318296 0.516311 0.120044
O O6 0.174723 0.409861 0.806264
O O7 0.232374 0.136755 0.294933
O O8 0.276747 0.056420 0.623179
O O9 0.105228 0.961133 0.412432
O O10 0.361142 0.279820 0.008656
O O11 0.305234 0.299010 0.504469
#
# Coordination Sequence:
#
# PCOD9580781 Si02
#       6
#     6   3   6   6   6   6
#     4  12  28  51  85 123 170 230 295 369 444 547
#     4  12  30  54  88 130 180 244 314 368 472 560
#     4  12  26  51  78 123 172 224 293 367 450 536
#     4  10  26  56  94 133 182 241 315 403 490 586
#     4  11  26  52  79 119 179 227 288 379 465 540
#     4  11  27  52  82 126 178 232 300 373 458 565
#
# _framework density 28.435677999999999
#
# number of rings (size 3 to 8) (size 9 to 14) (size 15 to 20)
#    0.000    0.727    1.818    3.273    0.000   14.545 
#    3.273    6.364    0.000    0.000    0.000    0.000 
#    0.000    0.000    0.000    0.000    0.000    0.000 
#
# Total GULP energy -184402.278362 kJ/mol
# GULP energy per Si atom -5587.947829 kJ/mol
# Density = 2.837096 g / cm^3
# Si number density = 28.435678 Si / 1000 Ang^3
#
#
#
# Elastic Constant Matrix: (Units=GPa)
#
#
# Indices 1 2 3 4 5 6 
#
# 1 179.8943 68.3148 60.4466 0.0000 0.0000 0.0000
# 2 68.3148 179.8943 60.4466 0.0000 0.0000 0.0000
# 3 60.4466 60.4466 177.3384 0.0000 0.0000 0.0000
# 4 0.0000 0.0000 0.0000 47.1773 0.0000 0.0000
# 5 0.0000 0.0000 0.0000 0.0000 47.1773 0.0000
# 6 0.0000 0.0000 0.0000 0.0000 0.0000 55.7898
#
#
#
# Elastic Compliance Matrix: (Units=1/GPa)
#
#
# Indices 1 2 3 4 5 6 
#
# 1 0.006897 -0.002066 -0.001647 0.000000 0.000000 0.000000
# 2 -0.002066 0.006897 -0.001647 0.000000 0.000000 0.000000
# 3 -0.001647 -0.001647 0.006761 0.000000 0.000000 0.000000
# 4 0.000000 0.000000 0.000000 0.021197 0.000000 0.000000
# 5 0.000000 0.000000 0.000000 0.000000 0.021197 0.000000
# 6 0.000000 0.000000 0.000000 0.000000 0.000000 0.017924
#
#
# Mechanical properties :
#
#
# Convention : Reuss Voigt Hill
#
# Bulk Modulus (GPa) = 101.66011 101.72698 101.69355
# Shear Modulus (GPa) = 52.70426 53.22348 52.96387
#
# Velocity S-wave (km/s) = 4.30985 4.33103 4.32045
# Velocity P-wave (km/s) = 7.78427 7.80144 7.79286
#
# Compressibility (1/GPa) = 0.00983670
#
# Stress axis : x y z
#
# Youngs Moduli (GPa) = 145.00016 145.00016 147.89723
#
# Poissons Ratio (x) = 0.29952 0.24353
# Poissons Ratio (y) = 0.29952 0.24353
# Poissons Ratio (z) = 0.23876 0.23876
#
# Static dielectric constant tensor:
#      x y z
#    x 2.431210 0.000000 0.000000 
#    y 0.000000 2.431210 0.000000 
#    z 0.000000 0.000000 2.129210 
# 
# From -- ./inp_files/377.got.cif
#   From: 2010.05.17/outbox.cif.g08.bks.cpg/sg171_1_cif.got.tgz:377.got - 2010.05.20 11:16:09.
