data_PCOD9580391
_publ_section_title
;
Structure prediction by ZEFSAII (Michael W. Deem and Ramdas Pophale) SiO2 
 PCOD9580391
Probable space group: P 65
;
_chemical_formula_sum "Si O2"
_cell_formula_units_Z 24
_cell_length_a 11.803422
_cell_length_b 11.803422
_cell_length_c 9.830392
_cell_angle_alpha 90.000000
_cell_angle_beta 90.000000
_cell_angle_gamma 120.000000
_cell_volume 1186.089160
_symmetry_space_group_name_H-M "P 65"
_symmetry_group_IT_number 170
_symmetry_cell_setting 'hexagonal'
loop_
_space_group_symop_operation_xyz
x,y,z
x-y,x,5/6+z
-y,x-y,2/3+z
-x,-y,1/2+z
-x+y,-x,1/3+z
y,-x+y,1/6+z
loop_
_atom_site_type_symbol
_atom_site_label
_atom_site_fract_x
_atom_site_fract_y
_atom_site_fract_z
Si Si1 0.931238 0.430728 0.295570
Si Si2 0.890320 0.152546 0.704342
Si Si3 0.499382 0.775491 0.353663
Si Si4 0.649756 0.090920 0.879121
O O1 0.843217 0.477337 0.214801
O O2 0.833418 0.294181 0.369785
O O3 0.987722 0.531563 0.423893
O O4 0.026161 0.419008 0.191390
O O5 0.875606 0.263670 0.622957
O O6 0.787033 0.114502 0.827485
O O7 0.030894 0.196028 0.766705
O O8 0.366803 0.780811 0.380577
#
# Coordination Sequence:
#
# PCOD9580391 Si02
#       4
#     6   6   6   6
#     4   9  19  37  60  94 128 163 207 265 336 386
#     4  11  24  47  64  90 140 181 221 267 323 398
#     4   9  19  38  66  96 128 167 206 277 339 386
#     4   9  20  40  64  96 128 165 216 269 334 380
#
# _framework density 20.234567999999999
#
# number of rings (size 3 to 8) (size 9 to 14) (size 15 to 20)
#    1.500    1.000    0.000    3.000    0.000    2.000 
#   13.500    0.000    0.000    0.000    0.000    0.000 
#    0.000    0.000    0.000    0.000    0.000    0.000 
#
# Total GULP energy -133610.805629 kJ/mol
# GULP energy per Si atom -5567.116901 kJ/mol
# Density = 2.018851 g / cm^3
# Si number density = 20.234568 Si / 1000 Ang^3
#
#
#
# Elastic Constant Matrix: (Units=GPa)
#
#
# Indices 1 2 3 4 5 6 
#
# 1 34.2731 8.2760 4.4192 0.0000 0.0000 0.0000
# 2 8.2760 34.2731 4.4192 0.0000 0.0000 0.0000
# 3 4.4192 4.4192 58.1425 0.0000 0.0000 0.0000
# 4 0.0000 0.0000 0.0000 21.3649 0.0000 0.0000
# 5 0.0000 0.0000 0.0000 0.0000 21.3649 0.0000
# 6 0.0000 0.0000 0.0000 0.0000 0.0000 12.9986
#
#
#
# Elastic Compliance Matrix: (Units=1/GPa)
#
#
# Indices 1 2 3 4 5 6 
#
# 1 0.031173 -0.007293 -0.001815 0.000000 0.000000 0.000000
# 2 -0.007293 0.031173 -0.001815 0.000000 0.000000 0.000000
# 3 -0.001815 -0.001815 0.017475 0.000000 0.000000 0.000000
# 4 0.000000 0.000000 0.000000 0.046806 0.000000 0.000000
# 5 0.000000 0.000000 0.000000 0.000000 0.046806 0.000000
# 6 0.000000 0.000000 0.000000 0.000000 0.000000 0.076932
#
#
# Mechanical properties :
#
#
# Convention : Reuss Voigt Hill
#
# Bulk Modulus (GPa) = 17.24919 17.87969 17.56444
# Shear Modulus (GPa) = 17.15067 18.45065 17.80066
#
# Velocity S-wave (km/s) = 2.91450 3.02294 2.96922
# Velocity P-wave (km/s) = 4.45745 4.58690 4.52264
#
# Compressibility (1/GPa) = 0.05797373
#
# Stress axis : x y z
#
# Youngs Moduli (GPa) = 32.07955 32.07955 57.22451
#
# Poissons Ratio (x) = 0.23396 0.10386
# Poissons Ratio (y) = 0.23396 0.10386
# Poissons Ratio (z) = 0.05822 0.05822
#
# Static dielectric constant tensor:
#      x y z
#    x 1.750180 0.000000 0.000000 
#    y 0.000000 1.750180 0.000000 
#    z 0.000000 0.000000 1.751540 
# 
# From -- ./inp_files/449.got.cif
#   From: 2010.05.17/outbox.cif.g08.bks.cpg/sg170_cif.got.tgz:449.got - 2010.05.20 11:14:30.
