data_PCOD9580795
_publ_section_title
;
Structure prediction by ZEFSAII (Michael W. Deem and Ramdas Pophale) SiO2 
 PCOD9580795
Probable space group: P 62
;
_chemical_formula_sum "Si O2"
_cell_formula_units_Z 42
_cell_length_a 12.845828
_cell_length_b 12.845828
_cell_length_c 15.243986
_cell_angle_alpha 90.000000
_cell_angle_beta 90.000000
_cell_angle_gamma 120.000000
_cell_volume 2178.479003
_symmetry_space_group_name_H-M "P 62"
_symmetry_group_IT_number 171
_symmetry_cell_setting 'hexagonal'
loop_
_space_group_symop_operation_xyz
x,y,z
x-y,x,1/3+z
-y,x-y,2/3+z
-x,-y,z
-x+y,-x,1/3+z
y,-x+y,2/3+z
loop_
_atom_site_type_symbol
_atom_site_label
_atom_site_fract_x
_atom_site_fract_y
_atom_site_fract_z
Si Si1 0.461299 0.361976 0.171520
Si Si2 0.615639 0.635666 0.357517
Si Si3 0.618033 0.628122 0.857129
Si Si4 0.757785 0.151421 0.201512
Si Si5 0.667722 0.378118 0.601438
Si Si6 0.367434 0.410652 0.653731
Si Si7 0.448135 0.250231 0.998238
O O1 0.500000 0.500000 0.170417
O O2 0.383326 0.314558 0.260074
O O3 0.570762 0.338015 0.191620
O O4 0.414882 0.312450 0.075817
O O5 0.500000 0.500000 0.365555
O O6 0.615511 0.717636 0.436300
O O7 0.726905 0.613882 0.359643
O O8 0.500000 0.500000 0.883345
O O9 0.748144 0.645076 0.880171
O O10 0.618462 0.626201 0.751526
O O11 0.596314 0.725825 0.905883
O O12 0.692873 0.226712 0.230290
O O13 0.706314 0.029803 0.260016
O O14 0.683183 0.496886 0.651369
O O15 0.697256 0.289206 0.656405
O O16 0.500000 0.500000 0.616113
#
# Coordination Sequence:
#
# PCOD9580795 Si02
#       7
#     6   6   6   6   6   6   6
#     4  11  23  35  56  91 126 171 212 243 332 389
#     4  11  22  41  60  94 129 169 223 263 325 402
#     4  11  23  38  58  92 134 173 210 267 340 397
#     4  11  22  39  66  89 132 172 222 262 325 400
#     4  11  21  38  64  89 133 173 205 273 319 401
#     4   9  21  37  57  92 120 170 218 254 318 388
#     4  12  24  39  60  94 138 172 209 273 337 399
#
# _framework density 19.279506000000001
#
# number of rings (size 3 to 8) (size 9 to 14) (size 15 to 20)
#    0.000    1.143    4.286    4.286    2.000    2.286 
#    0.000    0.000    0.000    0.000    0.000   19.000 
#    0.000    0.000    0.000    0.000    0.000    0.000 
#
# Total GULP energy -234042.336454 kJ/mol
# GULP energy per Si atom -5572.436582 kJ/mol
# Density = 1.923563 g / cm^3
# Si number density = 19.279506 Si / 1000 Ang^3
#
#
#
# Elastic Constant Matrix: (Units=GPa)
#
#
# Indices 1 2 3 4 5 6 
#
# 1 76.7856 26.7818 26.2618 0.0000 0.0000 0.0000
# 2 26.7818 76.7856 26.2618 0.0000 0.0000 0.0000
# 3 26.2618 26.2618 91.0081 0.0000 0.0000 0.0000
# 4 0.0000 0.0000 0.0000 26.8183 0.0000 0.0000
# 5 0.0000 0.0000 0.0000 0.0000 26.8183 0.0000
# 6 0.0000 0.0000 0.0000 0.0000 0.0000 25.0019
#
#
#
# Elastic Compliance Matrix: (Units=1/GPa)
#
#
# Indices 1 2 3 4 5 6 
#
# 1 0.015655 -0.004344 -0.003264 0.000000 0.000000 0.000000
# 2 -0.004344 0.015655 -0.003264 0.000000 0.000000 0.000000
# 3 -0.003264 -0.003264 0.012872 0.000000 0.000000 0.000000
# 4 0.000000 0.000000 0.000000 0.037288 0.000000 0.000000
# 5 0.000000 0.000000 0.000000 0.000000 0.037288 0.000000
# 6 0.000000 0.000000 0.000000 0.000000 0.000000 0.039997
#
#
# Mechanical properties :
#
#
# Convention : Reuss Voigt Hill
#
# Bulk Modulus (GPa) = 44.56779 44.79891 44.68335
# Shear Modulus (GPa) = 26.59904 26.74593 26.67249
#
# Velocity S-wave (km/s) = 3.71840 3.72865 3.72353
# Velocity P-wave (km/s) = 6.44997 6.46716 6.45857
#
# Compressibility (1/GPa) = 0.02243773
#
# Stress axis : x y z
#
# Youngs Moduli (GPa) = 63.87875 63.87875 77.68957
#
# Poissons Ratio (x) = 0.27748 0.25357
# Poissons Ratio (y) = 0.27748 0.25357
# Poissons Ratio (z) = 0.20849 0.20849
#
# Static dielectric constant tensor:
#      x y z
#    x 1.695260 0.000000 0.000000 
#    y 0.000000 1.695260 0.000000 
#    z 0.000000 0.000000 1.707360 
# 
# From -- ./inp_files/2472.got.cif
#   From: 2010.05.17/outbox.cif.g08.bks.cpg/sg171_2_cif.got.tgz:2472.got - 2010.05.20 11:16:09.
