data_PCOD9580200
_publ_section_title
;
Structure prediction by ZEFSAII (Michael W. Deem and Ramdas Pophale) SiO2 
 PCOD9580200
Probable space group: P 65
;
_chemical_formula_sum "Si O2"
_cell_formula_units_Z 36
_cell_length_a 14.974792
_cell_length_b 14.974792
_cell_length_c 9.133311
_cell_angle_alpha 90.000000
_cell_angle_beta 90.000000
_cell_angle_gamma 120.000000
_cell_volume 1773.701263
_symmetry_space_group_name_H-M "P 65"
_symmetry_group_IT_number 170
_symmetry_cell_setting 'hexagonal'
loop_
_space_group_symop_operation_xyz
x,y,z
x-y,x,5/6+z
-y,x-y,2/3+z
-x,-y,1/2+z
-x+y,-x,1/3+z
y,-x+y,1/6+z
loop_
_atom_site_type_symbol
_atom_site_label
_atom_site_fract_x
_atom_site_fract_y
_atom_site_fract_z
Si Si1 0.894247 0.410117 0.898970
Si Si2 0.825007 0.813198 0.599988
Si Si3 0.381359 0.190997 0.385153
Si Si4 0.407387 0.318854 0.112191
Si Si5 0.277131 0.748443 0.824696
Si Si6 0.247336 0.692351 0.136149
O O1 0.015234 0.453633 0.907933
O O2 0.839839 0.395186 0.739490
O O3 0.850947 0.295355 0.960184
O O4 0.853238 0.466407 0.006251
O O5 0.834675 0.918035 0.657638
O O6 0.833904 0.736345 0.718682
O O7 0.707260 0.746140 0.542646
O O8 0.388908 0.283954 0.284036
O O9 0.440806 0.220575 0.537729
O O10 0.482758 0.282920 0.048090
O O11 0.312347 0.664957 0.778884
O O12 0.214647 0.703266 0.973222
#
# Coordination Sequence:
#
# PCOD9580200 Si02
#       6
#     6   6   6   6   6   6
#     4  10  19  37  58  80 118 167 208 248 306 372
#     4   9  18  39  66  87 113 156 201 251 314 383
#     4   9  19  37  59  86 121 159 207 256 303 372
#     4   9  21  38  60  86 118 161 213 256 299 373
#     4  12  21  36  56  86 124 165 205 254 309 372
#     4  11  22  37  57  87 122 160 208 253 313 372
#
# _framework density 20.296541000000001
#
# number of rings (size 3 to 8) (size 9 to 14) (size 15 to 20)
#    0.000    2.000    3.333    1.000    2.333    1.333 
#    3.000    1.667    0.000    0.000    0.000    0.000 
#    0.000    0.000    0.000    0.000    0.000    0.000 
#
# Total GULP energy -200547.814131 kJ/mol
# GULP energy per Si atom -5570.772615 kJ/mol
# Density = 2.025035 g / cm^3
# Si number density = 20.296541 Si / 1000 Ang^3
#
#
#
# Elastic Constant Matrix: (Units=GPa)
#
#
# Indices 1 2 3 4 5 6 
#
# 1 77.8663 9.7456 -0.4616 0.0000 0.0000 0.0000
# 2 9.7456 77.8663 -0.4616 0.0000 0.0000 0.0000
# 3 -0.4616 -0.4616 63.2336 0.0000 0.0000 0.0000
# 4 0.0000 0.0000 0.0000 19.7108 0.0000 0.0000
# 5 0.0000 0.0000 0.0000 0.0000 19.7108 0.0000
# 6 0.0000 0.0000 0.0000 0.0000 0.0000 34.0603
#
#
#
# Elastic Compliance Matrix: (Units=1/GPa)
#
#
# Indices 1 2 3 4 5 6 
#
# 1 0.013047 -0.001632 0.000083 0.000000 0.000000 0.000000
# 2 -0.001632 0.013047 0.000083 0.000000 0.000000 0.000000
# 3 0.000083 0.000083 0.015816 0.000000 0.000000 0.000000
# 4 0.000000 0.000000 0.000000 0.050734 0.000000 0.000000
# 5 0.000000 0.000000 0.000000 0.000000 0.050734 0.000000
# 6 0.000000 0.000000 0.000000 0.000000 0.000000 0.029360
#
#
# Mechanical properties :
#
#
# Convention : Reuss Voigt Hill
#
# Bulk Modulus (GPa) = 25.65512 26.29013 25.97262
# Shear Modulus (GPa) = 26.50244 28.70595 27.60420
#
# Velocity S-wave (km/s) = 3.61745 3.76483 3.69188
# Velocity P-wave (km/s) = 5.48776 5.64622 5.56755
#
# Compressibility (1/GPa) = 0.03897858
#
# Stress axis : x y z
#
# Youngs Moduli (GPa) = 76.64394 76.64394 63.22878
#
# Poissons Ratio (x) = 0.12512 -0.00527
# Poissons Ratio (y) = 0.12512 -0.00527
# Poissons Ratio (z) = -0.00639 -0.00639
#
# Static dielectric constant tensor:
#      x y z
#    x 1.762500 0.000000 0.000000 
#    y 0.000000 1.762500 0.000000 
#    z 0.000000 0.000000 1.778880 
# 
# From -- ./inp_files/571.got.cif
#   From: 2010.05.17/outbox.cif.g08.bks.cpg/sg170_cif.got.tgz:571.got - 2010.05.20 11:14:30.
