data_PCOD9580787
_publ_section_title
;
Structure prediction by ZEFSAII (Michael W. Deem and Ramdas Pophale) SiO2 
 PCOD9580787
Probable space group: P 62
;
_chemical_formula_sum "Si O2"
_cell_formula_units_Z 36
_cell_length_a 18.590165
_cell_length_b 18.590165
_cell_length_c 7.274561
_cell_angle_alpha 90.000000
_cell_angle_beta 90.000000
_cell_angle_gamma 120.000000
_cell_volume 2177.227998
_symmetry_space_group_name_H-M "P 62"
_symmetry_group_IT_number 171
_symmetry_cell_setting 'hexagonal'
loop_
_space_group_symop_operation_xyz
x,y,z
x-y,x,1/3+z
-y,x-y,2/3+z
-x,-y,z
-x+y,-x,1/3+z
y,-x+y,2/3+z
loop_
_atom_site_type_symbol
_atom_site_label
_atom_site_fract_x
_atom_site_fract_y
_atom_site_fract_z
Si Si1 0.382983 0.488081 0.291750
Si Si2 0.636963 0.068389 0.938079
Si Si3 0.257221 0.794957 0.191120
Si Si4 0.269150 0.647837 0.724251
Si Si5 0.473141 0.098235 0.517513
Si Si6 0.092552 0.456177 0.167946
O O1 0.476900 0.562310 0.327919
O O2 0.372953 0.399384 0.336493
O O3 0.330339 0.525797 0.381426
O O4 0.377994 0.481339 0.071895
O O5 0.648548 0.087949 0.720411
O O6 0.717359 0.131800 0.046243
O O7 0.318654 0.758171 0.155911
O O8 0.167203 0.718781 0.146967
O O9 0.283144 0.841528 0.388695
O O10 0.288339 0.634760 0.513995
O O11 0.564532 0.116138 0.459845
O O12 0.407646 0.005532 0.450341
#
# Coordination Sequence:
#
# PCOD9580787 Si02
#       6
#     6   6   6   6   6   6
#     4   8  16  31  45  58  86 122 152 190 245 291
#     4   8  17  32  46  62  84 115 156 197 235 287
#     4  11  20  29  48  69  83 114 162 200 240 285
#     4  11  22  31  42  65  95 123 162 216 260 289
#     4   9  18  32  49  66  88 123 160 198 243 288
#     4   9  19  36  48  61  94 125 152 198 249 289
#
# _framework density 16.534787999999999
#
# number of rings (size 3 to 8) (size 9 to 14) (size 15 to 20)
#    0.000    2.667    0.000    4.000    0.000   13.333 
#    0.000    5.000    0.000    0.000    0.000    0.000 
#    0.000    0.000    0.000    0.000    0.000   33.333 
#
# Total GULP energy -200477.687269 kJ/mol
# GULP energy per Si atom -5568.824646 kJ/mol
# Density = 1.649715 g / cm^3
# Si number density = 16.534788 Si / 1000 Ang^3
#
#
#
# Elastic Constant Matrix: (Units=GPa)
#
#
# Indices 1 2 3 4 5 6 
#
# 1 80.0843 32.1119 24.1139 0.0000 0.0000 0.0000
# 2 32.1119 80.0843 24.1139 0.0000 0.0000 0.0000
# 3 24.1139 24.1139 67.0553 0.0000 0.0000 0.0000
# 4 0.0000 0.0000 0.0000 -0.6494 0.0000 0.0000
# 5 0.0000 0.0000 0.0000 0.0000 -0.6494 0.0000
# 6 0.0000 0.0000 0.0000 0.0000 0.0000 23.9862
#
#
#
# Elastic Compliance Matrix: (Units=1/GPa)
#
#
# Indices 1 2 3 4 5 6 
#
# 1 0.015694 -0.005151 -0.003791 0.000000 0.000000 0.000000
# 2 -0.005151 0.015694 -0.003791 0.000000 0.000000 0.000000
# 3 -0.003791 -0.003791 0.017640 0.000000 0.000000 0.000000
# 4 0.000000 0.000000 0.000000 -1.539809 0.000000 0.000000
# 5 0.000000 0.000000 0.000000 0.000000 -1.539810 0.000000
# 6 0.000000 0.000000 0.000000 0.000000 0.000000 0.041691
#
#
# Mechanical properties :
#
#
# Convention : Reuss Voigt Hill
#
# Bulk Modulus (GPa) = 42.44468 43.10035 42.77252
# Shear Modulus (GPa) = -1.69172 14.32977 6.31903
#
# Velocity S-wave (km/s) = -1.01259 2.94707 1.95703
# Velocity P-wave (km/s) = 4.93544 6.14031 5.57054
#
# Compressibility (1/GPa) = 0.02356008
#
# Stress axis : x y z
#
# Youngs Moduli (GPa) = 63.71877 63.71877 56.68993
#
# Poissons Ratio (x) = 0.32824 0.21493
# Poissons Ratio (y) = 0.32824 0.21493
# Poissons Ratio (z) = 0.24157 0.24157
#
# Static dielectric constant tensor:
#      x y z
#    x 1.626970 0.000000 0.000000 
#    y 0.000000 1.626970 0.000000 
#    z 0.000000 0.000000 1.650810 
# 
# From -- ./inp_files/723.got.cif
#   From: 2010.05.17/outbox.cif.g08.bks.cpg/sg171_1_cif.got.tgz:723.got - 2010.05.20 11:16:09.
