data_PCOD9580879
_publ_section_title
;
Structure prediction by ZEFSAII (Michael W. Deem and Ramdas Pophale) SiO2 
 PCOD9580879
Probable space group: P 62
;
_chemical_formula_sum "Si O2"
_cell_formula_units_Z 24
_cell_length_a 9.414623
_cell_length_b 9.414623
_cell_length_c 13.291901
_cell_angle_alpha 90.000000
_cell_angle_beta 90.000000
_cell_angle_gamma 120.000000
_cell_volume 1020.289923
_symmetry_space_group_name_H-M "P 62"
_symmetry_group_IT_number 171
_symmetry_cell_setting 'hexagonal'
loop_
_space_group_symop_operation_xyz
x,y,z
x-y,x,1/3+z
-y,x-y,2/3+z
-x,-y,z
-x+y,-x,1/3+z
y,-x+y,2/3+z
loop_
_atom_site_type_symbol
_atom_site_label
_atom_site_fract_x
_atom_site_fract_y
_atom_site_fract_z
Si Si1 0.722447 0.399961 0.364780
Si Si2 0.186345 0.901255 0.573241
Si Si3 0.762609 0.175649 0.909730
Si Si4 0.224556 0.910312 0.350144
O O1 0.840025 0.535856 0.284937
O O2 0.770914 0.484057 0.473560
O O3 0.537876 0.343727 0.331330
O O4 0.744762 0.242396 0.357497
O O5 0.242920 0.977186 0.463014
O O6 0.006440 0.741664 0.567074
O O7 0.196596 0.039492 0.646768
O O8 0.950624 0.293731 0.940454
#
# Coordination Sequence:
#
# PCOD9580879 Si02
#       4
#     6   6   6   6
#     4  12  27  51  79 116 158 202 264 322 394 462
#     4  12  27  51  79 114 160 204 261 324 393 461
#     4  12  29  50  80 118 157 208 261 323 392 473
#     4  12  29  50  80 116 157 208 260 327 391 470
#
# _framework density 23.522725000000001
#
# number of rings (size 3 to 8) (size 9 to 14) (size 15 to 20)
#    0.000    0.000    5.000    3.000    7.000    6.000 
#    0.000    0.000    0.000    0.000    0.000    0.000 
#    0.000    0.000    0.000    0.000    0.000    0.000 
#
# Total GULP energy -134615.008770 kJ/mol
# GULP energy per Si atom -5608.958699 kJ/mol
# Density = 2.346919 g / cm^3
# Si number density = 23.522725 Si / 1000 Ang^3
#
#
#
# Elastic Constant Matrix: (Units=GPa)
#
#
# Indices 1 2 3 4 5 6 
#
# 1 101.7157 33.0239 39.0923 0.0000 0.0000 0.0000
# 2 33.0239 101.7157 39.0923 0.0000 0.0000 0.0000
# 3 39.0923 39.0923 111.2889 0.0000 0.0000 0.0000
# 4 0.0000 0.0000 0.0000 34.3553 0.0000 0.0000
# 5 0.0000 0.0000 0.0000 0.0000 34.3553 0.0000
# 6 0.0000 0.0000 0.0000 0.0000 0.0000 34.3459
#
#
#
# Elastic Compliance Matrix: (Units=1/GPa)
#
#
# Indices 1 2 3 4 5 6 
#
# 1 0.011940 -0.002618 -0.003274 0.000000 0.000000 0.000000
# 2 -0.002618 0.011940 -0.003274 0.000000 0.000000 0.000000
# 3 -0.003274 -0.003274 0.011286 0.000000 0.000000 0.000000
# 4 0.000000 0.000000 0.000000 0.029108 0.000000 0.000000
# 5 0.000000 0.000000 0.000000 0.000000 0.029108 0.000000
# 6 0.000000 0.000000 0.000000 0.000000 0.000000 0.029116
#
#
# Mechanical properties :
#
#
# Convention : Reuss Voigt Hill
#
# Bulk Modulus (GPa) = 59.41136 59.68192 59.54664
# Shear Modulus (GPa) = 34.14349 34.17873 34.16111
#
# Velocity S-wave (km/s) = 3.81400 3.81597 3.81499
# Velocity P-wave (km/s) = 6.68635 6.69646 6.69141
#
# Compressibility (1/GPa) = 0.01683180
#
# Stress axis : x y z
#
# Youngs Moduli (GPa) = 83.75367 83.75367 88.60501
#
# Poissons Ratio (x) = 0.21927 0.29013
# Poissons Ratio (y) = 0.21927 0.29013
# Poissons Ratio (z) = 0.27425 0.27425
#
# Static dielectric constant tensor:
#      x y z
#    x 1.884570 0.000000 0.000000 
#    y 0.000000 1.884570 0.000000 
#    z 0.000000 0.000000 1.847920 
# 
# From -- ./inp_files/2770.got.cif
#   From: 2010.05.17/outbox.cif.g08.bks.cpg/sg171_2_cif.got.tgz:2770.got - 2010.05.20 11:16:09.
