data_PCOD9580317
_publ_section_title
;
Structure prediction by ZEFSAII (Michael W. Deem and Ramdas Pophale) SiO2 
 PCOD9580317
Probable space group: P 65
;
_chemical_formula_sum "Si O2"
_cell_formula_units_Z 42
_cell_length_a 8.620715
_cell_length_b 8.620715
_cell_length_c 26.621750
_cell_angle_alpha 90.000000
_cell_angle_beta 90.000000
_cell_angle_gamma 120.000000
_cell_volume 1713.380452
_symmetry_space_group_name_H-M "P 65"
_symmetry_group_IT_number 170
_symmetry_cell_setting 'hexagonal'
loop_
_space_group_symop_operation_xyz
x,y,z
x-y,x,5/6+z
-y,x-y,2/3+z
-x,-y,1/2+z
-x+y,-x,1/3+z
y,-x+y,1/6+z
loop_
_atom_site_type_symbol
_atom_site_label
_atom_site_fract_x
_atom_site_fract_y
_atom_site_fract_z
Si Si1 0.883155 0.257767 0.606190
Si Si2 0.109985 0.021420 0.025073
Si Si3 0.444384 0.552465 0.913710
Si Si4 0.221593 0.824948 0.335252
Si Si5 0.863113 0.452553 0.034497
Si Si6 0.302412 0.555639 0.395070
Si Si7 0.284193 0.090044 0.633897
O O1 0.924522 0.211970 0.660033
O O2 0.693455 0.252281 0.604014
O O3 0.024788 0.448306 0.584016
O O4 0.896965 0.113956 0.568103
O O5 0.123503 0.213837 0.032137
O O6 0.944067 0.910819 0.986557
O O7 0.403735 0.684877 0.883976
O O8 0.272622 0.417448 0.947835
O O9 0.492258 0.941538 0.041582
O O10 0.607922 0.672782 0.953099
O O11 0.243399 0.673813 0.364746
O O12 0.417859 0.002303 0.333869
O O13 0.813032 0.587426 0.008650
O O14 0.148998 0.366622 0.417380
#
# Coordination Sequence:
#
# PCOD9580317 Si02
#       7
#     6   6   6   6   6   6   6
#     4  10  23  42  67  97 138 186 236 294 363 431
#     4  11  23  42  72 102 138 183 240 299 361 435
#     4  10  23  45  66  99 138 187 227 294 361 423
#     4  11  24  44  69 104 134 187 238 288 370 431
#     4  10  24  43  67  98 139 180 236 294 354 436
#     4   9  22  45  62 101 132 185 229 291 358 431
#     4   9  23  45  63 101 135 182 232 290 363 413
#
# _framework density 24.512947
#
# number of rings (size 3 to 8) (size 9 to 14) (size 15 to 20)
#    0.857    1.143    1.429    0.000    8.000    6.857 
#    5.143    0.000    0.000    0.000    0.000    0.000 
#    0.000    0.000    0.000    0.000    0.000    0.000 
#
# Total GULP energy -234153.401792 kJ/mol
# GULP energy per Si atom -5575.080995 kJ/mol
# Density = 2.445715 g / cm^3
# Si number density = 24.512947 Si / 1000 Ang^3
#
#
#
# Elastic Constant Matrix: (Units=GPa)
#
#
# Indices 1 2 3 4 5 6 
#
# 1 109.4008 25.5970 20.7567 0.0000 0.0000 0.0000
# 2 25.5970 109.4008 20.7567 0.0000 0.0000 0.0000
# 3 20.7567 20.7567 43.5468 0.0000 0.0000 0.0000
# 4 0.0000 0.0000 0.0000 38.0819 0.0000 0.0000
# 5 0.0000 0.0000 0.0000 0.0000 38.0819 0.0000
# 6 0.0000 0.0000 0.0000 0.0000 0.0000 41.9019
#
#
#
# Elastic Compliance Matrix: (Units=1/GPa)
#
#
# Indices 1 2 3 4 5 6 
#
# 1 0.010306 -0.001626 -0.004137 0.000000 0.000000 0.000000
# 2 -0.001626 0.010306 -0.004137 0.000000 0.000000 0.000000
# 3 -0.004137 -0.004137 0.026908 0.000000 0.000000 0.000000
# 4 0.000000 0.000000 0.000000 0.026259 0.000000 0.000000
# 5 0.000000 0.000000 0.000000 0.000000 0.026259 0.000000
# 6 0.000000 0.000000 0.000000 0.000000 0.000000 0.023865
#
#
# Mechanical properties :
#
#
# Convention : Reuss Voigt Hill
#
# Bulk Modulus (GPa) = 36.07704 44.06323 40.07013
# Shear Modulus (GPa) = 32.69144 36.62900 34.66022
#
# Velocity S-wave (km/s) = 3.65587 3.86977 3.76434
# Velocity P-wave (km/s) = 5.70701 6.16290 5.93933
#
# Compressibility (1/GPa) = 0.02771846
#
# Stress axis : x y z
#
# Youngs Moduli (GPa) = 97.02896 97.02896 37.16388
#
# Poissons Ratio (x) = 0.15781 0.15376
# Poissons Ratio (y) = 0.15781 0.15376
# Poissons Ratio (z) = 0.40143 0.40143
#
# Static dielectric constant tensor:
#      x y z
#    x 1.987540 0.000000 0.000000 
#    y 0.000000 1.987540 0.000000 
#    z 0.000000 0.000000 2.025890 
# 
# From -- ./inp_files/1944.got.cif
#   From: 2010.05.17/outbox.cif.g08.bks.cpg/sg170_cif.got.tgz:1944.got - 2010.05.20 11:14:30.
