data_PCOD9580807
_publ_section_title
;
Structure prediction by ZEFSAII (Michael W. Deem and Ramdas Pophale) SiO2 
 PCOD9580807
Probable space group: P 62
;
_chemical_formula_sum "Si O2"
_cell_formula_units_Z 42
_cell_length_a 18.077657
_cell_length_b 18.077657
_cell_length_c 7.237185
_cell_angle_alpha 90.000000
_cell_angle_beta 90.000000
_cell_angle_gamma 120.000000
_cell_volume 2048.257671
_symmetry_space_group_name_H-M "P 62"
_symmetry_group_IT_number 171
_symmetry_cell_setting 'hexagonal'
loop_
_space_group_symop_operation_xyz
x,y,z
x-y,x,1/3+z
-y,x-y,2/3+z
-x,-y,z
-x+y,-x,1/3+z
y,-x+y,2/3+z
loop_
_atom_site_type_symbol
_atom_site_label
_atom_site_fract_x
_atom_site_fract_y
_atom_site_fract_z
Si Si1 0.522856 0.594140 0.861600
Si Si2 0.852270 0.182450 0.369860
Si Si3 0.994715 0.577619 0.778329
Si Si4 0.618228 0.763966 0.309748
Si Si5 0.246182 0.949440 0.648007
Si Si6 0.609977 0.335386 0.842561
Si Si7 0.467276 0.183822 0.026129
O O1 0.500000 0.500000 0.932308
O O2 0.548168 0.592571 0.648354
O O3 0.609290 0.669888 0.950907
O O4 0.447158 0.618059 0.866414
O O5 0.809974 0.089725 0.464853
O O6 0.829356 0.234676 0.518992
O O7 0.953144 0.229326 0.348629
O O8 0.811907 0.176643 0.169811
O O9 0.931636 0.601911 0.680969
O O10 0.000000 0.500000 0.687970
O O11 0.091456 0.653486 0.774722
O O12 0.542890 0.764750 0.196049
O O13 0.695226 0.802784 0.160368
O O14 0.617782 0.314610 0.629243
O O15 0.559639 0.242563 0.941453
#
# Coordination Sequence:
#
# PCOD9580807 Si02
#       7
#     6   6   6   6   6   6   6
#     4  11  25  45  67  98 130 185 244 287 351 417
#     4  11  23  42  68 100 140 169 227 289 346 417
#     4  11  24  42  69  98 130 182 235 283 349 420
#     4  11  22  40  70  92 136 168 226 284 344 403
#     4  11  23  42  66 103 131 178 226 284 353 408
#     4  12  30  48  67  99 143 191 240 297 368 418
#     4  11  25  45  65 100 134 183 233 289 353 412
#
# _framework density 20.505234000000002
#
# number of rings (size 3 to 8) (size 9 to 14) (size 15 to 20)
#    0.000    0.857    5.714    0.857    8.000    1.714 
#    0.000    0.000    0.000    0.000    0.000    5.000 
#    0.000    0.000    0.000    0.000    0.000    0.000 
#
# Total GULP energy -234583.455419 kJ/mol
# GULP energy per Si atom -5585.320367 kJ/mol
# Density = 2.045856 g / cm^3
# Si number density = 20.505234 Si / 1000 Ang^3
#
#
#
# Elastic Constant Matrix: (Units=GPa)
#
#
# Indices 1 2 3 4 5 6 
#
# 1 73.5781 31.0817 15.4846 0.0000 0.0000 0.0000
# 2 31.0817 73.5781 15.4846 0.0000 0.0000 0.0000
# 3 15.4846 15.4846 130.2701 0.0000 0.0000 0.0000
# 4 0.0000 0.0000 0.0000 22.4514 0.0000 0.0000
# 5 0.0000 0.0000 0.0000 0.0000 22.4514 0.0000
# 6 0.0000 0.0000 0.0000 0.0000 0.0000 21.2482
#
#
#
# Elastic Compliance Matrix: (Units=1/GPa)
#
#
# Indices 1 2 3 4 5 6 
#
# 1 0.016717 -0.006814 -0.001177 0.000000 0.000000 0.000000
# 2 -0.006814 0.016717 -0.001177 0.000000 0.000000 0.000000
# 3 -0.001177 -0.001177 0.007956 0.000000 0.000000 0.000000
# 4 0.000000 0.000000 0.000000 0.044541 0.000000 0.000000
# 5 0.000000 0.000000 0.000000 0.000000 0.044541 0.000000
# 6 0.000000 0.000000 0.000000 0.000000 0.000000 0.047063
#
#
# Mechanical properties :
#
#
# Convention : Reuss Voigt Hill
#
# Bulk Modulus (GPa) = 43.37673 44.61422 43.99547
# Shear Modulus (GPa) = 24.56326 27.58858 26.07592
#
# Velocity S-wave (km/s) = 3.46483 3.67200 3.56992
# Velocity P-wave (km/s) = 6.09972 6.30737 6.20441
#
# Compressibility (1/GPa) = 0.02305384
#
# Stress axis : x y z
#
# Youngs Moduli (GPa) = 59.81852 59.81852 125.68813
#
# Poissons Ratio (x) = 0.40761 0.14795
# Poissons Ratio (y) = 0.40761 0.14795
# Poissons Ratio (z) = 0.07041 0.07041
#
# Static dielectric constant tensor:
#      x y z
#    x 1.750080 0.000000 0.000000 
#    y 0.000000 1.750080 0.000000 
#    z 0.000000 0.000000 1.801630 
# 
# From -- ./inp_files/774.got.cif
#   From: 2010.05.17/outbox.cif.g08.bks.cpg/sg171_1_cif.got.tgz:774.got - 2010.05.20 11:16:09.
