data_PCOD9580213
_publ_section_title
;
Structure prediction by ZEFSAII (Michael W. Deem and Ramdas Pophale) SiO2 
 PCOD9580213
Probable space group: P 65
;
_chemical_formula_sum "Si O2"
_cell_formula_units_Z 42
_cell_length_a 7.291427
_cell_length_b 7.291427
_cell_length_c 32.592085
_cell_angle_alpha 90.000000
_cell_angle_beta 90.000000
_cell_angle_gamma 120.000000
_cell_volume 1500.610014
_symmetry_space_group_name_H-M "P 65"
_symmetry_group_IT_number 170
_symmetry_cell_setting 'hexagonal'
loop_
_space_group_symop_operation_xyz
x,y,z
x-y,x,5/6+z
-y,x-y,2/3+z
-x,-y,1/2+z
-x+y,-x,1/3+z
y,-x+y,1/6+z
loop_
_atom_site_type_symbol
_atom_site_label
_atom_site_fract_x
_atom_site_fract_y
_atom_site_fract_z
Si Si1 0.620188 0.606612 0.936940
Si Si2 0.234431 0.586025 0.554185
Si Si3 0.067489 0.002453 0.815046
Si Si4 0.677947 0.251533 0.968390
Si Si5 0.198741 0.106447 0.899696
Si Si6 0.871563 0.447127 0.888288
Si Si7 0.491163 0.668369 0.336489
O O1 0.476086 0.695420 0.918566
O O2 0.797710 0.613299 0.904822
O O3 0.393887 0.319618 0.880700
O O4 0.551993 0.379357 0.958441
O O5 0.189203 0.649577 0.509594
O O6 0.048063 0.349363 0.565389
O O7 0.437488 0.555968 0.549331
O O8 0.031347 0.042615 0.861966
O O9 0.987086 0.761990 0.805395
O O10 0.007758 0.101405 0.777152
O O11 0.327057 0.122574 0.814550
O O12 0.522159 0.011527 0.979727
O O13 0.803517 0.285103 0.926355
O O14 0.725467 0.344028 0.848598
#
# Coordination Sequence:
#
# PCOD9580213 Si02
#       7
#     6   6   6   6   6   6   6
#     4  10  22  41  66  99 142 189 240 311 363 448
#     4  12  22  41  71  96 142 196 247 304 378 454
#     4  10  21  41  67  98 147 188 247 308 379 451
#     4  10  19  42  66  97 140 188 238 315 377 439
#     4  10  21  40  67  99 137 195 242 301 373 457
#     4  10  22  41  69 104 141 192 247 304 382 450
#     4  10  21  40  72  95 143 192 235 317 380 441
#
# _framework density 27.988619
#
# number of rings (size 3 to 8) (size 9 to 14) (size 15 to 20)
#    1.714    0.000    4.286    0.857    0.000    1.143 
#    0.000    5.714    0.000    0.000    0.000    0.000 
#    0.000    0.000    0.000    0.000    0.000    0.000 
#
# Total GULP energy -234885.515215 kJ/mol
# GULP energy per Si atom -5592.512267 kJ/mol
# Density = 2.792492 g / cm^3
# Si number density = 27.988619 Si / 1000 Ang^3
#
#
#
# Elastic Constant Matrix: (Units=GPa)
#
#
# Indices 1 2 3 4 5 6 
#
# 1 86.7094 33.2975 2.2090 0.0000 0.0000 0.0000
# 2 33.2975 86.7094 2.2090 0.0000 0.0000 0.0000
# 3 2.2090 2.2090 124.2462 0.0000 0.0000 0.0000
# 4 0.0000 0.0000 0.0000 41.9483 0.0000 0.0000
# 5 0.0000 0.0000 0.0000 0.0000 41.9483 0.0000
# 6 0.0000 0.0000 0.0000 0.0000 0.0000 26.7059
#
#
#
# Elastic Compliance Matrix: (Units=1/GPa)
#
#
# Indices 1 2 3 4 5 6 
#
# 1 0.013530 -0.005192 -0.000148 0.000000 0.000000 0.000000
# 2 -0.005192 0.013530 -0.000148 0.000000 0.000000 0.000000
# 3 -0.000148 -0.000148 0.008054 0.000000 0.000000 0.000000
# 4 0.000000 0.000000 0.000000 0.023839 0.000000 0.000000
# 5 0.000000 0.000000 0.000000 0.000000 0.023839 0.000000
# 6 0.000000 0.000000 0.000000 0.000000 0.000000 0.037445
#
#
# Mechanical properties :
#
#
# Convention : Reuss Voigt Hill
#
# Bulk Modulus (GPa) = 41.42941 41.45510 41.44225
# Shear Modulus (GPa) = 35.90403 39.45045 37.67724
#
# Velocity S-wave (km/s) = 3.58552 3.75843 3.67299
# Velocity P-wave (km/s) = 5.65470 5.80327 5.72947
#
# Compressibility (1/GPa) = 0.02413744
#
# Stress axis : x y z
#
# Youngs Moduli (GPa) = 73.90779 73.90779 124.16486
#
# Poissons Ratio (x) = 0.38373 0.01841
# Poissons Ratio (y) = 0.38373 0.01841
# Poissons Ratio (z) = 0.01096 0.01096
#
# Static dielectric constant tensor:
#      x y z
#    x 2.207450 0.000000 0.000000 
#    y 0.000000 2.207450 0.000000 
#    z 0.000000 0.000000 2.322460 
# 
# From -- ./inp_files/1958.got.cif
#   From: 2010.05.17/outbox.cif.g08.bks.cpg/sg170_cif.got.tgz:1958.got - 2010.05.20 11:14:30.
