data_PCOD9580193
_publ_section_title
;
Structure prediction by ZEFSAII (Michael W. Deem and Ramdas Pophale) SiO2 
 PCOD9580193
Probable space group: P 65
;
_chemical_formula_sum "Si O2"
_cell_formula_units_Z 42
_cell_length_a 17.271837
_cell_length_b 17.271837
_cell_length_c 8.131165
_cell_angle_alpha 90.000000
_cell_angle_beta 90.000000
_cell_angle_gamma 120.000000
_cell_volume 2100.682740
_symmetry_space_group_name_H-M "P 65"
_symmetry_group_IT_number 170
_symmetry_cell_setting 'hexagonal'
loop_
_space_group_symop_operation_xyz
x,y,z
x-y,x,5/6+z
-y,x-y,2/3+z
-x,-y,1/2+z
-x+y,-x,1/3+z
y,-x+y,1/6+z
loop_
_atom_site_type_symbol
_atom_site_label
_atom_site_fract_x
_atom_site_fract_y
_atom_site_fract_z
Si Si1 0.466412 0.223543 0.966240
Si Si2 0.956363 0.291482 0.440471
Si Si3 0.133048 0.313082 0.035096
Si Si4 0.338105 0.059584 0.404972
Si Si5 0.593322 0.505392 0.491335
Si Si6 0.137189 0.181384 0.767612
Si Si7 0.613560 0.086571 0.447944
O O1 0.497783 0.317611 0.871828
O O2 0.399445 0.141928 0.848829
O O3 0.409663 0.230838 0.116368
O O4 0.519712 0.175918 0.045236
O O5 0.950202 0.315831 0.253675
O O6 0.034029 0.371922 0.544100
O O7 0.975361 0.210642 0.462115
O O8 0.180320 0.323650 0.209245
O O9 0.029154 0.274273 0.042824
O O10 0.152441 0.251452 0.913393
O O11 0.407551 0.068634 0.264938
O O12 0.531646 0.536992 0.392840
O O13 0.536297 0.430637 0.624714
O O14 0.042809 0.147057 0.684313
#
# Coordination Sequence:
#
# PCOD9580193 Si02
#       7
#     6   6   6   6   6   6   6
#     4   9  20  38  60  95 126 164 202 267 329 375
#     4  10  22  35  62  92 121 163 215 262 316 370
#     4  10  19  35  58  80 124 161 209 257 311 370
#     4  11  21  35  56  95 124 159 215 260 313 378
#     4  10  22  38  65 102 125 169 214 263 333 386
#     4  11  22  40  52  75 119 175 211 253 309 373
#     4  11  20  41  65  97 131 165 218 270 319 398
#
# _framework density 19.993500000000001
#
# number of rings (size 3 to 8) (size 9 to 14) (size 15 to 20)
#    0.000    1.714    2.857    3.429    4.000    0.000 
#    2.571    0.000    0.000    0.000   37.143    0.000 
#    0.000    0.000    0.000    0.000    0.000    0.000 
#
# Total GULP energy -234058.109393 kJ/mol
# GULP energy per Si atom -5572.812128 kJ/mol
# Density = 1.994799 g / cm^3
# Si number density = 19.993500 Si / 1000 Ang^3
#
#
#
# Elastic Constant Matrix: (Units=GPa)
#
#
# Indices 1 2 3 4 5 6 
#
# 1 47.6505 55.2891 20.9881 0.0000 0.0000 0.0000
# 2 55.2891 47.6505 20.9881 0.0000 0.0000 0.0000
# 3 20.9881 20.9881 74.5899 0.0000 0.0000 0.0000
# 4 0.0000 0.0000 0.0000 31.8994 0.0000 0.0000
# 5 0.0000 0.0000 0.0000 0.0000 31.8994 0.0000
# 6 0.0000 0.0000 0.0000 0.0000 0.0000 -3.8193
#
#
#
# Elastic Compliance Matrix: (Units=1/GPa)
#
#
# Indices 1 2 3 4 5 6 
#
# 1 -0.059970 0.070943 -0.003088 0.000000 0.000000 0.000000
# 2 0.070943 -0.059970 -0.003088 0.000000 0.000000 0.000000
# 3 -0.003088 -0.003088 0.015144 0.000000 0.000000 0.000000
# 4 0.000000 0.000000 0.000000 0.031349 0.000000 0.000000
# 5 0.000000 0.000000 0.000000 0.000000 0.031349 0.000000
# 6 0.000000 0.000000 0.000000 0.000000 0.000000 -0.261827
#
#
# Mechanical properties :
#
#
# Convention : Reuss Voigt Hill
#
# Bulk Modulus (GPa) = 40.41968 40.49129 40.45548
# Shear Modulus (GPa) = -11.75877 16.83759 2.53941
#
# Velocity S-wave (km/s) = -2.42777 2.90514 1.12822
# Velocity P-wave (km/s) = 3.52158 5.61687 4.68779
#
# Compressibility (1/GPa) = 0.02474043
#
# Stress axis : x y z
#
# Youngs Moduli (GPa) = -16.67502 -16.67502 66.03145
#
# Poissons Ratio (x) = 1.18298 0.20389
# Poissons Ratio (y) = 1.18298 0.20389
# Poissons Ratio (z) = -0.05149 -0.05149
#
# Static dielectric constant tensor:
#      x y z
#    x 1.710280 0.000000 0.000000 
#    y 0.000000 1.710280 0.000000 
#    z 0.000000 0.000000 1.754850 
# 
# From -- ./inp_files/701.got.cif
#   From: 2010.05.17/outbox.cif.g08.bks.cpg/sg170_cif.got.tgz:701.got - 2010.05.20 11:14:30.
