data_PCOD9580860
_publ_section_title
;
Structure prediction by ZEFSAII (Michael W. Deem and Ramdas Pophale) SiO2 
 PCOD9580860
Probable space group: P 62
;
_chemical_formula_sum "Si O2"
_cell_formula_units_Z 33
_cell_length_a 10.232588
_cell_length_b 10.232588
_cell_length_c 17.095299
_cell_angle_alpha 90.000000
_cell_angle_beta 90.000000
_cell_angle_gamma 120.000000
_cell_volume 1550.166364
_symmetry_space_group_name_H-M "P 62"
_symmetry_group_IT_number 171
_symmetry_cell_setting 'hexagonal'
loop_
_space_group_symop_operation_xyz
x,y,z
x-y,x,1/3+z
-y,x-y,2/3+z
-x,-y,z
-x+y,-x,1/3+z
y,-x+y,2/3+z
loop_
_atom_site_type_symbol
_atom_site_label
_atom_site_fract_x
_atom_site_fract_y
_atom_site_fract_z
Si Si1 0.937229 0.326079 0.965360
Si Si2 0.092640 0.753930 0.703150
Si Si3 0.717477 0.436790 0.496711
Si Si4 0.000000 0.500000 0.575009
Si Si5 0.385874 0.176465 0.466545
Si Si6 0.037254 0.868541 0.264815
O O1 0.815998 0.255840 0.896361
O O2 0.000000 0.500000 0.949468
O O3 0.049041 0.259134 0.961183
O O4 0.877333 0.299729 0.053077
O O5 0.224162 0.738215 0.745707
O O6 0.019009 0.629980 0.635192
O O7 0.963913 0.706383 0.769369
O O8 0.146693 0.915699 0.664109
O O9 0.548175 0.296158 0.502563
O O10 0.854857 0.411988 0.518781
O O11 0.273894 0.045973 0.525555
O O12 0.000000 0.000000 0.241355
#
# Coordination Sequence:
#
# PCOD9580860 Si02
#       6
#     6   6   6   3   6   6
#     4  12  24  44  73 106 144 194 247 308 392 453
#     4  12  24  46  71 103 147 194 246 312 380 456
#     4  12  23  47  74  99 144 205 247 300 389 464
#     4  12  26  48  74 106 142 202 258 298 378 480
#     4  12  25  45  73 103 152 197 243 315 391 457
#     4  12  26  42  71 111 146 188 255 317 373 461
#
# _framework density 21.288039999999999
#
# number of rings (size 3 to 8) (size 9 to 14) (size 15 to 20)
#    0.000    0.000    9.091    0.000    2.545    2.909 
#    3.273    0.000    0.000    0.000    0.000    0.000 
#    0.000    0.000    0.000    0.000    0.000    0.000 
#
# Total GULP energy -184186.673733 kJ/mol
# GULP energy per Si atom -5581.414356 kJ/mol
# Density = 2.123959 g / cm^3
# Si number density = 21.288040 Si / 1000 Ang^3
#
#
#
# Elastic Constant Matrix: (Units=GPa)
#
#
# Indices 1 2 3 4 5 6 
#
# 1 78.1732 23.1900 23.2541 0.0000 0.0000 0.0000
# 2 23.1900 78.1732 23.2541 0.0000 0.0000 0.0000
# 3 23.2541 23.2541 74.1796 0.0000 0.0000 0.0000
# 4 0.0000 0.0000 0.0000 42.1356 0.0000 0.0000
# 5 0.0000 0.0000 0.0000 0.0000 42.1356 0.0000
# 6 0.0000 0.0000 0.0000 0.0000 0.0000 27.4916
#
#
#
# Elastic Compliance Matrix: (Units=1/GPa)
#
#
# Indices 1 2 3 4 5 6 
#
# 1 0.014855 -0.003332 -0.003612 0.000000 0.000000 0.000000
# 2 -0.003332 0.014855 -0.003612 0.000000 0.000000 0.000000
# 3 -0.003612 -0.003612 0.015746 0.000000 0.000000 0.000000
# 4 0.000000 0.000000 0.000000 0.023733 0.000000 0.000000
# 5 0.000000 0.000000 0.000000 0.000000 0.023733 0.000000
# 6 0.000000 0.000000 0.000000 0.000000 0.000000 0.036375
#
#
# Mechanical properties :
#
#
# Convention : Reuss Voigt Hill
#
# Bulk Modulus (GPa) = 41.08058 41.10248 41.09153
# Shear Modulus (GPa) = 31.54099 33.07444 32.30772
#
# Velocity S-wave (km/s) = 3.85337 3.94593 3.89992
# Velocity P-wave (km/s) = 6.25598 6.33326 6.29474
#
# Compressibility (1/GPa) = 0.02434240
#
# Stress axis : x y z
#
# Youngs Moduli (GPa) = 67.31678 67.31678 63.51003
#
# Poissons Ratio (x) = 0.22432 0.22941
# Poissons Ratio (y) = 0.22432 0.22941
# Poissons Ratio (z) = 0.24316 0.24316
#
# Static dielectric constant tensor:
#      x y z
#    x 1.839880 0.000000 0.000000 
#    y 0.000000 1.839880 0.000000 
#    z 0.000000 0.000000 1.771850 
# 
# From -- ./inp_files/2885.got.cif
#   From: 2010.05.17/outbox.cif.g08.bks.cpg/sg171_2_cif.got.tgz:2885.got - 2010.05.20 11:16:09.
