data_PCOD9580605
_publ_section_title
;
Structure prediction by ZEFSAII (Michael W. Deem and Ramdas Pophale) SiO2 
 PCOD9580605
Probable space group: P 62
;
_chemical_formula_sum "Si O2"
_cell_formula_units_Z 24
_cell_length_a 7.887636
_cell_length_b 7.887636
_cell_length_c 20.858524
_cell_angle_alpha 90.000000
_cell_angle_beta 90.000000
_cell_angle_gamma 120.000000
_cell_volume 1123.848903
_symmetry_space_group_name_H-M "P 62"
_symmetry_group_IT_number 171
_symmetry_cell_setting 'hexagonal'
loop_
_space_group_symop_operation_xyz
x,y,z
x-y,x,1/3+z
-y,x-y,2/3+z
-x,-y,z
-x+y,-x,1/3+z
y,-x+y,2/3+z
loop_
_atom_site_type_symbol
_atom_site_label
_atom_site_fract_x
_atom_site_fract_y
_atom_site_fract_z
Si Si1 0.282284 0.413494 0.898590
Si Si2 0.708995 0.188052 0.855389
Si Si3 0.066953 0.219103 0.777711
Si Si4 0.340179 0.071046 0.314754
O O1 0.500000 0.500000 0.922009
O O2 0.279711 0.604440 0.869478
O O3 0.218544 0.274889 0.836606
O O4 0.131427 0.291172 0.954891
O O5 0.880305 0.227601 0.805006
O O6 0.500000 0.000000 0.838380
O O7 0.777744 0.152788 0.924588
O O8 0.174537 0.340882 0.715163
O O9 0.000000 0.000000 0.758358
O O10 0.500000 0.000000 0.316811
#
# Coordination Sequence:
#
# PCOD9580605 Si02
#       4
#     6   6   6   6
#     4  10  21  41  64  87 121 159 199 253 305 357
#     4  10  22  40  62  89 121 160 201 251 306 356
#     4  11  22  37  60  90 123 158 201 248 300 364
#     4   9  21  40  61  88 119 157 204 250 302 361
#
# _framework density 21.355184000000001
#
# number of rings (size 3 to 8) (size 9 to 14) (size 15 to 20)
#    0.000    2.000    0.000    4.500    0.000    8.000 
#    0.000   11.250    0.000    0.000    0.000    0.000 
#    0.000    0.000    0.000    0.000    0.000    0.000 
#
# Total GULP energy -133810.854330 kJ/mol
# GULP energy per Si atom -5575.452264 kJ/mol
# Density = 2.130658 g / cm^3
# Si number density = 21.355184 Si / 1000 Ang^3
#
#
#
# Elastic Constant Matrix: (Units=GPa)
#
#
# Indices 1 2 3 4 5 6 
#
# 1 53.7875 0.9731 17.7041 0.0000 0.0000 0.0000
# 2 0.9731 53.7875 17.7041 0.0000 0.0000 0.0000
# 3 17.7041 17.7041 126.1474 0.0000 0.0000 0.0000
# 4 0.0000 0.0000 0.0000 9.3620 0.0000 0.0000
# 5 0.0000 0.0000 0.0000 0.0000 9.3620 0.0000
# 6 0.0000 0.0000 0.0000 0.0000 0.0000 26.4072
#
#
#
# Elastic Compliance Matrix: (Units=1/GPa)
#
#
# Indices 1 2 3 4 5 6 
#
# 1 0.019509 0.000575 -0.002819 0.000000 0.000000 0.000000
# 2 0.000575 0.019509 -0.002819 0.000000 0.000000 0.000000
# 3 -0.002819 -0.002819 0.008718 0.000000 0.000000 0.000000
# 4 0.000000 0.000000 0.000000 0.106815 0.000000 0.000000
# 5 0.000000 0.000000 0.000000 0.000000 0.106815 0.000000
# 6 0.000000 0.000000 0.000000 0.000000 0.000000 0.037868
#
#
# Mechanical properties :
#
#
# Convention : Reuss Voigt Hill
#
# Bulk Modulus (GPa) = 26.58763 34.05389 30.32076
# Shear Modulus (GPa) = 15.53293 22.18231 18.85762
#
# Velocity S-wave (km/s) = 2.69989 3.22643 2.97483
# Velocity P-wave (km/s) = 4.71131 5.46451 5.10183
#
# Compressibility (1/GPa) = 0.03761148
#
# Stress axis : x y z
#
# Youngs Moduli (GPa) = 51.25827 51.25827 114.69997
#
# Poissons Ratio (x) = -0.02946 0.32330
# Poissons Ratio (y) = -0.02946 0.32330
# Poissons Ratio (z) = 0.14448 0.14448
#
# Static dielectric constant tensor:
#      x y z
#    x 1.828840 0.000000 0.000000 
#    y 0.000000 1.828840 0.000000 
#    z 0.000000 0.000000 1.735880 
# 
# From -- ./inp_files/2666.got.cif
#   From: 2010.05.17/outbox.cif.g08.bks.cpg/sg171_2_cif.got.tgz:2666.got - 2010.05.20 11:16:09.
