data_PCOD9580323
_publ_section_title
;
Structure prediction by ZEFSAII (Michael W. Deem and Ramdas Pophale) SiO2 
 PCOD9580323
Probable space group: P 65
;
_chemical_formula_sum "Si O2"
_cell_formula_units_Z 48
_cell_length_a 16.865931
_cell_length_b 16.865931
_cell_length_c 8.349430
_cell_angle_alpha 90.000000
_cell_angle_beta 90.000000
_cell_angle_gamma 120.000000
_cell_volume 2056.875941
_symmetry_space_group_name_H-M "P 65"
_symmetry_group_IT_number 170
_symmetry_cell_setting 'hexagonal'
loop_
_space_group_symop_operation_xyz
x,y,z
x-y,x,5/6+z
-y,x-y,2/3+z
-x,-y,1/2+z
-x+y,-x,1/3+z
y,-x+y,1/6+z
loop_
_atom_site_type_symbol
_atom_site_label
_atom_site_fract_x
_atom_site_fract_y
_atom_site_fract_z
Si Si1 0.577418 0.101132 0.916260
Si Si2 0.070087 0.494146 0.720272
Si Si3 0.298190 0.606936 0.148444
Si Si4 0.442590 0.147695 0.463468
Si Si5 0.824669 0.867834 0.331860
Si Si6 0.120263 0.369521 0.526810
Si Si7 0.182593 0.094429 0.297989
Si Si8 0.042721 0.331578 0.204041
O O1 0.588250 0.070506 0.741258
O O2 0.604344 0.204850 0.921747
O O3 0.653207 0.093498 0.019006
O O4 0.479227 0.032214 0.985777
O O5 0.112663 0.602449 0.694933
O O6 0.120663 0.450726 0.625451
O O7 0.304173 0.634615 0.338097
O O8 0.290283 0.506584 0.156293
O O9 0.413311 0.199053 0.592999
O O10 0.346695 0.052160 0.441397
O O11 0.883291 0.856457 0.193170
O O12 0.716254 0.815068 0.304657
O O13 0.855915 0.828137 0.482851
O O14 0.037413 0.323411 0.396181
O O15 0.121052 0.142013 0.272489
O O16 0.282385 0.183594 0.316065
#
# Coordination Sequence:
#
# PCOD9580323 Si02
#       8
#     6   6   6   6   6   6   6   6
#     4  11  26  46  72 110 142 200 249 311 392 453
#     4  11  26  46  77 108 154 196 252 322 387 468
#     4  12  27  49  77 115 154 200 257 320 396 467
#     4  11  24  44  75 105 149 195 253 316 383 468
#     4  10  24  47  69 108 155 204 261 324 386 465
#     4  12  24  48  75 109 150 203 261 318 396 475
#     4  10  23  45  67 104 150 197 252 314 381 453
#     4  11  24  45  72 105 144 201 253 309 381 459
#
# _framework density 23.336362000000001
#
# number of rings (size 3 to 8) (size 9 to 14) (size 15 to 20)
#    0.000    1.000    1.250    4.500    7.000    1.000 
#   27.000    0.000    0.000    0.000    0.000    0.000 
#    0.000    0.000    0.000    0.000    0.000    0.000 
#
# Total GULP energy -268046.939277 kJ/mol
# GULP energy per Si atom -5584.311235 kJ/mol
# Density = 2.328325 g / cm^3
# Si number density = 23.336362 Si / 1000 Ang^3
#
#
#
# Elastic Constant Matrix: (Units=GPa)
#
#
# Indices 1 2 3 4 5 6 
#
# 1 76.4421 31.4799 8.8436 0.0000 0.0000 0.0000
# 2 31.4799 76.4421 8.8436 0.0000 0.0000 0.0000
# 3 8.8436 8.8436 67.1424 0.0000 0.0000 0.0000
# 4 0.0000 0.0000 0.0000 41.3856 0.0000 0.0000
# 5 0.0000 0.0000 0.0000 0.0000 41.3856 0.0000
# 6 0.0000 0.0000 0.0000 0.0000 0.0000 22.4811
#
#
#
# Elastic Compliance Matrix: (Units=1/GPa)
#
#
# Indices 1 2 3 4 5 6 
#
# 1 0.015856 -0.006385 -0.001247 0.000000 0.000000 0.000000
# 2 -0.006385 0.015856 -0.001247 0.000000 0.000000 0.000000
# 3 -0.001247 -0.001247 0.015222 0.000000 0.000000 0.000000
# 4 0.000000 0.000000 0.000000 0.024163 0.000000 0.000000
# 5 0.000000 0.000000 0.000000 0.000000 0.024163 0.000000
# 6 0.000000 0.000000 0.000000 0.000000 0.000000 0.044482
#
#
# Mechanical properties :
#
#
# Convention : Reuss Voigt Hill
#
# Bulk Modulus (GPa) = 34.27765 35.37345 34.82555
# Shear Modulus (GPa) = 29.89967 32.44110 31.17038
#
# Velocity S-wave (km/s) = 3.58334 3.73252 3.65869
# Velocity P-wave (km/s) = 5.64276 5.81090 5.72745
#
# Compressibility (1/GPa) = 0.02917353
#
# Stress axis : x y z
#
# Youngs Moduli (GPa) = 63.06904 63.06904 65.69301
#
# Poissons Ratio (x) = 0.40271 0.08194
# Poissons Ratio (y) = 0.40271 0.08194
# Poissons Ratio (z) = 0.07867 0.07867
#
# Static dielectric constant tensor:
#      x y z
#    x 1.830660 0.000000 0.000000 
#    y 0.000000 1.830660 0.000000 
#    z 0.000000 0.000000 1.897550 
# 
# From -- ./inp_files/718.got.cif
#   From: 2010.05.17/outbox.cif.g08.bks.cpg/sg170_cif.got.tgz:718.got - 2010.05.20 11:14:30.
