data_PCOD9580423
_publ_section_title
;
Structure prediction by ZEFSAII (Michael W. Deem and Ramdas Pophale) SiO2 
 PCOD9580423
Probable space group: P 62
;
_chemical_formula_sum "Si O2"
_cell_formula_units_Z 36
_cell_length_a 9.944878
_cell_length_b 9.944878
_cell_length_c 19.597492
_cell_angle_alpha 90.000000
_cell_angle_beta 90.000000
_cell_angle_gamma 120.000000
_cell_volume 1678.533630
_symmetry_space_group_name_H-M "P 62"
_symmetry_group_IT_number 171
_symmetry_cell_setting 'hexagonal'
loop_
_space_group_symop_operation_xyz
x,y,z
x-y,x,1/3+z
-y,x-y,2/3+z
-x,-y,z
-x+y,-x,1/3+z
y,-x+y,2/3+z
loop_
_atom_site_type_symbol
_atom_site_label
_atom_site_fract_x
_atom_site_fract_y
_atom_site_fract_z
Si Si1 0.672177 0.311288 0.116510
Si Si2 0.909143 0.595604 0.039426
Si Si3 0.230523 0.879746 0.025303
Si Si4 0.885605 0.818850 0.457150
Si Si5 0.593085 0.683402 0.200886
Si Si6 0.415939 0.307821 0.551537
O O1 0.767286 0.485238 0.087899
O O2 0.667402 0.189209 0.059580
O O3 0.515082 0.281096 0.151453
O O4 0.749468 0.268926 0.178755
O O5 0.000000 0.500000 0.036458
O O6 0.053185 0.766696 0.051224
O O7 0.855798 0.597374 0.962778
O O8 0.259265 0.043023 0.055222
O O9 0.245829 0.871912 0.944101
O O10 0.986705 0.749126 0.489761
O O11 0.748748 0.770656 0.513421
O O12 0.000000 0.000000 0.449294
O O13 0.500000 0.500000 0.210138
O O14 0.500000 0.500000 0.547640
#
# Coordination Sequence:
#
# PCOD9580423 Si02
#       6
#     6   6   6   6   6   6
#     4  10  20  35  68 101 130 171 237 300 335 411
#     4   9  17  35  62  96 130 173 230 282 347 421
#     4  10  23  43  73  92 132 195 232 280 368 442
#     4  11  25  43  69 101 143 185 235 294 355 438
#     4  12  26  43  69 104 140 180 240 305 356 432
#     4  10  17  38  66  95 133 182 235 282 345 427
#
# _framework density 21.447292000000001
#
# number of rings (size 3 to 8) (size 9 to 14) (size 15 to 20)
#    0.000    1.667    3.333    2.000    4.667    0.667 
#    0.000    0.000    0.000    6.000    0.000    0.000 
#    0.000    0.000    0.000    0.000    0.000    0.000 
#
# Total GULP energy -200442.041720 kJ/mol
# GULP energy per Si atom -5567.834492 kJ/mol
# Density = 2.139848 g / cm^3
# Si number density = 21.447292 Si / 1000 Ang^3
#
#
#
# Elastic Constant Matrix: (Units=GPa)
#
#
# Indices 1 2 3 4 5 6 
#
# 1 81.0977 28.2407 45.0915 0.0000 0.0000 0.0000
# 2 28.2407 81.0977 45.0915 0.0000 0.0000 0.0000
# 3 45.0915 45.0915 124.2533 0.0000 0.0000 0.0000
# 4 0.0000 0.0000 0.0000 19.4883 0.0000 0.0000
# 5 0.0000 0.0000 0.0000 0.0000 19.4883 0.0000
# 6 0.0000 0.0000 0.0000 0.0000 0.0000 26.4285
#
#
#
# Elastic Compliance Matrix: (Units=1/GPa)
#
#
# Indices 1 2 3 4 5 6 
#
# 1 0.015986 -0.002933 -0.004737 0.000000 0.000000 0.000000
# 2 -0.002933 0.015986 -0.004737 0.000000 0.000000 0.000000
# 3 -0.004737 -0.004737 0.011486 0.000000 0.000000 0.000000
# 4 0.000000 0.000000 0.000000 0.051313 0.000000 0.000000
# 5 0.000000 0.000000 0.000000 0.000000 0.051313 0.000000
# 6 0.000000 0.000000 0.000000 0.000000 0.000000 0.037838
#
#
# Mechanical properties :
#
#
# Convention : Reuss Voigt Hill
#
# Bulk Modulus (GPa) = 53.63550 58.14404 55.88977
# Shear Modulus (GPa) = 23.26121 24.28269 23.77195
#
# Velocity S-wave (km/s) = 3.29686 3.36847 3.33286
# Velocity P-wave (km/s) = 6.28926 6.50368 6.39737
#
# Compressibility (1/GPa) = 0.01864437
#
# Stress axis : x y z
#
# Youngs Moduli (GPa) = 62.55489 62.55489 87.06150
#
# Poissons Ratio (x) = 0.18347 0.41240
# Poissons Ratio (y) = 0.18347 0.41240
# Poissons Ratio (z) = 0.29632 0.29632
#
# Static dielectric constant tensor:
#      x y z
#    x 1.894100 0.000000 0.000000 
#    y 0.000000 1.894100 0.000000 
#    z 0.000000 0.000000 1.792250 
# 
# From -- ./inp_files/3880.got.cif
#   From: 2010.05.17/outbox.cif.g08.bks.cpg/sg171_2_cif.got.tgz:3880.got - 2010.05.20 11:16:09.
