data_PCOD9580969
_publ_section_title
;
Structure prediction by ZEFSAII (Michael W. Deem and Ramdas Pophale) SiO2 
 PCOD9580969
Probable space group: P 64
;
_chemical_formula_sum "Si O2"
_cell_formula_units_Z 21
_cell_length_a 13.947383
_cell_length_b 13.947383
_cell_length_c 5.094389
_cell_angle_alpha 90.000000
_cell_angle_beta 90.000000
_cell_angle_gamma 120.000000
_cell_volume 858.238889
_symmetry_space_group_name_H-M "P 64"
_symmetry_group_IT_number 172
_symmetry_cell_setting 'hexagonal'
loop_
_space_group_symop_operation_xyz
x,y,z
x-y,x,2/3+z
-y,x-y,1/3+z
-x,-y,z
-x+y,-x,2/3+z
y,-x+y,1/3+z
loop_
_atom_site_type_symbol
_atom_site_label
_atom_site_fract_x
_atom_site_fract_y
_atom_site_fract_z
Si Si1 0.500000 0.500000 0.309930
Si Si2 0.833922 0.277272 0.172890
Si Si3 0.858293 0.788893 0.688377
Si Si4 0.144118 0.403573 0.976561
O O1 0.593289 0.485046 0.456948
O O2 0.244402 0.476976 0.775846
O O3 0.932612 0.249293 0.230779
O O4 0.047886 0.425415 0.863325
O O5 0.763156 0.196393 0.934422
O O6 0.957687 0.837588 0.483737
O O7 0.885922 0.721889 0.908389
#
# Coordination Sequence:
#
# PCOD9580969 Si02
#       4
#     3   6   6   6
#     4  12  24  50  86 100 166 210 248 334 382 448
#     4  10  25  45  75 113 149 196 260 304 383 455
#     4  10  22  46  79 107 149 188 252 309 380 454
#     4  10  25  45  75 113 149 196 260 304 383 455
#
# _framework density 24.468712
#
# number of rings (size 3 to 8) (size 9 to 14) (size 15 to 20)
#    1.714    0.000    0.000    3.429    0.000    4.571 
#    5.143    0.000   25.143    3.429    0.000    0.000 
#    0.000    0.000    0.000    0.000    0.000    0.000 
#
# Total GULP energy -117025.233837 kJ/mol
# GULP energy per Si atom -5572.630183 kJ/mol
# Density = 2.441302 g / cm^3
# Si number density = 24.468712 Si / 1000 Ang^3
#
#
#
# Elastic Constant Matrix: (Units=GPa)
#
#
# Indices 1 2 3 4 5 6 
#
# 1 66.2494 5.0594 -3.1271 0.0000 0.0000 0.0000
# 2 5.0594 66.2494 -3.1271 0.0000 0.0000 0.0000
# 3 -3.1271 -3.1271 86.0937 0.0000 0.0000 0.0000
# 4 0.0000 0.0000 0.0000 -7.3697 0.0000 0.0000
# 5 0.0000 0.0000 0.0000 0.0000 -7.3697 0.0000
# 6 0.0000 0.0000 0.0000 0.0000 0.0000 30.5950
#
#
#
# Elastic Compliance Matrix: (Units=1/GPa)
#
#
# Indices 1 2 3 4 5 6 
#
# 1 0.015205 -0.001137 0.000511 0.000000 0.000000 0.000000
# 2 -0.001137 0.015205 0.000511 0.000000 0.000000 0.000000
# 3 0.000511 0.000511 0.011652 0.000000 0.000000 0.000000
# 4 0.000000 0.000000 0.000000 -0.135690 0.000000 0.000000
# 5 0.000000 0.000000 0.000000 0.000000 -0.135690 0.000000
# 6 0.000000 0.000000 0.000000 0.000000 0.000000 0.032685
#
#
# Mechanical properties :
#
#
# Convention : Reuss Voigt Hill
#
# Bulk Modulus (GPa) = 23.90459 24.02256 23.96357
# Shear Modulus (GPa) = -27.40376 17.82358 -4.79009
#
# Velocity S-wave (km/s) = -3.35020 2.70186 -1.40067
# Velocity P-wave (km/s) = 2.27474 4.42407 2.68309
#
# Compressibility (1/GPa) = 0.04183298
#
# Stress axis : x y z
#
# Youngs Moduli (GPa) = 65.76595 65.76595 85.81946
#
# Poissons Ratio (x) = 0.07478 -0.04385
# Poissons Ratio (y) = 0.07478 -0.04385
# Poissons Ratio (z) = -0.03361 -0.03361
#
# Static dielectric constant tensor:
#      x y z
#    x 1.987420 0.000000 0.000000 
#    y 0.000000 1.987420 0.000000 
#    z 0.000000 0.000000 1.981070 
# 
# From -- ./inp_files/113.got.cif
#   From: 2010.05.17/outbox.cif.g08.bks.cpg/sg172_1_cif.got.tgz:113.got - 2010.05.20 11:19:57.
