data_PCOD9580523
_publ_section_title
;
Structure prediction by ZEFSAII (Michael W. Deem and Ramdas Pophale) SiO2 
 PCOD9580523
Probable space group: P 62
;
_chemical_formula_sum "Si O2"
_cell_formula_units_Z 39
_cell_length_a 21.764296
_cell_length_b 21.764296
_cell_length_c 5.049405
_cell_angle_alpha 90.000000
_cell_angle_beta 90.000000
_cell_angle_gamma 120.000000
_cell_volume 2071.381461
_symmetry_space_group_name_H-M "P 62"
_symmetry_group_IT_number 171
_symmetry_cell_setting 'hexagonal'
loop_
_space_group_symop_operation_xyz
x,y,z
x-y,x,1/3+z
-y,x-y,2/3+z
-x,-y,z
-x+y,-x,1/3+z
y,-x+y,2/3+z
loop_
_atom_site_type_symbol
_atom_site_label
_atom_site_fract_x
_atom_site_fract_y
_atom_site_fract_z
Si Si1 0.001013 0.358953 0.797430
Si Si2 0.373951 0.736335 0.912644
Si Si3 0.407584 0.868841 0.652629
Si Si4 0.511246 0.200709 0.500954
Si Si5 0.250356 0.411542 0.338425
Si Si6 0.000000 0.500000 0.682301
Si Si7 0.711210 0.097301 0.610282
O O1 0.995769 0.431620 0.831271
O O2 0.052881 0.372642 0.547389
O O3 0.922287 0.292037 0.749253
O O4 0.039887 0.347219 0.046689
O O5 0.309298 0.572396 0.019733
O O6 0.389545 0.706880 0.169802
O O7 0.380633 0.810837 0.886383
O O8 0.450544 0.846255 0.454832
O O9 0.340749 0.871140 0.540836
O O10 0.462074 0.936566 0.809764
O O11 0.468653 0.199376 0.242074
O O12 0.450913 0.164706 0.730078
O O13 0.164731 0.374115 0.302243
#
# Coordination Sequence:
#
# PCOD9580523 Si02
#       7
#     6   6   6   6   6   3   6
#     4  11  24  40  65  82 116 155 193 248 302 342
#     4  10  22  34  51  72 104 140 183 236 308 356
#     4   9  22  35  53  81 106 146 195 248 288 361
#     4  10  24  35  58  76 110 153 183 239 306 340
#     4  12  23  45  58  86 117 148 192 246 298 350
#     4  10  20  38  58  78 116 144 212 236 300 356
#     4  11  25  39  60  89 111 149 201 244 289 364
#
# _framework density 18.828016000000002
#
# number of rings (size 3 to 8) (size 9 to 14) (size 15 to 20)
#    0.923    0.615    1.538    2.769    8.615    0.615 
#    2.769    0.000    0.000    0.000    0.000    0.000 
#    0.000    0.000    0.000    6.923    0.000    0.000 
#
# Total GULP energy -217369.783155 kJ/mol
# GULP energy per Si atom -5573.584183 kJ/mol
# Density = 1.878516 g / cm^3
# Si number density = 18.828016 Si / 1000 Ang^3
#
#
#
# Elastic Constant Matrix: (Units=GPa)
#
#
# Indices 1 2 3 4 5 6 
#
# 1 98.7969 43.5618 6.7729 0.0000 0.0000 0.0000
# 2 43.5618 98.7969 6.7729 0.0000 0.0000 0.0000
# 3 6.7729 6.7729 74.6527 0.0000 0.0000 0.0000
# 4 0.0000 0.0000 0.0000 5.6733 0.0000 0.0000
# 5 0.0000 0.0000 0.0000 0.0000 5.6733 0.0000
# 6 0.0000 0.0000 0.0000 0.0000 0.0000 27.6176
#
#
#
# Elastic Compliance Matrix: (Units=1/GPa)
#
#
# Indices 1 2 3 4 5 6 
#
# 1 0.012595 -0.005509 -0.000643 0.000000 0.000000 0.000000
# 2 -0.005509 0.012595 -0.000643 0.000000 0.000000 0.000000
# 3 -0.000643 -0.000643 0.013512 0.000000 0.000000 0.000000
# 4 0.000000 0.000000 0.000000 0.176264 0.000000 0.000000
# 5 0.000000 0.000000 0.000000 0.000000 0.176264 0.000000
# 6 0.000000 0.000000 0.000000 0.000000 0.000000 0.036209
#
#
# Mechanical properties :
#
#
# Convention : Reuss Voigt Hill
#
# Bulk Modulus (GPa) = 39.82165 42.94018 41.38092
# Shear Modulus (GPa) = 11.12594 22.13544 16.63069
#
# Velocity S-wave (km/s) = 2.43353 3.43252 2.97525
# Velocity P-wave (km/s) = 5.39372 6.21012 5.81626
#
# Compressibility (1/GPa) = 0.02511197
#
# Stress axis : x y z
#
# Youngs Moduli (GPa) = 79.39629 79.39629 74.00829
#
# Poissons Ratio (x) = 0.43742 0.04758
# Poissons Ratio (y) = 0.43742 0.04758
# Poissons Ratio (z) = 0.05104 0.05104
#
# Static dielectric constant tensor:
#      x y z
#    x 1.732560 0.000000 0.000000 
#    y 0.000000 1.732560 0.000000 
#    z 0.000000 0.000000 1.720440 
# 
# From -- ./inp_files/470.got.cif
#   From: 2010.05.17/outbox.cif.g08.bks.cpg/sg171_1_cif.got.tgz:470.got - 2010.05.20 11:16:09.
