data_PCOD9580071
_publ_section_title
;
Structure prediction by ZEFSAII (Michael W. Deem and Ramdas Pophale) SiO2 
 PCOD9580071
Probable space group: P 61
;
_chemical_formula_sum "Si O2"
_cell_formula_units_Z 36
_cell_length_a 8.415413
_cell_length_b 8.415413
_cell_length_c 24.846375
_cell_angle_alpha 90.000000
_cell_angle_beta 90.000000
_cell_angle_gamma 120.000000
_cell_volume 1523.858130
_symmetry_space_group_name_H-M "P 61"
_symmetry_group_IT_number 169
_symmetry_cell_setting 'hexagonal'
loop_
_space_group_symop_operation_xyz
x,y,z
x-y,x,1/6+z
-y,x-y,1/3+z
-x,-y,1/2+z
-x+y,-x,2/3+z
y,-x+y,5/6+z
loop_
_atom_site_type_symbol
_atom_site_label
_atom_site_fract_x
_atom_site_fract_y
_atom_site_fract_z
Si Si1 0.357485 0.024764 0.167620
Si Si2 0.606289 0.590247 0.661237
Si Si3 0.329158 0.001493 0.802356
Si Si4 0.375525 0.886867 0.388197
Si Si5 0.025342 0.396461 0.926250
Si Si6 0.956317 0.299703 0.614679
O O1 0.268918 0.940592 0.225422
O O2 0.209437 0.905105 0.122259
O O3 0.420449 0.237200 0.171125
O O4 0.534985 0.018542 0.149637
O O5 0.488632 0.483007 0.608687
O O6 0.546808 0.450447 0.711475
O O7 0.824273 0.683324 0.651495
O O8 0.456687 0.108599 0.854171
O O9 0.314965 0.153548 0.766797
O O10 0.444555 0.909666 0.777501
O O11 0.288680 0.941395 0.337855
O O12 0.187630 0.727025 0.411970
#
# Coordination Sequence:
#
# PCOD9580071 Si02
#       6
#     6   6   6   6   6   6
#     4  12  25  49  78 107 148 204 251 323 391 467
#     4  12  26  48  74 114 147 199 262 318 387 473
#     4  10  27  45  73 108 151 191 255 316 378 465
#     4  10  27  45  75 108 151 199 253 313 381 466
#     4  12  26  48  76 106 153 202 253 311 396 458
#     4  10  27  45  76 105 150 193 260 309 395 451
#
# _framework density 23.624247
#
# number of rings (size 3 to 8) (size 9 to 14) (size 15 to 20)
#    1.000    0.000    1.667    3.000    9.333    1.333 
#    0.000    0.000    0.000    0.000    0.000    0.000 
#    0.000    0.000    0.000    0.000    0.000    0.000 
#
# Total GULP energy -200428.102171 kJ/mol
# GULP energy per Si atom -5567.447283 kJ/mol
# Density = 2.357048 g / cm^3
# Si number density = 23.624247 Si / 1000 Ang^3
#
#
#
# Elastic Constant Matrix: (Units=GPa)
#
#
# Indices 1 2 3 4 5 6 
#
# 1 68.4651 31.6228 34.6665 0.0000 0.0000 0.0000
# 2 31.6228 68.4651 34.6665 0.0000 0.0000 0.0000
# 3 34.6665 34.6665 142.9364 0.0000 0.0000 0.0000
# 4 0.0000 0.0000 0.0000 33.6647 0.0000 0.0000
# 5 0.0000 0.0000 0.0000 0.0000 33.6647 0.0000
# 6 0.0000 0.0000 0.0000 0.0000 0.0000 18.4212
#
#
#
# Elastic Compliance Matrix: (Units=1/GPa)
#
#
# Indices 1 2 3 4 5 6 
#
# 1 0.019576 -0.007567 -0.002912 0.000000 0.000000 0.000000
# 2 -0.007567 0.019576 -0.002912 0.000000 0.000000 0.000000
# 3 -0.002912 -0.002912 0.008409 0.000000 0.000000 0.000000
# 4 0.000000 0.000000 0.000000 0.029705 0.000000 0.000000
# 5 0.000000 0.000000 0.000000 0.000000 0.029705 0.000000
# 6 0.000000 0.000000 0.000000 0.000000 0.000000 0.054285
#
#
# Mechanical properties :
#
#
# Convention : Reuss Voigt Hill
#
# Bulk Modulus (GPa) = 48.13156 53.53094 50.83125
# Shear Modulus (GPa) = 25.64569 29.07750 27.36160
#
# Velocity S-wave (km/s) = 3.29837 3.51213 3.40693
# Velocity P-wave (km/s) = 5.90962 6.25742 6.08600
#
# Compressibility (1/GPa) = 0.02077639
#
# Stress axis : x y z
#
# Youngs Moduli (GPa) = 51.08366 51.08366 118.92216
#
# Poissons Ratio (x) = 0.38655 0.34636
# Poissons Ratio (y) = 0.38655 0.34636
# Poissons Ratio (z) = 0.14878 0.14878
#
# Static dielectric constant tensor:
#      x y z
#    x 1.956470 0.000000 0.000000 
#    y 0.000000 1.956470 0.000000 
#    z 0.000000 0.000000 1.968120 
# 
# From -- ./inp_files/1802.got.cif
#   From: 2010.05.17/outbox.cif.g08.bks.cpg/sg169_cif.got.tgz:1802.got - 2010.05.20 11:12:54.
