data_PCOD9580633
_publ_section_title
;
Structure prediction by ZEFSAII (Michael W. Deem and Ramdas Pophale) SiO2 
 PCOD9580633
Probable space group: P 62
;
_chemical_formula_sum "Si O2"
_cell_formula_units_Z 27
_cell_length_a 19.072345
_cell_length_b 19.072345
_cell_length_c 4.875438
_cell_angle_alpha 90.000000
_cell_angle_beta 90.000000
_cell_angle_gamma 120.000000
_cell_volume 1535.862929
_symmetry_space_group_name_H-M "P 62"
_symmetry_group_IT_number 171
_symmetry_cell_setting 'hexagonal'
loop_
_space_group_symop_operation_xyz
x,y,z
x-y,x,1/3+z
-y,x-y,2/3+z
-x,-y,z
-x+y,-x,1/3+z
y,-x+y,2/3+z
loop_
_atom_site_type_symbol
_atom_site_label
_atom_site_fract_x
_atom_site_fract_y
_atom_site_fract_z
Si Si1 0.000000 0.500000 0.988740
Si Si2 0.943416 0.337560 0.223859
Si Si3 0.460116 0.236398 0.574283
Si Si4 0.953875 0.616110 0.735820
Si Si5 0.706341 0.279018 0.730497
O O1 0.951558 0.531390 0.804878
O O2 0.943753 0.421779 0.171302
O O3 0.856915 0.270639 0.328209
O O4 0.015725 0.358585 0.431777
O O5 0.974037 0.321982 0.935523
O O6 0.399377 0.265580 0.471463
O O7 0.516212 0.241721 0.315579
O O8 0.514117 0.293294 0.825212
O O9 0.736947 0.362033 0.556733
#
# Coordination Sequence:
#
# PCOD9580633 Si02
#       5
#     3   6   6   6   6
#     4   8  22  34  50  80 102 144 186 226 294 332
#     4  10  22  38  56  79 105 147 188 237 285 348
#     4  12  24  38  62  78 112 148 200 242 300 354
#     4  10  22  38  56  79 105 147 188 237 285 348
#     4  12  24  37  46  82 107 142 184 250 301 334
#
# _framework density 17.579695000000001
#
# number of rings (size 3 to 8) (size 9 to 14) (size 15 to 20)
#    1.333    0.000    2.222    3.333    6.222    0.000 
#    0.000    0.000    0.000    0.000    0.000    0.000 
#    0.000    0.000    0.000   10.000    0.000    0.000 
#
# Total GULP energy -150350.762110 kJ/mol
# GULP energy per Si atom -5568.546745 kJ/mol
# Density = 1.753968 g / cm^3
# Si number density = 17.579695 Si / 1000 Ang^3
#
#
#
# Elastic Constant Matrix: (Units=GPa)
#
#
# Indices 1 2 3 4 5 6 
#
# 1 46.1817 10.9330 0.9478 0.0000 0.0000 0.0000
# 2 10.9330 46.1817 0.9478 0.0000 0.0000 0.0000
# 3 0.9478 0.9478 81.3973 0.0000 0.0000 0.0000
# 4 0.0000 0.0000 0.0000 18.7139 0.0000 0.0000
# 5 0.0000 0.0000 0.0000 0.0000 18.7139 0.0000
# 6 0.0000 0.0000 0.0000 0.0000 0.0000 17.6243
#
#
#
# Elastic Compliance Matrix: (Units=1/GPa)
#
#
# Indices 1 2 3 4 5 6 
#
# 1 0.022943 -0.005427 -0.000204 0.000000 0.000000 0.000000
# 2 -0.005427 0.022943 -0.000204 0.000000 0.000000 0.000000
# 3 -0.000204 -0.000204 0.012290 0.000000 0.000000 0.000000
# 4 0.000000 0.000000 0.000000 0.053436 0.000000 0.000000
# 5 0.000000 0.000000 0.000000 0.000000 0.053436 0.000000
# 6 0.000000 0.000000 0.000000 0.000000 0.000000 0.056740
#
#
# Mechanical properties :
#
#
# Convention : Reuss Voigt Hill
#
# Bulk Modulus (GPa) = 21.50297 22.15752 21.83025
# Shear Modulus (GPa) = 20.08358 21.73924 20.91141
#
# Velocity S-wave (km/s) = 3.38365 3.52036 3.45268
# Velocity P-wave (km/s) = 5.24631 5.39957 5.32349
#
# Compressibility (1/GPa) = 0.04650520
#
# Stress axis : x y z
#
# Youngs Moduli (GPa) = 43.58699 43.58699 81.36585
#
# Poissons Ratio (x) = 0.23656 0.01659
# Poissons Ratio (y) = 0.23656 0.01659
# Poissons Ratio (z) = 0.00889 0.00889
#
# Static dielectric constant tensor:
#      x y z
#    x 1.589490 0.000000 0.000000 
#    y 0.000000 1.589490 0.000000 
#    z 0.000000 0.000000 1.639230 
# 
# From -- ./inp_files/343.got.cif
#   From: 2010.05.17/outbox.cif.g08.bks.cpg/sg171_1_cif.got.tgz:343.got - 2010.05.20 11:16:09.
