data_PCOD9580669
_publ_section_title
;
Structure prediction by ZEFSAII (Michael W. Deem and Ramdas Pophale) SiO2 
 PCOD9580669
Probable space group: P 62
;
_chemical_formula_sum "Si O2"
_cell_formula_units_Z 39
_cell_length_a 12.957608
_cell_length_b 12.957608
_cell_length_c 12.992401
_cell_angle_alpha 90.000000
_cell_angle_beta 90.000000
_cell_angle_gamma 120.000000
_cell_volume 1889.164268
_symmetry_space_group_name_H-M "P 62"
_symmetry_group_IT_number 171
_symmetry_cell_setting 'hexagonal'
loop_
_space_group_symop_operation_xyz
x,y,z
x-y,x,1/3+z
-y,x-y,2/3+z
-x,-y,z
-x+y,-x,1/3+z
y,-x+y,2/3+z
loop_
_atom_site_type_symbol
_atom_site_label
_atom_site_fract_x
_atom_site_fract_y
_atom_site_fract_z
Si Si1 0.888379 0.808695 0.638660
Si Si2 0.328713 0.946498 0.030108
Si Si3 0.793046 0.311241 0.141076
Si Si4 0.000000 0.000000 0.466887
Si Si5 0.659634 0.033981 0.360335
Si Si6 0.500000 0.500000 0.521517
Si Si7 0.500000 0.000000 0.843568
Si Si8 0.709450 0.488133 0.054452
O O1 0.960621 0.744673 0.674466
O O2 0.941504 0.884314 0.537365
O O3 0.749170 0.716222 0.631846
O O4 0.902570 0.899993 0.727750
O O5 0.388003 0.947772 0.921812
O O6 0.276404 0.819917 0.089118
O O7 0.432018 0.039767 0.107149
O O8 0.793890 0.314140 0.264938
O O9 0.728432 0.381691 0.098455
O O10 0.930974 0.366069 0.102361
O O11 0.759094 0.157669 0.408803
O O12 0.598506 0.076450 0.273655
O O13 0.504131 0.107207 0.777483
#
# Coordination Sequence:
#
# PCOD9580669 Si02
#       8
#     6   6   6   3   6   3   3   6
#     4  10  23  40  66  93 131 172 217 274 337 399
#     4  10  22  43  65  96 133 179 225 274 352 414
#     4  11  22  43  72  93 135 181 237 286 339 416
#     4  10  22  42  62  98 130 166 224 270 332 404
#     4  11  22  39  69  97 128 180 234 279 334 407
#     4  11  18  39  66  94 120 171 230 277 318 424
#     4  11  28  41  64 106 150 173 220 289 366 412
#     4  12  25  43  66 103 138 179 230 286 349 418
#
# _framework density 20.644048000000002
#
# number of rings (size 3 to 8) (size 9 to 14) (size 15 to 20)
#    0.000    1.231    3.077    1.846    6.462    1.231 
#    0.000    1.538    0.000    0.000    0.000    0.000 
#    0.000    0.000    0.000    0.000    0.000    0.000 
#
# Total GULP energy -217247.034755 kJ/mol
# GULP energy per Si atom -5570.436789 kJ/mol
# Density = 2.059706 g / cm^3
# Si number density = 20.644048 Si / 1000 Ang^3
#
#
#
# Elastic Constant Matrix: (Units=GPa)
#
#
# Indices 1 2 3 4 5 6 
#
# 1 88.7396 32.3327 56.9392 0.0000 0.0000 0.0000
# 2 32.3327 88.7396 56.9392 0.0000 0.0000 0.0000
# 3 56.9392 56.9392 164.6637 0.0000 0.0000 0.0000
# 4 0.0000 0.0000 0.0000 -54.9588 0.0000 0.0000
# 5 0.0000 0.0000 0.0000 0.0000 -54.9588 0.0000
# 6 0.0000 0.0000 0.0000 0.0000 0.0000 28.2035
#
#
#
# Elastic Compliance Matrix: (Units=1/GPa)
#
#
# Indices 1 2 3 4 5 6 
#
# 1 0.014985 -0.002744 -0.004233 0.000000 0.000000 0.000000
# 2 -0.002744 0.014985 -0.004233 0.000000 0.000000 0.000000
# 3 -0.004233 -0.004233 0.009000 0.000000 0.000000 0.000000
# 4 0.000000 0.000000 0.000000 -0.018195 0.000000 0.000000
# 5 0.000000 0.000000 0.000000 0.000000 -0.018195 0.000000
# 6 0.000000 0.000000 0.000000 0.000000 0.000000 0.035457
#
#
# Mechanical properties :
#
#
# Convention : Reuss Voigt Hill
#
# Bulk Modulus (GPa) = 60.41992 70.50722 65.46357
# Shear Modulus (GPa) = 75.79142 -3.28068 36.25537
#
# Velocity S-wave (km/s) = 6.06574 -1.26199 4.19527
# Velocity P-wave (km/s) = 8.85373 5.66608 7.43280
#
# Compressibility (1/GPa) = 0.01655083
#
# Stress axis : x y z
#
# Youngs Moduli (GPa) = 66.73544 66.73544 111.10773
#
# Poissons Ratio (x) = 0.18311 0.47029
# Poissons Ratio (y) = 0.18311 0.47029
# Poissons Ratio (z) = 0.28247 0.28247
#
# Static dielectric constant tensor:
#      x y z
#    x 1.906290 0.000000 0.000000 
#    y 0.000000 1.906290 0.000000 
#    z 0.000000 0.000000 1.729170 
# 
# From -- ./inp_files/2050.got.cif
#   From: 2010.05.17/outbox.cif.g08.bks.cpg/sg171_2_cif.got.tgz:2050.got - 2010.05.20 11:16:09.
