data_PCOD9580155
_publ_section_title
;
Structure prediction by ZEFSAII (Michael W. Deem and Ramdas Pophale) SiO2 
 PCOD9580155
Probable space group: P 61
;
_chemical_formula_sum "Si O2"
_cell_formula_units_Z 18
_cell_length_a 7.434443
_cell_length_b 7.434443
_cell_length_c 14.235363
_cell_angle_alpha 90.000000
_cell_angle_beta 90.000000
_cell_angle_gamma 120.000000
_cell_volume 681.390462
_symmetry_space_group_name_H-M "P 61"
_symmetry_group_IT_number 169
_symmetry_cell_setting 'hexagonal'
loop_
_space_group_symop_operation_xyz
x,y,z
x-y,x,1/6+z
-y,x-y,1/3+z
-x,-y,1/2+z
-x+y,-x,2/3+z
y,-x+y,5/6+z
loop_
_atom_site_type_symbol
_atom_site_label
_atom_site_fract_x
_atom_site_fract_y
_atom_site_fract_z
Si Si1 0.017216 0.451598 0.548390
Si Si2 0.781923 0.337313 0.875304
Si Si3 0.763473 0.789552 0.615867
O O1 0.117163 0.644689 0.476319
O O2 0.147285 0.463502 0.638588
O O3 0.786319 0.400625 0.568880
O O4 0.979576 0.248671 0.488559
O O5 0.943270 0.539111 0.812578
O O6 0.950041 0.792795 0.672993
#
# Coordination Sequence:
#
# PCOD9580155 Si02
#       3
#     6   6   6
#     4   9  18  33  55  82 107 141 181 226 273 321
#     4   9  18  33  55  82 107 141 181 226 273 321
#     4   8  16  34  58  80 112 144 178 224 278 316
#
# _framework density 26.416575000000002
#
# number of rings (size 3 to 8) (size 9 to 14) (size 15 to 20)
#    2.000    1.333    0.000    0.000    0.000    2.667 
#    0.000    0.000    7.333    0.000    0.000    0.000 
#    0.000    0.000    0.000    0.000    0.000    0.000 
#
# Total GULP energy -100520.914264 kJ/mol
# GULP energy per Si atom -5584.495237 kJ/mol
# Density = 2.635645 g / cm^3
# Si number density = 26.416575 Si / 1000 Ang^3
#
#
#
# Elastic Constant Matrix: (Units=GPa)
#
#
# Indices 1 2 3 4 5 6 
#
# 1 62.0966 8.0631 26.5152 0.0000 0.0000 0.0000
# 2 8.0631 62.0966 26.5152 0.0000 0.0000 0.0000
# 3 26.5152 26.5152 107.9056 0.0000 0.0000 0.0000
# 4 0.0000 0.0000 0.0000 52.4455 0.0000 0.0000
# 5 0.0000 0.0000 0.0000 0.0000 52.4455 0.0000
# 6 0.0000 0.0000 0.0000 0.0000 0.0000 27.0168
#
#
#
# Elastic Compliance Matrix: (Units=1/GPa)
#
#
# Indices 1 2 3 4 5 6 
#
# 1 0.018006 -0.000501 -0.004301 0.000000 0.000000 0.000000
# 2 -0.000501 0.018006 -0.004301 0.000000 0.000000 0.000000
# 3 -0.004301 -0.004301 0.011381 0.000000 0.000000 0.000000
# 4 0.000000 0.000000 0.000000 0.019067 0.000000 0.000000
# 5 0.000000 0.000000 0.000000 0.000000 0.019067 0.000000
# 6 0.000000 0.000000 0.000000 0.000000 0.000000 0.037014
#
#
# Mechanical properties :
#
#
# Convention : Reuss Voigt Hill
#
# Bulk Modulus (GPa) = 34.26443 39.36509 36.81476
# Shear Modulus (GPa) = 33.22757 37.78189 35.50473
#
# Velocity S-wave (km/s) = 3.55044 3.78595 3.67008
# Velocity P-wave (km/s) = 5.45953 5.83483 5.65029
#
# Compressibility (1/GPa) = 0.02918478
#
# Stress axis : x y z
#
# Youngs Moduli (GPa) = 55.53810 55.53810 87.86409
#
# Poissons Ratio (x) = 0.02785 0.37793
# Poissons Ratio (y) = 0.02785 0.37793
# Poissons Ratio (z) = 0.23888 0.23888
#
# Static dielectric constant tensor:
#      x y z
#    x 2.170340 0.000000 0.000000 
#    y 0.000000 2.170340 0.000000 
#    z 0.000000 0.000000 2.062210 
# 
# From -- ./inp_files/406.got.cif
#   From: 2010.05.17/outbox.cif.g08.bks.cpg/sg169_cif.got.tgz:406.got - 2010.05.20 11:12:54.
