data_PCOD9580888
_publ_section_title
;
Structure prediction by ZEFSAII (Michael W. Deem and Ramdas Pophale) SiO2 
 PCOD9580888
Probable space group: P 62
;
_chemical_formula_sum "Si O2"
_cell_formula_units_Z 39
_cell_length_a 13.000000
_cell_length_b 13.000000
_cell_length_c 13.000000
_cell_angle_alpha 90.000000
_cell_angle_beta 90.000000
_cell_angle_gamma 120.000000
_cell_volume 1902.657812
_symmetry_space_group_name_H-M "P 62"
_symmetry_group_IT_number 171
_symmetry_cell_setting 'hexagonal'
loop_
_space_group_symop_operation_xyz
x,y,z
x-y,x,1/3+z
-y,x-y,2/3+z
-x,-y,z
-x+y,-x,1/3+z
y,-x+y,2/3+z
loop_
_atom_site_type_symbol
_atom_site_label
_atom_site_fract_x
_atom_site_fract_y
_atom_site_fract_z
Si Si1 0.640434 0.773395 0.777400
Si Si2 0.063406 0.725234 0.260131
Si Si3 0.000000 0.500000 0.740860
Si Si4 0.568671 0.187577 0.447951
Si Si5 0.116463 0.340556 0.434779
Si Si6 0.561763 0.228742 0.206051
Si Si7 0.951477 0.272977 0.611206
O O1 0.671257 0.839490 0.666493
O O2 0.740691 0.757413 0.838309
O O3 0.523024 0.645176 0.767412
O O4 0.608548 0.846540 0.860825
O O5 0.123358 0.665185 0.193235
O O6 0.968312 0.646956 0.349878
O O7 0.113256 0.560136 0.816471
O O8 0.003589 0.601015 0.666159
O O9 0.542264 0.210786 0.329628
O O10 0.648280 0.311738 0.506633
O O11 0.216402 0.463818 0.481042
O O12 0.178725 0.281791 0.369728
O O13 0.046693 0.269509 0.535778
#
# Coordination Sequence:
#
# PCOD9580888 Si02
#       7
#     6   6   3   6   6   6   6
#     4  10  22  38  60  92 123 177 222 275 324 396
#     4  10  22  40  62  88 131 174 228 268 329 385
#     4  10  22  38  54  84 126 168 208 268 316 380
#     4  12  24  37  57  90 128 179 217 264 319 397
#     4   9  20  39  60  88 124 174 218 270 315 390
#     4  11  25  37  58  87 130 168 221 254 324 384
#     4   9  19  36  59  85 121 166 215 260 323 372
#
# _framework density 20.497643
#
# number of rings (size 3 to 8) (size 9 to 14) (size 15 to 20)
#    0.000    1.846    1.538    1.385   10.769    1.231 
#    8.308    0.000    0.000    0.000    0.000    0.000 
#    0.000  502.154    0.000    0.000    0.000    0.000 
#
# Total GULP energy -217273.807195 kJ/mol
# GULP energy per Si atom -5571.123261 kJ/mol
# Density = 2.045099 g / cm^3
# Si number density = 20.497643 Si / 1000 Ang^3
#
#
#
# Elastic Constant Matrix: (Units=GPa)
#
#
# Indices 1 2 3 4 5 6 
#
# 1 68.1691 35.7795 55.0048 0.0000 0.0000 0.0000
# 2 35.7795 68.1691 55.0048 0.0000 0.0000 0.0000
# 3 55.0048 55.0048 185.2159 0.0000 0.0000 0.0000
# 4 0.0000 0.0000 0.0000 37.9563 0.0000 0.0000
# 5 0.0000 0.0000 0.0000 0.0000 37.9563 0.0000
# 6 0.0000 0.0000 0.0000 0.0000 0.0000 16.1948
#
#
#
# Elastic Compliance Matrix: (Units=1/GPa)
#
#
# Indices 1 2 3 4 5 6 
#
# 1 0.022452 -0.008422 -0.004166 0.000000 0.000000 0.000000
# 2 -0.008422 0.022452 -0.004166 0.000000 0.000000 0.000000
# 3 -0.004166 -0.004166 0.007874 0.000000 0.000000 0.000000
# 4 0.000000 0.000000 0.000000 0.026346 0.000000 0.000000
# 5 0.000000 0.000000 0.000000 0.000000 0.026346 0.000000
# 6 0.000000 0.000000 0.000000 0.000000 0.000000 0.061748
#
#
# Mechanical properties :
#
#
# Convention : Reuss Voigt Hill
#
# Bulk Modulus (GPa) = 51.90208 68.12582 60.01395
# Shear Modulus (GPa) = 24.13703 30.13914 27.13808
#
# Velocity S-wave (km/s) = 3.43527 3.83870 3.64258
# Velocity P-wave (km/s) = 6.41177 7.27706 6.85807
#
# Compressibility (1/GPa) = 0.01926705
#
# Stress axis : x y z
#
# Youngs Moduli (GPa) = 44.53981 44.53981 127.00391
#
# Poissons Ratio (x) = 0.37513 0.52915
# Poissons Ratio (y) = 0.37513 0.52915
# Poissons Ratio (z) = 0.18557 0.18557
#
# Static dielectric constant tensor:
#      x y z
#    x 1.801250 0.000000 0.000000 
#    y 0.000000 1.801250 0.000000 
#    z 0.000000 0.000000 1.692700 
# 
# From -- ./inp_files/2015.got.cif
#   From: 2010.05.17/outbox.ucp.g08.bks.cvg/sg171_2_cif.got.tgz:2015.got - 2010.06.11 15:18:14.
