data_PCOD9580517
_publ_section_title
;
Structure prediction by ZEFSAII (Michael W. Deem and Ramdas Pophale) SiO2 
 PCOD9580517
Probable space group: P 62
;
_chemical_formula_sum "Si O2"
_cell_formula_units_Z 36
_cell_length_a 8.736449
_cell_length_b 8.736449
_cell_length_c 25.670918
_cell_angle_alpha 90.000000
_cell_angle_beta 90.000000
_cell_angle_gamma 120.000000
_cell_volume 1696.844024
_symmetry_space_group_name_H-M "P 62"
_symmetry_group_IT_number 171
_symmetry_cell_setting 'hexagonal'
loop_
_space_group_symop_operation_xyz
x,y,z
x-y,x,1/3+z
-y,x-y,2/3+z
-x,-y,z
-x+y,-x,1/3+z
y,-x+y,2/3+z
loop_
_atom_site_type_symbol
_atom_site_label
_atom_site_fract_x
_atom_site_fract_y
_atom_site_fract_z
Si Si1 0.468276 0.825657 0.744730
Si Si2 0.644625 0.472596 0.582820
Si Si3 0.978584 0.301243 0.554925
Si Si4 0.496762 0.320587 0.470845
Si Si5 0.200914 0.147616 0.785249
Si Si6 0.506369 0.678527 0.966687
O O1 0.343197 0.652598 0.776215
O O2 0.657237 0.834060 0.741029
O O3 0.356944 0.832247 0.694968
O O4 0.500000 0.000000 0.774736
O O5 0.500000 0.500000 0.611663
O O6 0.547789 0.359385 0.531473
O O7 0.690346 0.354067 0.617868
O O8 0.819816 0.648475 0.565215
O O9 0.902884 0.176480 0.504145
O O10 0.851292 0.195221 0.603876
O O11 0.000000 0.500000 0.551367
O O12 0.500000 0.500000 0.452149
O O13 0.321859 0.135027 0.461585
O O14 0.000000 0.000000 0.773437
O O15 0.500000 0.500000 0.946149
#
# Coordination Sequence:
#
# PCOD9580517 Si02
#       6
#     6   6   6   6   6   6
#     4  11  23  41  60  87 127 169 212 261 317 385
#     4  10  20  37  59  89 123 156 201 259 311 372
#     4  10  21  39  64  91 123 162 208 262 324 378
#     4  11  23  39  63  93 124 162 208 261 317 377
#     4  12  23  39  66  98 129 164 213 273 327 384
#     4  10  22  39  59  84 119 165 210 254 312 384
#
# _framework density 21.215858000000001
#
# number of rings (size 3 to 8) (size 9 to 14) (size 15 to 20)
#    0.000    1.333    0.000    8.000    0.000    3.333 
#    0.000    3.333    0.000    0.000    0.000    0.000 
#    0.000    0.000    0.000    0.000    0.000    0.000 
#
# Total GULP energy -200613.173884 kJ/mol
# GULP energy per Si atom -5572.588163 kJ/mol
# Density = 2.116757 g / cm^3
# Si number density = 21.215858 Si / 1000 Ang^3
#
#
#
# Elastic Constant Matrix: (Units=GPa)
#
#
# Indices 1 2 3 4 5 6 
#
# 1 121.6981 33.0803 10.4672 0.0000 0.0000 0.0000
# 2 33.0803 121.6981 10.4672 0.0000 0.0000 0.0000
# 3 10.4672 10.4672 42.6147 0.0000 0.0000 0.0000
# 4 0.0000 0.0000 0.0000 86.6606 0.0000 0.0000
# 5 0.0000 0.0000 0.0000 0.0000 86.6606 0.0000
# 6 0.0000 0.0000 0.0000 0.0000 0.0000 44.3089
#
#
#
# Elastic Compliance Matrix: (Units=1/GPa)
#
#
# Indices 1 2 3 4 5 6 
#
# 1 0.008984 -0.002301 -0.001641 0.000000 0.000000 0.000000
# 2 -0.002301 0.008984 -0.001641 0.000000 0.000000 0.000000
# 3 -0.001641 -0.001641 0.024272 0.000000 0.000000 0.000000
# 4 0.000000 0.000000 0.000000 0.011539 0.000000 0.000000
# 5 0.000000 0.000000 0.000000 0.000000 0.011539 0.000000
# 6 0.000000 0.000000 0.000000 0.000000 0.000000 0.022569
#
#
# Mechanical properties :
#
#
# Convention : Reuss Voigt Hill
#
# Bulk Modulus (GPa) = 32.18302 43.78224 37.98263
# Shear Modulus (GPa) = 45.69885 58.99245 52.34565
#
# Velocity S-wave (km/s) = 4.64615 5.27884 4.97257
# Velocity P-wave (km/s) = 6.63208 7.60502 7.13515
#
# Compressibility (1/GPa) = 0.03107229
#
# Stress axis : x y z
#
# Youngs Moduli (GPa) = 111.31345 111.31345 41.19899
#
# Poissons Ratio (x) = 0.25611 0.06763
# Poissons Ratio (y) = 0.25611 0.06763
# Poissons Ratio (z) = 0.18272 0.18272
#
# Static dielectric constant tensor:
#      x y z
#    x 1.704390 0.000000 0.000000 
#    y 0.000000 1.704390 0.000000 
#    z 0.000000 0.000000 1.822900 
# 
# From -- ./inp_files/5781.got.cif
#   From: 2010.05.17/outbox.cif.g08.bks.cpg/sg171_3_cif.got.tgz:5781.got - 2010.05.20 11:16:09.
