data_PCOD9580010
_publ_section_title
;
Structure prediction by ZEFSAII (Michael W. Deem and Ramdas Pophale) SiO2 
 PCOD9580010
Probable space group: P 61
;
_chemical_formula_sum "Si O2"
_cell_formula_units_Z 18
_cell_length_a 10.225819
_cell_length_b 10.225819
_cell_length_c 10.347368
_cell_angle_alpha 90.000000
_cell_angle_beta 90.000000
_cell_angle_gamma 120.000000
_cell_volume 937.036977
_symmetry_space_group_name_H-M "P 61"
_symmetry_group_IT_number 169
_symmetry_cell_setting 'hexagonal'
loop_
_space_group_symop_operation_xyz
x,y,z
x-y,x,1/6+z
-y,x-y,1/3+z
-x,-y,1/2+z
-x+y,-x,2/3+z
y,-x+y,5/6+z
loop_
_atom_site_type_symbol
_atom_site_label
_atom_site_fract_x
_atom_site_fract_y
_atom_site_fract_z
Si Si1 0.364317 0.912475 0.720220
Si Si2 0.569972 0.132917 0.935283
Si Si3 0.120700 0.840552 0.411220
O O1 0.444872 0.917620 0.584353
O O2 0.252165 0.738178 0.750786
O O3 0.475430 0.995809 0.837850
O O4 0.279252 0.006228 0.686705
O O5 0.746277 0.199771 0.899673
O O6 0.013604 0.808488 0.289389
#
# Coordination Sequence:
#
# PCOD9580010 Si02
#       3
#     6   6   6
#     4  11  24  43  70  97 141 179 231 286 354 414
#     4  11  24  43  71 100 136 184 232 288 351 419
#     4  10  22  44  65  93 139 175 225 284 347 407
#
# _framework density 19.209488
#
# number of rings (size 3 to 8) (size 9 to 14) (size 15 to 20)
#    0.000    1.333    6.667    0.000    9.333    0.000 
#    6.000    0.000    0.000    0.000    0.000    0.000 
#    0.000    0.000    0.000    0.000    0.000    0.000 
#
# Total GULP energy -100434.159636 kJ/mol
# GULP energy per Si atom -5579.675535 kJ/mol
# Density = 1.916577 g / cm^3
# Si number density = 19.209488 Si / 1000 Ang^3
#
#
#
# Elastic Constant Matrix: (Units=GPa)
#
#
# Indices 1 2 3 4 5 6 
#
# 1 130.5453 76.9751 49.7953 0.0000 0.0000 0.0000
# 2 76.9751 130.5453 49.7953 0.0000 0.0000 0.0000
# 3 49.7953 49.7953 133.9345 0.0000 0.0000 0.0000
# 4 0.0000 0.0000 0.0000 35.1676 0.0000 0.0000
# 5 0.0000 0.0000 0.0000 0.0000 35.1676 0.0000
# 6 0.0000 0.0000 0.0000 0.0000 0.0000 26.7851
#
#
#
# Elastic Compliance Matrix: (Units=1/GPa)
#
#
# Indices 1 2 3 4 5 6 
#
# 1 0.012266 -0.006401 -0.002181 0.000000 0.000000 0.000000
# 2 -0.006401 0.012266 -0.002181 0.000000 0.000000 0.000000
# 3 -0.002181 -0.002181 0.009088 0.000000 0.000000 0.000000
# 4 0.000000 0.000000 0.000000 0.028435 0.000000 0.000000
# 5 0.000000 0.000000 0.000000 0.000000 0.028435 0.000000
# 6 0.000000 0.000000 0.000000 0.000000 0.000000 0.037334
#
#
# Mechanical properties :
#
#
# Convention : Reuss Voigt Hill
#
# Bulk Modulus (GPa) = 82.67313 83.12850 82.90082
# Shear Modulus (GPa) = 32.59853 33.98806 33.29330
#
# Velocity S-wave (km/s) = 4.12394 4.21091 4.16765
# Velocity P-wave (km/s) = 8.11214 8.18603 8.14917
#
# Compressibility (1/GPa) = 0.01209583
#
# Stress axis : x y z
#
# Youngs Moduli (GPa) = 81.52487 81.52487 110.03743
#
# Poissons Ratio (x) = 0.52183 0.23995
# Poissons Ratio (y) = 0.52183 0.23995
# Poissons Ratio (z) = 0.17778 0.17778
#
# Static dielectric constant tensor:
#      x y z
#    x 1.678190 0.000000 0.000000 
#    y 0.000000 1.678190 0.000000 
#    z 0.000000 0.000000 1.688870 
# 
# From -- ./inp_files/399.got.cif
#   From: 2010.05.17/outbox.cif.g08.bks.cpg/sg169_cif.got.tgz:399.got - 2010.05.20 11:12:54.
