data_PCOD9580793
_publ_section_title
;
Structure prediction by ZEFSAII (Michael W. Deem and Ramdas Pophale) SiO2 
 PCOD9580793
Probable space group: P 62
;
_chemical_formula_sum "Si O2"
_cell_formula_units_Z 24
_cell_length_a 13.380994
_cell_length_b 13.380994
_cell_length_c 7.200682
_cell_angle_alpha 90.000000
_cell_angle_beta 90.000000
_cell_angle_gamma 120.000000
_cell_volume 1116.557300
_symmetry_space_group_name_H-M "P 62"
_symmetry_group_IT_number 171
_symmetry_cell_setting 'hexagonal'
loop_
_space_group_symop_operation_xyz
x,y,z
x-y,x,1/3+z
-y,x-y,2/3+z
-x,-y,z
-x+y,-x,1/3+z
y,-x+y,2/3+z
loop_
_atom_site_type_symbol
_atom_site_label
_atom_site_fract_x
_atom_site_fract_y
_atom_site_fract_z
Si Si1 0.024614 0.629210 0.631410
Si Si2 0.252085 0.656175 0.681129
Si Si3 0.832820 0.590732 0.870471
Si Si4 0.385063 0.377308 0.863765
O O1 0.159014 0.697625 0.683789
O O2 0.987382 0.621097 0.419060
O O3 0.000000 0.500000 0.677953
O O4 0.947730 0.664511 0.750119
O O5 0.259628 0.625403 0.465883
O O6 0.214139 0.539479 0.797474
O O7 0.731834 0.618175 0.828492
O O8 0.886049 0.604611 0.076888
O O9 0.500000 0.500000 0.817510
#
# Coordination Sequence:
#
# PCOD9580793 Si02
#       4
#     6   6   6   6
#     4   9  21  36  54  87 127 168 214 257 305 375
#     4  11  21  34  58  93 137 185 223 261 320 399
#     4  11  22  38  59  86 127 168 214 268 320 384
#     4  11  23  40  62  92 130 173 216 262 326 398
#
# _framework density 21.494643
#
# number of rings (size 3 to 8) (size 9 to 14) (size 15 to 20)
#    0.000    1.500    0.000    6.750    0.000   12.000 
#    0.000    2.500    0.000    0.000    0.000    8.750 
#    0.000    0.000    0.000    0.000    0.000    0.000 
#
# Total GULP energy -133930.604476 kJ/mol
# GULP energy per Si atom -5580.441853 kJ/mol
# Density = 2.144572 g / cm^3
# Si number density = 21.494643 Si / 1000 Ang^3
#
#
#
# Elastic Constant Matrix: (Units=GPa)
#
#
# Indices 1 2 3 4 5 6 
#
# 1 101.7500 36.4553 23.6963 0.0000 0.0000 0.0000
# 2 36.4553 101.7500 23.6963 0.0000 0.0000 0.0000
# 3 23.6963 23.6963 100.6660 0.0000 0.0000 0.0000
# 4 0.0000 0.0000 0.0000 27.9989 0.0000 0.0000
# 5 0.0000 0.0000 0.0000 0.0000 27.9989 0.0000
# 6 0.0000 0.0000 0.0000 0.0000 0.0000 32.6474
#
#
#
# Elastic Compliance Matrix: (Units=1/GPa)
#
#
# Indices 1 2 3 4 5 6 
#
# 1 0.011593 -0.003722 -0.001853 0.000000 0.000000 0.000000
# 2 -0.003722 0.011593 -0.001853 0.000000 0.000000 0.000000
# 3 -0.001853 -0.001853 0.010806 0.000000 0.000000 0.000000
# 4 0.000000 0.000000 0.000000 0.035716 0.000000 0.000000
# 5 0.000000 0.000000 0.000000 0.000000 0.035716 0.000000
# 6 0.000000 0.000000 0.000000 0.000000 0.000000 0.030630
#
#
# Mechanical properties :
#
#
# Convention : Reuss Voigt Hill
#
# Bulk Modulus (GPa) = 52.25511 52.42909 52.34210
# Shear Modulus (GPa) = 31.78874 32.41689 32.10282
#
# Velocity S-wave (km/s) = 3.84984 3.88769 3.86881
# Velocity P-wave (km/s) = 6.64268 6.67808 6.66041
#
# Compressibility (1/GPa) = 0.01913689
#
# Stress axis : x y z
#
# Youngs Moduli (GPa) = 86.25845 86.25845 92.54018
#
# Poissons Ratio (x) = 0.32106 0.17146
# Poissons Ratio (y) = 0.32106 0.17146
# Poissons Ratio (z) = 0.15982 0.15982
#
# Static dielectric constant tensor:
#      x y z
#    x 1.875910 0.000000 0.000000 
#    y 0.000000 1.875910 0.000000 
#    z 0.000000 0.000000 1.892470 
# 
# From -- ./inp_files/522.got.cif
#   From: 2010.05.17/outbox.cif.g08.bks.cpg/sg171_1_cif.got.tgz:522.got - 2010.05.20 11:16:09.
