data_PCOD9580796
_publ_section_title
;
Structure prediction by ZEFSAII (Michael W. Deem and Ramdas Pophale) SiO2 
 PCOD9580796
Probable space group: P 62
;
_chemical_formula_sum "Si O2"
_cell_formula_units_Z 45
_cell_length_a 13.152329
_cell_length_b 13.152329
_cell_length_c 12.501048
_cell_angle_alpha 90.000000
_cell_angle_beta 90.000000
_cell_angle_gamma 120.000000
_cell_volume 1872.761111
_symmetry_space_group_name_H-M "P 62"
_symmetry_group_IT_number 171
_symmetry_cell_setting 'hexagonal'
loop_
_space_group_symop_operation_xyz
x,y,z
x-y,x,1/3+z
-y,x-y,2/3+z
-x,-y,z
-x+y,-x,1/3+z
y,-x+y,2/3+z
loop_
_atom_site_type_symbol
_atom_site_label
_atom_site_fract_x
_atom_site_fract_y
_atom_site_fract_z
Si Si1 0.426393 0.569522 0.923880
Si Si2 0.500000 0.500000 0.322435
Si Si3 0.227816 0.626337 0.503223
Si Si4 0.767055 0.658416 0.896954
Si Si5 0.023325 0.751348 0.996761
Si Si6 0.451779 0.140737 0.159172
Si Si7 0.881437 0.004190 0.894145
Si Si8 0.914625 0.723613 0.367764
O O1 0.500000 0.500000 0.904148
O O2 0.462352 0.697613 0.872588
O O3 0.300478 0.477985 0.873840
O O4 0.398638 0.575993 0.049222
O O5 0.451658 0.568143 0.248449
O O6 0.393331 0.435737 0.406933
O O7 0.317713 0.575595 0.508207
O O8 0.755914 0.719245 0.790019
O O9 0.896958 0.706252 0.942253
O O10 0.700317 0.686137 0.991190
O O11 0.079173 0.682000 0.938107
O O12 0.101166 0.885738 0.961453
O O13 0.374593 0.192438 0.107027
O O14 0.866954 0.025812 0.771397
O O15 0.000000 0.000000 0.905797
O O16 0.761728 0.895050 0.934399
#
# Coordination Sequence:
#
# PCOD9580796 Si02
#       8
#     6   3   6   6   6   6   6   6
#     4  12  30  54  82 118 160 206 271 337 419 488
#     4  12  28  50  90 108 156 206 280 322 420 492
#     4  12  28  55  84 117 160 210 272 349 402 499
#     4  12  27  45  73 110 157 205 263 323 411 480
#     4  11  26  43  69 110 156 201 260 329 395 484
#     4  11  28  48  77 112 150 205 271 332 405 483
#     4  11  21  39  61 100 150 203 258 328 398 475
#     4  11  24  39  70 100 154 199 267 323 402 477
#
# _framework density 24.028694000000002
#
# number of rings (size 3 to 8) (size 9 to 14) (size 15 to 20)
#    0.000    0.533    3.333    3.600   11.200    0.000 
#    1.200    0.000    0.000    0.000    0.000    0.000 
#    0.000    0.000    0.000    0.000    0.000    0.000 
#
# Total GULP energy -251364.390910 kJ/mol
# GULP energy per Si atom -5585.875354 kJ/mol
# Density = 2.397400 g / cm^3
# Si number density = 24.028694 Si / 1000 Ang^3
#
#
#
# Elastic Constant Matrix: (Units=GPa)
#
#
# Indices 1 2 3 4 5 6 
#
# 1 94.8020 26.5209 24.8291 0.0000 0.0000 0.0000
# 2 26.5209 94.8020 24.8291 0.0000 0.0000 0.0000
# 3 24.8291 24.8291 108.9621 0.0000 0.0000 0.0000
# 4 0.0000 0.0000 0.0000 6.3974 0.0000 0.0000
# 5 0.0000 0.0000 0.0000 0.0000 6.3974 0.0000
# 6 0.0000 0.0000 0.0000 0.0000 0.0000 34.1405
#
#
#
# Elastic Compliance Matrix: (Units=1/GPa)
#
#
# Indices 1 2 3 4 5 6 
#
# 1 0.011868 -0.002778 -0.002071 0.000000 0.000000 0.000000
# 2 -0.002778 0.011868 -0.002071 0.000000 0.000000 0.000000
# 3 -0.002071 -0.002071 0.010122 0.000000 0.000000 0.000000
# 4 0.000000 0.000000 0.000000 0.156314 0.000000 0.000000
# 5 0.000000 0.000000 0.000000 0.000000 0.156314 0.000000
# 6 0.000000 0.000000 0.000000 0.000000 0.000000 0.029291
#
#
# Mechanical properties :
#
#
# Convention : Reuss Voigt Hill
#
# Bulk Modulus (GPa) = 49.95869 50.10268 50.03069
# Shear Modulus (GPa) = 12.61704 24.21285 18.41494
#
# Velocity S-wave (km/s) = 2.29395 3.17782 2.77135
# Velocity P-wave (km/s) = 5.27757 5.86184 5.57736
#
# Compressibility (1/GPa) = 0.02001654
#
# Stress axis : x y z
#
# Youngs Moduli (GPa) = 84.26142 84.26142 98.79935
#
# Poissons Ratio (x) = 0.23404 0.20465
# Poissons Ratio (y) = 0.23404 0.20465
# Poissons Ratio (z) = 0.17454 0.17454
#
# Static dielectric constant tensor:
#      x y z
#    x 2.016190 0.000000 0.000000 
#    y 0.000000 2.016190 0.000000 
#    z 0.000000 0.000000 1.911550 
# 
# From -- ./inp_files/4704.got.cif
#   From: 2010.05.17/outbox.cif.g08.bks.cpg/sg171_3_cif.got.tgz:4704.got - 2010.05.20 11:16:09.
