data_PCOD9580636
_publ_section_title
;
Structure prediction by ZEFSAII (Michael W. Deem and Ramdas Pophale) SiO2 
 PCOD9580636
Probable space group: P 62
;
_chemical_formula_sum "Si O2"
_cell_formula_units_Z 33
_cell_length_a 20.240630
_cell_length_b 20.240630
_cell_length_c 5.003247
_cell_angle_alpha 90.000000
_cell_angle_beta 90.000000
_cell_angle_gamma 120.000000
_cell_volume 1775.131895
_symmetry_space_group_name_H-M "P 62"
_symmetry_group_IT_number 171
_symmetry_cell_setting 'hexagonal'
loop_
_space_group_symop_operation_xyz
x,y,z
x-y,x,1/3+z
-y,x-y,2/3+z
-x,-y,z
-x+y,-x,1/3+z
y,-x+y,2/3+z
loop_
_atom_site_type_symbol
_atom_site_label
_atom_site_fract_x
_atom_site_fract_y
_atom_site_fract_z
Si Si1 0.500000 0.000000 0.848580
Si Si2 0.849812 0.582430 0.360992
Si Si3 0.144633 0.638592 0.329393
Si Si4 0.124437 0.714077 0.841946
Si Si5 0.261796 0.596260 0.468017
Si Si6 0.050038 0.395978 0.835280
O O1 0.502630 0.063857 0.649065
O O2 0.574083 0.036940 0.041628
O O3 0.796629 0.620726 0.376649
O O4 0.791981 0.494682 0.459178
O O5 0.912252 0.622383 0.587819
O O6 0.893289 0.582778 0.089200
O O7 0.137776 0.661799 0.630645
O O8 0.213509 0.622996 0.284009
O O9 0.153322 0.703579 0.129077
O O10 0.033984 0.675853 0.881925
O O11 0.275874 0.651921 0.715649
#
# Coordination Sequence:
#
# PCOD9580636 Si02
#       6
#     3   6   6   6   6   6
#     4  10  22  38  60  88 110 146 208 250 296 372
#     4  12  25  42  60  86 114 155 200 247 305 360
#     4  11  23  38  58  79 111 150 194 255 300 348
#     4  11  24  43  59  85 114 147 193 255 297 353
#     4  12  26  37  53  78 113 157 199 253 315 352
#     4  11  25  39  64  85 111 154 196 247 302 353
#
# _framework density 18.590167000000001
#
# number of rings (size 3 to 8) (size 9 to 14) (size 15 to 20)
#    0.000    0.727    3.636    4.364    7.636    1.455 
#    0.000    0.000    0.000    0.000    0.000    0.000 
#    0.000    0.000    0.000    8.182    0.000    0.000 
#
# Total GULP energy -183960.755112 kJ/mol
# GULP energy per Si atom -5574.568337 kJ/mol
# Density = 1.854785 g / cm^3
# Si number density = 18.590167 Si / 1000 Ang^3
#
#
#
# Elastic Constant Matrix: (Units=GPa)
#
#
# Indices 1 2 3 4 5 6 
#
# 1 75.5937 22.5580 19.2555 0.0000 0.0000 0.0000
# 2 22.5580 75.5937 19.2555 0.0000 0.0000 0.0000
# 3 19.2555 19.2555 79.2477 0.0000 0.0000 0.0000
# 4 0.0000 0.0000 0.0000 20.9294 0.0000 0.0000
# 5 0.0000 0.0000 0.0000 0.0000 20.9294 0.0000
# 6 0.0000 0.0000 0.0000 0.0000 0.0000 26.5179
#
#
#
# Elastic Compliance Matrix: (Units=1/GPa)
#
#
# Indices 1 2 3 4 5 6 
#
# 1 0.015059 -0.003797 -0.002736 0.000000 0.000000 0.000000
# 2 -0.003797 0.015059 -0.002736 0.000000 0.000000 0.000000
# 3 -0.002736 -0.002736 0.013948 0.000000 0.000000 0.000000
# 4 0.000000 0.000000 0.000000 0.047780 0.000000 0.000000
# 5 0.000000 0.000000 0.000000 0.000000 0.047780 0.000000
# 6 0.000000 0.000000 0.000000 0.000000 0.000000 0.037710
#
#
# Mechanical properties :
#
#
# Convention : Reuss Voigt Hill
#
# Bulk Modulus (GPa) = 39.17462 39.17477 39.17470
# Shear Modulus (GPa) = 24.46385 24.96642 24.71513
#
# Velocity S-wave (km/s) = 3.63155 3.66866 3.65015
# Velocity P-wave (km/s) = 6.22115 6.25012 6.23565
#
# Compressibility (1/GPa) = 0.02552673
#
# Stress axis : x y z
#
# Youngs Moduli (GPa) = 66.40729 66.40729 71.69260
#
# Poissons Ratio (x) = 0.25212 0.19618
# Poissons Ratio (y) = 0.25212 0.19618
# Poissons Ratio (z) = 0.18172 0.18172
#
# Static dielectric constant tensor:
#      x y z
#    x 1.744640 0.000000 0.000000 
#    y 0.000000 1.744640 0.000000 
#    z 0.000000 0.000000 1.695350 
# 
# From -- ./inp_files/372.got.cif
#   From: 2010.05.17/outbox.cif.g08.bks.cpg/sg171_1_cif.got.tgz:372.got - 2010.05.20 11:16:09.
