data_PCOD9580411
_publ_section_title
;
Structure prediction by ZEFSAII (Michael W. Deem and Ramdas Pophale) SiO2 
 PCOD9580411
Probable space group: P 65
;
_chemical_formula_sum "Si O2"
_cell_formula_units_Z 48
_cell_length_a 15.000000
_cell_length_b 15.000000
_cell_length_c 12.000000
_cell_angle_alpha 90.000000
_cell_angle_beta 90.000000
_cell_angle_gamma 120.000000
_cell_volume 2338.268590
_symmetry_space_group_name_H-M "P 65"
_symmetry_group_IT_number 170
_symmetry_cell_setting 'hexagonal'
loop_
_space_group_symop_operation_xyz
x,y,z
x-y,x,5/6+z
-y,x-y,2/3+z
-x,-y,1/2+z
-x+y,-x,1/3+z
y,-x+y,1/6+z
loop_
_atom_site_type_symbol
_atom_site_label
_atom_site_fract_x
_atom_site_fract_y
_atom_site_fract_z
Si Si1 0.405453 0.163983 0.669040
Si Si2 0.407403 0.243656 0.017007
Si Si3 0.584953 0.495488 0.605930
Si Si4 0.580001 0.283428 0.850915
Si Si5 0.749096 0.250548 0.103572
Si Si6 0.037814 0.370970 0.482972
Si Si7 0.660105 0.629620 0.389071
Si Si8 0.118529 0.474862 0.075144
O O1 0.505749 0.239210 0.743655
O O2 0.437067 0.174141 0.538871
O O3 0.331879 0.213773 0.669813
O O4 0.359306 0.057030 0.735549
O O5 0.359618 0.123452 0.009447
O O6 0.426417 0.268890 0.146795
O O7 0.514979 0.302648 0.946999
O O8 0.333617 0.276917 0.958329
O O9 0.675993 0.491884 0.668147
O O10 0.483862 0.384876 0.595673
O O11 0.610370 0.540412 0.481161
O O12 0.559326 0.566760 0.687316
O O13 0.688792 0.381012 0.817169
O O14 0.593193 0.190633 0.896247
O O15 0.687321 0.142273 0.034731
O O16 0.014626 0.396683 0.606689
#
# Coordination Sequence:
#
# PCOD9580411 Si02
#       8
#     6   6   6   6   6   6   6   6
#     4  12  26  40  62  88 132 167 213 265 323 387
#     4  11  21  38  60  86 118 158 208 265 309 373
#     4  11  24  37  62  88 123 170 217 259 310 377
#     4  12  22  38  55  88 122 169 216 258 305 367
#     4  12  25  39  57  88 129 174 217 256 315 386
#     4  12  24  42  61  92 123 171 208 267 319 380
#     4  11  21  40  62  85 121 158 213 264 315 373
#     4  11  23  38  57  85 124 171 210 256 310 365
#
# _framework density 20.528009999999998
#
# number of rings (size 3 to 8) (size 9 to 14) (size 15 to 20)
#    0.000    0.500    6.250    2.250    5.250    1.000 
#    0.000    0.000    0.000    0.000    0.000    0.000 
#   41.250    0.000    0.000    0.000    0.000    0.000 
#
# Total GULP energy -267809.878340 kJ/mol
# GULP energy per Si atom -5579.372465 kJ/mol
# Density = 2.048129 g / cm^3
# Si number density = 20.528010 Si / 1000 Ang^3
#
#
#
# Elastic Constant Matrix: (Units=GPa)
#
#
# Indices 1 2 3 4 5 6 
#
# 1 44.0094 15.0509 20.6369 0.0000 0.0000 0.0000
# 2 15.0509 44.0094 20.6369 0.0000 0.0000 0.0000
# 3 20.6369 20.6369 164.3458 0.0000 0.0000 0.0000
# 4 0.0000 0.0000 0.0000 35.6336 0.0000 0.0000
# 5 0.0000 0.0000 0.0000 0.0000 35.6336 0.0000
# 6 0.0000 0.0000 0.0000 0.0000 0.0000 14.4792
#
#
#
# Elastic Compliance Matrix: (Units=1/GPa)
#
#
# Indices 1 2 3 4 5 6 
#
# 1 0.026546 -0.007986 -0.002331 0.000000 0.000000 0.000000
# 2 -0.007986 0.026546 -0.002331 0.000000 0.000000 0.000000
# 3 -0.002331 -0.002331 0.006670 0.000000 0.000000 0.000000
# 4 0.000000 0.000000 0.000000 0.028063 0.000000 0.000000
# 5 0.000000 0.000000 0.000000 0.000000 0.028063 0.000000
# 6 0.000000 0.000000 0.000000 0.000000 0.000000 0.069064
#
#
# Mechanical properties :
#
#
# Convention : Reuss Voigt Hill
#
# Bulk Modulus (GPa) = 29.01189 40.55713 34.78451
# Shear Modulus (GPa) = 22.54913 30.21859 26.38386
#
# Velocity S-wave (km/s) = 3.31789 3.84091 3.58894
# Velocity P-wave (km/s) = 5.37042 6.28252 5.84429
#
# Compressibility (1/GPa) = 0.03446862
#
# Stress axis : x y z
#
# Youngs Moduli (GPa) = 37.66986 37.66986 149.92381
#
# Poissons Ratio (x) = 0.30082 0.34942
# Poissons Ratio (y) = 0.30082 0.34942
# Poissons Ratio (z) = 0.08780 0.08780
#
# Static dielectric constant tensor:
#      x y z
#    x 1.816710 0.000000 0.000000 
#    y 0.000000 1.816710 0.000000 
#    z 0.000000 0.000000 1.764210 
# 
# From -- ./inp_files/1043.got.cif
#   From: 2010.05.17/outbox.ucp.g08.bks.cvg/sg170_cif.got.tgz:1043.got - 2010.06.11 15:18:05.
