data_PCOD9580950
_publ_section_title
;
Structure prediction by ZEFSAII (Michael W. Deem and Ramdas Pophale) SiO2 
 PCOD9580950
Probable space group: P 64
;
_chemical_formula_sum "Si O2"
_cell_formula_units_Z 24
_cell_length_a 8.534876
_cell_length_b 8.534876
_cell_length_c 14.983742
_cell_angle_alpha 90.000000
_cell_angle_beta 90.000000
_cell_angle_gamma 120.000000
_cell_volume 945.247092
_symmetry_space_group_name_H-M "P 64"
_symmetry_group_IT_number 172
_symmetry_cell_setting 'hexagonal'
loop_
_space_group_symop_operation_xyz
x,y,z
x-y,x,2/3+z
-y,x-y,1/3+z
-x,-y,z
-x+y,-x,2/3+z
y,-x+y,1/3+z
loop_
_atom_site_type_symbol
_atom_site_label
_atom_site_fract_x
_atom_site_fract_y
_atom_site_fract_z
Si Si1 0.868900 0.317461 0.847280
Si Si2 0.943507 0.141846 0.175224
Si Si3 0.602742 0.699978 0.998126
Si Si4 0.550684 0.349496 0.757460
O O1 0.692727 0.323875 0.817147
O O2 0.000000 0.500000 0.901845
O O3 0.805456 0.120272 0.881402
O O4 0.996754 0.333192 0.761150
O O5 0.817479 0.060679 0.261863
O O6 0.837125 0.196155 0.102815
O O7 0.000000 0.000000 0.140047
O O8 0.500000 0.500000 0.960993
O O9 0.455482 0.766084 0.008402
O O10 0.500000 0.500000 0.782453
#
# Coordination Sequence:
#
# PCOD9580950 Si02
#       4
#     6   6   6   6
#     4   9  21  43  64  92 139 179 225 283 340 409
#     4  12  23  39  69 103 138 182 229 282 353 417
#     4   9  22  44  67  96 135 181 231 289 351 408
#     4  10  21  40  65  93 133 176 223 282 333 402
#
# _framework density 25.390186
#
# number of rings (size 3 to 8) (size 9 to 14) (size 15 to 20)
#    0.000    2.500    0.000    4.500    0.000    5.000 
#    0.000    2.500    0.000   12.000    0.000    0.000 
#    0.000    0.000    0.000    0.000    0.000    0.000 
#
# Total GULP energy -133797.396426 kJ/mol
# GULP energy per Si atom -5574.891518 kJ/mol
# Density = 2.533240 g / cm^3
# Si number density = 25.390186 Si / 1000 Ang^3
#
#
#
# Elastic Constant Matrix: (Units=GPa)
#
#
# Indices 1 2 3 4 5 6 
#
# 1 178.7219 59.6280 6.9884 0.0000 0.0000 0.0000
# 2 59.6280 178.7219 6.9884 0.0000 0.0000 0.0000
# 3 6.9884 6.9884 72.3680 0.0000 0.0000 0.0000
# 4 0.0000 0.0000 0.0000 -33.7307 0.0000 0.0000
# 5 0.0000 0.0000 0.0000 0.0000 -33.7307 0.0000
# 6 0.0000 0.0000 0.0000 0.0000 0.0000 59.5469
#
#
#
# Elastic Compliance Matrix: (Units=1/GPa)
#
#
# Indices 1 2 3 4 5 6 
#
# 1 0.006308 -0.002089 -0.000407 0.000000 0.000000 0.000000
# 2 -0.002089 0.006308 -0.000407 0.000000 0.000000 0.000000
# 3 -0.000407 -0.000407 0.013897 0.000000 0.000000 0.000000
# 4 0.000000 0.000000 0.000000 -0.029647 0.000000 0.000000
# 5 0.000000 0.000000 0.000000 0.000000 -0.029647 0.000000
# 6 0.000000 0.000000 0.000000 0.000000 0.000000 0.016793
#
#
# Mechanical properties :
#
#
# Convention : Reuss Voigt Hill
#
# Bulk Modulus (GPa) = 48.29529 64.11346 56.20438
# Shear Modulus (GPa) = -1525.60996 22.16422 -751.72287
#
# Velocity S-wave (km/s) = -24.53916 2.95777 -17.22530
# Velocity P-wave (km/s) = 27.99699 6.08035 19.32435
#
# Compressibility (1/GPa) = 0.02070595
#
# Stress axis : x y z
#
# Youngs Moduli (GPa) = 158.52704 158.52704 71.95819
#
# Poissons Ratio (x) = 0.33111 0.02932
# Poissons Ratio (y) = 0.33111 0.02932
# Poissons Ratio (z) = 0.06459 0.06459
#
# Static dielectric constant tensor:
#      x y z
#    x 2.043560 0.000000 0.000000 
#    y 0.000000 2.043560 0.000000 
#    z 0.000000 0.000000 2.051320 
# 
# From -- ./inp_files/1871.got.cif
#   From: 2010.05.17/outbox.cif.g08.bks.cpg/sg172_1_cif.got.tgz:1871.got - 2010.05.20 11:19:57.
