data_PCOD9580515
_publ_section_title
;
Structure prediction by ZEFSAII (Michael W. Deem and Ramdas Pophale) SiO2 
 PCOD9580515
Probable space group: P 62
;
_chemical_formula_sum "Si O2"
_cell_formula_units_Z 48
_cell_length_a 20.556066
_cell_length_b 20.556066
_cell_length_c 7.083157
_cell_angle_alpha 90.000000
_cell_angle_beta 90.000000
_cell_angle_gamma 120.000000
_cell_volume 2592.014977
_symmetry_space_group_name_H-M "P 62"
_symmetry_group_IT_number 171
_symmetry_cell_setting 'hexagonal'
loop_
_space_group_symop_operation_xyz
x,y,z
x-y,x,1/3+z
-y,x-y,2/3+z
-x,-y,z
-x+y,-x,1/3+z
y,-x+y,2/3+z
loop_
_atom_site_type_symbol
_atom_site_label
_atom_site_fract_x
_atom_site_fract_y
_atom_site_fract_z
Si Si1 0.303663 0.325038 0.500000
Si Si2 0.935690 0.594798 0.513748
Si Si3 0.706562 0.909505 0.808909
Si Si4 0.292910 0.681940 0.082430
Si Si5 0.122871 0.629619 0.968155
Si Si6 0.584227 0.154638 0.957933
Si Si7 0.553901 0.900703 0.715045
Si Si8 0.235993 0.952855 0.552438
O O1 0.367840 0.316210 0.387584
O O2 0.235325 0.293283 0.350622
O O3 0.325008 0.411249 0.538283
O O4 0.290279 0.283273 0.698186
O O5 0.880447 0.507254 0.514298
O O6 0.922858 0.643198 0.354733
O O7 0.018004 0.608162 0.474154
O O8 0.622274 0.882571 0.723652
O O9 0.724834 0.842938 0.826820
O O10 0.762019 0.980225 0.678075
O O11 0.312479 0.686920 0.303624
O O12 0.211766 0.668172 0.018994
O O13 0.353664 0.762969 0.010285
O O14 0.110339 0.565074 0.819716
O O15 0.089519 0.616880 0.176635
O O16 0.517713 0.153443 0.837852
#
# Coordination Sequence:
#
# PCOD9580515 Si02
#       8
#     6   6   6   6   6   6   6   6
#     4  10  20  39  60  89 122 157 201 252 312 370
#     4  10  22  36  54  91 115 154 208 251 309 375
#     4  10  22  39  63  95 124 160 201 249 312 377
#     4  10  23  38  54  77 106 151 211 244 298 350
#     4  11  20  37  58  77 111 159 198 258 307 354
#     4  11  22  36  57  79 116 161 203 263 304 355
#     4  10  20  37  55  79 120 152 195 253 298 356
#     4  10  22  40  64  94 127 162 201 254 315 390
#
# _framework density 18.518411
#
# number of rings (size 3 to 8) (size 9 to 14) (size 15 to 20)
#    0.000    2.000    5.000    1.125    1.750    4.000 
#    2.250    1.250    0.000    0.000    0.000    4.375 
#    0.000    0.000    0.000    0.000    0.000    0.000 
#
# Total GULP energy -267257.603572 kJ/mol
# GULP energy per Si atom -5567.866741 kJ/mol
# Density = 1.847626 g / cm^3
# Si number density = 18.518411 Si / 1000 Ang^3
#
#
#
# Elastic Constant Matrix: (Units=GPa)
#
#
# Indices 1 2 3 4 5 6 
#
# 1 48.5683 47.0239 15.2673 0.0000 0.0000 0.0000
# 2 47.0239 48.5683 15.2673 0.0000 0.0000 0.0000
# 3 15.2673 15.2673 101.3519 0.0000 0.0000 0.0000
# 4 0.0000 0.0000 0.0000 13.8377 0.0000 0.0000
# 5 0.0000 0.0000 0.0000 0.0000 13.8377 0.0000
# 6 0.0000 0.0000 0.0000 0.0000 0.0000 0.7722
#
#
#
# Elastic Compliance Matrix: (Units=1/GPa)
#
#
# Indices 1 2 3 4 5 6 
#
# 1 0.329241 -0.318251 -0.001655 0.000000 0.000000 0.000000
# 2 -0.318251 0.329241 -0.001655 0.000000 0.000000 0.000000
# 3 -0.001655 -0.001655 0.010365 0.000000 0.000000 0.000000
# 4 0.000000 0.000000 0.000000 0.072266 0.000000 0.000000
# 5 0.000000 0.000000 0.000000 0.000000 0.072266 0.000000
# 6 0.000000 0.000000 0.000000 0.000000 0.000000 1.294986
#
#
# Mechanical properties :
#
#
# Convention : Reuss Voigt Hill
#
# Bulk Modulus (GPa) = 38.87533 39.28951 39.08242
# Shear Modulus (GPa) = 1.81155 13.75153 7.78154
#
# Velocity S-wave (km/s) = 0.99013 2.72800 2.05212
# Velocity P-wave (km/s) = 4.72711 5.58437 5.17352
#
# Compressibility (1/GPa) = 0.02572325
#
# Stress axis : x y z
#
# Youngs Moduli (GPa) = 3.03729 3.03729 96.47510
#
# Poissons Ratio (x) = 0.96662 0.15971
# Poissons Ratio (y) = 0.96662 0.15971
# Poissons Ratio (z) = 0.00503 0.00503
#
# Static dielectric constant tensor:
#      x y z
#    x 1.642030 0.000000 0.000000 
#    y 0.000000 1.642030 0.000000 
#    z 0.000000 0.000000 1.717300 
# 
# From -- ./inp_files/842.got.cif
#   From: 2010.05.17/outbox.cif.g08.bks.cpg/sg171_1_cif.got.tgz:842.got - 2010.05.20 11:16:09.
