data_PCOD9580041
_publ_section_title
;
Structure prediction by ZEFSAII (Michael W. Deem and Ramdas Pophale) SiO2 
 PCOD9580041
Probable space group: P 61
;
_chemical_formula_sum "Si O2"
_cell_formula_units_Z 48
_cell_length_a 16.539541
_cell_length_b 16.539541
_cell_length_c 8.595051
_cell_angle_alpha 90.000000
_cell_angle_beta 90.000000
_cell_angle_gamma 120.000000
_cell_volume 2036.226080
_symmetry_space_group_name_H-M "P 61"
_symmetry_group_IT_number 169
_symmetry_cell_setting 'hexagonal'
loop_
_space_group_symop_operation_xyz
x,y,z
x-y,x,1/6+z
-y,x-y,1/3+z
-x,-y,1/2+z
-x+y,-x,2/3+z
y,-x+y,5/6+z
loop_
_atom_site_type_symbol
_atom_site_label
_atom_site_fract_x
_atom_site_fract_y
_atom_site_fract_z
Si Si1 0.563366 0.412892 0.232230
Si Si2 0.986555 0.822606 0.417181
Si Si3 0.671773 0.279654 0.319852
Si Si4 0.954981 0.651199 0.608137
Si Si5 0.284257 0.310445 0.484713
Si Si6 0.613481 0.763059 0.762235
Si Si7 0.663813 0.515954 0.506790
Si Si8 0.040903 0.469939 0.843484
O O1 0.589149 0.407120 0.054998
O O2 0.494820 0.310443 0.303565
O O3 0.655121 0.473900 0.334524
O O4 0.510554 0.471704 0.240717
O O5 0.944458 0.733383 0.530541
O O6 0.027236 0.788024 0.278122
O O7 0.909744 0.843032 0.343547
O O8 0.691271 0.338607 0.485613
O O9 0.764619 0.274802 0.280826
O O10 0.063596 0.683931 0.649119
O O11 0.923421 0.567049 0.485108
O O12 0.900618 0.624312 0.766482
O O13 0.318330 0.253317 0.376923
O O14 0.230102 0.360119 0.415032
O O15 0.378636 0.386690 0.568651
O O16 0.561378 0.451384 0.583282
#
# Coordination Sequence:
#
# PCOD9580041 Si02
#       8
#     6   6   6   6   6   6   6   6
#     4  11  25  42  69 104 144 194 256 303 380 446
#     4  11  25  53  75 107 145 192 240 303 391 471
#     4  12  28  46  68 107 153 203 257 320 385 457
#     4  10  26  44  72 110 144 188 249 308 375 453
#     4  11  25  45  75 100 142 188 244 303 375 449
#     4  12  25  43  71 108 139 185 244 312 365 448
#     4  11  23  48  70 101 150 204 254 310 381 448
#     4  10  23  47  72  97 145 202 244 303 372 462
#
# _framework density 23.573022000000002
#
# number of rings (size 3 to 8) (size 9 to 14) (size 15 to 20)
#    0.000    1.000    5.000    0.000    7.000    0.000 
#    6.750    0.000    0.000    0.000    0.000    0.000 
#    0.000    0.000    0.000    0.000    0.000    0.000 
#
# Total GULP energy -268336.795304 kJ/mol
# GULP energy per Si atom -5590.349902 kJ/mol
# Density = 2.351937 g / cm^3
# Si number density = 23.573022 Si / 1000 Ang^3
#
#
#
# Elastic Constant Matrix: (Units=GPa)
#
#
# Indices 1 2 3 4 5 6 
#
# 1 92.7475 30.9237 36.9432 0.0000 0.0000 0.0000
# 2 30.9237 92.7475 36.9432 0.0000 0.0000 0.0000
# 3 36.9432 36.9432 114.4347 0.0000 0.0000 0.0000
# 4 0.0000 0.0000 0.0000 46.6752 0.0000 0.0000
# 5 0.0000 0.0000 0.0000 0.0000 46.6752 0.0000
# 6 0.0000 0.0000 0.0000 0.0000 0.0000 30.9119
#
#
#
# Elastic Compliance Matrix: (Units=1/GPa)
#
#
# Indices 1 2 3 4 5 6 
#
# 1 0.013097 -0.003078 -0.003234 0.000000 0.000000 0.000000
# 2 -0.003078 0.013097 -0.003234 0.000000 0.000000 0.000000
# 3 -0.003234 -0.003234 0.010827 0.000000 0.000000 0.000000
# 4 0.000000 0.000000 0.000000 0.021425 0.000000 0.000000
# 5 0.000000 0.000000 0.000000 0.000000 0.021425 0.000000
# 6 0.000000 0.000000 0.000000 0.000000 0.000000 0.032350
#
#
# Mechanical properties :
#
#
# Convention : Reuss Voigt Hill
#
# Bulk Modulus (GPa) = 55.78357 56.61666 56.20011
# Shear Modulus (GPa) = 36.41970 37.86045 37.14007
#
# Velocity S-wave (km/s) = 3.93488 4.01196 3.97360
# Velocity P-wave (km/s) = 6.66032 6.74765 6.70413
#
# Compressibility (1/GPa) = 0.01792643
#
# Stress axis : x y z
#
# Youngs Moduli (GPa) = 76.35571 76.35571 92.36326
#
# Poissons Ratio (x) = 0.23505 0.29872
# Poissons Ratio (y) = 0.23505 0.29872
# Poissons Ratio (z) = 0.24695 0.24695
#
# Static dielectric constant tensor:
#      x y z
#    x 1.937480 0.000000 0.000000 
#    y 0.000000 1.937480 0.000000 
#    z 0.000000 0.000000 1.930370 
# 
# From -- ./inp_files/740.got.cif
#   From: 2010.05.17/outbox.cif.g08.bks.cpg/sg169_cif.got.tgz:740.got - 2010.05.20 11:12:54.
