data_PCOD9580853
_publ_section_title
;
Structure prediction by ZEFSAII (Michael W. Deem and Ramdas Pophale) SiO2 
 PCOD9580853
Probable space group: P 62
;
_chemical_formula_sum "Si O2"
_cell_formula_units_Z 24
_cell_length_a 13.788067
_cell_length_b 13.788067
_cell_length_c 5.194054
_cell_angle_alpha 90.000000
_cell_angle_beta 90.000000
_cell_angle_gamma 120.000000
_cell_volume 855.153076
_symmetry_space_group_name_H-M "P 62"
_symmetry_group_IT_number 171
_symmetry_cell_setting 'hexagonal'
loop_
_space_group_symop_operation_xyz
x,y,z
x-y,x,1/3+z
-y,x-y,2/3+z
-x,-y,z
-x+y,-x,1/3+z
y,-x+y,2/3+z
loop_
_atom_site_type_symbol
_atom_site_label
_atom_site_fract_x
_atom_site_fract_y
_atom_site_fract_z
Si Si1 0.646823 0.755097 0.313000
Si Si2 0.409084 0.794091 0.640802
Si Si3 0.113487 0.647117 0.813869
Si Si4 0.197369 0.053081 0.627507
O O1 0.562464 0.782856 0.151691
O O2 0.634497 0.641575 0.428501
O O3 0.683033 0.847636 0.536878
O O4 0.756325 0.791702 0.137322
O O5 0.311567 0.728992 0.421026
O O6 0.495472 0.884095 0.438762
O O7 0.444139 0.860259 0.917573
O O8 0.120042 0.978735 0.401573
#
# Coordination Sequence:
#
# PCOD9580853 Si02
#       4
#     6   6   6   6
#     4  12  26  41  67 114 156 208 252 320 371 443
#     4  12  25  54  85 109 137 202 253 338 423 480
#     4  12  26  46  79 112 162 195 258 316 386 476
#     4  12  23  41  59  94 164 216 265 294 349 457
#
# _framework density 28.065148000000001
#
# number of rings (size 3 to 8) (size 9 to 14) (size 15 to 20)
#    0.000    0.000    7.500    1.500    0.000    5.000 
#    0.000    7.500    0.000    0.000    0.000    0.000 
#    0.000    0.000    0.000    0.000    0.000    0.000 
#
# Total GULP energy -133867.931096 kJ/mol
# GULP energy per Si atom -5577.830462 kJ/mol
# Density = 2.800127 g / cm^3
# Si number density = 28.065148 Si / 1000 Ang^3
#
#
#
# Elastic Constant Matrix: (Units=GPa)
#
#
# Indices 1 2 3 4 5 6 
#
# 1 67.3320 3.2774 38.5970 0.0000 0.0000 0.0000
# 2 3.2774 67.3320 38.5970 0.0000 0.0000 0.0000
# 3 38.5970 38.5970 195.5083 0.0000 0.0000 0.0000
# 4 0.0000 0.0000 0.0000 17.2965 0.0000 0.0000
# 5 0.0000 0.0000 0.0000 0.0000 17.2965 0.0000
# 6 0.0000 0.0000 0.0000 0.0000 0.0000 32.0273
#
#
#
# Elastic Compliance Matrix: (Units=1/GPa)
#
#
# Indices 1 2 3 4 5 6 
#
# 1 0.016836 0.001224 -0.003565 0.000000 0.000000 0.000000
# 2 0.001224 0.016836 -0.003565 0.000000 0.000000 0.000000
# 3 -0.003565 -0.003565 0.006523 0.000000 0.000000 0.000000
# 4 0.000000 0.000000 0.000000 0.057815 0.000000 0.000000
# 5 0.000000 0.000000 0.000000 0.000000 0.057815 0.000000
# 6 0.000000 0.000000 0.000000 0.000000 0.000000 0.031223
#
#
# Mechanical properties :
#
#
# Convention : Reuss Voigt Hill
#
# Bulk Modulus (GPa) = 35.23415 54.56835 44.90125
# Shear Modulus (GPa) = 24.00133 29.97080 26.98607
#
# Velocity S-wave (km/s) = 2.92755 3.27142 3.10425
# Velocity P-wave (km/s) = 4.89991 5.80993 5.37421
#
# Compressibility (1/GPa) = 0.02838156
#
# Stress axis : x y z
#
# Youngs Moduli (GPa) = 59.39644 59.39644 153.31193
#
# Poissons Ratio (x) = -0.07272 0.54663
# Poissons Ratio (y) = -0.07272 0.54663
# Poissons Ratio (z) = 0.21178 0.21178
#
# Static dielectric constant tensor:
#      x y z
#    x 2.318780 0.000000 0.000000 
#    y 0.000000 2.318780 0.000000 
#    z 0.000000 0.000000 2.239070 
# 
# From -- ./inp_files/234.got.cif
#   From: 2010.05.17/outbox.cif.g08.bks.cpg/sg171_1_cif.got.tgz:234.got - 2010.05.20 11:16:09.
