data_PCOD9580473
_publ_section_title
;
Structure prediction by ZEFSAII (Michael W. Deem and Ramdas Pophale) SiO2 
 PCOD9580473
Probable space group: P 62
;
_chemical_formula_sum "Si O2"
_cell_formula_units_Z 39
_cell_length_a 13.629421
_cell_length_b 13.629421
_cell_length_c 12.567938
_cell_angle_alpha 90.000000
_cell_angle_beta 90.000000
_cell_angle_gamma 120.000000
_cell_volume 2021.852525
_symmetry_space_group_name_H-M "P 62"
_symmetry_group_IT_number 171
_symmetry_cell_setting 'hexagonal'
loop_
_space_group_symop_operation_xyz
x,y,z
x-y,x,1/3+z
-y,x-y,2/3+z
-x,-y,z
-x+y,-x,1/3+z
y,-x+y,2/3+z
loop_
_atom_site_type_symbol
_atom_site_label
_atom_site_fract_x
_atom_site_fract_y
_atom_site_fract_z
Si Si1 0.243940 0.518780 0.417170
Si Si2 0.000000 0.500000 0.156821
Si Si3 0.673575 0.720509 0.942229
Si Si4 0.595881 0.115115 0.156556
Si Si5 0.212704 0.317498 0.135356
Si Si6 0.313055 0.773905 0.372235
Si Si7 0.062710 0.427437 0.601183
O O1 0.159092 0.428577 0.332425
O O2 0.358132 0.517573 0.436948
O O3 0.294184 0.648984 0.383955
O O4 0.173229 0.487401 0.526500
O O5 0.012138 0.606107 0.226134
O O6 0.881147 0.458769 0.093718
O O7 0.729346 0.819641 0.855029
O O8 0.763568 0.735535 0.031515
O O9 0.676547 0.195784 0.247643
O O10 0.500000 0.000000 0.209085
O O11 0.659073 0.095297 0.058246
O O12 0.237296 0.439848 0.095085
O O13 0.303215 0.324563 0.221922
O O14 0.000000 0.500000 0.586317
#
# Coordination Sequence:
#
# PCOD9580473 Si02
#       7
#     6   3   6   6   6   6   6
#     4  11  22  35  57  81 112 164 207 238 300 361
#     4  10  22  34  48  76 122 160 204 244 296 348
#     4  10  21  37  58  87 112 166 201 257 289 373
#     4  11  23  35  50  78 121 156 200 249 292 346
#     4  10  21  36  60  80 121 152 207 240 307 353
#     4  11  22  36  51  84 117 167 197 250 292 366
#     4  10  19  37  56  81 111 158 206 248 287 362
#
# _framework density 19.289241000000001
#
# number of rings (size 3 to 8) (size 9 to 14) (size 15 to 20)
#    0.000    1.538    2.308    3.692   10.769    0.000 
#    0.000    0.000    0.000    0.000    0.000    0.000 
#    0.000   40.615    0.000    0.000    0.000    0.000 
#
# Total GULP energy -217551.678308 kJ/mol
# GULP energy per Si atom -5578.248162 kJ/mol
# Density = 1.924534 g / cm^3
# Si number density = 19.289241 Si / 1000 Ang^3
#
#
#
# Elastic Constant Matrix: (Units=GPa)
#
#
# Indices 1 2 3 4 5 6 
#
# 1 70.3110 33.0607 35.5314 0.0000 0.0000 0.0000
# 2 33.0607 70.3110 35.5314 0.0000 0.0000 0.0000
# 3 35.5314 35.5314 115.6741 0.0000 0.0000 0.0000
# 4 0.0000 0.0000 0.0000 24.4811 0.0000 0.0000
# 5 0.0000 0.0000 0.0000 0.0000 24.4811 0.0000
# 6 0.0000 0.0000 0.0000 0.0000 0.0000 18.6251
#
#
#
# Elastic Compliance Matrix: (Units=1/GPa)
#
#
# Indices 1 2 3 4 5 6 
#
# 1 0.019554 -0.007291 -0.003767 0.000000 0.000000 0.000000
# 2 -0.007291 0.019554 -0.003767 0.000000 0.000000 0.000000
# 3 -0.003767 -0.003767 0.010959 0.000000 0.000000 0.000000
# 4 0.000000 0.000000 0.000000 0.040848 0.000000 0.000000
# 5 0.000000 0.000000 0.000000 0.000000 0.040848 0.000000
# 6 0.000000 0.000000 0.000000 0.000000 0.000000 0.053691
#
#
# Mechanical properties :
#
#
# Convention : Reuss Voigt Hill
#
# Bulk Modulus (GPa) = 48.97583 51.61589 50.29586
# Shear Modulus (GPa) = 22.53161 23.66229 23.09695
#
# Velocity S-wave (km/s) = 3.42144 3.50624 3.46410
# Velocity P-wave (km/s) = 6.40732 6.57333 6.49085
#
# Compressibility (1/GPa) = 0.02041824
#
# Stress axis : x y z
#
# Youngs Moduli (GPa) = 51.13931 51.13931 91.24800
#
# Poissons Ratio (x) = 0.37286 0.34372
# Poissons Ratio (y) = 0.37286 0.34372
# Poissons Ratio (z) = 0.19264 0.19264
#
# Static dielectric constant tensor:
#      x y z
#    x 1.704320 0.000000 0.000000 
#    y 0.000000 1.704320 0.000000 
#    z 0.000000 0.000000 1.736490 
# 
# From -- ./inp_files/1997.got.cif
#   From: 2010.05.17/outbox.cif.g08.bks.cpg/sg171_1_cif.got.tgz:1997.got - 2010.05.20 11:16:09.
