data_PCOD9580075
_publ_section_title
;
Structure prediction by ZEFSAII (Michael W. Deem and Ramdas Pophale) SiO2 
 PCOD9580075
Probable space group: P 61
;
_chemical_formula_sum "Si O2"
_cell_formula_units_Z 42
_cell_length_a 14.589072
_cell_length_b 14.589072
_cell_length_c 14.376900
_cell_angle_alpha 90.000000
_cell_angle_beta 90.000000
_cell_angle_gamma 120.000000
_cell_volume 2650.032614
_symmetry_space_group_name_H-M "P 61"
_symmetry_group_IT_number 169
_symmetry_cell_setting 'hexagonal'
loop_
_space_group_symop_operation_xyz
x,y,z
x-y,x,1/6+z
-y,x-y,1/3+z
-x,-y,1/2+z
-x+y,-x,2/3+z
y,-x+y,5/6+z
loop_
_atom_site_type_symbol
_atom_site_label
_atom_site_fract_x
_atom_site_fract_y
_atom_site_fract_z
Si Si1 0.521444 0.555673 0.025520
Si Si2 0.462996 0.762216 0.556460
Si Si3 0.603670 0.890638 0.290746
Si Si4 0.879219 0.592606 0.571997
Si Si5 0.450318 0.480675 0.320592
Si Si6 0.427468 0.850569 0.005902
Si Si7 0.500348 0.270964 0.624731
O O1 0.552092 0.482903 0.086963
O O2 0.547185 0.657478 0.087127
O O3 0.394057 0.492622 0.004153
O O4 0.572662 0.571609 0.923040
O O5 0.519745 0.726815 0.480904
O O6 0.527930 0.883135 0.591431
O O7 0.450646 0.689655 0.644551
O O8 0.353095 0.744119 0.512104
O O9 0.637606 0.820462 0.349007
O O10 0.565161 0.825411 0.195058
O O11 0.693387 0.011206 0.279927
O O12 0.915309 0.522516 0.510204
O O13 0.513485 0.438197 0.259705
O O14 0.481585 0.783050 0.035179
#
# Coordination Sequence:
#
# PCOD9580075 Si02
#       7
#     6   6   6   6   6   6   6
#     4  11  22  38  52  82 116 149 192 236 275 349
#     4  12  22  34  56  80 114 158 190 225 286 342
#     4  11  20  37  56  82 113 147 194 233 277 337
#     4  11  20  37  56  82 113 147 194 233 277 337
#     4  11  22  38  52  82 116 149 192 236 275 349
#     4  12  22  34  54  78 112 156 190 234 272 330
#     4  12  22  34  56  80 114 158 190 225 286 342
#
# _framework density 15.848862
#
# number of rings (size 3 to 8) (size 9 to 14) (size 15 to 20)
#    0.000    0.571   10.000    1.714    0.000    0.000 
#    0.000    0.000    0.000    0.000    0.000    2.000 
#    0.000    0.000    0.000    0.000    0.000    0.000 
#
# Total GULP energy -234080.495527 kJ/mol
# GULP energy per Si atom -5573.345132 kJ/mol
# Density = 1.581279 g / cm^3
# Si number density = 15.848862 Si / 1000 Ang^3
#
#
#
# Elastic Constant Matrix: (Units=GPa)
#
#
# Indices 1 2 3 4 5 6 
#
# 1 39.1531 2.1414 0.9184 0.0000 0.0000 0.0000
# 2 2.1414 39.1531 0.9184 0.0000 0.0000 0.0000
# 3 0.9184 0.9184 56.4604 0.0000 0.0000 0.0000
# 4 0.0000 0.0000 0.0000 41.5707 0.0000 0.0000
# 5 0.0000 0.0000 0.0000 0.0000 41.5707 0.0000
# 6 0.0000 0.0000 0.0000 0.0000 0.0000 18.5059
#
#
#
# Elastic Compliance Matrix: (Units=1/GPa)
#
#
# Indices 1 2 3 4 5 6 
#
# 1 0.025626 -0.001392 -0.000394 0.000000 0.000000 0.000000
# 2 -0.001392 0.025626 -0.000394 0.000000 0.000000 0.000000
# 3 -0.000394 -0.000394 0.017724 0.000000 0.000000 0.000000
# 4 0.000000 0.000000 0.000000 0.024055 0.000000 0.000000
# 5 0.000000 0.000000 0.000000 0.000000 0.024055 0.000000
# 6 0.000000 0.000000 0.000000 0.000000 0.000000 0.054037
#
#
# Mechanical properties :
#
#
# Convention : Reuss Voigt Hill
#
# Bulk Modulus (GPa) = 15.47623 15.85811 15.66717
# Shear Modulus (GPa) = 25.37759 29.04867 27.21313
#
# Velocity S-wave (km/s) = 4.00587 4.28583 4.14821
# Velocity P-wave (km/s) = 5.58409 5.87526 5.73153
#
# Compressibility (1/GPa) = 0.06461524
#
# Stress axis : x y z
#
# Youngs Moduli (GPa) = 39.02266 39.02266 56.41959
#
# Poissons Ratio (x) = 0.05433 0.02224
# Poissons Ratio (y) = 0.05433 0.02224
# Poissons Ratio (z) = 0.01538 0.01538
#
# Static dielectric constant tensor:
#      x y z
#    x 1.520530 0.000000 0.000000 
#    y 0.000000 1.520530 0.000000 
#    z 0.000000 0.000000 1.600340 
# 
# From -- ./inp_files/1222.got.cif
#   From: 2010.05.17/outbox.cif.g08.bks.cpg/sg169_cif.got.tgz:1222.got - 2010.05.20 11:12:54.
