data_PCOD9580275
_publ_section_title
;
Structure prediction by ZEFSAII (Michael W. Deem and Ramdas Pophale) SiO2 
 PCOD9580275
Probable space group: P 65
;
_chemical_formula_sum "Si O2"
_cell_formula_units_Z 30
_cell_length_a 15.380360
_cell_length_b 15.380360
_cell_length_c 7.340379
_cell_angle_alpha 90.000000
_cell_angle_beta 90.000000
_cell_angle_gamma 120.000000
_cell_volume 1503.772428
_symmetry_space_group_name_H-M "P 65"
_symmetry_group_IT_number 170
_symmetry_cell_setting 'hexagonal'
loop_
_space_group_symop_operation_xyz
x,y,z
x-y,x,5/6+z
-y,x-y,2/3+z
-x,-y,1/2+z
-x+y,-x,1/3+z
y,-x+y,1/6+z
loop_
_atom_site_type_symbol
_atom_site_label
_atom_site_fract_x
_atom_site_fract_y
_atom_site_fract_z
Si Si1 0.632007 0.924926 0.818240
Si Si2 0.578059 0.420045 0.062195
Si Si3 0.228130 0.795150 0.814422
Si Si4 0.612943 0.767002 0.560445
Si Si5 0.942415 0.500397 0.005495
O O1 0.656854 0.871337 0.659749
O O2 0.525089 0.915944 0.774057
O O3 0.709922 0.042197 0.807278
O O4 0.619887 0.863767 0.005602
O O5 0.523569 0.421301 0.874772
O O6 0.694545 0.460581 0.028293
O O7 0.504923 0.305744 0.120385
O O8 0.567811 0.504927 0.174485
O O9 0.335081 0.883207 0.738781
O O10 0.215136 0.835512 0.009662
#
# Coordination Sequence:
#
# PCOD9580275 Si02
#       5
#     6   6   6   6   6
#     4  10  23  38  57  88 116 155 203 246 298 365
#     4   9  20  35  53  83 115 152 194 231 289 350
#     4  10  22  34  60  82 120 160 194 240 304 346
#     4  10  23  38  57  88 116 155 203 246 298 365
#     4   9  20  35  53  83 115 152 194 231 289 350
#
# _framework density 19.949826999999999
#
# number of rings (size 3 to 8) (size 9 to 14) (size 15 to 20)
#    0.000    2.400    0.000    0.000   16.800    4.800 
#    0.000    0.000    0.000    0.000    5.200    0.000 
#    0.000    0.000    0.000    0.000    0.000    0.000 
#
# Total GULP energy -167256.605786 kJ/mol
# GULP energy per Si atom -5575.220193 kJ/mol
# Density = 1.990442 g / cm^3
# Si number density = 19.949827 Si / 1000 Ang^3
#
#
#
# Elastic Constant Matrix: (Units=GPa)
#
#
# Indices 1 2 3 4 5 6 
#
# 1 25.4319 5.8972 16.7133 0.0000 0.0000 0.0000
# 2 5.8972 25.4319 16.7133 0.0000 0.0000 0.0000
# 3 16.7133 16.7133 85.1479 0.0000 0.0000 0.0000
# 4 0.0000 0.0000 0.0000 26.9687 0.0000 0.0000
# 5 0.0000 0.0000 0.0000 0.0000 26.9687 0.0000
# 6 0.0000 0.0000 0.0000 0.0000 0.0000 9.7674
#
#
#
# Elastic Compliance Matrix: (Units=1/GPa)
#
#
# Indices 1 2 3 4 5 6 
#
# 1 0.045783 -0.005408 -0.007925 0.000000 0.000000 0.000000
# 2 -0.005408 0.045783 -0.007925 0.000000 0.000000 0.000000
# 3 -0.007925 -0.007925 0.014855 0.000000 0.000000 0.000000
# 4 0.000000 0.000000 0.000000 0.037080 0.000000 0.000000
# 5 0.000000 0.000000 0.000000 0.000000 0.037080 0.000000
# 6 0.000000 0.000000 0.000000 0.000000 0.000000 0.102382
#
#
# Mechanical properties :
#
#
# Convention : Reuss Voigt Hill
#
# Bulk Modulus (GPa) = 15.64823 23.85106 19.74964
# Shear Modulus (GPa) = 14.41834 19.18681 16.80258
#
# Velocity S-wave (km/s) = 2.69128 3.10458 2.90529
# Velocity P-wave (km/s) = 4.18547 4.98324 4.60168
#
# Compressibility (1/GPa) = 0.06390498
#
# Stress axis : x y z
#
# Youngs Moduli (GPa) = 21.84226 21.84226 67.31559
#
# Poissons Ratio (x) = 0.11812 0.53348
# Poissons Ratio (y) = 0.11812 0.53348
# Poissons Ratio (z) = 0.17310 0.17310
#
# Static dielectric constant tensor:
#      x y z
#    x 1.743530 0.000000 0.000000 
#    y 0.000000 1.743530 0.000000 
#    z 0.000000 0.000000 1.798940 
# 
# From -- ./inp_files/511.got.cif
#   From: 2010.05.17/outbox.cif.g08.bks.cpg/sg170_cif.got.tgz:511.got - 2010.05.20 11:14:30.
