data_PCOD9580624
_publ_section_title
;
Structure prediction by ZEFSAII (Michael W. Deem and Ramdas Pophale) SiO2 
 PCOD9580624
Probable space group: P 62
;
_chemical_formula_sum "Si O2"
_cell_formula_units_Z 45
_cell_length_a 17.851620
_cell_length_b 17.851620
_cell_length_c 9.094622
_cell_angle_alpha 90.000000
_cell_angle_beta 90.000000
_cell_angle_gamma 120.000000
_cell_volume 2509.981683
_symmetry_space_group_name_H-M "P 62"
_symmetry_group_IT_number 171
_symmetry_cell_setting 'hexagonal'
loop_
_space_group_symop_operation_xyz
x,y,z
x-y,x,1/3+z
-y,x-y,2/3+z
-x,-y,z
-x+y,-x,1/3+z
y,-x+y,2/3+z
loop_
_atom_site_type_symbol
_atom_site_label
_atom_site_fract_x
_atom_site_fract_y
_atom_site_fract_z
Si Si1 0.737399 0.436736 0.759090
Si Si2 0.337710 0.385226 0.802106
Si Si3 0.530158 0.117485 0.721289
Si Si4 0.747768 0.454934 0.082787
Si Si5 0.115873 0.413889 0.309827
Si Si6 0.774434 0.593934 0.560619
Si Si7 0.484579 0.869480 0.042010
Si Si8 0.500000 0.500000 0.599028
O O1 0.633398 0.383000 0.770629
O O2 0.764706 0.507971 0.635138
O O3 0.774001 0.373698 0.717128
O O4 0.775149 0.481580 0.914897
O O5 0.341454 0.307434 0.885451
O O6 0.255008 0.366481 0.698956
O O7 0.422246 0.430724 0.697586
O O8 0.363399 0.458219 0.929339
O O9 0.571618 0.219575 0.748190
O O10 0.603801 0.093541 0.685868
O O11 0.493554 0.085892 0.884231
O O12 0.803363 0.530375 0.198244
O O13 0.143028 0.377159 0.451270
O O14 0.697364 0.565844 0.444195
O O15 0.458102 0.920096 0.156145
#
# Coordination Sequence:
#
# PCOD9580624 Si02
#       8
#     6   6   6   6   6   6   6   3
#     4  12  20  30  47  69  97 128 171 226 284 345
#     4  11  23  39  49  71 102 135 170 227 297 356
#     4  12  21  32  51  73 100 129 174 225 281 346
#     4  12  21  31  49  71  96 128 168 224 283 336
#     4  12  22  36  54  69  97 139 172 223 305 351
#     4  11  22  35  49  70  97 129 175 229 282 352
#     4  11  22  32  47  72  94 126 176 225 275 338
#     4  10  22  36  48  66 100 132 168 218 286 340
#
# _framework density 17.928417
#
# number of rings (size 3 to 8) (size 9 to 14) (size 15 to 20)
#    0.000    0.533    8.000    2.400    1.867    0.000 
#    0.000    0.000    0.000    0.000    0.000    0.000 
#    0.000    0.000    0.000    0.000    0.000    0.000 
#
# Total GULP energy -250664.281362 kJ/mol
# GULP energy per Si atom -5570.317364 kJ/mol
# Density = 1.788761 g / cm^3
# Si number density = 17.928417 Si / 1000 Ang^3
#
#
#
# Elastic Constant Matrix: (Units=GPa)
#
#
# Indices 1 2 3 4 5 6 
#
# 1 41.1658 18.7261 26.3557 0.0000 0.0000 0.0000
# 2 18.7261 41.1658 26.3557 0.0000 0.0000 0.0000
# 3 26.3557 26.3557 139.8210 0.0000 0.0000 0.0000
# 4 0.0000 0.0000 0.0000 26.5204 0.0000 0.0000
# 5 0.0000 0.0000 0.0000 0.0000 26.5204 0.0000
# 6 0.0000 0.0000 0.0000 0.0000 0.0000 11.2198
#
#
#
# Elastic Compliance Matrix: (Units=1/GPa)
#
#
# Indices 1 2 3 4 5 6 
#
# 1 0.032291 -0.012273 -0.003773 0.000000 0.000000 0.000000
# 2 -0.012273 0.032291 -0.003773 0.000000 0.000000 0.000000
# 3 -0.003773 -0.003773 0.008574 0.000000 0.000000 0.000000
# 4 0.000000 0.000000 0.000000 0.037707 0.000000 0.000000
# 5 0.000000 0.000000 0.000000 0.000000 0.037707 0.000000
# 6 0.000000 0.000000 0.000000 0.000000 0.000000 0.089128
#
#
# Mechanical properties :
#
#
# Convention : Reuss Voigt Hill
#
# Bulk Modulus (GPa) = 29.83586 40.55862 35.19724
# Shear Modulus (GPa) = 17.33049 22.89981 20.11515
#
# Velocity S-wave (km/s) = 3.11247 3.57780 3.35322
# Velocity P-wave (km/s) = 5.44008 6.30390 5.88785
#
# Compressibility (1/GPa) = 0.03351671
#
# Stress axis : x y z
#
# Youngs Moduli (GPa) = 30.96864 30.96864 116.62521
#
# Poissons Ratio (x) = 0.38008 0.44005
# Poissons Ratio (y) = 0.38008 0.44005
# Poissons Ratio (z) = 0.11685 0.11685
#
# Static dielectric constant tensor:
#      x y z
#    x 1.676950 0.000000 0.000000 
#    y 0.000000 1.676950 0.000000 
#    z 0.000000 0.000000 1.733540 
# 
# From -- ./inp_files/1319.got.cif
#   From: 2010.05.17/outbox.cif.g08.bks.cpg/sg171_1_cif.got.tgz:1319.got - 2010.05.20 11:16:09.
