data_PCOD9580223
_publ_section_title
;
Structure prediction by ZEFSAII (Michael W. Deem and Ramdas Pophale) SiO2 
 PCOD9580223
Probable space group: P 65
;
_chemical_formula_sum "Si O2"
_cell_formula_units_Z 42
_cell_length_a 18.235149
_cell_length_b 18.235149
_cell_length_c 7.567414
_cell_angle_alpha 90.000000
_cell_angle_beta 90.000000
_cell_angle_gamma 120.000000
_cell_volume 2179.198335
_symmetry_space_group_name_H-M "P 65"
_symmetry_group_IT_number 170
_symmetry_cell_setting 'hexagonal'
loop_
_space_group_symop_operation_xyz
x,y,z
x-y,x,5/6+z
-y,x-y,2/3+z
-x,-y,1/2+z
-x+y,-x,1/3+z
y,-x+y,1/6+z
loop_
_atom_site_type_symbol
_atom_site_label
_atom_site_fract_x
_atom_site_fract_y
_atom_site_fract_z
Si Si1 0.400825 0.119149 0.083190
Si Si2 0.955817 0.829721 0.457711
Si Si3 0.433099 0.030035 0.395407
Si Si4 0.099266 0.327000 0.434603
Si Si5 0.634666 0.750587 0.705369
Si Si6 0.422370 0.011007 0.807212
Si Si7 0.751132 0.928265 0.350422
O O1 0.421557 0.094411 0.271367
O O2 0.414504 0.212580 0.095069
O O3 0.443721 0.088566 0.938420
O O4 0.302374 0.068913 0.019508
O O5 0.902362 0.849502 0.601535
O O6 0.938420 0.734407 0.487266
O O7 0.909952 0.821272 0.268107
O O8 0.430515 0.041407 0.605073
O O9 0.349124 0.940881 0.354438
O O10 0.515520 0.025167 0.343604
O O11 0.137714 0.362193 0.243917
O O12 0.159272 0.311101 0.563670
O O13 0.061212 0.385286 0.503181
O O14 0.014916 0.234036 0.414678
#
# Coordination Sequence:
#
# PCOD9580223 Si02
#       7
#     6   6   6   6   6   6   6
#     4  10  22  35  59  90 122 159 196 255 304 372
#     4  11  22  39  51  73 113 167 212 262 310 365
#     4  11  21  40  62  97 120 158 202 268 313 376
#     4  10  22  36  58  94 118 161 204 263 305 368
#     4  10  23  36  60  88 120 157 206 256 314 372
#     4  10  22  38  64  91 126 151 208 255 323 371
#     4  10  20  36  58  81 123 155 210 253 311 352
#
# _framework density 19.273142
#
# number of rings (size 3 to 8) (size 9 to 14) (size 15 to 20)
#    0.000    1.714    2.857    1.714   14.000    0.000 
#    2.571    0.000    0.000    0.000   11.143    0.000 
#    0.000    0.000    0.000    0.000    0.000    0.000 
#
# Total GULP energy -234226.912721 kJ/mol
# GULP energy per Si atom -5576.831255 kJ/mol
# Density = 1.922928 g / cm^3
# Si number density = 19.273142 Si / 1000 Ang^3
#
#
#
# Elastic Constant Matrix: (Units=GPa)
#
#
# Indices 1 2 3 4 5 6 
#
# 1 71.5104 21.2512 11.8393 0.0000 0.0000 0.0000
# 2 21.2512 71.5104 11.8393 0.0000 0.0000 0.0000
# 3 11.8393 11.8393 27.4394 0.0000 0.0000 0.0000
# 4 0.0000 0.0000 0.0000 28.8971 0.0000 0.0000
# 5 0.0000 0.0000 0.0000 0.0000 28.8971 0.0000
# 6 0.0000 0.0000 0.0000 0.0000 0.0000 25.1296
#
#
#
# Elastic Compliance Matrix: (Units=1/GPa)
#
#
# Indices 1 2 3 4 5 6 
#
# 1 0.016006 -0.003891 -0.005227 0.000000 0.000000 0.000000
# 2 -0.003891 0.016006 -0.005227 0.000000 0.000000 0.000000
# 3 -0.005227 -0.005227 0.040955 0.000000 0.000000 0.000000
# 4 0.000000 0.000000 0.000000 0.034606 0.000000 0.000000
# 5 0.000000 0.000000 0.000000 0.000000 0.034606 0.000000
# 6 0.000000 0.000000 0.000000 0.000000 0.000000 0.039794
#
#
# Mechanical properties :
#
#
# Convention : Reuss Voigt Hill
#
# Bulk Modulus (GPa) = 22.58588 28.92441 25.75514
# Shear Modulus (GPa) = 22.18083 24.95346 23.56714
#
# Velocity S-wave (km/s) = 3.39612 3.60214 3.50065
# Velocity P-wave (km/s) = 5.20793 5.68689 5.45267
#
# Compressibility (1/GPa) = 0.04427546
#
# Stress axis : x y z
#
# Youngs Moduli (GPa) = 62.47760 62.47760 24.41730
#
# Poissons Ratio (x) = 0.24311 0.12763
# Poissons Ratio (y) = 0.24311 0.12763
# Poissons Ratio (z) = 0.32658 0.32658
#
# Static dielectric constant tensor:
#      x y z
#    x 1.673200 0.000000 0.000000 
#    y 0.000000 1.673200 0.000000 
#    z 0.000000 0.000000 1.733730 
# 
# From -- ./inp_files/700.got.cif
#   From: 2010.05.17/outbox.cif.g08.bks.cpg/sg170_cif.got.tgz:700.got - 2010.05.20 11:14:30.
