data_PCOD9580263
_publ_section_title
;
Structure prediction by ZEFSAII (Michael W. Deem and Ramdas Pophale) SiO2 
 PCOD9580263
Probable space group: P 65
;
_chemical_formula_sum "Si O2"
_cell_formula_units_Z 36
_cell_length_a 7.874748
_cell_length_b 7.874748
_cell_length_c 26.866758
_cell_angle_alpha 90.000000
_cell_angle_beta 90.000000
_cell_angle_gamma 120.000000
_cell_volume 1442.843492
_symmetry_space_group_name_H-M "P 65"
_symmetry_group_IT_number 170
_symmetry_cell_setting 'hexagonal'
loop_
_space_group_symop_operation_xyz
x,y,z
x-y,x,5/6+z
-y,x-y,2/3+z
-x,-y,1/2+z
-x+y,-x,1/3+z
y,-x+y,1/6+z
loop_
_atom_site_type_symbol
_atom_site_label
_atom_site_fract_x
_atom_site_fract_y
_atom_site_fract_z
Si Si1 0.550665 0.839616 0.321150
Si Si2 0.320190 0.002199 0.067250
Si Si3 0.378155 0.099037 0.324125
Si Si4 0.300247 0.103868 0.716745
Si Si5 0.893838 0.875398 0.746478
Si Si6 0.206725 0.546750 0.830468
O O1 0.523340 0.685347 0.363163
O O2 0.603772 0.784280 0.268421
O O3 0.390025 0.904331 0.312119
O O4 0.741438 0.028029 0.346319
O O5 0.148146 0.057669 0.060004
O O6 0.298380 0.913425 0.122093
O O7 0.495007 0.199472 0.045030
O O8 0.591323 0.274478 0.308848
O O9 0.313914 0.066790 0.381497
O O10 0.210770 0.128481 0.297765
O O11 0.111026 0.911330 0.738065
O O12 0.447574 0.059758 0.686411
#
# Coordination Sequence:
#
# PCOD9580263 Si02
#       6
#     6   6   6   6   6   6
#     4  10  21  40  66  97 136 178 230 288 358 429
#     4  11  22  43  69  98 137 186 231 293 363 432
#     4  11  24  40  65 101 136 183 236 292 355 428
#     4  10  22  41  65  97 137 185 234 293 354 426
#     4  11  22  41  65  92 131 178 234 282 349 424
#     4  11  25  43  68 103 143 182 237 298 365 431
#
# _framework density 24.950733
#
# number of rings (size 3 to 8) (size 9 to 14) (size 15 to 20)
#    0.000    1.333    0.000    7.000    0.000    5.333 
#    0.000    6.667    0.000    0.000    0.000    0.000 
#    0.000    0.000    0.000    0.000    0.000    0.000 
#
# Total GULP energy -200546.741448 kJ/mol
# GULP energy per Si atom -5570.742818 kJ/mol
# Density = 2.489394 g / cm^3
# Si number density = 24.950733 Si / 1000 Ang^3
#
#
#
# Elastic Constant Matrix: (Units=GPa)
#
#
# Indices 1 2 3 4 5 6 
#
# 1 56.6863 7.1434 14.7372 0.0000 0.0000 0.0000
# 2 7.1434 56.6863 14.7372 0.0000 0.0000 0.0000
# 3 14.7372 14.7372 118.6646 0.0000 0.0000 0.0000
# 4 0.0000 0.0000 0.0000 27.1894 0.0000 0.0000
# 5 0.0000 0.0000 0.0000 0.0000 27.1894 0.0000
# 6 0.0000 0.0000 0.0000 0.0000 0.0000 24.7715
#
#
#
# Elastic Compliance Matrix: (Units=1/GPa)
#
#
# Indices 1 2 3 4 5 6 
#
# 1 0.018402 -0.001782 -0.002064 0.000000 0.000000 0.000000
# 2 -0.001782 0.018402 -0.002064 0.000000 0.000000 0.000000
# 3 -0.002064 -0.002064 0.008940 0.000000 0.000000 0.000000
# 4 0.000000 0.000000 0.000000 0.036779 0.000000 0.000000
# 5 0.000000 0.000000 0.000000 0.000000 0.036779 0.000000
# 6 0.000000 0.000000 0.000000 0.000000 0.000000 0.040369
#
#
# Mechanical properties :
#
#
# Convention : Reuss Voigt Hill
#
# Bulk Modulus (GPa) = 29.47836 33.91921 31.69878
# Shear Modulus (GPa) = 27.35233 28.85802 28.10517
#
# Velocity S-wave (km/s) = 3.31456 3.40457 3.35987
# Velocity P-wave (km/s) = 5.14672 5.39248 5.27103
#
# Compressibility (1/GPa) = 0.03392319
#
# Stress axis : x y z
#
# Youngs Moduli (GPa) = 54.34149 54.34149 111.85943
#
# Poissons Ratio (x) = 0.09686 0.23088
# Poissons Ratio (y) = 0.09686 0.23088
# Poissons Ratio (z) = 0.11216 0.11216
#
# Static dielectric constant tensor:
#      x y z
#    x 2.163980 0.000000 0.000000 
#    y 0.000000 2.163980 0.000000 
#    z 0.000000 0.000000 1.985250 
# 
# From -- ./inp_files/1786.got.cif
#   From: 2010.05.17/outbox.cif.g08.bks.cpg/sg170_cif.got.tgz:1786.got - 2010.05.20 11:14:30.
