data_PCOD9580415
_publ_section_title
;
Structure prediction by ZEFSAII (Michael W. Deem and Ramdas Pophale) SiO2 
 PCOD9580415
Probable space group: P 62
;
_chemical_formula_sum "Si O2"
_cell_formula_units_Z 45
_cell_length_a 14.198449
_cell_length_b 14.198449
_cell_length_c 14.093229
_cell_angle_alpha 90.000000
_cell_angle_beta 90.000000
_cell_angle_gamma 120.000000
_cell_volume 2460.497636
_symmetry_space_group_name_H-M "P 62"
_symmetry_group_IT_number 171
_symmetry_cell_setting 'hexagonal'
loop_
_space_group_symop_operation_xyz
x,y,z
x-y,x,1/3+z
-y,x-y,2/3+z
-x,-y,z
-x+y,-x,1/3+z
y,-x+y,2/3+z
loop_
_atom_site_type_symbol
_atom_site_label
_atom_site_fract_x
_atom_site_fract_y
_atom_site_fract_z
Si Si1 0.789639 0.600266 0.891070
Si Si2 0.493921 0.662606 0.723732
Si Si3 0.608270 0.345826 0.424126
Si Si4 0.042948 0.419020 0.254298
Si Si5 0.000000 0.500000 0.917407
Si Si6 0.372347 0.918076 0.948081
Si Si7 0.999951 0.690870 0.791520
Si Si8 0.579250 0.760594 0.098669
O O1 0.756407 0.485558 0.834898
O O2 0.693250 0.626685 0.896448
O O3 0.897365 0.691389 0.838345
O O4 0.820523 0.583440 0.997023
O O5 0.390105 0.675311 0.739302
O O6 0.534488 0.642398 0.822834
O O7 0.457024 0.558684 0.654920
O O8 0.541865 0.348660 0.332969
O O9 0.699458 0.470315 0.442300
O O10 0.123417 0.413057 0.331735
O O11 0.000000 0.500000 0.288144
O O12 0.003301 0.593949 0.851858
O O13 0.321016 0.893822 0.845618
O O14 0.500000 0.000000 0.944996
O O15 0.321453 0.969563 0.018102
O O16 0.118454 0.794872 0.788753
#
# Coordination Sequence:
#
# PCOD9580415 Si02
#       8
#     6   6   6   6   3   6   6   6
#     4  10  22  38  61  84 121 162 214 261 301 380
#     4  11  21  34  61  82 121 169 200 246 307 376
#     4  11  20  36  57  87 120 166 205 239 310 383
#     4  12  24  41  52  92 132 164 210 253 328 401
#     4  10  16  36  58  80 114 146 220 254 276 362
#     4  11  21  37  57  85 125 155 199 256 304 375
#     4  10  20  38  58  87 109 157 213 253 306 360
#     4  12  25  35  58  84 127 162 203 257 314 380
#
# _framework density 18.288985
#
# number of rings (size 3 to 8) (size 9 to 14) (size 15 to 20)
#    0.000    1.067    4.000    4.400    1.867    4.267 
#    0.000    0.000    0.000    0.000    0.000    9.333 
#    0.000    0.000    0.000    0.000    0.000    0.000 
#
# Total GULP energy -251188.375308 kJ/mol
# GULP energy per Si atom -5581.963896 kJ/mol
# Density = 1.824736 g / cm^3
# Si number density = 18.288985 Si / 1000 Ang^3
#
#
#
# Elastic Constant Matrix: (Units=GPa)
#
#
# Indices 1 2 3 4 5 6 
#
# 1 68.9713 23.0914 16.7879 0.0000 0.0000 0.0000
# 2 23.0914 68.9713 16.7879 0.0000 0.0000 0.0000
# 3 16.7879 16.7879 95.2935 0.0000 0.0000 0.0000
# 4 0.0000 0.0000 0.0000 8.5922 0.0000 0.0000
# 5 0.0000 0.0000 0.0000 0.0000 8.5922 0.0000
# 6 0.0000 0.0000 0.0000 0.0000 0.0000 22.9400
#
#
#
# Elastic Compliance Matrix: (Units=1/GPa)
#
#
# Indices 1 2 3 4 5 6 
#
# 1 0.016702 -0.005094 -0.002045 0.000000 0.000000 0.000000
# 2 -0.005094 0.016702 -0.002045 0.000000 0.000000 0.000000
# 3 -0.002045 -0.002045 0.011214 0.000000 0.000000 0.000000
# 4 0.000000 0.000000 0.000000 0.116385 0.000000 0.000000
# 5 0.000000 0.000000 0.000000 0.000000 0.116385 0.000000
# 6 0.000000 0.000000 0.000000 0.000000 0.000000 0.043592
#
#
# Mechanical properties :
#
#
# Convention : Reuss Voigt Hill
#
# Bulk Modulus (GPa) = 38.09458 38.50783 38.30120
# Shear Modulus (GPa) = 14.36376 19.79613 17.07995
#
# Velocity S-wave (km/s) = 2.80550 3.29357 3.05928
# Velocity P-wave (km/s) = 5.60079 5.96358 5.78503
#
# Compressibility (1/GPa) = 0.02625046
#
# Stress axis : x y z
#
# Youngs Moduli (GPa) = 59.87309 59.87309 89.17081
#
# Poissons Ratio (x) = 0.30499 0.18235
# Poissons Ratio (y) = 0.30499 0.18235
# Poissons Ratio (z) = 0.12244 0.12244
#
# Static dielectric constant tensor:
#      x y z
#    x 1.647440 0.000000 0.000000 
#    y 0.000000 1.647440 0.000000 
#    z 0.000000 0.000000 1.633940 
# 
# From -- ./inp_files/2122.got.cif
#   From: 2010.05.17/outbox.cif.g08.bks.cpg/sg171_2_cif.got.tgz:2122.got - 2010.05.20 11:16:09.
