data_PCOD9580448
_publ_section_title
;
Structure prediction by ZEFSAII (Michael W. Deem and Ramdas Pophale) SiO2 
 PCOD9580448
Probable space group: P 62
;
_chemical_formula_sum "Si O2"
_cell_formula_units_Z 36
_cell_length_a 10.059605
_cell_length_b 10.059605
_cell_length_c 18.333728
_cell_angle_alpha 90.000000
_cell_angle_beta 90.000000
_cell_angle_gamma 120.000000
_cell_volume 1606.731365
_symmetry_space_group_name_H-M "P 62"
_symmetry_group_IT_number 171
_symmetry_cell_setting 'hexagonal'
loop_
_space_group_symop_operation_xyz
x,y,z
x-y,x,1/3+z
-y,x-y,2/3+z
-x,-y,z
-x+y,-x,1/3+z
y,-x+y,2/3+z
loop_
_atom_site_type_symbol
_atom_site_label
_atom_site_fract_x
_atom_site_fract_y
_atom_site_fract_z
Si Si1 0.473483 0.211066 0.348110
Si Si2 0.529552 0.792666 0.505807
Si Si3 0.733863 0.144165 0.327057
Si Si4 0.414683 0.263190 0.880398
Si Si5 0.063917 0.382651 0.375164
Si Si6 0.612203 0.682712 0.198914
O O1 0.455218 0.267557 0.427380
O O2 0.644268 0.234038 0.348201
O O3 0.426187 0.259735 0.273372
O O4 0.362474 0.028183 0.353025
O O5 0.579485 0.726842 0.572846
O O6 0.357534 0.767391 0.517976
O O7 0.638388 0.976784 0.518958
O O8 0.905973 0.223736 0.357750
O O9 0.309875 0.085914 0.861394
O O10 0.421013 0.260758 0.968246
O O11 0.143881 0.396549 0.452708
O O12 0.000000 0.500000 0.377493
O O13 0.500000 0.500000 0.199592
#
# Coordination Sequence:
#
# PCOD9580448 Si02
#       6
#     6   6   6   6   6   6
#     4  11  23  37  57  89 127 150 190 247 309 358
#     4  10  19  37  64  86 110 156 207 240 288 359
#     4  10  20  39  61  87 112 159 200 241 292 353
#     4  10  18  38  63  88 111 156 208 245 287 355
#     4  10  19  37  65  83 114 155 210 241 282 365
#     4  11  24  36  53  91 125 154 189 250 312 351
#
# _framework density 22.405737999999999
#
# number of rings (size 3 to 8) (size 9 to 14) (size 15 to 20)
#    0.000    1.667    3.333    5.000    0.000    2.667 
#    3.000    3.333    0.000    8.000    0.000    0.000 
#    0.000    0.000    0.000    0.000    0.000    0.000 
#
# Total GULP energy -200820.002108 kJ/mol
# GULP energy per Si atom -5578.333392 kJ/mol
# Density = 2.235474 g / cm^3
# Si number density = 22.405738 Si / 1000 Ang^3
#
#
#
# Elastic Constant Matrix: (Units=GPa)
#
#
# Indices 1 2 3 4 5 6 
#
# 1 30.7402 -2.0219 10.9082 0.0000 0.0000 0.0000
# 2 -2.0219 30.7402 10.9082 0.0000 0.0000 0.0000
# 3 10.9082 10.9082 248.7501 0.0000 0.0000 0.0000
# 4 0.0000 0.0000 0.0000 -20.3045 0.0000 0.0000
# 5 0.0000 0.0000 0.0000 0.0000 -20.3045 0.0000
# 6 0.0000 0.0000 0.0000 0.0000 0.0000 16.3811
#
#
#
# Elastic Compliance Matrix: (Units=1/GPa)
#
#
# Indices 1 2 3 4 5 6 
#
# 1 0.033272 0.002749 -0.001580 0.000000 0.000000 0.000000
# 2 0.002749 0.033272 -0.001580 0.000000 0.000000 0.000000
# 3 -0.001580 -0.001580 0.004159 0.000000 0.000000 0.000000
# 4 0.000000 0.000000 0.000000 -0.049250 0.000000 0.000000
# 5 0.000000 0.000000 0.000000 0.000000 -0.049250 0.000000
# 6 0.000000 0.000000 0.000000 0.000000 0.000000 0.061046
#
#
# Mechanical properties :
#
#
# Convention : Reuss Voigt Hill
#
# Bulk Modulus (GPa) = 14.30979 38.86882 26.58931
# Shear Modulus (GPa) = 87.16453 14.51683 50.84068
#
# Velocity S-wave (km/s) = 6.24398 2.54816 4.76867
# Velocity P-wave (km/s) = 7.64091 5.10322 6.49717
#
# Compressibility (1/GPa) = 0.06988222
#
# Stress axis : x y z
#
# Youngs Moduli (GPa) = 30.05530 30.05530 240.46356
#
# Poissons Ratio (x) = -0.08262 0.37983
# Poissons Ratio (y) = -0.08262 0.37983
# Poissons Ratio (z) = 0.04747 0.04747
#
# Static dielectric constant tensor:
#      x y z
#    x 1.893640 0.000000 0.000000 
#    y 0.000000 1.893640 0.000000 
#    z 0.000000 0.000000 1.913290 
# 
# From -- ./inp_files/4952.got.cif
#   From: 2010.05.17/outbox.cif.g08.bks.cpg/sg171_3_cif.got.tgz:4952.got - 2010.05.20 11:16:09.
