data_PCOD9580296
_publ_section_title
;
Structure prediction by ZEFSAII (Michael W. Deem and Ramdas Pophale) SiO2 
 PCOD9580296
Probable space group: P 65
;
_chemical_formula_sum "Si O2"
_cell_formula_units_Z 48
_cell_length_a 16.755897
_cell_length_b 16.755897
_cell_length_c 8.126008
_cell_angle_alpha 90.000000
_cell_angle_beta 90.000000
_cell_angle_gamma 120.000000
_cell_volume 1975.801184
_symmetry_space_group_name_H-M "P 65"
_symmetry_group_IT_number 170
_symmetry_cell_setting 'hexagonal'
loop_
_space_group_symop_operation_xyz
x,y,z
x-y,x,5/6+z
-y,x-y,2/3+z
-x,-y,1/2+z
-x+y,-x,1/3+z
y,-x+y,1/6+z
loop_
_atom_site_type_symbol
_atom_site_label
_atom_site_fract_x
_atom_site_fract_y
_atom_site_fract_z
Si Si1 0.560637 0.082153 0.700820
Si Si2 0.070798 0.466002 0.514782
Si Si3 0.287355 0.603902 0.892184
Si Si4 0.484526 0.165836 0.274150
Si Si5 0.077346 0.883344 0.790516
Si Si6 0.157929 0.376163 0.326052
Si Si7 0.188774 0.140015 0.989057
Si Si8 0.029024 0.338909 0.022765
O O1 0.581042 0.043579 0.536161
O O2 0.599616 0.188602 0.676857
O O3 0.454164 0.021483 0.742651
O O4 0.626496 0.076359 0.836842
O O5 0.134420 0.574705 0.472331
O O6 0.121967 0.410325 0.477826
O O7 0.307640 0.649818 0.072162
O O8 0.290408 0.510616 0.934356
O O9 0.466822 0.224762 0.411245
O O10 0.386317 0.073486 0.297947
O O11 0.116604 0.821106 0.711967
O O12 0.971733 0.850232 0.835340
O O13 0.119862 0.907005 0.974098
O O14 0.073628 0.333483 0.195495
O O15 0.277419 0.225609 0.068384
O O16 0.158619 0.053575 0.111831
#
# Coordination Sequence:
#
# PCOD9580296 Si02
#       8
#     6   6   6   6   6   6   6   6
#     4  11  25  44  69 103 138 189 239 299 374 440
#     4  11  25  44  72 102 143 190 240 306 375 445
#     4  12  27  48  73 109 148 194 246 309 378 451
#     4  11  24  41  70  99 142 185 241 307 366 445
#     4  10  23  45  71 105 148 195 249 309 375 452
#     4  12  23  45  71 104 146 190 254 307 373 455
#     4  10  22  43  68 100 142 188 239 299 370 442
#     4  11  23  42  68 100 137 187 240 302 367 436
#
# _framework density 24.293942999999999
#
# number of rings (size 3 to 8) (size 9 to 14) (size 15 to 20)
#    0.000    1.000    1.250    5.250    3.500    1.000 
#    0.000   16.250    0.000    0.000    0.000    0.000 
#    0.000    0.000    0.000    0.000    0.000    0.000 
#
# Total GULP energy -268109.194521 kJ/mol
# GULP energy per Si atom -5585.608219 kJ/mol
# Density = 2.423865 g / cm^3
# Si number density = 24.293943 Si / 1000 Ang^3
#
#
#
# Elastic Constant Matrix: (Units=GPa)
#
#
# Indices 1 2 3 4 5 6 
#
# 1 65.8672 21.3451 6.9525 0.0000 0.0000 0.0000
# 2 21.3451 65.8672 6.9525 0.0000 0.0000 0.0000
# 3 6.9525 6.9525 77.8668 0.0000 0.0000 0.0000
# 4 0.0000 0.0000 0.0000 32.8634 0.0000 0.0000
# 5 0.0000 0.0000 0.0000 0.0000 32.8634 0.0000
# 6 0.0000 0.0000 0.0000 0.0000 0.0000 22.2610
#
#
#
# Elastic Compliance Matrix: (Units=1/GPa)
#
#
# Indices 1 2 3 4 5 6 
#
# 1 0.017046 -0.005414 -0.001039 0.000000 0.000000 0.000000
# 2 -0.005414 0.017046 -0.001039 0.000000 0.000000 0.000000
# 3 -0.001039 -0.001039 0.013028 0.000000 0.000000 0.000000
# 4 0.000000 0.000000 0.000000 0.030429 0.000000 0.000000
# 5 0.000000 0.000000 0.000000 0.000000 0.030429 0.000000
# 6 0.000000 0.000000 0.000000 0.000000 0.000000 0.044922
#
#
# Mechanical properties :
#
#
# Convention : Reuss Voigt Hill
#
# Bulk Modulus (GPa) = 31.11646 31.12237 31.11942
# Shear Modulus (GPa) = 27.99622 29.22100 28.60861
#
# Velocity S-wave (km/s) = 3.39838 3.47192 3.43534
# Velocity P-wave (km/s) = 5.31364 5.37688 5.34535
#
# Compressibility (1/GPa) = 0.03213733
#
# Stress axis : x y z
#
# Youngs Moduli (GPa) = 58.66374 58.66374 76.75835
#
# Poissons Ratio (x) = 0.31763 0.07972
# Poissons Ratio (y) = 0.31763 0.07972
# Poissons Ratio (z) = 0.06093 0.06093
#
# Static dielectric constant tensor:
#      x y z
#    x 1.988950 0.000000 0.000000 
#    y 0.000000 1.988950 0.000000 
#    z 0.000000 0.000000 1.911500 
# 
# From -- ./inp_files/716.got.cif
#   From: 2010.05.17/outbox.cif.g08.bks.cpg/sg170_cif.got.tgz:716.got - 2010.05.20 11:14:30.
