data_PCOD9580310
_publ_section_title
;
Structure prediction by ZEFSAII (Michael W. Deem and Ramdas Pophale) SiO2 
 PCOD9580310
Probable space group: P 65
;
_chemical_formula_sum "Si O2"
_cell_formula_units_Z 30
_cell_length_a 11.429895
_cell_length_b 11.429895
_cell_length_c 9.504302
_cell_angle_alpha 90.000000
_cell_angle_beta 90.000000
_cell_angle_gamma 120.000000
_cell_volume 1075.314101
_symmetry_space_group_name_H-M "P 65"
_symmetry_group_IT_number 170
_symmetry_cell_setting 'hexagonal'
loop_
_space_group_symop_operation_xyz
x,y,z
x-y,x,5/6+z
-y,x-y,2/3+z
-x,-y,1/2+z
-x+y,-x,1/3+z
y,-x+y,1/6+z
loop_
_atom_site_type_symbol
_atom_site_label
_atom_site_fract_x
_atom_site_fract_y
_atom_site_fract_z
Si Si1 0.513610 0.982927 0.527860
Si Si2 0.736612 0.825985 0.721563
Si Si3 0.502178 0.269494 0.025239
Si Si4 0.253963 0.108323 0.652065
Si Si5 0.543432 0.363461 0.635568
O O1 0.637585 0.093324 0.616592
O O2 0.773547 0.178792 0.334743
O O3 0.513179 0.078423 0.403885
O O4 0.545034 0.874947 0.455593
O O5 0.800502 0.982285 0.765316
O O6 0.579993 0.766281 0.674294
O O7 0.764417 0.758215 0.858448
O O8 0.664756 0.349289 0.004824
O O9 0.171529 0.181688 0.612503
O O10 0.519171 0.406853 0.480299
#
# Coordination Sequence:
#
# PCOD9580310 Si02
#       5
#     6   6   6   6   6
#     4  12  31  54  86 123 175 219 298 359 454 529
#     4  10  22  50  80 128 176 238 291 367 440 532
#     4  12  27  54  85 123 169 233 291 362 444 533
#     4  10  24  51  81 124 174 225 290 358 437 525
#     4  12  30  57  84 128 172 235 294 374 443 543
#
# _framework density 27.898823
#
# number of rings (size 3 to 8) (size 9 to 14) (size 15 to 20)
#    0.000    0.800    2.000    2.400    8.400    6.400 
#   18.000    0.000    0.000    0.000    0.000    0.000 
#    0.000    0.000    0.000    0.000    0.000    0.000 
#
# Total GULP energy -167990.838403 kJ/mol
# GULP energy per Si atom -5599.694613 kJ/mol
# Density = 2.783532 g / cm^3
# Si number density = 27.898823 Si / 1000 Ang^3
#
#
#
# Elastic Constant Matrix: (Units=GPa)
#
#
# Indices 1 2 3 4 5 6 
#
# 1 192.2444 106.2685 60.0749 0.0000 0.0000 0.0000
# 2 106.2685 192.2444 60.0749 0.0000 0.0000 0.0000
# 3 60.0749 60.0749 121.5872 0.0000 0.0000 0.0000
# 4 0.0000 0.0000 0.0000 62.2452 0.0000 0.0000
# 5 0.0000 0.0000 0.0000 0.0000 62.2452 0.0000
# 6 0.0000 0.0000 0.0000 0.0000 0.0000 42.9879
#
#
#
# Elastic Compliance Matrix: (Units=1/GPa)
#
#
# Indices 1 2 3 4 5 6 
#
# 1 0.007906 -0.003725 -0.002066 0.000000 0.000000 0.000000
# 2 -0.003725 0.007906 -0.002066 0.000000 0.000000 0.000000
# 3 -0.002066 -0.002066 0.010266 0.000000 0.000000 0.000000
# 4 0.000000 0.000000 0.000000 0.016065 0.000000 0.000000
# 5 0.000000 0.000000 0.000000 0.000000 0.016065 0.000000
# 6 0.000000 0.000000 0.000000 0.000000 0.000000 0.023262
#
#
# Mechanical properties :
#
#
# Convention : Reuss Voigt Hill
#
# Bulk Modulus (GPa) = 96.47822 106.54582 101.51202
# Shear Modulus (GPa) = 49.68154 52.13952 50.91053
#
# Velocity S-wave (km/s) = 4.22450 4.32774 4.27643
# Velocity P-wave (km/s) = 7.64538 7.95270 7.80055
#
# Compressibility (1/GPa) = 0.01036503
#
# Stress axis : x y z
#
# Youngs Moduli (GPa) = 126.48075 126.48075 97.40738
#
# Poissons Ratio (x) = 0.47112 0.20125
# Poissons Ratio (y) = 0.47112 0.20125
# Poissons Ratio (z) = 0.26131 0.26131
#
# Static dielectric constant tensor:
#      x y z
#    x 2.161410 0.000000 0.000000 
#    y 0.000000 2.161410 0.000000 
#    z 0.000000 0.000000 2.322460 
# 
# From -- ./inp_files/563.got.cif
#   From: 2010.05.17/outbox.cif.g08.bks.cpg/sg170_cif.got.tgz:563.got - 2010.05.20 11:14:30.
