data_PCOD9580077
_publ_section_title
;
Structure prediction by ZEFSAII (Michael W. Deem and Ramdas Pophale) SiO2 
 PCOD9580077
Probable space group: P 61
;
_chemical_formula_sum "Si O2"
_cell_formula_units_Z 42
_cell_length_a 16.731285
_cell_length_b 16.731285
_cell_length_c 9.720757
_cell_angle_alpha 90.000000
_cell_angle_beta 90.000000
_cell_angle_gamma 120.000000
_cell_volume 2356.618662
_symmetry_space_group_name_H-M "P 61"
_symmetry_group_IT_number 169
_symmetry_cell_setting 'hexagonal'
loop_
_space_group_symop_operation_xyz
x,y,z
x-y,x,1/6+z
-y,x-y,1/3+z
-x,-y,1/2+z
-x+y,-x,2/3+z
y,-x+y,5/6+z
loop_
_atom_site_type_symbol
_atom_site_label
_atom_site_fract_x
_atom_site_fract_y
_atom_site_fract_z
Si Si1 0.567458 0.904607 0.088560
Si Si2 0.432741 0.647242 0.388090
Si Si3 0.727701 0.534311 0.994567
Si Si4 0.796282 0.178064 0.377908
Si Si5 0.399659 0.606940 0.918699
Si Si6 0.340887 0.032073 0.885788
Si Si7 0.532970 0.466366 0.654889
O O1 0.474133 0.816353 0.143995
O O2 0.630789 0.945914 0.224176
O O3 0.545607 0.981403 0.030133
O O4 0.595240 0.865796 0.956482
O O5 0.373931 0.556398 0.480097
O O6 0.524019 0.722324 0.466047
O O7 0.382452 0.704343 0.338360
O O8 0.450930 0.599556 0.258130
O O9 0.764469 0.588926 0.852951
O O10 0.782524 0.480334 0.019636
O O11 0.885064 0.215728 0.280992
O O12 0.745110 0.069229 0.401347
O O13 0.454433 0.569467 0.008771
O O14 0.426287 0.036985 0.973952
#
# Coordination Sequence:
#
# PCOD9580077 Si02
#       7
#     6   6   6   6   6   6   6
#     4  11  23  36  56  83 120 160 206 246 309 362
#     4  12  19  36  57  81 121 165 205 248 294 365
#     4  12  23  34  57  87 117 163 207 252 294 363
#     4  12  24  42  62  86 125 161 215 260 322 376
#     4  11  22  34  52  82 115 160 211 247 291 346
#     4  11  24  43  61  86 119 167 205 265 321 377
#     4  11  21  35  57  83 121 164 205 246 299 365
#
# _framework density 17.822144999999999
#
# number of rings (size 3 to 8) (size 9 to 14) (size 15 to 20)
#    0.000    0.571    5.714    6.000    2.000    1.143 
#    0.000    0.000    0.000    0.000    0.000    2.000 
#    0.000    0.000    0.000    0.000    0.000    0.000 
#
# Total GULP energy -234353.465487 kJ/mol
# GULP energy per Si atom -5579.844416 kJ/mol
# Density = 1.778158 g / cm^3
# Si number density = 17.822145 Si / 1000 Ang^3
#
#
#
# Elastic Constant Matrix: (Units=GPa)
#
#
# Indices 1 2 3 4 5 6 
#
# 1 59.2094 25.4488 31.9075 0.0000 0.0000 0.0000
# 2 25.4488 59.2094 31.9075 0.0000 0.0000 0.0000
# 3 31.9075 31.9075 102.7606 0.0000 0.0000 0.0000
# 4 0.0000 0.0000 0.0000 21.8614 0.0000 0.0000
# 5 0.0000 0.0000 0.0000 0.0000 21.8614 0.0000
# 6 0.0000 0.0000 0.0000 0.0000 0.0000 16.8803
#
#
#
# Elastic Compliance Matrix: (Units=1/GPa)
#
#
# Indices 1 2 3 4 5 6 
#
# 1 0.022521 -0.007099 -0.004789 0.000000 0.000000 0.000000
# 2 -0.007099 0.022521 -0.004789 0.000000 0.000000 0.000000
# 3 -0.004789 -0.004789 0.012705 0.000000 0.000000 0.000000
# 4 0.000000 0.000000 0.000000 0.045743 0.000000 0.000000
# 5 0.000000 0.000000 0.000000 0.000000 0.045743 0.000000
# 6 0.000000 0.000000 0.000000 0.000000 0.000000 0.059241
#
#
# Mechanical properties :
#
#
# Convention : Reuss Voigt Hill
#
# Bulk Modulus (GPa) = 40.99277 44.41189 42.70233
# Shear Modulus (GPa) = 20.00343 20.91500 20.45922
#
# Velocity S-wave (km/s) = 3.35385 3.42941 3.39184
# Velocity P-wave (km/s) = 6.16836 6.37611 6.27310
#
# Compressibility (1/GPa) = 0.02439455
#
# Stress axis : x y z
#
# Youngs Moduli (GPa) = 44.40294 44.40294 78.70875
#
# Poissons Ratio (x) = 0.31523 0.37690
# Poissons Ratio (y) = 0.31523 0.37690
# Poissons Ratio (z) = 0.21262 0.21262
#
# Static dielectric constant tensor:
#      x y z
#    x 1.636180 0.000000 0.000000 
#    y 0.000000 1.636180 0.000000 
#    z 0.000000 0.000000 1.695280 
# 
# From -- ./inp_files/687.got.cif
#   From: 2010.05.17/outbox.cif.g08.bks.cpg/sg169_cif.got.tgz:687.got - 2010.05.20 11:12:54.
