data_PCOD9580678
_publ_section_title
;
Structure prediction by ZEFSAII (Michael W. Deem and Ramdas Pophale) SiO2 
 PCOD9580678
Probable space group: P 62
;
_chemical_formula_sum "Si O2"
_cell_formula_units_Z 42
_cell_length_a 10.757691
_cell_length_b 10.757691
_cell_length_c 17.015489
_cell_angle_alpha 90.000000
_cell_angle_beta 90.000000
_cell_angle_gamma 120.000000
_cell_volume 1705.348712
_symmetry_space_group_name_H-M "P 62"
_symmetry_group_IT_number 171
_symmetry_cell_setting 'hexagonal'
loop_
_space_group_symop_operation_xyz
x,y,z
x-y,x,1/3+z
-y,x-y,2/3+z
-x,-y,z
-x+y,-x,1/3+z
y,-x+y,2/3+z
loop_
_atom_site_type_symbol
_atom_site_label
_atom_site_fract_x
_atom_site_fract_y
_atom_site_fract_z
Si Si1 0.793402 0.532758 0.065210
Si Si2 0.298344 0.567399 0.614619
Si Si3 0.814411 0.804031 0.229561
Si Si4 0.000000 0.500000 0.365844
Si Si5 0.000000 0.500000 0.684954
Si Si6 0.731781 0.652132 0.483568
Si Si7 0.453861 0.283430 0.903102
Si Si8 0.144328 0.915763 0.267248
O O1 0.798353 0.403211 0.021710
O O2 0.878016 0.573576 0.146563
O O3 0.624592 0.488120 0.078697
O O4 0.853075 0.665818 0.005932
O O5 0.135173 0.506273 0.641259
O O6 0.308514 0.469311 0.548901
O O7 0.342847 0.720844 0.577032
O O8 0.745520 0.836781 0.152036
O O9 0.748779 0.637690 0.246144
O O10 0.982477 0.850464 0.235959
O O11 0.805854 0.917177 0.287761
O O12 0.940407 0.575370 0.305940
O O13 0.065132 0.642056 0.740855
O O14 0.690393 0.762040 0.523865
#
# Coordination Sequence:
#
# PCOD9580678 Si02
#       8
#     6   6   6   3   3   6   6   6
#     4  11  23  42  70  98 135 187 230 283 374 409
#     4  11  25  42  66 105 140 180 241 301 341 443
#     4   9  20  42  67  94 135 174 225 296 345 406
#     4  10  24  43  69  96 142 172 232 298 332 430
#     4  12  24  43  71 102 140 200 232 286 394 418
#     4  10  22  43  66  96 140 179 229 303 344 426
#     4  11  23  43  68  99 137 182 230 289 348 423
#     4   9  20  43  66  94 135 170 230 292 343 425
#
# _framework density 24.628392000000002
#
# number of rings (size 3 to 8) (size 9 to 14) (size 15 to 20)
#    0.857    0.857    1.429    2.571    0.000    6.286 
#    5.143    2.857    0.000    0.000    0.000    0.000 
#    0.000    0.000    0.000    0.000    0.000    0.000 
#
# Total GULP energy -234399.116468 kJ/mol
# GULP energy per Si atom -5580.931344 kJ/mol
# Density = 2.457234 g / cm^3
# Si number density = 24.628392 Si / 1000 Ang^3
#
#
#
# Elastic Constant Matrix: (Units=GPa)
#
#
# Indices 1 2 3 4 5 6 
#
# 1 69.8094 3.8294 15.1861 0.0000 0.0000 0.0000
# 2 3.8294 69.8094 15.1861 0.0000 0.0000 0.0000
# 3 15.1861 15.1861 80.0077 0.0000 0.0000 0.0000
# 4 0.0000 0.0000 0.0000 20.0102 0.0000 0.0000
# 5 0.0000 0.0000 0.0000 0.0000 20.0102 0.0000
# 6 0.0000 0.0000 0.0000 0.0000 0.0000 32.9900
#
#
#
# Elastic Compliance Matrix: (Units=1/GPa)
#
#
# Indices 1 2 3 4 5 6 
#
# 1 0.014945 -0.000211 -0.002796 0.000000 0.000000 0.000000
# 2 -0.000211 0.014945 -0.002796 0.000000 0.000000 0.000000
# 3 -0.002796 -0.002796 0.013560 0.000000 0.000000 0.000000
# 4 0.000000 0.000000 0.000000 0.049974 0.000000 0.000000
# 5 0.000000 0.000000 0.000000 0.000000 0.049974 0.000000
# 6 0.000000 0.000000 0.000000 0.000000 0.000000 0.030312
#
#
# Mechanical properties :
#
#
# Convention : Reuss Voigt Hill
#
# Bulk Modulus (GPa) = 31.40618 32.00330 31.70474
# Shear Modulus (GPa) = 25.51890 26.96375 26.24132
#
# Velocity S-wave (km/s) = 3.22243 3.31240 3.26773
# Velocity P-wave (km/s) = 5.15995 5.25852 5.20947
#
# Compressibility (1/GPa) = 0.03184087
#
# Stress axis : x y z
#
# Youngs Moduli (GPa) = 66.91356 66.91356 73.74428
#
# Poissons Ratio (x) = 0.01415 0.20622
# Poissons Ratio (y) = 0.01415 0.20622
# Poissons Ratio (z) = 0.18712 0.18712
#
# Static dielectric constant tensor:
#      x y z
#    x 2.070190 0.000000 0.000000 
#    y 0.000000 2.070190 0.000000 
#    z 0.000000 0.000000 1.926740 
# 
# From -- ./inp_files/5028.got.cif
#   From: 2010.05.17/outbox.cif.g08.bks.cpg/sg171_3_cif.got.tgz:5028.got - 2010.05.20 11:16:09.
