data_PCOD9580915
_publ_section_title
;
Structure prediction by ZEFSAII (Michael W. Deem and Ramdas Pophale) SiO2 
 PCOD9580915
Probable space group: P 64
;
_chemical_formula_sum "Si O2"
_cell_formula_units_Z 48
_cell_length_a 11.199920
_cell_length_b 11.199920
_cell_length_c 25.079282
_cell_angle_alpha 90.000000
_cell_angle_beta 90.000000
_cell_angle_gamma 120.000000
_cell_volume 2724.429484
_symmetry_space_group_name_H-M "P 64"
_symmetry_group_IT_number 172
_symmetry_cell_setting 'hexagonal'
loop_
_space_group_symop_operation_xyz
x,y,z
x-y,x,2/3+z
-y,x-y,1/3+z
-x,-y,z
-x+y,-x,2/3+z
y,-x+y,1/3+z
loop_
_atom_site_type_symbol
_atom_site_label
_atom_site_fract_x
_atom_site_fract_y
_atom_site_fract_z
Si Si1 0.494168 0.854689 0.501790
Si Si2 0.072177 0.907293 0.239324
Si Si3 0.873453 0.211044 0.939737
Si Si4 0.558839 0.729445 0.402566
Si Si5 0.820637 0.341430 0.524378
Si Si6 0.801098 0.665467 0.958440
Si Si7 0.919971 0.640012 0.487400
Si Si8 0.841861 0.282528 0.057282
O O1 0.562267 0.849891 0.557460
O O2 0.564057 0.814614 0.454493
O O3 0.334376 0.743354 0.505434
O O4 0.500000 0.000000 0.494460
O O5 0.145992 0.897411 0.185866
O O6 0.949748 0.762248 0.259973
O O7 0.197903 0.988269 0.281189
O O8 0.000000 0.000000 0.230214
O O9 0.039118 0.283191 0.945284
O O10 0.821007 0.234047 0.996112
O O11 0.605114 0.827969 0.350915
O O12 0.654673 0.659051 0.404378
O O13 0.405023 0.598049 0.396557
O O14 0.841624 0.291759 0.582053
O O15 0.863565 0.500813 0.522334
O O16 0.918681 0.312309 0.485369
O O17 0.840615 0.598179 0.431803
#
# Coordination Sequence:
#
# PCOD9580915 Si02
#       8
#     6   6   6   6   6   6   6   6
#     4  12  22  37  59  88 116 150 200 247 288 347
#     4   9  19  37  59  87 117 148 195 246 290 355
#     4  10  20  35  61  85 112 149 197 242 291 345
#     4  10  21  36  59  85 114 146 196 242 287 344
#     4  10  20  37  60  80 113 156 189 231 290 362
#     4   9  18  38  59  84 115 155 191 234 298 353
#     4  10  20  38  59  81 115 154 190 228 298 349
#     4  10  20  37  60  82 112 155 189 238 291 354
#
# _framework density 17.618369000000001
#
# number of rings (size 3 to 8) (size 9 to 14) (size 15 to 20)
#    0.000    2.000    2.500    1.500    1.750    0.000 
#    6.750    1.875    2.750    0.000    0.000    0.000 
#    0.000    0.000    0.000    0.000    0.000    0.000 
#
# Total GULP energy -267712.603026 kJ/mol
# GULP energy per Si atom -5577.345896 kJ/mol
# Density = 1.757827 g / cm^3
# Si number density = 17.618369 Si / 1000 Ang^3
#
#
#
# Elastic Constant Matrix: (Units=GPa)
#
#
# Indices 1 2 3 4 5 6 
#
# 1 66.8791 22.3703 52.7361 0.0000 0.0000 0.0000
# 2 22.3703 66.8791 52.7361 0.0000 0.0000 0.0000
# 3 52.7361 52.7361 139.8084 0.0000 0.0000 0.0000
# 4 0.0000 0.0000 0.0000 23.6150 0.0000 0.0000
# 5 0.0000 0.0000 0.0000 0.0000 23.6150 0.0000
# 6 0.0000 0.0000 0.0000 0.0000 0.0000 22.2544
#
#
#
# Elastic Compliance Matrix: (Units=1/GPa)
#
#
# Indices 1 2 3 4 5 6 
#
# 1 0.021342 -0.001126 -0.007626 0.000000 0.000000 0.000000
# 2 -0.001126 0.021342 -0.007626 0.000000 0.000000 0.000000
# 3 -0.007626 -0.007626 0.012905 0.000000 0.000000 0.000000
# 4 0.000000 0.000000 0.000000 0.042346 0.000000 0.000000
# 5 0.000000 0.000000 0.000000 0.000000 0.042346 0.000000
# 6 0.000000 0.000000 0.000000 0.000000 0.000000 0.044935
#
#
# Mechanical properties :
#
#
# Convention : Reuss Voigt Hill
#
# Bulk Modulus (GPa) = 43.79145 58.80573 51.29859
# Shear Modulus (GPa) = 22.16490 23.61180 22.88835
#
# Velocity S-wave (km/s) = 3.55076 3.66482 3.60824
# Velocity P-wave (km/s) = 6.45910 7.16644 6.82194
#
# Compressibility (1/GPa) = 0.02283551
#
# Stress axis : x y z
#
# Youngs Moduli (GPa) = 46.85618 46.85618 77.48653
#
# Poissons Ratio (x) = 0.05274 0.59088
# Poissons Ratio (y) = 0.05274 0.59088
# Poissons Ratio (z) = 0.35731 0.35731
#
# Static dielectric constant tensor:
#      x y z
#    x 1.611850 0.000000 0.000000 
#    y 0.000000 1.611850 0.000000 
#    z 0.000000 0.000000 1.577930 
# 
# From -- ./inp_files/2088.got.cif
#   From: 2010.05.17/outbox.cif.g08.bks.cpg/sg172_2_cif.got.tgz:2088.got - 2010.05.20 11:19:57.
