data_PCOD9580873
_publ_section_title
;
Structure prediction by ZEFSAII (Michael W. Deem and Ramdas Pophale) SiO2 
 PCOD9580873
Probable space group: P 62
;
_chemical_formula_sum "Si O2"
_cell_formula_units_Z 39
_cell_length_a 19.206508
_cell_length_b 19.206508
_cell_length_c 4.843412
_cell_angle_alpha 90.000000
_cell_angle_beta 90.000000
_cell_angle_gamma 120.000000
_cell_volume 1547.315472
_symmetry_space_group_name_H-M "P 62"
_symmetry_group_IT_number 171
_symmetry_cell_setting 'hexagonal'
loop_
_space_group_symop_operation_xyz
x,y,z
x-y,x,1/3+z
-y,x-y,2/3+z
-x,-y,z
-x+y,-x,1/3+z
y,-x+y,2/3+z
loop_
_atom_site_type_symbol
_atom_site_label
_atom_site_fract_x
_atom_site_fract_y
_atom_site_fract_z
Si Si1 0.356824 0.012568 0.115670
Si Si2 0.891133 0.254680 0.275217
Si Si3 0.883201 0.040383 0.512245
Si Si4 0.477701 0.728382 0.571560
Si Si5 0.382905 0.819794 0.715588
Si Si6 0.178458 0.915224 0.037240
Si Si7 0.500000 0.500000 0.196549
O O1 0.357183 0.035257 0.432299
O O2 0.270897 0.938107 0.034778
O O3 0.365924 0.086465 0.925382
O O4 0.430605 0.000500 0.044670
O O5 0.810606 0.252176 0.177295
O O6 0.876084 0.167901 0.194902
O O7 0.826695 0.020591 0.241414
O O8 0.969100 0.090143 0.363609
O O9 0.851570 0.081092 0.733913
O O10 0.415617 0.760398 0.625026
O O11 0.491087 0.688894 0.842719
O O12 0.448428 0.658949 0.344634
O O13 0.453348 0.913047 0.710746
#
# Coordination Sequence:
#
# PCOD9580873 Si02
#       7
#     6   6   6   6   6   6   3
#     4  12  27  48  76 108 153 197 248 323 382 454
#     4  12  26  48  73 109 150 194 254 315 369 458
#     4  12  26  49  77 112 156 201 253 314 376 447
#     4  12  26  49  74 110 148 199 255 310 386 459
#     4  12  27  49  78 110 155 203 254 320 384 472
#     4  12  25  48  76 110 147 207 258 305 379 455
#     4  12  30  52  76 118 158 198 256 324 408 452
#
# _framework density 25.204943
#
# number of rings (size 3 to 8) (size 9 to 14) (size 15 to 20)
#    0.000    0.000    1.538    9.231    2.154    4.923 
#    0.000    6.923    0.000    0.000    0.000    0.000 
#    0.000    0.000    0.000    0.000    0.000    0.000 
#
# Total GULP energy -218616.609355 kJ/mol
# GULP energy per Si atom -5605.554086 kJ/mol
# Density = 2.514758 g / cm^3
# Si number density = 25.204943 Si / 1000 Ang^3
#
#
#
# Elastic Constant Matrix: (Units=GPa)
#
#
# Indices 1 2 3 4 5 6 
#
# 1 109.8514 25.0334 19.3725 0.0000 0.0000 0.0000
# 2 25.0334 109.8514 19.3725 0.0000 0.0000 0.0000
# 3 19.3725 19.3725 121.4933 0.0000 0.0000 0.0000
# 4 0.0000 0.0000 0.0000 29.5891 0.0000 0.0000
# 5 0.0000 0.0000 0.0000 0.0000 29.5891 0.0000
# 6 0.0000 0.0000 0.0000 0.0000 0.0000 42.4090
#
#
#
# Elastic Compliance Matrix: (Units=1/GPa)
#
#
# Indices 1 2 3 4 5 6 
#
# 1 0.009780 -0.002010 -0.001239 0.000000 0.000000 0.000000
# 2 -0.002010 0.009780 -0.001239 0.000000 0.000000 0.000000
# 3 -0.001239 -0.001239 0.008626 0.000000 0.000000 0.000000
# 4 0.000000 0.000000 0.000000 0.033796 0.000000 0.000000
# 5 0.000000 0.000000 0.000000 0.000000 0.033796 0.000000
# 6 0.000000 0.000000 0.000000 0.000000 0.000000 0.023580
#
#
# Mechanical properties :
#
#
# Convention : Reuss Voigt Hill
#
# Bulk Modulus (GPa) = 52.05720 52.08367 52.07044
# Shear Modulus (GPa) = 37.10933 38.81196 37.96064
#
# Velocity S-wave (km/s) = 3.84122 3.92836 3.88503
# Velocity P-wave (km/s) = 6.35388 6.42533 6.38970
#
# Compressibility (1/GPa) = 0.01920964
#
# Stress axis : x y z
#
# Youngs Moduli (GPa) = 102.25189 102.25189 115.92868
#
# Poissons Ratio (x) = 0.20554 0.14362
# Poissons Ratio (y) = 0.20554 0.14362
# Poissons Ratio (z) = 0.12668 0.12668
#
# Static dielectric constant tensor:
#      x y z
#    x 2.023100 0.000000 0.000000 
#    y 0.000000 2.023100 0.000000 
#    z 0.000000 0.000000 1.908270 
# 
# From -- ./inp_files/431.got.cif
#   From: 2010.05.17/outbox.cif.g08.bks.cpg/sg171_1_cif.got.tgz:431.got - 2010.05.20 11:16:09.
