data_PCOD9580251
_publ_section_title
;
Structure prediction by ZEFSAII (Michael W. Deem and Ramdas Pophale) SiO2 
 PCOD9580251
Probable space group: P 65
;
_chemical_formula_sum "Si O2"
_cell_formula_units_Z 48
_cell_length_a 18.896315
_cell_length_b 18.896315
_cell_length_c 7.455713
_cell_angle_alpha 90.000000
_cell_angle_beta 90.000000
_cell_angle_gamma 120.000000
_cell_volume 2305.547391
_symmetry_space_group_name_H-M "P 65"
_symmetry_group_IT_number 170
_symmetry_cell_setting 'hexagonal'
loop_
_space_group_symop_operation_xyz
x,y,z
x-y,x,5/6+z
-y,x-y,2/3+z
-x,-y,1/2+z
-x+y,-x,1/3+z
y,-x+y,1/6+z
loop_
_atom_site_type_symbol
_atom_site_label
_atom_site_fract_x
_atom_site_fract_y
_atom_site_fract_z
Si Si1 0.431724 0.174265 0.206530
Si Si2 0.919252 0.619117 0.586954
Si Si3 0.580948 0.983926 0.590637
Si Si4 0.223676 0.298409 0.282550
Si Si5 0.645381 0.380774 0.630360
Si Si6 0.841761 0.983880 0.674630
Si Si7 0.073834 0.174502 0.480628
Si Si8 0.398923 0.907995 0.747140
O O1 0.385576 0.224337 0.171720
O O2 0.415215 0.099749 0.076163
O O3 0.392677 0.130873 0.398200
O O4 0.527899 0.235241 0.224418
O O5 0.894226 0.555693 0.749450
O O6 0.963960 0.602773 0.422022
O O7 0.985956 0.705101 0.673662
O O8 0.488980 0.953832 0.657648
O O9 0.602025 0.036059 0.409150
O O10 0.144771 0.260204 0.406914
O O11 0.190985 0.245077 0.101011
O O12 0.634680 0.315339 0.479155
O O13 0.560162 0.380300 0.654392
O O14 0.848954 0.032487 0.493373
O O15 0.912225 0.051813 0.797236
O O16 0.120589 0.124451 0.522514
#
# Coordination Sequence:
#
# PCOD9580251 Si02
#       8
#     6   6   6   6   6   6   6   6
#     4  10  23  45  65  99 138 179 227 282 345 409
#     4  11  22  44  66  95 138 183 227 286 343 414
#     4  10  23  42  70 100 137 183 226 275 351 422
#     4  11  23  42  61  84 136 181 213 285 349 399
#     4  11  25  45  74 107 140 173 225 293 352 417
#     4  10  21  36  59  90 124 174 231 286 338 401
#     4  10  21  36  59  91 123 173 234 283 340 405
#     4  11  22  44  70 104 138 178 229 276 352 433
#
# _framework density 20.81935
#
# number of rings (size 3 to 8) (size 9 to 14) (size 15 to 20)
#    0.000    1.500    2.500    2.250    1.750    6.000 
#   15.750    1.250    0.000    0.000    0.000    0.000 
#    0.000    0.000    0.000    0.000    0.000    0.000 
#
# Total GULP energy -268114.941764 kJ/mol
# GULP energy per Si atom -5585.727953 kJ/mol
# Density = 2.077196 g / cm^3
# Si number density = 20.819350 Si / 1000 Ang^3
#
#
#
# Elastic Constant Matrix: (Units=GPa)
#
#
# Indices 1 2 3 4 5 6 
#
# 1 90.9889 28.2321 23.0687 0.0000 0.0000 0.0000
# 2 28.2321 90.9889 23.0687 0.0000 0.0000 0.0000
# 3 23.0687 23.0687 77.3754 0.0000 0.0000 0.0000
# 4 0.0000 0.0000 0.0000 22.4071 0.0000 0.0000
# 5 0.0000 0.0000 0.0000 0.0000 22.4071 0.0000
# 6 0.0000 0.0000 0.0000 0.0000 0.0000 31.3784
#
#
#
# Elastic Compliance Matrix: (Units=1/GPa)
#
#
# Indices 1 2 3 4 5 6 
#
# 1 0.012708 -0.003226 -0.002827 0.000000 0.000000 0.000000
# 2 -0.003226 0.012708 -0.002827 0.000000 0.000000 0.000000
# 3 -0.002827 -0.002827 0.014610 0.000000 0.000000 0.000000
# 4 0.000000 0.000000 0.000000 0.044629 0.000000 0.000000
# 5 0.000000 0.000000 0.000000 0.000000 0.044629 0.000000
# 6 0.000000 0.000000 0.000000 0.000000 0.000000 0.031869
#
#
# Mechanical properties :
#
#
# Convention : Reuss Voigt Hill
#
# Bulk Modulus (GPa) = 44.91238 45.34359 45.12799
# Shear Modulus (GPa) = 26.83347 27.57078 27.20212
#
# Velocity S-wave (km/s) = 3.59398 3.64302 3.61858
# Velocity P-wave (km/s) = 6.23230 6.28668 6.25955
#
# Compressibility (1/GPa) = 0.02226557
#
# Stress axis : x y z
#
# Youngs Moduli (GPa) = 78.68965 78.68965 68.44801
#
# Poissons Ratio (x) = 0.25388 0.19350
# Poissons Ratio (y) = 0.25388 0.19350
# Poissons Ratio (z) = 0.22245 0.22245
#
# Static dielectric constant tensor:
#      x y z
#    x 1.786280 0.000000 0.000000 
#    y 0.000000 1.786280 0.000000 
#    z 0.000000 0.000000 1.743920 
# 
# From -- ./inp_files/762.got.cif
#   From: 2010.05.17/outbox.cif.g08.bks.cpg/sg170_cif.got.tgz:762.got - 2010.05.20 11:14:30.
