data_PCOD9580825
_publ_section_title
;
Structure prediction by ZEFSAII (Michael W. Deem and Ramdas Pophale) SiO2 
 PCOD9580825
Probable space group: P 62
;
_chemical_formula_sum "Si O2"
_cell_formula_units_Z 48
_cell_length_a 17.860241
_cell_length_b 17.860241
_cell_length_c 7.802797
_cell_angle_alpha 90.000000
_cell_angle_beta 90.000000
_cell_angle_gamma 120.000000
_cell_volume 2155.537435
_symmetry_space_group_name_H-M "P 62"
_symmetry_group_IT_number 171
_symmetry_cell_setting 'hexagonal'
loop_
_space_group_symop_operation_xyz
x,y,z
x-y,x,1/3+z
-y,x-y,2/3+z
-x,-y,z
-x+y,-x,1/3+z
y,-x+y,2/3+z
loop_
_atom_site_type_symbol
_atom_site_label
_atom_site_fract_x
_atom_site_fract_y
_atom_site_fract_z
Si Si1 0.001661 0.109488 0.680640
Si Si2 0.910626 0.330530 0.148809
Si Si3 0.263884 0.166677 0.900066
Si Si4 0.158556 0.263813 0.863640
Si Si5 0.814609 0.367584 0.874678
Si Si6 0.632531 0.206649 0.873822
Si Si7 0.524678 0.264816 0.693482
Si Si8 0.894097 0.572916 0.299834
O O1 0.930333 0.132550 0.620313
O O2 0.042484 0.086872 0.511369
O O3 0.078291 0.197269 0.755011
O O4 0.893196 0.235715 0.096197
O O5 0.832201 0.301248 0.285522
O O6 0.008824 0.386943 0.220949
O O7 0.891457 0.377777 0.994573
O O8 0.202314 0.207427 0.914186
O O9 0.290340 0.163860 0.701826
O O10 0.345423 0.228615 0.014216
O O11 0.732523 0.274230 0.919430
O O12 0.826872 0.379406 0.672327
O O13 0.789838 0.441620 0.906639
O O14 0.611558 0.265347 0.748373
O O15 0.630813 0.125506 0.783246
O O16 0.478029 0.291230 0.837539
#
# Coordination Sequence:
#
# PCOD9580825 Si02
#       8
#     6   6   6   6   6   6   6   6
#     4  12  26  43  72 108 154 207 280 344 394 471
#     4  11  26  47  72 106 159 205 244 314 393 468
#     4  11  23  44  67 102 149 206 258 319 399 464
#     4  11  23  44  67 102 149 206 258 319 399 464
#     4  12  23  44  77 114 142 185 250 314 379 458
#     4  12  23  44  77 114 142 185 250 314 379 458
#     4  12  22  44  76 104 148 194 242 310 382 450
#     4  11  26  47  72 106 159 205 244 314 393 468
#
# _framework density 22.268229999999999
#
# number of rings (size 3 to 8) (size 9 to 14) (size 15 to 20)
#    0.000    0.500    7.500    0.750    0.000    4.500 
#    0.000    2.500    0.000    0.000    0.000    0.000 
#    0.000    0.000    0.000    0.000    0.000    0.000 
#
# Total GULP energy -267552.729970 kJ/mol
# GULP energy per Si atom -5574.015208 kJ/mol
# Density = 2.221755 g / cm^3
# Si number density = 22.268230 Si / 1000 Ang^3
#
#
#
# Elastic Constant Matrix: (Units=GPa)
#
#
# Indices 1 2 3 4 5 6 
#
# 1 101.1321 42.2233 37.4213 0.0000 0.0000 0.0000
# 2 42.2233 101.1321 37.4213 0.0000 0.0000 0.0000
# 3 37.4213 37.4213 81.3461 0.0000 0.0000 0.0000
# 4 0.0000 0.0000 0.0000 -41.6776 0.0000 0.0000
# 5 0.0000 0.0000 0.0000 0.0000 -41.6776 0.0000
# 6 0.0000 0.0000 0.0000 0.0000 0.0000 29.4544
#
#
#
# Elastic Compliance Matrix: (Units=1/GPa)
#
#
# Indices 1 2 3 4 5 6 
#
# 1 0.013078 -0.003897 -0.004223 0.000000 0.000000 0.000000
# 2 -0.003897 0.013078 -0.004223 0.000000 0.000000 0.000000
# 3 -0.004223 -0.004223 0.016179 0.000000 0.000000 0.000000
# 4 0.000000 0.000000 0.000000 -0.023994 0.000000 0.000000
# 5 0.000000 0.000000 0.000000 0.000000 -0.023994 0.000000
# 6 0.000000 0.000000 0.000000 0.000000 0.000000 0.033951
#
#
# Mechanical properties :
#
#
# Convention : Reuss Voigt Hill
#
# Bulk Modulus (GPa) = 56.66768 57.52689 57.09729
# Shear Modulus (GPa) = 84.93522 0.32281 42.62902
#
# Velocity S-wave (km/s) = 6.18261 0.38115 4.38007
# Velocity P-wave (km/s) = 8.74467 5.10719 7.16075
#
# Compressibility (1/GPa) = 0.01764674
#
# Stress axis : x y z
#
# Youngs Moduli (GPa) = 76.46441 76.46441 61.80923
#
# Poissons Ratio (x) = 0.29801 0.26104
# Poissons Ratio (y) = 0.29801 0.26104
# Poissons Ratio (z) = 0.32293 0.32293
#
# Static dielectric constant tensor:
#      x y z
#    x 2.100020 0.000000 0.000000 
#    y 0.000000 2.100020 0.000000 
#    z 0.000000 0.000000 1.977560 
# 
# From -- ./inp_files/4443.got.cif
#   From: 2010.05.17/outbox.cif.g08.bks.cpg/sg171_3_cif.got.tgz:4443.got - 2010.05.20 11:16:09.
