data_PCOD9580288
_publ_section_title
;
Structure prediction by ZEFSAII (Michael W. Deem and Ramdas Pophale) SiO2 
 PCOD9580288
Probable space group: P 65
;
_chemical_formula_sum "Si O2"
_cell_formula_units_Z 48
_cell_length_a 17.905426
_cell_length_b 17.905426
_cell_length_c 8.491763
_cell_angle_alpha 90.000000
_cell_angle_beta 90.000000
_cell_angle_gamma 120.000000
_cell_volume 2357.750321
_symmetry_space_group_name_H-M "P 65"
_symmetry_group_IT_number 170
_symmetry_cell_setting 'hexagonal'
loop_
_space_group_symop_operation_xyz
x,y,z
x-y,x,5/6+z
-y,x-y,2/3+z
-x,-y,1/2+z
-x+y,-x,1/3+z
y,-x+y,1/6+z
loop_
_atom_site_type_symbol
_atom_site_label
_atom_site_fract_x
_atom_site_fract_y
_atom_site_fract_z
Si Si1 0.821436 0.564009 0.095920
Si Si2 0.836390 0.973821 0.510569
Si Si3 0.620383 0.274322 0.825271
Si Si4 0.600636 0.087345 0.896444
Si Si5 0.572257 0.579720 0.398411
Si Si6 0.725375 0.073138 0.130448
Si Si7 0.266455 0.336230 0.708038
Si Si8 0.111880 0.935960 0.507038
O O1 0.733921 0.473616 0.114951
O O2 0.901423 0.554780 0.158851
O O3 0.802738 0.633633 0.180929
O O4 0.850404 0.600188 0.921076
O O5 0.857778 0.919467 0.389615
O O6 0.761236 0.984048 0.434743
O O7 0.805076 0.921220 0.675121
O O8 0.678276 0.322657 0.666782
O O9 0.614689 0.181352 0.848809
O O10 0.583260 0.028029 0.745897
O O11 0.680938 0.092883 0.987130
O O12 0.516894 0.033821 0.004173
O O13 0.667959 0.606847 0.343140
O O14 0.807716 0.068473 0.073807
O O15 0.661900 0.981953 0.219633
O O16 0.033009 0.894220 0.627835
#
# Coordination Sequence:
#
# PCOD9580288 Si02
#       8
#     6   6   6   6   6   6   6   6
#     4  11  23  45  69 104 142 188 242 303 368 453
#     4  10  22  41  63  93 138 185 239 295 366 430
#     4  12  26  48  76 112 153 196 252 314 386 459
#     4  12  26  47  71 111 140 196 242 305 382 447
#     4  11  24  45  73  99 146 182 239 299 366 453
#     4  11  25  43  72 101 143 187 249 304 366 447
#     4  11  23  43  70 100 135 188 237 300 365 438
#     4  10  23  44  64 102 141 188 242 304 365 439
#
# _framework density 20.358388999999999
#
# number of rings (size 3 to 8) (size 9 to 14) (size 15 to 20)
#    0.000    1.000    2.500    4.500    5.250    0.000 
#   13.500    0.000    0.000    0.000    0.000    0.000 
#    0.000    0.000    0.000    0.000    0.000    0.000 
#
# Total GULP energy -268172.163125 kJ/mol
# GULP energy per Si atom -5586.920065 kJ/mol
# Density = 2.031205 g / cm^3
# Si number density = 20.358389 Si / 1000 Ang^3
#
#
#
# Elastic Constant Matrix: (Units=GPa)
#
#
# Indices 1 2 3 4 5 6 
#
# 1 308.7449 -235.3979 43.7314 0.0000 0.0000 0.0000
# 2 -235.3979 308.7449 43.7314 0.0000 0.0000 0.0000
# 3 43.7314 43.7314 118.9357 0.0000 0.0000 0.0000
# 4 0.0000 0.0000 0.0000 91.2861 0.0000 0.0000
# 5 0.0000 0.0000 0.0000 0.0000 91.2861 0.0000
# 6 0.0000 0.0000 0.0000 0.0000 0.0000 272.0714
#
#
#
# Elastic Compliance Matrix: (Units=1/GPa)
#
#
# Indices 1 2 3 4 5 6 
#
# 1 0.013058 0.011221 -0.008927 0.000000 0.000000 0.000000
# 2 0.011221 0.013058 -0.008927 0.000000 0.000000 0.000000
# 3 -0.008927 -0.008927 0.014973 0.000000 0.000000 0.000000
# 4 0.000000 0.000000 0.000000 0.010955 0.000000 0.000000
# 5 0.000000 0.000000 0.000000 0.000000 0.010955 0.000000
# 6 0.000000 0.000000 0.000000 0.000000 0.000000 0.003676
#
#
# Mechanical properties :
#
#
# Convention : Reuss Voigt Hill
#
# Bulk Modulus (GPa) = 35.94253 48.95059 42.44656
# Shear Modulus (GPa) = 56.04412 149.88609 102.96510
#
# Velocity S-wave (km/s) = 5.25248 8.58974 7.11941
# Velocity P-wave (km/s) = 7.38092 11.06683 9.40619
#
# Compressibility (1/GPa) = 0.02782219
#
# Stress axis : x y z
#
# Youngs Moduli (GPa) = 76.57925 76.57925 66.78815
#
# Poissons Ratio (x) = -0.85927 0.59623
# Poissons Ratio (y) = -0.85927 0.59623
# Poissons Ratio (z) = 0.68363 0.68363
#
# Static dielectric constant tensor:
#      x y z
#    x 1.374660 0.000000 0.000000 
#    y 0.000000 1.374660 0.000000 
#    z 0.000000 0.000000 1.743420 
# 
# From -- ./inp_files/773.got.cif
#   From: 2010.05.17/outbox.cif.g08.bks.cpg/sg170_cif.got.tgz:773.got - 2010.05.20 11:14:30.
