data_PCOD9580933
_publ_section_title
;
Structure prediction by ZEFSAII (Michael W. Deem and Ramdas Pophale) SiO2 
 PCOD9580933
Probable space group: P 64
;
_chemical_formula_sum "Si O2"
_cell_formula_units_Z 42
_cell_length_a 8.221243
_cell_length_b 8.221243
_cell_length_c 32.093539
_cell_angle_alpha 90.000000
_cell_angle_beta 90.000000
_cell_angle_gamma 120.000000
_cell_volume 1878.551960
_symmetry_space_group_name_H-M "P 64"
_symmetry_group_IT_number 172
_symmetry_cell_setting 'hexagonal'
loop_
_space_group_symop_operation_xyz
x,y,z
x-y,x,2/3+z
-y,x-y,1/3+z
-x,-y,z
-x+y,-x,2/3+z
y,-x+y,1/3+z
loop_
_atom_site_type_symbol
_atom_site_label
_atom_site_fract_x
_atom_site_fract_y
_atom_site_fract_z
Si Si1 0.209343 0.042608 0.681000
Si Si2 0.725104 0.409136 0.911735
Si Si3 0.500000 0.500000 0.464935
Si Si4 0.500000 0.000000 0.142404
Si Si5 0.826428 0.162526 0.196820
Si Si6 0.455544 0.799314 0.332954
Si Si7 0.188019 0.255350 0.248350
Si Si8 0.708419 0.287000 0.071902
O O1 0.238884 0.098972 0.631342
O O2 0.381737 0.180852 0.711948
O O3 0.206670 0.845404 0.680166
O O4 0.000000 0.000000 0.692891
O O5 0.521172 0.301632 0.891308
O O6 0.830328 0.299086 0.897395
O O7 0.850226 0.638178 0.910067
O O8 0.706007 0.369321 0.960974
O O9 0.675962 0.609887 0.495219
O O10 0.525171 0.370278 0.431041
O O11 0.336934 0.004052 0.169460
O O12 0.408626 0.832829 0.110378
O O13 0.988425 0.158273 0.224007
O O14 0.317114 0.732662 0.371602
O O15 0.500000 0.000000 0.317689
#
# Coordination Sequence:
#
# PCOD9580933 Si02
#       8
#     6   6   3   3   6   6   6   6
#     4  11  24  41  68 106 141 175 224 292 366 420
#     4  10  21  39  70 105 134 175 231 292 360 433
#     4  10  20  40  69  88 120 192 228 271 342 404
#     4  10  28  40  71  94 136 190 240 281 350 422
#     4  11  22  43  64 101 132 183 237 285 349 429
#     4  11  24  41  70 105 136 174 225 290 356 426
#     4  10  21  40  70 103 136 182 225 292 367 425
#     4  11  22  47  67  89 141 187 228 287 341 418
#
# _framework density 22.357647
#
# number of rings (size 3 to 8) (size 9 to 14) (size 15 to 20)
#    0.000    1.429    4.286    0.000    5.000    1.143 
#    0.000    5.714    0.000    0.000    0.000    0.000 
#    0.000    0.000    0.000    0.000    0.000    0.000 
#
# Total GULP energy -233885.764949 kJ/mol
# GULP energy per Si atom -5568.708689 kJ/mol
# Density = 2.230676 g / cm^3
# Si number density = 22.357647 Si / 1000 Ang^3
#
#
#
# Elastic Constant Matrix: (Units=GPa)
#
#
# Indices 1 2 3 4 5 6 
#
# 1 82.2934 35.2975 46.8592 0.0000 0.0000 0.0000
# 2 35.2975 82.2934 46.8592 0.0000 0.0000 0.0000
# 3 46.8592 46.8592 143.3070 0.0000 0.0000 0.0000
# 4 0.0000 0.0000 0.0000 26.4412 0.0000 0.0000
# 5 0.0000 0.0000 0.0000 0.0000 26.4412 0.0000
# 6 0.0000 0.0000 0.0000 0.0000 0.0000 23.4979
#
#
#
# Elastic Compliance Matrix: (Units=1/GPa)
#
#
# Indices 1 2 3 4 5 6 
#
# 1 0.016390 -0.004889 -0.003761 0.000000 0.000000 0.000000
# 2 -0.004889 0.016390 -0.003761 0.000000 0.000000 0.000000
# 3 -0.003761 -0.003761 0.009437 0.000000 0.000000 0.000000
# 4 0.000000 0.000000 0.000000 0.037820 0.000000 0.000000
# 5 0.000000 0.000000 0.000000 0.000000 0.037820 0.000000
# 6 0.000000 0.000000 0.000000 0.000000 0.000000 0.042557
#
#
# Mechanical properties :
#
#
# Convention : Reuss Voigt Hill
#
# Bulk Modulus (GPa) = 57.48090 62.88060 60.18075
# Shear Modulus (GPa) = 26.17350 27.20126 26.68738
#
# Velocity S-wave (km/s) = 3.42522 3.49182 3.45868
# Velocity P-wave (km/s) = 6.43494 6.66656 6.55177
#
# Compressibility (1/GPa) = 0.01739708
#
# Stress axis : x y z
#
# Youngs Moduli (GPa) = 61.01318 61.01318 105.96089
#
# Poissons Ratio (x) = 0.29827 0.39849
# Poissons Ratio (y) = 0.29827 0.39849
# Poissons Ratio (z) = 0.22946 0.22946
#
# Static dielectric constant tensor:
#      x y z
#    x 1.878450 0.000000 0.000000 
#    y 0.000000 1.878450 0.000000 
#    z 0.000000 0.000000 1.808610 
# 
# From -- ./inp_files/3016.got.cif
#   From: 2010.05.17/outbox.cif.g08.bks.cpg/sg172_2_cif.got.tgz:3016.got - 2010.05.20 11:19:57.
