data_PCOD9580038
_publ_section_title
;
Structure prediction by ZEFSAII (Michael W. Deem and Ramdas Pophale) SiO2 
 PCOD9580038
Probable space group: P 61
;
_chemical_formula_sum "Si O2"
_cell_formula_units_Z 36
_cell_length_a 14.346986
_cell_length_b 14.346986
_cell_length_c 8.923535
_cell_angle_alpha 90.000000
_cell_angle_beta 90.000000
_cell_angle_gamma 120.000000
_cell_volume 1590.702311
_symmetry_space_group_name_H-M "P 61"
_symmetry_group_IT_number 169
_symmetry_cell_setting 'hexagonal'
loop_
_space_group_symop_operation_xyz
x,y,z
x-y,x,1/6+z
-y,x-y,1/3+z
-x,-y,1/2+z
-x+y,-x,2/3+z
y,-x+y,5/6+z
loop_
_atom_site_type_symbol
_atom_site_label
_atom_site_fract_x
_atom_site_fract_y
_atom_site_fract_z
Si Si1 0.170979 0.953960 0.057060
Si Si2 0.812613 0.341303 0.519843
Si Si3 0.162183 0.457328 0.856268
Si Si4 0.615862 0.903988 0.400070
Si Si5 0.468874 0.500348 0.625055
Si Si6 0.542713 0.689069 0.843566
O O1 0.178656 0.051846 0.158847
O O2 0.223211 0.890874 0.142628
O O3 0.258581 0.011288 0.923410
O O4 0.797021 0.430443 0.439354
O O5 0.850663 0.283776 0.396671
O O6 0.885276 0.391737 0.667847
O O7 0.703661 0.245956 0.580301
O O8 0.182666 0.474486 0.680541
O O9 0.033241 0.411229 0.852206
O O10 0.215093 0.399248 0.944627
O O11 0.543686 0.959795 0.372226
O O12 0.516387 0.576149 0.771472
#
# Coordination Sequence:
#
# PCOD9580038 Si02
#       6
#     6   6   6   6   6   6
#     4  11  24  50  78 102 141 194 252 313 376 426
#     4  11  23  45  73 101 147 190 237 291 361 440
#     4  11  24  42  71 109 141 185 245 288 364 439
#     4  10  23  46  71 104 144 193 230 301 365 430
#     4  10  23  47  71 100 146 192 241 288 354 438
#     4  11  25  48  74 102 149 198 235 305 368 437
#
# _framework density 22.631515
#
# number of rings (size 3 to 8) (size 9 to 14) (size 15 to 20)
#    0.000    1.333    1.667    4.000    2.333    5.333 
#   27.000    0.000    0.000    0.000    0.000    0.000 
#    0.000    0.000    0.000    0.000    0.000    0.000 
#
# Total GULP energy -200805.652289 kJ/mol
# GULP energy per Si atom -5577.934786 kJ/mol
# Density = 2.258000 g / cm^3
# Si number density = 22.631515 Si / 1000 Ang^3
#
#
#
# Elastic Constant Matrix: (Units=GPa)
#
#
# Indices 1 2 3 4 5 6 
#
# 1 53.5039 8.0088 37.1843 0.0000 0.0000 0.0000
# 2 8.0088 53.5039 37.1843 0.0000 0.0000 0.0000
# 3 37.1843 37.1843 135.7310 0.0000 0.0000 0.0000
# 4 0.0000 0.0000 0.0000 26.9033 0.0000 0.0000
# 5 0.0000 0.0000 0.0000 0.0000 26.9033 0.0000
# 6 0.0000 0.0000 0.0000 0.0000 0.0000 22.7476
#
#
#
# Elastic Compliance Matrix: (Units=1/GPa)
#
#
# Indices 1 2 3 4 5 6 
#
# 1 0.023144 0.001164 -0.006659 0.000000 0.000000 0.000000
# 2 0.001164 0.023144 -0.006659 0.000000 0.000000 0.000000
# 3 -0.006659 -0.006659 0.011016 0.000000 0.000000 0.000000
# 4 0.000000 0.000000 0.000000 0.037170 0.000000 0.000000
# 5 0.000000 0.000000 0.000000 0.000000 0.037170 0.000000
# 6 0.000000 0.000000 0.000000 0.000000 0.000000 0.043961
#
#
# Mechanical properties :
#
#
# Convention : Reuss Voigt Hill
#
# Bulk Modulus (GPa) = 30.30785 45.27706 37.79246
# Shear Modulus (GPa) = 23.70642 26.00160 24.85401
#
# Velocity S-wave (km/s) = 3.24002 3.39324 3.31751
# Velocity P-wave (km/s) = 5.23621 5.94993 5.60444
#
# Compressibility (1/GPa) = 0.03299475
#
# Stress axis : x y z
#
# Youngs Moduli (GPa) = 43.20760 43.20760 90.77551
#
# Poissons Ratio (x) = -0.05028 0.60450
# Poissons Ratio (y) = -0.05028 0.60450
# Poissons Ratio (z) = 0.28773 0.28773
#
# Static dielectric constant tensor:
#      x y z
#    x 1.925570 0.000000 0.000000 
#    y 0.000000 1.925570 0.000000 
#    z 0.000000 0.000000 1.888230 
# 
# From -- ./inp_files/624.got.cif
#   From: 2010.05.17/outbox.cif.g08.bks.cpg/sg169_cif.got.tgz:624.got - 2010.05.20 11:12:54.
