data_PCOD9580394
_publ_section_title
;
Structure prediction by ZEFSAII (Michael W. Deem and Ramdas Pophale) SiO2 
 PCOD9580394
Probable space group: P 65
;
_chemical_formula_sum "Si O2"
_cell_formula_units_Z 36
_cell_length_a 8.365786
_cell_length_b 8.365786
_cell_length_c 24.693670
_cell_angle_alpha 90.000000
_cell_angle_beta 90.000000
_cell_angle_gamma 120.000000
_cell_volume 1496.682820
_symmetry_space_group_name_H-M "P 65"
_symmetry_group_IT_number 170
_symmetry_cell_setting 'hexagonal'
loop_
_space_group_symop_operation_xyz
x,y,z
x-y,x,5/6+z
-y,x-y,2/3+z
-x,-y,1/2+z
-x+y,-x,1/3+z
y,-x+y,1/6+z
loop_
_atom_site_type_symbol
_atom_site_label
_atom_site_fract_x
_atom_site_fract_y
_atom_site_fract_z
Si Si1 0.330585 0.686754 0.280860
Si Si2 0.309879 0.663985 0.150972
Si Si3 0.013115 0.670292 0.342756
Si Si4 0.713679 0.685067 0.782208
Si Si5 0.662001 0.030317 0.257213
Si Si6 0.964058 0.914142 0.702959
O O1 0.290978 0.653601 0.216387
O O2 0.201785 0.752821 0.309006
O O3 0.293396 0.494692 0.306337
O O4 0.543497 0.836993 0.287731
O O5 0.151801 0.482714 0.121869
O O6 0.511275 0.708063 0.131408
O O7 0.296242 0.843527 0.136684
O O8 0.027620 0.524035 0.383733
O O9 0.977920 0.827496 0.368322
O O10 0.798102 0.715018 0.722877
O O11 0.871834 0.872653 0.808800
O O12 0.841348 0.037455 0.230684
#
# Coordination Sequence:
#
# PCOD9580394 Si02
#       6
#     6   6   6   6   6   6
#     4  11  25  46  72 111 148 201 251 323 380 467
#     4  11  25  46  72 111 148 201 251 323 380 467
#     4  11  25  48  74 106 154 198 261 314 390 472
#     4  12  24  46  76 106 152 196 258 308 400 462
#     4  11  25  48  74 106 154 198 261 314 390 472
#     4  12  26  46  78 110 150 208 248 324 382 470
#
# _framework density 24.053191999999999
#
# number of rings (size 3 to 8) (size 9 to 14) (size 15 to 20)
#    0.000    0.667    5.000    2.000    4.667    1.333 
#    0.000    0.000    3.667    0.000    0.000    0.000 
#    0.000    0.000    0.000    0.000    0.000    0.000 
#
# Total GULP energy -200790.747998 kJ/mol
# GULP energy per Si atom -5577.520778 kJ/mol
# Density = 2.399845 g / cm^3
# Si number density = 24.053192 Si / 1000 Ang^3
#
#
#
# Elastic Constant Matrix: (Units=GPa)
#
#
# Indices 1 2 3 4 5 6 
#
# 1 134.4457 42.6689 23.2369 0.0000 0.0000 0.0000
# 2 42.6689 134.4457 23.2369 0.0000 0.0000 0.0000
# 3 23.2369 23.2369 38.4526 0.0000 0.0000 0.0000
# 4 0.0000 0.0000 0.0000 32.3921 0.0000 0.0000
# 5 0.0000 0.0000 0.0000 0.0000 32.3921 0.0000
# 6 0.0000 0.0000 0.0000 0.0000 0.0000 45.8884
#
#
#
# Elastic Compliance Matrix: (Units=1/GPa)
#
#
# Indices 1 2 3 4 5 6 
#
# 1 0.008803 -0.002093 -0.004055 0.000000 0.000000 0.000000
# 2 -0.002093 0.008803 -0.004055 0.000000 0.000000 0.000000
# 3 -0.004055 -0.004055 0.030907 0.000000 0.000000 0.000000
# 4 0.000000 0.000000 0.000000 0.030872 0.000000 0.000000
# 5 0.000000 0.000000 0.000000 0.000000 0.030872 0.000000
# 6 0.000000 0.000000 0.000000 0.000000 0.000000 0.021792
#
#
# Mechanical properties :
#
#
# Convention : Reuss Voigt Hill
#
# Bulk Modulus (GPa) = 35.57785 53.95880 44.76833
# Shear Modulus (GPa) = 30.89797 36.68126 33.78962
#
# Velocity S-wave (km/s) = 3.58798 3.90937 3.75212
# Velocity P-wave (km/s) = 5.65581 6.54671 6.11750
#
# Compressibility (1/GPa) = 0.02810737
#
# Stress axis : x y z
#
# Youngs Moduli (GPa) = 113.59742 113.59742 32.35535
#
# Poissons Ratio (x) = 0.23776 0.13120
# Poissons Ratio (y) = 0.23776 0.13120
# Poissons Ratio (z) = 0.46062 0.46062
#
# Static dielectric constant tensor:
#      x y z
#    x 1.955870 0.000000 0.000000 
#    y 0.000000 1.955870 0.000000 
#    z 0.000000 0.000000 1.983390 
# 
# From -- ./inp_files/1779.got.cif
#   From: 2010.05.17/outbox.cif.g08.bks.cpg/sg170_cif.got.tgz:1779.got - 2010.05.20 11:14:30.
