data_PCOD9580015
_publ_section_title
;
Structure prediction by ZEFSAII (Michael W. Deem and Ramdas Pophale) SiO2 
 PCOD9580015
Probable space group: P 61
;
_chemical_formula_sum "Si O2"
_cell_formula_units_Z 42
_cell_length_a 7.880383
_cell_length_b 7.880383
_cell_length_c 27.095213
_cell_angle_alpha 90.000000
_cell_angle_beta 90.000000
_cell_angle_gamma 120.000000
_cell_volume 1457.195603
_symmetry_space_group_name_H-M "P 61"
_symmetry_group_IT_number 169
_symmetry_cell_setting 'hexagonal'
loop_
_space_group_symop_operation_xyz
x,y,z
x-y,x,1/6+z
-y,x-y,1/3+z
-x,-y,1/2+z
-x+y,-x,2/3+z
y,-x+y,5/6+z
loop_
_atom_site_type_symbol
_atom_site_label
_atom_site_fract_x
_atom_site_fract_y
_atom_site_fract_z
Si Si1 0.106184 0.710514 0.964230
Si Si2 0.720360 0.071814 0.150701
Si Si3 0.834244 0.870221 0.710071
Si Si4 0.485670 0.120040 0.417661
Si Si5 0.648947 0.295317 0.901892
Si Si6 0.917726 0.180503 0.840960
Si Si7 0.636571 0.065381 0.315519
O O1 0.018500 0.818029 0.932442
O O2 0.295941 0.739842 0.936071
O O3 0.977073 0.479577 0.966700
O O4 0.161146 0.796230 0.019041
O O5 0.751934 0.235348 0.192279
O O6 0.742884 0.890624 0.165969
O O7 0.893405 0.237596 0.117224
O O8 0.869986 0.713960 0.678617
O O9 0.981634 0.100501 0.701397
O O10 0.431079 0.903188 0.435098
O O11 0.352098 0.168411 0.453432
O O12 0.505492 0.090485 0.359413
O O13 0.587994 0.411083 0.939585
O O14 0.835756 0.294757 0.874834
#
# Coordination Sequence:
#
# PCOD9580015 Si02
#       7
#     6   6   6   6   6   6   6
#     4  11  22  49  77 118 169 227 290 374 447 537
#     4  10  24  46  79 129 174 226 300 371 456 549
#     4  10  24  44  83 117 169 228 296 364 449 536
#     4  10  22  44  79 116 164 228 289 360 445 542
#     4  11  22  46  81 122 172 227 290 366 455 548
#     4  11  25  45  82 129 169 228 300 371 455 548
#     4   9  21  44  77 121 171 228 285 374 437 546
#
# _framework density 28.822489000000001
#
# number of rings (size 3 to 8) (size 9 to 14) (size 15 to 20)
#    0.000    1.714    2.857    0.857    2.000    3.429 
#    2.571    7.143    0.000    0.000    7.429    0.000 
#    0.000    0.000    0.000    0.000    0.000    0.000 
#
# Total GULP energy -233869.402250 kJ/mol
# GULP energy per Si atom -5568.319101 kJ/mol
# Density = 2.875689 g / cm^3
# Si number density = 28.822489 Si / 1000 Ang^3
#
#
#
# Elastic Constant Matrix: (Units=GPa)
#
#
# Indices 1 2 3 4 5 6 
#
# 1 133.1360 58.0262 20.6311 0.0000 0.0000 0.0000
# 2 58.0262 133.1360 20.6311 0.0000 0.0000 0.0000
# 3 20.6311 20.6311 106.0570 0.0000 0.0000 0.0000
# 4 0.0000 0.0000 0.0000 27.8805 0.0000 0.0000
# 5 0.0000 0.0000 0.0000 0.0000 27.8805 0.0000
# 6 0.0000 0.0000 0.0000 0.0000 0.0000 37.5549
#
#
#
# Elastic Compliance Matrix: (Units=1/GPa)
#
#
# Indices 1 2 3 4 5 6 
#
# 1 0.009387 -0.003927 -0.001062 0.000000 0.000000 0.000000
# 2 -0.003927 0.009387 -0.001062 0.000000 0.000000 0.000000
# 3 -0.001062 -0.001062 0.009842 0.000000 0.000000 0.000000
# 4 0.000000 0.000000 0.000000 0.035867 0.000000 0.000000
# 5 0.000000 0.000000 0.000000 0.000000 0.035867 0.000000
# 6 0.000000 0.000000 0.000000 0.000000 0.000000 0.026628
#
#
# Mechanical properties :
#
#
# Convention : Reuss Voigt Hill
#
# Bulk Modulus (GPa) = 60.55400 63.43398 61.99399
# Shear Modulus (GPa) = 34.58152 36.86588 35.72370
#
# Velocity S-wave (km/s) = 3.46759 3.58028 3.52439
# Velocity P-wave (km/s) = 6.08992 6.25680 6.17392
#
# Compressibility (1/GPa) = 0.01651419
#
# Stress axis : x y z
#
# Youngs Moduli (GPa) = 106.52875 106.52875 101.60379
#
# Poissons Ratio (x) = 0.41831 0.10792
# Poissons Ratio (y) = 0.41831 0.10792
# Poissons Ratio (z) = 0.11316 0.11316
#
# Static dielectric constant tensor:
#      x y z
#    x 2.569800 0.000000 0.000000 
#    y 0.000000 2.569800 0.000000 
#    z 0.000000 0.000000 2.388500 
# 
# From -- ./inp_files/1857.got.cif
#   From: 2010.05.17/outbox.cif.g08.bks.cpg/sg169_cif.got.tgz:1857.got - 2010.05.20 11:12:54.
