data_PCOD9580690
_publ_section_title
;
Structure prediction by ZEFSAII (Michael W. Deem and Ramdas Pophale) SiO2 
 PCOD9580690
Probable space group: P 62
;
_chemical_formula_sum "Si O2"
_cell_formula_units_Z 33
_cell_length_a 11.980122
_cell_length_b 11.980122
_cell_length_c 11.948325
_cell_angle_alpha 90.000000
_cell_angle_beta 90.000000
_cell_angle_gamma 120.000000
_cell_volume 1485.115190
_symmetry_space_group_name_H-M "P 62"
_symmetry_group_IT_number 171
_symmetry_cell_setting 'hexagonal'
loop_
_space_group_symop_operation_xyz
x,y,z
x-y,x,1/3+z
-y,x-y,2/3+z
-x,-y,z
-x+y,-x,1/3+z
y,-x+y,2/3+z
loop_
_atom_site_type_symbol
_atom_site_label
_atom_site_fract_x
_atom_site_fract_y
_atom_site_fract_z
Si Si1 0.743128 0.948827 0.556130
Si Si2 0.489835 0.727794 0.660747
Si Si3 0.500000 0.500000 0.559338
Si Si4 0.477750 0.279812 0.921090
Si Si5 0.669132 0.925869 0.091250
Si Si6 0.192782 0.072069 0.307877
O O1 0.622346 0.818011 0.597351
O O2 0.757152 0.961286 0.422021
O O3 0.860856 0.927679 0.600995
O O4 0.713093 0.059118 0.596338
O O5 0.447607 0.578274 0.633480
O O6 0.512268 0.751914 0.792818
O O7 0.395629 0.778118 0.619191
O O8 0.603800 0.610056 0.479464
O O9 0.445533 0.172458 0.013616
O O10 0.712199 0.879302 0.201345
O O11 0.798639 0.994298 0.016619
#
# Coordination Sequence:
#
# PCOD9580690 Si02
#       6
#     6   6   3   6   6   6
#     4  11  22  48  75 108 148 202 261 327 400 484
#     4  12  27  46  74 113 151 211 261 328 399 489
#     4  12  24  48  78 100 152 212 264 310 394 488
#     4  12  28  46  73 114 155 201 262 332 406 469
#     4  11  26  44  72 111 150 197 258 331 396 476
#     4  10  22  47  76 104 150 197 262 321 397 481
#
# _framework density 22.220499
#
# number of rings (size 3 to 8) (size 9 to 14) (size 15 to 20)
#    0.000    0.727    5.455    1.636    7.636    3.636 
#    0.000    3.636    0.000    0.000    0.000    0.000 
#    0.000    0.000    0.000    0.000    0.000    0.000 
#
# Total GULP energy -183901.813811 kJ/mol
# GULP energy per Si atom -5572.782237 kJ/mol
# Density = 2.216992 g / cm^3
# Si number density = 22.220499 Si / 1000 Ang^3
#
#
#
# Elastic Constant Matrix: (Units=GPa)
#
#
# Indices 1 2 3 4 5 6 
#
# 1 100.1764 25.0523 60.3625 0.0000 0.0000 0.0000
# 2 25.0523 100.1764 60.3625 0.0000 0.0000 0.0000
# 3 60.3625 60.3625 162.5375 0.0000 0.0000 0.0000
# 4 0.0000 0.0000 0.0000 11.9448 0.0000 0.0000
# 5 0.0000 0.0000 0.0000 0.0000 11.9448 0.0000
# 6 0.0000 0.0000 0.0000 0.0000 0.0000 37.5621
#
#
#
# Elastic Compliance Matrix: (Units=1/GPa)
#
#
# Indices 1 2 3 4 5 6 
#
# 1 0.012875 -0.000436 -0.004619 0.000000 0.000000 0.000000
# 2 -0.000436 0.012875 -0.004619 0.000000 0.000000 0.000000
# 3 -0.004619 -0.004619 0.009584 0.000000 0.000000 0.000000
# 4 0.000000 0.000000 0.000000 0.083718 0.000000 0.000000
# 5 0.000000 0.000000 0.000000 0.000000 0.083718 0.000000
# 6 0.000000 0.000000 0.000000 0.000000 0.000000 0.026623
#
#
# Mechanical properties :
#
#
# Convention : Reuss Voigt Hill
#
# Bulk Modulus (GPa) = 62.56578 72.71609 67.64093
# Shear Modulus (GPa) = 19.67954 26.76454 23.22204
#
# Velocity S-wave (km/s) = 2.97921 3.47435 3.23627
# Velocity P-wave (km/s) = 6.32868 6.99219 6.66869
#
# Compressibility (1/GPa) = 0.01598318
#
# Stress axis : x y z
#
# Youngs Moduli (GPa) = 77.66993 77.66993 104.34581
#
# Poissons Ratio (x) = 0.03389 0.48202
# Poissons Ratio (y) = 0.03389 0.48202
# Poissons Ratio (z) = 0.35879 0.35879
#
# Static dielectric constant tensor:
#      x y z
#    x 1.881700 0.000000 0.000000 
#    y 0.000000 1.881700 0.000000 
#    z 0.000000 0.000000 1.799810 
# 
# From -- ./inp_files/1534.got.cif
#   From: 2010.05.17/outbox.cif.g08.bks.cpg/sg171_1_cif.got.tgz:1534.got - 2010.05.20 11:16:09.
