data_PCOD9580798
_publ_section_title
;
Structure prediction by ZEFSAII (Michael W. Deem and Ramdas Pophale) SiO2 
 PCOD9580798
Probable space group: P 62
;
_chemical_formula_sum "Si O2"
_cell_formula_units_Z 42
_cell_length_a 18.595034
_cell_length_b 18.595034
_cell_length_c 7.172357
_cell_angle_alpha 90.000000
_cell_angle_beta 90.000000
_cell_angle_gamma 120.000000
_cell_volume 2147.763628
_symmetry_space_group_name_H-M "P 62"
_symmetry_group_IT_number 171
_symmetry_cell_setting 'hexagonal'
loop_
_space_group_symop_operation_xyz
x,y,z
x-y,x,1/3+z
-y,x-y,2/3+z
-x,-y,z
-x+y,-x,1/3+z
y,-x+y,2/3+z
loop_
_atom_site_type_symbol
_atom_site_label
_atom_site_fract_x
_atom_site_fract_y
_atom_site_fract_z
Si Si1 0.839841 0.317675 0.565190
Si Si2 0.294536 0.240347 0.645667
Si Si3 0.196483 0.700558 0.137247
Si Si4 0.966912 0.589304 0.679937
Si Si5 0.624060 0.751548 0.035536
Si Si6 0.176716 0.570501 0.828125
Si Si7 0.307353 0.129390 0.359847
O O1 0.838408 0.323926 0.344184
O O2 0.789387 0.222555 0.635143
O O3 0.796333 0.364004 0.660418
O O4 0.936100 0.364835 0.629642
O O5 0.352512 0.309523 0.496855
O O6 0.285390 0.158146 0.552045
O O7 0.212614 0.246253 0.659708
O O8 0.336117 0.258576 0.847671
O O9 0.294574 0.766525 0.160469
O O10 0.152113 0.748255 0.046667
O O11 0.183075 0.623102 0.011872
O O12 0.913805 0.581642 0.492817
O O13 0.917164 0.500234 0.779817
O O14 0.690848 0.817864 0.180512
#
# Coordination Sequence:
#
# PCOD9580798 Si02
#       7
#     6   6   6   6   6   6   6
#     4  12  24  42  67  95 132 177 228 278 339 395
#     4  11  22  39  71  99 136 170 222 272 340 398
#     4  12  26  44  64  92 133 180 234 275 348 388
#     4  11  23  43  65  96 133 176 224 288 328 394
#     4  11  21  39  68  92 134 170 220 275 336 392
#     4  12  25  44  63  93 131 180 230 286 325 395
#     4  11  22  43  64 102 133 173 215 283 327 411
#
# _framework density 19.555225
#
# number of rings (size 3 to 8) (size 9 to 14) (size 15 to 20)
#    0.000    0.571    7.143    1.286    2.000    2.286 
#    0.000    2.857    0.000    0.000    0.000    5.000 
#    0.000    0.000    0.000    0.000    0.000    0.000 
#
# Total GULP energy -234609.462251 kJ/mol
# GULP energy per Si atom -5585.939577 kJ/mol
# Density = 1.951072 g / cm^3
# Si number density = 19.555225 Si / 1000 Ang^3
#
#
#
# Elastic Constant Matrix: (Units=GPa)
#
#
# Indices 1 2 3 4 5 6 
#
# 1 56.5482 36.7601 19.9626 0.0000 0.0000 0.0000
# 2 36.7601 56.5482 19.9626 0.0000 0.0000 0.0000
# 3 19.9626 19.9626 139.6879 0.0000 0.0000 0.0000
# 4 0.0000 0.0000 0.0000 25.1551 0.0000 0.0000
# 5 0.0000 0.0000 0.0000 0.0000 25.1551 0.0000
# 6 0.0000 0.0000 0.0000 0.0000 0.0000 9.8940
#
#
#
# Elastic Compliance Matrix: (Units=1/GPa)
#
#
# Indices 1 2 3 4 5 6 
#
# 1 0.030975 -0.019560 -0.001631 0.000000 0.000000 0.000000
# 2 -0.019560 0.030975 -0.001631 0.000000 0.000000 0.000000
# 3 -0.001631 -0.001631 0.007625 0.000000 0.000000 0.000000
# 4 0.000000 0.000000 0.000000 0.039753 0.000000 0.000000
# 5 0.000000 0.000000 0.000000 0.000000 0.039753 0.000000
# 6 0.000000 0.000000 0.000000 0.000000 0.000000 0.101071
#
#
# Mechanical properties :
#
#
# Convention : Reuss Voigt Hill
#
# Bulk Modulus (GPa) = 41.78834 45.12834 43.45834
# Shear Modulus (GPa) = 16.45948 23.78076 20.12012
#
# Velocity S-wave (km/s) = 2.90434 3.49102 3.21111
# Velocity P-wave (km/s) = 5.71513 6.27512 6.00166
#
# Compressibility (1/GPa) = 0.02393012
#
# Stress axis : x y z
#
# Youngs Moduli (GPa) = 32.28368 32.28368 131.14619
#
# Poissons Ratio (x) = 0.63148 0.21394
# Poissons Ratio (y) = 0.63148 0.21394
# Poissons Ratio (z) = 0.05267 0.05267
#
# Static dielectric constant tensor:
#      x y z
#    x 1.720110 0.000000 0.000000 
#    y 0.000000 1.720110 0.000000 
#    z 0.000000 0.000000 1.687310 
# 
# From -- ./inp_files/755.got.cif
#   From: 2010.05.17/outbox.cif.g08.bks.cpg/sg171_1_cif.got.tgz:755.got - 2010.05.20 11:16:09.
