data_PCOD9580414
_publ_section_title
;
Structure prediction by ZEFSAII (Michael W. Deem and Ramdas Pophale) SiO2 
 PCOD9580414
Probable space group: P 62
;
_chemical_formula_sum "Si O2"
_cell_formula_units_Z 24
_cell_length_a 15.870090
_cell_length_b 15.870090
_cell_length_c 5.369150
_cell_angle_alpha 90.000000
_cell_angle_beta 90.000000
_cell_angle_gamma 120.000000
_cell_volume 1171.102608
_symmetry_space_group_name_H-M "P 62"
_symmetry_group_IT_number 171
_symmetry_cell_setting 'hexagonal'
loop_
_space_group_symop_operation_xyz
x,y,z
x-y,x,1/3+z
-y,x-y,2/3+z
-x,-y,z
-x+y,-x,1/3+z
y,-x+y,2/3+z
loop_
_atom_site_type_symbol
_atom_site_label
_atom_site_fract_x
_atom_site_fract_y
_atom_site_fract_z
Si Si1 0.248476 0.941201 0.773520
Si Si2 0.476833 0.886781 0.361405
Si Si3 0.936503 0.244859 0.936481
Si Si4 0.887726 0.478527 0.519687
O O1 0.142588 0.865842 0.879225
O O2 0.313805 0.889794 0.765934
O O3 0.255292 0.992104 0.506614
O O4 0.296263 0.014737 0.001543
O O5 0.577549 0.888899 0.326584
O O6 0.434624 0.839845 0.626406
O O7 0.500000 0.000000 0.381718
O O8 0.407061 0.844900 0.123535
O O9 0.000000 0.500000 0.542144
#
# Coordination Sequence:
#
# PCOD9580414 Si02
#       4
#     6   6   6   6
#     4  12  23  38  60  93 120 163 209 263 305 379
#     4  10  16  32  59  84 116 148 194 237 298 346
#     4  12  23  38  60  93 120 163 209 263 305 379
#     4  10  16  32  59  84 116 148 194 237 298 346
#
# _framework density 20.493506
#
# number of rings (size 3 to 8) (size 9 to 14) (size 15 to 20)
#    0.000    1.000   10.000    1.500    0.000    0.000 
#    0.000    0.000    0.000   10.500    0.000    0.000 
#    0.000    0.000    0.000    0.000    0.000    0.000 
#
# Total GULP energy -133742.382437 kJ/mol
# GULP energy per Si atom -5572.599268 kJ/mol
# Density = 2.044686 g / cm^3
# Si number density = 20.493506 Si / 1000 Ang^3
#
#
#
# Elastic Constant Matrix: (Units=GPa)
#
#
# Indices 1 2 3 4 5 6 
#
# 1 11.5348 11.9849 -6.9563 0.0000 0.0000 0.0000
# 2 11.9849 11.5348 -6.9563 0.0000 0.0000 0.0000
# 3 -6.9563 -6.9563 104.0870 0.0000 0.0000 0.0000
# 4 0.0000 0.0000 0.0000 -31.3018 0.0000 0.0000
# 5 0.0000 0.0000 0.0000 0.0000 -31.3018 0.0000
# 6 0.0000 0.0000 0.0000 0.0000 0.0000 -0.2250
#
#
#
# Elastic Compliance Matrix: (Units=1/GPa)
#
#
# Indices 1 2 3 4 5 6 
#
# 1 -1.088897 1.133165 0.002958 0.000000 0.000000 0.000000
# 2 1.133165 -1.088897 0.002958 0.000000 0.000000 0.000000
# 3 0.002958 0.002958 0.010003 0.000000 0.000000 0.000000
# 4 0.000000 0.000000 0.000000 -0.031947 0.000000 0.000000
# 5 0.000000 0.000000 0.000000 0.000000 -0.031947 0.000000
# 6 0.000000 0.000000 0.000000 0.000000 0.000000 -4.444125
#
#
# Mechanical properties :
#
#
# Convention : Reuss Voigt Hill
#
# Bulk Modulus (GPa) = 9.06028 13.70012 11.38020
# Shear Modulus (GPa) = -0.56072 -3.96008 -2.26040
#
# Velocity S-wave (km/s) = -0.52364 -1.39160 -1.05137
# Velocity P-wave (km/s) = 2.01620 2.02917 2.02269
#
# Compressibility (1/GPa) = 0.11037192
#
# Stress axis : x y z
#
# Youngs Moduli (GPa) = -0.91836 -0.91836 99.97210
#
# Poissons Ratio (x) = 1.04065 -0.29577
# Poissons Ratio (y) = 1.04065 -0.29577
# Poissons Ratio (z) = 0.00272 0.00272
#
# Static dielectric constant tensor:
#      x y z
#    x 1.858430 0.000000 0.000000 
#    y 0.000000 1.858430 0.000000 
#    z 0.000000 0.000000 1.825130 
# 
# From -- ./inp_files/4087.got.cif
#   From: 2010.05.17/outbox.cif.g08.bks.cpg/sg171_3_cif.got.tgz:4087.got - 2010.05.20 11:16:09.
