data_PCOD9580573
_publ_section_title
;
Structure prediction by ZEFSAII (Michael W. Deem and Ramdas Pophale) SiO2 
 PCOD9580573
Probable space group: P 62
;
_chemical_formula_sum "Si O2"
_cell_formula_units_Z 36
_cell_length_a 9.507865
_cell_length_b 9.507865
_cell_length_c 20.221106
_cell_angle_alpha 90.000000
_cell_angle_beta 90.000000
_cell_angle_gamma 120.000000
_cell_volume 1583.075220
_symmetry_space_group_name_H-M "P 62"
_symmetry_group_IT_number 171
_symmetry_cell_setting 'hexagonal'
loop_
_space_group_symop_operation_xyz
x,y,z
x-y,x,1/3+z
-y,x-y,2/3+z
-x,-y,z
-x+y,-x,1/3+z
y,-x+y,2/3+z
loop_
_atom_site_type_symbol
_atom_site_label
_atom_site_fract_x
_atom_site_fract_y
_atom_site_fract_z
Si Si1 0.049772 0.184216 0.700160
Si Si2 0.677765 0.371590 0.069741
Si Si3 0.586611 0.688318 0.832526
Si Si4 0.866335 0.624566 0.819926
Si Si5 0.263361 0.886158 0.643890
Si Si6 0.883430 0.614428 0.971942
O O1 0.014035 0.266098 0.762639
O O2 0.234882 0.269637 0.674975
O O3 0.928398 0.179526 0.644295
O O4 0.000000 0.000000 0.715485
O O5 0.747758 0.528946 0.117765
O O6 0.689173 0.238777 0.116203
O O7 0.506158 0.313688 0.035798
O O8 0.810627 0.443821 0.010139
O O9 0.500000 0.500000 0.810828
O O10 0.769600 0.725663 0.830096
O O11 0.533139 0.690875 0.906946
O O12 0.914700 0.607516 0.893977
O O13 0.346937 0.081230 0.645133
#
# Coordination Sequence:
#
# PCOD9580573 Si02
#       6
#     6   6   6   6   6   6
#     4  10  22  40  61  88 122 166 206 268 319 382
#     4  11  19  35  64  91 120 158 206 263 312 375
#     4   9  18  35  62  87 111 165 208 247 302 392
#     4  10  21  38  64  89 119 162 214 257 310 389
#     4  10  21  37  60  93 128 155 207 265 323 369
#     4  10  21  41  66  88 119 172 218 254 315 399
#
# _framework density 22.740548
#
# number of rings (size 3 to 8) (size 9 to 14) (size 15 to 20)
#    0.000    2.000    1.667    3.500    0.000    4.000 
#    0.000    5.000    7.333    0.000    0.000    0.000 
#    0.000    0.000    0.000    0.000    0.000    0.000 
#
# Total GULP energy -200699.156196 kJ/mol
# GULP energy per Si atom -5574.976561 kJ/mol
# Density = 2.268879 g / cm^3
# Si number density = 22.740548 Si / 1000 Ang^3
#
#
#
# Elastic Constant Matrix: (Units=GPa)
#
#
# Indices 1 2 3 4 5 6 
#
# 1 69.8686 28.9851 32.1732 0.0000 0.0000 0.0000
# 2 28.9851 69.8686 32.1732 0.0000 0.0000 0.0000
# 3 32.1732 32.1732 160.5437 0.0000 0.0000 0.0000
# 4 0.0000 0.0000 0.0000 28.5204 0.0000 0.0000
# 5 0.0000 0.0000 0.0000 0.0000 28.5204 0.0000
# 6 0.0000 0.0000 0.0000 0.0000 0.0000 20.4417
#
#
#
# Elastic Compliance Matrix: (Units=1/GPa)
#
#
# Indices 1 2 3 4 5 6 
#
# 1 0.018047 -0.006413 -0.002331 0.000000 0.000000 0.000000
# 2 -0.006413 0.018047 -0.002331 0.000000 0.000000 0.000000
# 3 -0.002331 -0.002331 0.007163 0.000000 0.000000 0.000000
# 4 0.000000 0.000000 0.000000 0.035063 0.000000 0.000000
# 5 0.000000 0.000000 0.000000 0.000000 0.035063 0.000000
# 6 0.000000 0.000000 0.000000 0.000000 0.000000 0.048920
#
#
# Mechanical properties :
#
#
# Convention : Reuss Voigt Hill
#
# Bulk Modulus (GPa) = 47.38263 54.10487 50.74375
# Shear Modulus (GPa) = 26.11129 29.29312 27.70220
#
# Velocity S-wave (km/s) = 3.39222 3.59297 3.49404
# Velocity P-wave (km/s) = 6.01867 6.40753 6.21614
#
# Compressibility (1/GPa) = 0.02110478
#
# Stress axis : x y z
#
# Youngs Moduli (GPa) = 55.41199 55.41199 139.60138
#
# Poissons Ratio (x) = 0.35536 0.32546
# Poissons Ratio (y) = 0.35536 0.32546
# Poissons Ratio (z) = 0.12919 0.12919
#
# Static dielectric constant tensor:
#      x y z
#    x 1.901900 0.000000 0.000000 
#    y 0.000000 1.901900 0.000000 
#    z 0.000000 0.000000 1.906490 
# 
# From -- ./inp_files/3596.got.cif
#   From: 2010.05.17/outbox.cif.g08.bks.cpg/sg171_2_cif.got.tgz:3596.got - 2010.05.20 11:16:09.
