data_PCOD9580406
_publ_section_title
;
Structure prediction by ZEFSAII (Michael W. Deem and Ramdas Pophale) SiO2 
 PCOD9580406
Probable space group: P 65
;
_chemical_formula_sum "Si O2"
_cell_formula_units_Z 42
_cell_length_a 9.052891
_cell_length_b 9.052891
_cell_length_c 27.718883
_cell_angle_alpha 90.000000
_cell_angle_beta 90.000000
_cell_angle_gamma 120.000000
_cell_volume 1967.346875
_symmetry_space_group_name_H-M "P 65"
_symmetry_group_IT_number 170
_symmetry_cell_setting 'hexagonal'
loop_
_space_group_symop_operation_xyz
x,y,z
x-y,x,5/6+z
-y,x-y,2/3+z
-x,-y,1/2+z
-x+y,-x,1/3+z
y,-x+y,1/6+z
loop_
_atom_site_type_symbol
_atom_site_label
_atom_site_fract_x
_atom_site_fract_y
_atom_site_fract_z
Si Si1 0.316898 0.578915 0.737140
Si Si2 0.737983 0.421085 0.351954
Si Si3 1.000000 0.396524 0.211213
Si Si4 0.079561 0.336128 0.535127
Si Si5 0.060532 0.187741 0.436838
Si Si6 0.060532 0.872791 0.485589
Si Si7 0.336128 0.079561 0.220633
O O1 0.293985 0.587971 0.794547
O O2 0.160562 0.575199 0.708383
O O3 0.332031 0.412012 0.727694
O O4 0.482389 0.750581 0.720418
O O5 0.585364 0.424802 0.380711
O O6 0.731807 0.249419 0.368675
O O7 0.920019 0.587988 0.361399
O O8 0.952637 0.256538 0.253427
O O9 0.047363 0.303901 0.168999
O O10 0.027181 0.286369 0.479504
O O11 0.134665 0.209453 0.560349
O O12 0.036501 0.018251 0.461213
O O13 0.027180 0.740812 0.442923
O O14 0.925212 0.790548 0.528745
#
# Coordination Sequence:
#
# PCOD9580406 Si02
#       7
#     6   6   6   6   6   6   6
#     4  12  29  49  73 109 150 195 251 307 378 448
#     4  12  29  49  73 109 150 195 251 307 378 448
#     4  12  26  46  76 104 148 196 242 306 374 446
#     4  12  28  48  76 108 149 194 248 309 369 456
#     4  12  25  48  77 109 147 193 248 306 381 441
#     4  12  25  48  77 109 147 193 248 306 381 441
#     4  12  28  48  76 108 149 194 248 309 369 456
#
# _framework density 21.348548000000001
#
# number of rings (size 3 to 8) (size 9 to 14) (size 15 to 20)
#    0.000    0.000    5.714    2.571    8.000    0.000 
#    0.000    0.000    0.000    0.000    0.000    0.000 
#    0.000    0.000    0.000    0.000    0.000    0.000 
#
# Total GULP energy -234951.811714 kJ/mol
# GULP energy per Si atom -5594.090755 kJ/mol
# Density = 2.129996 g / cm^3
# Si number density = 21.348548 Si / 1000 Ang^3
#
#
#
# Elastic Constant Matrix: (Units=GPa)
#
#
# Indices 1 2 3 4 5 6 
#
# 1 139.2665 61.9913 34.6570 0.0000 0.0000 0.0000
# 2 61.9913 139.2665 34.6570 0.0000 0.0000 0.0000
# 3 34.6570 34.6570 78.2273 0.0000 0.0000 0.0000
# 4 0.0000 0.0000 0.0000 32.3686 0.0000 0.0000
# 5 0.0000 0.0000 0.0000 0.0000 32.3686 0.0000
# 6 0.0000 0.0000 0.0000 0.0000 0.0000 38.6376
#
#
#
# Elastic Compliance Matrix: (Units=1/GPa)
#
#
# Indices 1 2 3 4 5 6 
#
# 1 0.009402 -0.003539 -0.002598 0.000000 0.000000 0.000000
# 2 -0.003539 0.009402 -0.002598 0.000000 0.000000 0.000000
# 3 -0.002598 -0.002598 0.015085 0.000000 0.000000 0.000000
# 4 0.000000 0.000000 0.000000 0.030894 0.000000 0.000000
# 5 0.000000 0.000000 0.000000 0.000000 0.030894 0.000000
# 6 0.000000 0.000000 0.000000 0.000000 0.000000 0.025882
#
#
# Mechanical properties :
#
#
# Convention : Reuss Voigt Hill
#
# Bulk Modulus (GPa) = 60.89728 68.81900 64.85814
# Shear Modulus (GPa) = 34.60192 35.70527 35.15359
#
# Velocity S-wave (km/s) = 4.03029 4.09405 4.06230
# Velocity P-wave (km/s) = 7.08836 7.39285 7.24221
#
# Compressibility (1/GPa) = 0.01642110
#
# Stress axis : x y z
#
# Youngs Moduli (GPa) = 106.35943 106.35943 66.29129
#
# Poissons Ratio (x) = 0.37637 0.17220
# Poissons Ratio (y) = 0.37637 0.17220
# Poissons Ratio (z) = 0.27629 0.27629
#
# Static dielectric constant tensor:
#      x y z
#    x 1.762590 0.000000 0.000000 
#    y 0.000000 1.762590 0.000000 
#    z 0.000000 0.000000 1.803010 
# 
# From -- ./inp_files/1935.got.cif
#   From: 2010.05.17/outbox.cif.g08.bks.cpg/sg170_cif.got.tgz:1935.got - 2010.05.20 11:14:30.
