data_PCOD9580455
_publ_section_title
;
Structure prediction by ZEFSAII (Michael W. Deem and Ramdas Pophale) SiO2 
 PCOD9580455
Probable space group: P 62
;
_chemical_formula_sum "Si O2"
_cell_formula_units_Z 30
_cell_length_a 12.753605
_cell_length_b 12.753605
_cell_length_c 11.704692
_cell_angle_alpha 90.000000
_cell_angle_beta 90.000000
_cell_angle_gamma 120.000000
_cell_volume 1648.756595
_symmetry_space_group_name_H-M "P 62"
_symmetry_group_IT_number 171
_symmetry_cell_setting 'hexagonal'
loop_
_space_group_symop_operation_xyz
x,y,z
x-y,x,1/3+z
-y,x-y,2/3+z
-x,-y,z
-x+y,-x,1/3+z
y,-x+y,2/3+z
loop_
_atom_site_type_symbol
_atom_site_label
_atom_site_fract_x
_atom_site_fract_y
_atom_site_fract_z
Si Si1 0.500000 0.000000 0.985430
Si Si2 0.246224 0.889050 0.119803
Si Si3 0.438177 0.641717 0.140656
Si Si4 0.642827 0.889050 0.238361
Si Si5 0.500000 0.000000 0.372733
Si Si6 0.358283 0.561823 0.884174
O O1 0.541961 0.111535 0.897270
O O2 0.617742 0.048104 0.065313
O O3 0.210595 0.771264 0.198531
O O4 0.244999 1.000000 0.179082
O O5 0.160020 0.839980 0.012415
O O6 0.560669 0.771264 0.159632
O O7 0.334916 0.669832 0.179082
O O8 0.410843 0.589157 0.012415
O O9 0.569638 0.951896 0.292851
O O10 0.430426 0.888465 0.460893
#
# Coordination Sequence:
#
# PCOD9580455 Si02
#       6
#     3   6   6   6   3   6
#     4  10  20  32  46  70 104 134 170 206 246 304
#     4  10  19  32  50  72 103 138 171 207 248 303
#     4  11  20  31  49  72 103 138 167 205 251 304
#     4  10  19  32  50  72 103 138 171 207 248 303
#     4  10  20  32  46  70 104 134 170 206 246 304
#     4  11  20  31  49  72 103 138 167 205 251 304
#
# _framework density 18.195530999999999
#
# number of rings (size 3 to 8) (size 9 to 14) (size 15 to 20)
#    0.000    1.600    0.000    9.600    0.000    0.000 
#    0.000    0.000    0.000    0.000    0.000    0.000 
#    0.000  329.600    0.000    0.000    0.000    0.000 
#
# Total GULP energy -167114.732825 kJ/mol
# GULP energy per Si atom -5570.491094 kJ/mol
# Density = 1.815412 g / cm^3
# Si number density = 18.195531 Si / 1000 Ang^3
#
#
#
# Elastic Constant Matrix: (Units=GPa)
#
#
# Indices 1 2 3 4 5 6 
#
# 1 69.0667 25.9551 38.2562 0.0000 0.0000 0.0000
# 2 25.9551 69.0667 38.2562 0.0000 0.0000 0.0000
# 3 38.2562 38.2562 142.7570 0.0000 0.0000 0.0000
# 4 0.0000 0.0000 0.0000 -193.9408 0.0000 0.0000
# 5 0.0000 0.0000 0.0000 0.0000 -193.9408 0.0000
# 6 0.0000 0.0000 0.0000 0.0000 0.0000 21.5558
#
#
#
# Elastic Compliance Matrix: (Units=1/GPa)
#
#
# Indices 1 2 3 4 5 6 
#
# 1 0.018308 -0.004888 -0.003596 0.000000 0.000000 0.000000
# 2 -0.004888 0.018308 -0.003596 0.000000 0.000000 0.000000
# 3 -0.003596 -0.003596 0.008932 0.000000 0.000000 0.000000
# 4 0.000000 0.000000 0.000000 -0.005156 0.000000 0.000000
# 5 0.000000 0.000000 0.000000 0.000000 -0.005156 0.000000
# 6 0.000000 0.000000 0.000000 0.000000 0.000000 0.046391
#
#
# Mechanical properties :
#
#
# Convention : Reuss Voigt Hill
#
# Bulk Modulus (GPa) = 46.75795 53.98061 50.36928
# Shear Modulus (GPa) = 44.28068 -61.37030 -8.54481
#
# Velocity S-wave (km/s) = 4.93851 -5.81390 -2.16940
# Velocity P-wave (km/s) = 7.63359 3.91628 4.63328
#
# Compressibility (1/GPa) = 0.02138674
#
# Stress axis : x y z
#
# Youngs Moduli (GPa) = 54.62211 54.62211 111.95270
#
# Poissons Ratio (x) = 0.26699 0.40261
# Poissons Ratio (y) = 0.26699 0.40261
# Poissons Ratio (z) = 0.19643 0.19643
#
# Static dielectric constant tensor:
#      x y z
#    x 2.160910 0.000000 0.000000 
#    y 0.000000 2.160910 0.000000 
#    z 0.000000 0.000000 1.697180 
# 
# From -- ./inp_files/1896.got.cif
#   From: 2010.05.17/outbox.cif.g08.bks.cpg/sg171_1_cif.got.tgz:1896.got - 2010.05.20 11:16:09.
