data_PCOD9580724
_publ_section_title
;
Structure prediction by ZEFSAII (Michael W. Deem and Ramdas Pophale) SiO2 
 PCOD9580724
Probable space group: P 62
;
_chemical_formula_sum "Si O2"
_cell_formula_units_Z 30
_cell_length_a 17.641175
_cell_length_b 17.641175
_cell_length_c 4.917278
_cell_angle_alpha 90.000000
_cell_angle_beta 90.000000
_cell_angle_gamma 120.000000
_cell_volume 1325.288441
_symmetry_space_group_name_H-M "P 62"
_symmetry_group_IT_number 171
_symmetry_cell_setting 'hexagonal'
loop_
_space_group_symop_operation_xyz
x,y,z
x-y,x,1/3+z
-y,x-y,2/3+z
-x,-y,z
-x+y,-x,1/3+z
y,-x+y,2/3+z
loop_
_atom_site_type_symbol
_atom_site_label
_atom_site_fract_x
_atom_site_fract_y
_atom_site_fract_z
Si Si1 0.196140 0.743244 0.790960
Si Si2 0.767197 0.034172 0.329756
Si Si3 0.489551 0.117788 0.648836
Si Si4 0.195592 0.268889 0.167361
Si Si5 0.084032 0.440960 0.266106
O O1 0.179699 0.665119 0.580967
O O2 0.129482 0.769293 0.654280
O O3 0.288428 0.833427 0.780757
O O4 0.164703 0.701368 0.084564
O O5 0.723855 0.951197 0.527102
O O6 0.861299 0.093649 0.466161
O O7 0.704700 0.076291 0.368243
O O8 0.777919 0.011254 0.024672
O O9 0.568944 0.107679 0.527426
O O10 0.413852 0.016211 0.714117
#
# Coordination Sequence:
#
# PCOD9580724 Si02
#       5
#     6   6   6   6   6
#     4  11  23  41  62  94 125 163 217 268 321 383
#     4  11  22  39  63  94 123 164 209 266 318 381
#     4  11  24  43  65  94 127 175 218 262 338 385
#     4  11  21  38  62  92 125 158 209 260 323 375
#     4  10  24  42  67  91 131 171 218 273 317 398
#
# _framework density 22.636581
#
# number of rings (size 3 to 8) (size 9 to 14) (size 15 to 20)
#    0.000    1.200    4.000    1.200    0.000   12.800 
#    3.600    0.000    0.000    6.000    0.000    0.000 
#    0.000    0.000    0.000    0.000    0.000    0.000 
#
# Total GULP energy -167278.038171 kJ/mol
# GULP energy per Si atom -5575.934606 kJ/mol
# Density = 2.258506 g / cm^3
# Si number density = 22.636581 Si / 1000 Ang^3
#
#
#
# Elastic Constant Matrix: (Units=GPa)
#
#
# Indices 1 2 3 4 5 6 
#
# 1 94.8639 53.8379 29.4064 0.0000 0.0000 0.0000
# 2 53.8379 94.8639 29.4064 0.0000 0.0000 0.0000
# 3 29.4064 29.4064 106.6486 0.0000 0.0000 0.0000
# 4 0.0000 0.0000 0.0000 18.6784 0.0000 0.0000
# 5 0.0000 0.0000 0.0000 0.0000 18.6784 0.0000
# 6 0.0000 0.0000 0.0000 0.0000 0.0000 20.5130
#
#
#
# Elastic Compliance Matrix: (Units=1/GPa)
#
#
# Indices 1 2 3 4 5 6 
#
# 1 0.015961 -0.008413 -0.002081 0.000000 0.000000 0.000000
# 2 -0.008413 0.015961 -0.002081 0.000000 0.000000 0.000000
# 3 -0.002081 -0.002081 0.010524 0.000000 0.000000 0.000000
# 4 0.000000 0.000000 0.000000 0.053538 0.000000 0.000000
# 5 0.000000 0.000000 0.000000 0.000000 0.053538 0.000000
# 6 0.000000 0.000000 0.000000 0.000000 0.000000 0.048750
#
#
# Mechanical properties :
#
#
# Convention : Reuss Voigt Hill
#
# Bulk Modulus (GPa) = 57.81874 57.96419 57.89146
# Shear Modulus (GPa) = 21.81604 23.82233 22.81919
#
# Velocity S-wave (km/s) = 3.10780 3.24756 3.17845
# Velocity P-wave (km/s) = 6.20287 6.30272 6.25299
#
# Compressibility (1/GPa) = 0.01729543
#
# Stress axis : x y z
#
# Youngs Moduli (GPa) = 62.65110 62.65110 95.01813
#
# Poissons Ratio (x) = 0.52711 0.19775
# Poissons Ratio (y) = 0.52711 0.19775
# Poissons Ratio (z) = 0.13039 0.13039
#
# Static dielectric constant tensor:
#      x y z
#    x 1.913230 0.000000 0.000000 
#    y 0.000000 1.913230 0.000000 
#    z 0.000000 0.000000 1.835670 
# 
# From -- ./inp_files/297.got.cif
#   From: 2010.05.17/outbox.cif.g08.bks.cpg/sg171_1_cif.got.tgz:297.got - 2010.05.20 11:16:09.
