data_PCOD9580774
_publ_section_title
;
Structure prediction by ZEFSAII (Michael W. Deem and Ramdas Pophale) SiO2 
 PCOD9580774
Probable space group: P 62
;
_chemical_formula_sum "Si O2"
_cell_formula_units_Z 42
_cell_length_a 21.425435
_cell_length_b 21.425435
_cell_length_c 6.114994
_cell_angle_alpha 90.000000
_cell_angle_beta 90.000000
_cell_angle_gamma 120.000000
_cell_volume 2431.005622
_symmetry_space_group_name_H-M "P 62"
_symmetry_group_IT_number 171
_symmetry_cell_setting 'hexagonal'
loop_
_space_group_symop_operation_xyz
x,y,z
x-y,x,1/3+z
-y,x-y,2/3+z
-x,-y,z
-x+y,-x,1/3+z
y,-x+y,2/3+z
loop_
_atom_site_type_symbol
_atom_site_label
_atom_site_fract_x
_atom_site_fract_y
_atom_site_fract_z
Si Si1 0.727678 0.593547 0.296970
Si Si2 0.404079 0.920681 0.880202
Si Si3 0.417884 0.280694 0.851090
Si Si4 0.386464 0.476836 0.934556
Si Si5 0.675847 0.459874 0.598061
Si Si6 0.542841 0.334776 0.521497
Si Si7 0.001512 0.631590 0.898024
O O1 0.810861 0.614417 0.251674
O O2 0.688367 0.513864 0.403525
O O3 0.707068 0.639579 0.467093
O O4 0.683470 0.579686 0.072785
O O5 0.334268 0.894890 0.724236
O O6 0.469700 0.926545 0.738470
O O7 0.392683 0.864556 0.071519
O O8 0.405324 0.983623 0.025236
O O9 0.494072 0.304042 0.733325
O O10 0.374324 0.303134 0.673921
O O11 0.364884 0.526737 0.796674
O O12 0.398164 0.428949 0.756628
O O13 0.628008 0.375816 0.550271
O O14 0.753555 0.481988 0.684222
#
# Coordination Sequence:
#
# PCOD9580774 Si02
#       7
#     6   6   6   6   6   6   6
#     4  11  22  39  58  73 104 138 173 232 285 336
#     4  11  22  39  55  77 108 138 180 233 291 337
#     4  11  22  39  58  73 104 138 173 232 285 336
#     4  11  22  39  55  77 108 138 180 233 291 337
#     4  11  22  35  52  77 101 137 188 229 290 353
#     4  11  22  35  52  77 101 137 188 229 290 353
#     4  10  26  37  54  86  98 134 184 224 285 350
#
# _framework density 17.276802
#
# number of rings (size 3 to 8) (size 9 to 14) (size 15 to 20)
#    0.000    1.143    5.714    0.857    0.000    5.714 
#    0.000    0.000    0.000    0.000    0.000    0.000 
#    0.000    0.000    0.000    0.000    0.000    0.000 
#
# Total GULP energy -234075.884864 kJ/mol
# GULP energy per Si atom -5573.235354 kJ/mol
# Density = 1.723748 g / cm^3
# Si number density = 17.276802 Si / 1000 Ang^3
#
#
#
# Elastic Constant Matrix: (Units=GPa)
#
#
# Indices 1 2 3 4 5 6 
#
# 1 61.2411 28.0566 19.9616 0.0000 0.0000 0.0000
# 2 28.0566 61.2411 19.9616 0.0000 0.0000 0.0000
# 3 19.9616 19.9616 69.1436 0.0000 0.0000 0.0000
# 4 0.0000 0.0000 0.0000 33.2785 0.0000 0.0000
# 5 0.0000 0.0000 0.0000 0.0000 33.2785 0.0000
# 6 0.0000 0.0000 0.0000 0.0000 0.0000 16.5922
#
#
#
# Elastic Compliance Matrix: (Units=1/GPa)
#
#
# Indices 1 2 3 4 5 6 
#
# 1 0.021496 -0.008638 -0.003712 0.000000 0.000000 0.000000
# 2 -0.008638 0.021496 -0.003712 0.000000 0.000000 0.000000
# 3 -0.003712 -0.003712 0.016606 0.000000 0.000000 0.000000
# 4 0.000000 0.000000 0.000000 0.030049 0.000000 0.000000
# 5 0.000000 0.000000 0.000000 0.000000 0.030049 0.000000
# 6 0.000000 0.000000 0.000000 0.000000 0.000000 0.060269
#
#
# Mechanical properties :
#
#
# Convention : Reuss Voigt Hill
#
# Bulk Modulus (GPa) = 36.39833 36.39838 36.39836
# Shear Modulus (GPa) = 22.59891 24.87291 23.73591
#
# Velocity S-wave (km/s) = 3.62062 3.79842 3.71058
# Velocity P-wave (km/s) = 6.21225 6.35223 6.28263
#
# Compressibility (1/GPa) = 0.02747379
#
# Stress axis : x y z
#
# Youngs Moduli (GPa) = 46.51953 46.51953 60.21918
#
# Poissons Ratio (x) = 0.40185 0.22354
# Poissons Ratio (y) = 0.40185 0.22354
# Poissons Ratio (z) = 0.17269 0.17269
#
# Static dielectric constant tensor:
#      x y z
#    x 1.660630 0.000000 0.000000 
#    y 0.000000 1.660630 0.000000 
#    z 0.000000 0.000000 1.622090 
# 
# From -- ./inp_files/4286.got.cif
#   From: 2010.05.17/outbox.cif.g08.bks.cpg/sg171_3_cif.got.tgz:4286.got - 2010.05.20 11:16:09.
