data_PCOD9580347
_publ_section_title
;
Structure prediction by ZEFSAII (Michael W. Deem and Ramdas Pophale) SiO2 
 PCOD9580347
Probable space group: P 65
;
_chemical_formula_sum "Si O2"
_cell_formula_units_Z 48
_cell_length_a 12.278994
_cell_length_b 12.278994
_cell_length_c 15.688246
_cell_angle_alpha 90.000000
_cell_angle_beta 90.000000
_cell_angle_gamma 120.000000
_cell_volume 2048.474663
_symmetry_space_group_name_H-M "P 65"
_symmetry_group_IT_number 170
_symmetry_cell_setting 'hexagonal'
loop_
_space_group_symop_operation_xyz
x,y,z
x-y,x,5/6+z
-y,x-y,2/3+z
-x,-y,1/2+z
-x+y,-x,1/3+z
y,-x+y,1/6+z
loop_
_atom_site_type_symbol
_atom_site_label
_atom_site_fract_x
_atom_site_fract_y
_atom_site_fract_z
Si Si1 0.298680 0.604364 0.017930
Si Si2 0.184484 0.823286 0.108304
Si Si3 0.330673 0.465670 0.600419
Si Si4 0.889054 0.541318 0.657095
Si Si5 0.633926 0.770379 0.128645
Si Si6 0.572147 0.839316 0.957952
Si Si7 0.896238 0.903140 0.212741
Si Si8 0.632913 0.571336 0.433054
O O1 0.226579 0.576080 0.108376
O O2 0.187080 0.576615 0.952263
O O3 0.426326 0.735331 0.990010
O O4 0.325557 0.490290 0.006060
O O5 0.109796 0.729199 0.185374
O O6 0.119009 0.903463 0.080004
O O7 0.324104 0.927156 0.130593
O O8 0.183571 0.755080 0.020024
O O9 0.379919 0.365059 0.605456
O O10 0.253829 0.466423 0.517100
O O11 0.822595 0.603088 0.710093
O O12 0.945506 0.490812 0.728787
O O13 0.016730 0.627922 0.605018
O O14 0.748416 0.842540 0.195202
O O15 0.652030 0.840095 0.039725
O O16 0.951211 0.951098 0.121047
#
# Coordination Sequence:
#
# PCOD9580347 Si02
#       8
#     6   6   6   6   6   6   6   6
#     4  11  27  43  66 102 141 191 234 287 373 440
#     4  11  19  39  66  97 134 170 230 286 348 403
#     4  11  22  37  70 101 129 176 229 294 343 419
#     4  11  26  47  70 103 145 190 235 301 367 447
#     4  11  22  38  68 102 132 175 233 294 353 415
#     4  11  27  46  72 104 147 188 239 296 371 444
#     4  11  21  38  66 102 134 177 235 295 350 418
#     4  11  24  40  68  99 136 183 231 293 351 434
#
# _framework density 23.43207
#
# number of rings (size 3 to 8) (size 9 to 14) (size 15 to 20)
#    0.000    1.000    5.000    2.250    5.250    3.000 
#    0.000    1.250    0.000    0.000    0.000    0.000 
#    0.000    0.000    0.000    0.000    0.000    0.000 
#
# Total GULP energy -267604.052523 kJ/mol
# GULP energy per Si atom -5575.084428 kJ/mol
# Density = 2.337874 g / cm^3
# Si number density = 23.432070 Si / 1000 Ang^3
#
#
#
# Elastic Constant Matrix: (Units=GPa)
#
#
# Indices 1 2 3 4 5 6 
#
# 1 43.8869 12.6676 22.3006 0.0000 0.0000 0.0000
# 2 12.6676 43.8869 22.3006 0.0000 0.0000 0.0000
# 3 22.3006 22.3006 68.9656 0.0000 0.0000 0.0000
# 4 0.0000 0.0000 0.0000 30.7719 0.0000 0.0000
# 5 0.0000 0.0000 0.0000 0.0000 30.7719 0.0000
# 6 0.0000 0.0000 0.0000 0.0000 0.0000 15.6097
#
#
#
# Elastic Compliance Matrix: (Units=1/GPa)
#
#
# Indices 1 2 3 4 5 6 
#
# 1 0.027883 -0.004148 -0.007675 0.000000 0.000000 0.000000
# 2 -0.004148 0.027883 -0.007675 0.000000 0.000000 0.000000
# 3 -0.007675 -0.007675 0.019463 0.000000 0.000000 0.000000
# 4 0.000000 0.000000 0.000000 0.032497 0.000000 0.000000
# 5 0.000000 0.000000 0.000000 0.000000 0.032497 0.000000
# 6 0.000000 0.000000 0.000000 0.000000 0.000000 0.064063
#
#
# Mechanical properties :
#
#
# Convention : Reuss Voigt Hill
#
# Bulk Modulus (GPa) = 27.59869 30.14187 28.87028
# Shear Modulus (GPa) = 19.58014 22.06205 20.82110
#
# Velocity S-wave (km/s) = 2.89383 3.07177 2.98413
# Velocity P-wave (km/s) = 4.79264 5.04702 4.92148
#
# Compressibility (1/GPa) = 0.03623360
#
# Stress axis : x y z
#
# Youngs Moduli (GPa) = 35.86404 35.86404 51.37846
#
# Poissons Ratio (x) = 0.14878 0.39432
# Poissons Ratio (y) = 0.14878 0.39432
# Poissons Ratio (z) = 0.27525 0.27525
#
# Static dielectric constant tensor:
#      x y z
#    x 2.083630 0.000000 0.000000 
#    y 0.000000 2.083630 0.000000 
#    z 0.000000 0.000000 1.888660 
# 
# From -- ./inp_files/1482.got.cif
#   From: 2010.05.17/outbox.cif.g08.bks.cpg/sg170_cif.got.tgz:1482.got - 2010.05.20 11:14:30.
