data_PCOD9580651
_publ_section_title
;
Structure prediction by ZEFSAII (Michael W. Deem and Ramdas Pophale) SiO2 
 PCOD9580651
Probable space group: P 62
;
_chemical_formula_sum "Si O2"
_cell_formula_units_Z 36
_cell_length_a 8.788954
_cell_length_b 8.788954
_cell_length_c 26.951510
_cell_angle_alpha 90.000000
_cell_angle_beta 90.000000
_cell_angle_gamma 120.000000
_cell_volume 1802.968407
_symmetry_space_group_name_H-M "P 62"
_symmetry_group_IT_number 171
_symmetry_cell_setting 'hexagonal'
loop_
_space_group_symop_operation_xyz
x,y,z
x-y,x,1/3+z
-y,x-y,2/3+z
-x,-y,z
-x+y,-x,1/3+z
y,-x+y,2/3+z
loop_
_atom_site_type_symbol
_atom_site_label
_atom_site_fract_x
_atom_site_fract_y
_atom_site_fract_z
Si Si1 0.178543 0.135324 0.098720
Si Si2 0.566187 0.367066 0.996422
Si Si3 0.669721 0.185088 0.833851
Si Si4 0.316978 0.816274 0.422199
Si Si5 0.332094 0.516413 0.604980
Si Si6 0.669166 0.681326 0.349428
O O1 0.358994 0.218981 0.128771
O O2 0.162178 0.306103 0.084032
O O3 0.198706 0.013640 0.056505
O O4 0.000000 0.000000 0.126763
O O5 0.500000 0.500000 0.006705
O O6 0.679602 0.400610 0.947942
O O7 0.403021 0.174544 0.988799
O O8 0.693944 0.390181 0.042480
O O9 0.593914 0.293790 0.804589
O O10 0.787068 0.269944 0.881985
O O11 0.500000 0.000000 0.848780
O O12 0.500000 0.000000 0.421712
O O13 0.500000 0.500000 0.615601
O O14 0.172610 0.402566 0.643792
O O15 0.500000 0.500000 0.370062
#
# Coordination Sequence:
#
# PCOD9580651 Si02
#       6
#     6   6   6   6   6   6
#     4  11  24  39  67 103 133 177 227 283 340 404
#     4  11  20  41  67  99 131 177 227 283 338 404
#     4  10  22  48  66  92 139 183 226 284 348 408
#     4  11  23  40  70 102 137 174 235 282 338 416
#     4  11  26  42  66  98 140 181 228 282 346 413
#     4  10  22  40  65  95 131 178 222 279 339 396
#
# _framework density 19.967072999999999
#
# number of rings (size 3 to 8) (size 9 to 14) (size 15 to 20)
#    0.000    1.333    3.333    2.500    7.000    2.667 
#    0.000    4.167    0.000    0.000    0.000    0.000 
#    0.000    0.000    0.000    0.000    0.000    0.000 
#
# Total GULP energy -200625.611443 kJ/mol
# GULP energy per Si atom -5572.933651 kJ/mol
# Density = 1.992163 g / cm^3
# Si number density = 19.967073 Si / 1000 Ang^3
#
#
#
# Elastic Constant Matrix: (Units=GPa)
#
#
# Indices 1 2 3 4 5 6 
#
# 1 125.2050 74.8868 47.5759 0.0000 0.0000 0.0000
# 2 74.8868 125.2050 47.5759 0.0000 0.0000 0.0000
# 3 47.5759 47.5759 62.5329 0.0000 0.0000 0.0000
# 4 0.0000 0.0000 0.0000 11.5571 0.0000 0.0000
# 5 0.0000 0.0000 0.0000 0.0000 11.5571 0.0000
# 6 0.0000 0.0000 0.0000 0.0000 0.0000 25.1591
#
#
#
# Elastic Compliance Matrix: (Units=1/GPa)
#
#
# Indices 1 2 3 4 5 6 
#
# 1 0.013852 -0.006021 -0.005958 0.000000 0.000000 0.000000
# 2 -0.006021 0.013852 -0.005958 0.000000 0.000000 0.000000
# 3 -0.005958 -0.005958 0.025057 0.000000 0.000000 0.000000
# 4 0.000000 0.000000 0.000000 0.086527 0.000000 0.000000
# 5 0.000000 0.000000 0.000000 0.000000 0.086527 0.000000
# 6 0.000000 0.000000 0.000000 0.000000 0.000000 0.039747
#
#
# Mechanical properties :
#
#
# Convention : Reuss Voigt Hill
#
# Bulk Modulus (GPa) = 59.21503 72.55778 65.88641
# Shear Modulus (GPa) = 16.28313 19.18160 17.73236
#
# Velocity S-wave (km/s) = 2.85879 3.10282 2.98330
# Velocity P-wave (km/s) = 6.37320 7.01814 6.70343
#
# Compressibility (1/GPa) = 0.01688760
#
# Stress axis : x y z
#
# Youngs Moduli (GPa) = 72.19061 72.19061 39.90857
#
# Poissons Ratio (x) = 0.43468 0.23777
# Poissons Ratio (y) = 0.43468 0.23777
# Poissons Ratio (z) = 0.43010 0.43010
#
# Static dielectric constant tensor:
#      x y z
#    x 1.971380 0.000000 0.000000 
#    y 0.000000 1.971380 0.000000 
#    z 0.000000 0.000000 1.708820 
# 
# From -- ./inp_files/5795.got.cif
#   From: 2010.05.17/outbox.cif.g08.bks.cpg/sg171_3_cif.got.tgz:5795.got - 2010.05.20 11:16:09.
