data_PCOD9580987
_publ_section_title
;
Structure prediction by ZEFSAII (Michael W. Deem and Ramdas Pophale) SiO2 
 PCOD9580987
Probable space group: P 64
;
_chemical_formula_sum "Si O2"
_cell_formula_units_Z 30
_cell_length_a 15.304573
_cell_length_b 15.304573
_cell_length_c 6.111922
_cell_angle_alpha 90.000000
_cell_angle_beta 90.000000
_cell_angle_gamma 120.000000
_cell_volume 1239.797823
_symmetry_space_group_name_H-M "P 64"
_symmetry_group_IT_number 172
_symmetry_cell_setting 'hexagonal'
loop_
_space_group_symop_operation_xyz
x,y,z
x-y,x,2/3+z
-y,x-y,1/3+z
-x,-y,z
-x+y,-x,2/3+z
y,-x+y,1/3+z
loop_
_atom_site_type_symbol
_atom_site_label
_atom_site_fract_x
_atom_site_fract_y
_atom_site_fract_z
Si Si1 0.486168 0.121165 0.256560
Si Si2 0.164609 0.022948 0.330301
Si Si3 0.299106 0.719960 0.276175
Si Si4 0.876132 0.223042 0.966958
Si Si5 0.969827 0.667060 0.369017
O O1 0.494256 0.203409 0.072927
O O2 0.602030 0.172977 0.330102
O O3 0.422065 0.114286 0.468506
O O4 0.414560 0.016384 0.134121
O O5 0.244995 0.100457 0.503682
O O6 0.074137 0.940956 0.475508
O O7 0.229912 0.981312 0.210612
O O8 0.295517 0.616262 0.361917
O O9 0.756918 0.150647 0.011691
O O10 0.958783 0.274675 0.159479
#
# Coordination Sequence:
#
# PCOD9580987 Si02
#       5
#     6   6   6   6   6
#     4   9  22  34  67  94 116 158 215 254 312 391
#     4  11  22  40  60  88 122 172 225 270 301 359
#     4   8  18  38  64  93 114 154 206 254 319 390
#     4  11  22  38  61  89 126 170 209 257 314 369
#     4  11  22  38  61  89 126 170 209 257 314 369
#
# _framework density 24.197495
#
# number of rings (size 3 to 8) (size 9 to 14) (size 15 to 20)
#    1.200    0.800    4.000    0.000    2.800    0.000 
#    0.000    7.000    0.000   18.000    0.000    0.000 
#    0.000    0.000    0.000    0.000    0.000    0.000 
#
# Total GULP energy -167015.370555 kJ/mol
# GULP energy per Si atom -5567.179018 kJ/mol
# Density = 2.414242 g / cm^3
# Si number density = 24.197495 Si / 1000 Ang^3
#
#
#
# Elastic Constant Matrix: (Units=GPa)
#
#
# Indices 1 2 3 4 5 6 
#
# 1 87.7595 12.5622 33.1104 0.0000 0.0000 0.0000
# 2 12.5622 87.7595 33.1104 0.0000 0.0000 0.0000
# 3 33.1104 33.1104 56.8376 0.0000 0.0000 0.0000
# 4 0.0000 0.0000 0.0000 33.1529 0.0000 0.0000
# 5 0.0000 0.0000 0.0000 0.0000 33.1529 0.0000
# 6 0.0000 0.0000 0.0000 0.0000 0.0000 37.5987
#
#
#
# Elastic Compliance Matrix: (Units=1/GPa)
#
#
# Indices 1 2 3 4 5 6 
#
# 1 0.014747 0.001449 -0.009435 0.000000 0.000000 0.000000
# 2 0.001449 0.014747 -0.009435 0.000000 0.000000 0.000000
# 3 -0.009435 -0.009435 0.028586 0.000000 0.000000 0.000000
# 4 0.000000 0.000000 0.000000 0.030163 0.000000 0.000000
# 5 0.000000 0.000000 0.000000 0.000000 0.030163 0.000000
# 6 0.000000 0.000000 0.000000 0.000000 0.000000 0.026597
#
#
# Mechanical properties :
#
#
# Convention : Reuss Voigt Hill
#
# Bulk Modulus (GPa) = 43.03148 43.32470 43.17809
# Shear Modulus (GPa) = 26.65375 31.01915 28.83645
#
# Velocity S-wave (km/s) = 3.32250 3.58427 3.45586
# Velocity P-wave (km/s) = 5.70445 5.92223 5.81436
#
# Compressibility (1/GPa) = 0.02323880
#
# Stress axis : x y z
#
# Youngs Moduli (GPa) = 67.81053 67.81053 34.98195
#
# Poissons Ratio (x) = -0.09823 0.33004
# Poissons Ratio (y) = -0.09823 0.33004
# Poissons Ratio (z) = 0.63977 0.63977
#
# Static dielectric constant tensor:
#      x y z
#    x 2.001510 0.000000 0.000000 
#    y 0.000000 2.001510 0.000000 
#    z 0.000000 0.000000 2.022160 
# 
# From -- ./inp_files/200.got.cif
#   From: 2010.05.17/outbox.cif.g08.bks.cpg/sg172_1_cif.got.tgz:200.got - 2010.05.20 11:19:57.
