data_PCOD9580550
_publ_section_title
;
Structure prediction by ZEFSAII (Michael W. Deem and Ramdas Pophale) SiO2 
 PCOD9580550
Probable space group: P 62
;
_chemical_formula_sum "Si O2"
_cell_formula_units_Z 45
_cell_length_a 14.894621
_cell_length_b 14.894621
_cell_length_c 10.831385
_cell_angle_alpha 90.000000
_cell_angle_beta 90.000000
_cell_angle_gamma 120.000000
_cell_volume 2081.006988
_symmetry_space_group_name_H-M "P 62"
_symmetry_group_IT_number 171
_symmetry_cell_setting 'hexagonal'
loop_
_space_group_symop_operation_xyz
x,y,z
x-y,x,1/3+z
-y,x-y,2/3+z
-x,-y,z
-x+y,-x,1/3+z
y,-x+y,2/3+z
loop_
_atom_site_type_symbol
_atom_site_label
_atom_site_fract_x
_atom_site_fract_y
_atom_site_fract_z
Si Si1 0.409132 0.082194 0.759670
Si Si2 0.632604 0.004049 0.501562
Si Si3 0.230714 0.736263 0.102475
Si Si4 0.955458 0.183556 0.832959
Si Si5 0.085822 0.240127 0.080756
Si Si6 0.068895 0.343183 0.620072
Si Si7 0.530764 0.306597 0.716934
Si Si8 0.000000 0.000000 0.449150
O O1 0.314661 0.106537 0.740522
O O2 0.502349 0.198368 0.784207
O O3 0.418775 0.030044 0.635060
O O4 0.370744 0.997952 0.865600
O O5 0.753638 0.039480 0.512887
O O6 0.641026 0.106404 0.438598
O O7 0.575615 0.895315 0.428457
O O8 0.258603 0.650044 0.062212
O O9 0.269390 0.770961 0.242700
O O10 0.277256 0.837051 0.019062
O O11 0.989247 0.266690 0.724048
O O12 0.988681 0.103095 0.782593
O O13 0.836137 0.122530 0.878680
O O14 0.029348 0.235764 0.952000
O O15 0.054307 0.125453 0.116719
#
# Coordination Sequence:
#
# PCOD9580550 Si02
#       8
#     6   6   6   6   6   6   6   3
#     4  10  23  39  63 103 138 185 233 294 364 424
#     4  10  20  41  68  98 133 183 242 289 346 433
#     4  11  23  48  72 106 131 182 241 301 361 428
#     4  12  23  35  52  94 142 197 243 286 339 437
#     4  11  20  33  53  87 141 190 242 272 335 431
#     4  12  25  38  65 100 149 185 242 299 365 425
#     4  10  24  45  78  97 140 183 244 294 359 434
#     4  12  20  28  44  78 140 200 228 268 334 412
#
# _framework density 21.624147000000001
#
# number of rings (size 3 to 8) (size 9 to 14) (size 15 to 20)
#    0.000    1.067    4.000    4.000    3.733    0.000 
#    2.400    0.000    0.000    0.000    0.000    0.000 
#    0.000    0.000    0.000    0.000    0.000    0.000 
#
# Total GULP energy -250680.953904 kJ/mol
# GULP energy per Si atom -5570.687865 kJ/mol
# Density = 2.157493 g / cm^3
# Si number density = 21.624147 Si / 1000 Ang^3
#
#
#
# Elastic Constant Matrix: (Units=GPa)
#
#
# Indices 1 2 3 4 5 6 
#
# 1 88.3713 46.7416 29.1743 0.0000 0.0000 0.0000
# 2 46.7416 88.3713 29.1743 0.0000 0.0000 0.0000
# 3 29.1743 29.1743 74.5969 0.0000 0.0000 0.0000
# 4 0.0000 0.0000 0.0000 5.2073 0.0000 0.0000
# 5 0.0000 0.0000 0.0000 0.0000 5.2073 0.0000
# 6 0.0000 0.0000 0.0000 0.0000 0.0000 20.8148
#
#
#
# Elastic Compliance Matrix: (Units=1/GPa)
#
#
# Indices 1 2 3 4 5 6 
#
# 1 0.016463 -0.007558 -0.003483 0.000000 0.000000 0.000000
# 2 -0.007558 0.016463 -0.003483 0.000000 0.000000 0.000000
# 3 -0.003483 -0.003483 0.016130 0.000000 0.000000 0.000000
# 4 0.000000 0.000000 0.000000 0.192038 0.000000 0.000000
# 5 0.000000 0.000000 0.000000 0.000000 0.192038 0.000000
# 6 0.000000 0.000000 0.000000 0.000000 0.000000 0.048043
#
#
# Mechanical properties :
#
#
# Convention : Reuss Voigt Hill
#
# Bulk Modulus (GPa) = 49.97763 51.28000 50.62881
# Shear Modulus (GPa) = 9.67320 15.99584 12.83452
#
# Velocity S-wave (km/s) = 2.11732 2.72273 2.43888
# Velocity P-wave (km/s) = 5.39810 5.80087 5.60311
#
# Compressibility (1/GPa) = 0.02000895
#
# Stress axis : x y z
#
# Youngs Moduli (GPa) = 60.74118 60.74118 61.99801
#
# Poissons Ratio (x) = 0.45908 0.21593
# Poissons Ratio (y) = 0.45908 0.21593
# Poissons Ratio (z) = 0.21155 0.21155
#
# Static dielectric constant tensor:
#      x y z
#    x 1.777220 0.000000 0.000000 
#    y 0.000000 1.777220 0.000000 
#    z 0.000000 0.000000 1.850580 
# 
# From -- ./inp_files/4706.got.cif
#   From: 2010.05.17/outbox.cif.g08.bks.cpg/sg171_3_cif.got.tgz:4706.got - 2010.05.20 11:16:09.
