data_PCOD9580252
_publ_section_title
;
Structure prediction by ZEFSAII (Michael W. Deem and Ramdas Pophale) SiO2 
 PCOD9580252
Probable space group: P 65
;
_chemical_formula_sum "Si O2"
_cell_formula_units_Z 42
_cell_length_a 14.844915
_cell_length_b 14.844915
_cell_length_c 12.294036
_cell_angle_alpha 90.000000
_cell_angle_beta 90.000000
_cell_angle_gamma 120.000000
_cell_volume 2346.283803
_symmetry_space_group_name_H-M "P 65"
_symmetry_group_IT_number 170
_symmetry_cell_setting 'hexagonal'
loop_
_space_group_symop_operation_xyz
x,y,z
x-y,x,5/6+z
-y,x-y,2/3+z
-x,-y,1/2+z
-x+y,-x,1/3+z
y,-x+y,1/6+z
loop_
_atom_site_type_symbol
_atom_site_label
_atom_site_fract_x
_atom_site_fract_y
_atom_site_fract_z
Si Si1 0.610987 0.123151 0.350350
Si Si2 0.341422 0.985353 0.196240
Si Si3 0.789083 0.284256 0.482836
Si Si4 0.247771 0.409395 0.874558
Si Si5 0.575198 0.553164 0.998713
Si Si6 0.612551 0.030723 0.930303
Si Si7 0.562468 0.283544 0.227221
O O1 0.706500 0.174148 0.432682
O O2 0.582377 0.211372 0.310412
O O3 0.629234 0.073416 0.242868
O O4 0.510336 0.026371 0.403588
O O5 0.244862 0.871640 0.190318
O O6 0.447309 0.985439 0.161473
O O7 0.349838 0.008626 0.326130
O O8 0.333861 0.064841 0.115346
O O9 0.857443 0.289186 0.585962
O O10 0.867428 0.351789 0.387893
O O11 0.720809 0.333321 0.527760
O O12 0.295067 0.512747 0.950239
O O13 0.618360 0.609868 0.884625
O O14 0.673277 0.157313 0.927746
#
# Coordination Sequence:
#
# PCOD9580252 Si02
#       7
#     6   6   6   6   6   6   6
#     4  11  24  35  55  81 109 158 204 243 291 349
#     4  10  21  37  58  81 108 152 187 247 293 340
#     4  12  24  34  55  80 113 158 200 230 294 347
#     4  11  21  38  59  79 115 148 194 246 294 346
#     4  11  22  37  50  80 118 153 192 242 283 340
#     4  10  21  37  53  72 117 148 193 245 287 330
#     4  11  21  36  52  81 108 155 196 243 280 342
#
# _framework density 17.900649000000001
#
# number of rings (size 3 to 8) (size 9 to 14) (size 15 to 20)
#    0.000    1.143    7.143    2.571    6.000    0.000 
#    0.000    0.000    0.000    0.000    0.000    0.000 
#    8.571    0.000    0.000    0.000    0.000    0.000 
#
# Total GULP energy -234122.010091 kJ/mol
# GULP energy per Si atom -5574.333574 kJ/mol
# Density = 1.785991 g / cm^3
# Si number density = 17.900649 Si / 1000 Ang^3
#
#
#
# Elastic Constant Matrix: (Units=GPa)
#
#
# Indices 1 2 3 4 5 6 
#
# 1 47.4476 10.4133 21.1715 0.0000 0.0000 0.0000
# 2 10.4133 47.4476 21.1715 0.0000 0.0000 0.0000
# 3 21.1715 21.1715 114.8825 0.0000 0.0000 0.0000
# 4 0.0000 0.0000 0.0000 21.9613 0.0000 0.0000
# 5 0.0000 0.0000 0.0000 0.0000 21.9613 0.0000
# 6 0.0000 0.0000 0.0000 0.0000 0.0000 18.5172
#
#
#
# Elastic Compliance Matrix: (Units=1/GPa)
#
#
# Indices 1 2 3 4 5 6 
#
# 1 0.023489 -0.003512 -0.003682 0.000000 0.000000 0.000000
# 2 -0.003512 0.023489 -0.003682 0.000000 0.000000 0.000000
# 3 -0.003682 -0.003682 0.010061 0.000000 0.000000 0.000000
# 4 0.000000 0.000000 0.000000 0.045535 0.000000 0.000000
# 5 0.000000 0.000000 0.000000 0.000000 0.045535 0.000000
# 6 0.000000 0.000000 0.000000 0.000000 0.000000 0.054004
#
#
# Mechanical properties :
#
#
# Convention : Reuss Voigt Hill
#
# Bulk Modulus (GPa) = 28.33717 35.03227 31.68472
# Shear Modulus (GPa) = 21.21993 22.95608 22.08800
#
# Velocity S-wave (km/s) = 3.44674 3.58497 3.51653
# Velocity P-wave (km/s) = 5.63069 6.06209 5.85036
#
# Compressibility (1/GPa) = 0.03528933
#
# Stress axis : x y z
#
# Youngs Moduli (GPa) = 42.57227 42.57227 99.38910
#
# Poissons Ratio (x) = 0.14953 0.36590
# Poissons Ratio (y) = 0.14953 0.36590
# Poissons Ratio (z) = 0.15673 0.15673
#
# Static dielectric constant tensor:
#      x y z
#    x 1.625140 0.000000 0.000000 
#    y 0.000000 1.625140 0.000000 
#    z 0.000000 0.000000 1.709830 
# 
# From -- ./inp_files/974.got.cif
#   From: 2010.05.17/outbox.cif.g08.bks.cpg/sg170_cif.got.tgz:974.got - 2010.05.20 11:14:30.
