data_PCOD9580627
_publ_section_title
;
Structure prediction by ZEFSAII (Michael W. Deem and Ramdas Pophale) SiO2 
 PCOD9580627
Probable space group: P 62
;
_chemical_formula_sum "Si O2"
_cell_formula_units_Z 27
_cell_length_a 16.078102
_cell_length_b 16.078102
_cell_length_c 6.443828
_cell_angle_alpha 90.000000
_cell_angle_beta 90.000000
_cell_angle_gamma 120.000000
_cell_volume 1442.594029
_symmetry_space_group_name_H-M "P 62"
_symmetry_group_IT_number 171
_symmetry_cell_setting 'hexagonal'
loop_
_space_group_symop_operation_xyz
x,y,z
x-y,x,1/3+z
-y,x-y,2/3+z
-x,-y,z
-x+y,-x,1/3+z
y,-x+y,2/3+z
loop_
_atom_site_type_symbol
_atom_site_label
_atom_site_fract_x
_atom_site_fract_y
_atom_site_fract_z
Si Si1 0.010631 0.664638 0.081650
Si Si2 0.500000 0.000000 0.698055
Si Si3 0.191167 0.808387 0.352509
Si Si4 0.596464 0.337536 0.611226
Si Si5 0.654193 0.528799 0.363492
O O1 0.977825 0.568389 0.220080
O O2 0.099252 0.751676 0.203862
O O3 0.921748 0.682002 0.048859
O O4 0.047317 0.646415 0.862951
O O5 0.489772 0.916813 0.851885
O O6 0.276468 0.793585 0.261426
O O7 0.165832 0.753473 0.572837
O O8 0.637110 0.273946 0.508555
O O9 0.639320 0.437451 0.491523
#
# Coordination Sequence:
#
# PCOD9580627 Si02
#       5
#     6   3   6   6   6
#     4  11  24  41  60  87 123 160 209 258 313 365
#     4  10  22  36  58  88 118 166 204 240 300 356
#     4  11  25  39  60  89 119 166 211 255 312 373
#     4  12  22  35  56  89 129 172 211 240 295 360
#     4  11  23  38  60  88 124 165 198 257 289 367
#
# _framework density 18.716284999999999
#
# number of rings (size 3 to 8) (size 9 to 14) (size 15 to 20)
#    0.000    0.889    4.444    3.333    6.222    3.556 
#    0.000    0.000    0.000    0.000    0.000    7.778 
#    0.000    0.000    0.000    0.000    0.000    0.000 
#
# Total GULP energy -150876.259405 kJ/mol
# GULP energy per Si atom -5588.009608 kJ/mol
# Density = 1.867369 g / cm^3
# Si number density = 18.716285 Si / 1000 Ang^3
#
#
#
# Elastic Constant Matrix: (Units=GPa)
#
#
# Indices 1 2 3 4 5 6 
#
# 1 88.4741 42.6480 36.6568 0.0000 0.0000 0.0000
# 2 42.6480 88.4741 36.6568 0.0000 0.0000 0.0000
# 3 36.6568 36.6568 97.4120 0.0000 0.0000 0.0000
# 4 0.0000 0.0000 0.0000 22.8322 0.0000 0.0000
# 5 0.0000 0.0000 0.0000 0.0000 22.8322 0.0000
# 6 0.0000 0.0000 0.0000 0.0000 0.0000 22.9131
#
#
#
# Elastic Compliance Matrix: (Units=1/GPa)
#
#
# Indices 1 2 3 4 5 6 
#
# 1 0.015740 -0.006081 -0.003635 0.000000 0.000000 0.000000
# 2 -0.006081 0.015740 -0.003635 0.000000 0.000000 0.000000
# 3 -0.003635 -0.003635 0.013001 0.000000 0.000000 0.000000
# 4 0.000000 0.000000 0.000000 0.043798 0.000000 0.000000
# 5 0.000000 0.000000 0.000000 0.000000 0.043798 0.000000
# 6 0.000000 0.000000 0.000000 0.000000 0.000000 0.043643
#
#
# Mechanical properties :
#
#
# Convention : Reuss Voigt Hill
#
# Bulk Modulus (GPa) = 56.24297 56.25373 56.24835
# Shear Modulus (GPa) = 23.99830 24.27543 24.13686
#
# Velocity S-wave (km/s) = 3.58469 3.60533 3.59502
# Velocity P-wave (km/s) = 6.87378 6.88857 6.88118
#
# Compressibility (1/GPa) = 0.01778000
#
# Stress axis : x y z
#
# Youngs Moduli (GPa) = 63.53184 63.53184 76.91628
#
# Poissons Ratio (x) = 0.38637 0.27956
# Poissons Ratio (y) = 0.38637 0.27956
# Poissons Ratio (z) = 0.23091 0.23091
#
# Static dielectric constant tensor:
#      x y z
#    x 1.662490 0.000000 0.000000 
#    y 0.000000 1.662490 0.000000 
#    z 0.000000 0.000000 1.675260 
# 
# From -- ./inp_files/597.got.cif
#   From: 2010.05.17/outbox.cif.g08.bks.cpg/sg171_1_cif.got.tgz:597.got - 2010.05.20 11:16:09.
