data_PCOD9580376
_publ_section_title
;
Structure prediction by ZEFSAII (Michael W. Deem and Ramdas Pophale) SiO2 
 PCOD9580376
Probable space group: P 65
;
_chemical_formula_sum "Si O2"
_cell_formula_units_Z 48
_cell_length_a 14.529901
_cell_length_b 14.529901
_cell_length_c 14.754372
_cell_angle_alpha 90.000000
_cell_angle_beta 90.000000
_cell_angle_gamma 120.000000
_cell_volume 2697.594523
_symmetry_space_group_name_H-M "P 65"
_symmetry_group_IT_number 170
_symmetry_cell_setting 'hexagonal'
loop_
_space_group_symop_operation_xyz
x,y,z
x-y,x,5/6+z
-y,x-y,2/3+z
-x,-y,1/2+z
-x+y,-x,1/3+z
y,-x+y,1/6+z
loop_
_atom_site_type_symbol
_atom_site_label
_atom_site_fract_x
_atom_site_fract_y
_atom_site_fract_z
Si Si1 0.530650 0.851899 0.331850
Si Si2 0.217225 0.712476 0.807980
Si Si3 0.396969 0.284790 0.334681
Si Si4 0.439175 0.925048 0.833056
Si Si5 0.712476 0.217225 0.813682
Si Si6 0.469350 0.321249 0.956478
Si Si7 0.925048 0.439175 0.788606
Si Si8 0.284790 0.396969 0.286981
O O1 0.561763 0.854830 0.226559
O O2 0.401402 0.789623 0.325041
O O3 0.561614 0.780807 0.394164
O O4 0.567418 0.971464 0.363870
O O5 0.331836 0.811630 0.831194
O O6 0.210377 0.598598 0.796620
O O7 0.174839 0.726225 0.712457
O O8 0.448614 0.273774 0.242538
O O9 0.477971 0.390313 0.391805
O O10 0.298163 0.298163 0.310831
O O11 0.368901 0.184451 0.394164
O O12 0.473647 0.947295 0.727497
O O13 0.522029 0.912342 0.896523
O O14 0.706933 0.145170 0.728435
O O15 0.811630 0.331836 0.790468
O O16 0.432582 0.404046 0.924459
#
# Coordination Sequence:
#
# PCOD9580376 Si02
#       8
#     6   6   6   6   6   6   6   6
#     4  11  23  40  56  86 125 166 211 248 309 370
#     4  11  23  35  58  84 119 166 202 251 303 363
#     4  12  24  39  61  89 122 162 209 260 314 369
#     4  12  22  39  57  87 128 163 208 258 301 383
#     4  11  23  35  58  84 119 166 202 251 303 363
#     4  11  23  40  56  86 125 166 211 248 309 370
#     4  12  22  39  57  87 128 163 208 258 301 383
#     4  12  24  39  61  89 122 162 209 260 314 369
#
# _framework density 17.79363
#
# number of rings (size 3 to 8) (size 9 to 14) (size 15 to 20)
#    0.000    0.500    7.500    2.250    3.500    0.000 
#    0.000    0.000    0.000    0.000    0.000    1.750 
#    0.000    0.000    0.000    0.000    0.000    0.000 
#
# Total GULP energy -268046.297660 kJ/mol
# GULP energy per Si atom -5584.297868 kJ/mol
# Density = 1.775313 g / cm^3
# Si number density = 17.793630 Si / 1000 Ang^3
#
#
#
# Elastic Constant Matrix: (Units=GPa)
#
#
# Indices 1 2 3 4 5 6 
#
# 1 86.2862 21.7567 27.4140 0.0000 0.0000 0.0000
# 2 21.7567 86.2862 27.4140 0.0000 0.0000 0.0000
# 3 27.4140 27.4140 118.1437 0.0000 0.0000 0.0000
# 4 0.0000 0.0000 0.0000 19.0969 0.0000 0.0000
# 5 0.0000 0.0000 0.0000 0.0000 19.0969 0.0000
# 6 0.0000 0.0000 0.0000 0.0000 0.0000 32.2647
#
#
#
# Elastic Compliance Matrix: (Units=1/GPa)
#
#
# Indices 1 2 3 4 5 6 
#
# 1 0.012994 -0.002503 -0.002434 0.000000 0.000000 0.000000
# 2 -0.002503 0.012994 -0.002434 0.000000 0.000000 0.000000
# 3 -0.002434 -0.002434 0.009594 0.000000 0.000000 0.000000
# 4 0.000000 0.000000 0.000000 0.052364 0.000000 0.000000
# 5 0.000000 0.000000 0.000000 0.000000 0.052364 0.000000
# 6 0.000000 0.000000 0.000000 0.000000 0.000000 0.030994
#
#
# Mechanical properties :
#
#
# Convention : Reuss Voigt Hill
#
# Bulk Modulus (GPa) = 47.98795 49.32063 48.65429
# Shear Modulus (GPa) = 25.90762 28.36714 27.13738
#
# Velocity S-wave (km/s) = 3.81990 3.99711 3.90951
# Velocity P-wave (km/s) = 6.81786 7.00577 6.91246
#
# Compressibility (1/GPa) = 0.02083857
#
# Stress axis : x y z
#
# Youngs Moduli (GPa) = 76.95947 76.95947 104.23208
#
# Poissons Ratio (x) = 0.19263 0.25373
# Poissons Ratio (y) = 0.19263 0.25373
# Poissons Ratio (z) = 0.18734 0.18734
#
# Static dielectric constant tensor:
#      x y z
#    x 1.638970 0.000000 0.000000 
#    y 0.000000 1.638970 0.000000 
#    z 0.000000 0.000000 1.696040 
# 
# From -- ./inp_files/1299.got.cif
#   From: 2010.05.17/outbox.cif.g08.bks.cpg/sg170_cif.got.tgz:1299.got - 2010.05.20 11:14:30.
