data_PCOD9580704
_publ_section_title
;
Structure prediction by ZEFSAII (Michael W. Deem and Ramdas Pophale) SiO2 
 PCOD9580704
Probable space group: P 62
;
_chemical_formula_sum "Si O2"
_cell_formula_units_Z 48
_cell_length_a 15.214007
_cell_length_b 15.214007
_cell_length_c 11.647532
_cell_angle_alpha 90.000000
_cell_angle_beta 90.000000
_cell_angle_gamma 120.000000
_cell_volume 2334.811197
_symmetry_space_group_name_H-M "P 62"
_symmetry_group_IT_number 171
_symmetry_cell_setting 'hexagonal'
loop_
_space_group_symop_operation_xyz
x,y,z
x-y,x,1/3+z
-y,x-y,2/3+z
-x,-y,z
-x+y,-x,1/3+z
y,-x+y,2/3+z
loop_
_atom_site_type_symbol
_atom_site_label
_atom_site_fract_x
_atom_site_fract_y
_atom_site_fract_z
Si Si1 0.093504 0.610730 0.129740
Si Si2 0.000180 0.405046 0.787473
Si Si3 0.237122 0.727348 0.757879
Si Si4 0.112040 0.813579 0.027344
Si Si5 0.577119 0.878569 0.714118
Si Si6 0.398579 0.693468 0.838952
Si Si7 0.799879 0.096795 0.257578
Si Si8 0.685458 0.067274 0.884325
O O1 0.078338 0.639840 0.260311
O O2 0.195309 0.603661 0.133716
O O3 0.000000 0.500000 0.101628
O O4 0.109001 0.705450 0.049914
O O5 0.883120 0.317953 0.771492
O O6 0.000000 0.500000 0.841124
O O7 0.066260 0.372897 0.863014
O O8 0.051024 0.435677 0.661357
O O9 0.283892 0.672965 0.835706
O O10 0.266881 0.717146 0.628880
O O11 0.296290 0.842916 0.799734
O O12 0.205073 0.890494 0.946623
O O13 0.006866 0.789949 0.974064
O O14 0.122745 0.859729 0.152981
O O15 0.468882 0.787512 0.755527
O O16 0.646286 0.829035 0.684794
O O17 0.633192 0.964495 0.810537
#
# Coordination Sequence:
#
# PCOD9580704 Si02
#       8
#     6   6   6   6   6   6   6   6
#     4  11  24  42  63  97 141 182 224 278 333 397
#     4  11  24  40  68  95 133 180 224 273 333 404
#     4  12  25  41  65  97 136 182 225 283 328 400
#     4  10  23  44  69  97 134 175 222 281 334 420
#     4  11  24  41  66  95 132 181 220 285 331 408
#     4  12  25  39  61  98 137 179 237 273 327 393
#     4  10  23  44  65 101 127 173 226 272 349 399
#     4  11  24  43  65  95 130 177 231 268 344 402
#
# _framework density 20.558406000000002
#
# number of rings (size 3 to 8) (size 9 to 14) (size 15 to 20)
#    0.000    1.000    3.750    2.250    7.000    2.500 
#    0.000    0.000    0.000    2.250    0.000    0.000 
#    0.000    0.000    0.000    0.000    0.000    0.000 
#
# Total GULP energy -268341.699447 kJ/mol
# GULP energy per Si atom -5590.452072 kJ/mol
# Density = 2.051161 g / cm^3
# Si number density = 20.558406 Si / 1000 Ang^3
#
#
#
# Elastic Constant Matrix: (Units=GPa)
#
#
# Indices 1 2 3 4 5 6 
#
# 1 65.5433 -0.8170 -0.7381 0.0000 0.0000 0.0000
# 2 -0.8170 65.5433 -0.7381 0.0000 0.0000 0.0000
# 3 -0.7381 -0.7381 72.8419 0.0000 0.0000 0.0000
# 4 0.0000 0.0000 0.0000 17.8283 0.0000 0.0000
# 5 0.0000 0.0000 0.0000 0.0000 17.8283 0.0000
# 6 0.0000 0.0000 0.0000 0.0000 0.0000 33.1802
#
#
#
# Elastic Compliance Matrix: (Units=1/GPa)
#
#
# Indices 1 2 3 4 5 6 
#
# 1 0.015261 0.000192 0.000157 0.000000 0.000000 0.000000
# 2 0.000192 0.015261 0.000157 0.000000 0.000000 0.000000
# 3 0.000157 0.000157 0.013732 0.000000 0.000000 0.000000
# 4 0.000000 0.000000 0.000000 0.056090 0.000000 0.000000
# 5 0.000000 0.000000 0.000000 0.000000 0.056090 0.000000
# 6 0.000000 0.000000 0.000000 0.000000 0.000000 0.030138
#
#
# Mechanical properties :
#
#
# Convention : Reuss Voigt Hill
#
# Bulk Modulus (GPa) = 22.09244 22.14912 22.12078
# Shear Modulus (GPa) = 24.91886 27.51548 26.21717
#
# Velocity S-wave (km/s) = 3.48530 3.66239 3.57494
# Velocity P-wave (km/s) = 5.19287 5.35549 5.27481
#
# Compressibility (1/GPa) = 0.04526436
#
# Stress axis : x y z
#
# Youngs Moduli (GPa) = 65.52546 65.52546 72.82509
#
# Poissons Ratio (x) = -0.01258 -0.01140
# Poissons Ratio (y) = -0.01258 -0.01140
# Poissons Ratio (z) = -0.01026 -0.01026
#
# Static dielectric constant tensor:
#      x y z
#    x 1.738170 0.000000 0.000000 
#    y 0.000000 1.738170 0.000000 
#    z 0.000000 0.000000 1.763510 
# 
# From -- ./inp_files/4700.got.cif
#   From: 2010.05.17/outbox.cif.g08.bks.cpg/sg171_3_cif.got.tgz:4700.got - 2010.05.20 11:16:09.
