data_PCOD9580409
_publ_section_title
;
Structure prediction by ZEFSAII (Michael W. Deem and Ramdas Pophale) SiO2 
 PCOD9580409
Probable space group: P 65
;
_chemical_formula_sum "Si O2"
_cell_formula_units_Z 36
_cell_length_a 7.907632
_cell_length_b 7.907632
_cell_length_c 25.821733
_cell_angle_alpha 90.000000
_cell_angle_beta 90.000000
_cell_angle_gamma 120.000000
_cell_volume 1398.327563
_symmetry_space_group_name_H-M "P 65"
_symmetry_group_IT_number 170
_symmetry_cell_setting 'hexagonal'
loop_
_space_group_symop_operation_xyz
x,y,z
x-y,x,5/6+z
-y,x-y,2/3+z
-x,-y,1/2+z
-x+y,-x,1/3+z
y,-x+y,1/6+z
loop_
_atom_site_type_symbol
_atom_site_label
_atom_site_fract_x
_atom_site_fract_y
_atom_site_fract_z
Si Si1 0.857459 0.228551 0.486040
Si Si2 0.664357 0.607957 0.689931
Si Si3 0.867994 0.426787 0.762662
Si Si4 0.982834 0.215084 0.919260
Si Si5 0.115969 0.136167 0.558308
Si Si6 0.506433 0.826159 0.022995
O O1 0.920612 0.246834 0.426531
O O2 0.623448 0.105942 0.490238
O O3 0.934172 0.432804 0.515263
O O4 0.967949 0.147715 0.519813
O O5 0.744498 0.503804 0.728761
O O6 0.740370 0.615591 0.631726
O O7 0.715736 0.826425 0.706719
O O8 0.798788 0.201228 0.748823
O O9 0.822286 0.451644 0.822647
O O10 0.095941 0.571252 0.746231
O O11 0.006217 0.029439 0.932097
O O12 0.263741 0.089325 0.528462
#
# Coordination Sequence:
#
# PCOD9580409 Si02
#       6
#     6   6   6   6   6   6
#     4  12  28  48  81 114 164 215 278 339 426 495
#     4  12  28  49  79 119 161 211 273 346 414 505
#     4  12  26  51  84 120 163 217 281 340 431 510
#     4  12  27  52  80 118 166 215 274 348 425 498
#     4  12  27  53  76 119 163 216 274 347 416 505
#     4  12  26  51  80 120 161 220 272 348 420 505
#
# _framework density 25.745042000000002
#
# number of rings (size 3 to 8) (size 9 to 14) (size 15 to 20)
#    0.000    0.000    5.000    4.000    2.333    0.000 
#    3.000    0.000    0.000    0.000    0.000    0.000 
#    0.000    0.000    0.000    0.000    0.000    0.000 
#
# Total GULP energy -200447.590269 kJ/mol
# GULP energy per Si atom -5567.988619 kJ/mol
# Density = 2.568645 g / cm^3
# Si number density = 25.745042 Si / 1000 Ang^3
#
#
#
# Elastic Constant Matrix: (Units=GPa)
#
#
# Indices 1 2 3 4 5 6 
#
# 1 130.4284 50.6068 41.0540 0.0000 0.0000 0.0000
# 2 50.6068 130.4284 41.0540 0.0000 0.0000 0.0000
# 3 41.0540 41.0540 65.9493 0.0000 0.0000 0.0000
# 4 0.0000 0.0000 0.0000 28.6735 0.0000 0.0000
# 5 0.0000 0.0000 0.0000 0.0000 28.6735 0.0000
# 6 0.0000 0.0000 0.0000 0.0000 0.0000 39.9108
#
#
#
# Elastic Compliance Matrix: (Units=1/GPa)
#
#
# Indices 1 2 3 4 5 6 
#
# 1 0.010112 -0.002416 -0.004791 0.000000 0.000000 0.000000
# 2 -0.002416 0.010112 -0.004791 0.000000 0.000000 0.000000
# 3 -0.004791 -0.004791 0.021129 0.000000 0.000000 0.000000
# 4 0.000000 0.000000 0.000000 0.034875 0.000000 0.000000
# 5 0.000000 0.000000 0.000000 0.000000 0.034875 0.000000
# 6 0.000000 0.000000 0.000000 0.000000 0.000000 0.025056
#
#
# Mechanical properties :
#
#
# Convention : Reuss Voigt Hill
#
# Bulk Modulus (GPa) = 57.61440 65.80399 61.70920
# Shear Modulus (GPa) = 30.13094 32.39096 31.26095
#
# Velocity S-wave (km/s) = 3.42476 3.55088 3.48839
# Velocity P-wave (km/s) = 6.16977 6.51360 6.34402
#
# Compressibility (1/GPa) = 0.01735677
#
# Stress axis : x y z
#
# Youngs Moduli (GPa) = 98.88823 98.88823 47.32936
#
# Poissons Ratio (x) = 0.23887 0.22677
# Poissons Ratio (y) = 0.23887 0.22677
# Poissons Ratio (z) = 0.47381 0.47381
#
# Static dielectric constant tensor:
#      x y z
#    x 2.104520 0.000000 0.000000 
#    y 0.000000 2.104520 0.000000 
#    z 0.000000 0.000000 2.315540 
# 
# From -- ./inp_files/1804.got.cif
#   From: 2010.05.17/outbox.cif.g08.bks.cpg/sg170_cif.got.tgz:1804.got - 2010.05.20 11:14:30.
