data_PCOD9580938
_publ_section_title
;
Structure prediction by ZEFSAII (Michael W. Deem and Ramdas Pophale) SiO2 
 PCOD9580938
Probable space group: P 64
;
_chemical_formula_sum "Si O2"
_cell_formula_units_Z 42
_cell_length_a 15.926839
_cell_length_b 15.926839
_cell_length_c 10.443620
_cell_angle_alpha 90.000000
_cell_angle_beta 90.000000
_cell_angle_gamma 120.000000
_cell_volume 2294.250700
_symmetry_space_group_name_H-M "P 64"
_symmetry_group_IT_number 172
_symmetry_cell_setting 'hexagonal'
loop_
_space_group_symop_operation_xyz
x,y,z
x-y,x,2/3+z
-y,x-y,1/3+z
-x,-y,z
-x+y,-x,2/3+z
y,-x+y,1/3+z
loop_
_atom_site_type_symbol
_atom_site_label
_atom_site_fract_x
_atom_site_fract_y
_atom_site_fract_z
Si Si1 0.184301 0.540793 0.325800
Si Si2 0.061476 0.736137 0.722521
Si Si3 0.892628 0.657686 0.918535
Si Si4 0.511420 0.592561 0.406343
Si Si5 0.712663 0.241257 0.411734
Si Si6 0.385920 0.939118 0.221708
Si Si7 0.341006 0.522036 0.219994
O O1 0.166379 0.525732 0.174410
O O2 0.213905 0.649129 0.369266
O O3 0.093007 0.464382 0.407885
O O4 0.271960 0.518257 0.334931
O O5 0.134832 0.839890 0.662126
O O6 0.128191 0.701471 0.799137
O O7 0.977357 0.723869 0.819766
O O8 0.004547 0.660934 0.607967
O O9 0.807124 0.562754 0.843230
O O10 0.937564 0.612603 0.017734
O O11 0.500000 0.500000 0.480705
O O12 0.440107 0.543169 0.287212
O O13 0.666587 0.162973 0.297831
O O14 0.621173 0.242946 0.474402
O O15 0.500000 0.000000 0.251989
#
# Coordination Sequence:
#
# PCOD9580938 Si02
#       7
#     6   6   6   6   6   6   6
#     4  12  23  33  50  84 127 160 205 251 297 353
#     4  11  21  39  60  82 112 159 211 253 312 366
#     4  10  22  37  60  82 112 159 215 250 307 363
#     4  11  21  34  50  80 114 165 197 251 297 356
#     4  10  21  33  53  81 116 173 214 247 282 345
#     4  11  21  35  54  78 119 168 210 257 294 343
#     4  11  20  33  55  75 113 161 217 240 286 359
#
# _framework density 18.306629999999998
#
# number of rings (size 3 to 8) (size 9 to 14) (size 15 to 20)
#    0.000    1.143    4.286    3.857    2.000    0.000 
#    0.000    0.000    0.000    0.000    0.000    0.000 
#    0.000    5.714    0.000    0.000    0.000    0.000 
#
# Total GULP energy -234237.017054 kJ/mol
# GULP energy per Si atom -5577.071835 kJ/mol
# Density = 1.826496 g / cm^3
# Si number density = 18.306630 Si / 1000 Ang^3
#
#
#
# Elastic Constant Matrix: (Units=GPa)
#
#
# Indices 1 2 3 4 5 6 
#
# 1 76.8972 32.3321 26.8130 0.0000 0.0000 0.0000
# 2 32.3321 76.8972 26.8130 0.0000 0.0000 0.0000
# 3 26.8130 26.8130 66.9945 0.0000 0.0000 0.0000
# 4 0.0000 0.0000 0.0000 29.3528 0.0000 0.0000
# 5 0.0000 0.0000 0.0000 0.0000 29.3528 0.0000
# 6 0.0000 0.0000 0.0000 0.0000 0.0000 22.2825
#
#
#
# Elastic Compliance Matrix: (Units=1/GPa)
#
#
# Indices 1 2 3 4 5 6 
#
# 1 0.016916 -0.005523 -0.004560 0.000000 0.000000 0.000000
# 2 -0.005523 0.016916 -0.004560 0.000000 0.000000 0.000000
# 3 -0.004560 -0.004560 0.018577 0.000000 0.000000 0.000000
# 4 0.000000 0.000000 0.000000 0.034068 0.000000 0.000000
# 5 0.000000 0.000000 0.000000 0.000000 0.034068 0.000000
# 6 0.000000 0.000000 0.000000 0.000000 0.000000 0.044878
#
#
# Mechanical properties :
#
#
# Convention : Reuss Voigt Hill
#
# Bulk Modulus (GPa) = 43.24516 43.63387 43.43951
# Shear Modulus (GPa) = 24.70135 25.18637 24.94386
#
# Velocity S-wave (km/s) = 3.67728 3.71321 3.69529
# Velocity P-wave (km/s) = 6.45785 6.50159 6.47976
#
# Compressibility (1/GPa) = 0.02312398
#
# Stress axis : x y z
#
# Youngs Moduli (GPa) = 59.11399 59.11399 53.83071
#
# Poissons Ratio (x) = 0.32646 0.24547
# Poissons Ratio (y) = 0.32646 0.24547
# Poissons Ratio (z) = 0.26957 0.26957
#
# Static dielectric constant tensor:
#      x y z
#    x 1.680720 0.000000 0.000000 
#    y 0.000000 1.680720 0.000000 
#    z 0.000000 0.000000 1.679410 
# 
# From -- ./inp_files/1092.got.cif
#   From: 2010.05.17/outbox.cif.g08.bks.cpg/sg172_1_cif.got.tgz:1092.got - 2010.05.20 11:19:57.
