data_PCOD9580459
_publ_section_title
;
Structure prediction by ZEFSAII (Michael W. Deem and Ramdas Pophale) SiO2 
 PCOD9580459
Probable space group: P 62
;
_chemical_formula_sum "Si O2"
_cell_formula_units_Z 24
_cell_length_a 9.878058
_cell_length_b 9.878058
_cell_length_c 12.904536
_cell_angle_alpha 90.000000
_cell_angle_beta 90.000000
_cell_angle_gamma 120.000000
_cell_volume 1090.476143
_symmetry_space_group_name_H-M "P 62"
_symmetry_group_IT_number 171
_symmetry_cell_setting 'hexagonal'
loop_
_space_group_symop_operation_xyz
x,y,z
x-y,x,1/3+z
-y,x-y,2/3+z
-x,-y,z
-x+y,-x,1/3+z
y,-x+y,2/3+z
loop_
_atom_site_type_symbol
_atom_site_label
_atom_site_fract_x
_atom_site_fract_y
_atom_site_fract_z
Si Si1 0.792624 0.607376 0.658450
Si Si2 0.100716 0.911992 0.418828
Si Si3 0.651531 0.836618 0.964701
Si Si4 0.575713 0.186924 0.124314
O O1 0.773539 0.758127 0.673790
O O2 0.749504 0.505916 0.764111
O O3 0.707317 0.494305 0.562281
O O4 0.978199 0.691190 0.640069
O O5 0.177852 0.870008 0.513661
O O6 0.968181 0.758462 0.364860
O O7 0.000000 0.000000 0.449564
O O8 0.488595 0.761450 0.025103
O O9 0.500000 0.000000 0.125164
#
# Coordination Sequence:
#
# PCOD9580459 Si02
#       4
#     6   6   6   6
#     4  10  21  39  60  88 126 173 206 263 334 399
#     4  10  19  32  62  95 119 151 221 285 316 362
#     4  10  19  35  62  92 121 154 215 278 328 371
#     4  10  22  40  61  86 129 173 209 261 345 396
#
# _framework density 22.008737
#
# number of rings (size 3 to 8) (size 9 to 14) (size 15 to 20)
#    0.000    2.000    2.500    2.250    7.000    0.000 
#    4.500    0.000    0.000    0.000    0.000    0.000 
#    0.000    0.000    0.000    0.000    0.000    0.000 
#
# Total GULP energy -133642.900908 kJ/mol
# GULP energy per Si atom -5568.454204 kJ/mol
# Density = 2.195864 g / cm^3
# Si number density = 22.008737 Si / 1000 Ang^3
#
#
#
# Elastic Constant Matrix: (Units=GPa)
#
#
# Indices 1 2 3 4 5 6 
#
# 1 38.7378 36.2075 17.8996 0.0000 0.0000 0.0000
# 2 36.2075 38.7378 17.8996 0.0000 0.0000 0.0000
# 3 17.8996 17.8996 89.0648 0.0000 0.0000 0.0000
# 4 0.0000 0.0000 0.0000 15.0372 0.0000 0.0000
# 5 0.0000 0.0000 0.0000 0.0000 15.0372 0.0000
# 6 0.0000 0.0000 0.0000 0.0000 0.0000 1.2652
#
#
#
# Elastic Compliance Matrix: (Units=1/GPa)
#
#
# Indices 1 2 3 4 5 6 
#
# 1 0.204982 -0.190222 -0.002966 0.000000 0.000000 0.000000
# 2 -0.190222 0.204982 -0.002966 0.000000 0.000000 0.000000
# 3 -0.002966 -0.002966 0.012420 0.000000 0.000000 0.000000
# 4 0.000000 0.000000 0.000000 0.066502 0.000000 0.000000
# 5 0.000000 0.000000 0.000000 0.000000 0.066502 0.000000
# 6 0.000000 0.000000 0.000000 0.000000 0.000000 0.790409
#
#
# Mechanical properties :
#
#
# Convention : Reuss Voigt Hill
#
# Bulk Modulus (GPa) = 33.25056 34.50598 33.87827
# Shear Modulus (GPa) = 2.86019 12.57016 7.71518
#
# Velocity S-wave (km/s) = 1.14122 2.39245 1.87433
# Velocity P-wave (km/s) = 4.10819 4.83158 4.48449
#
# Compressibility (1/GPa) = 0.03007468
#
# Stress axis : x y z
#
# Youngs Moduli (GPa) = 4.87847 4.87847 80.51462
#
# Poissons Ratio (x) = 0.92799 0.23884
# Poissons Ratio (y) = 0.92799 0.23884
# Poissons Ratio (z) = 0.01447 0.01447
#
# Static dielectric constant tensor:
#      x y z
#    x 1.820300 0.000000 0.000000 
#    y 0.000000 1.820300 0.000000 
#    z 0.000000 0.000000 1.859870 
# 
# From -- ./inp_files/1808.got.cif
#   From: 2010.05.17/outbox.cif.g08.bks.cpg/sg171_1_cif.got.tgz:1808.got - 2010.05.20 11:16:09.
