data_PCOD9580576
_publ_section_title
;
Structure prediction by ZEFSAII (Michael W. Deem and Ramdas Pophale) SiO2 
 PCOD9580576
Probable space group: P 62
;
_chemical_formula_sum "Si O2"
_cell_formula_units_Z 33
_cell_length_a 12.068495
_cell_length_b 12.068495
_cell_length_c 12.693938
_cell_angle_alpha 90.000000
_cell_angle_beta 90.000000
_cell_angle_gamma 120.000000
_cell_volume 1601.154478
_symmetry_space_group_name_H-M "P 62"
_symmetry_group_IT_number 171
_symmetry_cell_setting 'hexagonal'
loop_
_space_group_symop_operation_xyz
x,y,z
x-y,x,1/3+z
-y,x-y,2/3+z
-x,-y,z
-x+y,-x,1/3+z
y,-x+y,2/3+z
loop_
_atom_site_type_symbol
_atom_site_label
_atom_site_fract_x
_atom_site_fract_y
_atom_site_fract_z
Si Si1 0.148539 0.456501 0.218350
Si Si2 0.021864 0.823817 0.298658
Si Si3 0.000000 0.000000 0.796444
Si Si4 0.636169 0.259201 0.745432
Si Si5 0.192876 0.670518 0.934387
Si Si6 0.065733 0.384022 0.994592
O O1 0.284824 0.518463 0.155520
O O2 0.170112 0.558656 0.309993
O O3 0.060785 0.424365 0.115234
O O4 0.085379 0.320900 0.275957
O O5 0.034047 0.911115 0.199203
O O6 0.165512 0.852345 0.320836
O O7 0.978108 0.881565 0.392359
O O8 0.738498 0.262526 0.826807
O O9 0.694887 0.401948 0.695218
O O10 0.129815 0.515364 0.927892
O O11 0.080806 0.699716 0.960488
#
# Coordination Sequence:
#
# PCOD9580576 Si02
#       6
#     6   6   3   6   6   6
#     4  10  21  41  65  97 128 176 217 280 339 413
#     4  11  22  41  64  91 133 172 230 271 340 396
#     4  10  24  40  60  94 126 180 222 282 318 406
#     4   9  20  40  64  92 135 164 217 279 342 396
#     4   9  20  37  61  94 125 167 216 270 337 407
#     4  10  21  38  63  95 122 176 221 266 339 403
#
# _framework density 20.610128
#
# number of rings (size 3 to 8) (size 9 to 14) (size 15 to 20)
#    0.000    2.182    1.818    0.000    5.091    0.000 
#    9.818    0.000   16.000    0.000    0.000    0.000 
#    0.000    0.000    0.000    0.000    0.000    0.000 
#
# Total GULP energy -183750.976050 kJ/mol
# GULP energy per Si atom -5568.211395 kJ/mol
# Density = 2.056322 g / cm^3
# Si number density = 20.610128 Si / 1000 Ang^3
#
#
#
# Elastic Constant Matrix: (Units=GPa)
#
#
# Indices 1 2 3 4 5 6 
#
# 1 76.0638 33.6136 47.0492 0.0000 0.0000 0.0000
# 2 33.6136 76.0638 47.0492 0.0000 0.0000 0.0000
# 3 47.0492 47.0492 108.2035 0.0000 0.0000 0.0000
# 4 0.0000 0.0000 0.0000-1141.8971 -0.0004 0.0000
# 5 0.0000 0.0000 0.0000 -0.0004-1141.8972 0.0000
# 6 0.0000 0.0000 0.0000 0.0000 0.0000 21.2251
#
#
#
# Elastic Compliance Matrix: (Units=1/GPa)
#
#
# Indices 1 2 3 4 5 6 
#
# 1 0.019050 -0.004507 -0.006324 0.000000 0.000000 0.000000
# 2 -0.004507 0.019050 -0.006324 0.000000 0.000000 0.000000
# 3 -0.006324 -0.006324 0.014741 0.000000 0.000000 0.000000
# 4 0.000000 0.000000 0.000000 -0.000876 0.000000 0.000000
# 5 0.000000 0.000000 0.000000 0.000000 -0.000876 0.000000
# 6 0.000000 0.000000 0.000000 0.000000 0.000000 0.047114
#
#
# Mechanical properties :
#
#
# Convention : Reuss Voigt Hill
#
# Bulk Modulus (GPa) = 53.95862 57.30612 55.63237
# Shear Modulus (GPa) = 36.05170 -443.67255 -203.81043
#
# Velocity S-wave (km/s) = 4.18691 -14.68797 -9.95506
# Velocity P-wave (km/s) = 7.04351 16.11780 10.25116
#
# Compressibility (1/GPa) = 0.01853272
#
# Stress axis : x y z
#
# Youngs Moduli (GPa) = 52.49339 52.49339 67.83735
#
# Poissons Ratio (x) = 0.23659 0.42898
# Poissons Ratio (y) = 0.23659 0.42898
# Poissons Ratio (z) = 0.33195 0.33195
#
# Static dielectric constant tensor:
#      x y z
#    x 2.051980 0.000000 0.000000 
#    y 0.000000 2.051980 0.000000 
#    z 0.000000 0.000000 1.741100 
# 
# From -- ./inp_files/1918.got.cif
#   From: 2010.05.17/outbox.cif.g08.bks.cpg/sg171_1_cif.got.tgz:1918.got - 2010.05.20 11:16:09.
