data_PCOD9580616
_publ_section_title
;
Structure prediction by ZEFSAII (Michael W. Deem and Ramdas Pophale) SiO2 
 PCOD9580616
Probable space group: P 62
;
_chemical_formula_sum "Si O2"
_cell_formula_units_Z 33
_cell_length_a 10.201819
_cell_length_b 10.201819
_cell_length_c 16.851019
_cell_angle_alpha 90.000000
_cell_angle_beta 90.000000
_cell_angle_gamma 120.000000
_cell_volume 1518.840007
_symmetry_space_group_name_H-M "P 62"
_symmetry_group_IT_number 171
_symmetry_cell_setting 'hexagonal'
loop_
_space_group_symop_operation_xyz
x,y,z
x-y,x,1/3+z
-y,x-y,2/3+z
-x,-y,z
-x+y,-x,1/3+z
y,-x+y,2/3+z
loop_
_atom_site_type_symbol
_atom_site_label
_atom_site_fract_x
_atom_site_fract_y
_atom_site_fract_z
Si Si1 0.224258 0.694843 0.498100
Si Si2 0.040080 0.867357 0.937006
Si Si3 0.454026 0.118004 0.164878
Si Si4 0.724688 0.640968 0.005832
Si Si5 0.500000 0.500000 0.869931
Si Si6 0.901906 0.260067 0.660025
O O1 0.283789 0.577448 0.511486
O O2 0.134339 0.671933 0.416638
O O3 0.128273 0.686469 0.575798
O O4 0.359236 0.869618 0.490611
O O5 0.073650 0.785724 0.864484
O O6 0.194824 0.950317 0.986148
O O7 0.000000 0.000000 0.914538
O O8 0.903050 0.740927 0.988879
O O9 0.500000 0.000000 0.200639
O O10 0.445233 0.097525 0.070436
O O11 0.642704 0.546339 0.927575
O O12 0.668586 0.761750 0.009105
#
# Coordination Sequence:
#
# PCOD9580616 Si02
#       6
#     6   6   6   6   3   6
#     4  11  23  43  69  95 138 186 224 287 357 416
#     4  10  24  45  70  99 140 182 235 296 351 422
#     4  12  27  43  66 105 141 179 235 294 350 421
#     4  10  21  43  69  97 129 182 232 279 348 422
#     4  10  22  42  62 100 138 178 234 270 346 434
#     4  10  24  42  69  97 131 177 231 283 348 426
#
# _framework density 21.727108999999999
#
# number of rings (size 3 to 8) (size 9 to 14) (size 15 to 20)
#    0.000    1.455    0.000    4.364    2.545    9.455 
#    4.909    0.000    0.000    0.000    0.000    0.000 
#    0.000    0.000    0.000    0.000    0.000    0.000 
#
# Total GULP energy -184437.001095 kJ/mol
# GULP energy per Si atom -5589.000033 kJ/mol
# Density = 2.167766 g / cm^3
# Si number density = 21.727109 Si / 1000 Ang^3
#
#
#
# Elastic Constant Matrix: (Units=GPa)
#
#
# Indices 1 2 3 4 5 6 
#
# 1 99.2204 52.2041 36.1655 0.0000 0.0000 0.0000
# 2 52.2041 99.2204 36.1655 0.0000 0.0000 0.0000
# 3 36.1655 36.1655 55.0243 0.0000 0.0000 0.0000
# 4 0.0000 0.0000 0.0000 -12.0135 0.0000 0.0000
# 5 0.0000 0.0000 0.0000 0.0000 -12.0135 0.0000
# 6 0.0000 0.0000 0.0000 0.0000 0.0000 23.5082
#
#
#
# Elastic Compliance Matrix: (Units=1/GPa)
#
#
# Indices 1 2 3 4 5 6 
#
# 1 0.015448 -0.005822 -0.006327 0.000000 0.000000 0.000000
# 2 -0.005822 0.015448 -0.006327 0.000000 0.000000 0.000000
# 3 -0.006327 -0.006327 0.026491 0.000000 0.000000 0.000000
# 4 0.000000 0.000000 0.000000 -0.083240 0.000000 0.000000
# 5 0.000000 0.000000 0.000000 0.000000 -0.083240 0.000000
# 6 0.000000 0.000000 0.000000 0.000000 0.000000 0.042538
#
#
# Mechanical properties :
#
#
# Convention : Reuss Voigt Hill
#
# Bulk Modulus (GPa) = 48.93491 55.83724 52.38608
# Shear Modulus (GPa) = -219.37182 8.49156 -105.44013
#
# Velocity S-wave (km/s) = -10.05913 1.97908 -6.97385
# Velocity P-wave (km/s) = 10.59921 5.56574 6.37832
#
# Compressibility (1/GPa) = 0.02043531
#
# Stress axis : x y z
#
# Youngs Moduli (GPa) = 64.73467 64.73467 37.74916
#
# Poissons Ratio (x) = 0.37686 0.23884
# Poissons Ratio (y) = 0.37686 0.23884
# Poissons Ratio (z) = 0.40957 0.40957
#
# Static dielectric constant tensor:
#      x y z
#    x 1.894020 0.000000 0.000000 
#    y 0.000000 1.894020 0.000000 
#    z 0.000000 0.000000 1.758360 
# 
# From -- ./inp_files/2913.got.cif
#   From: 2010.05.17/outbox.cif.g08.bks.cpg/sg171_2_cif.got.tgz:2913.got - 2010.05.20 11:16:09.
