data_PCOD9580596
_publ_section_title
;
Structure prediction by ZEFSAII (Michael W. Deem and Ramdas Pophale) SiO2 
 PCOD9580596
Probable space group: P 62
;
_chemical_formula_sum "Si O2"
_cell_formula_units_Z 24
_cell_length_a 7.879518
_cell_length_b 7.879518
_cell_length_c 19.884626
_cell_angle_alpha 90.000000
_cell_angle_beta 90.000000
_cell_angle_gamma 120.000000
_cell_volume 1069.171473
_symmetry_space_group_name_H-M "P 62"
_symmetry_group_IT_number 171
_symmetry_cell_setting 'hexagonal'
loop_
_space_group_symop_operation_xyz
x,y,z
x-y,x,1/3+z
-y,x-y,2/3+z
-x,-y,z
-x+y,-x,1/3+z
y,-x+y,2/3+z
loop_
_atom_site_type_symbol
_atom_site_label
_atom_site_fract_x
_atom_site_fract_y
_atom_site_fract_z
Si Si1 0.438641 0.163935 0.413920
Si Si2 0.369468 0.763411 0.841930
Si Si3 0.740768 0.760464 0.882326
Si Si4 0.289246 0.094652 0.271072
O O1 0.635518 0.351360 0.441197
O O2 0.285948 0.083223 0.475853
O O3 0.342832 0.179432 0.345778
O O4 0.500000 0.000000 0.399396
O O5 0.510864 0.689855 0.874821
O O6 0.194007 0.712226 0.892597
O O7 0.500000 0.000000 0.830694
O O8 0.858711 0.700073 0.934524
O O9 0.825301 0.986040 0.901643
#
# Coordination Sequence:
#
# PCOD9580596 Si02
#       4
#     6   6   6   6
#     4  10  22  40  64  94 131 177 223 290 363 420
#     4   9  20  43  61  94 138 171 234 297 348 433
#     4   9  21  41  61  90 140 166 229 292 334 427
#     4  10  21  40  67  94 131 182 224 280 361 427
#
# _framework density 22.447286999999999
#
# number of rings (size 3 to 8) (size 9 to 14) (size 15 to 20)
#    0.000    2.500    0.000    0.000    3.500    4.000 
#   27.000    0.000    0.000    0.000    0.000    0.000 
#    0.000    0.000    0.000    0.000    0.000    0.000 
#
# Total GULP energy -133733.789257 kJ/mol
# GULP energy per Si atom -5572.241219 kJ/mol
# Density = 2.239620 g / cm^3
# Si number density = 22.447287 Si / 1000 Ang^3
#
#
#
# Elastic Constant Matrix: (Units=GPa)
#
#
# Indices 1 2 3 4 5 6 
#
# 1 104.9915 30.4622 45.5873 0.0000 0.0000 0.0000
# 2 30.4622 104.9915 45.5873 0.0000 0.0000 0.0000
# 3 45.5873 45.5873 108.7044 0.0000 0.0000 0.0000
# 4 0.0000 0.0000 0.0000 -60.3344 0.0000 0.0000
# 5 0.0000 0.0000 0.0000 0.0000 -60.3344 0.0000
# 6 0.0000 0.0000 0.0000 0.0000 0.0000 37.2647
#
#
#
# Elastic Compliance Matrix: (Units=1/GPa)
#
#
# Indices 1 2 3 4 5 6 
#
# 1 0.011852 -0.001566 -0.004314 0.000000 0.000000 0.000000
# 2 -0.001566 0.011852 -0.004314 0.000000 0.000000 0.000000
# 3 -0.004314 -0.004314 0.012817 0.000000 0.000000 0.000000
# 4 0.000000 0.000000 0.000000 -0.016574 0.000000 0.000000
# 5 0.000000 0.000000 0.000000 0.000000 -0.016574 0.000000
# 6 0.000000 0.000000 0.000000 0.000000 0.000000 0.026835
#
#
# Mechanical properties :
#
#
# Convention : Reuss Voigt Hill
#
# Bulk Modulus (GPa) = 61.97763 62.44012 62.20888
# Shear Modulus (GPa) = 89.33032 -3.54411 42.89311
#
# Velocity S-wave (km/s) = 6.31522 -1.25789 4.37605
# Velocity P-wave (km/s) = 8.99145 5.07612 7.30114
#
# Compressibility (1/GPa) = 0.01613485
#
# Stress axis : x y z
#
# Youngs Moduli (GPa) = 84.37492 84.37492 78.01932
#
# Poissons Ratio (x) = 0.13210 0.33655
# Poissons Ratio (y) = 0.13210 0.33655
# Poissons Ratio (z) = 0.36397 0.36397
#
# Static dielectric constant tensor:
#      x y z
#    x 2.003940 0.000000 0.000000 
#    y 0.000000 2.003940 0.000000 
#    z 0.000000 0.000000 1.778810 
# 
# From -- ./inp_files/2724.got.cif
#   From: 2010.05.17/outbox.cif.g08.bks.cpg/sg171_2_cif.got.tgz:2724.got - 2010.05.20 11:16:09.
