data_PCOD9580531
_publ_section_title
;
Structure prediction by ZEFSAII (Michael W. Deem and Ramdas Pophale) SiO2 
 PCOD9580531
Probable space group: P 62
;
_chemical_formula_sum "Si O2"
_cell_formula_units_Z 42
_cell_length_a 16.121278
_cell_length_b 16.121278
_cell_length_c 9.768914
_cell_angle_alpha 90.000000
_cell_angle_beta 90.000000
_cell_angle_gamma 120.000000
_cell_volume 2198.749999
_symmetry_space_group_name_H-M "P 62"
_symmetry_group_IT_number 171
_symmetry_cell_setting 'hexagonal'
loop_
_space_group_symop_operation_xyz
x,y,z
x-y,x,1/3+z
-y,x-y,2/3+z
-x,-y,z
-x+y,-x,1/3+z
y,-x+y,2/3+z
loop_
_atom_site_type_symbol
_atom_site_label
_atom_site_fract_x
_atom_site_fract_y
_atom_site_fract_z
Si Si1 0.310399 0.047866 0.798700
Si Si2 0.611959 0.127102 0.267379
Si Si3 0.464980 0.176051 0.573492
Si Si4 0.659803 0.800495 0.017085
Si Si5 0.465083 0.205597 0.261807
Si Si6 0.453393 0.389246 0.307119
Si Si7 0.593777 0.091319 0.569965
O O1 0.386097 0.100129 0.675981
O O2 0.214904 0.960737 0.735017
O O3 0.308727 0.128710 0.889821
O O4 0.341442 0.990615 0.903188
O O5 0.718730 0.213043 0.285618
O O6 0.544005 0.173060 0.237741
O O7 0.609714 0.065525 0.138052
O O8 0.594295 0.071256 0.409020
O O9 0.429566 0.166164 0.415909
O O10 0.562228 0.170926 0.576492
O O11 0.613169 0.830892 0.140629
O O12 0.575145 0.694448 0.969557
O O13 0.498650 0.320529 0.269817
O O14 0.500000 0.500000 0.265954
O O15 0.500000 0.000000 0.630667
#
# Coordination Sequence:
#
# PCOD9580531 Si02
#       7
#     6   6   6   6   6   6   6
#     4  11  23  40  60  89 121 167 216 272 330 386
#     4  10  20  39  55  85 121 174 212 265 305 379
#     4  10  21  36  55  83 122 165 220 255 318 368
#     4  11  23  40  61  87 125 165 221 268 328 388
#     4   9  22  37  54  85 122 166 216 261 307 377
#     4  10  21  35  57  83 123 168 221 265 316 367
#     4  11  21  33  56  84 121 169 210 259 312 378
#
# _framework density 19.101763999999999
#
# number of rings (size 3 to 8) (size 9 to 14) (size 15 to 20)
#    0.000    1.714    2.857    1.286    4.000    5.714 
#    0.000    0.000    0.000    0.000    0.000    0.000 
#    0.000   51.429    0.000    0.000    0.000    0.000 
#
# Total GULP energy -234046.772757 kJ/mol
# GULP energy per Si atom -5572.542209 kJ/mol
# Density = 1.905829 g / cm^3
# Si number density = 19.101764 Si / 1000 Ang^3
#
#
#
# Elastic Constant Matrix: (Units=GPa)
#
#
# Indices 1 2 3 4 5 6 
#
# 1 66.9208 27.6139 37.7021 0.0000 0.0000 0.0000
# 2 27.6139 66.9208 37.7021 0.0000 0.0000 0.0000
# 3 37.7021 37.7021 137.4857 0.0000 0.0000 0.0000
# 4 0.0000 0.0000 0.0000 18.2544 0.0000 0.0000
# 5 0.0000 0.0000 0.0000 0.0000 18.2544 0.0000
# 6 0.0000 0.0000 0.0000 0.0000 0.0000 19.6534
#
#
#
# Elastic Compliance Matrix: (Units=1/GPa)
#
#
# Indices 1 2 3 4 5 6 
#
# 1 0.019490 -0.005951 -0.003713 0.000000 0.000000 0.000000
# 2 -0.005951 0.019490 -0.003713 0.000000 0.000000 0.000000
# 3 -0.003713 -0.003713 0.009310 0.000000 0.000000 0.000000
# 4 0.000000 0.000000 0.000000 0.054781 0.000000 0.000000
# 5 0.000000 0.000000 0.000000 0.000000 0.054781 0.000000
# 6 0.000000 0.000000 0.000000 0.000000 0.000000 0.050882
#
#
# Mechanical properties :
#
#
# Convention : Reuss Voigt Hill
#
# Bulk Modulus (GPa) = 46.43063 53.04038 49.73551
# Shear Modulus (GPa) = 20.60435 22.45303 21.52869
#
# Velocity S-wave (km/s) = 3.28786 3.43219 3.36080
# Velocity P-wave (km/s) = 6.22681 6.59804 6.41511
#
# Compressibility (1/GPa) = 0.02153751
#
# Stress axis : x y z
#
# Youngs Moduli (GPa) = 51.30760 51.30760 107.41314
#
# Poissons Ratio (x) = 0.30531 0.39882
# Poissons Ratio (y) = 0.30531 0.39882
# Poissons Ratio (z) = 0.19050 0.19050
#
# Static dielectric constant tensor:
#      x y z
#    x 1.686420 0.000000 0.000000 
#    y 0.000000 1.686420 0.000000 
#    z 0.000000 0.000000 1.727470 
# 
# From -- ./inp_files/1680.got.cif
#   From: 2010.05.17/outbox.cif.g08.bks.cpg/sg171_1_cif.got.tgz:1680.got - 2010.05.20 11:16:09.
