data_PCOD9580866
_publ_section_title
;
Structure prediction by ZEFSAII (Michael W. Deem and Ramdas Pophale) SiO2 
 PCOD9580866
Probable space group: P 62
;
_chemical_formula_sum "Si O2"
_cell_formula_units_Z 33
_cell_length_a 16.954079
_cell_length_b 16.954079
_cell_length_c 6.052343
_cell_angle_alpha 90.000000
_cell_angle_beta 90.000000
_cell_angle_gamma 120.000000
_cell_volume 1506.615979
_symmetry_space_group_name_H-M "P 62"
_symmetry_group_IT_number 171
_symmetry_cell_setting 'hexagonal'
loop_
_space_group_symop_operation_xyz
x,y,z
x-y,x,1/3+z
-y,x-y,2/3+z
-x,-y,z
-x+y,-x,1/3+z
y,-x+y,2/3+z
loop_
_atom_site_type_symbol
_atom_site_label
_atom_site_fract_x
_atom_site_fract_y
_atom_site_fract_z
Si Si1 0.895735 0.578800 0.616950
Si Si2 0.113627 0.691559 0.294274
Si Si3 0.270134 0.573853 0.816522
Si Si4 0.500000 0.000000 0.696623
Si Si5 0.140822 0.836774 0.643194
Si Si6 0.735434 0.744513 0.638884
O O1 0.818441 0.475363 0.664752
O O2 0.969683 0.560729 0.501041
O O3 0.862172 0.631424 0.454203
O O4 0.934159 0.643175 0.830008
O O5 0.220503 0.733822 0.260570
O O6 0.109984 0.741286 0.519464
O O7 0.079554 0.584921 0.239101
O O8 0.061350 0.721752 0.123067
O O9 0.357159 0.628273 0.661348
O O10 0.174126 0.918100 0.462325
O O11 0.055854 0.816151 0.802617
#
# Coordination Sequence:
#
# PCOD9580866 Si02
#       6
#     6   6   6   3   6   6
#     4  12  27  44  70 103 150 199 262 305 376 436
#     4  12  27  44  70 103 150 199 262 305 376 436
#     4  12  29  44  66  99 150 212 259 314 353 434
#     4  12  26  42  68 100 142 216 242 314 354 440
#     4  12  24  50  68 108 144 197 244 323 376 452
#     4  12  24  47  72 104 148 193 244 328 372 457
#
# _framework density 21.903390000000002
#
# number of rings (size 3 to 8) (size 9 to 14) (size 15 to 20)
#    0.000    0.000    7.273    1.091   12.727    0.000 
#    0.000    0.000    0.000    0.000    0.000    0.000 
#    0.000  240.000    0.000    0.000    0.000    0.000 
#
# Total GULP energy -184155.688041 kJ/mol
# GULP energy per Si atom -5580.475395 kJ/mol
# Density = 2.185354 g / cm^3
# Si number density = 21.903390 Si / 1000 Ang^3
#
#
#
# Elastic Constant Matrix: (Units=GPa)
#
#
# Indices 1 2 3 4 5 6 
#
# 1 101.4828 3.9678 29.5323 0.0000 0.0000 0.0000
# 2 3.9678 101.4828 29.5323 0.0000 0.0000 0.0000
# 3 29.5323 29.5323 79.7960 0.0000 0.0000 0.0000
# 4 0.0000 0.0000 0.0000 27.3333 0.0000 0.0000
# 5 0.0000 0.0000 0.0000 0.0000 27.3333 0.0000
# 6 0.0000 0.0000 0.0000 0.0000 0.0000 48.7575
#
#
#
# Elastic Compliance Matrix: (Units=1/GPa)
#
#
# Indices 1 2 3 4 5 6 
#
# 1 0.011109 0.000854 -0.004427 0.000000 0.000000 0.000000
# 2 0.000854 0.011109 -0.004427 0.000000 0.000000 0.000000
# 3 -0.004427 -0.004427 0.015809 0.000000 0.000000 0.000000
# 4 0.000000 0.000000 0.000000 0.036585 0.000000 0.000000
# 5 0.000000 0.000000 0.000000 0.000000 0.036585 0.000000
# 6 0.000000 0.000000 0.000000 0.000000 0.000000 0.020510
#
#
# Mechanical properties :
#
#
# Convention : Reuss Voigt Hill
#
# Bulk Modulus (GPa) = 45.40243 45.42517 45.41380
# Shear Modulus (GPa) = 32.24746 35.33345 33.79045
#
# Velocity S-wave (km/s) = 3.84117 4.02076 3.93199
# Velocity P-wave (km/s) = 6.35973 6.50686 6.43372
#
# Compressibility (1/GPa) = 0.02202525
#
# Stress axis : x y z
#
# Youngs Moduli (GPa) = 90.01774 90.01774 63.25449
#
# Poissons Ratio (x) = -0.07688 0.28006
# Poissons Ratio (y) = -0.07688 0.28006
# Poissons Ratio (z) = 0.39855 0.39855
#
# Static dielectric constant tensor:
#      x y z
#    x 1.738230 0.000000 0.000000 
#    y 0.000000 1.738230 0.000000 
#    z 0.000000 0.000000 1.897840 
# 
# From -- ./inp_files/656.got.cif
#   From: 2010.05.17/outbox.cif.g08.bks.cpg/sg171_1_cif.got.tgz:656.got - 2010.05.20 11:16:09.
