data_PCOD9580629
_publ_section_title
;
Structure prediction by ZEFSAII (Michael W. Deem and Ramdas Pophale) SiO2 
 PCOD9580629
Probable space group: P 62
;
_chemical_formula_sum "Si O2"
_cell_formula_units_Z 39
_cell_length_a 20.238091
_cell_length_b 20.238091
_cell_length_c 4.926923
_cell_angle_alpha 90.000000
_cell_angle_beta 90.000000
_cell_angle_gamma 120.000000
_cell_volume 1747.613921
_symmetry_space_group_name_H-M "P 62"
_symmetry_group_IT_number 171
_symmetry_cell_setting 'hexagonal'
loop_
_space_group_symop_operation_xyz
x,y,z
x-y,x,1/3+z
-y,x-y,2/3+z
-x,-y,z
-x+y,-x,1/3+z
y,-x+y,2/3+z
loop_
_atom_site_type_symbol
_atom_site_label
_atom_site_fract_x
_atom_site_fract_y
_atom_site_fract_z
Si Si1 0.648099 0.455489 0.352450
Si Si2 0.000000 0.500000 0.422918
Si Si3 0.854740 0.670170 0.962709
Si Si4 0.561846 0.748044 0.115874
Si Si5 0.155229 0.556867 0.189927
Si Si6 0.359659 0.390402 0.356460
Si Si7 0.018458 0.727251 0.185751
O O1 0.730461 0.488010 0.483753
O O2 0.582412 0.399431 0.555305
O O3 0.647842 0.534777 0.322760
O O4 0.626042 0.416593 0.059553
O O5 0.928099 0.453020 0.229581
O O6 0.020097 0.448373 0.616441
O O7 0.846483 0.610818 0.723490
O O8 0.808768 0.712095 0.862350
O O9 0.812341 0.620059 0.227869
O O10 0.941618 0.723119 0.069886
O O11 0.522801 0.668758 0.952171
O O12 0.329439 0.357921 0.650666
O O13 0.310570 0.321673 0.146775
#
# Coordination Sequence:
#
# PCOD9580629 Si02
#       7
#     6   3   6   6   6   6   6
#     4  11  22  41  60  84 126 168 220 276 340 388
#     4  10  22  36  60  92 118 160 212 274 330 394
#     4  12  24  41  70  96 139 175 230 282 352 428
#     4  12  24  44  64  93 128 180 229 285 338 412
#     4  11  24  38  61  89 120 167 216 279 330 401
#     4  11  22  39  63  91 132 166 219 270 344 391
#     4  12  23  41  64 100 130 182 215 285 348 420
#
# _framework density 22.316140999999998
#
# number of rings (size 3 to 8) (size 9 to 14) (size 15 to 20)
#    0.000    0.615    3.077    6.462    0.000    6.769 
#    2.769    0.000    0.000    0.000    0.000    0.000 
#    0.000   32.000    0.000    0.000    0.000    0.000 
#
# Total GULP energy -217818.317215 kJ/mol
# GULP energy per Si atom -5585.085057 kJ/mol
# Density = 2.226535 g / cm^3
# Si number density = 22.316141 Si / 1000 Ang^3
#
#
#
# Elastic Constant Matrix: (Units=GPa)
#
#
# Indices 1 2 3 4 5 6 
#
# 1 95.6251 38.6247 20.4252 0.0000 0.0000 0.0000
# 2 38.6247 95.6251 20.4252 0.0000 0.0000 0.0000
# 3 20.4252 20.4252 105.5366 0.0000 0.0000 0.0000
# 4 0.0000 0.0000 0.0000 23.3098 0.0000 0.0000
# 5 0.0000 0.0000 0.0000 0.0000 23.3098 0.0000
# 6 0.0000 0.0000 0.0000 0.0000 0.0000 28.5002
#
#
#
# Elastic Compliance Matrix: (Units=1/GPa)
#
#
# Indices 1 2 3 4 5 6 
#
# 1 0.012729 -0.004814 -0.001532 0.000000 0.000000 0.000000
# 2 -0.004814 0.012729 -0.001532 0.000000 0.000000 0.000000
# 3 -0.001532 -0.001532 0.010068 0.000000 0.000000 0.000000
# 4 0.000000 0.000000 0.000000 0.042900 0.000000 0.000000
# 5 0.000000 0.000000 0.000000 0.000000 0.042900 0.000000
# 6 0.000000 0.000000 0.000000 0.000000 0.000000 0.035087
#
#
# Mechanical properties :
#
#
# Convention : Reuss Voigt Hill
#
# Bulk Modulus (GPa) = 50.57958 50.63748 50.60853
# Shear Modulus (GPa) = 27.97017 29.51138 28.74078
#
# Velocity S-wave (km/s) = 3.54412 3.64046 3.59261
# Velocity P-wave (km/s) = 6.28188 6.35695 6.31952
#
# Compressibility (1/GPa) = 0.01977083
#
# Stress axis : x y z
#
# Youngs Moduli (GPa) = 78.55872 78.55872 99.32148
#
# Poissons Ratio (x) = 0.37821 0.15214
# Poissons Ratio (y) = 0.37821 0.15214
# Poissons Ratio (z) = 0.12034 0.12034
#
# Static dielectric constant tensor:
#      x y z
#    x 1.930210 0.000000 0.000000 
#    y 0.000000 1.930210 0.000000 
#    z 0.000000 0.000000 1.839660 
# 
# From -- ./inp_files/459.got.cif
#   From: 2010.05.17/outbox.cif.g08.bks.cpg/sg171_1_cif.got.tgz:459.got - 2010.05.20 11:16:09.
