data_PCOD9580175
_publ_section_title
;
Structure prediction by ZEFSAII (Michael W. Deem and Ramdas Pophale) SiO2 
 PCOD9580175
Probable space group: P 65
;
_chemical_formula_sum "Si O2"
_cell_formula_units_Z 48
_cell_length_a 16.886713
_cell_length_b 16.886713
_cell_length_c 8.075256
_cell_angle_alpha 90.000000
_cell_angle_beta 90.000000
_cell_angle_gamma 120.000000
_cell_volume 1994.238864
_symmetry_space_group_name_H-M "P 65"
_symmetry_group_IT_number 170
_symmetry_cell_setting 'hexagonal'
loop_
_space_group_symop_operation_xyz
x,y,z
x-y,x,5/6+z
-y,x-y,2/3+z
-x,-y,1/2+z
-x+y,-x,1/3+z
y,-x+y,1/6+z
loop_
_atom_site_type_symbol
_atom_site_label
_atom_site_fract_x
_atom_site_fract_y
_atom_site_fract_z
Si Si1 0.570741 0.092054 0.767460
Si Si2 0.058762 0.469577 0.580448
Si Si3 0.399724 0.693656 0.635413
Si Si4 0.463675 0.148361 0.335749
Si Si5 0.886460 0.816132 0.957881
Si Si6 0.150131 0.374960 0.399468
Si Si7 0.044644 0.179251 0.945695
Si Si8 0.044089 0.337929 0.069560
O O1 0.580509 0.042291 0.607524
O O2 0.614456 0.197394 0.734590
O O3 0.638403 0.085542 0.898557
O O4 0.466680 0.037782 0.821729
O O5 0.111096 0.578469 0.543821
O O6 0.116234 0.424436 0.523475
O O7 0.338403 0.699042 0.488544
O O8 0.493160 0.789773 0.671717
O O9 0.450328 0.207828 0.477384
O O10 0.361331 0.060042 0.344449
O O11 0.842867 0.707938 0.980282
O O12 0.851715 0.834813 0.781811
O O13 0.994708 0.860857 0.930200
O O14 0.073334 0.327071 0.254408
O O15 0.969743 0.122597 0.806502
O O16 0.082081 0.288027 0.949129
#
# Coordination Sequence:
#
# PCOD9580175 Si02
#       8
#     6   6   6   6   6   6   6   6
#     4  11  26  45  67 100 136 183 229 292 354 427
#     4  11  26  43  70  99 138 184 233 290 362 429
#     4  12  27  46  71 106 144 187 238 298 363 433
#     4  11  22  38  69  98 132 180 234 292 350 423
#     4  10  19  35  67  99 134 180 237 295 350 432
#     4  12  20  41  70 101 137 186 241 295 358 437
#     4  10  18  34  64  97 128 173 228 278 339 420
#     4  11  20  38  68  98 131 177 232 284 352 417
#
# _framework density 24.069333
#
# number of rings (size 3 to 8) (size 9 to 14) (size 15 to 20)
#    0.000    1.000    5.000    3.000    3.500    1.000 
#    0.000    0.000   16.500    0.000    0.000    0.000 
#    0.000    0.000    0.000    0.000    0.000    0.000 
#
# Total GULP energy -268201.064475 kJ/mol
# GULP energy per Si atom -5587.522177 kJ/mol
# Density = 2.401455 g / cm^3
# Si number density = 24.069333 Si / 1000 Ang^3
#
#
#
# Elastic Constant Matrix: (Units=GPa)
#
#
# Indices 1 2 3 4 5 6 
#
# 1 73.4320 -0.9593 -0.0173 0.0000 0.0000 0.0000
# 2 -0.9593 73.4320 -0.0173 0.0000 0.0000 0.0000
# 3 -0.0173 -0.0173 56.9686 0.0000 0.0000 0.0000
# 4 0.0000 0.0000 0.0000 17.6317 0.0000 0.0000
# 5 0.0000 0.0000 0.0000 0.0000 17.6317 0.0000
# 6 0.0000 0.0000 0.0000 0.0000 0.0000 37.1956
#
#
#
# Elastic Compliance Matrix: (Units=1/GPa)
#
#
# Indices 1 2 3 4 5 6 
#
# 1 0.013620 0.000178 0.000004 0.000000 0.000000 0.000000
# 2 0.000178 0.013620 0.000004 0.000000 0.000000 0.000000
# 3 0.000004 0.000004 0.017554 0.000000 0.000000 0.000000
# 4 0.000000 0.000000 0.000000 0.056716 0.000000 0.000000
# 5 0.000000 0.000000 0.000000 0.000000 0.056716 0.000000
# 6 0.000000 0.000000 0.000000 0.000000 0.000000 0.026885
#
#
# Mechanical properties :
#
#
# Convention : Reuss Voigt Hill
#
# Bulk Modulus (GPa) = 22.14011 22.42720 22.28366
# Shear Modulus (GPa) = 25.02575 28.14690 26.58632
#
# Velocity S-wave (km/s) = 3.22799 3.42337 3.32712
# Velocity P-wave (km/s) = 4.80746 4.99639 4.90284
#
# Compressibility (1/GPa) = 0.04516689
#
# Stress axis : x y z
#
# Youngs Moduli (GPa) = 73.41944 73.41944 56.96856
#
# Poissons Ratio (x) = -0.01306 -0.00024
# Poissons Ratio (y) = -0.01306 -0.00024
# Poissons Ratio (z) = -0.00031 -0.00031
#
# Static dielectric constant tensor:
#      x y z
#    x 1.992550 0.000000 0.000000 
#    y 0.000000 1.992550 0.000000 
#    z 0.000000 0.000000 1.910330 
# 
# From -- ./inp_files/717.got.cif
#   From: 2010.05.17/outbox.cif.g08.bks.cpg/sg170_cif.got.tgz:717.got - 2010.05.20 11:14:30.
