data_PCOD9580352
_publ_section_title
;
Structure prediction by ZEFSAII (Michael W. Deem and Ramdas Pophale) SiO2 
 PCOD9580352
Probable space group: P 65
;
_chemical_formula_sum "Si O2"
_cell_formula_units_Z 42
_cell_length_a 15.222793
_cell_length_b 15.222793
_cell_length_c 12.339583
_cell_angle_alpha 90.000000
_cell_angle_beta 90.000000
_cell_angle_gamma 120.000000
_cell_volume 2476.394319
_symmetry_space_group_name_H-M "P 65"
_symmetry_group_IT_number 170
_symmetry_cell_setting 'hexagonal'
loop_
_space_group_symop_operation_xyz
x,y,z
x-y,x,5/6+z
-y,x-y,2/3+z
-x,-y,1/2+z
-x+y,-x,1/3+z
y,-x+y,1/6+z
loop_
_atom_site_type_symbol
_atom_site_label
_atom_site_fract_x
_atom_site_fract_y
_atom_site_fract_z
Si Si1 0.650005 0.003271 0.644130
Si Si2 0.060711 0.605751 0.975618
Si Si3 0.954705 0.389045 0.047527
Si Si4 0.275433 0.728715 0.559444
Si Si5 0.598768 0.828147 0.493097
Si Si6 0.671597 0.254724 0.805854
Si Si7 0.464376 0.419729 0.434971
O O1 0.633073 0.984415 0.773091
O O2 0.660623 0.915955 0.581881
O O3 0.540179 0.989047 0.604770
O O4 0.748406 0.113712 0.627692
O O5 0.148345 0.577379 0.956997
O O6 0.019385 0.616514 0.860637
O O7 0.110881 0.698830 0.058366
O O8 0.968157 0.499933 0.021117
O O9 0.840836 0.309905 0.078694
O O10 0.024247 0.412155 0.151670
O O11 0.305761 0.650474 0.609826
O O12 0.293007 0.736764 0.429770
O O13 0.351576 0.835152 0.616388
O O14 0.491796 0.756327 0.554240
#
# Coordination Sequence:
#
# PCOD9580352 Si02
#       7
#     6   6   6   6   6   6   6
#     4  11  22  38  62  81 117 155 206 254 302 358
#     4  11  23  36  54  81 125 156 202 248 293 362
#     4  11  21  35  56  80 116 162 199 248 292 362
#     4  12  23  34  57  82 118 165 203 246 303 360
#     4  12  21  40  58  84 114 158 200 254 305 357
#     4  12  19  34  53  82 114 156 202 245 290 354
#     4  11  21  39  48  84 122 158 194 247 295 367
#
# _framework density 16.960144
#
# number of rings (size 3 to 8) (size 9 to 14) (size 15 to 20)
#    0.000    0.571   10.000    0.857    4.000    0.000 
#    2.571    0.000    0.000    0.000    0.000    2.000 
#    0.000    0.000    0.000    0.000    0.000    0.000 
#
# Total GULP energy -234181.952721 kJ/mol
# GULP energy per Si atom -5575.760779 kJ/mol
# Density = 1.692154 g / cm^3
# Si number density = 16.960144 Si / 1000 Ang^3
#
#
#
# Elastic Constant Matrix: (Units=GPa)
#
#
# Indices 1 2 3 4 5 6 
#
# 1 74.2647 28.1395 17.5370 0.0000 0.0000 0.0000
# 2 28.1395 74.2647 17.5370 0.0000 0.0000 0.0000
# 3 17.5370 17.5370 71.6047 0.0000 0.0000 0.0000
# 4 0.0000 0.0000 0.0000 25.1813 0.0000 0.0000
# 5 0.0000 0.0000 0.0000 0.0000 25.1813 0.0000
# 6 0.0000 0.0000 0.0000 0.0000 0.0000 23.0626
#
#
#
# Elastic Compliance Matrix: (Units=1/GPa)
#
#
# Indices 1 2 3 4 5 6 
#
# 1 0.016170 -0.005510 -0.002611 0.000000 0.000000 0.000000
# 2 -0.005510 0.016170 -0.002611 0.000000 0.000000 0.000000
# 3 -0.002611 -0.002611 0.015244 0.000000 0.000000 0.000000
# 4 0.000000 0.000000 0.000000 0.039712 0.000000 0.000000
# 5 0.000000 0.000000 0.000000 0.000000 0.039712 0.000000
# 6 0.000000 0.000000 0.000000 0.000000 0.000000 0.043360
#
#
# Mechanical properties :
#
#
# Convention : Reuss Voigt Hill
#
# Bulk Modulus (GPa) = 38.28403 38.50679 38.39541
# Shear Modulus (GPa) = 24.93289 25.14640 25.03965
#
# Velocity S-wave (km/s) = 3.83833 3.85473 3.84654
# Velocity P-wave (km/s) = 6.50120 6.52422 6.51272
#
# Compressibility (1/GPa) = 0.02612055
#
# Stress axis : x y z
#
# Youngs Moduli (GPa) = 61.84381 61.84381 65.59816
#
# Poissons Ratio (x) = 0.34078 0.17125
# Poissons Ratio (y) = 0.34078 0.17125
# Poissons Ratio (z) = 0.16145 0.16145
#
# Static dielectric constant tensor:
#      x y z
#    x 1.587500 0.000000 0.000000 
#    y 0.000000 1.587500 0.000000 
#    z 0.000000 0.000000 1.638120 
# 
# From -- ./inp_files/1035.got.cif
#   From: 2010.05.17/outbox.cif.g08.bks.cpg/sg170_cif.got.tgz:1035.got - 2010.05.20 11:14:30.
