data_PCOD9580666
_publ_section_title
;
Structure prediction by ZEFSAII (Michael W. Deem and Ramdas Pophale) SiO2 
 PCOD9580666
Probable space group: P 62
;
_chemical_formula_sum "Si O2"
_cell_formula_units_Z 33
_cell_length_a 8.082593
_cell_length_b 8.082593
_cell_length_c 26.711340
_cell_angle_alpha 90.000000
_cell_angle_beta 90.000000
_cell_angle_gamma 120.000000
_cell_volume 1511.220123
_symmetry_space_group_name_H-M "P 62"
_symmetry_group_IT_number 171
_symmetry_cell_setting 'hexagonal'
loop_
_space_group_symop_operation_xyz
x,y,z
x-y,x,1/3+z
-y,x-y,2/3+z
-x,-y,z
-x+y,-x,1/3+z
y,-x+y,2/3+z
loop_
_atom_site_type_symbol
_atom_site_label
_atom_site_fract_x
_atom_site_fract_y
_atom_site_fract_z
Si Si1 0.558135 0.770896 0.715060
Si Si2 0.000000 0.000000 0.556648
Si Si3 0.219828 0.801988 0.677289
Si Si4 0.798937 0.673559 0.640444
Si Si5 0.276591 0.877873 0.498123
Si Si6 0.583843 0.222711 0.916284
O O1 0.335290 0.706283 0.703275
O O2 0.658715 0.690493 0.678838
O O3 0.593042 0.740126 0.772283
O O4 0.684892 0.996086 0.703689
O O5 0.876022 0.829781 0.595720
O O6 0.137121 0.948709 0.522587
O O7 0.281126 0.819657 0.618677
O O8 0.989854 0.709988 0.672534
O O9 0.691831 0.478443 0.608383
O O10 0.230467 0.681889 0.525401
O O11 0.500000 0.000000 0.510950
O O12 0.500000 0.000000 0.926659
#
# Coordination Sequence:
#
# PCOD9580666 Si02
#       6
#     6   3   6   6   6   6
#     4  11  25  42  71 103 143 187 236 302 378 425
#     4  12  24  44  76  96 146 200 230 302 368 434
#     4  10  22  41  71  98 138 184 232 299 361 429
#     4  11  22  43  72 108 131 189 257 289 354 461
#     4  12  29  48  66 109 148 190 241 304 373 446
#     4  10  22  44  71 100 144 179 246 296 347 446
#
# _framework density 21.836659999999998
#
# number of rings (size 3 to 8) (size 9 to 14) (size 15 to 20)
#    0.000    1.091    5.455    0.000   12.727    0.000 
#    0.000    0.000    0.000    0.000    0.000    0.000 
#    0.000    0.000    0.000    0.000    0.000    0.000 
#
# Total GULP energy -183794.522855 kJ/mol
# GULP energy per Si atom -5569.530996 kJ/mol
# Density = 2.178696 g / cm^3
# Si number density = 21.836660 Si / 1000 Ang^3
#
#
#
# Elastic Constant Matrix: (Units=GPa)
#
#
# Indices 1 2 3 4 5 6 
#
# 1 124.7605 49.3147 60.4414 0.0000 0.0000 0.0000
# 2 49.3147 124.7605 60.4414 0.0000 0.0000 0.0000
# 3 60.4414 60.4414 154.8638 0.0000 0.0000 0.0000
# 4 0.0000 0.0000 0.0000 66.5304 0.0000 0.0000
# 5 0.0000 0.0000 0.0000 0.0000 66.5304 0.0000
# 6 0.0000 0.0000 0.0000 0.0000 0.0000 37.7229
#
#
#
# Elastic Compliance Matrix: (Units=1/GPa)
#
#
# Indices 1 2 3 4 5 6 
#
# 1 0.010568 -0.002687 -0.003076 0.000000 0.000000 0.000000
# 2 -0.002687 0.010568 -0.003076 0.000000 0.000000 0.000000
# 3 -0.003076 -0.003076 0.008858 0.000000 0.000000 0.000000
# 4 0.000000 0.000000 0.000000 0.015031 0.000000 0.000000
# 5 0.000000 0.000000 0.000000 0.000000 0.015031 0.000000
# 6 0.000000 0.000000 0.000000 0.000000 0.000000 0.026509
#
#
# Mechanical properties :
#
#
# Convention : Reuss Voigt Hill
#
# Bulk Modulus (GPa) = 81.19256 82.75330 81.97293
# Shear Modulus (GPa) = 46.14854 49.76921 47.95888
#
# Velocity S-wave (km/s) = 4.60211 4.77923 4.69151
# Velocity P-wave (km/s) = 8.09331 8.27246 8.18337
#
# Compressibility (1/GPa) = 0.01231640
#
# Stress axis : x y z
#
# Youngs Moduli (GPa) = 94.62967 94.62967 112.89160
#
# Poissons Ratio (x) = 0.25427 0.34721
# Poissons Ratio (y) = 0.25427 0.34721
# Poissons Ratio (z) = 0.29105 0.29105
#
# Static dielectric constant tensor:
#      x y z
#    x 1.902060 0.000000 0.000000 
#    y 0.000000 1.902060 0.000000 
#    z 0.000000 0.000000 1.741790 
# 
# From -- ./inp_files/5796.got.cif
#   From: 2010.05.17/outbox.cif.g08.bks.cpg/sg171_3_cif.got.tgz:5796.got - 2010.05.20 11:16:09.
