data_PCOD9580189
_publ_section_title
;
Structure prediction by ZEFSAII (Michael W. Deem and Ramdas Pophale) SiO2 
 PCOD9580189
Probable space group: P 65
;
_chemical_formula_sum "Si O2"
_cell_formula_units_Z 42
_cell_length_a 17.077381
_cell_length_b 17.077381
_cell_length_c 8.989526
_cell_angle_alpha 90.000000
_cell_angle_beta 90.000000
_cell_angle_gamma 120.000000
_cell_volume 2270.439637
_symmetry_space_group_name_H-M "P 65"
_symmetry_group_IT_number 170
_symmetry_cell_setting 'hexagonal'
loop_
_space_group_symop_operation_xyz
x,y,z
x-y,x,5/6+z
-y,x-y,2/3+z
-x,-y,1/2+z
-x+y,-x,1/3+z
y,-x+y,1/6+z
loop_
_atom_site_type_symbol
_atom_site_label
_atom_site_fract_x
_atom_site_fract_y
_atom_site_fract_z
Si Si1 0.337288 0.397880 0.162960
Si Si2 0.745252 0.492713 0.498158
Si Si3 0.863792 0.319070 0.285621
Si Si4 0.184144 0.806733 0.067506
Si Si5 0.975412 0.534320 0.969112
Si Si6 0.313467 0.997587 0.036325
Si Si7 0.547279 0.329160 0.471216
O O1 0.292751 0.445999 0.068833
O O2 0.295565 0.378644 0.326558
O O3 0.441478 0.472615 0.183943
O O4 0.327638 0.323464 0.047856
O O5 0.794548 0.542925 0.347337
O O6 0.654806 0.396766 0.473797
O O7 0.801555 0.482628 0.631714
O O8 0.831857 0.256287 0.427881
O O9 0.769221 0.294497 0.202764
O O10 0.940236 0.414494 0.354934
O O11 0.223253 0.906049 0.004251
O O12 0.089092 0.770121 0.150131
O O13 0.877037 0.504735 0.894503
O O14 0.992672 0.600134 0.109752
#
# Coordination Sequence:
#
# PCOD9580189 Si02
#       7
#     6   6   6   6   6   6   6
#     4   9  19  35  53  77 105 147 186 236 275 343
#     4   9  21  36  51  74 112 142 193 232 291 336
#     4  10  20  35  57  76 108 144 193 237 291 337
#     4  10  21  39  56  86 108 149 187 243 286 360
#     4  10  19  34  55  78 107 153 190 237 287 345
#     4  10  20  37  58  82 114 139 196 232 293 349
#     4  10  20  38  50  79 112 148 193 245 287 344
#
# _framework density 18.498619999999999
#
# number of rings (size 3 to 8) (size 9 to 14) (size 15 to 20)
#    0.000    2.286    1.429    0.857    2.000    2.286 
#    7.714    0.000    0.000    0.000    0.000    2.000 
#    0.000    0.000    0.000    0.000    0.000    0.000 
#
# Total GULP energy -233945.805639 kJ/mol
# GULP energy per Si atom -5570.138230 kJ/mol
# Density = 1.845652 g / cm^3
# Si number density = 18.498620 Si / 1000 Ang^3
#
#
#
# Elastic Constant Matrix: (Units=GPa)
#
#
# Indices 1 2 3 4 5 6 
#
# 1 27.7476 5.9791 -0.3522 0.0000 0.0000 0.0000
# 2 5.9791 27.7476 -0.3522 0.0000 0.0000 0.0000
# 3 -0.3522 -0.3522 96.2176 0.0000 0.0000 0.0000
# 4 0.0000 0.0000 0.0000 19.7101 0.0000 0.0000
# 5 0.0000 0.0000 0.0000 0.0000 19.7101 0.0000
# 6 0.0000 0.0000 0.0000 0.0000 0.0000 10.8843
#
#
#
# Elastic Compliance Matrix: (Units=1/GPa)
#
#
# Indices 1 2 3 4 5 6 
#
# 1 0.037795 -0.008143 0.000109 0.000000 0.000000 0.000000
# 2 -0.008143 0.037795 0.000109 0.000000 0.000000 0.000000
# 3 0.000109 0.000109 0.010394 0.000000 0.000000 0.000000
# 4 0.000000 0.000000 0.000000 0.050736 0.000000 0.000000
# 5 0.000000 0.000000 0.000000 0.000000 0.050736 0.000000
# 6 0.000000 0.000000 0.000000 0.000000 0.000000 0.091876
#
#
# Mechanical properties :
#
#
# Convention : Reuss Voigt Hill
#
# Bulk Modulus (GPa) = 14.25868 18.02915 16.14391
# Shear Modulus (GPa) = 15.69564 19.82342 17.75953
#
# Velocity S-wave (km/s) = 2.91602 3.27711 3.10182
# Velocity P-wave (km/s) = 4.36604 4.90781 4.64483
#
# Compressibility (1/GPa) = 0.07013271
#
# Stress axis : x y z
#
# Youngs Moduli (GPa) = 26.45846 26.45846 96.21026
#
# Poissons Ratio (x) = 0.21545 -0.01044
# Poissons Ratio (y) = 0.21545 -0.01044
# Poissons Ratio (z) = -0.00287 -0.00287
#
# Static dielectric constant tensor:
#      x y z
#    x 1.655490 0.000000 0.000000 
#    y 0.000000 1.655490 0.000000 
#    z 0.000000 0.000000 1.712330 
# 
# From -- ./inp_files/703.got.cif
#   From: 2010.05.17/outbox.cif.g08.bks.cpg/sg170_cif.got.tgz:703.got - 2010.05.20 11:14:30.
