data_PCOD9580547
_publ_section_title
;
Structure prediction by ZEFSAII (Michael W. Deem and Ramdas Pophale) SiO2 
 PCOD9580547
Probable space group: P 62
;
_chemical_formula_sum "Si O2"
_cell_formula_units_Z 30
_cell_length_a 16.952346
_cell_length_b 16.952346
_cell_length_c 5.160541
_cell_angle_alpha 90.000000
_cell_angle_beta 90.000000
_cell_angle_gamma 120.000000
_cell_volume 1284.356181
_symmetry_space_group_name_H-M "P 62"
_symmetry_group_IT_number 171
_symmetry_cell_setting 'hexagonal'
loop_
_space_group_symop_operation_xyz
x,y,z
x-y,x,1/3+z
-y,x-y,2/3+z
-x,-y,z
-x+y,-x,1/3+z
y,-x+y,2/3+z
loop_
_atom_site_type_symbol
_atom_site_label
_atom_site_fract_x
_atom_site_fract_y
_atom_site_fract_z
Si Si1 0.954111 0.835529 0.967010
Si Si2 0.736674 0.979581 0.908560
Si Si3 0.164934 0.413838 0.477219
Si Si4 0.371594 0.766898 0.857906
Si Si5 0.560508 0.830532 0.650585
O O1 0.919359 0.875263 0.743936
O O2 0.990617 0.769360 0.863527
O O3 0.860848 0.785618 0.134023
O O4 0.632946 0.918776 0.812405
O O5 0.762759 0.077863 0.800235
O O6 0.159932 0.500715 0.586986
O O7 0.194935 0.439082 0.178668
O O8 0.233054 0.409363 0.693245
O O9 0.399288 0.720311 0.083328
O O10 0.457371 0.810432 0.664420
#
# Coordination Sequence:
#
# PCOD9580547 Si02
#       5
#     6   6   6   6   6
#     4  12  26  44  66  93 126 187 236 305 354 455
#     4  12  26  44  66  96 146 180 244 298 388 432
#     4  11  24  42  69 103 139 189 234 301 365 445
#     4  10  20  40  72 101 140 185 244 294 360 460
#     4  11  24  42  69 103 139 189 234 301 365 445
#
# _framework density 23.358007000000001
#
# number of rings (size 3 to 8) (size 9 to 14) (size 15 to 20)
#    0.000    0.800    4.000    3.600    0.000    4.800 
#    0.000    0.000    0.000    4.800    0.000    0.000 
#    0.000    0.000    0.000    0.000    0.000    0.000 
#
# Total GULP energy -167075.618181 kJ/mol
# GULP energy per Si atom -5569.187273 kJ/mol
# Density = 2.330484 g / cm^3
# Si number density = 23.358007 Si / 1000 Ang^3
#
#
#
# Elastic Constant Matrix: (Units=GPa)
#
#
# Indices 1 2 3 4 5 6 
#
# 1 97.9910 51.1195 25.7671 0.0000 0.0000 0.0000
# 2 51.1195 97.9910 25.7671 0.0000 0.0000 0.0000
# 3 25.7671 25.7671 77.9844 0.0000 0.0000 0.0000
# 4 0.0000 0.0000 0.0000 30.5077 0.0000 0.0000
# 5 0.0000 0.0000 0.0000 0.0000 30.5077 0.0000
# 6 0.0000 0.0000 0.0000 0.0000 0.0000 23.4357
#
#
#
# Elastic Compliance Matrix: (Units=1/GPa)
#
#
# Indices 1 2 3 4 5 6 
#
# 1 0.014453 -0.006882 -0.002502 0.000000 0.000000 0.000000
# 2 -0.006882 0.014453 -0.002502 0.000000 0.000000 0.000000
# 3 -0.002502 -0.002502 0.014476 0.000000 0.000000 0.000000
# 4 0.000000 0.000000 0.000000 0.032779 0.000000 0.000000
# 5 0.000000 0.000000 0.000000 0.000000 0.032779 0.000000
# 6 0.000000 0.000000 0.000000 0.000000 0.000000 0.042670
#
#
# Mechanical properties :
#
#
# Convention : Reuss Voigt Hill
#
# Bulk Modulus (GPa) = 50.98937 53.25265 52.12101
# Shear Modulus (GPa) = 27.48509 28.31105 27.89807
#
# Velocity S-wave (km/s) = 3.43401 3.48523 3.45971
# Velocity P-wave (km/s) = 6.13189 6.24849 6.19047
#
# Compressibility (1/GPa) = 0.01961193
#
# Stress axis : x y z
#
# Youngs Moduli (GPa) = 69.18991 69.18991 69.07898
#
# Poissons Ratio (x) = 0.47616 0.17281
# Poissons Ratio (y) = 0.47616 0.17281
# Poissons Ratio (z) = 0.17308 0.17308
#
# Static dielectric constant tensor:
#      x y z
#    x 1.959190 0.000000 0.000000 
#    y 0.000000 1.959190 0.000000 
#    z 0.000000 0.000000 1.972610 
# 
# From -- ./inp_files/629.got.cif
#   From: 2010.05.17/outbox.cif.g08.bks.cpg/sg171_1_cif.got.tgz:629.got - 2010.05.20 11:16:09.
