data_PCOD9580765
_publ_section_title
;
Structure prediction by ZEFSAII (Michael W. Deem and Ramdas Pophale) SiO2 
 PCOD9580765
Probable space group: P 62
;
_chemical_formula_sum "Si O2"
_cell_formula_units_Z 39
_cell_length_a 8.196239
_cell_length_b 8.196239
_cell_length_c 27.186303
_cell_angle_alpha 90.000000
_cell_angle_beta 90.000000
_cell_angle_gamma 120.000000
_cell_volume 1581.648640
_symmetry_space_group_name_H-M "P 62"
_symmetry_group_IT_number 171
_symmetry_cell_setting 'hexagonal'
loop_
_space_group_symop_operation_xyz
x,y,z
x-y,x,1/3+z
-y,x-y,2/3+z
-x,-y,z
-x+y,-x,1/3+z
y,-x+y,2/3+z
loop_
_atom_site_type_symbol
_atom_site_label
_atom_site_fract_x
_atom_site_fract_y
_atom_site_fract_z
Si Si1 0.136670 0.694124 0.219320
Si Si2 0.247855 0.243791 0.990197
Si Si3 0.673923 0.828040 0.313679
Si Si4 0.555613 0.216986 0.403483
Si Si5 0.299416 0.983290 0.144305
Si Si6 0.000000 0.500000 0.408588
Si Si7 0.823985 0.531487 0.541822
O O1 0.149321 0.857549 0.185232
O O2 0.333004 0.697718 0.216642
O O3 0.000000 0.500000 0.193442
O O4 0.060184 0.695661 0.273332
O O5 0.034185 0.198830 0.997305
O O6 0.286038 0.070917 0.984122
O O7 0.353321 0.339756 0.039488
O O8 0.485414 0.760043 0.345792
O O9 0.640844 0.829834 0.255898
O O10 0.391534 0.246227 0.429370
O O11 0.769361 0.360243 0.423541
O O12 0.500000 0.000000 0.409521
O O13 0.500000 0.000000 0.156749
O O14 0.351503 0.194715 0.158217
O O15 0.000000 0.500000 0.544494
#
# Coordination Sequence:
#
# PCOD9580765 Si02
#       7
#     6   6   6   6   6   3   6
#     4  11  21  41  70 100 147 191 249 314 382 457
#     4  11  23  42  72 113 149 196 257 318 389 471
#     4  11  25  43  74 113 153 201 260 326 399 469
#     4  12  27  50  79 112 159 213 261 337 413 488
#     4  10  25  47  72  99 147 209 255 318 399 468
#     4  12  26  44  78 118 152 200 268 320 394 500
#     4  11  24  43  74 111 148 205 263 330 397 474
#
# _framework density 24.657816
#
# number of rings (size 3 to 8) (size 9 to 14) (size 15 to 20)
#    0.000    0.923    3.846    2.308    4.308    0.000 
#    5.538    0.000   23.692    0.000    0.000    0.000 
#    0.000    0.000    0.000    0.000    0.000    0.000 
#
# Total GULP energy -217274.749138 kJ/mol
# GULP energy per Si atom -5571.147414 kJ/mol
# Density = 2.460169 g / cm^3
# Si number density = 24.657816 Si / 1000 Ang^3
#
#
#
# Elastic Constant Matrix: (Units=GPa)
#
#
# Indices 1 2 3 4 5 6 
#
# 1 88.2126 23.3806 24.3103 0.0000 0.0000 0.0000
# 2 23.3806 88.2126 24.3103 0.0000 0.0000 0.0000
# 3 24.3103 24.3103 84.8430 0.0000 0.0000 0.0000
# 4 0.0000 0.0000 0.0000 80.3945 0.0000 0.0000
# 5 0.0000 0.0000 0.0000 0.0000 80.3945 0.0000
# 6 0.0000 0.0000 0.0000 0.0000 0.0000 32.4160
#
#
#
# Elastic Compliance Matrix: (Units=1/GPa)
#
#
# Indices 1 2 3 4 5 6 
#
# 1 0.012832 -0.002593 -0.002934 0.000000 0.000000 0.000000
# 2 -0.002593 0.012832 -0.002934 0.000000 0.000000 0.000000
# 3 -0.002934 -0.002934 0.013468 0.000000 0.000000 0.000000
# 4 0.000000 0.000000 0.000000 0.012439 0.000000 0.000000
# 5 0.000000 0.000000 0.000000 0.000000 0.012439 0.000000
# 6 0.000000 0.000000 0.000000 0.000000 0.000000 0.030849
#
#
# Mechanical properties :
#
#
# Convention : Reuss Voigt Hill
#
# Bulk Modulus (GPa) = 45.02290 45.03008 45.02649
# Shear Modulus (GPa) = 41.95252 51.25882 46.60567
#
# Velocity S-wave (km/s) = 4.12926 4.56434 4.35224
# Velocity P-wave (km/s) = 6.40571 6.78817 6.59971
#
# Compressibility (1/GPa) = 0.02221092
#
# Stress axis : x y z
#
# Youngs Moduli (GPa) = 77.93052 77.93052 74.25110
#
# Poissons Ratio (x) = 0.20204 0.21785
# Poissons Ratio (y) = 0.20204 0.21785
# Poissons Ratio (z) = 0.22864 0.22864
#
# Static dielectric constant tensor:
#      x y z
#    x 1.883450 0.000000 0.000000 
#    y 0.000000 1.883450 0.000000 
#    z 0.000000 0.000000 1.996440 
# 
# From -- ./inp_files/6033.got.cif
#   From: 2010.05.17/outbox.cif.g08.bks.cpg/sg171_4_cif.got.tgz:6033.got - 2010.05.20 11:16:09.
