data_PCOD9580529
_publ_section_title
;
Structure prediction by ZEFSAII (Michael W. Deem and Ramdas Pophale) SiO2 
 PCOD9580529
Probable space group: P 62
;
_chemical_formula_sum "Si O2"
_cell_formula_units_Z 45
_cell_length_a 15.355651
_cell_length_b 15.355651
_cell_length_c 12.139540
_cell_angle_alpha 90.000000
_cell_angle_beta 90.000000
_cell_angle_gamma 120.000000
_cell_volume 2478.958910
_symmetry_space_group_name_H-M "P 62"
_symmetry_group_IT_number 171
_symmetry_cell_setting 'hexagonal'
loop_
_space_group_symop_operation_xyz
x,y,z
x-y,x,1/3+z
-y,x-y,2/3+z
-x,-y,z
-x+y,-x,1/3+z
y,-x+y,2/3+z
loop_
_atom_site_type_symbol
_atom_site_label
_atom_site_fract_x
_atom_site_fract_y
_atom_site_fract_z
Si Si1 0.022479 0.831872 0.645230
Si Si2 0.632480 0.455687 0.874396
Si Si3 0.500000 0.500000 0.041114
Si Si4 0.191337 0.219873 0.566922
Si Si5 0.979143 0.333965 0.065846
Si Si6 0.812205 0.783811 0.920909
Si Si7 0.708619 0.650958 0.133873
Si Si8 0.790445 0.507707 0.063651
O O1 0.049590 0.828401 0.771417
O O2 0.028601 0.746333 0.575628
O O3 0.911607 0.815023 0.632172
O O4 0.101946 0.939634 0.595084
O O5 0.650101 0.544021 0.789121
O O6 0.588157 0.353576 0.805275
O O7 0.550393 0.452634 0.961488
O O8 0.730409 0.482179 0.947902
O O9 0.589977 0.582696 0.114456
O O10 0.275626 0.325046 0.617054
O O11 0.224655 0.136503 0.582590
O O12 0.990648 0.259006 0.150409
O O13 0.088401 0.432178 0.053033
O O14 0.751619 0.725004 0.029149
O O15 0.757235 0.579325 0.125642
#
# Coordination Sequence:
#
# PCOD9580529 Si02
#       8
#     6   6   3   6   6   6   6   6
#     4  12  25  37  56  92 132 173 203 255 315 387
#     4  11  22  39  69  97 123 162 215 276 324 382
#     4  10  20  38  66  92 110 162 214 266 306 376
#     4  12  25  36  58  91 135 171 208 247 320 386
#     4  12  20  40  65  93 122 165 219 262 314 391
#     4  12  20  38  60  92 122 165 214 261 301 375
#     4  11  22  39  64  88 120 160 214 263 314 376
#     4  11  21  39  66  94 119 155 218 272 324 367
#
# _framework density 18.152782999999999
#
# number of rings (size 3 to 8) (size 9 to 14) (size 15 to 20)
#    0.000    0.533    9.333    0.400    0.000    1.067 
#    0.000    4.000    2.933    0.000    0.000    0.000 
#    0.000    0.000    0.000    0.000    0.000    0.000 
#
# Total GULP energy -251388.694689 kJ/mol
# GULP energy per Si atom -5586.415438 kJ/mol
# Density = 1.811147 g / cm^3
# Si number density = 18.152783 Si / 1000 Ang^3
#
#
#
# Elastic Constant Matrix: (Units=GPa)
#
#
# Indices 1 2 3 4 5 6 
#
# 1 67.3664 22.1694 12.6771 0.0000 0.0000 0.0000
# 2 22.1694 67.3664 12.6771 0.0000 0.0000 0.0000
# 3 12.6771 12.6771 63.1144 0.0000 0.0000 0.0000
# 4 0.0000 0.0000 0.0000 16.0059 0.0000 0.0000
# 5 0.0000 0.0000 0.0000 0.0000 16.0059 0.0000
# 6 0.0000 0.0000 0.0000 0.0000 0.0000 22.5985
#
#
#
# Elastic Compliance Matrix: (Units=1/GPa)
#
#
# Indices 1 2 3 4 5 6 
#
# 1 0.016984 -0.005142 -0.002379 0.000000 0.000000 0.000000
# 2 -0.005142 0.016984 -0.002379 0.000000 0.000000 0.000000
# 3 -0.002379 -0.002379 0.016800 0.000000 0.000000 0.000000
# 4 0.000000 0.000000 0.000000 0.062477 0.000000 0.000000
# 5 0.000000 0.000000 0.000000 0.000000 0.062477 0.000000
# 6 0.000000 0.000000 0.000000 0.000000 0.000000 0.044251
#
#
# Mechanical properties :
#
#
# Convention : Reuss Voigt Hill
#
# Bulk Modulus (GPa) = 32.28950 32.54383 32.41666
# Shear Modulus (GPa) = 19.99258 20.94364 20.46811
#
# Velocity S-wave (km/s) = 3.32226 3.40036 3.36154
# Velocity P-wave (km/s) = 5.70463 5.77783 5.74135
#
# Compressibility (1/GPa) = 0.03096982
#
# Stress axis : x y z
#
# Youngs Moduli (GPa) = 58.87959 58.87959 59.52458
#
# Poissons Ratio (x) = 0.30273 0.14159
# Poissons Ratio (y) = 0.30273 0.14159
# Poissons Ratio (z) = 0.14005 0.14005
#
# Static dielectric constant tensor:
#      x y z
#    x 1.628160 0.000000 0.000000 
#    y 0.000000 1.628160 0.000000 
#    z 0.000000 0.000000 1.628680 
# 
# From -- ./inp_files/4702.got.cif
#   From: 2010.05.17/outbox.cif.g08.bks.cpg/sg171_3_cif.got.tgz:4702.got - 2010.05.20 11:16:09.
