data_PCOD9580383
_publ_section_title
;
Structure prediction by ZEFSAII (Michael W. Deem and Ramdas Pophale) SiO2 
 PCOD9580383
Probable space group: P 65
;
_chemical_formula_sum "Si O2"
_cell_formula_units_Z 42
_cell_length_a 13.789497
_cell_length_b 13.789497
_cell_length_c 11.178298
_cell_angle_alpha 90.000000
_cell_angle_beta 90.000000
_cell_angle_gamma 120.000000
_cell_volume 1840.785413
_symmetry_space_group_name_H-M "P 65"
_symmetry_group_IT_number 170
_symmetry_cell_setting 'hexagonal'
loop_
_space_group_symop_operation_xyz
x,y,z
x-y,x,5/6+z
-y,x-y,2/3+z
-x,-y,1/2+z
-x+y,-x,1/3+z
y,-x+y,1/6+z
loop_
_atom_site_type_symbol
_atom_site_label
_atom_site_fract_x
_atom_site_fract_y
_atom_site_fract_z
Si Si1 0.658488 0.970698 0.703340
Si Si2 0.238514 0.459268 0.871648
Si Si3 0.421636 0.786492 0.305547
Si Si4 0.193386 0.123705 0.304443
Si Si5 0.657364 0.002683 0.101443
Si Si6 0.814601 0.561748 0.977719
Si Si7 0.472552 0.506138 0.228032
O O1 0.602533 0.907046 0.580375
O O2 0.750355 0.933782 0.729163
O O3 0.562902 0.926158 0.807786
O O4 0.724757 0.104845 0.700234
O O5 0.279956 0.519730 0.745939
O O6 0.263456 0.553354 0.971787
O O7 0.451107 0.753256 0.178068
O O8 0.475587 0.919048 0.325913
O O9 0.098170 0.140605 0.248033
O O10 0.291781 0.245800 0.336497
O O11 0.644515 0.884335 0.151365
O O12 0.703290 0.107060 0.193444
O O13 0.548085 0.980713 0.026303
O O14 0.894222 0.534620 0.062087
#
# Coordination Sequence:
#
# PCOD9580383 Si02
#       7
#     6   6   6   6   6   6   6
#     4  11  23  47  73 107 150 196 255 320 384 464
#     4  11  27  46  73 109 150 203 254 326 392 470
#     4  11  28  45  69 108 150 200 259 319 398 469
#     4  12  22  46  79 113 150 201 261 306 379 464
#     4  12  25  47  79 110 156 209 261 329 383 480
#     4  12  27  46  74 113 152 204 267 321 404 470
#     4  11  26  45  73 108 154 203 257 321 396 463
#
# _framework density 22.816348999999999
#
# number of rings (size 3 to 8) (size 9 to 14) (size 15 to 20)
#    0.000    0.571    5.714    0.857    8.000    0.000 
#    0.000    2.857    0.000    0.000    0.000    0.000 
#    0.000    0.000    0.000    0.000    0.000    0.000 
#
# Total GULP energy -233969.728539 kJ/mol
# GULP energy per Si atom -5570.707822 kJ/mol
# Density = 2.276442 g / cm^3
# Si number density = 22.816349 Si / 1000 Ang^3
#
#
#
# Elastic Constant Matrix: (Units=GPa)
#
#
# Indices 1 2 3 4 5 6 
#
# 1 -26.4368 183.7112 44.6886 0.0000 0.0000 0.0000
# 2 183.7112 -26.4368 44.6886 0.0000 0.0000 0.0000
# 3 44.6886 44.6886 76.8234 0.0000 0.0000 0.0000
# 4 0.0000 0.0000 0.0000 43.8921 0.0000 0.0000
# 5 0.0000 0.0000 0.0000 0.0000 43.8921 0.0000
# 6 0.0000 0.0000 0.0000 0.0000 0.0000 -105.0740
#
#
#
# Elastic Compliance Matrix: (Units=1/GPa)
#
#
# Indices 1 2 3 4 5 6 
#
# 1 0.002370 0.007128 -0.005525 0.000000 0.000000 0.000000
# 2 0.007128 0.002370 -0.005525 0.000000 0.000000 0.000000
# 3 -0.005525 -0.005525 0.019445 0.000000 0.000000 0.000000
# 4 0.000000 0.000000 0.000000 0.022783 0.000000 0.000000
# 5 0.000000 0.000000 0.000000 0.000000 0.022783 0.000000
# 6 0.000000 0.000000 0.000000 0.000000 0.000000 -0.009517
#
#
# Mechanical properties :
#
#
# Convention : Reuss Voigt Hill
#
# Bulk Modulus (GPa) = 61.19702 63.34741 62.27221
# Shear Modulus (GPa) = 68.00454 -20.06720 23.96867
#
# Velocity S-wave (km/s) = 5.46533 -2.96887 3.24466
# Velocity P-wave (km/s) = 8.16739 4.00900 6.43344
#
# Compressibility (1/GPa) = 0.01634066
#
# Stress axis : x y z
#
# Youngs Moduli (GPa) = 421.97161 421.97161 51.42734
#
# Poissons Ratio (x) = -3.00797 0.28414
# Poissons Ratio (y) = -3.00797 0.28414
# Poissons Ratio (z) = 2.33146 2.33146
#
# Static dielectric constant tensor:
#      x y z
#    x 1.871970 0.000000 0.000000 
#    y 0.000000 1.871970 0.000000 
#    z 0.000000 0.000000 1.927370 
# 
# From -- ./inp_files/988.got.cif
#   From: 2010.05.17/outbox.cif.g08.bks.cpg/sg170_cif.got.tgz:988.got - 2010.05.20 11:14:30.
