data_PCOD9580107
_publ_section_title
;
Structure prediction by ZEFSAII (Michael W. Deem and Ramdas Pophale) SiO2 
 PCOD9580107
Probable space group: P 61
;
_chemical_formula_sum "Si O2"
_cell_formula_units_Z 30
_cell_length_a 13.506046
_cell_length_b 13.506046
_cell_length_c 8.533807
_cell_angle_alpha 90.000000
_cell_angle_beta 90.000000
_cell_angle_gamma 120.000000
_cell_volume 1348.124177
_symmetry_space_group_name_H-M "P 61"
_symmetry_group_IT_number 169
_symmetry_cell_setting 'hexagonal'
loop_
_space_group_symop_operation_xyz
x,y,z
x-y,x,1/6+z
-y,x-y,1/3+z
-x,-y,1/2+z
-x+y,-x,2/3+z
y,-x+y,5/6+z
loop_
_atom_site_type_symbol
_atom_site_label
_atom_site_fract_x
_atom_site_fract_y
_atom_site_fract_z
Si Si1 0.199050 0.216910 0.122910
Si Si2 0.195888 0.819089 0.539365
Si Si3 0.357533 0.413005 0.645916
Si Si4 0.351641 0.723689 0.624510
Si Si5 0.431704 0.027822 0.114248
O O1 0.318803 0.312956 0.196982
O O2 0.096117 0.197357 0.239477
O O3 0.186644 0.278222 0.967721
O O4 0.297786 0.946763 0.538422
O O5 0.247184 0.748719 0.623564
O O6 0.161249 0.761697 0.367915
O O7 0.385796 0.417670 0.465413
O O8 0.465583 0.519350 0.728354
O O9 0.356588 0.688074 0.805079
O O10 0.465986 0.842673 0.583347
#
# Coordination Sequence:
#
# PCOD9580107 Si02
#       5
#     6   6   6   6   6
#     4  12  27  52  76 100 141 191 252 314 373 444
#     4  11  23  43  70 101 141 193 238 302 359 437
#     4  11  25  44  71 106 146 191 244 299 374 442
#     4  11  23  40  68 108 150 190 239 295 368 449
#     4  11  26  45  73 103 142 191 237 302 376 448
#
# _framework density 22.253140999999999
#
# number of rings (size 3 to 8) (size 9 to 14) (size 15 to 20)
#    0.000    0.800    4.000    2.400    8.400    1.600 
#    3.600    0.000    0.000    0.000    0.000    0.000 
#    0.000    0.000    0.000    0.000    0.000    0.000 
#
# Total GULP energy -167643.184349 kJ/mol
# GULP energy per Si atom -5588.106145 kJ/mol
# Density = 2.220249 g / cm^3
# Si number density = 22.253141 Si / 1000 Ang^3
#
#
#
# Elastic Constant Matrix: (Units=GPa)
#
#
# Indices 1 2 3 4 5 6 
#
# 1 62.0345 44.9898 4.5005 0.0000 0.0000 0.0000
# 2 44.9898 62.0345 4.5005 0.0000 0.0000 0.0000
# 3 4.5005 4.5005 76.4299 0.0000 0.0000 0.0000
# 4 0.0000 0.0000 0.0000 36.8239 0.0000 0.0000
# 5 0.0000 0.0000 0.0000 0.0000 36.8239 0.0000
# 6 0.0000 0.0000 0.0000 0.0000 0.0000 8.5223
#
#
#
# Elastic Compliance Matrix: (Units=1/GPa)
#
#
# Indices 1 2 3 4 5 6 
#
# 1 0.034030 -0.024640 -0.000553 0.000000 0.000000 0.000000
# 2 -0.024640 0.034030 -0.000553 0.000000 0.000000 0.000000
# 3 -0.000553 -0.000553 0.013149 0.000000 0.000000 0.000000
# 4 0.000000 0.000000 0.000000 0.027156 0.000000 0.000000
# 5 0.000000 0.000000 0.000000 0.000000 0.027156 0.000000
# 6 0.000000 0.000000 0.000000 0.000000 0.000000 0.117339
#
#
# Mechanical properties :
#
#
# Convention : Reuss Voigt Hill
#
# Bulk Modulus (GPa) = 33.65008 34.27563 33.96286
# Shear Modulus (GPa) = 15.91053 26.20121 21.05587
#
# Velocity S-wave (km/s) = 2.67681 3.43507 3.07937
# Velocity P-wave (km/s) = 4.97072 5.58292 5.28569
#
# Compressibility (1/GPa) = 0.02971761
#
# Stress axis : x y z
#
# Youngs Moduli (GPa) = 29.38598 29.38598 76.05141
#
# Poissons Ratio (x) = 0.72406 0.04205
# Poissons Ratio (y) = 0.72406 0.04205
# Poissons Ratio (z) = 0.01625 0.01625
#
# Static dielectric constant tensor:
#      x y z
#    x 1.850460 0.000000 0.000000 
#    y 0.000000 1.850460 0.000000 
#    z 0.000000 0.000000 1.820880 
# 
# From -- ./inp_files/571.got.cif
#   From: 2010.05.17/outbox.cif.g08.bks.cpg/sg169_cif.got.tgz:571.got - 2010.05.20 11:12:54.
