data_PCOD9580506
_publ_section_title
;
Structure prediction by ZEFSAII (Michael W. Deem and Ramdas Pophale) SiO2 
 PCOD9580506
Probable space group: P 62
;
_chemical_formula_sum "Si O2"
_cell_formula_units_Z 36
_cell_length_a 20.510442
_cell_length_b 20.510442
_cell_length_c 5.069964
_cell_angle_alpha 90.000000
_cell_angle_beta 90.000000
_cell_angle_gamma 120.000000
_cell_volume 1847.079321
_symmetry_space_group_name_H-M "P 62"
_symmetry_group_IT_number 171
_symmetry_cell_setting 'hexagonal'
loop_
_space_group_symop_operation_xyz
x,y,z
x-y,x,1/3+z
-y,x-y,2/3+z
-x,-y,z
-x+y,-x,1/3+z
y,-x+y,2/3+z
loop_
_atom_site_type_symbol
_atom_site_label
_atom_site_fract_x
_atom_site_fract_y
_atom_site_fract_z
Si Si1 0.556219 0.354803 0.992160
Si Si2 0.795486 0.353426 0.814450
Si Si3 0.054203 0.653027 0.894624
Si Si4 0.049724 0.802458 0.903655
Si Si5 0.950464 0.753862 0.395580
Si Si6 0.950713 0.601878 0.371682
O O1 0.596063 0.381121 0.705952
O O2 0.474854 0.347535 0.010729
O O3 0.607092 0.418341 0.199372
O O4 0.552663 0.279275 0.101679
O O5 0.868461 0.347157 0.879090
O O6 0.073798 0.739230 0.938550
O O7 0.998412 0.619225 0.642334
O O8 0.006182 0.605961 0.143194
O O9 0.116883 0.876530 0.771462
O O10 0.985737 0.769968 0.684384
O O11 0.011456 0.807232 0.176489
O O12 0.933628 0.670156 0.324621
#
# Coordination Sequence:
#
# PCOD9580506 Si02
#       6
#     6   6   6   6   6   6
#     4  12  25  41  61  84 118 159 200 240 285 350
#     4  12  25  41  61  84 118 159 200 240 285 350
#     4  10  22  39  61  89 116 148 192 248 303 343
#     4  10  20  36  59  86 117 151 192 238 290 348
#     4  10  20  36  59  86 117 151 192 238 290 348
#     4  10  22  39  61  89 116 148 192 248 303 343
#
# _framework density 19.490231000000001
#
# number of rings (size 3 to 8) (size 9 to 14) (size 15 to 20)
#    0.000    1.333    0.000    6.000    0.000    4.000 
#    0.000   10.000    0.000    5.000    0.000    0.000 
#    0.000    0.000    0.000    0.000    0.000    0.000 
#
# Total GULP energy -201016.882649 kJ/mol
# GULP energy per Si atom -5583.802296 kJ/mol
# Density = 1.944587 g / cm^3
# Si number density = 19.490231 Si / 1000 Ang^3
#
#
#
# Elastic Constant Matrix: (Units=GPa)
#
#
# Indices 1 2 3 4 5 6 
#
# 1 74.6003 25.0628 -11.0165 0.0000 0.0000 0.0000
# 2 25.0628 74.6003 -11.0165 0.0000 0.0000 0.0000
# 3 -11.0165 -11.0165 77.2922 0.0000 0.0000 0.0000
# 4 0.0000 0.0000 0.0000 22.2724 0.0000 0.0000
# 5 0.0000 0.0000 0.0000 0.0000 22.2724 0.0000
# 6 0.0000 0.0000 0.0000 0.0000 0.0000 24.7687
#
#
#
# Elastic Compliance Matrix: (Units=1/GPa)
#
#
# Indices 1 2 3 4 5 6 
#
# 1 0.015273 -0.004913 0.001477 0.000000 0.000000 0.000000
# 2 -0.004913 0.015273 0.001477 0.000000 0.000000 0.000000
# 3 0.001477 0.001477 0.013359 0.000000 0.000000 0.000000
# 4 0.000000 0.000000 0.000000 0.044899 0.000000 0.000000
# 5 0.000000 0.000000 0.000000 0.000000 0.044899 0.000000
# 6 0.000000 0.000000 0.000000 0.000000 0.000000 0.040373
#
#
# Mechanical properties :
#
#
# Convention : Reuss Voigt Hill
#
# Bulk Modulus (GPa) = 25.00879 25.83917 25.42398
# Shear Modulus (GPa) = 26.13353 28.76023 27.44688
#
# Velocity S-wave (km/s) = 3.66574 3.84555 3.75672
# Velocity P-wave (km/s) = 5.54763 5.74491 5.64713
#
# Compressibility (1/GPa) = 0.03998595
#
# Stress axis : x y z
#
# Youngs Moduli (GPa) = 65.47292 65.47292 74.85673
#
# Poissons Ratio (x) = 0.32168 -0.11054
# Poissons Ratio (y) = 0.32168 -0.11054
# Poissons Ratio (z) = -0.09668 -0.09668
#
# Static dielectric constant tensor:
#      x y z
#    x 1.765040 0.000000 0.000000 
#    y 0.000000 1.765040 0.000000 
#    z 0.000000 0.000000 1.691170 
# 
# From -- ./inp_files/407.got.cif
#   From: 2010.05.17/outbox.cif.g08.bks.cpg/sg171_1_cif.got.tgz:407.got - 2010.05.20 11:16:09.
