data_PCOD9580607
_publ_section_title
;
Structure prediction by ZEFSAII (Michael W. Deem and Ramdas Pophale) SiO2 
 PCOD9580607
Probable space group: P 62
;
_chemical_formula_sum "Si O2"
_cell_formula_units_Z 36
_cell_length_a 10.220403
_cell_length_b 10.220403
_cell_length_c 15.455987
_cell_angle_alpha 90.000000
_cell_angle_beta 90.000000
_cell_angle_gamma 120.000000
_cell_volume 1398.181067
_symmetry_space_group_name_H-M "P 62"
_symmetry_group_IT_number 171
_symmetry_cell_setting 'hexagonal'
loop_
_space_group_symop_operation_xyz
x,y,z
x-y,x,1/3+z
-y,x-y,2/3+z
-x,-y,z
-x+y,-x,1/3+z
y,-x+y,2/3+z
loop_
_atom_site_type_symbol
_atom_site_label
_atom_site_fract_x
_atom_site_fract_y
_atom_site_fract_z
Si Si1 0.403495 0.335399 0.242890
Si Si2 0.419111 0.774545 0.330801
Si Si3 0.223543 0.453561 0.407485
Si Si4 0.500000 0.000000 0.485132
Si Si5 0.044407 0.875932 0.350246
Si Si6 0.190478 0.927896 0.523444
Si Si7 0.500000 0.500000 0.518994
O O1 0.500000 0.500000 0.282579
O O2 0.426379 0.221702 0.302785
O O3 0.488586 0.343569 0.153973
O O4 0.233231 0.288007 0.222197
O O5 0.294617 0.599275 0.345153
O O6 0.392330 0.866023 0.253549
O O7 0.449889 0.858486 0.421396
O O8 0.093922 0.292298 0.372293
O O9 0.354590 0.434557 0.456154
O O10 0.642736 0.037608 0.541984
O O11 0.175698 0.915025 0.419175
O O12 0.056307 0.875591 0.246080
O O13 0.000000 0.000000 0.373418
#
# Coordination Sequence:
#
# PCOD9580607 Si02
#       7
#     6   6   6   3   6   6   3
#     4  10  21  41  69 107 148 200 257 313 399 478
#     4  10  22  43  72 110 155 195 262 320 402 477
#     4  10  22  41  73 106 149 205 256 324 390 481
#     4  11  26  50  72 117 152 204 262 341 406 492
#     4  11  26  50  75 110 152 212 267 325 401 496
#     4  11  26  49  75 111 158 205 266 333 410 484
#     4   9  22  42  68 117 146 202 252 335 394 468
#
# _framework density 25.747737000000001
#
# number of rings (size 3 to 8) (size 9 to 14) (size 15 to 20)
#    0.000    1.667    0.000    2.500    5.833    1.333 
#   27.000    0.000    0.000    0.000    0.000    0.000 
#    0.000    0.000    0.000    0.000    0.000    0.000 
#
# Total GULP energy -201219.979562 kJ/mol
# GULP energy per Si atom -5589.443877 kJ/mol
# Density = 2.568913 g / cm^3
# Si number density = 25.747737 Si / 1000 Ang^3
#
#
#
# Elastic Constant Matrix: (Units=GPa)
#
#
# Indices 1 2 3 4 5 6 
#
# 1 101.1568 30.8788 28.7166 0.0000 0.0000 0.0000
# 2 30.8788 101.1568 28.7166 0.0000 0.0000 0.0000
# 3 28.7166 28.7166 118.7339 0.0000 0.0000 0.0000
# 4 0.0000 0.0000 0.0000 35.8488 0.0000 0.0000
# 5 0.0000 0.0000 0.0000 0.0000 35.8488 0.0000
# 6 0.0000 0.0000 0.0000 0.0000 0.0000 35.1390
#
#
#
# Elastic Compliance Matrix: (Units=1/GPa)
#
#
# Indices 1 2 3 4 5 6 
#
# 1 0.011347 -0.002883 -0.002047 0.000000 0.000000 0.000000
# 2 -0.002883 0.011347 -0.002047 0.000000 0.000000 0.000000
# 3 -0.002047 -0.002047 0.009412 0.000000 0.000000 0.000000
# 4 0.000000 0.000000 0.000000 0.027895 0.000000 0.000000
# 5 0.000000 0.000000 0.000000 0.000000 0.027895 0.000000
# 6 0.000000 0.000000 0.000000 0.000000 0.000000 0.028458
#
#
# Mechanical properties :
#
#
# Convention : Reuss Voigt Hill
#
# Bulk Modulus (GPa) = 55.08945 55.29682 55.19314
# Shear Modulus (GPa) = 36.66807 36.88300 36.77553
#
# Velocity S-wave (km/s) = 3.77786 3.78891 3.78339
# Velocity P-wave (km/s) = 6.36175 6.37684 6.36930
#
# Compressibility (1/GPa) = 0.01815229
#
# Stress axis : x y z
#
# Youngs Moduli (GPa) = 88.13141 88.13141 106.24266
#
# Poissons Ratio (x) = 0.25404 0.21749
# Poissons Ratio (y) = 0.25404 0.21749
# Poissons Ratio (z) = 0.18042 0.18042
#
# Static dielectric constant tensor:
#      x y z
#    x 2.078750 0.000000 0.000000 
#    y 0.000000 2.078750 0.000000 
#    z 0.000000 0.000000 2.085120 
# 
# From -- ./inp_files/3659.got.cif
#   From: 2010.05.17/outbox.cif.g08.bks.cpg/sg171_2_cif.got.tgz:3659.got - 2010.05.20 11:16:09.
