data_PCOD9580852
_publ_section_title
;
Structure prediction by ZEFSAII (Michael W. Deem and Ramdas Pophale) SiO2 
 PCOD9580852
Probable space group: P 62
;
_chemical_formula_sum "Si O2"
_cell_formula_units_Z 39
_cell_length_a 20.186244
_cell_length_b 20.186244
_cell_length_c 5.126052
_cell_angle_alpha 90.000000
_cell_angle_beta 90.000000
_cell_angle_gamma 120.000000
_cell_volume 1808.942141
_symmetry_space_group_name_H-M "P 62"
_symmetry_group_IT_number 171
_symmetry_cell_setting 'hexagonal'
loop_
_space_group_symop_operation_xyz
x,y,z
x-y,x,1/3+z
-y,x-y,2/3+z
-x,-y,z
-x+y,-x,1/3+z
y,-x+y,2/3+z
loop_
_atom_site_type_symbol
_atom_site_label
_atom_site_fract_x
_atom_site_fract_y
_atom_site_fract_z
Si Si1 0.002858 0.619081 0.812210
Si Si2 0.853022 0.122132 0.607606
Si Si3 0.519560 0.666676 0.242701
Si Si4 0.556997 0.767511 0.744922
Si Si5 0.758283 0.780097 0.454421
Si Si6 0.000000 0.500000 0.186078
Si Si7 0.135980 0.619845 0.543655
O O1 0.089005 0.640589 0.750034
O O2 0.944311 0.578148 0.573541
O O3 0.995901 0.691975 0.884557
O O4 0.974526 0.549020 0.009640
O O5 0.823894 0.179168 0.501419
O O6 0.835887 0.064195 0.365068
O O7 0.941259 0.170930 0.694928
O O8 0.806405 0.076025 0.865081
O O9 0.553259 0.730658 0.466550
O O10 0.433427 0.601373 0.316276
O O11 0.521410 0.703308 0.967454
O O12 0.506098 0.807763 0.739644
O O13 0.928688 0.438668 0.348396
#
# Coordination Sequence:
#
# PCOD9580852 Si02
#       7
#     6   6   6   6   6   3   6
#     4  12  23  39  74 104 137 184 237 300 367 426
#     4  12  25  47  74 112 146 191 227 307 356 445
#     4  12  25  47  65  99 141 191 234 304 356 435
#     4  12  27  44  71  98 143 189 246 301 372 422
#     4  12  27  45  76 109 153 181 238 290 376 426
#     4  12  24  40  74 104 142 186 248 312 352 436
#     4  12  27  44  70 104 138 194 251 302 364 429
#
# _framework density 21.559564000000002
#
# number of rings (size 3 to 8) (size 9 to 14) (size 15 to 20)
#    0.000    0.000    7.692    1.846    4.308    1.231 
#    2.769    0.000    0.000    4.615    0.000    0.000 
#    0.000    0.000    0.000    0.000    0.000    0.000 
#
# Total GULP energy -218141.655822 kJ/mol
# GULP energy per Si atom -5593.375790 kJ/mol
# Density = 2.151049 g / cm^3
# Si number density = 21.559564 Si / 1000 Ang^3
#
#
#
# Elastic Constant Matrix: (Units=GPa)
#
#
# Indices 1 2 3 4 5 6 
#
# 1 100.1213 38.7473 27.6670 0.0000 0.0000 0.0000
# 2 38.7473 100.1213 27.6670 0.0000 0.0000 0.0000
# 3 27.6670 27.6670 96.1136 0.0000 0.0000 0.0000
# 4 0.0000 0.0000 0.0000 24.4601 0.0000 0.0000
# 5 0.0000 0.0000 0.0000 0.0000 24.4601 0.0000
# 6 0.0000 0.0000 0.0000 0.0000 0.0000 30.6870
#
#
#
# Elastic Compliance Matrix: (Units=1/GPa)
#
#
# Indices 1 2 3 4 5 6 
#
# 1 0.012214 -0.004080 -0.002341 0.000000 0.000000 0.000000
# 2 -0.004080 0.012214 -0.002341 0.000000 0.000000 0.000000
# 3 -0.002341 -0.002341 0.011752 0.000000 0.000000 0.000000
# 4 0.000000 0.000000 0.000000 0.040883 0.000000 0.000000
# 5 0.000000 0.000000 0.000000 0.000000 0.040883 0.000000
# 6 0.000000 0.000000 0.000000 0.000000 0.000000 0.032587
#
#
# Mechanical properties :
#
#
# Convention : Reuss Voigt Hill
#
# Bulk Modulus (GPa) = 53.60594 53.83544 53.72069
# Shear Modulus (GPa) = 28.69008 29.40644 29.04826
#
# Velocity S-wave (km/s) = 3.65188 3.69719 3.67461
# Velocity P-wave (km/s) = 6.53450 6.57650 6.55554
#
# Compressibility (1/GPa) = 0.01865465
#
# Stress axis : x y z
#
# Youngs Moduli (GPa) = 81.87468 81.87468 85.08930
#
# Poissons Ratio (x) = 0.33403 0.19923
# Poissons Ratio (y) = 0.33403 0.19923
# Poissons Ratio (z) = 0.19170 0.19170
#
# Static dielectric constant tensor:
#      x y z
#    x 1.821360 0.000000 0.000000 
#    y 0.000000 1.821360 0.000000 
#    z 0.000000 0.000000 1.813140 
# 
# From -- ./inp_files/449.got.cif
#   From: 2010.05.17/outbox.cif.g08.bks.cpg/sg171_1_cif.got.tgz:449.got - 2010.05.20 11:16:09.
