data_PCOD9580821
_publ_section_title
;
Structure prediction by ZEFSAII (Michael W. Deem and Ramdas Pophale) SiO2 
 PCOD9580821
Probable space group: P 62
;
_chemical_formula_sum "Si O2"
_cell_formula_units_Z 24
_cell_length_a 10.171643
_cell_length_b 10.171643
_cell_length_c 13.597714
_cell_angle_alpha 90.000000
_cell_angle_beta 90.000000
_cell_angle_gamma 120.000000
_cell_volume 1218.368753
_symmetry_space_group_name_H-M "P 62"
_symmetry_group_IT_number 171
_symmetry_cell_setting 'hexagonal'
loop_
_space_group_symop_operation_xyz
x,y,z
x-y,x,1/3+z
-y,x-y,2/3+z
-x,-y,z
-x+y,-x,1/3+z
y,-x+y,2/3+z
loop_
_atom_site_type_symbol
_atom_site_label
_atom_site_fract_x
_atom_site_fract_y
_atom_site_fract_z
Si Si1 0.203416 0.161364 0.402370
Si Si2 0.796586 0.957948 0.841777
Si Si3 0.546887 0.377855 0.403959
Si Si4 0.546880 0.169034 0.840210
O O1 0.161090 0.161089 0.288740
O O2 0.382486 0.228875 0.410890
O O3 0.123727 0.247454 0.455407
O O4 0.128542 0.000001 0.455407
O O5 0.617517 0.846384 0.833259
O O6 0.500000 0.500000 0.442605
O O7 0.686364 0.372730 0.455421
O O8 0.586942 0.413088 0.288753
O O9 0.500000 0.000000 0.801571
#
# Coordination Sequence:
#
# PCOD9580821 Si02
#       4
#     6   6   6   6
#     4  11  23  42  67  98 132 177 228 282 343 422
#     4  11  23  42  67  98 132 177 228 282 343 422
#     4  11  24  44  67  94 136 178 222 288 351 411
#     4  11  24  44  67  94 136 178 222 288 351 411
#
# _framework density 19.69847
#
# number of rings (size 3 to 8) (size 9 to 14) (size 15 to 20)
#    0.000    1.000    5.000    4.500    0.000    5.000 
#    0.000    0.000    0.000    0.000    0.000    0.000 
#    0.000    0.000    0.000    0.000    0.000    0.000 
#
# Total GULP energy -133686.109838 kJ/mol
# GULP energy per Si atom -5570.254577 kJ/mol
# Density = 1.965364 g / cm^3
# Si number density = 19.698470 Si / 1000 Ang^3
#
#
#
# Elastic Constant Matrix: (Units=GPa)
#
#
# Indices 1 2 3 4 5 6 
#
# 1 181.8119 84.2068 64.7524 0.0000 0.0000 0.0000
# 2 84.2068 181.8119 64.7524 0.0000 0.0000 0.0000
# 3 64.7524 64.7524 123.1857 0.0000 0.0000 0.0000
# 4 0.0000 0.0000 0.0000 27.4731 0.0000 0.0000
# 5 0.0000 0.0000 0.0000 0.0000 27.4731 0.0000
# 6 0.0000 0.0000 0.0000 0.0000 0.0000 48.8025
#
#
#
# Elastic Compliance Matrix: (Units=1/GPa)
#
#
# Indices 1 2 3 4 5 6 
#
# 1 0.007649 -0.002597 -0.002656 0.000000 0.000000 0.000000
# 2 -0.002597 0.007649 -0.002656 0.000000 0.000000 0.000000
# 3 -0.002656 -0.002656 0.010910 0.000000 0.000000 0.000000
# 4 0.000000 0.000000 0.000000 0.036399 0.000000 0.000000
# 5 0.000000 0.000000 0.000000 0.000000 0.036399 0.000000
# 6 0.000000 0.000000 0.000000 0.000000 0.000000 0.020491
#
#
# Mechanical properties :
#
#
# Convention : Reuss Voigt Hill
#
# Bulk Modulus (GPa) = 96.23452 101.58139 98.90796
# Shear Modulus (GPa) = 36.02941 38.95626 37.49283
#
# Velocity S-wave (km/s) = 4.28137 4.45188 4.36746
# Velocity P-wave (km/s) = 8.56738 8.83775 8.70361
#
# Compressibility (1/GPa) = 0.01039128
#
# Stress axis : x y z
#
# Youngs Moduli (GPa) = 130.74216 130.74216 91.66261
#
# Poissons Ratio (x) = 0.33950 0.24341
# Poissons Ratio (y) = 0.33950 0.24341
# Poissons Ratio (z) = 0.34719 0.34719
#
# Static dielectric constant tensor:
#      x y z
#    x 1.687860 0.000000 0.000000 
#    y 0.000000 1.687860 0.000000 
#    z 0.000000 0.000000 1.658990 
# 
# From -- ./inp_files/1817.got.cif
#   From: 2010.05.17/outbox.cif.g08.bks.cpg/sg171_1_cif.got.tgz:1817.got - 2010.05.20 11:16:09.
