data_PCOD9580957
_publ_section_title
;
Structure prediction by ZEFSAII (Michael W. Deem and Ramdas Pophale) SiO2 
 PCOD9580957
Probable space group: P 64
;
_chemical_formula_sum "Si O2"
_cell_formula_units_Z 42
_cell_length_a 17.796669
_cell_length_b 17.796669
_cell_length_c 5.787490
_cell_angle_alpha 90.000000
_cell_angle_beta 90.000000
_cell_angle_gamma 120.000000
_cell_volume 1587.443699
_symmetry_space_group_name_H-M "P 64"
_symmetry_group_IT_number 172
_symmetry_cell_setting 'hexagonal'
loop_
_space_group_symop_operation_xyz
x,y,z
x-y,x,2/3+z
-y,x-y,1/3+z
-x,-y,z
-x+y,-x,2/3+z
y,-x+y,1/3+z
loop_
_atom_site_type_symbol
_atom_site_label
_atom_site_fract_x
_atom_site_fract_y
_atom_site_fract_z
Si Si1 0.744829 0.166227 0.859080
Si Si2 0.897582 0.435939 0.173357
Si Si3 0.272418 0.824493 0.360882
Si Si4 0.005849 0.718770 0.680444
Si Si5 0.021331 0.751499 0.170789
Si Si6 0.913342 0.061113 0.316012
Si Si7 0.467032 0.895037 0.339333
O O1 0.642210 0.139345 0.851680
O O2 0.773604 0.209219 0.607095
O O3 0.753246 0.079247 0.846194
O O4 0.774198 0.205313 0.114880
O O5 0.877915 0.386692 0.417281
O O6 0.000000 0.500000 0.171317
O O7 0.878450 0.387285 0.928382
O O8 0.308806 0.929182 0.355496
O O9 0.363463 0.827147 0.348417
O O10 0.955241 0.772884 0.695943
O O11 0.050830 0.741972 0.429668
O O12 0.056032 0.740431 0.922963
O O13 0.038280 0.849172 0.172736
O O14 0.974278 0.078909 0.529741
O O15 0.500000 0.000000 0.337154
#
# Coordination Sequence:
#
# PCOD9580957 Si02
#       7
#     6   6   6   6   6   6   6
#     4   8  13  22  36  51  68  90 112 133 161 200
#     4   8  12  17  27  46  70  92 112 132 153 176
#     4   8  13  22  36  51  68  90 112 133 161 200
#     4   9  18  32  46  58  71  88 111 141 187 247
#     4   9  18  32  46  58  71  88 111 141 187 247
#     4  10  22  38  51  62  76  90 114 158 222 284
#     4   8  12  17  27  46  70  92 112 132 153 176
#
# _framework density 26.457630000000002
#
# number of rings (size 3 to 8) (size 9 to 14) (size 15 to 20)
#    0.000    3.429    0.000    0.000    0.000    4.571 
#    0.000    5.000    0.000    0.000    0.000    0.000 
#    0.000    0.000    0.000    0.000    0.000    0.000 
#
# Total GULP energy -234239.727719 kJ/mol
# GULP energy per Si atom -5577.136374 kJ/mol
# Density = 2.639741 g / cm^3
# Si number density = 26.457630 Si / 1000 Ang^3
#
#
#
# Elastic Constant Matrix: (Units=GPa)
#
#
# Indices 1 2 3 4 5 6 
#
# 1 74.3605 31.4853 40.5375 0.0000 0.0000 0.0000
# 2 31.4853 74.3605 40.5375 0.0000 0.0000 0.0000
# 3 40.5375 40.5375 361.9113 0.0000 0.0000 0.0000
# 4 0.0000 0.0000 0.0000 32.4587 0.0000 0.0000
# 5 0.0000 0.0000 0.0000 0.0000 32.4587 0.0000
# 6 0.0000 0.0000 0.0000 0.0000 0.0000 21.4376
#
#
#
# Elastic Compliance Matrix: (Units=1/GPa)
#
#
# Indices 1 2 3 4 5 6 
#
# 1 0.016829 -0.006495 -0.001158 0.000000 0.000000 0.000000
# 2 -0.006495 0.016829 -0.001158 0.000000 0.000000 0.000000
# 3 -0.001158 -0.001158 0.003022 0.000000 0.000000 0.000000
# 4 0.000000 0.000000 0.000000 0.030808 0.000000 0.000000
# 5 0.000000 0.000000 0.000000 0.000000 0.030808 0.000000
# 6 0.000000 0.000000 0.000000 0.000000 0.000000 0.046647
#
#
# Mechanical properties :
#
#
# Convention : Reuss Voigt Hill
#
# Bulk Modulus (GPa) = 52.46326 81.75030 67.10678
# Shear Modulus (GPa) = 29.60035 43.80915 36.70475
#
# Velocity S-wave (km/s) = 3.34845 4.07360 3.72869
# Velocity P-wave (km/s) = 5.90099 7.28637 6.62997
#
# Compressibility (1/GPa) = 0.01906096
#
# Stress axis : x y z
#
# Youngs Moduli (GPa) = 59.42149 59.42149 330.86071
#
# Poissons Ratio (x) = 0.38592 0.38299
# Poissons Ratio (y) = 0.38592 0.38299
# Poissons Ratio (z) = 0.06878 0.06878
#
# Static dielectric constant tensor:
#      x y z
#    x 2.007380 0.000000 0.000000 
#    y 0.000000 2.007380 0.000000 
#    z 0.000000 0.000000 2.162340 
# 
# From -- ./inp_files/364.got.cif
#   From: 2010.05.17/outbox.cif.g08.bks.cpg/sg172_1_cif.got.tgz:364.got - 2010.05.20 11:19:57.
