data_PCOD9580922
_publ_section_title
;
Structure prediction by ZEFSAII (Michael W. Deem and Ramdas Pophale) SiO2 
 PCOD9580922
Probable space group: P 64
;
_chemical_formula_sum "Si O2"
_cell_formula_units_Z 45
_cell_length_a 11.176309
_cell_length_b 11.176309
_cell_length_c 18.693332
_cell_angle_alpha 90.000000
_cell_angle_beta 90.000000
_cell_angle_gamma 120.000000
_cell_volume 2022.153652
_symmetry_space_group_name_H-M "P 64"
_symmetry_group_IT_number 172
_symmetry_cell_setting 'hexagonal'
loop_
_space_group_symop_operation_xyz
x,y,z
x-y,x,2/3+z
-y,x-y,1/3+z
-x,-y,z
-x+y,-x,2/3+z
y,-x+y,1/3+z
loop_
_atom_site_type_symbol
_atom_site_label
_atom_site_fract_x
_atom_site_fract_y
_atom_site_fract_z
Si Si1 0.343226 0.595615 0.184730
Si Si2 0.190837 0.554395 0.402819
Si Si3 0.846807 0.457411 0.996025
Si Si4 0.890618 0.649852 0.130348
Si Si5 0.185499 0.404300 0.663040
Si Si6 0.880286 0.679109 0.499779
Si Si7 0.500000 0.500000 0.082546
Si Si8 0.055656 0.155696 0.768143
O O1 0.370757 0.721997 0.135702
O O2 0.430094 0.663968 0.255658
O O3 0.182249 0.474401 0.188966
O O4 0.396113 0.510096 0.138002
O O5 0.305331 0.532187 0.362827
O O6 0.164401 0.654383 0.351125
O O7 0.089782 0.412831 0.443111
O O8 0.855651 0.567113 0.054398
O O9 0.000000 0.500000 0.975352
O O10 0.837158 0.760164 0.128794
O O11 0.055178 0.747035 0.142177
O O12 0.156359 0.383404 0.578973
O O13 0.131597 0.259545 0.703332
O O14 0.088471 0.457408 0.698669
O O15 0.014958 0.831139 0.495778
O O16 0.000000 0.000000 0.742741
#
# Coordination Sequence:
#
# PCOD9580922 Si02
#       8
#     6   6   6   6   6   6   3   6
#     4  10  20  37  67 101 132 175 229 292 361 409
#     4  10  23  41  64 102 140 174 234 300 353 433
#     4  11  20  38  68 102 131 180 229 297 363 421
#     4  10  22  44  65  98 147 175 238 302 342 449
#     4  11  24  44  68  99 143 187 235 301 365 432
#     4  11  24  45  68  99 140 197 237 284 378 431
#     4  10  20  40  62 100 140 168 236 294 342 424
#     4  10  24  46  69  98 142 188 239 298 351 450
#
# _framework density 22.253502999999998
#
# number of rings (size 3 to 8) (size 9 to 14) (size 15 to 20)
#    0.000    1.600    3.333    0.800    0.000    4.267 
#    7.200    2.667    0.000    0.000    0.000    0.000 
#    0.000    0.000    0.000    0.000    0.000    0.000 
#
# Total GULP energy -250963.388913 kJ/mol
# GULP energy per Si atom -5576.964198 kJ/mol
# Density = 2.220285 g / cm^3
# Si number density = 22.253503 Si / 1000 Ang^3
#
#
#
# Elastic Constant Matrix: (Units=GPa)
#
#
# Indices 1 2 3 4 5 6 
#
# 1 67.0248 15.0562 18.6115 0.0000 0.0000 0.0000
# 2 15.0562 67.0248 18.6115 0.0000 0.0000 0.0000
# 3 18.6115 18.6115 103.1408 0.0000 0.0000 0.0000
# 4 0.0000 0.0000 0.0000 18.6131 0.0000 0.0000
# 5 0.0000 0.0000 0.0000 0.0000 18.6131 0.0000
# 6 0.0000 0.0000 0.0000 0.0000 0.0000 25.9843
#
#
#
# Elastic Compliance Matrix: (Units=1/GPa)
#
#
# Indices 1 2 3 4 5 6 
#
# 1 0.016256 -0.002987 -0.002394 0.000000 0.000000 0.000000
# 2 -0.002987 0.016256 -0.002394 0.000000 0.000000 0.000000
# 3 -0.002394 -0.002394 0.010560 0.000000 0.000000 0.000000
# 4 0.000000 0.000000 0.000000 0.053726 0.000000 0.000000
# 5 0.000000 0.000000 0.000000 0.000000 0.053726 0.000000
# 6 0.000000 0.000000 0.000000 0.000000 0.000000 0.038485
#
#
# Mechanical properties :
#
#
# Convention : Reuss Voigt Hill
#
# Bulk Modulus (GPa) = 36.33715 37.97207 37.15461
# Shear Modulus (GPa) = 23.39390 24.96952 24.18171
#
# Velocity S-wave (km/s) = 3.24581 3.35333 3.30001
# Velocity P-wave (km/s) = 5.51464 5.66512 5.59038
#
# Compressibility (1/GPa) = 0.02752005
#
# Stress axis : x y z
#
# Youngs Moduli (GPa) = 61.51707 61.51707 94.70063
#
# Poissons Ratio (x) = 0.18374 0.22675
# Poissons Ratio (y) = 0.18374 0.22675
# Poissons Ratio (z) = 0.14729 0.14729
#
# Static dielectric constant tensor:
#      x y z
#    x 1.899680 0.000000 0.000000 
#    y 0.000000 1.899680 0.000000 
#    z 0.000000 0.000000 1.806670 
# 
# From -- ./inp_files/1724.got.cif
#   From: 2010.05.17/outbox.cif.g08.bks.cpg/sg172_1_cif.got.tgz:1724.got - 2010.05.20 11:19:57.
