data_PCOD9580101
_publ_section_title
;
Structure prediction by ZEFSAII (Michael W. Deem and Ramdas Pophale) SiO2 
 PCOD9580101
Probable space group: P 61
;
_chemical_formula_sum "Si O2"
_cell_formula_units_Z 30
_cell_length_a 11.475190
_cell_length_b 11.475190
_cell_length_c 11.965432
_cell_angle_alpha 90.000000
_cell_angle_beta 90.000000
_cell_angle_gamma 120.000000
_cell_volume 1364.516479
_symmetry_space_group_name_H-M "P 61"
_symmetry_group_IT_number 169
_symmetry_cell_setting 'hexagonal'
loop_
_space_group_symop_operation_xyz
x,y,z
x-y,x,1/6+z
-y,x-y,1/3+z
-x,-y,1/2+z
-x+y,-x,2/3+z
y,-x+y,5/6+z
loop_
_atom_site_type_symbol
_atom_site_label
_atom_site_fract_x
_atom_site_fract_y
_atom_site_fract_z
Si Si1 0.336614 0.532022 0.162620
Si Si2 0.848802 0.344336 0.712451
Si Si3 0.009173 0.382616 0.938201
Si Si4 0.881992 0.477410 0.100612
Si Si5 0.243866 0.103233 0.908326
O O1 0.220863 0.562538 0.204173
O O2 0.461225 0.582332 0.247541
O O3 0.268510 0.375475 0.128795
O O4 0.407854 0.608706 0.046604
O O5 0.916685 0.339223 0.828693
O O6 0.723618 0.198948 0.690237
O O7 0.973583 0.400759 0.630927
O O8 0.911458 0.373838 0.037125
O O9 0.077624 0.299794 0.981338
O O10 0.145748 0.967527 0.841821
#
# Coordination Sequence:
#
# PCOD9580101 Si02
#       5
#     6   6   6   6   6
#     4  11  22  43  70 105 138 174 234 300 366 409
#     4  11  24  39  66 104 136 179 226 297 359 411
#     4  11  24  41  70 103 134 182 236 292 348 428
#     4  11  23  41  66 103 140 178 228 291 361 426
#     4  12  25  48  74 103 144 195 240 284 356 434
#
# _framework density 21.985811999999999
#
# number of rings (size 3 to 8) (size 9 to 14) (size 15 to 20)
#    0.000    0.800    4.000    3.600    8.400    0.000 
#    0.000    2.000    0.000    0.000    0.000    0.000 
#    0.000    0.000    0.000    0.000    0.000    0.000 
#
# Total GULP energy -167652.261116 kJ/mol
# GULP energy per Si atom -5588.408704 kJ/mol
# Density = 2.193577 g / cm^3
# Si number density = 21.985812 Si / 1000 Ang^3
#
#
#
# Elastic Constant Matrix: (Units=GPa)
#
#
# Indices 1 2 3 4 5 6 
#
# 1 89.1434 25.4274 -0.5842 0.0000 0.0000 0.0000
# 2 25.4274 89.1434 -0.5842 0.0000 0.0000 0.0000
# 3 -0.5842 -0.5842 43.2802 0.0000 0.0000 0.0000
# 4 0.0000 0.0000 0.0000 37.1505 0.0000 0.0000
# 5 0.0000 0.0000 0.0000 0.0000 37.1505 0.0000
# 6 0.0000 0.0000 0.0000 0.0000 0.0000 31.8580
#
#
#
# Elastic Compliance Matrix: (Units=1/GPa)
#
#
# Indices 1 2 3 4 5 6 
#
# 1 0.012212 -0.003483 0.000118 0.000000 0.000000 0.000000
# 2 -0.003483 0.012212 0.000118 0.000000 0.000000 0.000000
# 3 0.000118 0.000118 0.023108 0.000000 0.000000 0.000000
# 4 0.000000 0.000000 0.000000 0.026918 0.000000 0.000000
# 5 0.000000 0.000000 0.000000 0.000000 0.026918 0.000000
# 6 0.000000 0.000000 0.000000 0.000000 0.000000 0.031389
#
#
# Mechanical properties :
#
#
# Convention : Reuss Voigt Hill
#
# Bulk Modulus (GPa) = 24.36727 30.00942 27.18834
# Shear Modulus (GPa) = 32.69464 34.38568 33.54016
#
# Velocity S-wave (km/s) = 3.86045 3.95903 3.91005
# Velocity P-wave (km/s) = 5.56579 5.88027 5.72519
#
# Compressibility (1/GPa) = 0.04103866
#
# Stress axis : x y z
#
# Youngs Moduli (GPa) = 81.88643 81.88643 43.27422
#
# Poissons Ratio (x) = 0.28518 -0.00510
# Poissons Ratio (y) = 0.28518 -0.00510
# Poissons Ratio (z) = -0.00965 -0.00965
#
# Static dielectric constant tensor:
#      x y z
#    x 1.813870 0.000000 0.000000 
#    y 0.000000 1.813870 0.000000 
#    z 0.000000 0.000000 1.851400 
# 
# From -- ./inp_files/1128.got.cif
#   From: 2010.05.17/outbox.cif.g08.bks.cpg/sg169_cif.got.tgz:1128.got - 2010.05.20 11:12:54.
