data_PCOD9580357
_publ_section_title
;
Structure prediction by ZEFSAII (Michael W. Deem and Ramdas Pophale) SiO2 
 PCOD9580357
Probable space group: P 65
;
_chemical_formula_sum "Si O2"
_cell_formula_units_Z 42
_cell_length_a 11.510155
_cell_length_b 11.510155
_cell_length_c 17.376869
_cell_angle_alpha 90.000000
_cell_angle_beta 90.000000
_cell_angle_gamma 120.000000
_cell_volume 1993.721549
_symmetry_space_group_name_H-M "P 65"
_symmetry_group_IT_number 170
_symmetry_cell_setting 'hexagonal'
loop_
_space_group_symop_operation_xyz
x,y,z
x-y,x,5/6+z
-y,x-y,2/3+z
-x,-y,1/2+z
-x+y,-x,1/3+z
y,-x+y,1/6+z
loop_
_atom_site_type_symbol
_atom_site_label
_atom_site_fract_x
_atom_site_fract_y
_atom_site_fract_z
Si Si1 0.510245 0.592024 0.617640
Si Si2 0.594800 0.134853 0.962949
Si Si3 0.216517 0.804510 0.914154
Si Si4 0.561887 0.443327 0.869825
Si Si5 0.382387 0.221986 0.986522
Si Si6 0.203798 0.568186 0.441517
Si Si7 0.100347 0.092078 0.777713
O O1 0.513621 0.613524 0.709199
O O2 0.354500 0.500351 0.594228
O O3 0.588738 0.733937 0.574870
O O4 0.571266 0.500576 0.589933
O O5 0.703829 0.287820 0.982504
O O6 0.457679 0.140846 0.965260
O O7 0.579481 0.018839 0.020242
O O8 0.273945 0.833623 0.828308
O O9 0.130857 0.874209 0.936329
O O10 0.348129 0.862284 0.965659
O O11 0.700877 0.443715 0.878557
O O12 0.467124 0.362666 0.941425
O O13 0.229927 0.132204 0.960754
O O14 0.045255 0.007473 0.857922
#
# Coordination Sequence:
#
# PCOD9580357 Si02
#       7
#     6   6   6   6   6   6   6
#     4  12  23  40  66  97 134 169 220 282 342 412
#     4  11  21  39  60  95 135 168 214 276 350 405
#     4  12  20  41  68  97 129 172 231 284 337 407
#     4  11  21  38  66  96 129 172 223 275 339 410
#     4  11  21  38  67  97 121 173 231 281 326 407
#     4  11  24  37  63 101 129 174 219 282 351 414
#     4  12  24  43  76  99 133 186 240 290 337 421
#
# _framework density 21.066133000000001
#
# number of rings (size 3 to 8) (size 9 to 14) (size 15 to 20)
#    0.000    0.571   10.000    0.857    0.000    3.429 
#    0.000    0.000   12.571    0.000    0.000    0.000 
#    0.000    0.000    0.000    0.000    0.000    0.000 
#
# Total GULP energy -234292.503411 kJ/mol
# GULP energy per Si atom -5578.392938 kJ/mol
# Density = 2.101819 g / cm^3
# Si number density = 21.066133 Si / 1000 Ang^3
#
#
#
# Elastic Constant Matrix: (Units=GPa)
#
#
# Indices 1 2 3 4 5 6 
#
# 1 47.9797 18.5020 27.5274 0.0000 0.0000 0.0000
# 2 18.5020 47.9797 27.5274 0.0000 0.0000 0.0000
# 3 27.5274 27.5274 78.5340 0.0000 0.0000 0.0000
# 4 0.0000 0.0000 0.0000 2.4968 0.0000 0.0000
# 5 0.0000 0.0000 0.0000 0.0000 2.4968 0.0000
# 6 0.0000 0.0000 0.0000 0.0000 0.0000 14.7389
#
#
#
# Elastic Compliance Matrix: (Units=1/GPa)
#
#
# Indices 1 2 3 4 5 6 
#
# 1 0.027559 -0.006365 -0.007429 0.000000 0.000000 0.000000
# 2 -0.006365 0.027559 -0.007429 0.000000 0.000000 0.000000
# 3 -0.007429 -0.007429 0.017941 0.000000 0.000000 0.000000
# 4 0.000000 0.000000 0.000000 0.400520 0.000000 0.000000
# 5 0.000000 0.000000 0.000000 0.000000 0.400520 0.000000
# 6 0.000000 0.000000 0.000000 0.000000 0.000000 0.067848
#
#
# Mechanical properties :
#
#
# Convention : Reuss Voigt Hill
#
# Bulk Modulus (GPa) = 32.66531 35.73410 34.19970
# Shear Modulus (GPa) = 5.02717 10.67558 7.85137
#
# Velocity S-wave (km/s) = 1.54647 2.25359 1.93264
# Velocity P-wave (km/s) = 4.32764 4.87557 4.60975
#
# Compressibility (1/GPa) = 0.03061352
#
# Stress axis : x y z
#
# Youngs Moduli (GPa) = 36.28609 36.28609 55.73798
#
# Poissons Ratio (x) = 0.23097 0.41406
# Poissons Ratio (y) = 0.23097 0.41406
# Poissons Ratio (z) = 0.26956 0.26956
#
# Static dielectric constant tensor:
#      x y z
#    x 1.806100 0.000000 0.000000 
#    y 0.000000 1.806100 0.000000 
#    z 0.000000 0.000000 1.903790 
# 
# From -- ./inp_files/1439.got.cif
#   From: 2010.05.17/outbox.cif.g08.bks.cpg/sg170_cif.got.tgz:1439.got - 2010.05.20 11:14:30.
