data_PCOD9580011
_publ_section_title
;
Structure prediction by ZEFSAII (Michael W. Deem and Ramdas Pophale) SiO2 
 PCOD9580011
Probable space group: P 61
;
_chemical_formula_sum "Si O2"
_cell_formula_units_Z 36
_cell_length_a 14.327661
_cell_length_b 14.327661
_cell_length_c 10.466776
_cell_angle_alpha 90.000000
_cell_angle_beta 90.000000
_cell_angle_gamma 120.000000
_cell_volume 1860.776258
_symmetry_space_group_name_H-M "P 61"
_symmetry_group_IT_number 169
_symmetry_cell_setting 'hexagonal'
loop_
_space_group_symop_operation_xyz
x,y,z
x-y,x,1/6+z
-y,x-y,1/3+z
-x,-y,1/2+z
-x+y,-x,2/3+z
y,-x+y,5/6+z
loop_
_atom_site_type_symbol
_atom_site_label
_atom_site_fract_x
_atom_site_fract_y
_atom_site_fract_z
Si Si1 0.897034 0.102964 0.731200
Si Si2 0.282798 0.780627 0.583118
Si Si3 0.664330 0.667847 0.828460
Si Si4 0.332153 0.335669 0.633939
Si Si5 0.424833 0.575166 0.731199
Si Si6 0.282803 0.502177 0.212616
O O1 0.795867 0.072867 0.638077
O O2 0.927127 0.204133 0.824320
O O3 0.000000 0.134353 0.647868
O O4 0.220064 0.670807 0.498913
O O5 0.406935 0.813876 0.564532
O O6 0.245909 0.754088 0.731200
O O7 0.278957 0.885029 0.530472
O O8 0.540090 0.613145 0.792610
O O9 0.721039 0.606066 0.765267
O O10 0.665087 0.665090 0.981200
O O11 0.386858 0.459910 0.669787
O O12 0.450738 0.670806 0.630152
#
# Coordination Sequence:
#
# PCOD9580011 Si02
#       6
#     6   6   6   6   6   6
#     4  10  22  44  67  89 122 178 224 276 338 402
#     4  12  25  42  66 103 142 180 231 289 356 435
#     4  11  24  43  67  97 134 181 226 279 351 425
#     4  11  24  43  67  97 134 181 226 279 351 425
#     4  12  24  38  67  93 134 182 212 282 346 422
#     4  12  25  42  66 103 142 180 231 289 356 435
#
# _framework density 19.346765000000001
#
# number of rings (size 3 to 8) (size 9 to 14) (size 15 to 20)
#    0.000    0.667    3.333    6.000    2.333    0.000 
#    3.000    0.000    0.000    0.000    0.000    0.000 
#    0.000    0.000    0.000    0.000    0.000    0.000 
#
# Total GULP energy -200855.504886 kJ/mol
# GULP energy per Si atom -5579.319580 kJ/mol
# Density = 1.930273 g / cm^3
# Si number density = 19.346765 Si / 1000 Ang^3
#
#
#
# Elastic Constant Matrix: (Units=GPa)
#
#
# Indices 1 2 3 4 5 6 
#
# 1 500.5515 -266.6292 58.1205 0.0000 0.0000 0.0000
# 2 -266.6292 500.5515 58.1205 0.0000 0.0000 0.0000
# 3 58.1205 58.1205 122.3629 0.0000 0.0000 0.0000
# 4 0.0000 0.0000 0.0000 24.2198 0.0000 0.0000
# 5 0.0000 0.0000 0.0000 0.0000 24.2198 0.0000
# 6 0.0000 0.0000 0.0000 0.0000 0.0000 383.5903
#
#
#
# Elastic Compliance Matrix: (Units=1/GPa)
#
#
# Indices 1 2 3 4 5 6 
#
# 1 0.003450 0.002146 -0.002658 0.000000 0.000000 0.000000
# 2 0.002146 0.003450 -0.002658 0.000000 0.000000 0.000000
# 3 -0.002658 -0.002658 0.010697 0.000000 0.000000 0.000000
# 4 0.000000 0.000000 0.000000 0.041288 0.000000 0.000000
# 5 0.000000 0.000000 0.000000 0.000000 0.041288 0.000000
# 6 0.000000 0.000000 0.000000 0.000000 0.000000 0.002607
#
#
# Mechanical properties :
#
#
# Convention : Reuss Voigt Hill
#
# Bulk Modulus (GPa) = 88.83202 91.40996 90.12099
# Shear Modulus (GPa) = 44.29798 171.32959 107.81379
#
# Velocity S-wave (km/s) = 4.79026 9.42069 7.47315
# Velocity P-wave (km/s) = 8.75276 12.87181 11.00668
#
# Compressibility (1/GPa) = 0.01125720
#
# Stress axis : x y z
#
# Youngs Moduli (GPa) = 289.89093 289.89093 93.48157
#
# Poissons Ratio (x) = -0.62213 0.24846
# Poissons Ratio (y) = -0.62213 0.24846
# Poissons Ratio (z) = 0.77049 0.77049
#
# Static dielectric constant tensor:
#      x y z
#    x 1.789670 0.000000 0.000000 
#    y 0.000000 1.789670 0.000000 
#    z 0.000000 0.000000 1.580240 
# 
# From -- ./inp_files/622.got.cif
#   From: 2010.05.17/outbox.cif.g08.bks.cpg/sg169_cif.got.tgz:622.got - 2010.05.20 11:12:54.
