data_PCOD9580993
_publ_section_title
;
Structure prediction by ZEFSAII (Michael W. Deem and Ramdas Pophale) SiO2 
 PCOD9580993
Probable space group: P 64
;
_chemical_formula_sum "Si O2"
_cell_formula_units_Z 30
_cell_length_a 9.111826
_cell_length_b 9.111826
_cell_length_c 15.867364
_cell_angle_alpha 90.000000
_cell_angle_beta 90.000000
_cell_angle_gamma 120.000000
_cell_volume 1140.896511
_symmetry_space_group_name_H-M "P 64"
_symmetry_group_IT_number 172
_symmetry_cell_setting 'hexagonal'
loop_
_space_group_symop_operation_xyz
x,y,z
x-y,x,2/3+z
-y,x-y,1/3+z
-x,-y,z
-x+y,-x,2/3+z
y,-x+y,1/3+z
loop_
_atom_site_type_symbol
_atom_site_label
_atom_site_fract_x
_atom_site_fract_y
_atom_site_fract_z
Si Si1 0.243278 0.324208 0.229810
Si Si2 0.141978 0.693848 0.621253
Si Si3 0.033992 0.169273 0.743685
Si Si4 0.313072 0.911947 0.056933
Si Si5 0.370820 0.793507 0.778259
O O1 0.620195 0.739755 0.241174
O O2 0.113568 0.188011 0.162618
O O3 0.178274 0.347836 0.319088
O O4 0.271531 0.490317 0.178216
O O5 0.282678 0.707631 0.688885
O O6 0.000000 0.500000 0.592414
O O7 0.025219 0.734997 0.682203
O O8 0.229300 0.284499 0.762834
O O9 0.000000 0.000000 0.698559
O O10 0.283501 0.774652 0.127040
O O11 0.500000 0.000000 0.018971
O O12 0.500000 0.000000 0.775296
#
# Coordination Sequence:
#
# PCOD9580993 Si02
#       5
#     6   6   6   6   6
#     4  11  25  47  82 111 160 219 266 334 432 491
#     4  11  24  49  76 109 158 207 271 348 415 493
#     4  11  24  46  76 108 154 198 268 341 403 494
#     4  12  25  48  75 114 158 203 271 334 407 506
#     4  11  23  51  77 112 159 216 266 339 414 507
#
# _framework density 26.295110000000001
#
# number of rings (size 3 to 8) (size 9 to 14) (size 15 to 20)
#    0.000    0.800    4.000    3.000    2.800    0.800 
#   25.200    0.000    0.000    0.000    0.000    0.000 
#    0.000    0.000    0.000    0.000    0.000    0.000 
#
# Total GULP energy -167283.551126 kJ/mol
# GULP energy per Si atom -5576.118371 kJ/mol
# Density = 2.623526 g / cm^3
# Si number density = 26.295110 Si / 1000 Ang^3
#
#
#
# Elastic Constant Matrix: (Units=GPa)
#
#
# Indices 1 2 3 4 5 6 
#
# 1 179.7699 66.9352 43.8057 0.0000 0.0000 0.0000
# 2 66.9352 179.7699 43.8057 0.0000 0.0000 0.0000
# 3 43.8057 43.8057 91.5397 0.0000 0.0000 0.0000
# 4 0.0000 0.0000 0.0000 12.0349 0.0000 0.0000
# 5 0.0000 0.0000 0.0000 0.0000 12.0349 0.0000
# 6 0.0000 0.0000 0.0000 0.0000 0.0000 56.4173
#
#
#
# Elastic Compliance Matrix: (Units=1/GPa)
#
#
# Indices 1 2 3 4 5 6 
#
# 1 0.006873 -0.001990 -0.002337 0.000000 0.000000 0.000000
# 2 -0.001990 0.006873 -0.002337 0.000000 0.000000 0.000000
# 3 -0.002337 -0.002337 0.013161 0.000000 0.000000 0.000000
# 4 0.000000 0.000000 0.000000 0.083092 0.000000 0.000000
# 5 0.000000 0.000000 0.000000 0.000000 0.083092 0.000000
# 6 0.000000 0.000000 0.000000 0.000000 0.000000 0.017725
#
#
# Mechanical properties :
#
#
# Convention : Reuss Voigt Hill
#
# Bulk Modulus (GPa) = 73.63805 84.46363 79.05084
# Shear Modulus (GPa) = 21.86575 35.86630 28.86603
#
# Velocity S-wave (km/s) = 2.88679 3.69723 3.31686
# Velocity P-wave (km/s) = 6.25913 7.10051 6.69305
#
# Compressibility (1/GPa) = 0.01357994
#
# Stress axis : x y z
#
# Youngs Moduli (GPa) = 145.49869 145.49869 75.98318
#
# Poissons Ratio (x) = 0.28949 0.17756
# Poissons Ratio (y) = 0.28949 0.17756
# Poissons Ratio (z) = 0.34001 0.34001
#
# Static dielectric constant tensor:
#      x y z
#    x 2.179460 0.000000 0.000000 
#    y 0.000000 2.179460 0.000000 
#    z 0.000000 0.000000 2.067610 
# 
# From -- ./inp_files/2187.got.cif
#   From: 2010.05.17/outbox.cif.g08.bks.cpg/sg172_2_cif.got.tgz:2187.got - 2010.05.20 11:19:57.
