data_PCOD9580373
_publ_section_title
;
Structure prediction by ZEFSAII (Michael W. Deem and Ramdas Pophale) SiO2 
 PCOD9580373
Probable space group: P 65
;
_chemical_formula_sum "Si O2"
_cell_formula_units_Z 48
_cell_length_a 12.389097
_cell_length_b 12.389097
_cell_length_c 16.266960
_cell_angle_alpha 90.000000
_cell_angle_beta 90.000000
_cell_angle_gamma 120.000000
_cell_volume 2162.301935
_symmetry_space_group_name_H-M "P 65"
_symmetry_group_IT_number 170
_symmetry_cell_setting 'hexagonal'
loop_
_space_group_symop_operation_xyz
x,y,z
x-y,x,5/6+z
-y,x-y,2/3+z
-x,-y,1/2+z
-x+y,-x,1/3+z
y,-x+y,1/6+z
loop_
_atom_site_type_symbol
_atom_site_label
_atom_site_fract_x
_atom_site_fract_y
_atom_site_fract_z
Si Si1 0.530736 0.070663 0.595180
Si Si2 0.064150 0.674754 0.470890
Si Si3 0.566020 0.943590 0.337636
Si Si4 0.359526 0.552016 0.990281
Si Si5 0.186241 0.647313 0.608452
Si Si6 0.781145 0.549033 0.024270
Si Si7 0.110179 0.942078 0.232558
Si Si8 0.771750 0.578644 0.327037
O O1 0.534400 0.078009 0.497245
O O2 0.463117 0.146076 0.623535
O O3 0.671863 0.124755 0.626618
O O4 0.453920 0.935793 0.633282
O O5 0.166681 0.699798 0.401698
O O6 0.132757 0.721140 0.558711
O O7 0.979987 0.521490 0.481401
O O8 0.000010 0.750986 0.438863
O O9 0.575292 0.851381 0.272015
O O10 0.539257 0.869481 0.422813
O O11 0.700387 0.071659 0.340357
O O12 0.405917 0.695176 0.999954
O O13 0.275616 0.498510 0.910488
O O14 0.228852 0.584077 0.539531
O O15 0.098397 0.819272 0.188159
O O16 0.022661 0.911578 0.316417
#
# Coordination Sequence:
#
# PCOD9580373 Si02
#       8
#     6   6   6   6   6   6   6   6
#     4  12  23  41  62  99 138 176 232 280 357 435
#     4  11  24  44  69 106 144 184 232 304 372 440
#     4  11  24  40  68 102 142 182 235 294 362 436
#     4  12  23  40  66 100 135 180 227 287 359 433
#     4  11  24  39  66 100 139 186 224 280 365 441
#     4  11  22  41  62  95 137 179 226 288 350 423
#     4  12  27  49  81 107 143 197 266 319 374 445
#     4  12  23  42  70 103 136 184 238 296 353 437
#
# _framework density 22.198567000000001
#
# number of rings (size 3 to 8) (size 9 to 14) (size 15 to 20)
#    0.000    0.500    6.250    3.000    1.750    2.000 
#    0.000    0.000    8.250    0.000    0.000    0.000 
#    0.000    0.000    0.000    0.000    0.000    0.000 
#
# Total GULP energy -267623.548652 kJ/mol
# GULP energy per Si atom -5575.490597 kJ/mol
# Density = 2.214804 g / cm^3
# Si number density = 22.198567 Si / 1000 Ang^3
#
#
#
# Elastic Constant Matrix: (Units=GPa)
#
#
# Indices 1 2 3 4 5 6 
#
# 1 49.3409 20.7895 23.8226 0.0000 0.0000 0.0000
# 2 20.7895 49.3409 23.8226 0.0000 0.0000 0.0000
# 3 23.8226 23.8226 109.0116 0.0000 0.0000 0.0000
# 4 0.0000 0.0000 0.0000 30.2861 0.0000 0.0000
# 5 0.0000 0.0000 0.0000 0.0000 30.2861 0.0000
# 6 0.0000 0.0000 0.0000 0.0000 0.0000 14.2757
#
#
#
# Elastic Compliance Matrix: (Units=1/GPa)
#
#
# Indices 1 2 3 4 5 6 
#
# 1 0.025885 -0.009140 -0.003659 0.000000 0.000000 0.000000
# 2 -0.009140 0.025885 -0.003659 0.000000 0.000000 0.000000
# 3 -0.003659 -0.003659 0.010773 0.000000 0.000000 0.000000
# 4 0.000000 0.000000 0.000000 0.033018 0.000000 0.000000
# 5 0.000000 0.000000 0.000000 0.000000 0.033018 0.000000
# 6 0.000000 0.000000 0.000000 0.000000 0.000000 0.070049
#
#
# Mechanical properties :
#
#
# Convention : Reuss Voigt Hill
#
# Bulk Modulus (GPa) = 33.75446 38.28475 36.01961
# Shear Modulus (GPa) = 20.71075 24.25350 22.48213
#
# Velocity S-wave (km/s) = 3.05778 3.30899 3.18586
# Velocity P-wave (km/s) = 5.26359 5.64652 5.45841
#
# Compressibility (1/GPa) = 0.02962571
#
# Stress axis : x y z
#
# Youngs Moduli (GPa) = 38.63256 38.63256 92.82699
#
# Poissons Ratio (x) = 0.35309 0.33969
# Poissons Ratio (y) = 0.35309 0.33969
# Poissons Ratio (z) = 0.14137 0.14137
#
# Static dielectric constant tensor:
#      x y z
#    x 1.860360 0.000000 0.000000 
#    y 0.000000 1.860360 0.000000 
#    z 0.000000 0.000000 1.894020 
# 
# From -- ./inp_files/1457.got.cif
#   From: 2010.05.17/outbox.cif.g08.bks.cpg/sg170_cif.got.tgz:1457.got - 2010.05.20 11:14:30.
