data_PCOD9580385
_publ_section_title
;
Structure prediction by ZEFSAII (Michael W. Deem and Ramdas Pophale) SiO2 
 PCOD9580385
Probable space group: P 65
;
_chemical_formula_sum "Si O2"
_cell_formula_units_Z 42
_cell_length_a 8.103635
_cell_length_b 8.103635
_cell_length_c 29.853545
_cell_angle_alpha 90.000000
_cell_angle_beta 90.000000
_cell_angle_gamma 120.000000
_cell_volume 1697.799042
_symmetry_space_group_name_H-M "P 65"
_symmetry_group_IT_number 170
_symmetry_cell_setting 'hexagonal'
loop_
_space_group_symop_operation_xyz
x,y,z
x-y,x,5/6+z
-y,x-y,2/3+z
-x,-y,1/2+z
-x+y,-x,1/3+z
y,-x+y,1/6+z
loop_
_atom_site_type_symbol
_atom_site_label
_atom_site_fract_x
_atom_site_fract_y
_atom_site_fract_z
Si Si1 0.486352 0.320676 0.503440
Si Si2 0.618119 0.168554 0.901213
Si Si3 0.114463 0.144691 0.637009
Si Si4 0.101222 0.144086 0.218738
Si Si5 0.552014 0.402350 0.405492
Si Si6 0.570050 0.758092 0.197113
Si Si7 0.995742 0.445878 0.652022
O O1 0.646068 0.351798 0.538411
O O2 0.557175 0.449022 0.457985
O O3 0.329720 0.341281 0.531711
O O4 0.449588 0.124274 0.480099
O O5 0.766928 0.093590 0.892453
O O6 0.408052 0.016107 0.882866
O O7 0.584881 0.184569 0.954026
O O8 0.338485 0.225632 0.647178
O O9 0.090400 0.327806 0.634240
O O10 0.039253 0.023805 0.592576
O O11 0.985750 0.991769 0.675542
O O12 0.086416 0.336146 0.223322
O O13 0.680889 0.315006 0.387772
O O14 0.612828 0.570657 0.370340
#
# Coordination Sequence:
#
# PCOD9580385 Si02
#       7
#     6   6   6   6   6   6   6
#     4  12  25  49  78 109 155 207 259 325 401 476
#     4  11  25  49  72 114 153 201 256 330 391 482
#     4  12  25  45  79 106 147 202 257 313 398 468
#     4  11  24  46  72 103 152 196 253 316 396 468
#     4  11  26  48  72 108 156 192 265 317 396 479
#     4  11  23  48  72 111 142 202 253 309 391 472
#     4  12  26  49  71 113 153 198 263 328 389 487
#
# _framework density 24.737908999999998
#
# number of rings (size 3 to 8) (size 9 to 14) (size 15 to 20)
#    0.000    0.571    5.714    2.571    2.000    2.286 
#   12.857    0.000    0.000    0.000    0.000    0.000 
#    0.000    0.000    0.000    0.000    0.000    0.000 
#
# Total GULP energy -233978.629012 kJ/mol
# GULP energy per Si atom -5570.919738 kJ/mol
# Density = 2.468160 g / cm^3
# Si number density = 24.737909 Si / 1000 Ang^3
#
#
#
# Elastic Constant Matrix: (Units=GPa)
#
#
# Indices 1 2 3 4 5 6 
#
# 1 105.9919 41.4287 36.4492 0.0000 0.0000 0.0000
# 2 41.4287 105.9919 36.4492 0.0000 0.0000 0.0000
# 3 36.4492 36.4492 153.9830 0.0000 0.0000 0.0000
# 4 0.0000 0.0000 0.0000 35.8832 0.0000 0.0000
# 5 0.0000 0.0000 0.0000 0.0000 35.8832 0.0000
# 6 0.0000 0.0000 0.0000 0.0000 0.0000 32.2816
#
#
#
# Elastic Compliance Matrix: (Units=1/GPa)
#
#
# Indices 1 2 3 4 5 6 
#
# 1 0.011586 -0.003903 -0.001819 0.000000 0.000000 0.000000
# 2 -0.003903 0.011586 -0.001819 0.000000 0.000000 0.000000
# 3 -0.001819 -0.001819 0.007355 0.000000 0.000000 0.000000
# 4 0.000000 0.000000 0.000000 0.027868 0.000000 0.000000
# 5 0.000000 0.000000 0.000000 0.000000 0.027868 0.000000
# 6 0.000000 0.000000 0.000000 0.000000 0.000000 0.030977
#
#
# Mechanical properties :
#
#
# Convention : Reuss Voigt Hill
#
# Bulk Modulus (GPa) = 64.74109 66.06901 65.40505
# Shear Modulus (GPa) = 36.37175 37.58555 36.97865
#
# Velocity S-wave (km/s) = 3.83859 3.90211 3.87048
# Velocity P-wave (km/s) = 6.77303 6.86058 6.81695
#
# Compressibility (1/GPa) = 0.01544614
#
# Stress axis : x y z
#
# Youngs Moduli (GPa) = 86.31374 86.31374 135.95913
#
# Poissons Ratio (x) = 0.33689 0.24725
# Poissons Ratio (y) = 0.33689 0.24725
# Poissons Ratio (z) = 0.15696 0.15696
#
# Static dielectric constant tensor:
#      x y z
#    x 2.010810 0.000000 0.000000 
#    y 0.000000 2.010810 0.000000 
#    z 0.000000 0.000000 2.007860 
# 
# From -- ./inp_files/1928.got.cif
#   From: 2010.05.17/outbox.cif.g08.bks.cpg/sg170_cif.got.tgz:1928.got - 2010.05.20 11:14:30.
