data_PCOD9580968
_publ_section_title
;
Structure prediction by ZEFSAII (Michael W. Deem and Ramdas Pophale) SiO2 
 PCOD9580968
Probable space group: P 64
;
_chemical_formula_sum "Si O2"
_cell_formula_units_Z 45
_cell_length_a 11.290302
_cell_length_b 11.290302
_cell_length_c 19.157891
_cell_angle_alpha 90.000000
_cell_angle_beta 90.000000
_cell_angle_gamma 120.000000
_cell_volume 2114.898102
_symmetry_space_group_name_H-M "P 64"
_symmetry_group_IT_number 172
_symmetry_cell_setting 'hexagonal'
loop_
_space_group_symop_operation_xyz
x,y,z
x-y,x,2/3+z
-y,x-y,1/3+z
-x,-y,z
-x+y,-x,2/3+z
y,-x+y,1/3+z
loop_
_atom_site_type_symbol
_atom_site_label
_atom_site_fract_x
_atom_site_fract_y
_atom_site_fract_z
Si Si1 0.231372 0.194483 0.174410
Si Si2 0.753449 0.505427 0.775285
Si Si3 0.310536 0.667971 0.579826
Si Si4 0.765156 0.505766 0.049999
Si Si5 0.163635 0.224069 0.984711
Si Si6 0.117267 0.400586 0.192264
Si Si7 0.000000 0.000000 0.080687
Si Si8 0.133472 0.748416 0.299693
O O1 0.372341 0.271788 0.133047
O O2 0.253329 0.140393 0.246766
O O3 0.159637 0.284144 0.186657
O O4 0.130973 0.060754 0.129597
O O5 0.673588 0.449923 0.848055
O O6 0.761681 0.375741 0.747829
O O7 0.698848 0.564196 0.713237
O O8 0.329587 0.772118 0.642336
O O9 0.462403 0.703318 0.558158
O O10 0.237576 0.511390 0.604632
O O11 0.881266 0.555184 0.110568
O O12 0.755155 0.637021 0.027377
O O13 0.251830 0.150139 0.972332
O O14 0.030905 0.124670 0.030420
O O15 0.986810 0.344067 0.244440
#
# Coordination Sequence:
#
# PCOD9580968 Si02
#       8
#     6   6   6   6   6   6   3   6
#     4  12  24  41  67 100 135 172 222 275 338 410
#     4  10  22  44  70  97 134 180 234 282 337 407
#     4  10  23  44  70  99 130 180 238 272 334 413
#     4  10  22  44  70  97 134 180 234 282 337 407
#     4  12  24  41  67 100 135 172 222 275 338 410
#     4  11  23  44  70  96 138 180 219 287 344 401
#     4  12  22  40  62  98 132 176 210 274 340 408
#     4  11  23  44  70  96 138 180 219 287 344 401
#
# _framework density 21.277622000000001
#
# number of rings (size 3 to 8) (size 9 to 14) (size 15 to 20)
#    0.000    1.067    4.000    2.400    0.000    7.467 
#    0.000   13.333    0.000    0.000    0.000    0.000 
#    0.000    0.000    0.000    0.000    0.000    0.000 
#
# Total GULP energy -250894.456670 kJ/mol
# GULP energy per Si atom -5575.432370 kJ/mol
# Density = 2.122919 g / cm^3
# Si number density = 21.277622 Si / 1000 Ang^3
#
#
#
# Elastic Constant Matrix: (Units=GPa)
#
#
# Indices 1 2 3 4 5 6 
#
# 1 48.9586 10.8367 28.0155 0.0000 0.0000 0.0000
# 2 10.8367 48.9586 28.0155 0.0000 0.0000 0.0000
# 3 28.0155 28.0155 155.1030 0.0000 0.0000 0.0000
# 4 0.0000 0.0000 0.0000 29.6024 0.0000 0.0000
# 5 0.0000 0.0000 0.0000 0.0000 29.6024 0.0000
# 6 0.0000 0.0000 0.0000 0.0000 0.0000 19.0609
#
#
#
# Elastic Compliance Matrix: (Units=1/GPa)
#
#
# Indices 1 2 3 4 5 6 
#
# 1 0.023181 -0.003050 -0.003636 0.000000 0.000000 0.000000
# 2 -0.003050 0.023181 -0.003636 0.000000 0.000000 0.000000
# 3 -0.003636 -0.003636 0.007761 0.000000 0.000000 0.000000
# 4 0.000000 0.000000 0.000000 0.033781 0.000000 0.000000
# 5 0.000000 0.000000 0.000000 0.000000 0.033781 0.000000
# 6 0.000000 0.000000 0.000000 0.000000 0.000000 0.052463
#
#
# Mechanical properties :
#
#
# Convention : Reuss Voigt Hill
#
# Bulk Modulus (GPa) = 29.87019 42.97285 36.42152
# Shear Modulus (GPa) = 24.27733 28.06334 26.17033
#
# Velocity S-wave (km/s) = 3.38150 3.63562 3.51086
# Velocity P-wave (km/s) = 5.41432 6.15336 5.79563
#
# Compressibility (1/GPa) = 0.03347819
#
# Stress axis : x y z
#
# Youngs Moduli (GPa) = 43.13821 43.13821 128.85122
#
# Poissons Ratio (x) = 0.13159 0.46852
# Poissons Ratio (y) = 0.13159 0.46852
# Poissons Ratio (z) = 0.15686 0.15686
#
# Static dielectric constant tensor:
#      x y z
#    x 1.764860 0.000000 0.000000 
#    y 0.000000 1.764860 0.000000 
#    z 0.000000 0.000000 1.910160 
# 
# From -- ./inp_files/1706.got.cif
#   From: 2010.05.17/outbox.cif.g08.bks.cpg/sg172_1_cif.got.tgz:1706.got - 2010.05.20 11:19:57.
