data_PCOD9580814
_publ_section_title
;
Structure prediction by ZEFSAII (Michael W. Deem and Ramdas Pophale) SiO2 
 PCOD9580814
Probable space group: P 62
;
_chemical_formula_sum "Si O2"
_cell_formula_units_Z 33
_cell_length_a 16.038978
_cell_length_b 16.038978
_cell_length_c 7.184219
_cell_angle_alpha 90.000000
_cell_angle_beta 90.000000
_cell_angle_gamma 120.000000
_cell_volume 1600.529111
_symmetry_space_group_name_H-M "P 62"
_symmetry_group_IT_number 171
_symmetry_cell_setting 'hexagonal'
loop_
_space_group_symop_operation_xyz
x,y,z
x-y,x,1/3+z
-y,x-y,2/3+z
-x,-y,z
-x+y,-x,1/3+z
y,-x+y,2/3+z
loop_
_atom_site_type_symbol
_atom_site_label
_atom_site_fract_x
_atom_site_fract_y
_atom_site_fract_z
Si Si1 0.981667 0.679027 0.203550
Si Si2 0.368364 0.151153 0.804287
Si Si3 0.573000 0.870320 0.218243
Si Si4 0.683170 0.413723 0.032051
Si Si5 0.130931 0.475408 0.511378
Si Si6 0.000000 0.500000 0.785901
O O1 0.896596 0.696621 0.147810
O O2 0.920093 0.577452 0.317037
O O3 0.054646 0.743846 0.358833
O O4 0.050235 0.696561 0.028120
O O5 0.471486 0.226094 0.707321
O O6 0.391731 0.126454 0.007269
O O7 0.546898 0.759911 0.255462
O O8 0.494466 0.906689 0.218832
O O9 0.715494 0.352925 0.165012
O O10 0.587859 0.401351 0.132401
O O11 0.048641 0.453444 0.659652
#
# Coordination Sequence:
#
# PCOD9580814 Si02
#       6
#     6   6   6   6   6   3
#     4  11  25  43  69  94 132 181 227 288 363 417
#     4  11  25  46  63 101 136 173 236 295 341 427
#     4  11  25  40  67  96 134 187 230 285 347 418
#     4  12  24  40  63  94 141 196 236 281 326 405
#     4  11  22  46  62  99 144 178 241 291 336 416
#     4  12  22  42  68  94 146 188 232 300 346 408
#
# _framework density 20.618181
#
# number of rings (size 3 to 8) (size 9 to 14) (size 15 to 20)
#    0.000    0.727    7.273    0.000    5.091    3.636 
#    0.000    0.000    0.000    0.000    0.000   25.455 
#    0.000    0.000    0.000    0.000    0.000    0.000 
#
# Total GULP energy -183964.785592 kJ/mol
# GULP energy per Si atom -5574.690472 kJ/mol
# Density = 2.057125 g / cm^3
# Si number density = 20.618181 Si / 1000 Ang^3
#
#
#
# Elastic Constant Matrix: (Units=GPa)
#
#
# Indices 1 2 3 4 5 6 
#
# 1 -43.1279 199.5738 38.1092 0.0000 0.0000 0.0000
# 2 199.5738 -43.1279 38.1092 0.0000 0.0000 0.0000
# 3 38.1092 38.1092 64.7110 0.0000 0.0000 0.0000
# 4 0.0000 0.0000 0.0000 8.7528 0.0000 0.0000
# 5 0.0000 0.0000 0.0000 0.0000 8.7528 0.0000
# 6 0.0000 0.0000 0.0000 0.0000 0.0000 -121.3508
#
#
#
# Elastic Compliance Matrix: (Units=1/GPa)
#
#
# Indices 1 2 3 4 5 6 
#
# 1 0.002422 0.006542 -0.005279 0.000000 0.000000 0.000000
# 2 0.006542 0.002422 -0.005279 0.000000 0.000000 0.000000
# 3 -0.005279 -0.005279 0.021671 0.000000 0.000000 0.000000
# 4 0.000000 0.000000 0.000000 0.114250 0.000000 0.000000
# 5 0.000000 0.000000 0.000000 0.000000 0.114250 0.000000
# 6 0.000000 0.000000 0.000000 0.000000 0.000000 -0.008241
#
#
# Mechanical properties :
#
#
# Convention : Reuss Voigt Hill
#
# Bulk Modulus (GPa) = 54.10394 58.89329 56.49861
# Shear Modulus (GPa) = 19.15958 -40.59153 -10.71598
#
# Velocity S-wave (km/s) = 3.05168 -4.44185 -2.28224
# Velocity P-wave (km/s) = 6.22213 1.52286 4.52957
#
# Compressibility (1/GPa) = 0.01848294
#
# Stress axis : x y z
#
# Youngs Moduli (GPa) = 412.92230 412.92230 46.14462
#
# Poissons Ratio (x) = -2.70136 0.24359
# Poissons Ratio (y) = -2.70136 0.24359
# Poissons Ratio (z) = 2.17978 2.17978
#
# Static dielectric constant tensor:
#      x y z
#    x 1.771420 0.000000 0.000000 
#    y 0.000000 1.771420 0.000000 
#    z 0.000000 0.000000 1.821170 
# 
# From -- ./inp_files/663.got.cif
#   From: 2010.05.17/outbox.cif.g08.bks.cpg/sg171_1_cif.got.tgz:663.got - 2010.05.20 11:16:09.
