data_PCOD9580003
_publ_section_title
;
Structure prediction by ZEFSAII (Michael W. Deem and Ramdas Pophale) SiO2 
 PCOD9580003
Probable space group: P 61
;
_chemical_formula_sum "Si O2"
_cell_formula_units_Z 42
_cell_length_a 19.749777
_cell_length_b 19.749777
_cell_length_c 5.699485
_cell_angle_alpha 90.000000
_cell_angle_beta 90.000000
_cell_angle_gamma 120.000000
_cell_volume 1925.265547
_symmetry_space_group_name_H-M "P 61"
_symmetry_group_IT_number 169
_symmetry_cell_setting 'hexagonal'
loop_
_space_group_symop_operation_xyz
x,y,z
x-y,x,1/6+z
-y,x-y,1/3+z
-x,-y,1/2+z
-x+y,-x,2/3+z
y,-x+y,5/6+z
loop_
_atom_site_type_symbol
_atom_site_label
_atom_site_fract_x
_atom_site_fract_y
_atom_site_fract_z
Si Si1 0.720340 0.311881 0.550840
Si Si2 0.742955 0.066841 0.609782
Si Si3 0.407113 0.410420 0.057076
Si Si4 0.312758 0.826494 0.380071
Si Si5 0.583446 0.856145 0.207894
Si Si6 0.674186 0.892724 0.711132
Si Si7 0.570345 0.464164 0.871643
O O1 0.705328 0.380304 0.643854
O O2 0.683242 0.229734 0.683259
O O3 0.812637 0.351459 0.580203
O O4 0.710754 0.112022 0.774679
O O5 0.832102 0.126091 0.549060
O O6 0.683098 0.041869 0.388920
O O7 0.730297 0.985705 0.709023
O O8 0.365505 0.444619 0.886969
O O9 0.497675 0.438601 0.040142
O O10 0.402059 0.447520 0.301474
O O11 0.237615 0.765142 0.535448
O O12 0.396311 0.869976 0.506247
O O13 0.628795 0.872584 0.458387
O O14 0.628945 0.874225 0.960972
#
# Coordination Sequence:
#
# PCOD9580003 Si02
#       7
#     6   6   6   6   6   6   6
#     4  12  27  45  63  93 131 186 240 279 351 417
#     4  10  22  43  69 101 135 177 226 283 351 414
#     4  11  25  40  66  96 136 170 235 288 361 397
#     4  11  24  41  69  88 135 176 235 286 347 403
#     4  10  24  41  69  93 134 176 229 280 349 403
#     4  10  22  42  69 103 133 173 218 278 341 424
#     4  12  26  40  65  92 136 176 235 296 350 414
#
# _framework density 21.815173999999999
#
# number of rings (size 3 to 8) (size 9 to 14) (size 15 to 20)
#    0.000    1.143    1.429    3.429   14.000    3.429 
#    0.000    0.000    0.000    0.000    0.000    8.000 
#    0.000    0.000    0.000    0.000    0.000    0.000 
#
# Total GULP energy -234253.421648 kJ/mol
# GULP energy per Si atom -5577.462420 kJ/mol
# Density = 2.176552 g / cm^3
# Si number density = 21.815174 Si / 1000 Ang^3
#
#
#
# Elastic Constant Matrix: (Units=GPa)
#
#
# Indices 1 2 3 4 5 6 
#
# 1 120.9372 38.0171 28.1646 0.0000 0.0000 0.0000
# 2 38.0171 120.9372 28.1646 0.0000 0.0000 0.0000
# 3 28.1646 28.1646 72.2165 0.0000 0.0000 0.0000
# 4 0.0000 0.0000 0.0000 33.8161 0.0000 0.0000
# 5 0.0000 0.0000 0.0000 0.0000 33.8161 0.0000
# 6 0.0000 0.0000 0.0000 0.0000 0.0000 41.4600
#
#
#
# Elastic Compliance Matrix: (Units=1/GPa)
#
#
# Indices 1 2 3 4 5 6 
#
# 1 0.009680 -0.002380 -0.002847 0.000000 0.000000 0.000000
# 2 -0.002380 0.009680 -0.002847 0.000000 0.000000 0.000000
# 3 -0.002847 -0.002847 0.016068 0.000000 0.000000 0.000000
# 4 0.000000 0.000000 0.000000 0.029572 0.000000 0.000000
# 5 0.000000 0.000000 0.000000 0.000000 0.029572 0.000000
# 6 0.000000 0.000000 0.000000 0.000000 0.000000 0.024120
#
#
# Mechanical properties :
#
#
# Convention : Reuss Voigt Hill
#
# Bulk Modulus (GPa) = 51.86753 55.86485 53.86619
# Shear Modulus (GPa) = 35.39439 36.46809 35.93124
#
# Velocity S-wave (km/s) = 4.03236 4.09306 4.06282
# Velocity P-wave (km/s) = 6.74591 6.92830 6.83772
#
# Compressibility (1/GPa) = 0.01927988
#
# Stress axis : x y z
#
# Youngs Moduli (GPa) = 103.30665 103.30665 62.23574
#
# Poissons Ratio (x) = 0.24586 0.17719
# Poissons Ratio (y) = 0.24586 0.17719
# Poissons Ratio (z) = 0.29412 0.29412
#
# Static dielectric constant tensor:
#      x y z
#    x 1.853950 0.000000 0.000000 
#    y 0.000000 1.853950 0.000000 
#    z 0.000000 0.000000 1.964350 
# 
# From -- ./inp_files/305.got.cif
#   From: 2010.05.17/outbox.cif.g08.bks.cpg/sg169_cif.got.tgz:305.got - 2010.05.20 11:12:54.
