data_PCOD9580512
_publ_section_title
;
Structure prediction by ZEFSAII (Michael W. Deem and Ramdas Pophale) SiO2 
 PCOD9580512
Probable space group: P 62
;
_chemical_formula_sum "Si O2"
_cell_formula_units_Z 36
_cell_length_a 13.248342
_cell_length_b 13.248342
_cell_length_c 12.246052
_cell_angle_alpha 90.000000
_cell_angle_beta 90.000000
_cell_angle_gamma 120.000000
_cell_volume 1861.443216
_symmetry_space_group_name_H-M "P 62"
_symmetry_group_IT_number 171
_symmetry_cell_setting 'hexagonal'
loop_
_space_group_symop_operation_xyz
x,y,z
x-y,x,1/3+z
-y,x-y,2/3+z
-x,-y,z
-x+y,-x,1/3+z
y,-x+y,2/3+z
loop_
_atom_site_type_symbol
_atom_site_label
_atom_site_fract_x
_atom_site_fract_y
_atom_site_fract_z
Si Si1 0.211814 0.469363 0.775200
Si Si2 0.085635 0.813884 0.273179
Si Si3 0.129904 0.608054 0.917135
Si Si4 0.298960 0.342157 0.388854
Si Si5 0.706852 0.882726 0.857611
Si Si6 0.959514 0.089575 0.835202
O O1 0.208563 0.369821 0.852498
O O2 0.206537 0.561815 0.856134
O O3 0.314990 0.510685 0.688542
O O4 0.086550 0.407921 0.714148
O O5 0.121453 0.801667 0.395832
O O6 0.951218 0.736716 0.235019
O O7 0.115348 0.948198 0.261197
O O8 0.104487 0.680060 0.825441
O O9 0.000000 0.500000 0.945279
O O10 0.271126 0.382424 0.275147
O O11 0.184283 0.219776 0.418744
O O12 0.826388 0.007230 0.866131
O O13 0.000000 0.000000 0.793150
#
# Coordination Sequence:
#
# PCOD9580512 Si02
#       6
#     6   6   6   6   6   6
#     4  10  23  43  67  86 117 162 216 260 310 369
#     4  10  23  31  55  88 128 165 200 241 307 387
#     4  10  23  45  69  92 116 167 216 266 312 370
#     4  10  20  36  63  89 129 162 203 253 310 384
#     4  11  20  32  51  93 132 165 195 242 306 381
#     4   9  19  29  46  85 131 173 194 228 297 389
#
# _framework density 19.339831
#
# number of rings (size 3 to 8) (size 9 to 14) (size 15 to 20)
#    0.000    2.000    1.667    1.000   14.000    0.000 
#    3.000    0.000    0.000    0.000    0.000    0.000 
#    0.000    0.000    0.000    0.000    0.000    0.000 
#
# Total GULP energy -200781.193634 kJ/mol
# GULP energy per Si atom -5577.255379 kJ/mol
# Density = 1.929581 g / cm^3
# Si number density = 19.339831 Si / 1000 Ang^3
#
#
#
# Elastic Constant Matrix: (Units=GPa)
#
#
# Indices 1 2 3 4 5 6 
#
# 1 59.9596 27.9761 46.9309 0.0000 0.0000 0.0000
# 2 27.9761 59.9596 46.9309 0.0000 0.0000 0.0000
# 3 46.9309 46.9309 139.2737 0.0000 0.0000 0.0000
# 4 0.0000 0.0000 0.0000 13.9762 0.0000 0.0000
# 5 0.0000 0.0000 0.0000 0.0000 13.9762 0.0000
# 6 0.0000 0.0000 0.0000 0.0000 0.0000 15.9918
#
#
#
# Elastic Compliance Matrix: (Units=1/GPa)
#
#
# Indices 1 2 3 4 5 6 
#
# 1 0.024513 -0.006753 -0.005984 0.000000 0.000000 0.000000
# 2 -0.006753 0.024513 -0.005984 0.000000 0.000000 0.000000
# 3 -0.005984 -0.005984 0.011213 0.000000 0.000000 0.000000
# 4 0.000000 0.000000 0.000000 0.071550 0.000000 0.000000
# 5 0.000000 0.000000 0.000000 0.000000 0.071550 0.000000
# 6 0.000000 0.000000 0.000000 0.000000 0.000000 0.062532
#
#
# Mechanical properties :
#
#
# Convention : Reuss Voigt Hill
#
# Bulk Modulus (GPa) = 43.86963 55.87430 49.87197
# Shear Modulus (GPa) = 16.08162 17.94584 17.01373
#
# Velocity S-wave (km/s) = 2.88675 3.04948 2.96923
# Velocity P-wave (km/s) = 5.81755 6.43060 6.13174
#
# Compressibility (1/GPa) = 0.02279481
#
# Stress axis : x y z
#
# Youngs Moduli (GPa) = 40.79484 40.79484 89.18007
#
# Poissons Ratio (x) = 0.27550 0.53370
# Poissons Ratio (y) = 0.27550 0.53370
# Poissons Ratio (z) = 0.24414 0.24414
#
# Static dielectric constant tensor:
#      x y z
#    x 1.696260 0.000000 0.000000 
#    y 0.000000 1.696260 0.000000 
#    z 0.000000 0.000000 1.753510 
# 
# From -- ./inp_files/1926.got.cif
#   From: 2010.05.17/outbox.cif.g08.bks.cpg/sg171_1_cif.got.tgz:1926.got - 2010.05.20 11:16:09.
