data_PCOD9580095
_publ_section_title
;
Structure prediction by ZEFSAII (Michael W. Deem and Ramdas Pophale) SiO2 
 PCOD9580095
Probable space group: P 61
;
_chemical_formula_sum "Si O2"
_cell_formula_units_Z 24
_cell_length_a 9.609549
_cell_length_b 9.609549
_cell_length_c 13.700595
_cell_angle_alpha 90.000000
_cell_angle_beta 90.000000
_cell_angle_gamma 120.000000
_cell_volume 1095.660667
_symmetry_space_group_name_H-M "P 61"
_symmetry_group_IT_number 169
_symmetry_cell_setting 'hexagonal'
loop_
_space_group_symop_operation_xyz
x,y,z
x-y,x,1/6+z
-y,x-y,1/3+z
-x,-y,1/2+z
-x+y,-x,2/3+z
y,-x+y,5/6+z
loop_
_atom_site_type_symbol
_atom_site_label
_atom_site_fract_x
_atom_site_fract_y
_atom_site_fract_z
Si Si1 0.245272 0.112825 0.332880
Si Si2 0.568807 0.540757 0.127766
Si Si3 0.936506 0.468596 0.999712
Si Si4 0.360289 0.616090 0.255719
O O1 0.139862 0.147816 0.408416
O O2 0.327566 0.024281 0.389091
O O3 0.392206 0.288328 0.305439
O O4 0.640097 0.551498 0.237678
O O5 0.418262 0.559354 0.159777
O O6 0.539367 0.369233 0.091967
O O7 0.128726 0.565814 0.011336
O O8 0.809118 0.365794 0.081565
#
# Coordination Sequence:
#
# PCOD9580095 Si02
#       4
#     6   6   6   6
#     4  11  22  38  66  93 134 188 230 289 348 418
#     4   9  19  35  59  94 122 170 218 284 333 410
#     4   9  19  35  59  94 122 170 218 284 333 410
#     4   9  18  34  58  89 126 152 222 271 334 396
#
# _framework density 21.904589000000001
#
# number of rings (size 3 to 8) (size 9 to 14) (size 15 to 20)
#    1.500    1.000    0.000    3.000    0.000    0.000 
#    0.000    0.000    5.500    6.000    0.000    0.000 
#    0.000    0.000    0.000    0.000    0.000    0.000 
#
# Total GULP energy -133669.879098 kJ/mol
# GULP energy per Si atom -5569.578296 kJ/mol
# Density = 2.185473 g / cm^3
# Si number density = 21.904589 Si / 1000 Ang^3
#
#
#
# Elastic Constant Matrix: (Units=GPa)
#
#
# Indices 1 2 3 4 5 6 
#
# 1 102.2279 48.1369 16.1734 0.0000 0.0000 0.0000
# 2 48.1369 102.2279 16.1734 0.0000 0.0000 0.0000
# 3 16.1734 16.1734 60.4568 0.0000 0.0000 0.0000
# 4 0.0000 0.0000 0.0000 42.4972 0.0000 0.0000
# 5 0.0000 0.0000 0.0000 0.0000 42.4972 0.0000
# 6 0.0000 0.0000 0.0000 0.0000 0.0000 27.0455
#
#
#
# Elastic Compliance Matrix: (Units=1/GPa)
#
#
# Indices 1 2 3 4 5 6 
#
# 1 0.012772 -0.005715 -0.001888 0.000000 0.000000 0.000000
# 2 -0.005715 0.012772 -0.001888 0.000000 0.000000 0.000000
# 3 -0.001888 -0.001888 0.017551 0.000000 0.000000 0.000000
# 4 0.000000 0.000000 0.000000 0.023531 0.000000 0.000000
# 5 0.000000 0.000000 0.000000 0.000000 0.023531 0.000000
# 6 0.000000 0.000000 0.000000 0.000000 0.000000 0.036975
#
#
# Mechanical properties :
#
#
# Convention : Reuss Voigt Hill
#
# Bulk Modulus (GPa) = 41.47169 47.32002 44.39585
# Shear Modulus (GPa) = 32.43575 34.70323 33.56949
#
# Velocity S-wave (km/s) = 3.85226 3.98463 3.91900
# Velocity P-wave (km/s) = 6.22579 6.54365 6.38670
#
# Compressibility (1/GPa) = 0.02411283
#
# Stress axis : x y z
#
# Youngs Moduli (GPa) = 78.29639 78.29639 56.97758
#
# Poissons Ratio (x) = 0.44749 0.10756
# Poissons Ratio (y) = 0.44749 0.10756
# Poissons Ratio (z) = 0.14781 0.14781
#
# Static dielectric constant tensor:
#      x y z
#    x 1.812050 0.000000 0.000000 
#    y 0.000000 1.812050 0.000000 
#    z 0.000000 0.000000 1.896820 
# 
# From -- ./inp_files/1467.got.cif
#   From: 2010.05.17/outbox.cif.g08.bks.cpg/sg169_cif.got.tgz:1467.got - 2010.05.20 11:12:54.
