data_PCOD9580378
_publ_section_title
;
Structure prediction by ZEFSAII (Michael W. Deem and Ramdas Pophale) SiO2 
 PCOD9580378
Probable space group: P 65
;
_chemical_formula_sum "Si O2"
_cell_formula_units_Z 24
_cell_length_a 11.203046
_cell_length_b 11.203046
_cell_length_c 9.703699
_cell_angle_alpha 90.000000
_cell_angle_beta 90.000000
_cell_angle_gamma 120.000000
_cell_volume 1054.727299
_symmetry_space_group_name_H-M "P 65"
_symmetry_group_IT_number 170
_symmetry_cell_setting 'hexagonal'
loop_
_space_group_symop_operation_xyz
x,y,z
x-y,x,5/6+z
-y,x-y,2/3+z
-x,-y,1/2+z
-x+y,-x,1/3+z
y,-x+y,1/6+z
loop_
_atom_site_type_symbol
_atom_site_label
_atom_site_fract_x
_atom_site_fract_y
_atom_site_fract_z
Si Si1 0.310327 0.490598 0.683710
Si Si2 0.382867 0.376009 0.917636
Si Si3 0.570728 0.777011 0.790327
Si Si4 0.407252 0.074809 0.560588
O O1 0.346437 0.385092 0.760321
O O2 0.438175 0.644616 0.717951
O O3 0.271293 0.441026 0.526924
O O4 0.169814 0.455023 0.760560
O O5 0.509865 0.527160 0.946064
O O6 0.264739 0.357937 0.020273
O O7 0.684548 0.736310 0.839642
O O8 0.526989 0.830044 0.926198
#
# Coordination Sequence:
#
# PCOD9580378 Si02
#       4
#     6   6   6   6
#     4  11  24  42  69 103 140 180 238 286 362 431
#     4  11  23  40  67  98 141 185 227 297 355 423
#     4  11  25  45  67 105 145 184 238 296 361 436
#     4  11  24  41  69  98 140 185 233 295 362 420
#
# _framework density 22.754698999999999
#
# number of rings (size 3 to 8) (size 9 to 14) (size 15 to 20)
#    0.000    1.000    0.000    7.500   10.500    0.000 
#    4.500    0.000    0.000   15.000    0.000    0.000 
#    0.000    0.000    0.000    0.000    0.000    0.000 
#
# Total GULP energy -133638.604889 kJ/mol
# GULP energy per Si atom -5568.275204 kJ/mol
# Density = 2.270291 g / cm^3
# Si number density = 22.754699 Si / 1000 Ang^3
#
#
#
# Elastic Constant Matrix: (Units=GPa)
#
#
# Indices 1 2 3 4 5 6 
#
# 1 76.9192 31.1030 48.6345 0.0000 0.0000 0.0000
# 2 31.1030 76.9192 48.6345 0.0000 0.0000 0.0000
# 3 48.6345 48.6345 183.5382 0.0000 0.0000 0.0000
# 4 0.0000 0.0000 0.0000 39.9432 0.0000 0.0000
# 5 0.0000 0.0000 0.0000 0.0000 39.9432 0.0000
# 6 0.0000 0.0000 0.0000 0.0000 0.0000 22.9081
#
#
#
# Elastic Compliance Matrix: (Units=1/GPa)
#
#
# Indices 1 2 3 4 5 6 
#
# 1 0.016992 -0.004834 -0.003222 0.000000 0.000000 0.000000
# 2 -0.004834 0.016992 -0.003222 0.000000 0.000000 0.000000
# 3 -0.003222 -0.003222 0.007156 0.000000 0.000000 0.000000
# 4 0.000000 0.000000 0.000000 0.025036 0.000000 0.000000
# 5 0.000000 0.000000 0.000000 0.000000 0.025036 0.000000
# 6 0.000000 0.000000 0.000000 0.000000 0.000000 0.043653
#
#
# Mechanical properties :
#
#
# Convention : Reuss Voigt Hill
#
# Bulk Modulus (GPa) = 53.80499 66.01339 59.90919
# Shear Modulus (GPa) = 30.55960 34.49253 32.52606
#
# Velocity S-wave (km/s) = 3.66867 3.89761 3.78487
# Velocity P-wave (km/s) = 6.45310 7.02346 6.74431
#
# Compressibility (1/GPa) = 0.01858564
#
# Stress axis : x y z
#
# Youngs Moduli (GPa) = 58.84990 58.84990 139.74501
#
# Poissons Ratio (x) = 0.28448 0.45023
# Poissons Ratio (y) = 0.28448 0.45023
# Poissons Ratio (z) = 0.18960 0.18960
#
# Static dielectric constant tensor:
#      x y z
#    x 1.963510 0.000000 0.000000 
#    y 0.000000 1.963510 0.000000 
#    z 0.000000 0.000000 2.009120 
# 
# From -- ./inp_files/837.got.cif
#   From: 2010.05.17/outbox.cif.g08.bks.cpg/sg170_cif.got.tgz:837.got - 2010.05.20 11:14:30.
