data_PCOD9580591
_publ_section_title
;
Structure prediction by ZEFSAII (Michael W. Deem and Ramdas Pophale) SiO2 
 PCOD9580591
Probable space group: P 62
;
_chemical_formula_sum "Si O2"
_cell_formula_units_Z 36
_cell_length_a 8.531050
_cell_length_b 8.531050
_cell_length_c 28.327430
_cell_angle_alpha 90.000000
_cell_angle_beta 90.000000
_cell_angle_gamma 120.000000
_cell_volume 1785.429809
_symmetry_space_group_name_H-M "P 62"
_symmetry_group_IT_number 171
_symmetry_cell_setting 'hexagonal'
loop_
_space_group_symop_operation_xyz
x,y,z
x-y,x,1/3+z
-y,x-y,2/3+z
-x,-y,z
-x+y,-x,1/3+z
y,-x+y,2/3+z
loop_
_atom_site_type_symbol
_atom_site_label
_atom_site_fract_x
_atom_site_fract_y
_atom_site_fract_z
Si Si1 0.660680 0.707157 0.728290
Si Si2 0.201687 0.172873 0.829270
Si Si3 0.064865 0.361620 0.885775
Si Si4 0.314830 0.508469 0.978438
Si Si5 0.999138 0.683585 0.572253
Si Si6 0.687926 0.122110 0.006994
O O1 0.500000 0.500000 0.732879
O O2 0.705743 0.798482 0.779112
O O3 0.604283 0.811343 0.691123
O O4 0.819306 0.682461 0.704983
O O5 0.174208 0.338823 0.843366
O O6 0.306751 0.148748 0.873526
O O7 0.000000 0.000000 0.826463
O O8 0.187907 0.421757 0.932656
O O9 0.000000 0.500000 0.874025
O O10 0.876734 0.177379 0.894675
O O11 0.500000 0.500000 0.973551
O O12 0.318951 0.701509 0.986561
O O13 0.998155 0.683632 0.629104
O O14 0.000000 0.500000 0.559286
O O15 0.500000 0.000000 0.033790
#
# Coordination Sequence:
#
# PCOD9580591 Si02
#       6
#     6   6   6   6   6   6
#     4  10  22  45  64  89 131 168 205 264 316 383
#     4  10  25  41  60  95 129 168 210 250 326 380
#     4  11  21  41  63  90 131 163 213 265 307 377
#     4  11  23  39  66  96 122 165 219 260 321 376
#     4  10  21  40  63  91 127 163 211 268 309 375
#     4  10  21  40  66  92 124 163 213 265 315 372
#
# _framework density 20.163212999999999
#
# number of rings (size 3 to 8) (size 9 to 14) (size 15 to 20)
#    0.000    1.667    3.333    0.500    4.667    4.667 
#    0.000    6.667    0.000    0.000    0.000    0.000 
#    0.000    0.000    0.000    0.000    0.000    0.000 
#
# Total GULP energy -200776.641293 kJ/mol
# GULP energy per Si atom -5577.128925 kJ/mol
# Density = 2.011732 g / cm^3
# Si number density = 20.163213 Si / 1000 Ang^3
#
#
#
# Elastic Constant Matrix: (Units=GPa)
#
#
# Indices 1 2 3 4 5 6 
#
# 1 71.0110 17.9069 24.7033 0.0000 0.0000 0.0000
# 2 17.9069 71.0110 24.7033 0.0000 0.0000 0.0000
# 3 24.7033 24.7033 74.7887 0.0000 0.0000 0.0000
# 4 0.0000 0.0000 0.0000 -30.0000 0.0000 0.0000
# 5 0.0000 0.0000 0.0000 0.0000 -30.0000 0.0000
# 6 0.0000 0.0000 0.0000 0.0000 0.0000 26.5520
#
#
#
# Elastic Compliance Matrix: (Units=1/GPa)
#
#
# Indices 1 2 3 4 5 6 
#
# 1 0.016303 -0.002528 -0.004550 0.000000 0.000000 0.000000
# 2 -0.002528 0.016303 -0.004550 0.000000 0.000000 0.000000
# 3 -0.004550 -0.004550 0.016377 0.000000 0.000000 0.000000
# 4 0.000000 0.000000 0.000000 -0.033333 0.000000 0.000000
# 5 0.000000 0.000000 0.000000 0.000000 -0.033333 0.000000
# 6 0.000000 0.000000 0.000000 0.000000 0.000000 0.037662
#
#
# Mechanical properties :
#
#
# Convention : Reuss Voigt Hill
#
# Bulk Modulus (GPa) = 38.87074 39.04862 38.95968
# Shear Modulus (GPa) = 96.50938 3.27687 49.89313
#
# Velocity S-wave (km/s) = 6.92589 1.27621 4.97979
# Velocity P-wave (km/s) = 9.12564 4.64542 7.24076
#
# Compressibility (1/GPa) = 0.02572629
#
# Stress axis : x y z
#
# Youngs Moduli (GPa) = 61.33967 61.33967 61.06254
#
# Poissons Ratio (x) = 0.15508 0.27782
# Poissons Ratio (y) = 0.15508 0.27782
# Poissons Ratio (z) = 0.27908 0.27908
#
# Static dielectric constant tensor:
#      x y z
#    x 2.207320 0.000000 0.000000 
#    y 0.000000 2.207320 0.000000 
#    z 0.000000 0.000000 1.674120 
# 
# From -- ./inp_files/5755.got.cif
#   From: 2010.05.17/outbox.cif.g08.bks.cpg/sg171_3_cif.got.tgz:5755.got - 2010.05.20 11:16:09.
