data_PCOD9580370
_publ_section_title
;
Structure prediction by ZEFSAII (Michael W. Deem and Ramdas Pophale) SiO2 
 PCOD9580370
Probable space group: P 65
;
_chemical_formula_sum "Si O2"
_cell_formula_units_Z 42
_cell_length_a 20.183513
_cell_length_b 20.183513
_cell_length_c 5.186779
_cell_angle_alpha 90.000000
_cell_angle_beta 90.000000
_cell_angle_gamma 120.000000
_cell_volume 1829.876977
_symmetry_space_group_name_H-M "P 65"
_symmetry_group_IT_number 170
_symmetry_cell_setting 'hexagonal'
loop_
_space_group_symop_operation_xyz
x,y,z
x-y,x,5/6+z
-y,x-y,2/3+z
-x,-y,1/2+z
-x+y,-x,1/3+z
y,-x+y,1/6+z
loop_
_atom_site_type_symbol
_atom_site_label
_atom_site_fract_x
_atom_site_fract_y
_atom_site_fract_z
Si Si1 0.573266 0.381275 0.136560
Si Si2 0.784051 0.329886 0.954326
Si Si3 0.472708 0.449614 0.319269
Si Si4 0.691572 0.616671 0.740873
Si Si5 0.153762 0.268582 0.530573
Si Si6 0.140520 0.002724 0.360356
Si Si7 0.988281 0.732271 0.230994
O O1 0.635433 0.439646 0.335773
O O2 0.556400 0.299748 0.248311
O O3 0.503002 0.396439 0.191059
O O4 0.610638 0.400241 0.847862
O O5 0.847503 0.307774 0.020131
O O6 0.517868 0.493468 0.580096
O O7 0.384009 0.406263 0.408031
O O8 0.775586 0.673037 0.853072
O O9 0.676503 0.660646 0.505918
O O10 0.118240 0.182299 0.423575
O O11 0.200466 0.267241 0.777801
O O12 0.087378 0.290450 0.563735
O O13 0.131561 0.059900 0.176552
O O14 0.199037 0.972962 0.302214
#
# Coordination Sequence:
#
# PCOD9580370 Si02
#       7
#     6   6   6   6   6   6   6
#     4  12  25  48  80 112 154 198 258 315 401 467
#     4  12  26  49  77 114 153 197 249 327 385 476
#     4  12  25  50  77 107 150 205 255 312 383 467
#     4  11  28  45  73 108 147 192 257 311 379 469
#     4  11  24  43  68  97 144 189 241 308 377 445
#     4  11  22  38  62  95 127 178 244 297 368 437
#     4  11  24  43  69  95 143 191 234 312 375 447
#
# _framework density 22.952361
#
# number of rings (size 3 to 8) (size 9 to 14) (size 15 to 20)
#    0.000    0.571    5.714    1.714    4.000    3.429 
#    2.571    0.000    0.000    0.000    0.000    0.000 
#    0.000    0.000    0.000    0.000    0.000    0.000 
#
# Total GULP energy -233903.823585 kJ/mol
# GULP energy per Si atom -5569.138657 kJ/mol
# Density = 2.290012 g / cm^3
# Si number density = 22.952361 Si / 1000 Ang^3
#
#
#
# Elastic Constant Matrix: (Units=GPa)
#
#
# Indices 1 2 3 4 5 6 
#
# 1 106.8812 24.1506 12.3099 0.0000 0.0000 0.0000
# 2 24.1506 106.8812 12.3099 0.0000 0.0000 0.0000
# 3 12.3099 12.3099 75.3306 0.0000 0.0000 0.0000
# 4 0.0000 0.0000 0.0000 160.4858 0.0000 0.0000
# 5 0.0000 0.0000 0.0000 0.0000 160.4858 0.0000
# 6 0.0000 0.0000 0.0000 0.0000 0.0000 41.3653
#
#
#
# Elastic Compliance Matrix: (Units=1/GPa)
#
#
# Indices 1 2 3 4 5 6 
#
# 1 0.009980 -0.002107 -0.001287 0.000000 0.000000 0.000000
# 2 -0.002107 0.009980 -0.001287 0.000000 0.000000 0.000000
# 3 -0.001287 -0.001287 0.013695 0.000000 0.000000 0.000000
# 4 0.000000 0.000000 0.000000 0.006231 0.000000 0.000000
# 5 0.000000 0.000000 0.000000 0.000000 0.006231 0.000000
# 6 0.000000 0.000000 0.000000 0.000000 0.000000 0.024175
#
#
# Mechanical properties :
#
#
# Convention : Reuss Voigt Hill
#
# Bulk Modulus (GPa) = 41.15937 42.95931 42.05934
# Shear Modulus (GPa) = 56.97862 88.48890 72.73376
#
# Velocity S-wave (km/s) = 4.98785 6.21587 5.63541
# Velocity P-wave (km/s) = 7.15143 8.38292 7.79154
#
# Compressibility (1/GPa) = 0.02429580
#
# Stress axis : x y z
#
# Youngs Moduli (GPa) = 100.19591 100.19591 73.01766
#
# Poissons Ratio (x) = 0.21111 0.09395
# Poissons Ratio (y) = 0.21111 0.09395
# Poissons Ratio (z) = 0.12891 0.12891
#
# Static dielectric constant tensor:
#      x y z
#    x -0.048360 0.000000 0.000000 
#    y 0.000000 -0.048360 0.000000 
#    z 0.000000 0.000000 2.050000 
# 
# From -- ./inp_files/265.got.cif
#   From: 2010.05.17/outbox.cif.g08.bks.cpg/sg170_cif.got.tgz:265.got - 2010.05.20 11:14:30.
