data_PCOD9580241
_publ_section_title
;
Structure prediction by ZEFSAII (Michael W. Deem and Ramdas Pophale) SiO2 
 PCOD9580241
Probable space group: P 65
;
_chemical_formula_sum "Si O2"
_cell_formula_units_Z 42
_cell_length_a 14.129298
_cell_length_b 14.129298
_cell_length_c 11.694633
_cell_angle_alpha 90.000000
_cell_angle_beta 90.000000
_cell_angle_gamma 120.000000
_cell_volume 2021.894072
_symmetry_space_group_name_H-M "P 65"
_symmetry_group_IT_number 170
_symmetry_cell_setting 'hexagonal'
loop_
_space_group_symop_operation_xyz
x,y,z
x-y,x,5/6+z
-y,x-y,2/3+z
-x,-y,1/2+z
-x+y,-x,1/3+z
y,-x+y,1/6+z
loop_
_atom_site_type_symbol
_atom_site_label
_atom_site_fract_x
_atom_site_fract_y
_atom_site_fract_z
Si Si1 0.935282 0.531325 0.197030
Si Si2 0.917901 0.121108 0.559361
Si Si3 0.592761 0.823559 0.255802
Si Si4 0.133884 0.388298 0.883253
Si Si5 0.822118 0.366959 0.608125
Si Si6 0.844356 0.589083 0.648396
Si Si7 0.597684 0.898421 0.009968
O O1 0.871653 0.581571 0.129980
O O2 0.945087 0.571563 0.328667
O O3 0.875989 0.401993 0.180915
O O4 0.052799 0.576860 0.144453
O O5 0.919093 0.220164 0.487732
O O6 0.826032 0.100304 0.654237
O O7 0.024517 0.147205 0.632293
O O8 0.483946 0.817628 0.308483
O O9 0.608754 0.840869 0.122517
O O10 0.251886 0.485940 0.840464
O O11 0.142489 0.375603 0.016550
O O12 0.789633 0.456722 0.640847
O O13 0.771137 0.617781 0.729947
O O14 0.970698 0.646541 0.689436
#
# Coordination Sequence:
#
# PCOD9580241 Si02
#       7
#     6   6   6   6   6   6   6
#     4   9  20  38  63  90 118 160 212 265 317 386
#     4  10  22  40  68  92 120 170 232 284 336 390
#     4  10  20  39  66  89 126 166 215 266 336 405
#     4  10  20  39  66  89 126 166 215 266 336 405
#     4   9  20  38  63  90 118 160 212 265 317 386
#     4  11  26  40  59  96 133 174 211 265 337 403
#     4  11  26  40  59  96 133 174 211 265 337 403
#
# _framework density 20.772601999999999
#
# number of rings (size 3 to 8) (size 9 to 14) (size 15 to 20)
#    0.000    2.286    0.000    4.286    8.000    5.714 
#    0.000    1.429    0.000    0.000    0.000    0.000 
#    0.000    0.000    0.000    0.000    0.000    0.000 
#
# Total GULP energy -234135.293879 kJ/mol
# GULP energy per Si atom -5574.649854 kJ/mol
# Density = 2.072532 g / cm^3
# Si number density = 20.772602 Si / 1000 Ang^3
#
#
#
# Elastic Constant Matrix: (Units=GPa)
#
#
# Indices 1 2 3 4 5 6 
#
# 1 46.4870 4.8114 4.8178 0.0000 0.0000 0.0000
# 2 4.8114 46.4870 4.8178 0.0000 0.0000 0.0000
# 3 4.8178 4.8178 108.5762 0.0000 0.0000 0.0000
# 4 0.0000 0.0000 0.0000 24.0003 0.0000 0.0000
# 5 0.0000 0.0000 0.0000 0.0000 24.0003 0.0000
# 6 0.0000 0.0000 0.0000 0.0000 0.0000 20.8378
#
#
#
# Elastic Compliance Matrix: (Units=1/GPa)
#
#
# Indices 1 2 3 4 5 6 
#
# 1 0.021826 -0.002169 -0.000872 0.000000 0.000000 0.000000
# 2 -0.002169 0.021826 -0.000872 0.000000 0.000000 0.000000
# 3 -0.000872 -0.000872 0.009288 0.000000 0.000000 0.000000
# 4 0.000000 0.000000 0.000000 0.041666 0.000000 0.000000
# 5 0.000000 0.000000 0.000000 0.000000 0.041666 0.000000
# 6 0.000000 0.000000 0.000000 0.000000 0.000000 0.047990
#
#
# Mechanical properties :
#
#
# Convention : Reuss Voigt Hill
#
# Bulk Modulus (GPa) = 22.16618 25.60490 23.88554
# Shear Modulus (GPa) = 24.13989 26.24124 25.19056
#
# Velocity S-wave (km/s) = 3.41266 3.55810 3.48614
# Velocity P-wave (km/s) = 5.12078 5.40676 5.26571
#
# Compressibility (1/GPa) = 0.04511378
#
# Stress axis : x y z
#
# Youngs Moduli (GPa) = 45.81642 45.81642 107.67124
#
# Poissons Ratio (x) = 0.09936 0.09392
# Poissons Ratio (y) = 0.09936 0.09392
# Poissons Ratio (z) = 0.03996 0.03996
#
# Static dielectric constant tensor:
#      x y z
#    x 1.788310 0.000000 0.000000 
#    y 0.000000 1.788310 0.000000 
#    z 0.000000 0.000000 1.776410 
# 
# From -- ./inp_files/968.got.cif
#   From: 2010.05.17/outbox.cif.g08.bks.cpg/sg170_cif.got.tgz:968.got - 2010.05.20 11:14:30.
