data_PCOD9580864
_publ_section_title
;
Structure prediction by ZEFSAII (Michael W. Deem and Ramdas Pophale) SiO2 
 PCOD9580864
Probable space group: P 62
;
_chemical_formula_sum "Si O2"
_cell_formula_units_Z 21
_cell_length_a 12.220652
_cell_length_b 12.220652
_cell_length_c 7.071396
_cell_angle_alpha 90.000000
_cell_angle_beta 90.000000
_cell_angle_gamma 120.000000
_cell_volume 914.585990
_symmetry_space_group_name_H-M "P 62"
_symmetry_group_IT_number 171
_symmetry_cell_setting 'hexagonal'
loop_
_space_group_symop_operation_xyz
x,y,z
x-y,x,1/3+z
-y,x-y,2/3+z
-x,-y,z
-x+y,-x,1/3+z
y,-x+y,2/3+z
loop_
_atom_site_type_symbol
_atom_site_label
_atom_site_fract_x
_atom_site_fract_y
_atom_site_fract_z
Si Si1 0.123039 0.180746 0.150680
Si Si2 0.660464 0.978996 0.322139
Si Si3 0.500000 0.500000 0.985317
Si Si4 0.100666 0.403489 0.604804
O O1 0.267666 0.281084 0.199894
O O2 0.050936 0.130966 0.348349
O O3 0.050184 0.241545 0.043940
O O4 0.612514 0.835204 0.263832
O O5 0.583326 0.971340 0.508418
O O6 0.650303 0.061613 0.152767
O O7 0.491818 0.597830 0.130115
#
# Coordination Sequence:
#
# PCOD9580864 Si02
#       4
#     6   6   3   6
#     4  12  24  45  78 122 160 188 229 306 398 478
#     4  12  24  44  77 108 145 193 244 302 376 445
#     4  12  26  48  72  96 156 196 250 312 352 434
#     4  12  24  44  77 108 145 193 244 302 376 445
#
# _framework density 22.961209
#
# number of rings (size 3 to 8) (size 9 to 14) (size 15 to 20)
#    0.000    0.000    8.571    0.857    0.000    3.429 
#    5.143    0.000   62.857    0.000    0.000    0.000 
#    0.000    0.000    0.000    0.000    0.000    0.000 
#
# Total GULP energy -117547.092330 kJ/mol
# GULP energy per Si atom -5597.480587 kJ/mol
# Density = 2.290895 g / cm^3
# Si number density = 22.961209 Si / 1000 Ang^3
#
#
#
# Elastic Constant Matrix: (Units=GPa)
#
#
# Indices 1 2 3 4 5 6 
#
# 1 37.2985 3.6710 26.0622 0.0000 0.0000 0.0000
# 2 3.6710 37.2985 26.0622 0.0000 0.0000 0.0000
# 3 26.0622 26.0622 173.9208 0.0000 0.0000 0.0000
# 4 0.0000 0.0000 0.0000 51.6258 0.0000 0.0000
# 5 0.0000 0.0000 0.0000 0.0000 51.6258 0.0000
# 6 0.0000 0.0000 0.0000 0.0000 0.0000 16.8138
#
#
#
# Elastic Compliance Matrix: (Units=1/GPa)
#
#
# Indices 1 2 3 4 5 6 
#
# 1 0.029948 0.000210 -0.004519 0.000000 0.000000 0.000000
# 2 0.000210 0.029948 -0.004519 0.000000 0.000000 0.000000
# 3 -0.004519 -0.004519 0.007104 0.000000 0.000000 0.000000
# 4 0.000000 0.000000 0.000000 0.019370 0.000000 0.000000
# 5 0.000000 0.000000 0.000000 0.000000 0.019370 0.000000
# 6 0.000000 0.000000 0.000000 0.000000 0.000000 0.059475
#
#
# Mechanical properties :
#
#
# Convention : Reuss Voigt Hill
#
# Bulk Modulus (GPa) = 20.26608 40.01203 30.13905
# Shear Modulus (GPa) = 25.08537 36.86124 30.97330
#
# Velocity S-wave (km/s) = 3.30890 4.01105 3.67678
# Velocity P-wave (km/s) = 4.84188 6.23820 5.58386
#
# Compressibility (1/GPa) = 0.04934353
#
# Stress axis : x y z
#
# Youngs Moduli (GPa) = 33.39139 33.39139 140.76261
#
# Poissons Ratio (x) = -0.00702 0.63614
# Poissons Ratio (y) = -0.00702 0.63614
# Poissons Ratio (z) = 0.15090 0.15090
#
# Static dielectric constant tensor:
#      x y z
#    x 1.870300 0.000000 0.000000 
#    y 0.000000 1.870300 0.000000 
#    z 0.000000 0.000000 1.889560 
# 
# From -- ./inp_files/502.got.cif
#   From: 2010.05.17/outbox.cif.g08.bks.cpg/sg171_1_cif.got.tgz:502.got - 2010.05.20 11:16:09.
