data_PCOD9580824
_publ_section_title
;
Structure prediction by ZEFSAII (Michael W. Deem and Ramdas Pophale) SiO2 
 PCOD9580824
Probable space group: P 62
;
_chemical_formula_sum "Si O2"
_cell_formula_units_Z 42
_cell_length_a 14.837465
_cell_length_b 14.837465
_cell_length_c 9.942646
_cell_angle_alpha 90.000000
_cell_angle_beta 90.000000
_cell_angle_gamma 120.000000
_cell_volume 1895.623237
_symmetry_space_group_name_H-M "P 62"
_symmetry_group_IT_number 171
_symmetry_cell_setting 'hexagonal'
loop_
_space_group_symop_operation_xyz
x,y,z
x-y,x,1/3+z
-y,x-y,2/3+z
-x,-y,z
-x+y,-x,1/3+z
y,-x+y,2/3+z
loop_
_atom_site_type_symbol
_atom_site_label
_atom_site_fract_x
_atom_site_fract_y
_atom_site_fract_z
Si Si1 0.813211 0.769451 0.887360
Si Si2 0.752022 0.244890 0.646562
Si Si3 0.830043 0.427559 0.073974
Si Si4 0.540041 0.325416 0.283398
Si Si5 0.997214 0.361425 0.006196
Si Si6 0.179954 0.267991 0.195666
Si Si7 0.321203 0.261769 0.415671
O O1 0.721836 0.712111 0.778184
O O2 0.821981 0.882189 0.887698
O O3 0.899407 0.744712 0.830843
O O4 0.792761 0.726218 0.038713
O O5 0.649720 0.200461 0.552310
O O6 0.713541 0.216246 0.799095
O O7 0.816715 0.370630 0.626999
O O8 0.819901 0.195991 0.590675
O O9 0.732471 0.333512 0.002943
O O10 0.886611 0.539743 0.002781
O O11 0.916742 0.393533 0.063383
O O12 0.438050 0.291969 0.373577
O O13 0.976251 0.323979 0.852217
O O14 0.259718 0.248762 0.280075
#
# Coordination Sequence:
#
# PCOD9580824 Si02
#       7
#     6   6   6   6   6   6   6
#     4  12  25  50  76 103 139 197 244 311 384 434
#     4  12  25  42  70 113 150 199 242 305 366 448
#     4  11  23  43  71 103 150 192 247 282 362 454
#     4  12  25  42  74 107 156 197 243 298 367 449
#     4  11  24  44  76 102 141 201 239 295 371 443
#     4  12  29  47  76 108 150 185 253 315 380 442
#     4  12  27  49  76 105 149 192 252 311 374 444
#
# _framework density 22.156300999999999
#
# number of rings (size 3 to 8) (size 9 to 14) (size 15 to 20)
#    0.000    0.286    5.714    2.571    4.000    1.714 
#    0.000    2.143    0.000    0.000    0.000    0.000 
#    0.000    0.000    0.000    0.000    0.000    0.000 
#
# Total GULP energy -234720.053796 kJ/mol
# GULP energy per Si atom -5588.572709 kJ/mol
# Density = 2.210587 g / cm^3
# Si number density = 22.156301 Si / 1000 Ang^3
#
#
#
# Elastic Constant Matrix: (Units=GPa)
#
#
# Indices 1 2 3 4 5 6 
#
# 1 59.2754 12.1557 24.6566 0.0000 0.0000 0.0000
# 2 12.1557 59.2754 24.6566 0.0000 0.0000 0.0000
# 3 24.6566 24.6566 180.7314 0.0000 0.0000 0.0000
# 4 0.0000 0.0000 0.0000 30.0431 0.0000 0.0000
# 5 0.0000 0.0000 0.0000 0.0000 30.0431 0.0000
# 6 0.0000 0.0000 0.0000 0.0000 0.0000 23.5599
#
#
#
# Elastic Compliance Matrix: (Units=1/GPa)
#
#
# Indices 1 2 3 4 5 6 
#
# 1 0.018339 -0.002884 -0.002108 0.000000 0.000000 0.000000
# 2 -0.002884 0.018339 -0.002108 0.000000 0.000000 0.000000
# 3 -0.002108 -0.002108 0.006108 0.000000 0.000000 0.000000
# 4 0.000000 0.000000 0.000000 0.033286 0.000000 0.000000
# 5 0.000000 0.000000 0.000000 0.000000 0.033286 0.000000
# 6 0.000000 0.000000 0.000000 0.000000 0.000000 0.042445
#
#
# Mechanical properties :
#
#
# Convention : Reuss Voigt Hill
#
# Bulk Modulus (GPa) = 34.98382 46.91336 40.94859
# Shear Modulus (GPa) = 28.48487 32.58343 30.53415
#
# Velocity S-wave (km/s) = 3.58946 3.83902 3.71634
# Velocity P-wave (km/s) = 5.74481 6.39301 6.07756
#
# Compressibility (1/GPa) = 0.02858465
#
# Stress axis : x y z
#
# Youngs Moduli (GPa) = 54.52910 54.52910 163.70940
#
# Poissons Ratio (x) = 0.15725 0.34518
# Poissons Ratio (y) = 0.15725 0.34518
# Poissons Ratio (z) = 0.11497 0.11497
#
# Static dielectric constant tensor:
#      x y z
#    x 1.886680 0.000000 0.000000 
#    y 0.000000 1.886680 0.000000 
#    z 0.000000 0.000000 1.780770 
# 
# From -- ./inp_files/1252.got.cif
#   From: 2010.05.17/outbox.cif.g08.bks.cpg/sg171_1_cif.got.tgz:1252.got - 2010.05.20 11:16:09.
