data_PCOD9580325
_publ_section_title
;
Structure prediction by ZEFSAII (Michael W. Deem and Ramdas Pophale) SiO2 
 PCOD9580325
Probable space group: P 65
;
_chemical_formula_sum "Si O2"
_cell_formula_units_Z 48
_cell_length_a 14.913005
_cell_length_b 14.913005
_cell_length_c 10.983496
_cell_angle_alpha 90.000000
_cell_angle_beta 90.000000
_cell_angle_gamma 120.000000
_cell_volume 2115.444105
_symmetry_space_group_name_H-M "P 65"
_symmetry_group_IT_number 170
_symmetry_cell_setting 'hexagonal'
loop_
_space_group_symop_operation_xyz
x,y,z
x-y,x,5/6+z
-y,x-y,2/3+z
-x,-y,1/2+z
-x+y,-x,1/3+z
y,-x+y,1/6+z
loop_
_atom_site_type_symbol
_atom_site_label
_atom_site_fract_x
_atom_site_fract_y
_atom_site_fract_z
Si Si1 0.003686 0.526412 0.363430
Si Si2 0.213786 0.587171 0.302655
Si Si3 0.348704 0.029953 0.600528
Si Si4 0.980488 0.287702 0.705778
Si Si5 0.593575 0.192611 0.859194
Si Si6 0.380318 0.182000 0.404974
Si Si7 0.791405 0.614182 0.149301
Si Si8 0.801344 0.922726 0.729395
O O1 0.966750 0.424488 0.280366
O O2 0.020812 0.628672 0.296960
O O3 0.911911 0.487955 0.461670
O O4 0.119432 0.550685 0.398304
O O5 0.299556 0.703129 0.334764
O O6 0.171323 0.591048 0.168934
O O7 0.248682 0.502236 0.274536
O O8 0.343220 0.074408 0.471081
O O9 0.341429 0.101343 0.702670
O O10 0.256083 0.915778 0.624028
O O11 0.090255 0.352361 0.639980
O O12 0.888201 0.237058 0.608342
O O13 0.982111 0.198045 0.784655
O O14 0.507709 0.219269 0.812905
O O15 0.318284 0.153068 0.276213
O O16 0.858516 0.863954 0.671258
#
# Coordination Sequence:
#
# PCOD9580325 Si02
#       8
#     6   6   6   6   6   6   6   6
#     4  10  25  43  69  99 144 189 242 299 367 438
#     4  11  26  44  69 109 141 196 250 308 378 441
#     4  10  23  46  65 102 136 184 234 288 362 434
#     4  12  24  44  71 102 141 183 242 299 372 442
#     4  11  25  47  69 106 145 191 252 308 375 450
#     4  11  24  44  71  98 144 184 234 295 364 442
#     4  11  24  43  72  99 141 187 237 305 367 443
#     4  12  27  51  74 107 142 190 247 310 377 446
#
# _framework density 22.690272
#
# number of rings (size 3 to 8) (size 9 to 14) (size 15 to 20)
#    0.000    1.000    3.750    1.500    8.750    0.000 
#    2.250    0.000    0.000    0.000    0.000    0.000 
#    0.000    0.000    0.000    0.000    0.000    0.000 
#
# Total GULP energy -267892.123904 kJ/mol
# GULP energy per Si atom -5581.085915 kJ/mol
# Density = 2.263863 g / cm^3
# Si number density = 22.690272 Si / 1000 Ang^3
#
#
#
# Elastic Constant Matrix: (Units=GPa)
#
#
# Indices 1 2 3 4 5 6 
#
# 1 93.2393 38.3330 19.2099 0.0000 0.0000 0.0000
# 2 38.3330 93.2393 19.2099 0.0000 0.0000 0.0000
# 3 19.2099 19.2099 33.2184 0.0000 0.0000 0.0000
# 4 0.0000 0.0000 0.0000 22.5922 0.0000 0.0000
# 5 0.0000 0.0000 0.0000 0.0000 22.5922 0.0000
# 6 0.0000 0.0000 0.0000 0.0000 0.0000 27.4531
#
#
#
# Elastic Compliance Matrix: (Units=1/GPa)
#
#
# Indices 1 2 3 4 5 6 
#
# 1 0.013679 -0.004534 -0.005288 0.000000 0.000000 0.000000
# 2 -0.004534 0.013679 -0.005288 0.000000 0.000000 0.000000
# 3 -0.005288 -0.005288 0.036220 0.000000 0.000000 0.000000
# 4 0.000000 0.000000 0.000000 0.044263 0.000000 0.000000
# 5 0.000000 0.000000 0.000000 0.000000 0.044263 0.000000
# 6 0.000000 0.000000 0.000000 0.000000 0.000000 0.036426
#
#
# Mechanical properties :
#
#
# Convention : Reuss Voigt Hill
#
# Bulk Modulus (GPa) = 29.97931 41.46695 35.72313
# Shear Modulus (GPa) = 21.75148 24.05710 22.90429
#
# Velocity S-wave (km/s) = 3.09953 3.25966 3.18060
# Velocity P-wave (km/s) = 5.10397 5.69931 5.40983
#
# Compressibility (1/GPa) = 0.03335634
#
# Stress axis : x y z
#
# Youngs Moduli (GPa) = 73.10625 73.10625 27.60897
#
# Poissons Ratio (x) = 0.33147 0.14600
# Poissons Ratio (y) = 0.33147 0.14600
# Poissons Ratio (z) = 0.38660 0.38660
#
# Static dielectric constant tensor:
#      x y z
#    x 1.884490 0.000000 0.000000 
#    y 0.000000 1.884490 0.000000 
#    z 0.000000 0.000000 1.864090 
# 
# From -- ./inp_files/1082.got.cif
#   From: 2010.05.17/outbox.cif.g08.bks.cpg/sg170_cif.got.tgz:1082.got - 2010.05.20 11:14:30.
