data_PCOD9580098
_publ_section_title
;
Structure prediction by ZEFSAII (Michael W. Deem and Ramdas Pophale) SiO2 
 PCOD9580098
Probable space group: P 61
;
_chemical_formula_sum "Si O2"
_cell_formula_units_Z 48
_cell_length_a 11.587925
_cell_length_b 11.587925
_cell_length_c 19.299617
_cell_angle_alpha 90.000000
_cell_angle_beta 90.000000
_cell_angle_gamma 120.000000
_cell_volume 2244.350459
_symmetry_space_group_name_H-M "P 61"
_symmetry_group_IT_number 169
_symmetry_cell_setting 'hexagonal'
loop_
_space_group_symop_operation_xyz
x,y,z
x-y,x,1/6+z
-y,x-y,1/3+z
-x,-y,1/2+z
-x+y,-x,2/3+z
y,-x+y,5/6+z
loop_
_atom_site_type_symbol
_atom_site_label
_atom_site_fract_x
_atom_site_fract_y
_atom_site_fract_z
Si Si1 0.785191 0.263783 0.413270
Si Si2 0.945362 0.257047 0.885607
Si Si3 0.208109 0.468663 0.941316
Si Si4 0.258865 0.008716 0.315222
Si Si5 0.716149 0.028150 0.659003
Si Si6 0.378811 0.564986 0.814780
Si Si7 0.479460 0.057450 0.420589
Si Si8 0.213995 0.698910 0.762991
O O1 0.832371 0.420487 0.420707
O O2 0.628567 0.179187 0.429284
O O3 0.802634 0.234993 0.333083
O O4 0.877302 0.240083 0.465834
O O5 0.858288 0.103720 0.862439
O O6 0.866051 0.292412 0.941757
O O7 0.951076 0.340849 0.818372
O O8 0.095374 0.324017 0.914674
O O9 0.342841 0.525443 0.895763
O O10 0.224449 0.473423 0.023804
O O11 0.270910 0.954221 0.241549
O O12 0.239318 0.133138 0.299706
O O13 0.399650 0.063764 0.354292
O O14 0.635494 0.100570 0.634243
O O15 0.324407 0.659710 0.785980
O O16 0.486120 0.923197 0.416998
#
# Coordination Sequence:
#
# PCOD9580098 Si02
#       8
#     6   6   6   6   6   6   6   6
#     4  11  26  40  68 103 143 185 232 294 359 419
#     4  12  22  43  69 103 146 184 232 298 359 420
#     4  11  23  40  68 105 143 186 231 295 357 430
#     4  12  26  44  71 106 141 188 246 292 357 437
#     4  12  27  43  73 102 140 191 239 301 353 433
#     4  11  22  40  67 104 144 182 239 287 362 419
#     4  12  23  44  68 105 145 181 231 299 362 416
#     4  11  23  40  66 102 146 185 230 294 363 426
#
# _framework density 21.387032999999999
#
# number of rings (size 3 to 8) (size 9 to 14) (size 15 to 20)
#    0.000    0.500    6.250    3.000    7.000    1.000 
#    0.000    0.000    2.750    0.000    0.000    0.000 
#    0.000    0.000    0.000    0.000    0.000    0.000 
#
# Total GULP energy -268298.540284 kJ/mol
# GULP energy per Si atom -5589.552923 kJ/mol
# Density = 2.133835 g / cm^3
# Si number density = 21.387033 Si / 1000 Ang^3
#
#
#
# Elastic Constant Matrix: (Units=GPa)
#
#
# Indices 1 2 3 4 5 6 
#
# 1 65.8136 33.7049 3.9727 0.0000 0.0000 0.0000
# 2 33.7049 65.8136 3.9727 0.0000 0.0000 0.0000
# 3 3.9727 3.9727 92.8955 0.0000 0.0000 0.0000
# 4 0.0000 0.0000 0.0000 30.7322 0.0000 0.0000
# 5 0.0000 0.0000 0.0000 0.0000 30.7322 0.0000
# 6 0.0000 0.0000 0.0000 0.0000 0.0000 16.0543
#
#
#
# Elastic Compliance Matrix: (Units=1/GPa)
#
#
# Indices 1 2 3 4 5 6 
#
# 1 0.020614 -0.010531 -0.000431 0.000000 0.000000 0.000000
# 2 -0.010531 0.020614 -0.000431 0.000000 0.000000 0.000000
# 3 -0.000431 -0.000431 0.010802 0.000000 0.000000 0.000000
# 4 0.000000 0.000000 0.000000 0.032539 0.000000 0.000000
# 5 0.000000 0.000000 0.000000 0.000000 0.032539 0.000000
# 6 0.000000 0.000000 0.000000 0.000000 0.000000 0.062289
#
#
# Mechanical properties :
#
#
# Convention : Reuss Voigt Hill
#
# Bulk Modulus (GPa) = 34.19681 34.20260 34.19971
# Shear Modulus (GPa) = 23.59276 27.69521 25.64399
#
# Velocity S-wave (km/s) = 3.32495 3.60245 3.46648
# Velocity P-wave (km/s) = 5.54658 5.77325 5.66105
#
# Compressibility (1/GPa) = 0.02924249
#
# Stress axis : x y z
#
# Youngs Moduli (GPa) = 48.51179 48.51179 92.57827
#
# Poissons Ratio (x) = 0.51086 0.03992
# Poissons Ratio (y) = 0.51086 0.03992
# Poissons Ratio (z) = 0.02092 0.02092
#
# Static dielectric constant tensor:
#      x y z
#    x 1.794520 0.000000 0.000000 
#    y 0.000000 1.794520 0.000000 
#    z 0.000000 0.000000 1.812280 
# 
# From -- ./inp_files/1419.got.cif
#   From: 2010.05.17/outbox.cif.g08.bks.cpg/sg169_cif.got.tgz:1419.got - 2010.05.20 11:12:54.
