data_PCOD9580672
_publ_section_title
;
Structure prediction by ZEFSAII (Michael W. Deem and Ramdas Pophale) SiO2 
 PCOD9580672
Probable space group: P 62
;
_chemical_formula_sum "Si O2"
_cell_formula_units_Z 42
_cell_length_a 17.895019
_cell_length_b 17.895019
_cell_length_c 7.264568
_cell_angle_alpha 90.000000
_cell_angle_beta 90.000000
_cell_angle_gamma 120.000000
_cell_volume 2014.673865
_symmetry_space_group_name_H-M "P 62"
_symmetry_group_IT_number 171
_symmetry_cell_setting 'hexagonal'
loop_
_space_group_symop_operation_xyz
x,y,z
x-y,x,1/3+z
-y,x-y,2/3+z
-x,-y,z
-x+y,-x,1/3+z
y,-x+y,2/3+z
loop_
_atom_site_type_symbol
_atom_site_label
_atom_site_fract_x
_atom_site_fract_y
_atom_site_fract_z
Si Si1 0.277428 0.019742 0.645160
Si Si2 0.728361 0.153964 0.568631
Si Si3 0.238330 0.215184 0.385285
Si Si4 0.742723 0.548347 0.892270
Si Si5 0.358165 0.739765 0.694321
Si Si6 0.029226 0.914940 0.195984
Si Si7 0.356961 0.143807 0.221169
O O1 0.297940 0.944396 0.598060
O O2 0.249397 0.017899 0.854504
O O3 0.365579 0.106427 0.610876
O O4 0.192923 0.009294 0.541897
O O5 0.736973 0.177543 0.352407
O O6 0.673664 0.191303 0.667978
O O7 0.817609 0.199808 0.684062
O O8 0.155406 0.125721 0.444582
O O9 0.309348 0.186755 0.337226
O O10 0.249863 0.290984 0.526215
O O11 0.667605 0.456573 0.957547
O O12 0.738508 0.555399 0.671951
O O13 0.298790 0.658641 0.560250
O O14 0.042998 0.955690 0.399447
#
# Coordination Sequence:
#
# PCOD9580672 Si02
#       7
#     6   6   6   6   6   6   6
#     4  11  23  40  64  92 127 171 220 261 315 384
#     4  10  23  41  64  92 130 166 211 264 320 387
#     4  11  22  38  61  89 123 172 217 257 317 366
#     4  11  21  37  67  95 126 170 207 261 322 381
#     4  10  22  42  68 101 128 162 204 261 335 406
#     4  12  25  42  64  88 129 174 224 274 316 365
#     4  11  22  38  63  93 123 171 216 262 309 380
#
# _framework density 20.847047
#
# number of rings (size 3 to 8) (size 9 to 14) (size 15 to 20)
#    0.000    1.143    4.286    1.714    4.000    0.571 
#    0.000    3.571    0.000    0.000    0.000    0.000 
#    0.000    0.000    0.000    0.000    0.000    0.000 
#
# Total GULP energy -234079.790162 kJ/mol
# GULP energy per Si atom -5573.328337 kJ/mol
# Density = 2.079960 g / cm^3
# Si number density = 20.847047 Si / 1000 Ang^3
#
#
#
# Elastic Constant Matrix: (Units=GPa)
#
#
# Indices 1 2 3 4 5 6 
#
# 1 57.1592 21.9791 -0.2662 0.0000 0.0000 0.0000
# 2 21.9791 57.1592 -0.2662 0.0000 0.0000 0.0000
# 3 -0.2662 -0.2662 68.6026 0.0000 0.0000 0.0000
# 4 0.0000 0.0000 0.0000 20.2247 0.0000 0.0000
# 5 0.0000 0.0000 0.0000 0.0000 20.2247 0.0000
# 6 0.0000 0.0000 0.0000 0.0000 0.0000 17.5901
#
#
#
# Elastic Compliance Matrix: (Units=1/GPa)
#
#
# Indices 1 2 3 4 5 6 
#
# 1 0.020531 -0.007894 0.000049 0.000000 0.000000 0.000000
# 2 -0.007894 0.020531 0.000049 0.000000 0.000000 0.000000
# 3 0.000049 0.000049 0.014577 0.000000 0.000000 0.000000
# 4 0.000000 0.000000 0.000000 0.049444 0.000000 0.000000
# 5 0.000000 0.000000 0.000000 0.000000 0.049444 0.000000
# 6 0.000000 0.000000 0.000000 0.000000 0.000000 0.056850
#
#
# Mechanical properties :
#
#
# Convention : Reuss Voigt Hill
#
# Bulk Modulus (GPa) = 24.97125 25.09052 25.03088
# Shear Modulus (GPa) = 20.80568 22.37286 21.58927
#
# Velocity S-wave (km/s) = 3.16257 3.27951 3.22157
# Velocity P-wave (km/s) = 5.03389 5.13828 5.08635
#
# Compressibility (1/GPa) = 0.04004605
#
# Stress axis : x y z
#
# Youngs Moduli (GPa) = 48.70735 48.70735 68.60084
#
# Poissons Ratio (x) = 0.38451 -0.00336
# Poissons Ratio (y) = 0.38451 -0.00336
# Poissons Ratio (z) = -0.00239 -0.00239
#
# Static dielectric constant tensor:
#      x y z
#    x 1.754280 0.000000 0.000000 
#    y 0.000000 1.754280 0.000000 
#    z 0.000000 0.000000 1.905870 
# 
# From -- ./inp_files/1268.got.cif
#   From: 2010.05.17/outbox.cif.g08.bks.cpg/sg171_1_cif.got.tgz:1268.got - 2010.05.20 11:16:09.
