data_PCOD9580509
_publ_section_title
;
Structure prediction by ZEFSAII (Michael W. Deem and Ramdas Pophale) SiO2 
 PCOD9580509
Probable space group: P 62
;
_chemical_formula_sum "Si O2"
_cell_formula_units_Z 36
_cell_length_a 8.703361
_cell_length_b 8.703361
_cell_length_c 25.865635
_cell_angle_alpha 90.000000
_cell_angle_beta 90.000000
_cell_angle_gamma 120.000000
_cell_volume 1696.788733
_symmetry_space_group_name_H-M "P 62"
_symmetry_group_IT_number 171
_symmetry_cell_setting 'hexagonal'
loop_
_space_group_symop_operation_xyz
x,y,z
x-y,x,1/3+z
-y,x-y,2/3+z
-x,-y,z
-x+y,-x,1/3+z
y,-x+y,2/3+z
loop_
_atom_site_type_symbol
_atom_site_label
_atom_site_fract_x
_atom_site_fract_y
_atom_site_fract_z
Si Si1 0.664552 0.477881 0.956420
Si Si2 0.327309 0.302964 0.235440
Si Si3 0.202246 0.160846 0.819317
Si Si4 0.373918 0.315997 0.531979
Si Si5 0.891961 0.305859 0.677641
Si Si6 0.301747 0.343272 0.062063
O O1 0.500000 0.500000 0.936280
O O2 0.816342 0.527367 0.914715
O O3 0.569754 0.281834 0.981331
O O4 0.739231 0.606285 0.006055
O O5 0.500000 0.500000 0.226391
O O6 0.162989 0.289011 0.203187
O O7 0.290052 0.288466 0.296567
O O8 0.331112 0.128132 0.216447
O O9 0.176209 0.326064 0.829113
O O10 0.310021 0.153541 0.770700
O O11 0.000000 0.000000 0.814576
O O12 0.500000 0.500000 0.505075
O O13 0.000000 0.500000 0.700784
O O14 0.828438 0.149819 0.718658
O O15 0.500000 0.500000 0.076888
#
# Coordination Sequence:
#
# PCOD9580509 Si02
#       6
#     6   6   6   6   6   6
#     4   9  19  37  62  90 115 147 193 244 298 350
#     4  10  20  36  60  88 116 151 193 240 294 351
#     4  10  21  36  56  84 116 155 196 235 291 352
#     4  11  22  36  59  87 117 154 201 248 288 343
#     4   9  17  33  60  89 116 148 187 236 294 351
#     4   9  19  36  59  84 116 155 191 237 295 355
#
# _framework density 21.216546999999998
#
# number of rings (size 3 to 8) (size 9 to 14) (size 15 to 20)
#    0.000    2.667    0.000    4.500    0.000    1.333 
#    0.000    3.333    0.000   38.000    0.000    0.000 
#    0.000    0.000    0.000    0.000    0.000    0.000 
#
# Total GULP energy -200894.331942 kJ/mol
# GULP energy per Si atom -5580.398109 kJ/mol
# Density = 2.116826 g / cm^3
# Si number density = 21.216547 Si / 1000 Ang^3
#
#
#
# Elastic Constant Matrix: (Units=GPa)
#
#
# Indices 1 2 3 4 5 6 
#
# 1 88.3023 29.0034 26.8047 0.0000 0.0000 0.0000
# 2 29.0034 88.3023 26.8047 0.0000 0.0000 0.0000
# 3 26.8047 26.8047 61.7078 0.0000 0.0000 0.0000
# 4 0.0000 0.0000 0.0000 -12.2004 0.0000 0.0000
# 5 0.0000 0.0000 0.0000 0.0000 -12.2004 0.0000
# 6 0.0000 0.0000 0.0000 0.0000 0.0000 29.6495
#
#
#
# Elastic Compliance Matrix: (Units=1/GPa)
#
#
# Indices 1 2 3 4 5 6 
#
# 1 0.013750 -0.003114 -0.004620 0.000000 0.000000 0.000000
# 2 -0.003114 0.013750 -0.004620 0.000000 0.000000 0.000000
# 3 -0.004620 -0.004620 0.020219 0.000000 0.000000 0.000000
# 4 0.000000 0.000000 0.000000 -0.081964 0.000000 0.000000
# 5 0.000000 0.000000 0.000000 0.000000 -0.081964 0.000000
# 6 0.000000 0.000000 0.000000 0.000000 0.000000 0.033727
#
#
# Mechanical properties :
#
#
# Convention : Reuss Voigt Hill
#
# Bulk Modulus (GPa) = 43.45759 44.83759 44.14759
# Shear Modulus (GPa) = -99.79342 11.42969 -44.18187
#
# Velocity S-wave (km/s) = -6.86569 2.32354 -4.56831
# Velocity P-wave (km/s) = 6.50561 5.32707 2.64058
#
# Compressibility (1/GPa) = 0.02301094
#
# Stress axis : x y z
#
# Youngs Moduli (GPa) = 72.72757 72.72757 49.45790
#
# Poissons Ratio (x) = 0.22646 0.22850
# Poissons Ratio (y) = 0.22646 0.22850
# Poissons Ratio (z) = 0.33601 0.33601
#
# Static dielectric constant tensor:
#      x y z
#    x 1.803200 0.000000 0.000000 
#    y 0.000000 1.803200 0.000000 
#    z 0.000000 0.000000 1.750060 
# 
# From -- ./inp_files/5731.got.cif
#   From: 2010.05.17/outbox.cif.g08.bks.cpg/sg171_3_cif.got.tgz:5731.got - 2010.05.20 11:16:09.
