data_PCOD9580902
_publ_section_title
;
Structure prediction by ZEFSAII (Michael W. Deem and Ramdas Pophale) SiO2 
 PCOD9580902
Probable space group: P 64
;
_chemical_formula_sum "Si O2"
_cell_formula_units_Z 36
_cell_length_a 8.708375
_cell_length_b 8.708375
_cell_length_c 29.672471
_cell_angle_alpha 90.000000
_cell_angle_beta 90.000000
_cell_angle_gamma 120.000000
_cell_volume 1948.761049
_symmetry_space_group_name_H-M "P 64"
_symmetry_group_IT_number 172
_symmetry_cell_setting 'hexagonal'
loop_
_space_group_symop_operation_xyz
x,y,z
x-y,x,2/3+z
-y,x-y,1/3+z
-x,-y,z
-x+y,-x,2/3+z
y,-x+y,1/3+z
loop_
_atom_site_type_symbol
_atom_site_label
_atom_site_fract_x
_atom_site_fract_y
_atom_site_fract_z
Si Si1 0.000000 0.000000 0.824190
Si Si2 0.676057 0.815110 0.555580
Si Si3 0.081050 0.276133 0.006630
Si Si4 0.500000 0.000000 0.612727
Si Si5 0.000000 0.500000 0.368987
Si Si6 0.500000 0.000000 0.824191
Si Si7 0.323943 0.139053 0.759468
Si Si8 0.195083 0.276133 0.641751
O O1 0.836384 0.882064 0.790868
O O2 0.045680 0.882064 0.857513
O O3 0.572928 0.896731 0.582472
O O4 0.544077 0.664423 0.522335
O O5 0.758995 0.726908 0.589370
O O6 0.032087 0.273092 0.059011
O O7 0.112320 0.449858 0.980335
O O8 0.227486 0.227486 0.990857
O O9 0.894827 0.105173 0.990857
O O10 0.103269 0.427073 0.399242
O O11 0.112320 0.662463 0.334713
O O12 0.455923 0.120346 0.792712
#
# Coordination Sequence:
#
# PCOD9580902 Si02
#       8
#     3   6   6   3   3   3   6   6
#     4  10  20  36  58  78 108 152 196 228 260 360
#     4  10  20  35  54  80 107 144 186 223 281 333
#     4   9  17  32  55  80 106 140 183 231 280 333
#     4  10  19  32  58  83 108 138 187 248 280 315
#     4  10  19  32  58  83 108 138 187 248 280 315
#     4  10  22  36  52  70 112 152 172 210 272 354
#     4  10  20  35  54  80 107 144 186 223 281 333
#     4   9  17  32  55  80 106 140 183 231 280 333
#
# _framework density 18.473275000000001
#
# number of rings (size 3 to 8) (size 9 to 14) (size 15 to 20)
#    0.000    2.333    0.000    5.000    0.000    1.333 
#    0.000    0.000    0.000   47.000    0.000    0.000 
#    0.000    0.000    0.000    0.000    0.000    0.000 
#
# Total GULP energy -200409.395822 kJ/mol
# GULP energy per Si atom -5566.927662 kJ/mol
# Density = 1.843123 g / cm^3
# Si number density = 18.473275 Si / 1000 Ang^3
#
#
#
# Elastic Constant Matrix: (Units=GPa)
#
#
# Indices 1 2 3 4 5 6 
#
# 1 96.3225 57.3669 63.0711 0.0000 0.0000 0.0000
# 2 57.3669 96.3225 63.0711 0.0000 0.0000 0.0000
# 3 63.0711 63.0711 146.3196 0.0000 0.0000 0.0000
# 4 0.0000 0.0000 0.0000 -10.5085 0.0000 0.0000
# 5 0.0000 0.0000 0.0000 0.0000 -10.5085 0.0000
# 6 0.0000 0.0000 0.0000 0.0000 0.0000 19.4778
#
#
#
# Elastic Compliance Matrix: (Units=1/GPa)
#
#
# Indices 1 2 3 4 5 6 
#
# 1 0.017870 -0.007801 -0.004340 0.000000 0.000000 0.000000
# 2 -0.007801 0.017870 -0.004340 0.000000 0.000000 0.000000
# 3 -0.004340 -0.004340 0.010576 0.000000 0.000000 0.000000
# 4 0.000000 0.000000 0.000000 -0.095161 0.000000 0.000000
# 5 0.000000 0.000000 0.000000 0.000000 -0.095161 0.000000
# 6 0.000000 0.000000 0.000000 0.000000 0.000000 0.051340
#
#
# Mechanical properties :
#
#
# Convention : Reuss Voigt Hill
#
# Bulk Modulus (GPa) = 74.88936 78.44255 76.66595
# Shear Modulus (GPa) = -90.49223 10.05586 -40.21818
#
# Velocity S-wave (km/s) = -7.00656 2.33565 -4.67100
# Velocity P-wave (km/s) = 4.98282 7.05894 3.53554
#
# Compressibility (1/GPa) = 0.01335303
#
# Stress axis : x y z
#
# Youngs Moduli (GPa) = 55.96106 55.96106 94.55335
#
# Poissons Ratio (x) = 0.43653 0.41038
# Poissons Ratio (y) = 0.43653 0.41038
# Poissons Ratio (z) = 0.24288 0.24288
#
# Static dielectric constant tensor:
#      x y z
#    x 1.641050 0.000000 0.000000 
#    y 0.000000 1.641050 0.000000 
#    z 0.000000 0.000000 1.755640 
# 
# From -- ./inp_files/2842.got.cif
#   From: 2010.05.17/outbox.cif.g08.bks.cpg/sg172_2_cif.got.tgz:2842.got - 2010.05.20 11:19:57.
