data_PCOD9580001
_publ_section_title
;
Structure prediction by ZEFSAII (Michael W. Deem and Ramdas Pophale) SiO2 
 PCOD9580001
Probable space group: P 61
;
_chemical_formula_sum "Si O2"
_cell_formula_units_Z 42
_cell_length_a 8.878036
_cell_length_b 8.878036
_cell_length_c 27.821994
_cell_angle_alpha 90.000000
_cell_angle_beta 90.000000
_cell_angle_gamma 120.000000
_cell_volume 1899.121226
_symmetry_space_group_name_H-M "P 61"
_symmetry_group_IT_number 169
_symmetry_cell_setting 'hexagonal'
loop_
_space_group_symop_operation_xyz
x,y,z
x-y,x,1/6+z
-y,x-y,1/3+z
-x,-y,1/2+z
-x+y,-x,2/3+z
y,-x+y,5/6+z
loop_
_atom_site_type_symbol
_atom_site_label
_atom_site_fract_x
_atom_site_fract_y
_atom_site_fract_z
Si Si1 0.891959 0.001441 0.697430
Si Si2 0.198179 0.331850 0.748431
Si Si3 0.559852 0.411301 0.504229
Si Si4 0.310532 0.714921 0.487469
Si Si5 0.359536 0.127834 0.280496
Si Si6 0.142824 0.354777 0.196628
Si Si7 0.626163 0.201866 0.090401
O O1 0.879017 0.093470 0.649829
O O2 0.040854 0.147480 0.731599
O O3 0.712301 0.911447 0.727046
O O4 0.926995 0.844978 0.687239
O O5 0.210911 0.468121 0.708495
O O6 0.167247 0.406623 0.798279
O O7 0.382441 0.342211 0.752781
O O8 0.416366 0.390166 0.465445
O O9 0.612382 0.593389 0.530123
O O10 0.711009 0.406858 0.474666
O O11 0.233383 0.538108 0.457460
O O12 0.519730 0.799412 0.489070
O O13 0.268706 0.677865 0.544128
O O14 0.265335 0.433567 0.244036
#
# Coordination Sequence:
#
# PCOD9580001 Si02
#       7
#     6   6   6   6   6   6   6
#     4  11  24  41  71 101 134 175 236 288 340 403
#     4  11  25  42  68 104 135 182 229 287 347 407
#     4  10  23  44  70  97 135 182 224 284 343 409
#     4   9  22  45  63  98 136 180 227 273 350 410
#     4  10  22  42  67  95 133 179 227 279 341 407
#     4   9  23  45  64 100 132 177 229 274 346 408
#     4  10  23  45  67  97 141 179 230 279 347 414
#
# _framework density 22.115492
#
# number of rings (size 3 to 8) (size 9 to 14) (size 15 to 20)
#    0.857    1.143    0.000    1.714    8.000    1.143 
#   18.000    0.000    0.000    0.000    0.000    0.000 
#    0.000    0.000    0.000    0.000    0.000    0.000 
#
# Total GULP energy -234530.397789 kJ/mol
# GULP energy per Si atom -5584.057090 kJ/mol
# Density = 2.206516 g / cm^3
# Si number density = 22.115492 Si / 1000 Ang^3
#
#
#
# Elastic Constant Matrix: (Units=GPa)
#
#
# Indices 1 2 3 4 5 6 
#
# 1 89.5643 39.1292 15.2755 0.0000 0.0000 0.0000
# 2 39.1292 89.5643 15.2755 0.0000 0.0000 0.0000
# 3 15.2755 15.2755 39.5232 0.0000 0.0000 0.0000
# 4 0.0000 0.0000 0.0000 31.7908 0.0000 0.0000
# 5 0.0000 0.0000 0.0000 0.0000 31.7908 0.0000
# 6 0.0000 0.0000 0.0000 0.0000 0.0000 25.2175
#
#
#
# Elastic Compliance Matrix: (Units=1/GPa)
#
#
# Indices 1 2 3 4 5 6 
#
# 1 0.014191 -0.005636 -0.003307 0.000000 0.000000 0.000000
# 2 -0.005636 0.014191 -0.003307 0.000000 0.000000 0.000000
# 3 -0.003307 -0.003307 0.027858 0.000000 0.000000 0.000000
# 4 0.000000 0.000000 0.000000 0.031456 0.000000 0.000000
# 5 0.000000 0.000000 0.000000 0.000000 0.031456 0.000000
# 6 0.000000 0.000000 0.000000 0.000000 0.000000 0.039655
#
#
# Mechanical properties :
#
#
# Convention : Reuss Voigt Hill
#
# Bulk Modulus (GPa) = 31.50408 39.77911 35.64159
# Shear Modulus (GPa) = 25.78839 27.69128 26.73984
#
# Velocity S-wave (km/s) = 3.41849 3.54237 3.48098
# Velocity P-wave (km/s) = 5.46421 5.89553 5.68396
#
# Compressibility (1/GPa) = 0.03174192
#
# Stress axis : x y z
#
# Youngs Moduli (GPa) = 70.46515 70.46515 35.89689
#
# Poissons Ratio (x) = 0.39715 0.11870
# Poissons Ratio (y) = 0.39715 0.11870
# Poissons Ratio (z) = 0.23300 0.23300
#
# Static dielectric constant tensor:
#      x y z
#    x 1.813390 0.000000 0.000000 
#    y 0.000000 1.813390 0.000000 
#    z 0.000000 0.000000 1.800070 
# 
# From -- ./inp_files/1902.got.cif
#   From: 2010.05.17/outbox.cif.g08.bks.cpg/sg169_cif.got.tgz:1902.got - 2010.05.20 11:12:54.
