data_PCOD9580245
_publ_section_title
;
Structure prediction by ZEFSAII (Michael W. Deem and Ramdas Pophale) SiO2 
 PCOD9580245
Probable space group: P 65
;
_chemical_formula_sum "Si O2"
_cell_formula_units_Z 36
_cell_length_a 14.481795
_cell_length_b 14.481795
_cell_length_c 7.259672
_cell_angle_alpha 90.000000
_cell_angle_beta 90.000000
_cell_angle_gamma 120.000000
_cell_volume 1318.537305
_symmetry_space_group_name_H-M "P 65"
_symmetry_group_IT_number 170
_symmetry_cell_setting 'hexagonal'
loop_
_space_group_symop_operation_xyz
x,y,z
x-y,x,5/6+z
-y,x-y,2/3+z
-x,-y,1/2+z
-x+y,-x,1/3+z
y,-x+y,1/6+z
loop_
_atom_site_type_symbol
_atom_site_label
_atom_site_fract_x
_atom_site_fract_y
_atom_site_fract_z
Si Si1 0.580124 0.972974 0.252360
Si Si2 0.598383 0.255735 0.262572
Si Si3 0.224644 0.117048 0.798604
Si Si4 0.361386 0.407027 0.021628
Si Si5 0.569368 0.759308 0.172968
Si Si6 0.981032 0.189424 0.065732
O O1 0.596740 0.957233 0.467243
O O2 0.556000 0.864227 0.147719
O O3 0.480499 0.993058 0.236053
O O4 0.692163 0.084065 0.206260
O O5 0.624246 0.356423 0.388281
O O6 0.475868 0.169738 0.248308
O O7 0.663521 0.211522 0.378501
O O8 0.153070 0.169082 0.759664
O O9 0.346051 0.202126 0.839317
O O10 0.239227 0.076902 0.597691
O O11 0.295312 0.298629 0.135527
O O12 0.899425 0.089552 0.942242
#
# Coordination Sequence:
#
# PCOD9580245 Si02
#       6
#     6   6   6   6   6   6
#     4  11  27  45  73 107 150 196 258 321 396 469
#     4  11  25  45  73 109 148 199 256 316 388 463
#     4  10  20  40  66  97 137 189 242 308 380 460
#     4  11  27  47  73 109 147 203 248 323 390 472
#     4  11  23  42  70 105 143 193 251 315 387 467
#     4  10  24  45  75 107 149 196 253 311 387 467
#
# _framework density 27.302983000000001
#
# number of rings (size 3 to 8) (size 9 to 14) (size 15 to 20)
#    0.000    1.333    1.667    2.000    9.333    4.000 
#    0.000   10.000    0.000    0.000    0.000    0.000 
#    0.000    0.000    0.000    0.000    0.000    0.000 
#
# Total GULP energy -201285.542740 kJ/mol
# GULP energy per Si atom -5591.265076 kJ/mol
# Density = 2.724084 g / cm^3
# Si number density = 27.302983 Si / 1000 Ang^3
#
#
#
# Elastic Constant Matrix: (Units=GPa)
#
#
# Indices 1 2 3 4 5 6 
#
# 1 127.4831 46.1212 14.0936 0.0000 0.0000 0.0000
# 2 46.1212 127.4831 14.0936 0.0000 0.0000 0.0000
# 3 14.0936 14.0936 143.7426 0.0000 0.0000 0.0000
# 4 0.0000 0.0000 0.0000 31.2145 0.0000 0.0000
# 5 0.0000 0.0000 0.0000 0.0000 31.2145 0.0000
# 6 0.0000 0.0000 0.0000 0.0000 0.0000 40.6809
#
#
#
# Elastic Compliance Matrix: (Units=1/GPa)
#
#
# Indices 1 2 3 4 5 6 
#
# 1 0.009072 -0.003219 -0.000574 0.000000 0.000000 0.000000
# 2 -0.003219 0.009072 -0.000574 0.000000 0.000000 0.000000
# 3 -0.000574 -0.000574 0.007069 0.000000 0.000000 0.000000
# 4 0.000000 0.000000 0.000000 0.032036 0.000000 0.000000
# 5 0.000000 0.000000 0.000000 0.000000 0.032036 0.000000
# 6 0.000000 0.000000 0.000000 0.000000 0.000000 0.024582
#
#
# Mechanical properties :
#
#
# Convention : Reuss Voigt Hill
#
# Bulk Modulus (GPa) = 60.67743 60.81395 60.74569
# Shear Modulus (GPa) = 39.03371 42.24868 40.64120
#
# Velocity S-wave (km/s) = 3.78517 3.93797 3.86233
# Velocity P-wave (km/s) = 6.43237 6.55736 6.49516
#
# Compressibility (1/GPa) = 0.01648059
#
# Stress axis : x y z
#
# Youngs Moduli (GPa) = 110.22815 110.22815 141.45427
#
# Poissons Ratio (x) = 0.35479 0.08118
# Poissons Ratio (y) = 0.35479 0.08118
# Poissons Ratio (z) = 0.06326 0.06326
#
# Static dielectric constant tensor:
#      x y z
#    x 2.208110 0.000000 0.000000 
#    y 0.000000 2.208110 0.000000 
#    z 0.000000 0.000000 2.122990 
# 
# From -- ./inp_files/588.got.cif
#   From: 2010.05.17/outbox.cif.g08.bks.cpg/sg170_cif.got.tgz:588.got - 2010.05.20 11:14:30.
