data_PCOD9580280
_publ_section_title
;
Structure prediction by ZEFSAII (Michael W. Deem and Ramdas Pophale) SiO2 
 PCOD9580280
Probable space group: P 65
;
_chemical_formula_sum "Si O2"
_cell_formula_units_Z 42
_cell_length_a 11.494415
_cell_length_b 11.494415
_cell_length_c 14.651437
_cell_angle_alpha 90.000000
_cell_angle_beta 90.000000
_cell_angle_gamma 120.000000
_cell_volume 1676.426819
_symmetry_space_group_name_H-M "P 65"
_symmetry_group_IT_number 170
_symmetry_cell_setting 'hexagonal'
loop_
_space_group_symop_operation_xyz
x,y,z
x-y,x,5/6+z
-y,x-y,2/3+z
-x,-y,1/2+z
-x+y,-x,1/3+z
y,-x+y,1/6+z
loop_
_atom_site_type_symbol
_atom_site_label
_atom_site_fract_x
_atom_site_fract_y
_atom_site_fract_z
Si Si1 0.530933 0.278954 0.854930
Si Si2 0.902487 0.073277 0.987600
Si Si3 0.261041 0.461552 0.425145
Si Si4 0.359447 0.007910 0.238464
Si Si5 0.582860 0.681204 0.911547
Si Si6 0.482752 0.770163 0.578395
Si Si7 0.973226 0.564732 0.042563
O O1 0.643132 0.378784 0.926514
O O2 0.632051 0.269057 0.784013
O O3 0.473814 0.366976 0.806079
O O4 0.430971 0.123302 0.878364
O O5 0.762984 0.070297 0.002707
O O6 0.961692 0.070383 0.085532
O O7 0.987844 0.221161 0.947713
O O8 0.355084 0.403063 0.456240
O O9 0.204450 0.428380 0.320938
O O10 0.128559 0.406848 0.484197
O O11 0.435546 0.125491 0.163220
O O12 0.466468 0.023904 0.318668
O O13 0.281051 0.856624 0.198357
O O14 0.436927 0.589191 0.869595
#
# Coordination Sequence:
#
# PCOD9580280 Si02
#       7
#     6   6   6   6   6   6   6
#     4  10  23  41  64 103 145 191 241 309 385 457
#     4  12  25  44  75 116 151 206 272 333 398 491
#     4  11  22  42  67 102 142 191 238 317 383 468
#     4  11  20  39  69 102 152 197 254 317 389 475
#     4  11  22  41  64 106 145 189 257 316 394 466
#     4  10  22  39  63 106 146 196 241 317 391 468
#     4  11  22  40  66  99 149 192 243 309 384 463
#
# _framework density 25.053284999999999
#
# number of rings (size 3 to 8) (size 9 to 14) (size 15 to 20)
#    0.000    1.143    5.714    2.571    2.000    0.000 
#    5.143    0.000    3.143    0.000    3.714    0.000 
#    0.000    0.000    0.000    0.000    0.000    0.000 
#
# Total GULP energy -234725.311611 kJ/mol
# GULP energy per Si atom -5588.697896 kJ/mol
# Density = 2.499626 g / cm^3
# Si number density = 25.053285 Si / 1000 Ang^3
#
#
#
# Elastic Constant Matrix: (Units=GPa)
#
#
# Indices 1 2 3 4 5 6 
#
# 1 138.8564 75.3079 33.3043 0.0000 0.0000 0.0000
# 2 75.3079 138.8564 33.3043 0.0000 0.0000 0.0000
# 3 33.3043 33.3043 95.4895 0.0000 0.0000 0.0000
# 4 0.0000 0.0000 0.0000 42.9875 0.0000 0.0000
# 5 0.0000 0.0000 0.0000 0.0000 42.9875 0.0000
# 6 0.0000 0.0000 0.0000 0.0000 0.0000 31.7742
#
#
#
# Elastic Compliance Matrix: (Units=1/GPa)
#
#
# Indices 1 2 3 4 5 6 
#
# 1 0.010487 -0.005249 -0.001827 0.000000 0.000000 0.000000
# 2 -0.005249 0.010487 -0.001827 0.000000 0.000000 0.000000
# 3 -0.001827 -0.001827 0.011747 0.000000 0.000000 0.000000
# 4 0.000000 0.000000 0.000000 0.023263 0.000000 0.000000
# 5 0.000000 0.000000 0.000000 0.000000 0.023263 0.000000
# 6 0.000000 0.000000 0.000000 0.000000 0.000000 0.031472
#
#
# Mechanical properties :
#
#
# Convention : Reuss Voigt Hill
#
# Bulk Modulus (GPa) = 67.04798 73.00395 70.02596
# Shear Modulus (GPa) = 37.45485 38.96891 38.21188
#
# Velocity S-wave (km/s) = 3.87073 3.94819 3.90965
# Velocity P-wave (km/s) = 6.84083 7.07015 6.95643
#
# Compressibility (1/GPa) = 0.01491469
#
# Stress axis : x y z
#
# Youngs Moduli (GPa) = 95.35863 95.35863 85.13134
#
# Poissons Ratio (x) = 0.50056 0.15551
# Poissons Ratio (y) = 0.50056 0.15551
# Poissons Ratio (z) = 0.17419 0.17419
#
# Static dielectric constant tensor:
#      x y z
#    x 2.011500 0.000000 0.000000 
#    y 0.000000 2.011500 0.000000 
#    z 0.000000 0.000000 2.236800 
# 
# From -- ./inp_files/1404.got.cif
#   From: 2010.05.17/outbox.cif.g08.bks.cpg/sg170_cif.got.tgz:1404.got - 2010.05.20 11:14:30.
