data_PCOD9580655
_publ_section_title
;
Structure prediction by ZEFSAII (Michael W. Deem and Ramdas Pophale) SiO2 
 PCOD9580655
Probable space group: P 62
;
_chemical_formula_sum "Si O2"
_cell_formula_units_Z 33
_cell_length_a 14.258562
_cell_length_b 14.258562
_cell_length_c 7.519601
_cell_angle_alpha 90.000000
_cell_angle_beta 90.000000
_cell_angle_gamma 120.000000
_cell_volume 1323.966162
_symmetry_space_group_name_H-M "P 62"
_symmetry_group_IT_number 171
_symmetry_cell_setting 'hexagonal'
loop_
_space_group_symop_operation_xyz
x,y,z
x-y,x,1/3+z
-y,x-y,2/3+z
-x,-y,z
-x+y,-x,1/3+z
y,-x+y,2/3+z
loop_
_atom_site_type_symbol
_atom_site_label
_atom_site_fract_x
_atom_site_fract_y
_atom_site_fract_z
Si Si1 0.000000 0.500000 0.292500
Si Si2 0.894439 0.266379 0.421997
Si Si3 0.540743 0.711205 0.457090
Si Si4 0.865689 0.882654 0.057842
Si Si5 0.863777 0.377481 0.978543
Si Si6 0.698842 0.954393 0.125060
O O1 0.026407 0.605284 0.401869
O O2 0.100571 0.549966 0.155416
O O3 0.788237 0.221573 0.298782
O O4 0.873650 0.243178 0.631479
O O5 0.960800 0.207105 0.365426
O O6 0.475531 0.747521 0.327755
O O7 0.460817 0.585886 0.496259
O O8 0.658226 0.734191 0.396280
O O9 0.956025 0.892947 0.197022
O O10 0.797812 0.933575 0.150682
O O11 0.935579 0.319257 0.951451
#
# Coordination Sequence:
#
# PCOD9580655 Si02
#       6
#     3   6   6   6   6   6
#     4  10  22  40  68  96 134 188 224 294 362 440
#     4  10  25  43  72 102 142 186 242 306 370 448
#     4  11  25  45  66 103 142 185 238 306 363 444
#     4  10  23  46  75 112 151 208 260 325 384 464
#     4  11  23  42  67  98 141 182 232 295 363 436
#     4  11  23  47  73 101 142 197 244 306 373 447
#
# _framework density 24.92511
#
# number of rings (size 3 to 8) (size 9 to 14) (size 15 to 20)
#    0.000    1.455    1.818    2.182    7.636    1.455 
#    6.545    4.545    0.000    0.000    0.000    0.000 
#    0.000    0.000    0.000    0.000    0.000    0.000 
#
# Total GULP energy -184404.066154 kJ/mol
# GULP energy per Si atom -5588.002005 kJ/mol
# Density = 2.486838 g / cm^3
# Si number density = 24.925110 Si / 1000 Ang^3
#
#
#
# Elastic Constant Matrix: (Units=GPa)
#
#
# Indices 1 2 3 4 5 6 
#
# 1 113.9305 25.7906 16.1205 0.0000 0.0000 0.0000
# 2 25.7906 113.9305 16.1205 0.0000 0.0000 0.0000
# 3 16.1205 16.1205 82.9595 0.0000 0.0000 0.0000
# 4 0.0000 0.0000 0.0000 37.1920 0.0000 0.0000
# 5 0.0000 0.0000 0.0000 0.0000 37.1920 0.0000
# 6 0.0000 0.0000 0.0000 0.0000 0.0000 44.0699
#
#
#
# Elastic Compliance Matrix: (Units=1/GPa)
#
#
# Indices 1 2 3 4 5 6 
#
# 1 0.009419 -0.001926 -0.001456 0.000000 0.000000 0.000000
# 2 -0.001926 0.009419 -0.001456 0.000000 0.000000 0.000000
# 3 -0.001456 -0.001456 0.012620 0.000000 0.000000 0.000000
# 4 0.000000 0.000000 0.000000 0.026888 0.000000 0.000000
# 5 0.000000 0.000000 0.000000 0.000000 0.026888 0.000000
# 6 0.000000 0.000000 0.000000 0.000000 0.000000 0.022691
#
#
# Mechanical properties :
#
#
# Convention : Reuss Voigt Hill
#
# Bulk Modulus (GPa) = 45.90952 47.43152 46.67052
# Shear Modulus (GPa) = 40.04414 40.54337 40.29376
#
# Velocity S-wave (km/s) = 4.01256 4.03750 4.02505
# Velocity P-wave (km/s) = 6.31874 6.38797 6.35345
#
# Compressibility (1/GPa) = 0.02178198
#
# Stress axis : x y z
#
# Youngs Moduli (GPa) = 106.16444 106.16444 79.23968
#
# Poissons Ratio (x) = 0.20450 0.11538
# Poissons Ratio (y) = 0.20450 0.11538
# Poissons Ratio (z) = 0.15458 0.15458
#
# Static dielectric constant tensor:
#      x y z
#    x 1.994320 0.000000 0.000000 
#    y 0.000000 1.994320 0.000000 
#    z 0.000000 0.000000 2.021560 
# 
# From -- ./inp_files/1146.got.cif
#   From: 2010.05.17/outbox.cif.g08.bks.cpg/sg171_1_cif.got.tgz:1146.got - 2010.05.20 11:16:09.
