data_PCOD9580436
_publ_section_title
;
Structure prediction by ZEFSAII (Michael W. Deem and Ramdas Pophale) SiO2 
 PCOD9580436
Probable space group: P 62
;
_chemical_formula_sum "Si O2"
_cell_formula_units_Z 39
_cell_length_a 10.779506
_cell_length_b 10.779506
_cell_length_c 21.022678
_cell_angle_alpha 90.000000
_cell_angle_beta 90.000000
_cell_angle_gamma 120.000000
_cell_volume 2115.516355
_symmetry_space_group_name_H-M "P 62"
_symmetry_group_IT_number 171
_symmetry_cell_setting 'hexagonal'
loop_
_space_group_symop_operation_xyz
x,y,z
x-y,x,1/3+z
-y,x-y,2/3+z
-x,-y,z
-x+y,-x,1/3+z
y,-x+y,2/3+z
loop_
_atom_site_type_symbol
_atom_site_label
_atom_site_fract_x
_atom_site_fract_y
_atom_site_fract_z
Si Si1 0.405062 0.081643 0.783990
Si Si2 0.606660 0.169010 0.384274
Si Si3 0.859279 0.630378 0.365168
Si Si4 0.586833 0.169192 0.106908
Si Si5 0.000000 0.500000 0.271649
Si Si6 0.898997 0.336306 0.594537
Si Si7 0.414193 0.700604 0.577383
O O1 0.486953 0.245766 0.759506
O O2 0.369583 0.069809 0.858222
O O3 0.500000 0.000000 0.777591
O O4 0.262263 0.993182 0.741954
O O5 0.533495 0.263923 0.403392
O O6 0.655593 0.199351 0.310177
O O7 0.500000 0.000000 0.395036
O O8 0.740807 0.516768 0.412847
O O9 0.925388 0.560568 0.318065
O O10 0.769087 0.666328 0.315456
O O11 0.619907 0.199653 0.181691
O O12 0.500000 0.000000 0.095922
O O13 0.873025 0.368873 0.234115
O O14 0.746448 0.329018 0.586574
O O15 0.000000 0.500000 0.612096
#
# Coordination Sequence:
#
# PCOD9580436 Si02
#       7
#     6   6   6   6   3   6   6
#     4  11  17  37  60  88 122 164 212 265 307 382
#     4  12  24  38  59  92 126 158 204 265 326 376
#     4  11  18  35  58  88 116 159 210 261 297 380
#     4  12  23  37  57  91 128 159 201 260 329 385
#     4  10  18  34  62  84 118 154 216 254 308 366
#     4  10  19  30  58  92 121 156 213 259 315 376
#     4  11  21  36  56  89 125 159 199 266 322 379
#
# _framework density 18.435214999999999
#
# number of rings (size 3 to 8) (size 9 to 14) (size 15 to 20)
#    0.000    0.923    8.462    1.846    1.077    0.000 
#    0.000    0.000    0.000    0.923    0.000    0.000 
#    0.000    0.000    0.000    0.000    0.000    0.000 
#
# Total GULP energy -217178.285547 kJ/mol
# GULP energy per Si atom -5568.673988 kJ/mol
# Density = 1.839326 g / cm^3
# Si number density = 18.435215 Si / 1000 Ang^3
#
#
#
# Elastic Constant Matrix: (Units=GPa)
#
#
# Indices 1 2 3 4 5 6 
#
# 1 89.1026 43.2520 27.2111 0.0000 0.0000 0.0000
# 2 43.2520 89.1026 27.2111 0.0000 0.0000 0.0000
# 3 27.2111 27.2111 125.0978 0.0000 0.0000 0.0000
# 4 0.0000 0.0000 0.0000 -21.8491 0.0000 0.0000
# 5 0.0000 0.0000 0.0000 0.0000 -21.8491 0.0000
# 6 0.0000 0.0000 0.0000 0.0000 0.0000 22.9253
#
#
#
# Elastic Compliance Matrix: (Units=1/GPa)
#
#
# Indices 1 2 3 4 5 6 
#
# 1 0.015054 -0.006756 -0.001805 0.000000 0.000000 0.000000
# 2 -0.006756 0.015054 -0.001805 0.000000 0.000000 0.000000
# 3 -0.001805 -0.001805 0.008779 0.000000 0.000000 0.000000
# 4 0.000000 0.000000 0.000000 -0.045768 0.000000 0.000000
# 5 0.000000 0.000000 0.000000 0.000000 -0.045768 0.000000
# 6 0.000000 0.000000 0.000000 0.000000 0.000000 0.043620
#
#
# Mechanical properties :
#
#
# Convention : Reuss Voigt Hill
#
# Bulk Modulus (GPa) = 55.08245 55.40573 55.24409
# Shear Modulus (GPa) = 281.64182 9.55399 145.59790
#
# Velocity S-wave (km/s) = 12.37358 2.27897 8.89661
# Velocity P-wave (km/s) = 15.29982 6.08642 11.64322
#
# Compressibility (1/GPa) = 0.01815460
#
# Stress axis : x y z
#
# Youngs Moduli (GPa) = 66.42847 66.42847 113.90894
#
# Poissons Ratio (x) = 0.44880 0.20559
# Poissons Ratio (y) = 0.44880 0.20559
# Poissons Ratio (z) = 0.11990 0.11990
#
# Static dielectric constant tensor:
#      x y z
#    x 2.004480 0.000000 0.000000 
#    y 0.000000 2.004480 0.000000 
#    z 0.000000 0.000000 1.718090 
# 
# From -- ./inp_files/3952.got.cif
#   From: 2010.05.17/outbox.cif.g08.bks.cpg/sg171_2_cif.got.tgz:3952.got - 2010.05.20 11:16:09.
