data_PCOD9580819
_publ_section_title
;
Structure prediction by ZEFSAII (Michael W. Deem and Ramdas Pophale) SiO2 
 PCOD9580819
Probable space group: P 62
;
_chemical_formula_sum "Si O2"
_cell_formula_units_Z 30
_cell_length_a 17.062723
_cell_length_b 17.062723
_cell_length_c 5.119792
_cell_angle_alpha 90.000000
_cell_angle_beta 90.000000
_cell_angle_gamma 120.000000
_cell_volume 1290.861446
_symmetry_space_group_name_H-M "P 62"
_symmetry_group_IT_number 171
_symmetry_cell_setting 'hexagonal'
loop_
_space_group_symop_operation_xyz
x,y,z
x-y,x,1/3+z
-y,x-y,2/3+z
-x,-y,z
-x+y,-x,1/3+z
y,-x+y,2/3+z
loop_
_atom_site_type_symbol
_atom_site_label
_atom_site_fract_x
_atom_site_fract_y
_atom_site_fract_z
Si Si1 0.279392 0.510891 0.867820
Si Si2 0.191566 0.318442 0.009176
Si Si3 0.333383 0.269213 0.122569
Si Si4 0.937127 0.830518 0.716731
Si Si5 0.809470 0.464423 0.386946
O O1 0.265245 0.558292 0.614210
O O2 0.230801 0.403711 0.810511
O O3 0.225564 0.517837 0.114919
O O4 0.381282 0.557798 0.976559
O O5 0.287300 0.331227 0.106546
O O6 0.123755 0.324857 0.217728
O O7 0.144135 0.212072 0.927691
O O8 0.265675 0.197007 0.334830
O O9 0.440887 0.333887 0.153116
O O10 0.903238 0.870489 0.493101
#
# Coordination Sequence:
#
# PCOD9580819 Si02
#       5
#     6   6   6   6   6
#     4  11  23  41  68 101 139 184 234 291 353 421
#     4  11  23  41  66  96 136 184 228 288 360 427
#     4  11  23  41  66  96 136 184 228 288 360 427
#     4  12  24  44  73  98 140 184 238 296 359 430
#     4  11  23  41  68 101 139 184 234 291 353 421
#
# _framework density 23.240293000000001
#
# number of rings (size 3 to 8) (size 9 to 14) (size 15 to 20)
#    0.000    0.800    6.000    2.400    0.000    0.800 
#    0.000    5.000    0.000    4.800    0.000    0.000 
#    0.000    0.000    0.000    0.000    0.000    0.000 
#
# Total GULP energy -167148.650246 kJ/mol
# GULP energy per Si atom -5571.621675 kJ/mol
# Density = 2.318740 g / cm^3
# Si number density = 23.240293 Si / 1000 Ang^3
#
#
#
# Elastic Constant Matrix: (Units=GPa)
#
#
# Indices 1 2 3 4 5 6 
#
# 1 84.6470 46.3382 16.1540 0.0000 0.0000 0.0000
# 2 46.3382 84.6470 16.1540 0.0000 0.0000 0.0000
# 3 16.1540 16.1540 63.8744 0.0000 0.0000 0.0000
# 4 0.0000 0.0000 0.0000 28.5528 0.0000 0.0000
# 5 0.0000 0.0000 0.0000 0.0000 28.5528 0.0000
# 6 0.0000 0.0000 0.0000 0.0000 0.0000 19.1544
#
#
#
# Elastic Compliance Matrix: (Units=1/GPa)
#
#
# Indices 1 2 3 4 5 6 
#
# 1 0.017123 -0.008981 -0.002059 0.000000 0.000000 0.000000
# 2 -0.008981 0.017123 -0.002059 0.000000 0.000000 0.000000
# 3 -0.002059 -0.002059 0.016697 0.000000 0.000000 0.000000
# 4 0.000000 0.000000 0.000000 0.035023 0.000000 0.000000
# 5 0.000000 0.000000 0.000000 0.000000 0.035023 0.000000
# 6 0.000000 0.000000 0.000000 0.000000 0.000000 0.052207
#
#
# Mechanical properties :
#
#
# Convention : Reuss Voigt Hill
#
# Bulk Modulus (GPa) = 40.41200 43.38454 41.89827
# Shear Modulus (GPa) = 24.07981 25.55349 24.81665
#
# Velocity S-wave (km/s) = 3.22238 3.31952 3.27131
# Velocity P-wave (km/s) = 5.59209 5.77933 5.68648
#
# Compressibility (1/GPa) = 0.02474513
#
# Stress axis : x y z
#
# Youngs Moduli (GPa) = 58.40093 58.40093 59.88995
#
# Poissons Ratio (x) = 0.52448 0.12333
# Poissons Ratio (y) = 0.52448 0.12333
# Poissons Ratio (z) = 0.12026 0.12026
#
# Static dielectric constant tensor:
#      x y z
#    x 2.027320 0.000000 0.000000 
#    y 0.000000 2.027320 0.000000 
#    z 0.000000 0.000000 2.441770 
# 
# From -- ./inp_files/309.got.cif
#   From: 2010.05.17/outbox.cif.g08.bks.cpg/sg171_1_cif.got.tgz:309.got - 2010.05.20 11:16:09.
