data_PCOD9580062
_publ_section_title
;
Structure prediction by ZEFSAII (Michael W. Deem and Ramdas Pophale) SiO2 
 PCOD9580062
Probable space group: P 61
;
_chemical_formula_sum "Si O2"
_cell_formula_units_Z 42
_cell_length_a 8.945199
_cell_length_b 8.945199
_cell_length_c 26.361526
_cell_angle_alpha 90.000000
_cell_angle_beta 90.000000
_cell_angle_gamma 120.000000
_cell_volume 1826.758731
_symmetry_space_group_name_H-M "P 61"
_symmetry_group_IT_number 169
_symmetry_cell_setting 'hexagonal'
loop_
_space_group_symop_operation_xyz
x,y,z
x-y,x,1/6+z
-y,x-y,1/3+z
-x,-y,1/2+z
-x+y,-x,2/3+z
y,-x+y,5/6+z
loop_
_atom_site_type_symbol
_atom_site_label
_atom_site_fract_x
_atom_site_fract_y
_atom_site_fract_z
Si Si1 0.990348 0.771966 0.573960
Si Si2 0.557640 0.962418 0.570374
Si Si3 0.111359 0.170574 0.562454
Si Si4 0.120325 0.795501 0.129999
Si Si5 0.730538 0.232339 0.888045
Si Si6 0.723382 0.195254 0.148148
Si Si7 0.722285 0.254494 0.310438
O O1 0.936052 0.677246 0.519752
O O2 0.840902 0.646716 0.612780
O O3 0.154653 0.774708 0.599819
O O4 0.022455 0.964689 0.569498
O O5 0.464474 0.888436 0.623959
O O6 0.512297 0.807409 0.532103
O O7 0.755896 0.094435 0.583564
O O8 0.490588 0.085763 0.547643
O O9 0.074979 0.236326 0.509938
O O10 0.313599 0.242957 0.555708
O O11 0.067587 0.255509 0.609215
O O12 0.149484 0.636303 0.142824
O O13 0.595274 0.230898 0.847476
O O14 0.659367 0.239415 0.943803
#
# Coordination Sequence:
#
# PCOD9580062 Si02
#       7
#     6   6   6   6   6   6   6
#     4  11  25  46  75 111 146 207 243 319 374 465
#     4  11  26  46  78 106 153 200 249 312 377 464
#     4  12  26  46  73 110 149 187 254 307 376 432
#     4  11  29  45  73 111 152 191 247 324 367 449
#     4  10  25  47  74 115 140 199 244 316 368 457
#     4  11  25  46  79 107 160 192 260 303 394 453
#     4  10  26  50  74 106 152 196 253 293 396 446
#
# _framework density 22.991543
#
# number of rings (size 3 to 8) (size 9 to 14) (size 15 to 20)
#    0.000    1.143    1.429    1.714   16.000    1.143 
#    2.571    0.000    0.000    0.000    0.000    0.000 
#    0.000    0.000    0.000    0.000    0.000    0.000 
#
# Total GULP energy -234927.836305 kJ/mol
# GULP energy per Si atom -5593.519912 kJ/mol
# Density = 2.293921 g / cm^3
# Si number density = 22.991543 Si / 1000 Ang^3
#
#
#
# Elastic Constant Matrix: (Units=GPa)
#
#
# Indices 1 2 3 4 5 6 
#
# 1 99.7680 52.6758 50.9658 0.0000 0.0000 0.0000
# 2 52.6758 99.7680 50.9658 0.0000 0.0000 0.0000
# 3 50.9658 50.9658 78.9979 0.0000 0.0000 0.0000
# 4 0.0000 0.0000 0.0000 29.9180 0.0000 0.0000
# 5 0.0000 0.0000 0.0000 0.0000 29.9180 0.0000
# 6 0.0000 0.0000 0.0000 0.0000 0.0000 23.5461
#
#
#
# Elastic Compliance Matrix: (Units=1/GPa)
#
#
# Indices 1 2 3 4 5 6 
#
# 1 0.016386 -0.004849 -0.007443 0.000000 0.000000 0.000000
# 2 -0.004849 0.016386 -0.007443 0.000000 0.000000 0.000000
# 3 -0.007443 -0.007443 0.022262 0.000000 0.000000 0.000000
# 4 0.000000 0.000000 0.000000 0.033425 0.000000 0.000000
# 5 0.000000 0.000000 0.000000 0.000000 0.033425 0.000000
# 6 0.000000 0.000000 0.000000 0.000000 0.000000 0.042470
#
#
# Mechanical properties :
#
#
# Convention : Reuss Voigt Hill
#
# Bulk Modulus (GPa) = 64.25169 65.30541 64.77855
# Shear Modulus (GPa) = 23.92229 24.93817 24.43023
#
# Velocity S-wave (km/s) = 3.22915 3.29700 3.26325
# Velocity P-wave (km/s) = 6.47377 6.55434 6.51418
#
# Compressibility (1/GPa) = 0.01556379
#
# Stress axis : x y z
#
# Youngs Moduli (GPa) = 61.02895 61.02895 44.91969
#
# Poissons Ratio (x) = 0.29595 0.33432
# Poissons Ratio (y) = 0.29595 0.33432
# Poissons Ratio (z) = 0.45422 0.45422
#
# Static dielectric constant tensor:
#      x y z
#    x 1.887210 0.000000 0.000000 
#    y 0.000000 1.887210 0.000000 
#    z 0.000000 0.000000 1.924890 
# 
# From -- ./inp_files/1830.got.cif
#   From: 2010.05.17/outbox.cif.g08.bks.cpg/sg169_cif.got.tgz:1830.got - 2010.05.20 11:12:54.
