data_PCOD9580771
_publ_section_title
;
Structure prediction by ZEFSAII (Michael W. Deem and Ramdas Pophale) SiO2 
 PCOD9580771
Probable space group: P 62
;
_chemical_formula_sum "Si O2"
_cell_formula_units_Z 21
_cell_length_a 10.329934
_cell_length_b 10.329934
_cell_length_c 7.921005
_cell_angle_alpha 90.000000
_cell_angle_beta 90.000000
_cell_angle_gamma 120.000000
_cell_volume 731.991457
_symmetry_space_group_name_H-M "P 62"
_symmetry_group_IT_number 171
_symmetry_cell_setting 'hexagonal'
loop_
_space_group_symop_operation_xyz
x,y,z
x-y,x,1/3+z
-y,x-y,2/3+z
-x,-y,z
-x+y,-x,1/3+z
y,-x+y,2/3+z
loop_
_atom_site_type_symbol
_atom_site_label
_atom_site_fract_x
_atom_site_fract_y
_atom_site_fract_z
Si Si1 0.788723 0.489896 0.801480
Si Si2 0.848662 0.044545 0.258995
Si Si3 0.416185 0.256611 0.131517
Si Si4 0.500000 0.000000 0.526183
O O1 0.754035 0.320998 0.791387
O O2 0.899425 0.565947 0.645116
O O3 0.631032 0.486090 0.769015
O O4 0.863153 0.621769 0.941107
O O5 0.854464 0.984585 0.451250
O O6 0.735900 0.895746 0.155485
O O7 0.419919 0.357474 0.981464
#
# Coordination Sequence:
#
# PCOD9580771 Si02
#       4
#     6   6   6   3
#     4  11  25  46  78 117 169 221 283 355 435 525
#     4  10  25  48  81 120 174 227 301 358 452 524
#     4  11  25  46  78 117 169 221 283 355 435 525
#     4  12  28  48  80 124 164 224 292 350 448 526
#
# _framework density 28.688862
#
# number of rings (size 3 to 8) (size 9 to 14) (size 15 to 20)
#    0.000    1.143    2.857    0.857   16.000    0.000 
#    0.000    7.143    0.000    0.000    0.000    0.000 
#    0.000    0.000    0.000    0.000    0.000    0.000 
#
# Total GULP energy -117282.727153 kJ/mol
# GULP energy per Si atom -5584.891769 kJ/mol
# Density = 2.862357 g / cm^3
# Si number density = 28.688862 Si / 1000 Ang^3
#
#
#
# Elastic Constant Matrix: (Units=GPa)
#
#
# Indices 1 2 3 4 5 6 
#
# 1 190.1542 55.9865 38.7787 0.0000 0.0000 0.0000
# 2 55.9865 190.1542 38.7787 0.0000 0.0000 0.0000
# 3 38.7787 38.7787 146.6423 0.0000 0.0000 0.0000
# 4 0.0000 0.0000 0.0000 42.0505 0.0000 0.0000
# 5 0.0000 0.0000 0.0000 0.0000 42.0505 0.0000
# 6 0.0000 0.0000 0.0000 0.0000 0.0000 67.0838
#
#
#
# Elastic Compliance Matrix: (Units=1/GPa)
#
#
# Indices 1 2 3 4 5 6 
#
# 1 0.005943 -0.001511 -0.001172 0.000000 0.000000 0.000000
# 2 -0.001511 0.005943 -0.001172 0.000000 0.000000 0.000000
# 3 -0.001172 -0.001172 0.007439 0.000000 0.000000 0.000000
# 4 0.000000 0.000000 0.000000 0.023781 0.000000 0.000000
# 5 0.000000 0.000000 0.000000 0.000000 0.023781 0.000000
# 6 0.000000 0.000000 0.000000 0.000000 0.000000 0.014907
#
#
# Mechanical properties :
#
#
# Convention : Reuss Voigt Hill
#
# Bulk Modulus (GPa) = 86.09463 88.22653 87.16058
# Shear Modulus (GPa) = 53.54797 56.46411 55.00604
#
# Velocity S-wave (km/s) = 4.32500 4.44120 4.38348
# Velocity P-wave (km/s) = 7.41726 7.55769 7.48780
#
# Compressibility (1/GPa) = 0.01161513
#
# Stress axis : x y z
#
# Youngs Moduli (GPa) = 168.27409 168.27409 134.42334
#
# Poissons Ratio (x) = 0.25421 0.15755
# Poissons Ratio (y) = 0.25421 0.15755
# Poissons Ratio (z) = 0.19722 0.19722
#
# Static dielectric constant tensor:
#      x y z
#    x 2.295070 0.000000 0.000000 
#    y 0.000000 2.295070 0.000000 
#    z 0.000000 0.000000 2.293020 
# 
# From -- ./inp_files/4391.got.cif
#   From: 2010.05.17/outbox.cif.g08.bks.cpg/sg171_3_cif.got.tgz:4391.got - 2010.05.20 11:16:09.
