data_PCOD9580118
_publ_section_title
;
Structure prediction by ZEFSAII (Michael W. Deem and Ramdas Pophale) SiO2 
 PCOD9580118
Probable space group: P 61
;
_chemical_formula_sum "Si O2"
_cell_formula_units_Z 42
_cell_length_a 8.032205
_cell_length_b 8.032205
_cell_length_c 28.074126
_cell_angle_alpha 90.000000
_cell_angle_beta 90.000000
_cell_angle_gamma 120.000000
_cell_volume 1568.579174
_symmetry_space_group_name_H-M "P 61"
_symmetry_group_IT_number 169
_symmetry_cell_setting 'hexagonal'
loop_
_space_group_symop_operation_xyz
x,y,z
x-y,x,1/6+z
-y,x-y,1/3+z
-x,-y,1/2+z
-x+y,-x,2/3+z
y,-x+y,5/6+z
loop_
_atom_site_type_symbol
_atom_site_label
_atom_site_fract_x
_atom_site_fract_y
_atom_site_fract_z
Si Si1 0.004728 0.981241 0.832000
Si Si2 0.961570 0.739765 0.744816
Si Si3 0.414737 0.192460 0.377570
Si Si4 0.393161 0.751400 0.638327
Si Si5 0.440867 0.409972 0.462924
Si Si6 0.644374 0.307376 0.907701
Si Si7 0.432559 0.151593 0.660922
O O1 0.124508 0.900914 0.860234
O O2 0.118382 0.213781 0.840867
O O3 0.994380 0.918992 0.777543
O O4 0.786113 0.857236 0.851573
O O5 0.161012 0.743340 0.740006
O O6 0.802853 0.546182 0.770515
O O7 0.382121 0.214271 0.433376
O O8 0.622316 0.380586 0.363067
O O9 0.423717 0.018713 0.351846
O O10 0.169808 0.665833 0.623871
O O11 0.378219 0.645478 0.688722
O O12 0.448567 0.964403 0.649906
O O13 0.341552 0.506903 0.434305
O O14 0.735716 0.223479 0.944286
#
# Coordination Sequence:
#
# PCOD9580118 Si02
#       7
#     6   6   6   6   6   6   6
#     4  12  25  48  77 109 148 200 254 322 386 476
#     4  12  27  45  77 108 149 196 253 317 393 471
#     4  11  24  45  74 108 142 198 245 316 383 462
#     4  12  26  45  71 108 145 194 255 313 386 477
#     4  11  25  45  74 102 153 193 247 317 385 461
#     4  11  26  49  68 108 149 193 254 313 389 469
#     4  11  25  47  73 105 146 192 252 310 382 466
#
# _framework density 26.775825999999999
#
# number of rings (size 3 to 8) (size 9 to 14) (size 15 to 20)
#    0.000    0.571    4.286    1.714    8.000    2.286 
#    0.000    0.000    0.000    0.000    0.000    0.000 
#    0.000    0.000    0.000    0.000    0.000    0.000 
#
# Total GULP energy -234514.470518 kJ/mol
# GULP energy per Si atom -5583.677869 kJ/mol
# Density = 2.671488 g / cm^3
# Si number density = 26.775826 Si / 1000 Ang^3
#
#
#
# Elastic Constant Matrix: (Units=GPa)
#
#
# Indices 1 2 3 4 5 6 
#
# 1 80.2201 30.0822 18.1594 0.0000 0.0000 0.0000
# 2 30.0822 80.2201 18.1594 0.0000 0.0000 0.0000
# 3 18.1594 18.1594 105.4345 0.0000 0.0000 0.0000
# 4 0.0000 0.0000 0.0000 33.3685 0.0000 0.0000
# 5 0.0000 0.0000 0.0000 0.0000 33.3685 0.0000
# 6 0.0000 0.0000 0.0000 0.0000 0.0000 25.0690
#
#
#
# Elastic Compliance Matrix: (Units=1/GPa)
#
#
# Indices 1 2 3 4 5 6 
#
# 1 0.014778 -0.005167 -0.001655 0.000000 0.000000 0.000000
# 2 -0.005167 0.014778 -0.001655 0.000000 0.000000 0.000000
# 3 -0.001655 -0.001655 0.010055 0.000000 0.000000 0.000000
# 4 0.000000 0.000000 0.000000 0.029968 0.000000 0.000000
# 5 0.000000 0.000000 0.000000 0.000000 0.029968 0.000000
# 6 0.000000 0.000000 0.000000 0.000000 0.000000 0.039890
#
#
# Mechanical properties :
#
#
# Convention : Reuss Voigt Hill
#
# Bulk Modulus (GPa) = 44.13943 44.29739 44.21841
# Shear Modulus (GPa) = 30.49811 31.65946 31.07878
#
# Velocity S-wave (km/s) = 3.37859 3.44232 3.41061
# Velocity P-wave (km/s) = 5.63387 5.69027 5.66214
#
# Compressibility (1/GPa) = 0.02265548
#
# Stress axis : x y z
#
# Youngs Moduli (GPa) = 67.66814 67.66814 99.45522
#
# Poissons Ratio (x) = 0.34964 0.16463
# Poissons Ratio (y) = 0.34964 0.16463
# Poissons Ratio (z) = 0.11201 0.11201
#
# Static dielectric constant tensor:
#      x y z
#    x 2.204320 0.000000 0.000000 
#    y 0.000000 2.204320 0.000000 
#    z 0.000000 0.000000 2.296080 
# 
# From -- ./inp_files/1868.got.cif
#   From: 2010.05.17/outbox.cif.g08.bks.cpg/sg169_cif.got.tgz:1868.got - 2010.05.20 11:12:54.
