data_PCOD9580017
_publ_section_title
;
Structure prediction by ZEFSAII (Michael W. Deem and Ramdas Pophale) SiO2 
 PCOD9580017
Probable space group: P 61
;
_chemical_formula_sum "Si O2"
_cell_formula_units_Z 42
_cell_length_a 8.219182
_cell_length_b 8.219182
_cell_length_c 30.204572
_cell_angle_alpha 90.000000
_cell_angle_beta 90.000000
_cell_angle_gamma 120.000000
_cell_volume 1767.097500
_symmetry_space_group_name_H-M "P 61"
_symmetry_group_IT_number 169
_symmetry_cell_setting 'hexagonal'
loop_
_space_group_symop_operation_xyz
x,y,z
x-y,x,1/6+z
-y,x-y,1/3+z
-x,-y,1/2+z
-x+y,-x,2/3+z
y,-x+y,5/6+z
loop_
_atom_site_type_symbol
_atom_site_label
_atom_site_fract_x
_atom_site_fract_y
_atom_site_fract_z
Si Si1 0.098152 0.731202 0.019680
Si Si2 0.144366 0.245209 0.448030
Si Si3 0.016910 0.821517 0.360643
Si Si4 0.316273 0.942519 0.724785
Si Si5 0.508618 0.594625 0.065968
Si Si6 0.513141 0.986603 0.493503
Si Si7 0.504490 0.393503 0.977471
O O1 0.050345 0.825409 0.062154
O O2 0.012237 0.509934 0.028517
O O3 0.040491 0.774294 0.971737
O O4 0.322374 0.837722 0.017892
O O5 0.294999 0.465423 0.455227
O O6 0.182429 0.114874 0.481869
O O7 0.834405 0.833145 0.375354
O O8 0.918097 0.600168 0.350679
O O9 0.185661 0.852440 0.393956
O O10 0.224220 0.718170 0.733719
O O11 0.383092 0.026146 0.774235
O O12 0.548564 0.514114 0.110222
O O13 0.524665 0.502568 0.021703
O O14 0.549917 0.814352 0.491242
#
# Coordination Sequence:
#
# PCOD9580017 Si02
#       7
#     6   6   6   6   6   6   6
#     4  11  24  46  67 105 143 193 247 306 386 460
#     4  10  25  43  69  98 144 186 247 307 371 465
#     4  11  24  44  71 103 139 195 244 307 372 445
#     4  10  22  45  71 101 143 189 244 304 372 451
#     4  10  23  45  65 104 142 183 244 302 368 452
#     4  11  24  42  70  98 143 186 238 310 374 444
#     4   9  22  43  65  97 140 184 236 302 367 445
#
# _framework density 23.767786999999998
#
# number of rings (size 3 to 8) (size 9 to 14) (size 15 to 20)
#    0.000    1.714    1.429    0.857    8.000    2.286 
#    5.143    0.000    0.000    0.000    0.000    0.000 
#    0.000    0.000    0.000    0.000    0.000    0.000 
#
# Total GULP energy -233973.309815 kJ/mol
# GULP energy per Si atom -5570.793091 kJ/mol
# Density = 2.371369 g / cm^3
# Si number density = 23.767787 Si / 1000 Ang^3
#
#
#
# Elastic Constant Matrix: (Units=GPa)
#
#
# Indices 1 2 3 4 5 6 
#
# 1 82.7991 34.7483 19.1214 0.0000 0.0000 0.0000
# 2 34.7483 82.7991 19.1214 0.0000 0.0000 0.0000
# 3 19.1214 19.1214 66.2980 0.0000 0.0000 0.0000
# 4 0.0000 0.0000 0.0000 22.4514 0.0000 0.0000
# 5 0.0000 0.0000 0.0000 0.0000 22.4514 0.0000
# 6 0.0000 0.0000 0.0000 0.0000 0.0000 24.0254
#
#
#
# Elastic Compliance Matrix: (Units=1/GPa)
#
#
# Indices 1 2 3 4 5 6 
#
# 1 0.015100 -0.005712 -0.002708 0.000000 0.000000 0.000000
# 2 -0.005712 0.015100 -0.002708 0.000000 0.000000 0.000000
# 3 -0.002708 -0.002708 0.016645 0.000000 0.000000 0.000000
# 4 0.000000 0.000000 0.000000 0.044541 0.000000 0.000000
# 5 0.000000 0.000000 0.000000 0.000000 0.044541 0.000000
# 6 0.000000 0.000000 0.000000 0.000000 0.000000 0.041623
#
#
# Mechanical properties :
#
#
# Convention : Reuss Voigt Hill
#
# Bulk Modulus (GPa) = 40.66563 41.98650 41.32606
# Shear Modulus (GPa) = 24.03852 24.37932 24.20892
#
# Velocity S-wave (km/s) = 3.18369 3.20618 3.19495
# Velocity P-wave (km/s) = 5.53725 5.60444 5.57095
#
# Compressibility (1/GPa) = 0.02459079
#
# Stress axis : x y z
#
# Youngs Moduli (GPa) = 66.22648 66.22648 60.07703
#
# Poissons Ratio (x) = 0.37826 0.16267
# Poissons Ratio (y) = 0.37826 0.16267
# Poissons Ratio (z) = 0.17932 0.17932
#
# Static dielectric constant tensor:
#      x y z
#    x 1.970470 0.000000 0.000000 
#    y 0.000000 1.970470 0.000000 
#    z 0.000000 0.000000 2.111680 
# 
# From -- ./inp_files/1858.got.cif
#   From: 2010.05.17/outbox.cif.g08.bks.cpg/sg169_cif.got.tgz:1858.got - 2010.05.20 11:12:54.
