data_PCOD9580085
_publ_section_title
;
Structure prediction by ZEFSAII (Michael W. Deem and Ramdas Pophale) SiO2 
 PCOD9580085
Probable space group: P 61
;
_chemical_formula_sum "Si O2"
_cell_formula_units_Z 30
_cell_length_a 11.018655
_cell_length_b 11.018655
_cell_length_c 14.406743
_cell_angle_alpha 90.000000
_cell_angle_beta 90.000000
_cell_angle_gamma 120.000000
_cell_volume 1514.794122
_symmetry_space_group_name_H-M "P 61"
_symmetry_group_IT_number 169
_symmetry_cell_setting 'hexagonal'
loop_
_space_group_symop_operation_xyz
x,y,z
x-y,x,1/6+z
-y,x-y,1/3+z
-x,-y,1/2+z
-x+y,-x,2/3+z
y,-x+y,5/6+z
loop_
_atom_site_type_symbol
_atom_site_label
_atom_site_fract_x
_atom_site_fract_y
_atom_site_fract_z
Si Si1 0.652813 0.344912 0.545920
Si Si2 0.417423 0.372676 0.853663
Si Si3 0.490040 0.316926 0.361586
Si Si4 0.821749 0.930556 0.882985
Si Si5 0.774890 0.146216 0.999155
O O1 0.794728 0.496676 0.555672
O O2 0.600373 0.322454 0.439264
O O3 0.692136 0.236390 0.592815
O O4 0.512920 0.305439 0.604880
O O5 0.512090 0.538599 0.869228
O O6 0.388263 0.333314 0.745235
O O7 0.265107 0.348094 0.883614
O O8 0.338383 0.190060 0.380418
O O9 0.883146 0.975781 0.781209
O O10 0.759993 0.820823 0.099379
#
# Coordination Sequence:
#
# PCOD9580085 Si02
#       5
#     6   6   6   6   6
#     4  11  21  39  64 101 132 174 222 282 345 404
#     4  11  21  41  63  97 135 172 222 288 338 418
#     4  11  23  40  66 100 139 173 226 286 346 414
#     4  12  23  42  71  96 132 183 232 280 348 422
#     4  11  22  40  66  94 130 180 226 274 345 416
#
# _framework density 19.804672
#
# number of rings (size 3 to 8) (size 9 to 14) (size 15 to 20)
#    0.000    0.800    8.000    2.400    0.000    0.000 
#    0.000    2.000    0.000    0.000    0.000    0.000 
#    0.000    0.000    0.000    0.000    0.000    0.000 
#
# Total GULP energy -167179.364717 kJ/mol
# GULP energy per Si atom -5572.645491 kJ/mol
# Density = 1.975960 g / cm^3
# Si number density = 19.804672 Si / 1000 Ang^3
#
#
#
# Elastic Constant Matrix: (Units=GPa)
#
#
# Indices 1 2 3 4 5 6 
#
# 1 83.6812 29.6422 25.6500 0.0000 0.0000 0.0000
# 2 29.6422 83.6812 25.6500 0.0000 0.0000 0.0000
# 3 25.6500 25.6500 68.9731 0.0000 0.0000 0.0000
# 4 0.0000 0.0000 0.0000 32.3877 0.0000 0.0000
# 5 0.0000 0.0000 0.0000 0.0000 32.3877 0.0000
# 6 0.0000 0.0000 0.0000 0.0000 0.0000 27.0195
#
#
#
# Elastic Compliance Matrix: (Units=1/GPa)
#
#
# Indices 1 2 3 4 5 6 
#
# 1 0.014558 -0.003947 -0.003946 0.000000 0.000000 0.000000
# 2 -0.003947 0.014558 -0.003946 0.000000 0.000000 0.000000
# 3 -0.003946 -0.003946 0.017433 0.000000 0.000000 0.000000
# 4 0.000000 0.000000 0.000000 0.030876 0.000000 0.000000
# 5 0.000000 0.000000 0.000000 0.000000 0.030876 0.000000
# 6 0.000000 0.000000 0.000000 0.000000 0.000000 0.037010
#
#
# Mechanical properties :
#
#
# Convention : Reuss Voigt Hill
#
# Bulk Modulus (GPa) = 43.72398 44.24668 43.98533
# Shear Modulus (GPa) = 28.31050 28.71853 28.51451
#
# Velocity S-wave (km/s) = 3.78496 3.81213 3.79857
# Velocity P-wave (km/s) = 6.42080 6.46270 6.44179
#
# Compressibility (1/GPa) = 0.02287075
#
# Stress axis : x y z
#
# Youngs Moduli (GPa) = 68.69136 68.69136 57.36169
#
# Poissons Ratio (x) = 0.27115 0.22634
# Poissons Ratio (y) = 0.27115 0.22634
# Poissons Ratio (z) = 0.27105 0.27105
#
# Static dielectric constant tensor:
#      x y z
#    x 1.712860 0.000000 0.000000 
#    y 0.000000 1.712860 0.000000 
#    z 0.000000 0.000000 1.701150 
# 
# From -- ./inp_files/1129.got.cif
#   From: 2010.05.17/outbox.cif.g08.bks.cpg/sg169_cif.got.tgz:1129.got - 2010.05.20 11:12:54.
