data_PCOD9580134
_publ_section_title
;
Structure prediction by ZEFSAII (Michael W. Deem and Ramdas Pophale) SiO2 
 PCOD9580134
Probable space group: P 61
;
_chemical_formula_sum "Si O2"
_cell_formula_units_Z 36
_cell_length_a 9.024777
_cell_length_b 9.024777
_cell_length_c 23.510388
_cell_angle_alpha 90.000000
_cell_angle_beta 90.000000
_cell_angle_gamma 120.000000
_cell_volume 1658.301093
_symmetry_space_group_name_H-M "P 61"
_symmetry_group_IT_number 169
_symmetry_cell_setting 'hexagonal'
loop_
_space_group_symop_operation_xyz
x,y,z
x-y,x,1/6+z
-y,x-y,1/3+z
-x,-y,1/2+z
-x+y,-x,2/3+z
y,-x+y,5/6+z
loop_
_atom_site_type_symbol
_atom_site_label
_atom_site_fract_x
_atom_site_fract_y
_atom_site_fract_z
Si Si1 0.287737 0.748820 0.181320
Si Si2 0.702898 0.685328 0.926411
Si Si3 0.182082 0.467597 0.771551
Si Si4 0.043726 0.821543 0.341089
Si Si5 0.158224 0.007121 0.010252
Si Si6 0.673557 0.081978 0.405518
O O1 0.106402 0.699487 0.151618
O O2 0.383867 0.748594 0.124179
O O3 0.246426 0.594767 0.225373
O O4 0.378604 0.932172 0.212939
O O5 0.881481 0.743005 0.895391
O O6 0.700173 0.851660 0.949556
O O7 0.186296 0.337053 0.726709
O O8 0.116442 0.363254 0.830826
O O9 0.070889 0.550735 0.749225
O O10 0.008529 0.979864 0.340964
O O11 0.293707 0.206745 0.020152
O O12 0.220499 0.935012 0.958343
#
# Coordination Sequence:
#
# PCOD9580134 Si02
#       6
#     6   6   6   6   6   6
#     4  12  27  44  72 108 145 190 234 302 357 421
#     4  12  22  46  72  99 139 196 231 281 369 425
#     4  12  27  44  71 106 145 182 242 297 353 420
#     4  12  22  48  72  95 141 194 230 288 353 431
#     4  12  23  42  75 100 136 193 238 283 360 432
#     4  12  23  40  68 106 140 177 239 297 344 417
#
# _framework density 21.708963000000001
#
# number of rings (size 3 to 8) (size 9 to 14) (size 15 to 20)
#    0.000    0.000   10.000    0.000    2.333    2.667 
#    3.000    0.000    0.000    0.000    0.000    0.000 
#    0.000    0.000    0.000    0.000    0.000    0.000 
#
# Total GULP energy -200532.309949 kJ/mol
# GULP energy per Si atom -5570.341943 kJ/mol
# Density = 2.165955 g / cm^3
# Si number density = 21.708963 Si / 1000 Ang^3
#
#
#
# Elastic Constant Matrix: (Units=GPa)
#
#
# Indices 1 2 3 4 5 6 
#
# 1 64.5178 21.7892 18.1785 0.0000 0.0000 0.0000
# 2 21.7892 64.5178 18.1785 0.0000 0.0000 0.0000
# 3 18.1785 18.1785 71.3396 0.0000 0.0000 0.0000
# 4 0.0000 0.0000 0.0000 32.9286 0.0000 0.0000
# 5 0.0000 0.0000 0.0000 0.0000 32.9286 0.0000
# 6 0.0000 0.0000 0.0000 0.0000 0.0000 21.3643
#
#
#
# Elastic Compliance Matrix: (Units=1/GPa)
#
#
# Indices 1 2 3 4 5 6 
#
# 1 0.018192 -0.005212 -0.003307 0.000000 0.000000 0.000000
# 2 -0.005212 0.018192 -0.003307 0.000000 0.000000 0.000000
# 3 -0.003307 -0.003307 0.015703 0.000000 0.000000 0.000000
# 4 0.000000 0.000000 0.000000 0.030369 0.000000 0.000000
# 5 0.000000 0.000000 0.000000 0.000000 0.030369 0.000000
# 6 0.000000 0.000000 0.000000 0.000000 0.000000 0.046807
#
#
# Mechanical properties :
#
#
# Convention : Reuss Voigt Hill
#
# Bulk Modulus (GPa) = 35.17066 35.18533 35.17800
# Shear Modulus (GPa) = 25.93871 26.92624 26.43247
#
# Velocity S-wave (km/s) = 3.46039 3.52565 3.49317
# Velocity P-wave (km/s) = 5.67467 5.72857 5.70169
#
# Compressibility (1/GPa) = 0.02843279
#
# Stress axis : x y z
#
# Youngs Moduli (GPa) = 54.97019 54.97019 63.68188
#
# Poissons Ratio (x) = 0.28650 0.21063
# Poissons Ratio (y) = 0.28650 0.21063
# Poissons Ratio (z) = 0.18181 0.18181
#
# Static dielectric constant tensor:
#      x y z
#    x 1.788660 0.000000 0.000000 
#    y 0.000000 1.788660 0.000000 
#    z 0.000000 0.000000 1.850890 
# 
# From -- ./inp_files/1734.got.cif
#   From: 2010.05.17/outbox.cif.g08.bks.cpg/sg169_cif.got.tgz:1734.got - 2010.05.20 11:12:54.
