data_PCOD9580181
_publ_section_title
;
Structure prediction by ZEFSAII (Michael W. Deem and Ramdas Pophale) SiO2 
 PCOD9580181
Probable space group: P 65
;
_chemical_formula_sum "Si O2"
_cell_formula_units_Z 36
_cell_length_a 25.431006
_cell_length_b 25.431006
_cell_length_c 5.384036
_cell_angle_alpha 90.000000
_cell_angle_beta 90.000000
_cell_angle_gamma 120.000000
_cell_volume 3015.543985
_symmetry_space_group_name_H-M "P 65"
_symmetry_group_IT_number 170
_symmetry_cell_setting 'hexagonal'
loop_
_space_group_symop_operation_xyz
x,y,z
x-y,x,5/6+z
-y,x-y,2/3+z
-x,-y,1/2+z
-x+y,-x,1/3+z
y,-x+y,1/6+z
loop_
_atom_site_type_symbol
_atom_site_label
_atom_site_fract_x
_atom_site_fract_y
_atom_site_fract_z
Si Si1 0.041194 0.459718 0.946980
Si Si2 0.623370 0.352125 0.780995
Si Si3 0.832488 0.337489 0.470972
Si Si4 0.541674 0.361417 0.130322
Si Si5 0.712723 0.475650 0.621896
Si Si6 0.419559 0.447143 0.613732
O O1 0.033834 0.519737 0.944991
O O2 0.010241 0.424703 0.693618
O O3 0.113032 0.485027 0.956615
O O4 0.007209 0.422949 0.193510
O O5 0.623766 0.294110 0.677671
O O6 0.657992 0.406107 0.589359
O O7 0.560287 0.343824 0.868005
O O8 0.828139 0.399460 0.506083
O O9 0.801327 0.304575 0.210278
O O10 0.904452 0.363215 0.457424
O O11 0.801348 0.294188 0.708353
O O12 0.529493 0.303165 0.295357
#
# Coordination Sequence:
#
# PCOD9580181 Si02
#       6
#     6   6   6   6   6   6
#     4   9  18  28  44  56  68  85 109 151 173 195
#     4  11  19  29  37  50  73 105 118 132 156 212
#     4  10  21  31  43  54  71  97 117 139 162 208
#     4  10  19  29  39  58  74  91 114 140 174 206
#     4  11  20  29  40  56  74  92 114 137 165 207
#     4   9  17  32  43  54  66  86 118 141 172 194
#
# _framework density 11.938146
#
# number of rings (size 3 to 8) (size 9 to 14) (size 15 to 20)
#    0.000    2.000    1.667    4.000    0.000   12.000 
#    0.000    0.000    0.000    0.000    0.000    0.000 
#    0.000    0.000    0.000    0.000    0.000    0.000 
#
# Total GULP energy -200402.546758 kJ/mol
# GULP energy per Si atom -5566.737410 kJ/mol
# Density = 1.191097 g / cm^3
# Si number density = 11.938146 Si / 1000 Ang^3
#
#
#
# Elastic Constant Matrix: (Units=GPa)
#
#
# Indices 1 2 3 4 5 6 
#
# 1 49.3055 29.6538 35.4875 0.0000 0.0000 0.0000
# 2 29.6538 49.3055 35.4875 0.0000 0.0000 0.0000
# 3 35.4875 35.4875 96.9263 0.0000 0.0000 0.0000
# 4 0.0000 0.0000 0.0000 10.6679 0.0000 0.0000
# 5 0.0000 0.0000 0.0000 0.0000 10.6679 0.0000
# 6 0.0000 0.0000 0.0000 0.0000 0.0000 9.8259
#
#
#
# Elastic Compliance Matrix: (Units=1/GPa)
#
#
# Indices 1 2 3 4 5 6 
#
# 1 0.034882 -0.016004 -0.006912 0.000000 0.000000 0.000000
# 2 -0.016004 0.034882 -0.006912 0.000000 0.000000 0.000000
# 3 -0.006912 -0.006912 0.015378 0.000000 0.000000 0.000000
# 4 0.000000 0.000000 0.000000 0.093739 0.000000 0.000000
# 5 0.000000 0.000000 0.000000 0.000000 0.093739 0.000000
# 6 0.000000 0.000000 0.000000 0.000000 0.000000 0.101772
#
#
# Mechanical properties :
#
#
# Convention : Reuss Voigt Hill
#
# Bulk Modulus (GPa) = 39.23603 44.08829 41.66216
# Shear Modulus (GPa) = 11.29833 12.55957 11.92895
#
# Velocity S-wave (km/s) = 3.07971 3.24706 3.16449
# Velocity P-wave (km/s) = 6.75156 7.14623 6.95170
#
# Compressibility (1/GPa) = 0.02548678
#
# Stress axis : x y z
#
# Youngs Moduli (GPa) = 28.66824 28.66824 65.02732
#
# Poissons Ratio (x) = 0.45882 0.44944
# Poissons Ratio (y) = 0.45882 0.44944
# Poissons Ratio (z) = 0.19814 0.19814
#
# Static dielectric constant tensor:
#      x y z
#    x 1.381750 0.000000 0.000000 
#    y 0.000000 1.381750 0.000000 
#    z 0.000000 0.000000 1.452400 
# 
# From -- ./inp_files/313.got.cif
#   From: 2010.05.17/outbox.cif.g08.bks.cpg/sg170_cif.got.tgz:313.got - 2010.05.20 11:14:30.
