data_PCOD9580564
_publ_section_title
;
Structure prediction by ZEFSAII (Michael W. Deem and Ramdas Pophale) SiO2 
 PCOD9580564
Probable space group: P 62
;
_chemical_formula_sum "Si O2"
_cell_formula_units_Z 39
_cell_length_a 22.750773
_cell_length_b 22.750773
_cell_length_c 4.908002
_cell_angle_alpha 90.000000
_cell_angle_beta 90.000000
_cell_angle_gamma 120.000000
_cell_volume 2200.025310
_symmetry_space_group_name_H-M "P 62"
_symmetry_group_IT_number 171
_symmetry_cell_setting 'hexagonal'
loop_
_space_group_symop_operation_xyz
x,y,z
x-y,x,1/3+z
-y,x-y,2/3+z
-x,-y,z
-x+y,-x,1/3+z
y,-x+y,2/3+z
loop_
_atom_site_type_symbol
_atom_site_label
_atom_site_fract_x
_atom_site_fract_y
_atom_site_fract_z
Si Si1 0.805464 0.549037 0.480500
Si Si2 0.395616 0.656216 0.037370
Si Si3 0.500000 0.000000 0.713211
Si Si4 0.110037 0.425746 0.963600
Si Si5 0.868134 0.430644 0.003971
Si Si6 0.317512 0.425417 0.516719
Si Si7 0.016905 0.636015 0.368605
O O1 0.770971 0.467447 0.529131
O O2 0.870071 0.593570 0.677521
O O3 0.751175 0.572784 0.510566
O O4 0.828720 0.557190 0.169078
O O5 0.384142 0.712643 0.886090
O O6 0.400095 0.602956 0.831588
O O7 0.525646 0.067958 0.539460
O O8 0.432424 0.994277 0.834060
O O9 0.115794 0.497301 0.889174
O O10 0.044837 0.380436 0.156227
O O11 0.873690 0.377889 0.803325
O O12 0.331712 0.410139 0.820449
O O13 0.319461 0.371779 0.305220
#
# Coordination Sequence:
#
# PCOD9580564 Si02
#       7
#     6   6   3   6   6   6   6
#     4  11  24  35  55  73 105 129 167 205 269 316
#     4  11  25  36  51  73 102 138 170 207 266 340
#     4   8  18  34  50  70  86 120 156 212 248 306
#     4  10  22  40  52  75  98 135 159 208 259 332
#     4   9  21  34  53  70  97 123 168 204 263 315
#     4  11  22  34  55  76  96 124 164 215 252 309
#     4  10  21  36  55  73  95 123 166 204 259 304
#
# _framework density 17.727069
#
# number of rings (size 3 to 8) (size 9 to 14) (size 15 to 20)
#    0.000    1.846    0.000    2.769   15.077    7.385 
#    0.000    0.000    0.000    0.000    0.000    0.000 
#    0.000    0.000    0.000    0.000    0.000    0.000 
#
# Total GULP energy -217172.177962 kJ/mol
# GULP energy per Si atom -5568.517384 kJ/mol
# Density = 1.768672 g / cm^3
# Si number density = 17.727069 Si / 1000 Ang^3
#
#
#
# Elastic Constant Matrix: (Units=GPa)
#
#
# Indices 1 2 3 4 5 6 
#
# 1 48.0847 13.8558 12.0009 0.0000 0.0000 0.0000
# 2 13.8558 48.0847 12.0009 0.0000 0.0000 0.0000
# 3 12.0009 12.0009 69.4191 0.0000 0.0000 0.0000
# 4 0.0000 0.0000 0.0000 38.0720 0.0000 0.0000
# 5 0.0000 0.0000 0.0000 0.0000 38.0720 0.0000
# 6 0.0000 0.0000 0.0000 0.0000 0.0000 17.1144
#
#
#
# Elastic Compliance Matrix: (Units=1/GPa)
#
#
# Indices 1 2 3 4 5 6 
#
# 1 0.023259 -0.005956 -0.002991 0.000000 0.000000 0.000000
# 2 -0.005956 0.023259 -0.002991 0.000000 0.000000 0.000000
# 3 -0.002991 -0.002991 0.015440 0.000000 0.000000 0.000000
# 4 0.000000 0.000000 0.000000 0.026266 0.000000 0.000000
# 5 0.000000 0.000000 0.000000 0.000000 0.026266 0.000000
# 6 0.000000 0.000000 0.000000 0.000000 0.000000 0.058430
#
#
# Mechanical properties :
#
#
# Convention : Reuss Voigt Hill
#
# Bulk Modulus (GPa) = 26.25957 26.81150 26.53554
# Shear Modulus (GPa) = 23.86734 27.16709 25.51722
#
# Velocity S-wave (km/s) = 3.67328 3.91899 3.79812
# Velocity P-wave (km/s) = 5.73028 5.96954 5.85113
#
# Compressibility (1/GPa) = 0.03808135
#
# Stress axis : x y z
#
# Youngs Moduli (GPa) = 42.99338 42.99338 64.76876
#
# Poissons Ratio (x) = 0.25606 0.19375
# Poissons Ratio (y) = 0.25606 0.19375
# Poissons Ratio (z) = 0.12861 0.12861
#
# Static dielectric constant tensor:
#      x y z
#    x 1.656440 0.000000 0.000000 
#    y 0.000000 1.656440 0.000000 
#    z 0.000000 0.000000 1.668210 
# 
# From -- ./inp_files/452.got.cif
#   From: 2010.05.17/outbox.cif.g08.bks.cpg/sg171_1_cif.got.tgz:452.got - 2010.05.20 11:16:09.
