data_PCOD9580314
_publ_section_title
;
Structure prediction by ZEFSAII (Michael W. Deem and Ramdas Pophale) SiO2 
 PCOD9580314
Probable space group: P 65
;
_chemical_formula_sum "Si O2"
_cell_formula_units_Z 48
_cell_length_a 13.619827
_cell_length_b 13.619827
_cell_length_c 13.153088
_cell_angle_alpha 90.000000
_cell_angle_beta 90.000000
_cell_angle_gamma 120.000000
_cell_volume 2113.009939
_symmetry_space_group_name_H-M "P 65"
_symmetry_group_IT_number 170
_symmetry_cell_setting 'hexagonal'
loop_
_space_group_symop_operation_xyz
x,y,z
x-y,x,5/6+z
-y,x-y,2/3+z
-x,-y,1/2+z
-x+y,-x,1/3+z
y,-x+y,1/6+z
loop_
_atom_site_type_symbol
_atom_site_label
_atom_site_fract_x
_atom_site_fract_y
_atom_site_fract_z
Si Si1 0.918897 0.620974 0.338750
Si Si2 0.060032 0.891085 0.628950
Si Si3 0.255590 0.827479 0.947128
Si Si4 0.057695 0.572470 0.941677
Si Si5 0.747870 0.139058 0.229075
Si Si6 0.159266 0.838916 0.363348
Si Si7 0.291086 0.681930 0.642225
Si Si8 0.823126 0.459300 0.611957
O O1 0.889791 0.616356 0.220639
O O2 0.904607 0.501568 0.374357
O O3 0.840748 0.645911 0.412998
O O4 0.041976 0.722643 0.371120
O O5 0.165459 0.872853 0.655432
O O6 0.005343 0.895820 0.733651
O O7 0.954134 0.792763 0.564602
O O8 0.143524 0.705441 0.947312
O O9 0.238930 0.884181 0.847184
O O10 0.357524 0.798839 0.931106
O O11 0.947006 0.560438 0.887044
O O12 0.067052 0.535725 0.058692
O O13 0.767305 0.264283 0.210835
O O14 0.254575 0.836808 0.433252
O O15 0.362294 0.776256 0.556920
O O16 0.375028 0.657811 0.708265
#
# Coordination Sequence:
#
# PCOD9580314 Si02
#       8
#     6   6   6   6   6   6   6   6
#     4  11  25  45  75 104 153 189 251 312 380 466
#     4  12  27  53  74  99 142 187 257 325 376 451
#     4  11  25  42  68 108 149 186 235 306 381 452
#     4  10  25  43  65 109 143 188 243 303 381 465
#     4  12  25  44  74 103 143 194 249 307 385 446
#     4  11  24  46  73 105 135 199 252 305 375 451
#     4  11  22  42  69 106 150 196 228 306 382 458
#     4  10  23  39  72 100 149 189 241 298 376 459
#
# _framework density 22.71641
#
# number of rings (size 3 to 8) (size 9 to 14) (size 15 to 20)
#    0.000    1.000    2.500    3.000   10.500    2.000 
#    4.500    0.000    0.000    0.000    0.000    0.000 
#    0.000    0.000    0.000    0.000    0.000    0.000 
#
# Total GULP energy -268055.606594 kJ/mol
# GULP energy per Si atom -5584.491804 kJ/mol
# Density = 2.266471 g / cm^3
# Si number density = 22.716410 Si / 1000 Ang^3
#
#
#
# Elastic Constant Matrix: (Units=GPa)
#
#
# Indices 1 2 3 4 5 6 
#
# 1 63.7222 22.6059 16.2649 0.0000 0.0000 0.0000
# 2 22.6059 63.7222 16.2649 0.0000 0.0000 0.0000
# 3 16.2649 16.2649 104.3559 0.0000 0.0000 0.0000
# 4 0.0000 0.0000 0.0000 29.4656 0.0000 0.0000
# 5 0.0000 0.0000 0.0000 0.0000 29.4656 0.0000
# 6 0.0000 0.0000 0.0000 0.0000 0.0000 20.5582
#
#
#
# Elastic Compliance Matrix: (Units=1/GPa)
#
#
# Indices 1 2 3 4 5 6 
#
# 1 0.018314 -0.006007 -0.001918 0.000000 0.000000 0.000000
# 2 -0.006007 0.018314 -0.001918 0.000000 0.000000 0.000000
# 3 -0.001918 -0.001918 0.010180 0.000000 0.000000 0.000000
# 4 0.000000 0.000000 0.000000 0.033938 0.000000 0.000000
# 5 0.000000 0.000000 0.000000 0.000000 0.033938 0.000000
# 6 0.000000 0.000000 0.000000 0.000000 0.000000 0.048643
#
#
# Mechanical properties :
#
#
# Convention : Reuss Voigt Hill
#
# Bulk Modulus (GPa) = 36.87165 38.00797 37.43981
# Shear Modulus (GPa) = 26.03435 27.67551 26.85493
#
# Velocity S-wave (km/s) = 3.38902 3.49421 3.44202
# Velocity P-wave (km/s) = 5.61965 5.74867 5.68452
#
# Compressibility (1/GPa) = 0.02712110
#
# Stress axis : x y z
#
# Youngs Moduli (GPa) = 54.60344 54.60344 98.22706
#
# Poissons Ratio (x) = 0.32802 0.18841
# Poissons Ratio (y) = 0.32802 0.18841
# Poissons Ratio (z) = 0.10473 0.10473
#
# Static dielectric constant tensor:
#      x y z
#    x 1.871300 0.000000 0.000000 
#    y 0.000000 1.871300 0.000000 
#    z 0.000000 0.000000 1.911920 
# 
# From -- ./inp_files/1097.got.cif
#   From: 2010.05.17/outbox.cif.g08.bks.cpg/sg170_cif.got.tgz:1097.got - 2010.05.20 11:14:30.
