data_PCOD9580982
_publ_section_title
;
Structure prediction by ZEFSAII (Michael W. Deem and Ramdas Pophale) SiO2 
 PCOD9580982
Probable space group: P 64
;
_chemical_formula_sum "Si O2"
_cell_formula_units_Z 18
_cell_length_a 4.927586
_cell_length_b 4.927586
_cell_length_c 34.743469
_cell_angle_alpha 90.000000
_cell_angle_beta 90.000000
_cell_angle_gamma 120.000000
_cell_volume 730.587498
_symmetry_space_group_name_H-M "P 64"
_symmetry_group_IT_number 172
_symmetry_cell_setting 'hexagonal'
loop_
_space_group_symop_operation_xyz
x,y,z
x-y,x,2/3+z
-y,x-y,1/3+z
-x,-y,z
-x+y,-x,2/3+z
y,-x+y,1/3+z
loop_
_atom_site_type_symbol
_atom_site_label
_atom_site_fract_x
_atom_site_fract_y
_atom_site_fract_z
Si Si1 0.500000 0.000000 0.830880
Si Si2 0.000000 0.000000 0.552887
Si Si3 0.000000 0.000000 0.386221
Si Si4 0.500000 0.000000 0.108279
Si Si5 0.000000 0.500000 0.330830
Si Si6 0.500000 0.500000 0.941561
O O1 0.443914 0.723622 0.802518
O O2 0.786217 0.074086 0.858687
O O3 0.925914 0.213783 0.580421
O O4 0.109760 0.819129 0.416677
O O5 0.890241 0.709370 0.355765
O O6 0.720292 0.276378 0.303257
#
# Coordination Sequence:
#
# PCOD9580982 Si02
#       6
#     3   3   3   3   3   3
#     4  12  29  52  79 114 156 203 256 317 384 456
#     4  12  30  52  80 116 156 204 258 318 384 458
#     4  10  26  50  80 114 156 202 258 316 384 456
#     4  11  27  50  79 114 156 204 256 318 384 456
#     4  11  27  50  79 114 156 204 256 318 384 456
#     4  12  29  52  79 114 156 203 256 317 384 456
#
# _framework density 24.637709000000001
#
# number of rings (size 3 to 8) (size 9 to 14) (size 15 to 20)
#    0.000    0.667    0.000    4.000    0.000   30.667 
#    0.000    0.000    0.000    0.000    0.000    0.000 
#    0.000    0.000    0.000    0.000    0.000    0.000 
#
# Total GULP energy -100575.612941 kJ/mol
# GULP energy per Si atom -5587.534052 kJ/mol
# Density = 2.458163 g / cm^3
# Si number density = 24.637709 Si / 1000 Ang^3
#
#
#
# Elastic Constant Matrix: (Units=GPa)
#
#
# Indices 1 2 3 4 5 6 
#
# 1 199.0379 96.0113 123.1689 0.0000 0.0000 0.0000
# 2 96.0113 199.0379 123.1689 0.0000 0.0000 0.0000
# 3 123.1689 123.1689 229.7321 0.0000 0.0000 0.0000
# 4 0.0000 0.0000 0.0000 -19.9199 0.0000 0.0000
# 5 0.0000 0.0000 0.0000 0.0000 -19.9199 0.0000
# 6 0.0000 0.0000 0.0000 0.0000 0.0000 51.5133
#
#
#
# Elastic Compliance Matrix: (Units=1/GPa)
#
#
# Indices 1 2 3 4 5 6 
#
# 1 0.007921 -0.001785 -0.003290 0.000000 0.000000 0.000000
# 2 -0.001785 0.007921 -0.003290 0.000000 0.000000 0.000000
# 3 -0.003290 -0.003290 0.007880 0.000000 0.000000 0.000000
# 4 0.000000 0.000000 0.000000 -0.050201 0.000000 0.000000
# 5 0.000000 0.000000 0.000000 0.000000 -0.050201 0.000000
# 6 0.000000 0.000000 0.000000 0.000000 0.000000 0.019412
#
#
# Mechanical properties :
#
#
# Convention : Reuss Voigt Hill
#
# Bulk Modulus (GPa) = 142.99352 145.83399 144.41376
# Shear Modulus (GPa) = -130.86592 21.36529 -54.75032
#
# Velocity S-wave (km/s) = -7.29599 2.94798 -4.71915
# Velocity P-wave (km/s) = 3.57921 8.42065 5.38965
#
# Compressibility (1/GPa) = 0.00699332
#
# Stress axis : x y z
#
# Youngs Moduli (GPa) = 126.24623 126.24623 126.89783
#
# Poissons Ratio (x) = 0.22537 0.41745
# Poissons Ratio (y) = 0.22537 0.41745
# Poissons Ratio (z) = 0.41531 0.41531
#
# Static dielectric constant tensor:
#      x y z
#    x 1.912020 0.000000 0.000000 
#    y 0.000000 1.912020 0.000000 
#    z 0.000000 0.000000 1.913560 
# 
# From -- ./inp_files/2736.got.cif
#   From: 2010.05.17/outbox.cif.g08.bks.cpg/sg172_2_cif.got.tgz:2736.got - 2010.05.20 11:19:57.
