data_PCOD9580168
_publ_section_title
;
Structure prediction by ZEFSAII (Michael W. Deem and Ramdas Pophale) SiO2 
 PCOD9580168
Probable space group: P 65
;
_chemical_formula_sum "Si O2"
_cell_formula_units_Z 30
_cell_length_a 9.819475
_cell_length_b 9.819475
_cell_length_c 13.017097
_cell_angle_alpha 90.000000
_cell_angle_beta 90.000000
_cell_angle_gamma 120.000000
_cell_volume 1086.979392
_symmetry_space_group_name_H-M "P 65"
_symmetry_group_IT_number 170
_symmetry_cell_setting 'hexagonal'
loop_
_space_group_symop_operation_xyz
x,y,z
x-y,x,5/6+z
-y,x-y,2/3+z
-x,-y,1/2+z
-x+y,-x,1/3+z
y,-x+y,1/6+z
loop_
_atom_site_type_symbol
_atom_site_label
_atom_site_fract_x
_atom_site_fract_y
_atom_site_fract_z
Si Si1 0.278231 0.534791 0.767070
Si Si2 0.989531 0.448393 0.187437
Si Si3 0.109784 0.542767 0.422598
Si Si4 0.037184 0.247555 0.907065
Si Si5 0.909565 0.758894 0.917814
O O1 0.151638 0.512130 0.680974
O O2 0.323939 0.713051 0.796816
O O3 0.359886 0.329721 0.617639
O O4 0.918989 0.113657 0.828928
O O5 0.081258 0.520284 0.296880
O O6 0.922204 0.261595 0.194688
O O7 0.109765 0.547116 0.098204
O O8 0.059347 0.670036 0.448938
O O9 0.159095 0.040584 0.678436
O O10 0.179998 0.390755 0.844154
#
# Coordination Sequence:
#
# PCOD9580168 Si02
#       5
#     6   6   6   6   6
#     4  10  17  34  67 109 152 204 267 334 402 499
#     4   9  18  34  63 109 157 198 267 336 415 499
#     4   9  19  35  66 116 160 206 268 343 417 499
#     4  11  22  43  79 123 170 221 280 349 427 513
#     4   9  18  36  67 119 165 209 276 354 423 506
#
# _framework density 27.599421
#
# number of rings (size 3 to 8) (size 9 to 14) (size 15 to 20)
#    0.000    2.400    4.000    1.200    0.000    0.000 
#    0.000    6.000    0.000    4.800   36.400    2.800 
#    0.000    0.000    0.000    0.000    0.000    0.000 
#
# Total GULP energy -167759.383231 kJ/mol
# GULP energy per Si atom -5591.979441 kJ/mol
# Density = 2.753660 g / cm^3
# Si number density = 27.599421 Si / 1000 Ang^3
#
#
#
# Elastic Constant Matrix: (Units=GPa)
#
#
# Indices 1 2 3 4 5 6 
#
# 1 148.6563 50.9855 68.7964 0.0000 0.0000 0.0000
# 2 50.9855 148.6563 68.7964 0.0000 0.0000 0.0000
# 3 68.7964 68.7964 112.3830 0.0000 0.0000 0.0000
# 4 0.0000 0.0000 0.0000 37.5304 0.0000 0.0000
# 5 0.0000 0.0000 0.0000 0.0000 37.5304 0.0000
# 6 0.0000 0.0000 0.0000 0.0000 0.0000 48.8354
#
#
#
# Elastic Compliance Matrix: (Units=1/GPa)
#
#
# Indices 1 2 3 4 5 6 
#
# 1 0.009452 -0.000787 -0.005304 0.000000 0.000000 0.000000
# 2 -0.000787 0.009452 -0.005304 0.000000 0.000000 0.000000
# 3 -0.005304 -0.005304 0.015392 0.000000 0.000000 0.000000
# 4 0.000000 0.000000 0.000000 0.026645 0.000000 0.000000
# 5 0.000000 0.000000 0.000000 0.000000 0.026645 0.000000
# 6 0.000000 0.000000 0.000000 0.000000 0.000000 0.020477
#
#
# Mechanical properties :
#
#
# Convention : Reuss Voigt Hill
#
# Bulk Modulus (GPa) = 86.92039 87.42801 87.17420
# Shear Modulus (GPa) = 37.12301 39.52039 38.32170
#
# Velocity S-wave (km/s) = 3.67149 3.78819 3.73030
# Velocity P-wave (km/s) = 7.03811 7.13303 7.08573
#
# Compressibility (1/GPa) = 0.01150478
#
# Stress axis : x y z
#
# Youngs Moduli (GPa) = 105.80325 105.80325 64.96864
#
# Poissons Ratio (x) = 0.08326 0.34460
# Poissons Ratio (y) = 0.08326 0.34460
# Poissons Ratio (z) = 0.56119 0.56119
#
# Static dielectric constant tensor:
#      x y z
#    x 2.160770 0.000000 0.000000 
#    y 0.000000 2.160770 0.000000 
#    z 0.000000 0.000000 2.233900 
# 
# From -- ./inp_files/1755.got.cif
#   From: 2010.05.17/outbox.cif.g08.bks.cpg/sg170_cif.got.tgz:1755.got - 2010.05.20 11:14:30.
