data_PCOD9580299
_publ_section_title
;
Structure prediction by ZEFSAII (Michael W. Deem and Ramdas Pophale) SiO2 
 PCOD9580299
Probable space group: P 65
;
_chemical_formula_sum "Si O2"
_cell_formula_units_Z 48
_cell_length_a 12.161336
_cell_length_b 12.161336
_cell_length_c 17.041689
_cell_angle_alpha 90.000000
_cell_angle_beta 90.000000
_cell_angle_gamma 120.000000
_cell_volume 2182.759275
_symmetry_space_group_name_H-M "P 65"
_symmetry_group_IT_number 170
_symmetry_cell_setting 'hexagonal'
loop_
_space_group_symop_operation_xyz
x,y,z
x-y,x,5/6+z
-y,x-y,2/3+z
-x,-y,1/2+z
-x+y,-x,1/3+z
y,-x+y,1/6+z
loop_
_atom_site_type_symbol
_atom_site_label
_atom_site_fract_x
_atom_site_fract_y
_atom_site_fract_z
Si Si1 0.276948 0.864206 0.090600
Si Si2 0.470349 0.390591 0.335481
Si Si3 0.632415 0.774016 0.136549
Si Si4 0.260621 0.994416 0.365238
Si Si5 0.099773 0.706988 0.366974
Si Si6 0.327485 0.336313 0.785113
Si Si7 0.345561 0.649354 0.104904
Si Si8 0.941247 0.715062 0.796674
O O1 0.320526 0.760651 0.074745
O O2 0.145429 0.789225 0.137415
O O3 0.370745 0.985725 0.143058
O O4 0.237495 0.903989 0.009804
O O5 0.371052 0.330933 0.264945
O O6 0.549327 0.537162 0.315887
O O7 0.566881 0.336450 0.331514
O O8 0.388814 0.343919 0.413187
O O9 0.660480 0.686969 0.194246
O O10 0.482225 0.719498 0.145817
O O11 0.734839 0.918351 0.157779
O O12 0.649864 0.778924 0.042986
O O13 0.348197 0.052300 0.289278
O O14 0.236045 0.100952 0.407564
O O15 0.148281 0.853588 0.342137
O O16 0.210784 0.669846 0.375366
#
# Coordination Sequence:
#
# PCOD9580299 Si02
#       8
#     6   6   6   6   6   6   6   6
#     4  11  25  47  69 104 142 193 242 301 375 444
#     4  10  22  43  69  98 137 178 232 312 360 430
#     4  12  26  42  67 103 140 194 232 304 374 444
#     4  11  20  43  69 103 138 174 240 300 354 432
#     4  11  23  43  72 104 138 189 239 301 369 436
#     4  11  25  47  64  97 148 189 238 297 367 446
#     4  10  24  42  69 107 133 185 240 307 370 443
#     4  12  23  43  71 104 142 182 249 296 373 439
#
# _framework density 21.990514000000001
#
# number of rings (size 3 to 8) (size 9 to 14) (size 15 to 20)
#    0.000    1.000    3.750    3.000    3.500    0.000 
#   11.250    7.500    0.000    0.000    0.000    0.000 
#    0.000    0.000    0.000    0.000    0.000    0.000 
#
# Total GULP energy -267775.589474 kJ/mol
# GULP energy per Si atom -5578.658114 kJ/mol
# Density = 2.194046 g / cm^3
# Si number density = 21.990514 Si / 1000 Ang^3
#
#
#
# Elastic Constant Matrix: (Units=GPa)
#
#
# Indices 1 2 3 4 5 6 
#
# 1 100.9572 46.5134 19.8231 0.0000 0.0000 0.0000
# 2 46.5134 100.9572 19.8231 0.0000 0.0000 0.0000
# 3 19.8231 19.8231 72.7966 0.0000 0.0000 0.0000
# 4 0.0000 0.0000 0.0000 22.5832 0.0000 0.0000
# 5 0.0000 0.0000 0.0000 0.0000 22.5832 0.0000
# 6 0.0000 0.0000 0.0000 0.0000 0.0000 27.2219
#
#
#
# Elastic Compliance Matrix: (Units=1/GPa)
#
#
# Indices 1 2 3 4 5 6 
#
# 1 0.012842 -0.005525 -0.001992 0.000000 0.000000 0.000000
# 2 -0.005525 0.012842 -0.001992 0.000000 0.000000 0.000000
# 3 -0.001992 -0.001992 0.014822 0.000000 0.000000 0.000000
# 4 0.000000 0.000000 0.000000 0.044281 0.000000 0.000000
# 5 0.000000 0.000000 0.000000 0.000000 0.044281 0.000000
# 6 0.000000 0.000000 0.000000 0.000000 0.000000 0.036735
#
#
# Mechanical properties :
#
#
# Convention : Reuss Voigt Hill
#
# Bulk Modulus (GPa) = 46.54246 49.67001 48.10623
# Shear Modulus (GPa) = 26.04368 27.04775 26.54572
#
# Velocity S-wave (km/s) = 3.44512 3.51090 3.47817
# Velocity P-wave (km/s) = 6.08571 6.25070 6.16876
#
# Compressibility (1/GPa) = 0.02148576
#
# Stress axis : x y z
#
# Youngs Moduli (GPa) = 77.86888 77.86888 67.46734
#
# Poissons Ratio (x) = 0.43026 0.13442
# Poissons Ratio (y) = 0.43026 0.13442
# Poissons Ratio (z) = 0.15514 0.15514
#
# Static dielectric constant tensor:
#      x y z
#    x 1.882690 0.000000 0.000000 
#    y 0.000000 1.882690 0.000000 
#    z 0.000000 0.000000 1.798090 
# 
# From -- ./inp_files/1462.got.cif
#   From: 2010.05.17/outbox.cif.g08.bks.cpg/sg170_cif.got.tgz:1462.got - 2010.05.20 11:14:30.
