data_PCOD9580161
_publ_section_title
;
Structure prediction by ZEFSAII (Michael W. Deem and Ramdas Pophale) SiO2 
 PCOD9580161
Probable space group: P 65
;
_chemical_formula_sum "Si O2"
_cell_formula_units_Z 48
_cell_length_a 16.801358
_cell_length_b 16.801358
_cell_length_c 8.695587
_cell_angle_alpha 90.000000
_cell_angle_beta 90.000000
_cell_angle_gamma 120.000000
_cell_volume 2125.779956
_symmetry_space_group_name_H-M "P 65"
_symmetry_group_IT_number 170
_symmetry_cell_setting 'hexagonal'
loop_
_space_group_symop_operation_xyz
x,y,z
x-y,x,5/6+z
-y,x-y,2/3+z
-x,-y,1/2+z
-x+y,-x,1/3+z
y,-x+y,1/6+z
loop_
_atom_site_type_symbol
_atom_site_label
_atom_site_fract_x
_atom_site_fract_y
_atom_site_fract_z
Si Si1 0.967453 0.145320 0.733860
Si Si2 0.490474 0.850621 0.760535
Si Si3 0.961938 0.687804 0.009201
Si Si4 0.387681 0.150176 0.724559
Si Si5 0.371518 0.953930 0.151306
Si Si6 0.366338 0.182398 0.081470
Si Si7 0.202625 0.605545 0.898410
Si Si8 0.747941 0.416501 0.722857
O O1 0.901829 0.176862 0.817272
O O2 0.045576 0.147294 0.836533
O O3 0.014982 0.216937 0.593576
O O4 0.546570 0.820040 0.645896
O O5 0.388649 0.812921 0.695061
O O6 0.473175 0.779157 0.898643
O O7 0.549340 0.959804 0.744268
O O8 0.854856 0.639742 0.961921
O O9 0.975946 0.629399 0.148096
O O10 0.039118 0.711649 0.878932
O O11 0.494364 0.182879 0.727669
O O12 0.364440 0.165967 0.899135
O O13 0.279018 0.908907 0.253983
O O14 0.393335 0.871561 0.130030
O O15 0.308885 0.638748 0.864357
O O16 0.190552 0.564365 0.070817
#
# Coordination Sequence:
#
# PCOD9580161 Si02
#       8
#     6   6   6   6   6   6   6   6
#     4  11  18  29  52  88 109 132 172 225 283 321
#     4  11  19  34  53  79 108 146 179 228 280 336
#     4  10  17  30  53  79 107 133 173 235 275 316
#     4  10  18  30  51  80 108 137 172 226 282 322
#     4  11  18  30  54  76 101 138 187 222 273 317
#     4  10  16  32  54  79 110 130 176 238 269 313
#     4  11  20  34  51  77 109 148 183 232 278 330
#     4  10  20  33  50  70 112 146 174 226 284 323
#
# _framework density 22.579948000000002
#
# number of rings (size 3 to 8) (size 9 to 14) (size 15 to 20)
#    0.000    1.500   10.000    0.750    0.000    1.000 
#    0.000    2.500    0.000    0.000    6.500    0.000 
#    0.000    0.000    0.000    0.000    0.000    0.000 
#
# Total GULP energy -267805.207278 kJ/mol
# GULP energy per Si atom -5579.275152 kJ/mol
# Density = 2.252856 g / cm^3
# Si number density = 22.579948 Si / 1000 Ang^3
#
#
#
# Elastic Constant Matrix: (Units=GPa)
#
#
# Indices 1 2 3 4 5 6 
#
# 1 114.9404 22.5349 -2.6865 0.0000 0.0000 0.0000
# 2 22.5349 114.9404 -2.6865 0.0000 0.0000 0.0000
# 3 -2.6865 -2.6865 22.2068 0.0000 0.0000 0.0000
# 4 0.0000 0.0000 0.0000 18.5810 0.0000 0.0000
# 5 0.0000 0.0000 0.0000 0.0000 18.5810 0.0000
# 6 0.0000 0.0000 0.0000 0.0000 0.0000 46.2028
#
#
#
# Elastic Compliance Matrix: (Units=1/GPa)
#
#
# Indices 1 2 3 4 5 6 
#
# 1 0.009065 -0.001757 0.000884 0.000000 0.000000 0.000000
# 2 -0.001757 0.009065 0.000884 0.000000 0.000000 0.000000
# 3 0.000884 0.000884 0.045245 0.000000 0.000000 0.000000
# 4 0.000000 0.000000 0.000000 0.053819 0.000000 0.000000
# 5 0.000000 0.000000 0.000000 0.000000 0.053819 0.000000
# 6 0.000000 0.000000 0.000000 0.000000 0.000000 0.021644
#
#
# Mechanical properties :
#
#
# Convention : Reuss Voigt Hill
#
# Bulk Modulus (GPa) = 15.77311 31.82350 23.79831
# Shear Modulus (GPa) = 23.39006 32.33466 27.86236
#
# Velocity S-wave (km/s) = 3.22200 3.78829 3.51656
# Velocity P-wave (km/s) = 4.56534 5.76708 5.20103
#
# Compressibility (1/GPa) = 0.06339903
#
# Stress axis : x y z
#
# Youngs Moduli (GPa) = 110.31167 110.31167 22.10178
#
# Poissons Ratio (x) = 0.19378 -0.01954
# Poissons Ratio (y) = 0.19378 -0.01954
# Poissons Ratio (z) = -0.09753 -0.09753
#
# Static dielectric constant tensor:
#      x y z
#    x 1.895140 0.000000 0.000000 
#    y 0.000000 1.895140 0.000000 
#    z 0.000000 0.000000 1.908880 
# 
# From -- ./inp_files/1123.got.cif
#   From: 2010.05.17/outbox.cif.g08.bks.cpg/sg170_cif.got.tgz:1123.got - 2010.05.20 11:14:30.
