data_PCOD9580081
_publ_section_title
;
Structure prediction by ZEFSAII (Michael W. Deem and Ramdas Pophale) SiO2 
 PCOD9580081
Probable space group: P 61
;
_chemical_formula_sum "Si O2"
_cell_formula_units_Z 36
_cell_length_a 19.044306
_cell_length_b 19.044306
_cell_length_c 4.839186
_cell_angle_alpha 90.000000
_cell_angle_beta 90.000000
_cell_angle_gamma 120.000000
_cell_volume 1519.963814
_symmetry_space_group_name_H-M "P 61"
_symmetry_group_IT_number 169
_symmetry_cell_setting 'hexagonal'
loop_
_space_group_symop_operation_xyz
x,y,z
x-y,x,1/6+z
-y,x-y,1/3+z
-x,-y,1/2+z
-x+y,-x,2/3+z
y,-x+y,5/6+z
loop_
_atom_site_type_symbol
_atom_site_label
_atom_site_fract_x
_atom_site_fract_y
_atom_site_fract_z
Si Si1 0.652290 0.595468 0.210900
Si Si2 0.640176 0.045675 0.548222
Si Si3 0.220463 0.694419 0.674881
Si Si4 0.181884 0.923125 0.990747
Si Si5 0.172702 0.258399 0.833574
Si Si6 0.464481 0.684128 0.869519
O O1 0.659491 0.528145 0.384680
O O2 0.743708 0.671620 0.205418
O O3 0.599500 0.620327 0.399863
O O4 0.612393 0.582302 0.911425
O O5 0.731360 0.061249 0.594370
O O6 0.706011 0.850704 0.418526
O O7 0.640854 0.127696 0.605139
O O8 0.245160 0.720887 0.990550
O O9 0.244433 0.627928 0.585362
O O10 0.274874 0.774395 0.496060
O O11 0.121067 0.892339 0.251685
O O12 0.195235 0.003006 0.826083
#
# Coordination Sequence:
#
# PCOD9580081 Si02
#       6
#     6   6   6   6   6   6
#     4  11  23  40  64  95 127 164 211 270 331 379
#     4  11  23  40  64  95 127 164 211 270 331 379
#     4  12  25  43  66  93 130 175 221 264 314 384
#     4  11  21  37  60  90 125 163 208 258 317 383
#     4  11  21  37  60  90 125 163 208 258 317 383
#     4  12  25  43  66  93 130 175 221 264 314 384
#
# _framework density 23.684774000000001
#
# number of rings (size 3 to 8) (size 9 to 14) (size 15 to 20)
#    0.000    0.667    0.000   11.000    0.000    1.333 
#    0.000    0.000    0.000    2.000    0.000    2.333 
#    0.000    0.000    0.000    0.000    0.000    0.000 
#
# Total GULP energy -201364.537099 kJ/mol
# GULP energy per Si atom -5593.459364 kJ/mol
# Density = 2.363087 g / cm^3
# Si number density = 23.684774 Si / 1000 Ang^3
#
#
#
# Elastic Constant Matrix: (Units=GPa)
#
#
# Indices 1 2 3 4 5 6 
#
# 1 56.5014 5.7290 18.2091 0.0000 0.0000 0.0000
# 2 5.7290 56.5014 18.2091 0.0000 0.0000 0.0000
# 3 18.2091 18.2091 120.4554 0.0000 0.0000 0.0000
# 4 0.0000 0.0000 0.0000 25.3698 0.0000 0.0000
# 5 0.0000 0.0000 0.0000 0.0000 25.3698 0.0000
# 6 0.0000 0.0000 0.0000 0.0000 0.0000 25.3862
#
#
#
# Elastic Compliance Matrix: (Units=1/GPa)
#
#
# Indices 1 2 3 4 5 6 
#
# 1 0.018662 -0.001033 -0.002665 0.000000 0.000000 0.000000
# 2 -0.001033 0.018662 -0.002665 0.000000 0.000000 0.000000
# 3 -0.002665 -0.002665 0.009108 0.000000 0.000000 0.000000
# 4 0.000000 0.000000 0.000000 0.039417 0.000000 0.000000
# 5 0.000000 0.000000 0.000000 0.000000 0.039417 0.000000
# 6 0.000000 0.000000 0.000000 0.000000 0.000000 0.039391
#
#
# Mechanical properties :
#
#
# Convention : Reuss Voigt Hill
#
# Bulk Modulus (GPa) = 29.66872 35.30586 32.48729
# Shear Modulus (GPa) = 26.50841 27.97922 27.24381
#
# Velocity S-wave (km/s) = 3.34910 3.44076 3.39524
# Velocity P-wave (km/s) = 5.24490 5.54292 5.39597
#
# Compressibility (1/GPa) = 0.03370553
#
# Stress axis : x y z
#
# Youngs Moduli (GPa) = 53.58394 53.58394 109.79912
#
# Poissons Ratio (x) = 0.05538 0.29261
# Poissons Ratio (y) = 0.05538 0.29261
# Poissons Ratio (z) = 0.14280 0.14280
#
# Static dielectric constant tensor:
#      x y z
#    x 1.929350 0.000000 0.000000 
#    y 0.000000 1.929350 0.000000 
#    z 0.000000 0.000000 1.871920 
# 
# From -- ./inp_files/256.got.cif
#   From: 2010.05.17/outbox.cif.g08.bks.cpg/sg169_cif.got.tgz:256.got - 2010.05.20 11:12:54.
