data_PCOD9580382
_publ_section_title
;
Structure prediction by ZEFSAII (Michael W. Deem and Ramdas Pophale) SiO2 
 PCOD9580382
Probable space group: P 65
;
_chemical_formula_sum "Si O2"
_cell_formula_units_Z 48
_cell_length_a 12.785980
_cell_length_b 12.785980
_cell_length_c 15.192987
_cell_angle_alpha 90.000000
_cell_angle_beta 90.000000
_cell_angle_gamma 120.000000
_cell_volume 2151.007078
_symmetry_space_group_name_H-M "P 65"
_symmetry_group_IT_number 170
_symmetry_cell_setting 'hexagonal'
loop_
_space_group_symop_operation_xyz
x,y,z
x-y,x,5/6+z
-y,x-y,2/3+z
-x,-y,1/2+z
-x+y,-x,1/3+z
y,-x+y,1/6+z
loop_
_atom_site_type_symbol
_atom_site_label
_atom_site_fract_x
_atom_site_fract_y
_atom_site_fract_z
Si Si1 0.516687 0.766208 0.879580
Si Si2 0.760047 0.179873 0.670204
Si Si3 0.998541 0.544595 0.451490
Si Si4 0.840690 0.932107 0.440420
Si Si5 0.080338 0.560934 0.132728
Si Si6 0.632100 0.182627 0.504270
Si Si7 0.924467 0.614481 0.863151
Si Si8 0.185338 0.844175 0.876135
O O1 0.479306 0.657690 0.812645
O O2 0.407631 0.737531 0.948135
O O3 0.551395 0.889853 0.829740
O O4 0.613577 0.760185 0.943294
O O5 0.674244 0.105166 0.749872
O O6 0.813149 0.101176 0.626387
O O7 0.874942 0.312741 0.681989
O O8 0.681118 0.209916 0.602202
O O9 0.944846 0.442092 0.528217
O O10 0.047436 0.494987 0.373518
O O11 0.914657 0.903125 0.367806
O O12 0.814370 0.032610 0.397772
O O13 0.950661 0.465413 0.171527
O O14 0.734375 0.174303 0.448335
O O15 0.847287 0.604492 0.948803
O O16 0.049773 0.736584 0.873157
#
# Coordination Sequence:
#
# PCOD9580382 Si02
#       8
#     6   6   6   6   6   6   6   6
#     4  11  28  44  67 107 153 183 239 302 376 438
#     4  12  24  42  75  98 141 188 238 304 366 433
#     4  11  27  47  68 111 147 192 245 297 376 455
#     4  12  24  47  70 103 136 184 252 312 363 438
#     4  11  24  44  66 102 144 186 237 294 360 444
#     4  11  23  45  72 103 138 187 241 296 364 439
#     4  12  26  44  75 103 144 193 242 303 364 441
#     4  12  22  45  75 103 135 185 252 300 351 440
#
# _framework density 22.315128000000001
#
# number of rings (size 3 to 8) (size 9 to 14) (size 15 to 20)
#    0.000    0.500    6.250    1.500   10.500    2.000 
#    2.250    0.000    0.000    0.000    0.000    0.000 
#    0.000    0.000    0.000    0.000    0.000    0.000 
#
# Total GULP energy -268449.129034 kJ/mol
# GULP energy per Si atom -5592.690188 kJ/mol
# Density = 2.226434 g / cm^3
# Si number density = 22.315128 Si / 1000 Ang^3
#
#
#
# Elastic Constant Matrix: (Units=GPa)
#
#
# Indices 1 2 3 4 5 6 
#
# 1 65.3651 6.5641 7.1520 0.0000 0.0000 0.0000
# 2 6.5641 65.3651 7.1520 0.0000 0.0000 0.0000
# 3 7.1520 7.1520 61.6930 0.0000 0.0000 0.0000
# 4 0.0000 0.0000 0.0000 36.8844 0.0000 0.0000
# 5 0.0000 0.0000 0.0000 0.0000 36.8844 0.0000
# 6 0.0000 0.0000 0.0000 0.0000 0.0000 29.4005
#
#
#
# Elastic Compliance Matrix: (Units=1/GPa)
#
#
# Indices 1 2 3 4 5 6 
#
# 1 0.015619 -0.001388 -0.001650 0.000000 0.000000 0.000000
# 2 -0.001388 0.015619 -0.001650 0.000000 0.000000 0.000000
# 3 -0.001650 -0.001650 0.016592 0.000000 0.000000 0.000000
# 4 0.000000 0.000000 0.000000 0.027112 0.000000 0.000000
# 5 0.000000 0.000000 0.000000 0.000000 0.027112 0.000000
# 6 0.000000 0.000000 0.000000 0.000000 0.000000 0.034013
#
#
# Mechanical properties :
#
#
# Convention : Reuss Voigt Hill
#
# Bulk Modulus (GPa) = 26.00505 26.01773 26.01139
# Shear Modulus (GPa) = 31.59391 32.07086 31.83239
#
# Velocity S-wave (km/s) = 3.76680 3.79513 3.78099
# Velocity P-wave (km/s) = 5.53148 5.55775 5.54463
#
# Compressibility (1/GPa) = 0.03845407
#
# Stress axis : x y z
#
# Youngs Moduli (GPa) = 64.02634 64.02634 60.27077
#
# Poissons Ratio (x) = 0.08887 0.09943
# Poissons Ratio (y) = 0.08887 0.09943
# Poissons Ratio (z) = 0.10563 0.10563
#
# Static dielectric constant tensor:
#      x y z
#    x 1.829350 0.000000 0.000000 
#    y 0.000000 1.829350 0.000000 
#    z 0.000000 0.000000 1.847150 
# 
# From -- ./inp_files/1479.got.cif
#   From: 2010.05.17/outbox.cif.g08.bks.cpg/sg170_cif.got.tgz:1479.got - 2010.05.20 11:14:30.
