data_PCOD9580258
_publ_section_title
;
Structure prediction by ZEFSAII (Michael W. Deem and Ramdas Pophale) SiO2 
 PCOD9580258
Probable space group: P 65
;
_chemical_formula_sum "Si O2"
_cell_formula_units_Z 30
_cell_length_a 14.721230
_cell_length_b 14.721230
_cell_length_c 5.630133
_cell_angle_alpha 90.000000
_cell_angle_beta 90.000000
_cell_angle_gamma 120.000000
_cell_volume 1056.665388
_symmetry_space_group_name_H-M "P 65"
_symmetry_group_IT_number 170
_symmetry_cell_setting 'hexagonal'
loop_
_space_group_symop_operation_xyz
x,y,z
x-y,x,5/6+z
-y,x-y,2/3+z
-x,-y,1/2+z
-x+y,-x,1/3+z
y,-x+y,1/6+z
loop_
_atom_site_type_symbol
_atom_site_label
_atom_site_fract_x
_atom_site_fract_y
_atom_site_fract_z
Si Si1 0.473128 0.954094 0.695680
Si Si2 0.245428 0.153503 0.202096
Si Si3 0.524094 0.733869 0.177666
Si Si4 0.764094 0.252628 0.851060
Si Si5 0.842220 0.754661 0.995553
O O1 0.358283 0.909278 0.815676
O O2 0.517192 0.874728 0.688166
O O3 0.461927 0.971289 0.416317
O O4 0.373808 0.149810 0.669890
O O5 0.372000 0.221866 0.196338
O O6 0.179202 0.220018 0.181139
O O7 0.219387 0.107792 0.932121
O O8 0.469187 0.715517 0.429060
O O9 0.459752 0.715516 0.936173
O O10 0.781876 0.826654 0.015701
#
# Coordination Sequence:
#
# PCOD9580258 Si02
#       5
#     6   6   6   6   6
#     4  12  26  46  74 112 154 200 270 340 406 486
#     4  10  21  38  65 102 141 187 242 310 385 460
#     4  10  23  42  66 103 145 202 251 321 399 475
#     4  10  23  42  66 103 145 202 251 321 399 475
#     4  10  21  38  65 102 141 187 242 310 385 460
#
# _framework density 28.391200999999999
#
# number of rings (size 3 to 8) (size 9 to 14) (size 15 to 20)
#    0.000    1.600    0.000    3.600    0.000   19.200 
#    3.600    0.000    0.000    2.400    0.000    0.000 
#    0.000    0.000    0.000    0.000    0.000    0.000 
#
# Total GULP energy -167337.492060 kJ/mol
# GULP energy per Si atom -5577.916402 kJ/mol
# Density = 2.832658 g / cm^3
# Si number density = 28.391201 Si / 1000 Ang^3
#
#
#
# Elastic Constant Matrix: (Units=GPa)
#
#
# Indices 1 2 3 4 5 6 
#
# 1 121.1852 57.9592 41.2418 0.0000 0.0000 0.0000
# 2 57.9592 121.1852 41.2418 0.0000 0.0000 0.0000
# 3 41.2418 41.2418 302.9573 0.0000 0.0000 0.0000
# 4 0.0000 0.0000 0.0000 42.3614 0.0000 0.0000
# 5 0.0000 0.0000 0.0000 0.0000 42.3614 0.0000
# 6 0.0000 0.0000 0.0000 0.0000 0.0000 31.6130
#
#
#
# Elastic Compliance Matrix: (Units=1/GPa)
#
#
# Indices 1 2 3 4 5 6 
#
# 1 0.010886 -0.004930 -0.000811 0.000000 0.000000 0.000000
# 2 -0.004930 0.010886 -0.000811 0.000000 0.000000 0.000000
# 3 -0.000811 -0.000811 0.003522 0.000000 0.000000 0.000000
# 4 0.000000 0.000000 0.000000 0.023606 0.000000 0.000000
# 5 0.000000 0.000000 0.000000 0.000000 0.023606 0.000000
# 6 0.000000 0.000000 0.000000 0.000000 0.000000 0.031633
#
#
# Mechanical properties :
#
#
# Convention : Reuss Voigt Hill
#
# Bulk Modulus (GPa) = 82.03839 91.80149 86.91994
# Shear Modulus (GPa) = 41.21830 50.25950 45.73890
#
# Velocity S-wave (km/s) = 3.81438 4.21200 4.01811
# Velocity P-wave (km/s) = 6.95398 7.48727 7.22555
#
# Compressibility (1/GPa) = 0.01218941
#
# Stress axis : x y z
#
# Youngs Moduli (GPa) = 91.86268 91.86268 283.96830
#
# Poissons Ratio (x) = 0.45292 0.23022
# Poissons Ratio (y) = 0.45292 0.23022
# Poissons Ratio (z) = 0.07447 0.07447
#
# Static dielectric constant tensor:
#      x y z
#    x 2.214380 0.000000 0.000000 
#    y 0.000000 2.214380 0.000000 
#    z 0.000000 0.000000 2.402740 
# 
# From -- ./inp_files/167.got.cif
#   From: 2010.05.17/outbox.cif.g08.bks.cpg/sg170_cif.got.tgz:167.got - 2010.05.20 11:14:30.
