data_PCOD9580030
_publ_section_title
;
Structure prediction by ZEFSAII (Michael W. Deem and Ramdas Pophale) SiO2 
 PCOD9580030
Probable space group: P 61
;
_chemical_formula_sum "Si O2"
_cell_formula_units_Z 36
_cell_length_a 14.689579
_cell_length_b 14.689579
_cell_length_c 7.711604
_cell_angle_alpha 90.000000
_cell_angle_beta 90.000000
_cell_angle_gamma 120.000000
_cell_volume 1441.099774
_symmetry_space_group_name_H-M "P 61"
_symmetry_group_IT_number 169
_symmetry_cell_setting 'hexagonal'
loop_
_space_group_symop_operation_xyz
x,y,z
x-y,x,1/6+z
-y,x-y,1/3+z
-x,-y,1/2+z
-x+y,-x,2/3+z
y,-x+y,5/6+z
loop_
_atom_site_type_symbol
_atom_site_label
_atom_site_fract_x
_atom_site_fract_y
_atom_site_fract_z
Si Si1 0.442679 0.134574 0.397430
Si Si2 0.383459 0.472517 0.219753
Si Si3 0.602168 0.615227 0.359495
Si Si4 0.115984 0.886181 0.160039
Si Si5 0.213836 0.165807 0.932688
Si Si6 0.290869 0.605810 0.123973
O O1 0.407478 0.054468 0.231642
O O2 0.446991 0.091989 0.583097
O O3 0.346480 0.156927 0.402000
O O4 0.564421 0.209508 0.344985
O O5 0.492131 0.578512 0.265803
O O6 0.290474 0.498265 0.172368
O O7 0.405398 0.417640 0.059486
O O8 0.688828 0.735609 0.344624
O O9 0.158518 0.990159 0.281061
O O10 0.157983 0.909547 0.961797
O O11 0.182015 0.065758 0.812861
O O12 0.382050 0.686765 0.252817
#
# Coordination Sequence:
#
# PCOD9580030 Si02
#       6
#     6   6   6   6   6   6
#     4  11  25  46  71 111 149 204 250 321 386 471
#     4  11  24  46  74 107 156 206 257 322 384 470
#     4  12  25  47  77 112 156 202 262 323 394 469
#     4  10  23  48  74 111 154 201 256 332 403 483
#     4  10  24  49  75 110 152 205 259 333 404 481
#     4  10  23  42  67 105 143 196 252 303 379 458
#
# _framework density 24.980920999999999
#
# number of rings (size 3 to 8) (size 9 to 14) (size 15 to 20)
#    0.000    1.333    1.667    3.000    0.000   12.000 
#   27.000    0.000    0.000    0.000    0.000    0.000 
#    0.000    0.000    0.000    0.000    0.000    0.000 
#
# Total GULP energy -200669.124757 kJ/mol
# GULP energy per Si atom -5574.142354 kJ/mol
# Density = 2.492406 g / cm^3
# Si number density = 24.980921 Si / 1000 Ang^3
#
#
#
# Elastic Constant Matrix: (Units=GPa)
#
#
# Indices 1 2 3 4 5 6 
#
# 1 127.0326 63.3147 3.3196 0.0000 0.0000 0.0000
# 2 63.3147 127.0326 3.3196 0.0000 0.0000 0.0000
# 3 3.3196 3.3196 53.2503 0.0000 0.0000 0.0000
# 4 0.0000 0.0000 0.0000 23.4440 0.0000 0.0000
# 5 0.0000 0.0000 0.0000 0.0000 23.4440 0.0000
# 6 0.0000 0.0000 0.0000 0.0000 0.0000 31.8590
#
#
#
# Elastic Compliance Matrix: (Units=1/GPa)
#
#
# Indices 1 2 3 4 5 6 
#
# 1 0.010480 -0.005215 -0.000328 0.000000 0.000000 0.000000
# 2 -0.005215 0.010480 -0.000328 0.000000 0.000000 0.000000
# 3 -0.000328 -0.000328 0.018820 0.000000 0.000000 0.000000
# 4 0.000000 0.000000 0.000000 0.042655 0.000000 0.000000
# 5 0.000000 0.000000 0.000000 0.000000 0.042655 0.000000
# 6 0.000000 0.000000 0.000000 0.000000 0.000000 0.031388
#
#
# Mechanical properties :
#
#
# Convention : Reuss Voigt Hill
#
# Bulk Modulus (GPa) = 35.66679 49.69150 42.67915
# Shear Modulus (GPa) = 28.15865 31.57348 29.86606
#
# Velocity S-wave (km/s) = 3.36103 3.55900 3.46143
# Velocity P-wave (km/s) = 5.41947 6.06824 5.75301
#
# Compressibility (1/GPa) = 0.02803728
#
# Stress axis : x y z
#
# Youngs Moduli (GPa) = 95.42361 95.42361 53.13450
#
# Poissons Ratio (x) = 0.49759 0.01744
# Poissons Ratio (y) = 0.49759 0.01744
# Poissons Ratio (z) = 0.03132 0.03132
#
# Static dielectric constant tensor:
#      x y z
#    x 2.079900 0.000000 0.000000 
#    y 0.000000 2.079900 0.000000 
#    z 0.000000 0.000000 1.979770 
# 
# From -- ./inp_files/593.got.cif
#   From: 2010.05.17/outbox.cif.g08.bks.cpg/sg169_cif.got.tgz:593.got - 2010.05.20 11:12:54.
