data_PCOD9580100
_publ_section_title
;
Structure prediction by ZEFSAII (Michael W. Deem and Ramdas Pophale) SiO2 
 PCOD9580100
Probable space group: P 61
;
_chemical_formula_sum "Si O2"
_cell_formula_units_Z 36
_cell_length_a 14.778103
_cell_length_b 14.778103
_cell_length_c 7.669937
_cell_angle_alpha 90.000000
_cell_angle_beta 90.000000
_cell_angle_gamma 120.000000
_cell_volume 1450.640528
_symmetry_space_group_name_H-M "P 61"
_symmetry_group_IT_number 169
_symmetry_cell_setting 'hexagonal'
loop_
_space_group_symop_operation_xyz
x,y,z
x-y,x,1/6+z
-y,x-y,1/3+z
-x,-y,1/2+z
-x+y,-x,2/3+z
y,-x+y,5/6+z
loop_
_atom_site_type_symbol
_atom_site_label
_atom_site_fract_x
_atom_site_fract_y
_atom_site_fract_z
Si Si1 0.093389 0.714353 0.702130
Si Si2 0.826646 0.186645 0.549578
Si Si3 0.693038 0.440568 0.091079
Si Si4 0.935641 0.159735 0.894362
Si Si5 0.600456 0.082165 0.404533
Si Si6 0.541248 0.323655 0.745069
O O1 0.053225 0.752105 0.534791
O O2 0.211810 0.747485 0.661530
O O3 0.040210 0.589567 0.730255
O O4 0.099151 0.775562 0.880641
O O5 0.802180 0.277255 0.606974
O O6 0.874267 0.161173 0.718506
O O7 0.712476 0.103762 0.477415
O O8 0.589064 0.435690 0.173155
O O9 0.661043 0.319634 0.058530
O O10 0.795859 0.490500 0.210735
O O11 0.048955 0.182075 0.827545
O O12 0.607399 0.124850 0.208151
#
# Coordination Sequence:
#
# PCOD9580100 Si02
#       6
#     6   6   6   6   6   6
#     4  11  26  46  70 107 144 188 238 308 356 429
#     4  11  24  46  71 104 145 190 234 299 366 433
#     4  12  22  41  67 103 145 196 239 288 360 434
#     4  12  27  53  78 107 140 184 241 302 377 441
#     4  11  23  42  68 100 144 187 240 293 360 429
#     4  11  22  42  66  97 144 189 238 294 357 430
#
# _framework density 24.816623
#
# number of rings (size 3 to 8) (size 9 to 14) (size 15 to 20)
#    0.000    0.667    5.000    3.000    2.333    1.333 
#    9.000    0.000    0.000    0.000    0.000    0.000 
#    0.000    0.000    0.000    0.000    0.000    0.000 
#
# Total GULP energy -200582.511669 kJ/mol
# GULP energy per Si atom -5571.736435 kJ/mol
# Density = 2.476014 g / cm^3
# Si number density = 24.816623 Si / 1000 Ang^3
#
#
#
# Elastic Constant Matrix: (Units=GPa)
#
#
# Indices 1 2 3 4 5 6 
#
# 1 62.0486 15.0489 25.3606 0.0000 0.0000 0.0000
# 2 15.0489 62.0486 25.3606 0.0000 0.0000 0.0000
# 3 25.3606 25.3606 163.7189 0.0000 0.0000 0.0000
# 4 0.0000 0.0000 0.0000 36.4773 0.0000 0.0000
# 5 0.0000 0.0000 0.0000 0.0000 36.4773 0.0000
# 6 0.0000 0.0000 0.0000 0.0000 0.0000 23.4999
#
#
#
# Elastic Compliance Matrix: (Units=1/GPa)
#
#
# Indices 1 2 3 4 5 6 
#
# 1 0.017860 -0.003417 -0.002237 0.000000 0.000000 0.000000
# 2 -0.003417 0.017860 -0.002237 0.000000 0.000000 0.000000
# 3 -0.002237 -0.002237 0.006801 0.000000 0.000000 0.000000
# 4 0.000000 0.000000 0.000000 0.027414 0.000000 0.000000
# 5 0.000000 0.000000 0.000000 0.000000 0.027414 0.000000
# 6 0.000000 0.000000 0.000000 0.000000 0.000000 0.042553
#
#
# Mechanical properties :
#
#
# Convention : Reuss Voigt Hill
#
# Bulk Modulus (GPa) = 37.40106 46.59515 41.99811
# Shear Modulus (GPa) = 30.37708 34.09394 32.23551
#
# Velocity S-wave (km/s) = 3.50245 3.71055 3.60800
# Velocity P-wave (km/s) = 5.60892 6.09706 5.85807
#
# Compressibility (1/GPa) = 0.02673721
#
# Stress axis : x y z
#
# Youngs Moduli (GPa) = 55.99242 55.99242 147.03452
#
# Poissons Ratio (x) = 0.19134 0.32894
# Poissons Ratio (y) = 0.19134 0.32894
# Poissons Ratio (z) = 0.12526 0.12526
#
# Static dielectric constant tensor:
#      x y z
#    x 2.098060 0.000000 0.000000 
#    y 0.000000 2.098060 0.000000 
#    z 0.000000 0.000000 2.323000 
# 
# From -- ./inp_files/604.got.cif
#   From: 2010.05.17/outbox.cif.g08.bks.cpg/sg169_cif.got.tgz:604.got - 2010.05.20 11:12:54.
