data_PCOD9580188
_publ_section_title
;
Structure prediction by ZEFSAII (Michael W. Deem and Ramdas Pophale) SiO2 
 PCOD9580188
Probable space group: P 65
;
_chemical_formula_sum "Si O2"
_cell_formula_units_Z 36
_cell_length_a 12.729320
_cell_length_b 12.729320
_cell_length_c 13.758949
_cell_angle_alpha 90.000000
_cell_angle_beta 90.000000
_cell_angle_gamma 120.000000
_cell_volume 1930.751145
_symmetry_space_group_name_H-M "P 65"
_symmetry_group_IT_number 170
_symmetry_cell_setting 'hexagonal'
loop_
_space_group_symop_operation_xyz
x,y,z
x-y,x,5/6+z
-y,x-y,2/3+z
-x,-y,1/2+z
-x+y,-x,1/3+z
y,-x+y,1/6+z
loop_
_atom_site_type_symbol
_atom_site_label
_atom_site_fract_x
_atom_site_fract_y
_atom_site_fract_z
Si Si1 0.403469 0.654663 0.288200
Si Si2 0.848358 0.343752 0.795114
Si Si3 0.759181 0.613108 0.795459
Si Si4 0.884023 0.365333 0.575729
Si Si5 0.390415 0.265173 0.260237
Si Si6 0.103234 0.447774 0.440280
O O1 0.282821 0.665634 0.278862
O O2 0.359430 0.516738 0.319263
O O3 0.486259 0.752922 0.367792
O O4 0.467405 0.674554 0.184104
O O5 0.902677 0.351718 0.689163
O O6 0.826419 0.223049 0.850248
O O7 0.913038 0.461704 0.865647
O O8 0.723017 0.713967 0.773139
O O9 0.810870 0.588973 0.697183
O O10 0.853406 0.631300 0.879628
O O11 0.891340 0.495526 0.568366
O O12 0.984894 0.370615 0.504154
#
# Coordination Sequence:
#
# PCOD9580188 Si02
#       6
#     6   6   6   6   6   6
#     4  10  19  34  52  85 120 154 190 232 288 357
#     4  10  19  37  54  83 122 155 195 237 293 361
#     4  11  22  36  58  84 118 156 200 237 290 363
#     4  11  21  35  57  89 121 158 189 242 305 351
#     4  11  20  38  57  85 115 158 198 238 290 367
#     4  11  21  36  56  86 124 157 192 244 300 359
#
# _framework density 18.645592000000001
#
# number of rings (size 3 to 8) (size 9 to 14) (size 15 to 20)
#    0.000    1.333    6.667    2.000    2.333    0.000 
#    9.000    0.000    0.000    0.000    4.333    0.000 
#    0.000    0.000    0.000    0.000    0.000    0.000 
#
# Total GULP energy -200839.683177 kJ/mol
# GULP energy per Si atom -5578.880088 kJ/mol
# Density = 1.860315 g / cm^3
# Si number density = 18.645592 Si / 1000 Ang^3
#
#
#
# Elastic Constant Matrix: (Units=GPa)
#
#
# Indices 1 2 3 4 5 6 
#
# 1 47.2402 15.9034 20.6055 0.0000 0.0000 0.0000
# 2 15.9034 47.2402 20.6055 0.0000 0.0000 0.0000
# 3 20.6055 20.6055 112.9227 0.0000 0.0000 0.0000
# 4 0.0000 0.0000 0.0000 25.6869 0.0000 0.0000
# 5 0.0000 0.0000 0.0000 0.0000 25.6869 0.0000
# 6 0.0000 0.0000 0.0000 0.0000 0.0000 15.6684
#
#
#
# Elastic Compliance Matrix: (Units=1/GPa)
#
#
# Indices 1 2 3 4 5 6 
#
# 1 0.024945 -0.006967 -0.003281 0.000000 0.000000 0.000000
# 2 -0.006967 0.024945 -0.003281 0.000000 0.000000 0.000000
# 3 -0.003281 -0.003281 0.010053 0.000000 0.000000 0.000000
# 4 0.000000 0.000000 0.000000 0.038930 0.000000 0.000000
# 5 0.000000 0.000000 0.000000 0.000000 0.038930 0.000000
# 6 0.000000 0.000000 0.000000 0.000000 0.000000 0.063823
#
#
# Mechanical properties :
#
#
# Convention : Reuss Voigt Hill
#
# Bulk Modulus (GPa) = 30.40740 35.73685 33.07212
# Shear Modulus (GPa) = 20.86436 23.42770 22.14603
#
# Velocity S-wave (km/s) = 3.34877 3.54852 3.45009
# Velocity P-wave (km/s) = 5.59427 5.99978 5.80057
#
# Compressibility (1/GPa) = 0.03288673
#
# Stress axis : x y z
#
# Youngs Moduli (GPa) = 40.08875 40.08875 99.47450
#
# Poissons Ratio (x) = 0.27929 0.32633
# Poissons Ratio (y) = 0.27929 0.32633
# Poissons Ratio (z) = 0.13151 0.13151
#
# Static dielectric constant tensor:
#      x y z
#    x 1.681580 0.000000 0.000000 
#    y 0.000000 1.681580 0.000000 
#    z 0.000000 0.000000 1.665960 
# 
# From -- ./inp_files/894.got.cif
#   From: 2010.05.17/outbox.cif.g08.bks.cpg/sg170_cif.got.tgz:894.got - 2010.05.20 11:14:30.
