data_PCOD9580284
_publ_section_title
;
Structure prediction by ZEFSAII (Michael W. Deem and Ramdas Pophale) SiO2 
 PCOD9580284
Probable space group: P 65
;
_chemical_formula_sum "Si O2"
_cell_formula_units_Z 48
_cell_length_a 11.543930
_cell_length_b 11.543930
_cell_length_c 17.006181
_cell_angle_alpha 90.000000
_cell_angle_beta 90.000000
_cell_angle_gamma 120.000000
_cell_volume 1962.658764
_symmetry_space_group_name_H-M "P 65"
_symmetry_group_IT_number 170
_symmetry_cell_setting 'hexagonal'
loop_
_space_group_symop_operation_xyz
x,y,z
x-y,x,5/6+z
-y,x-y,2/3+z
-x,-y,1/2+z
-x+y,-x,1/3+z
y,-x+y,1/6+z
loop_
_atom_site_type_symbol
_atom_site_label
_atom_site_fract_x
_atom_site_fract_y
_atom_site_fract_z
Si Si1 0.933293 0.290277 0.148380
Si Si2 0.166324 0.508450 0.050392
Si Si3 0.165677 0.559570 0.454264
Si Si4 0.109606 0.001163 0.687318
Si Si5 0.193062 0.413207 0.734610
Si Si6 0.233025 0.553564 0.872427
Si Si7 0.362072 0.874006 0.609583
Si Si8 0.074148 0.338095 0.568222
O O1 0.037787 0.379744 0.082386
O O2 0.999496 0.379834 0.226596
O O3 0.789858 0.254192 0.113236
O O4 0.914701 0.145423 0.166476
O O5 0.288932 0.502766 0.094559
O O6 0.199273 0.658144 0.071741
O O7 0.164802 0.517828 0.956883
O O8 0.303452 0.580421 0.497833
O O9 0.109857 0.490800 0.369504
O O10 0.065865 0.446698 0.513783
O O11 0.062027 0.045183 0.608290
O O12 0.266048 0.114690 0.699336
O O13 0.133613 0.440420 0.811869
O O14 0.126196 0.404041 0.652320
O O15 0.212597 0.287167 0.742586
O O16 0.370738 0.555543 0.898227
#
# Coordination Sequence:
#
# PCOD9580284 Si02
#       8
#     6   6   6   6   6   6   6   6
#     4  12  24  43  69 104 145 191 243 312 369 456
#     4  10  23  44  67 107 147 185 239 302 388 459
#     4  10  22  39  72  98 141 183 239 309 364 447
#     4  12  26  49  72 103 146 193 260 309 370 464
#     4  11  24  42  73  99 140 188 239 309 372 453
#     4  10  22  47  64 104 144 185 239 304 386 463
#     4  11  24  40  68 101 142 186 238 302 373 440
#     4  12  25  44  71 104 137 193 247 311 372 438
#
# _framework density 24.456623
#
# number of rings (size 3 to 8) (size 9 to 14) (size 15 to 20)
#    0.000    1.000    6.250    0.750    1.750    0.000 
#    2.250    2.500    0.000    0.000    0.000    0.000 
#    0.000    0.000    0.000    0.000    0.000    0.000 
#
# Total GULP energy -267717.097529 kJ/mol
# GULP energy per Si atom -5577.439532 kJ/mol
# Density = 2.440096 g / cm^3
# Si number density = 24.456623 Si / 1000 Ang^3
#
#
#
# Elastic Constant Matrix: (Units=GPa)
#
#
# Indices 1 2 3 4 5 6 
#
# 1 52.9871 13.7288 38.9460 0.0000 0.0000 0.0000
# 2 13.7288 52.9871 38.9460 0.0000 0.0000 0.0000
# 3 38.9460 38.9460 241.7063 0.0000 0.0000 0.0000
# 4 0.0000 0.0000 0.0000 28.6812 0.0000 0.0000
# 5 0.0000 0.0000 0.0000 0.0000 28.6812 0.0000
# 6 0.0000 0.0000 0.0000 0.0000 0.0000 19.6292
#
#
#
# Elastic Compliance Matrix: (Units=1/GPa)
#
#
# Indices 1 2 3 4 5 6 
#
# 1 0.021967 -0.003505 -0.002975 0.000000 0.000000 0.000000
# 2 -0.003505 0.021967 -0.002975 0.000000 0.000000 0.000000
# 3 -0.002975 -0.002975 0.005096 0.000000 0.000000 0.000000
# 4 0.000000 0.000000 0.000000 0.034866 0.000000 0.000000
# 5 0.000000 0.000000 0.000000 0.000000 0.034866 0.000000
# 6 0.000000 0.000000 0.000000 0.000000 0.000000 0.050945
#
#
# Mechanical properties :
#
#
# Convention : Reuss Voigt Hill
#
# Bulk Modulus (GPa) = 33.19958 58.99135 46.09546
# Shear Modulus (GPa) = 25.16906 32.46897 28.81902
#
# Velocity S-wave (km/s) = 3.21149 3.64760 3.43647
# Velocity P-wave (km/s) = 5.23029 6.47403 5.88511
#
# Compressibility (1/GPa) = 0.03012086
#
# Stress axis : x y z
#
# Youngs Moduli (GPa) = 45.52247 45.52247 196.23607
#
# Poissons Ratio (x) = 0.15956 0.58376
# Poissons Ratio (y) = 0.15956 0.58376
# Poissons Ratio (z) = 0.13542 0.13542
#
# Static dielectric constant tensor:
#      x y z
#    x 2.061480 0.000000 0.000000 
#    y 0.000000 2.061480 0.000000 
#    z 0.000000 0.000000 2.022410 
# 
# From -- ./inp_files/1478.got.cif
#   From: 2010.05.17/outbox.cif.g08.bks.cpg/sg170_cif.got.tgz:1478.got - 2010.05.20 11:14:30.
