data_PCOD9580197
_publ_section_title
;
Structure prediction by ZEFSAII (Michael W. Deem and Ramdas Pophale) SiO2 
 PCOD9580197
Probable space group: P 65
;
_chemical_formula_sum "Si O2"
_cell_formula_units_Z 36
_cell_length_a 14.292192
_cell_length_b 14.292192
_cell_length_c 7.988012
_cell_angle_alpha 90.000000
_cell_angle_beta 90.000000
_cell_angle_gamma 120.000000
_cell_volume 1413.080893
_symmetry_space_group_name_H-M "P 65"
_symmetry_group_IT_number 170
_symmetry_cell_setting 'hexagonal'
loop_
_space_group_symop_operation_xyz
x,y,z
x-y,x,5/6+z
-y,x-y,2/3+z
-x,-y,1/2+z
-x+y,-x,1/3+z
y,-x+y,1/6+z
loop_
_atom_site_type_symbol
_atom_site_label
_atom_site_fract_x
_atom_site_fract_y
_atom_site_fract_z
Si Si1 0.412124 0.585738 0.166450
Si Si2 0.218672 0.114321 0.268200
Si Si3 0.162270 0.957604 0.942603
Si Si4 0.185620 0.458222 0.015329
Si Si5 0.197812 0.767584 0.971882
Si Si6 0.496697 0.045450 0.679872
O O1 0.466720 0.711438 0.207566
O O2 0.433707 0.532964 0.330991
O O3 0.288190 0.540129 0.122509
O O4 0.473038 0.556203 0.023273
O O5 0.342472 0.208075 0.273133
O O6 0.172308 0.023523 0.409106
O O7 0.204289 0.037209 0.105610
O O8 0.039281 0.866380 0.968677
O O9 0.218454 0.886045 0.927570
O O10 0.231384 0.444699 0.836670
O O11 0.101423 0.495682 0.960220
O O12 0.084251 0.667687 0.918704
#
# Coordination Sequence:
#
# PCOD9580197 Si02
#       6
#     6   6   6   6   6   6
#     4  11  26  41  69 103 137 181 240 293 359 428
#     4  10  19  36  70  99 132 179 232 283 353 426
#     4  10  19  36  70  97 133 176 233 283 349 428
#     4  11  23  42  70  96 137 182 240 290 360 431
#     4  11  23  42  68  97 134 189 232 293 358 432
#     4  11  26  43  69  98 143 187 231 296 357 433
#
# _framework density 25.476248999999999
#
# number of rings (size 3 to 8) (size 9 to 14) (size 15 to 20)
#    0.000    1.333    3.333    3.000    7.000    1.333 
#    0.000    0.000   40.333    0.000    0.000    0.000 
#    0.000    0.000    0.000    0.000    0.000    0.000 
#
# Total GULP energy -201819.376144 kJ/mol
# GULP energy per Si atom -5606.093782 kJ/mol
# Density = 2.541826 g / cm^3
# Si number density = 25.476249 Si / 1000 Ang^3
#
#
#
# Elastic Constant Matrix: (Units=GPa)
#
#
# Indices 1 2 3 4 5 6 
#
# 1 109.7469 21.6891 23.3877 0.0000 0.0000 0.0000
# 2 21.6891 109.7469 23.3877 0.0000 0.0000 0.0000
# 3 23.3877 23.3877 67.3052 0.0000 0.0000 0.0000
# 4 0.0000 0.0000 0.0000 27.5465 0.0000 0.0000
# 5 0.0000 0.0000 0.0000 0.0000 27.5465 0.0000
# 6 0.0000 0.0000 0.0000 0.0000 0.0000 44.0289
#
#
#
# Elastic Compliance Matrix: (Units=1/GPa)
#
#
# Indices 1 2 3 4 5 6 
#
# 1 0.010019 -0.001337 -0.003017 0.000000 0.000000 0.000000
# 2 -0.001337 0.010019 -0.003017 0.000000 0.000000 0.000000
# 3 -0.003017 -0.003017 0.016954 0.000000 0.000000 0.000000
# 4 0.000000 0.000000 0.000000 0.036302 0.000000 0.000000
# 5 0.000000 0.000000 0.000000 0.000000 0.036302 0.000000
# 6 0.000000 0.000000 0.000000 0.000000 0.000000 0.022712
#
#
# Mechanical properties :
#
#
# Convention : Reuss Voigt Hill
#
# Bulk Modulus (GPa) = 44.94238 47.08092 46.01165
# Shear Modulus (GPa) = 32.36917 34.38000 33.37458
#
# Velocity S-wave (km/s) = 3.56836 3.67753 3.62336
# Velocity P-wave (km/s) = 5.88700 6.04589 5.96697
#
# Compressibility (1/GPa) = 0.02225071
#
# Stress axis : x y z
#
# Youngs Moduli (GPa) = 99.80999 99.80999 58.98200
#
# Poissons Ratio (x) = 0.13346 0.17794
# Poissons Ratio (y) = 0.13346 0.17794
# Poissons Ratio (z) = 0.30111 0.30111
#
# Static dielectric constant tensor:
#      x y z
#    x 1.942430 0.000000 0.000000 
#    y 0.000000 1.942430 0.000000 
#    z 0.000000 0.000000 2.093610 
# 
# From -- ./inp_files/621.got.cif
#   From: 2010.05.17/outbox.cif.g08.bks.cpg/sg170_cif.got.tgz:621.got - 2010.05.20 11:14:30.
