data_PCOD9580259
_publ_section_title
;
Structure prediction by ZEFSAII (Michael W. Deem and Ramdas Pophale) SiO2 
 PCOD9580259
Probable space group: P 65
;
_chemical_formula_sum "Si O2"
_cell_formula_units_Z 48
_cell_length_a 15.496203
_cell_length_b 15.496203
_cell_length_c 11.237345
_cell_angle_alpha 90.000000
_cell_angle_beta 90.000000
_cell_angle_gamma 120.000000
_cell_volume 2336.925891
_symmetry_space_group_name_H-M "P 65"
_symmetry_group_IT_number 170
_symmetry_cell_setting 'hexagonal'
loop_
_space_group_symop_operation_xyz
x,y,z
x-y,x,5/6+z
-y,x-y,2/3+z
-x,-y,1/2+z
-x+y,-x,1/3+z
y,-x+y,1/6+z
loop_
_atom_site_type_symbol
_atom_site_label
_atom_site_fract_x
_atom_site_fract_y
_atom_site_fract_z
Si Si1 0.174822 0.761831 0.703540
Si Si2 0.129842 0.580625 0.870647
Si Si3 0.597138 0.091313 0.177158
Si Si4 0.236092 0.818649 0.230834
Si Si5 0.811119 0.873969 0.610253
Si Si6 0.140854 0.185425 0.351661
Si Si7 0.430079 0.819732 0.468382
Si Si8 0.707002 0.491448 0.632094
O O1 0.171612 0.673471 0.781855
O O2 0.286146 0.855452 0.698034
O O3 0.103487 0.805693 0.734688
O O4 0.153347 0.717335 0.570838
O O5 0.130106 0.477940 0.842092
O O6 0.017756 0.554297 0.894215
O O7 0.186313 0.613223 0.994701
O O8 0.556666 0.158006 0.236925
O O9 0.571781 0.089553 0.036426
O O10 0.171890 0.872726 0.222676
O O11 0.182456 0.709713 0.173440
O O12 0.239378 0.793850 0.370251
O O13 0.877028 0.860613 0.506779
O O14 0.799775 0.811403 0.731035
O O15 0.146464 0.114766 0.455206
O O16 0.323502 0.728047 0.511639
#
# Coordination Sequence:
#
# PCOD9580259 Si02
#       8
#     6   6   6   6   6   6   6   6
#     4  11  22  38  62  95 130 170 215 267 330 387
#     4  11  24  36  62  94 130 169 213 256 318 388
#     4  10  22  37  60  90 127 168 217 257 312 383
#     4  10  21  38  65  92 127 167 213 268 318 383
#     4  10  22  40  70  98 122 163 225 283 339 395
#     4  10  21  39  69  94 126 164 226 289 339 402
#     4   9  21  41  56  87 130 169 210 252 316 387
#     4   9  19  37  62  88 126 180 215 254 306 395
#
# _framework density 20.539804
#
# number of rings (size 3 to 8) (size 9 to 14) (size 15 to 20)
#    0.000    2.000    0.000    3.000    7.000    4.000 
#    0.000    0.000   30.250    0.000    0.000    0.000 
#    0.000    0.000    0.000    0.000    0.000    0.000 
#
# Total GULP energy -267361.283950 kJ/mol
# GULP energy per Si atom -5570.026749 kJ/mol
# Density = 2.049305 g / cm^3
# Si number density = 20.539804 Si / 1000 Ang^3
#
#
#
# Elastic Constant Matrix: (Units=GPa)
#
#
# Indices 1 2 3 4 5 6 
#
# 1 82.2251 33.7296 21.3388 0.0000 0.0000 0.0000
# 2 33.7296 82.2251 21.3388 0.0000 0.0000 0.0000
# 3 21.3388 21.3388 53.3020 0.0000 0.0000 0.0000
# 4 0.0000 0.0000 0.0000 11.8208 0.0000 0.0000
# 5 0.0000 0.0000 0.0000 0.0000 11.8208 0.0000
# 6 0.0000 0.0000 0.0000 0.0000 0.0000 24.2478
#
#
#
# Elastic Compliance Matrix: (Units=1/GPa)
#
#
# Indices 1 2 3 4 5 6 
#
# 1 0.015367 -0.005253 -0.004049 0.000000 0.000000 0.000000
# 2 -0.005253 0.015367 -0.004049 0.000000 0.000000 0.000000
# 3 -0.004049 -0.004049 0.022003 0.000000 0.000000 0.000000
# 4 0.000000 0.000000 0.000000 0.084597 0.000000 0.000000
# 5 0.000000 0.000000 0.000000 0.000000 0.084597 0.000000
# 6 0.000000 0.000000 0.000000 0.000000 0.000000 0.041241
#
#
# Mechanical properties :
#
#
# Convention : Reuss Voigt Hill
#
# Bulk Modulus (GPa) = 38.40958 41.17407 39.79183
# Shear Modulus (GPa) = 16.74744 19.00089 17.87416
#
# Velocity S-wave (km/s) = 2.85856 3.04481 2.95315
# Velocity P-wave (km/s) = 5.44388 5.69655 5.57164
#
# Compressibility (1/GPa) = 0.02603517
#
# Stress axis : x y z
#
# Youngs Moduli (GPa) = 65.07281 65.07281 45.44816
#
# Poissons Ratio (x) = 0.34183 0.18403
# Poissons Ratio (y) = 0.34183 0.18403
# Poissons Ratio (z) = 0.26349 0.26349
#
# Static dielectric constant tensor:
#      x y z
#    x 1.773310 0.000000 0.000000 
#    y 0.000000 1.773310 0.000000 
#    z 0.000000 0.000000 1.797210 
# 
# From -- ./inp_files/1101.got.cif
#   From: 2010.05.17/outbox.cif.g08.bks.cpg/sg170_cif.got.tgz:1101.got - 2010.05.20 11:14:30.
