data_PCOD9580590
_publ_section_title
;
Structure prediction by ZEFSAII (Michael W. Deem and Ramdas Pophale) SiO2 
 PCOD9580590
Probable space group: P 62
;
_chemical_formula_sum "Si O2"
_cell_formula_units_Z 42
_cell_length_a 19.396629
_cell_length_b 19.396629
_cell_length_c 6.710571
_cell_angle_alpha 90.000000
_cell_angle_beta 90.000000
_cell_angle_gamma 120.000000
_cell_volume 2186.465483
_symmetry_space_group_name_H-M "P 62"
_symmetry_group_IT_number 171
_symmetry_cell_setting 'hexagonal'
loop_
_space_group_symop_operation_xyz
x,y,z
x-y,x,1/3+z
-y,x-y,2/3+z
-x,-y,z
-x+y,-x,1/3+z
y,-x+y,2/3+z
loop_
_atom_site_type_symbol
_atom_site_label
_atom_site_fract_x
_atom_site_fract_y
_atom_site_fract_z
Si Si1 0.266610 0.480735 0.127700
Si Si2 0.144982 0.384078 0.460739
Si Si3 0.734213 0.370307 0.930121
Si Si4 0.241105 0.943846 0.417030
Si Si5 0.416349 0.368338 0.450741
Si Si6 0.130186 0.803210 0.171861
Si Si7 0.605086 0.485839 0.425734
O O1 0.210465 0.454254 0.324179
O O2 0.355162 0.513790 0.214684
O O3 0.255211 0.548240 0.020535
O O4 0.242170 0.403257 0.988619
O O5 0.096804 0.316618 0.298684
O O6 0.082723 0.398748 0.585266
O O7 0.187261 0.360317 0.628388
O O8 0.703824 0.368365 0.709101
O O9 0.812128 0.362341 0.925903
O O10 0.309909 0.932098 0.306399
O O11 0.166224 0.891160 0.272115
O O12 0.276834 0.036860 0.457901
O O13 0.511033 0.425240 0.445565
O O14 0.379301 0.425941 0.453784
#
# Coordination Sequence:
#
# PCOD9580590 Si02
#       7
#     6   6   6   6   6   6   6
#     4  11  24  38  61  85 117 168 210 265 321 374
#     4  10  21  40  63  87 122 158 208 256 309 376
#     4  12  26  40  56  84 118 165 219 262 315 387
#     4  10  21  40  62  96 121 163 203 251 315 372
#     4  10  23  40  59  86 123 157 210 265 315 371
#     4  10  22  39  66  93 127 159 207 259 311 382
#     4  11  23  41  57  85 120 161 208 265 318 367
#
# _framework density 19.209084000000001
#
# number of rings (size 3 to 8) (size 9 to 14) (size 15 to 20)
#    0.000    1.429    1.429    4.286    8.000    3.429 
#    0.000    1.429    0.000    0.000    0.000    5.000 
#    0.000    0.000    0.000    0.000    0.000    0.000 
#
# Total GULP energy -234290.075653 kJ/mol
# GULP energy per Si atom -5578.335135 kJ/mol
# Density = 1.916536 g / cm^3
# Si number density = 19.209084 Si / 1000 Ang^3
#
#
#
# Elastic Constant Matrix: (Units=GPa)
#
#
# Indices 1 2 3 4 5 6 
#
# 1 95.4913 34.2159 33.0947 0.0000 0.0000 0.0000
# 2 34.2159 95.4913 33.0947 0.0000 0.0000 0.0000
# 3 33.0947 33.0947 98.7088 0.0000 0.0000 0.0000
# 4 0.0000 0.0000 0.0000 26.0786 0.0000 0.0000
# 5 0.0000 0.0000 0.0000 0.0000 26.0786 0.0000
# 6 0.0000 0.0000 0.0000 0.0000 0.0000 30.6377
#
#
#
# Elastic Compliance Matrix: (Units=1/GPa)
#
#
# Indices 1 2 3 4 5 6 
#
# 1 0.012810 -0.003509 -0.003118 0.000000 0.000000 0.000000
# 2 -0.003509 0.012810 -0.003118 0.000000 0.000000 0.000000
# 3 -0.003118 -0.003118 0.012222 0.000000 0.000000 0.000000
# 4 0.000000 0.000000 0.000000 0.038346 0.000000 0.000000
# 5 0.000000 0.000000 0.000000 0.000000 0.038346 0.000000
# 6 0.000000 0.000000 0.000000 0.000000 0.000000 0.032640
#
#
# Mechanical properties :
#
#
# Convention : Reuss Voigt Hill
#
# Bulk Modulus (GPa) = 54.49519 54.50020 54.49769
# Shear Modulus (GPa) = 28.93814 29.17807 29.05811
#
# Velocity S-wave (km/s) = 3.88555 3.90163 3.89360
# Velocity P-wave (km/s) = 6.96858 6.98073 6.97466
#
# Compressibility (1/GPa) = 0.01835025
#
# Stress axis : x y z
#
# Youngs Moduli (GPa) = 78.06175 78.06175 81.82063
#
# Poissons Ratio (x) = 0.27395 0.25515
# Poissons Ratio (y) = 0.27395 0.25515
# Poissons Ratio (z) = 0.24343 0.24343
#
# Static dielectric constant tensor:
#      x y z
#    x 1.700070 0.000000 0.000000 
#    y 0.000000 1.700070 0.000000 
#    z 0.000000 0.000000 1.664650 
# 
# From -- ./inp_files/818.got.cif
#   From: 2010.05.17/outbox.cif.g08.bks.cpg/sg171_1_cif.got.tgz:818.got - 2010.05.20 11:16:09.
