data_PCOD9580435
_publ_section_title
;
Structure prediction by ZEFSAII (Michael W. Deem and Ramdas Pophale) SiO2 
 PCOD9580435
Probable space group: P 62
;
_chemical_formula_sum "Si O2"
_cell_formula_units_Z 36
_cell_length_a 10.890268
_cell_length_b 10.890268
_cell_length_c 14.288941
_cell_angle_alpha 90.000000
_cell_angle_beta 90.000000
_cell_angle_gamma 120.000000
_cell_volume 1467.600360
_symmetry_space_group_name_H-M "P 62"
_symmetry_group_IT_number 171
_symmetry_cell_setting 'hexagonal'
loop_
_space_group_symop_operation_xyz
x,y,z
x-y,x,1/3+z
-y,x-y,2/3+z
-x,-y,z
-x+y,-x,1/3+z
y,-x+y,2/3+z
loop_
_atom_site_type_symbol
_atom_site_label
_atom_site_fract_x
_atom_site_fract_y
_atom_site_fract_z
Si Si1 0.690016 0.409542 0.554020
Si Si2 0.928754 0.707146 0.049789
Si Si3 0.519630 0.802035 0.429443
Si Si4 0.000000 0.500000 0.562991
Si Si5 0.000000 0.000000 0.984646
Si Si6 0.973801 0.221030 0.539414
Si Si7 0.682907 0.986191 0.176457
O O1 0.690411 0.435184 0.665120
O O2 0.587031 0.255395 0.515204
O O3 0.641811 0.515995 0.511074
O O4 0.848287 0.458706 0.519462
O O5 0.031443 0.658742 0.095575
O O6 0.798450 0.676109 0.115423
O O7 0.928435 0.665288 0.942090
O O8 0.003462 0.878333 0.043836
O O9 0.623194 0.735912 0.437679
O O10 0.967094 0.343630 0.599686
O O11 0.852215 0.925327 0.926601
O O12 0.133255 0.257651 0.510150
#
# Coordination Sequence:
#
# PCOD9580435 Si02
#       7
#     6   6   6   3   3   6   6
#     4  10  24  41  67  96 137 188 245 302 380 458
#     4  10  19  34  63  96 141 173 235 307 370 435
#     4  11  22  42  68 102 136 186 245 313 375 457
#     4  10  24  44  58  98 144 186 236 302 374 472
#     4  10  18  34  62 106 128 182 248 306 368 434
#     4  10  20  38  65  99 146 185 240 307 379 453
#     4   9  20  37  63 102 131 183 247 299 365 452
#
# _framework density 24.52984
#
# number of rings (size 3 to 8) (size 9 to 14) (size 15 to 20)
#    0.000    2.000    0.000    5.000    2.333    1.333 
#    3.000    2.500    0.000    0.000    0.000    0.000 
#    0.000    0.000    0.000    0.000    0.000    0.000 
#
# Total GULP energy -200672.765249 kJ/mol
# GULP energy per Si atom -5574.243479 kJ/mol
# Density = 2.447401 g / cm^3
# Si number density = 24.529840 Si / 1000 Ang^3
#
#
#
# Elastic Constant Matrix: (Units=GPa)
#
#
# Indices 1 2 3 4 5 6 
#
# 1 99.4910 14.3174 22.2738 0.0000 0.0000 0.0000
# 2 14.3174 99.4910 22.2738 0.0000 0.0000 0.0000
# 3 22.2738 22.2738 58.6233 0.0000 0.0000 0.0000
# 4 0.0000 0.0000 0.0000 18.7342 0.0000 0.0000
# 5 0.0000 0.0000 0.0000 0.0000 18.7342 0.0000
# 6 0.0000 0.0000 0.0000 0.0000 0.0000 42.5868
#
#
#
# Elastic Compliance Matrix: (Units=1/GPa)
#
#
# Indices 1 2 3 4 5 6 
#
# 1 0.011031 -0.000709 -0.003922 0.000000 0.000000 0.000000
# 2 -0.000709 0.011031 -0.003922 0.000000 0.000000 0.000000
# 3 -0.003922 -0.003922 0.020038 0.000000 0.000000 0.000000
# 4 0.000000 0.000000 0.000000 0.053378 0.000000 0.000000
# 5 0.000000 0.000000 0.000000 0.000000 0.053378 0.000000
# 6 0.000000 0.000000 0.000000 0.000000 0.000000 0.023481
#
#
# Mechanical properties :
#
#
# Convention : Reuss Voigt Hill
#
# Bulk Modulus (GPa) = 40.00835 41.70391 40.85613
# Shear Modulus (GPa) = 25.28105 29.26036 27.27071
#
# Velocity S-wave (km/s) = 3.21382 3.45751 3.33789
# Velocity P-wave (km/s) = 5.48789 5.74259 5.61669
#
# Compressibility (1/GPa) = 0.02499478
#
# Stress axis : x y z
#
# Youngs Moduli (GPa) = 90.65152 90.65152 49.90470
#
# Poissons Ratio (x) = 0.06432 0.19571
# Poissons Ratio (y) = 0.06432 0.19571
# Poissons Ratio (z) = 0.35551 0.35551
#
# Static dielectric constant tensor:
#      x y z
#    x 2.035980 0.000000 0.000000 
#    y 0.000000 2.035980 0.000000 
#    z 0.000000 0.000000 2.020010 
# 
# From -- ./inp_files/4826.got.cif
#   From: 2010.05.17/outbox.cif.g08.bks.cpg/sg171_3_cif.got.tgz:4826.got - 2010.05.20 11:16:09.
