data_PCOD9580004
_publ_section_title
;
Structure prediction by ZEFSAII (Michael W. Deem and Ramdas Pophale) SiO2 
 PCOD9580004
Probable space group: P 61
;
_chemical_formula_sum "Si O2"
_cell_formula_units_Z 36
_cell_length_a 8.136589
_cell_length_b 8.136589
_cell_length_c 24.537450
_cell_angle_alpha 90.000000
_cell_angle_beta 90.000000
_cell_angle_gamma 120.000000
_cell_volume 1406.840356
_symmetry_space_group_name_H-M "P 61"
_symmetry_group_IT_number 169
_symmetry_cell_setting 'hexagonal'
loop_
_space_group_symop_operation_xyz
x,y,z
x-y,x,1/6+z
-y,x-y,1/3+z
-x,-y,1/2+z
-x+y,-x,2/3+z
y,-x+y,5/6+z
loop_
_atom_site_type_symbol
_atom_site_label
_atom_site_fract_x
_atom_site_fract_y
_atom_site_fract_z
Si Si1 0.369217 0.164709 0.659710
Si Si2 0.975485 0.923661 0.791733
Si Si3 0.634502 0.169630 0.102240
Si Si4 0.884135 0.118769 0.713941
Si Si5 0.626307 0.085625 0.814824
Si Si6 0.474696 0.209221 0.994982
O O1 0.150160 0.071705 0.642104
O O2 0.431344 0.025735 0.632597
O O3 0.401841 0.195034 0.725185
O O4 0.522648 0.377440 0.640715
O O5 0.935360 0.957347 0.730325
O O6 0.090919 0.818709 0.800865
O O7 0.769938 0.808878 0.820682
O O8 0.732508 0.332800 0.147662
O O9 0.490653 0.187348 0.060632
O O10 0.740624 0.113534 0.758330
O O11 0.060866 0.324071 0.699235
O O12 0.427086 0.889984 0.816553
#
# Coordination Sequence:
#
# PCOD9580004 Si02
#       6
#     6   6   6   6   6   6
#     4  10  22  42  70 104 151 195 261 320 397 477
#     4  11  22  44  66 102 146 198 251 319 397 464
#     4  10  22  42  72 107 151 204 258 333 398 491
#     4  10  24  40  71  97 144 199 258 317 390 473
#     4  11  20  46  67 104 146 199 252 327 393 468
#     4  10  24  40  72 100 148 199 254 320 391 475
#
# _framework density 25.589255999999999
#
# number of rings (size 3 to 8) (size 9 to 14) (size 15 to 20)
#    1.000    0.667    3.333    1.000    2.333    0.000 
#    6.000    0.000    0.000    0.000    0.000    0.000 
#    0.000    0.000    0.000    0.000    0.000    0.000 
#
# Total GULP energy -200853.941284 kJ/mol
# GULP energy per Si atom -5579.276147 kJ/mol
# Density = 2.553101 g / cm^3
# Si number density = 25.589256 Si / 1000 Ang^3
#
#
#
# Elastic Constant Matrix: (Units=GPa)
#
#
# Indices 1 2 3 4 5 6 
#
# 1 118.1085 26.4308 22.9573 0.0000 0.0000 0.0000
# 2 26.4308 118.1085 22.9573 0.0000 0.0000 0.0000
# 3 22.9573 22.9573 57.1703 0.0000 0.0000 0.0000
# 4 0.0000 0.0000 0.0000 42.6713 0.0000 0.0000
# 5 0.0000 0.0000 0.0000 0.0000 42.6713 0.0000
# 6 0.0000 0.0000 0.0000 0.0000 0.0000 45.8389
#
#
#
# Elastic Compliance Matrix: (Units=1/GPa)
#
#
# Indices 1 2 3 4 5 6 
#
# 1 0.009419 -0.001489 -0.003184 0.000000 0.000000 0.000000
# 2 -0.001489 0.009419 -0.003184 0.000000 0.000000 0.000000
# 3 -0.003184 -0.003184 0.020049 0.000000 0.000000 0.000000
# 4 0.000000 0.000000 0.000000 0.023435 0.000000 0.000000
# 5 0.000000 0.000000 0.000000 0.000000 0.023435 0.000000
# 6 0.000000 0.000000 0.000000 0.000000 0.000000 0.021816
#
#
# Mechanical properties :
#
#
# Convention : Reuss Voigt Hill
#
# Bulk Modulus (GPa) = 43.15624 48.67534 45.91579
# Shear Modulus (GPa) = 38.16454 40.97241 39.56848
#
# Velocity S-wave (km/s) = 3.86609 4.00579 3.93656
# Velocity P-wave (km/s) = 6.06881 6.36067 6.21646
#
# Compressibility (1/GPa) = 0.02317162
#
# Stress axis : x y z
#
# Youngs Moduli (GPa) = 106.16903 106.16903 49.87758
#
# Poissons Ratio (x) = 0.15807 0.15883
# Poissons Ratio (y) = 0.15807 0.15883
# Poissons Ratio (z) = 0.33809 0.33809
#
# Static dielectric constant tensor:
#      x y z
#    x 2.053970 0.000000 0.000000 
#    y 0.000000 2.053970 0.000000 
#    z 0.000000 0.000000 2.081130 
# 
# From -- ./inp_files/1823.got.cif
#   From: 2010.05.17/outbox.cif.g08.bks.cpg/sg169_cif.got.tgz:1823.got - 2010.05.20 11:12:54.
