data_PCOD9580300
_publ_section_title
;
Structure prediction by ZEFSAII (Michael W. Deem and Ramdas Pophale) SiO2 
 PCOD9580300
Probable space group: P 65
;
_chemical_formula_sum "Si O2"
_cell_formula_units_Z 36
_cell_length_a 7.983243
_cell_length_b 7.983243
_cell_length_c 27.382230
_cell_angle_alpha 90.000000
_cell_angle_beta 90.000000
_cell_angle_gamma 120.000000
_cell_volume 1511.325964
_symmetry_space_group_name_H-M "P 65"
_symmetry_group_IT_number 170
_symmetry_cell_setting 'hexagonal'
loop_
_space_group_symop_operation_xyz
x,y,z
x-y,x,5/6+z
-y,x-y,2/3+z
-x,-y,1/2+z
-x+y,-x,1/3+z
y,-x+y,1/6+z
loop_
_atom_site_type_symbol
_atom_site_label
_atom_site_fract_x
_atom_site_fract_y
_atom_site_fract_z
Si Si1 0.792719 0.284306 0.389820
Si Si2 0.781989 0.938595 0.438026
Si Si3 0.061119 0.217469 0.228689
Si Si4 0.396501 0.070493 0.035618
Si Si5 0.715590 0.206985 0.277011
Si Si6 0.603787 0.674385 0.797782
O O1 0.708115 0.430477 0.387234
O O2 0.781950 0.218438 0.333403
O O3 0.999682 0.408834 0.416831
O O4 0.708237 0.080406 0.417546
O O5 0.746534 0.910214 0.496012
O O6 0.671799 0.731686 0.412579
O O7 0.999717 0.037380 0.416683
O O8 0.268018 0.327697 0.254143
O O9 0.089702 0.253042 0.170712
O O10 0.919198 0.291108 0.249158
O O11 0.491378 0.982394 0.000030
O O12 0.569308 0.291487 0.279556
#
# Coordination Sequence:
#
# PCOD9580300 Si02
#       6
#     6   6   6   6   6   6
#     4  10  22  43  71 107 148 197 254 324 396 475
#     4  11  23  47  72 105 146 202 252 320 401 474
#     4  11  23  47  72 105 146 202 252 320 401 474
#     4  11  26  42  73 110 151 195 261 319 394 482
#     4  10  22  43  71 107 148 197 254 324 396 475
#     4  11  26  42  73 110 151 195 261 319 394 482
#
# _framework density 23.820143000000002
#
# number of rings (size 3 to 8) (size 9 to 14) (size 15 to 20)
#    0.000    1.333    0.000    6.000    9.333    0.000 
#    0.000    0.000    0.000    0.000    0.000    0.000 
#    0.000    0.000    0.000    0.000    0.000    0.000 
#
# Total GULP energy -200869.261776 kJ/mol
# GULP energy per Si atom -5579.701716 kJ/mol
# Density = 2.376593 g / cm^3
# Si number density = 23.820143 Si / 1000 Ang^3
#
#
#
# Elastic Constant Matrix: (Units=GPa)
#
#
# Indices 1 2 3 4 5 6 
#
# 1 111.4156 23.9255 40.7744 0.0000 0.0000 0.0000
# 2 23.9255 111.4156 40.7744 0.0000 0.0000 0.0000
# 3 40.7744 40.7744 126.5339 0.0000 0.0000 0.0000
# 4 0.0000 0.0000 0.0000 43.2586 0.0000 0.0000
# 5 0.0000 0.0000 0.0000 0.0000 43.2586 0.0000
# 6 0.0000 0.0000 0.0000 0.0000 0.0000 43.7451
#
#
#
# Elastic Compliance Matrix: (Units=1/GPa)
#
#
# Indices 1 2 3 4 5 6 
#
# 1 0.010299 -0.001130 -0.002955 0.000000 0.000000 0.000000
# 2 -0.001130 0.010299 -0.002955 0.000000 0.000000 0.000000
# 3 -0.002955 -0.002955 0.009807 0.000000 0.000000 0.000000
# 4 0.000000 0.000000 0.000000 0.023117 0.000000 0.000000
# 5 0.000000 0.000000 0.000000 0.000000 0.023117 0.000000
# 6 0.000000 0.000000 0.000000 0.000000 0.000000 0.022860
#
#
# Mechanical properties :
#
#
# Convention : Reuss Voigt Hill
#
# Bulk Modulus (GPa) = 61.24919 62.25708 61.75313
# Shear Modulus (GPa) = 42.00936 42.31183 42.16059
#
# Velocity S-wave (km/s) = 4.20409 4.21920 4.21165
# Velocity P-wave (km/s) = 7.02387 7.06601 7.04498
#
# Compressibility (1/GPa) = 0.01632675
#
# Stress axis : x y z
#
# Youngs Moduli (GPa) = 97.09255 97.09255 101.96555
#
# Poissons Ratio (x) = 0.10975 0.30127
# Poissons Ratio (y) = 0.10975 0.30127
# Poissons Ratio (z) = 0.28687 0.28687
#
# Static dielectric constant tensor:
#      x y z
#    x 2.042040 0.000000 0.000000 
#    y 0.000000 2.042040 0.000000 
#    z 0.000000 0.000000 1.883860 
# 
# From -- ./inp_files/1797.got.cif
#   From: 2010.05.17/outbox.cif.g08.bks.cpg/sg170_cif.got.tgz:1797.got - 2010.05.20 11:14:30.
