data_PCOD9580162
_publ_section_title
;
Structure prediction by ZEFSAII (Michael W. Deem and Ramdas Pophale) SiO2 
 PCOD9580162
Probable space group: P 65
;
_chemical_formula_sum "Si O2"
_cell_formula_units_Z 30
_cell_length_a 14.976736
_cell_length_b 14.976736
_cell_length_c 5.645555
_cell_angle_alpha 90.000000
_cell_angle_beta 90.000000
_cell_angle_gamma 120.000000
_cell_volume 1096.659041
_symmetry_space_group_name_H-M "P 65"
_symmetry_group_IT_number 170
_symmetry_cell_setting 'hexagonal'
loop_
_space_group_symop_operation_xyz
x,y,z
x-y,x,5/6+z
-y,x-y,2/3+z
-x,-y,1/2+z
-x+y,-x,1/3+z
y,-x+y,1/6+z
loop_
_atom_site_type_symbol
_atom_site_label
_atom_site_fract_x
_atom_site_fract_y
_atom_site_fract_z
Si Si1 0.285549 0.783105 0.690380
Si Si2 0.789295 0.454596 0.339377
Si Si3 0.086434 0.663690 0.161082
Si Si4 0.382543 0.051571 0.495211
Si Si5 0.193306 0.208701 0.606677
O O1 0.348166 0.826384 0.447008
O O2 0.261809 0.666185 0.758659
O O3 0.337633 0.847312 0.928382
O O4 0.170805 0.762163 0.660468
O O5 0.712830 0.503099 0.356292
O O6 0.036300 0.616135 0.411539
O O7 0.053761 0.611587 0.901770
O O8 0.262161 0.987339 0.555460
O O9 0.303930 0.060160 0.959207
O O10 0.188629 0.106661 0.699513
#
# Coordination Sequence:
#
# PCOD9580162 Si02
#       5
#     6   6   6   6   6
#     4  10  17  27  47  82 116 149 193 237 272 322
#     4  10  17  27  47  82 116 149 193 237 272 322
#     4   8  18  35  52  79 113 152 179 223 293 348
#     4   8  18  35  52  79 113 152 179 223 293 348
#     4  10  22  42  62  88 112 142 190 242 300 366
#
# _framework density 27.355812
#
# number of rings (size 3 to 8) (size 9 to 14) (size 15 to 20)
#    1.200    1.600    0.000    2.400    0.000    1.600 
#    3.600    0.000    0.000    0.000   20.800    0.000 
#    0.000    0.000    0.000    0.000    0.000    0.000 
#
# Total GULP energy -167213.766620 kJ/mol
# GULP energy per Si atom -5573.792221 kJ/mol
# Density = 2.729355 g / cm^3
# Si number density = 27.355812 Si / 1000 Ang^3
#
#
#
# Elastic Constant Matrix: (Units=GPa)
#
#
# Indices 1 2 3 4 5 6 
#
# 1 119.2316 49.7735 39.6521 0.0000 0.0000 0.0000
# 2 49.7735 119.2316 39.6521 0.0000 0.0000 0.0000
# 3 39.6521 39.6521 281.7545 0.0000 0.0000 0.0000
# 4 0.0000 0.0000 0.0000 31.7213 0.0000 0.0000
# 5 0.0000 0.0000 0.0000 0.0000 31.7213 0.0000
# 6 0.0000 0.0000 0.0000 0.0000 0.0000 34.7290
#
#
#
# Elastic Compliance Matrix: (Units=1/GPa)
#
#
# Indices 1 2 3 4 5 6 
#
# 1 0.010366 -0.004031 -0.000892 0.000000 0.000000 0.000000
# 2 -0.004031 0.010366 -0.000892 0.000000 0.000000 0.000000
# 3 -0.000892 -0.000892 0.003800 0.000000 0.000000 0.000000
# 4 0.000000 0.000000 0.000000 0.031525 0.000000 0.000000
# 5 0.000000 0.000000 0.000000 0.000000 0.031525 0.000000
# 6 0.000000 0.000000 0.000000 0.000000 0.000000 0.028794
#
#
# Mechanical properties :
#
#
# Convention : Reuss Voigt Hill
#
# Bulk Modulus (GPa) = 77.49247 86.48589 81.98918
# Shear Modulus (GPa) = 37.79120 45.71030 41.75075
#
# Velocity S-wave (km/s) = 3.72084 4.09217 3.91091
# Velocity P-wave (km/s) = 6.84461 7.34926 7.10142
#
# Compressibility (1/GPa) = 0.01290448
#
# Stress axis : x y z
#
# Youngs Moduli (GPa) = 96.46676 96.46676 263.14809
#
# Poissons Ratio (x) = 0.38885 0.23462
# Poissons Ratio (y) = 0.38885 0.23462
# Poissons Ratio (z) = 0.08601 0.08601
#
# Static dielectric constant tensor:
#      x y z
#    x 2.166580 0.000000 0.000000 
#    y 0.000000 2.166580 0.000000 
#    z 0.000000 0.000000 2.307360 
# 
# From -- ./inp_files/172.got.cif
#   From: 2010.05.17/outbox.cif.g08.bks.cpg/sg170_cif.got.tgz:172.got - 2010.05.20 11:14:30.
