data_PCOD9580808
_publ_section_title
;
Structure prediction by ZEFSAII (Michael W. Deem and Ramdas Pophale) SiO2 
 PCOD9580808
Probable space group: P 62
;
_chemical_formula_sum "Si O2"
_cell_formula_units_Z 36
_cell_length_a 10.163826
_cell_length_b 10.163826
_cell_length_c 20.061358
_cell_angle_alpha 90.000000
_cell_angle_beta 90.000000
_cell_angle_gamma 120.000000
_cell_volume 1794.755954
_symmetry_space_group_name_H-M "P 62"
_symmetry_group_IT_number 171
_symmetry_cell_setting 'hexagonal'
loop_
_space_group_symop_operation_xyz
x,y,z
x-y,x,1/3+z
-y,x-y,2/3+z
-x,-y,z
-x+y,-x,1/3+z
y,-x+y,2/3+z
loop_
_atom_site_type_symbol
_atom_site_label
_atom_site_fract_x
_atom_site_fract_y
_atom_site_fract_z
Si Si1 0.510601 0.155503 0.010510
Si Si2 0.114980 0.351428 0.963312
Si Si3 0.161128 0.757938 0.444595
Si Si4 0.504662 0.194293 0.277063
Si Si5 0.820590 0.540643 0.466083
Si Si6 0.614891 0.681427 0.911533
O O1 0.449686 0.148985 0.084756
O O2 0.500000 0.000000 0.987113
O O3 0.690799 0.264306 0.004981
O O4 0.432199 0.225799 0.963109
O O5 0.148830 0.514313 0.934450
O O6 0.218117 0.294439 0.926741
O O7 0.933744 0.265322 0.957512
O O8 0.159493 0.366407 0.040691
O O9 0.171045 0.604702 0.439720
O O10 0.263041 0.863605 0.504884
O O11 0.983076 0.691428 0.459763
O O12 0.497428 0.269903 0.208698
O O13 0.500000 0.500000 0.920093
#
# Coordination Sequence:
#
# PCOD9580808 Si02
#       6
#     6   6   6   6   6   6
#     4  12  24  42  68  98 136 181 230 284 350 419
#     4  11  24  42  66 102 138 172 224 300 346 407
#     4  11  22  40  74  98 128 179 236 278 346 419
#     4  11  24  41  65 100 137 171 225 291 350 400
#     4  11  22  42  67  99 134 178 226 284 343 420
#     4  12  22  42  72 103 134 177 236 287 347 423
#
# _framework density 20.058436
#
# number of rings (size 3 to 8) (size 9 to 14) (size 15 to 20)
#    0.000    0.667    6.667    1.000    4.667    1.333 
#    0.000    3.333    0.000    0.000    0.000    0.000 
#    0.000    0.000    0.000    0.000    0.000    0.000 
#
# Total GULP energy -200830.620117 kJ/mol
# GULP energy per Si atom -5578.628337 kJ/mol
# Density = 2.001278 g / cm^3
# Si number density = 20.058436 Si / 1000 Ang^3
#
#
#
# Elastic Constant Matrix: (Units=GPa)
#
#
# Indices 1 2 3 4 5 6 
#
# 1 88.5413 26.9749 15.6704 0.0000 0.0000 0.0000
# 2 26.9749 88.5413 15.6704 0.0000 0.0000 0.0000
# 3 15.6704 15.6704 55.5730 0.0000 0.0000 0.0000
# 4 0.0000 0.0000 0.0000 17.2505 0.0000 0.0000
# 5 0.0000 0.0000 0.0000 0.0000 17.2505 0.0000
# 6 0.0000 0.0000 0.0000 0.0000 0.0000 30.7832
#
#
#
# Elastic Compliance Matrix: (Units=1/GPa)
#
#
# Indices 1 2 3 4 5 6 
#
# 1 0.012808 -0.003434 -0.002643 0.000000 0.000000 0.000000
# 2 -0.003434 0.012808 -0.002643 0.000000 0.000000 0.000000
# 3 -0.002643 -0.002643 0.019485 0.000000 0.000000 0.000000
# 4 0.000000 0.000000 0.000000 0.057969 0.000000 0.000000
# 5 0.000000 0.000000 0.000000 0.000000 0.057969 0.000000
# 6 0.000000 0.000000 0.000000 0.000000 0.000000 0.032485
#
#
# Mechanical properties :
#
#
# Convention : Reuss Voigt Hill
#
# Bulk Modulus (GPa) = 36.15342 38.80967 37.48154
# Shear Modulus (GPa) = 22.70797 24.67952 23.69374
#
# Velocity S-wave (km/s) = 3.36831 3.51148 3.44064
# Velocity P-wave (km/s) = 5.76112 5.98590 5.87458
#
# Compressibility (1/GPa) = 0.02765990
#
# Stress axis : x y z
#
# Youngs Moduli (GPa) = 78.07453 78.07453 51.32150
#
# Poissons Ratio (x) = 0.26813 0.13566
# Poissons Ratio (y) = 0.26813 0.13566
# Poissons Ratio (z) = 0.20637 0.20637
#
# Static dielectric constant tensor:
#      x y z
#    x 1.790470 0.000000 0.000000 
#    y 0.000000 1.790470 0.000000 
#    z 0.000000 0.000000 1.672020 
# 
# From -- ./inp_files/3627.got.cif
#   From: 2010.05.17/outbox.cif.g08.bks.cpg/sg171_2_cif.got.tgz:3627.got - 2010.05.20 11:16:09.
