data_PCOD9580908
_publ_section_title
;
Structure prediction by ZEFSAII (Michael W. Deem and Ramdas Pophale) SiO2 
 PCOD9580908
Probable space group: P 64
;
_chemical_formula_sum "Si O2"
_cell_formula_units_Z 39
_cell_length_a 8.698711
_cell_length_b 8.698711
_cell_length_c 30.805011
_cell_angle_alpha 90.000000
_cell_angle_beta 90.000000
_cell_angle_gamma 120.000000
_cell_volume 2018.653619
_symmetry_space_group_name_H-M "P 64"
_symmetry_group_IT_number 172
_symmetry_cell_setting 'hexagonal'
loop_
_space_group_symop_operation_xyz
x,y,z
x-y,x,2/3+z
-y,x-y,1/3+z
-x,-y,z
-x+y,-x,2/3+z
y,-x+y,1/3+z
loop_
_atom_site_type_symbol
_atom_site_label
_atom_site_fract_x
_atom_site_fract_y
_atom_site_fract_z
Si Si1 0.703324 0.821318 0.661260
Si Si2 0.696444 0.039184 0.899822
Si Si3 0.598021 0.703817 0.089907
Si Si4 0.338385 0.022899 0.238566
Si Si5 0.179953 0.993340 0.507741
Si Si6 0.054981 0.788481 0.667707
Si Si7 0.000000 0.500000 0.392682
O O1 0.635355 0.776749 0.611942
O O2 0.574886 0.672883 0.694951
O O3 0.885726 0.814775 0.660242
O O4 0.768485 0.022403 0.674760
O O5 0.820161 0.149817 0.859997
O O6 0.500000 0.000000 0.894910
O O7 0.687378 0.848696 0.902501
O O8 0.500000 0.500000 0.107270
O O9 0.750002 0.802581 0.125526
O O10 0.670197 0.678051 0.043760
O O11 0.516792 0.838253 0.082987
O O12 0.500000 0.000000 0.223225
O O13 0.317336 0.159442 0.207839
O O14 0.367484 0.079105 0.289173
O O15 0.000000 0.000000 0.511569
#
# Coordination Sequence:
#
# PCOD9580908 Si02
#       7
#     6   6   6   6   6   6   3
#     4   9  16  33  63  92 117 157 202 257 310 372
#     4  10  19  37  61  90 123 158 210 257 309 382
#     4  11  25  43  63  89 132 165 211 265 326 385
#     4  10  20  36  62  89 121 161 205 255 315 370
#     4  10  23  41  60  88 122 172 210 252 320 394
#     4   9  18  35  62  88 120 159 206 254 312 375
#     4  10  22  38  68  92 120 164 212 258 324 384
#
# _framework density 19.319808999999999
#
# number of rings (size 3 to 8) (size 9 to 14) (size 15 to 20)
#    0.000    2.154    2.308    0.462    5.385    1.231 
#    2.769    0.769    0.000    0.000    0.000    0.000 
#    0.000    0.000    0.000    0.000    0.000    0.000 
#
# Total GULP energy -217102.825641 kJ/mol
# GULP energy per Si atom -5566.739119 kJ/mol
# Density = 1.927584 g / cm^3
# Si number density = 19.319809 Si / 1000 Ang^3
#
#
#
# Elastic Constant Matrix: (Units=GPa)
#
#
# Indices 1 2 3 4 5 6 
#
# 1 75.6384 29.1184 21.7455 0.0000 0.0000 0.0000
# 2 29.1184 75.6384 21.7455 0.0000 0.0000 0.0000
# 3 21.7455 21.7455 73.9766 0.0000 0.0000 0.0000
# 4 0.0000 0.0000 0.0000 8.9043 0.0000 0.0000
# 5 0.0000 0.0000 0.0000 0.0000 8.9043 0.0000
# 6 0.0000 0.0000 0.0000 0.0000 0.0000 23.2600
#
#
#
# Elastic Compliance Matrix: (Units=1/GPa)
#
#
# Indices 1 2 3 4 5 6 
#
# 1 0.016184 -0.005312 -0.003196 0.000000 0.000000 0.000000
# 2 -0.005312 0.016184 -0.003196 0.000000 0.000000 0.000000
# 3 -0.003196 -0.003196 0.015397 0.000000 0.000000 0.000000
# 4 0.000000 0.000000 0.000000 0.112305 0.000000 0.000000
# 5 0.000000 0.000000 0.000000 0.000000 0.112305 0.000000
# 6 0.000000 0.000000 0.000000 0.000000 0.000000 0.042992
#
#
# Mechanical properties :
#
#
# Convention : Reuss Voigt Hill
#
# Bulk Modulus (GPa) = 41.05414 41.16358 41.10886
# Shear Modulus (GPa) = 14.41359 18.38999 16.40179
#
# Velocity S-wave (km/s) = 2.73436 3.08859 2.91686
# Velocity P-wave (km/s) = 5.59150 5.83711 5.71562
#
# Compressibility (1/GPa) = 0.02435808
#
# Stress axis : x y z
#
# Youngs Moduli (GPa) = 61.78760 61.78760 64.94869
#
# Poissons Ratio (x) = 0.32819 0.20758
# Poissons Ratio (y) = 0.32819 0.20758
# Poissons Ratio (z) = 0.19748 0.19748
#
# Static dielectric constant tensor:
#      x y z
#    x 1.699230 0.000000 0.000000 
#    y 0.000000 1.699230 0.000000 
#    z 0.000000 0.000000 1.663030 
# 
# From -- ./inp_files/2918.got.cif
#   From: 2010.05.17/outbox.cif.g08.bks.cpg/sg172_2_cif.got.tgz:2918.got - 2010.05.20 11:19:57.
