data_PCOD9580237
_publ_section_title
;
Structure prediction by ZEFSAII (Michael W. Deem and Ramdas Pophale) SiO2 
 PCOD9580237
Probable space group: P 65
;
_chemical_formula_sum "Si O2"
_cell_formula_units_Z 48
_cell_length_a 17.046475
_cell_length_b 17.046475
_cell_length_c 8.059908
_cell_angle_alpha 90.000000
_cell_angle_beta 90.000000
_cell_angle_gamma 120.000000
_cell_volume 2028.289246
_symmetry_space_group_name_H-M "P 65"
_symmetry_group_IT_number 170
_symmetry_cell_setting 'hexagonal'
loop_
_space_group_symop_operation_xyz
x,y,z
x-y,x,5/6+z
-y,x-y,2/3+z
-x,-y,1/2+z
-x+y,-x,1/3+z
y,-x+y,1/6+z
loop_
_atom_site_type_symbol
_atom_site_label
_atom_site_fract_x
_atom_site_fract_y
_atom_site_fract_z
Si Si1 0.330919 0.199929 0.637530
Si Si2 0.650516 0.367360 0.896841
Si Si3 0.095604 0.483679 0.610239
Si Si4 0.087511 0.417518 0.948420
Si Si5 0.455944 0.077971 0.213004
Si Si6 0.134313 0.766919 0.133672
Si Si7 0.250064 0.783058 0.547696
Si Si8 0.991705 0.159635 0.639762
O O1 0.395375 0.303631 0.699630
O O2 0.354030 0.142672 0.770855
O O3 0.366342 0.201257 0.454925
O O4 0.226713 0.170721 0.660373
O O5 0.659909 0.307437 0.752808
O O6 0.559344 0.366770 0.849973
O O7 0.740307 0.464061 0.867001
O O8 0.047710 0.452097 0.793734
O O9 0.066820 0.531675 0.473531
O O10 0.154864 0.386557 0.872517
O O11 0.984817 0.347743 0.992814
O O12 0.144695 0.477806 0.102084
O O13 0.485209 0.180617 0.281551
O O14 0.438727 0.104486 0.023079
O O15 0.058528 0.787868 0.205658
O O16 0.062553 0.151442 0.755108
#
# Coordination Sequence:
#
# PCOD9580237 Si02
#       8
#     6   6   6   6   6   6   6   6
#     4  10  20  39  61  88 131 170 214 272 341 410
#     4  11  21  38  62  88 124 168 220 282 334 385
#     4  10  21  38  57  87 123 163 226 263 319 406
#     4  10  21  39  60  87 128 168 211 272 335 400
#     4  10  21  38  60  90 121 164 223 270 324 400
#     4   9  19  39  67  89 123 173 217 270 343 413
#     4  10  22  39  57  90 122 161 216 265 336 410
#     4  10  21  40  68  99 132 171 223 278 348 432
#
# _framework density 23.665264000000001
#
# number of rings (size 3 to 8) (size 9 to 14) (size 15 to 20)
#    0.000    2.000    1.250    3.000    0.000    4.000 
#    0.000    8.750    0.000    0.000    0.000    0.000 
#    0.000    0.000    0.000    0.000    0.000    0.000 
#
# Total GULP energy -267223.932797 kJ/mol
# GULP energy per Si atom -5567.165267 kJ/mol
# Density = 2.361140 g / cm^3
# Si number density = 23.665264 Si / 1000 Ang^3
#
#
#
# Elastic Constant Matrix: (Units=GPa)
#
#
# Indices 1 2 3 4 5 6 
#
# 1 85.7460 12.1782 22.1552 0.0000 0.0000 0.0000
# 2 12.1782 85.7460 22.1552 0.0000 0.0000 0.0000
# 3 22.1552 22.1552 52.4120 0.0000 0.0000 0.0000
# 4 0.0000 0.0000 0.0000 29.5846 0.0000 0.0000
# 5 0.0000 0.0000 0.0000 0.0000 29.5846 0.0000
# 6 0.0000 0.0000 0.0000 0.0000 0.0000 36.7839
#
#
#
# Elastic Compliance Matrix: (Units=1/GPa)
#
#
# Indices 1 2 3 4 5 6 
#
# 1 0.013110 -0.000483 -0.005338 0.000000 0.000000 0.000000
# 2 -0.000483 0.013110 -0.005338 0.000000 0.000000 0.000000
# 3 -0.005338 -0.005338 0.023592 0.000000 0.000000 0.000000
# 4 0.000000 0.000000 0.000000 0.033801 0.000000 0.000000
# 5 0.000000 0.000000 0.000000 0.000000 0.033801 0.000000
# 6 0.000000 0.000000 0.000000 0.000000 0.000000 0.027186
#
#
# Mechanical properties :
#
#
# Convention : Reuss Voigt Hill
#
# Bulk Modulus (GPa) = 36.36899 37.43125 36.90012
# Shear Modulus (GPa) = 28.39573 30.35162 29.37368
#
# Velocity S-wave (km/s) = 3.46770 3.58514 3.52691
# Velocity P-wave (km/s) = 5.60667 5.74360 5.67555
#
# Compressibility (1/GPa) = 0.02749595
#
# Stress axis : x y z
#
# Youngs Moduli (GPa) = 76.27712 76.27712 42.38689
#
# Poissons Ratio (x) = 0.03683 0.22625
# Poissons Ratio (y) = 0.03683 0.22625
# Poissons Ratio (z) = 0.40714 0.40714
#
# Static dielectric constant tensor:
#      x y z
#    x 2.029140 0.000000 0.000000 
#    y 0.000000 2.029140 0.000000 
#    z 0.000000 0.000000 2.061830 
# 
# From -- ./inp_files/746.got.cif
#   From: 2010.05.17/outbox.cif.g08.bks.cpg/sg170_cif.got.tgz:746.got - 2010.05.20 11:14:30.
