data_PCOD9580246
_publ_section_title
;
Structure prediction by ZEFSAII (Michael W. Deem and Ramdas Pophale) SiO2 
 PCOD9580246
Probable space group: P 65
;
_chemical_formula_sum "Si O2"
_cell_formula_units_Z 48
_cell_length_a 15.810767
_cell_length_b 15.810767
_cell_length_c 8.890040
_cell_angle_alpha 90.000000
_cell_angle_beta 90.000000
_cell_angle_gamma 120.000000
_cell_volume 1924.598859
_symmetry_space_group_name_H-M "P 65"
_symmetry_group_IT_number 170
_symmetry_cell_setting 'hexagonal'
loop_
_space_group_symop_operation_xyz
x,y,z
x-y,x,5/6+z
-y,x-y,2/3+z
-x,-y,1/2+z
-x+y,-x,1/3+z
y,-x+y,1/6+z
loop_
_atom_site_type_symbol
_atom_site_label
_atom_site_fract_x
_atom_site_fract_y
_atom_site_fract_z
Si Si1 0.274411 0.244264 0.231320
Si Si2 0.024285 0.438995 0.449577
Si Si3 0.700633 0.501842 0.970752
Si Si4 0.940436 0.394964 0.744105
Si Si5 0.286897 0.031320 0.706477
Si Si6 0.815608 0.239758 0.978665
Si Si7 0.098769 0.900744 0.118270
Si Si8 0.848891 0.497648 0.201658
O O1 0.221186 0.216316 0.396938
O O2 0.378878 0.252965 0.267225
O O3 0.258861 0.333678 0.184013
O O4 0.234776 0.166869 0.097208
O O5 0.036024 0.500493 0.304498
O O6 0.233651 0.494011 0.611387
O O7 0.932536 0.394118 0.564867
O O8 0.948866 0.592826 0.266254
O O9 0.943396 0.643546 0.938977
O O10 0.738846 0.510495 0.796291
O O11 0.696154 0.601954 0.980603
O O12 0.595257 0.403890 0.975206
O O13 0.848193 0.309376 0.830102
O O14 0.100633 0.524972 0.560090
O O15 0.271971 0.089091 0.838967
O O16 0.992035 0.860434 0.180295
#
# Coordination Sequence:
#
# PCOD9580246 Si02
#       8
#     6   6   6   6   6   6   6   6
#     4  11  25  41  69  99 143 181 237 305 366 451
#     4  10  20  41  67 101 137 180 237 307 362 433
#     4  11  23  44  69 101 147 188 240 301 370 449
#     4  10  21  40  68 100 141 179 237 302 362 443
#     4  11  25  44  73 107 138 192 251 311 380 438
#     4  11  22  44  68 104 135 179 240 303 366 441
#     4  12  29  47  69 103 144 193 246 302 381 468
#     4  10  23  41  69  99 147 192 238 295 373 449
#
# _framework density 24.940261
#
# number of rings (size 3 to 8) (size 9 to 14) (size 15 to 20)
#    0.750    0.500    3.750    1.500    8.750    1.000 
#    0.000    2.500    0.000    0.000    0.000    0.000 
#    0.000    0.000    0.000    0.000    0.000    0.000 
#
# Total GULP energy -267204.574226 kJ/mol
# GULP energy per Si atom -5566.761963 kJ/mol
# Density = 2.488350 g / cm^3
# Si number density = 24.940261 Si / 1000 Ang^3
#
#
#
# Elastic Constant Matrix: (Units=GPa)
#
#
# Indices 1 2 3 4 5 6 
#
# 1 77.6022 1.0814 28.9599 0.0000 0.0000 0.0000
# 2 1.0814 77.6022 28.9599 0.0000 0.0000 0.0000
# 3 28.9599 28.9599 122.8279 0.0000 0.0000 0.0000
# 4 0.0000 0.0000 0.0000 40.6973 0.0000 0.0000
# 5 0.0000 0.0000 0.0000 0.0000 40.6973 0.0000
# 6 0.0000 0.0000 0.0000 0.0000 0.0000 38.2604
#
#
#
# Elastic Compliance Matrix: (Units=1/GPa)
#
#
# Indices 1 2 3 4 5 6 
#
# 1 0.014223 0.001155 -0.003626 0.000000 0.000000 0.000000
# 2 0.001155 0.014223 -0.003626 0.000000 0.000000 0.000000
# 3 -0.003626 -0.003626 0.009851 0.000000 0.000000 0.000000
# 4 0.000000 0.000000 0.000000 0.024572 0.000000 0.000000
# 5 0.000000 0.000000 0.000000 0.000000 0.024572 0.000000
# 6 0.000000 0.000000 0.000000 0.000000 0.000000 0.026137
#
#
# Mechanical properties :
#
#
# Convention : Reuss Voigt Hill
#
# Bulk Modulus (GPa) = 38.30790 44.00384 41.15587
# Shear Modulus (GPa) = 37.18230 38.53304 37.85767
#
# Velocity S-wave (km/s) = 3.86535 3.93493 3.90029
# Velocity P-wave (km/s) = 5.94259 6.19087 6.06800
#
# Compressibility (1/GPa) = 0.02610428
#
# Stress axis : x y z
#
# Youngs Moduli (GPa) = 70.30750 70.30750 101.51021
#
# Poissons Ratio (x) = -0.08120 0.36805
# Poissons Ratio (y) = -0.08120 0.36805
# Poissons Ratio (z) = 0.25492 0.25492
#
# Static dielectric constant tensor:
#      x y z
#    x 2.164600 0.000000 0.000000 
#    y 0.000000 2.164600 0.000000 
#    z 0.000000 0.000000 2.260970 
# 
# From -- ./inp_files/802.got.cif
#   From: 2010.05.17/outbox.cif.g08.bks.cpg/sg170_cif.got.tgz:802.got - 2010.05.20 11:14:30.
