data_PCOD9580158
_publ_section_title
;
Structure prediction by ZEFSAII (Michael W. Deem and Ramdas Pophale) SiO2 
 PCOD9580158
Probable space group: P 61
;
_chemical_formula_sum "Si O2"
_cell_formula_units_Z 30
_cell_length_a 12.000000
_cell_length_b 12.000000
_cell_length_c 12.000000
_cell_angle_alpha 90.000000
_cell_angle_beta 90.000000
_cell_angle_gamma 120.000000
_cell_volume 1496.491898
_symmetry_space_group_name_H-M "P 61"
_symmetry_group_IT_number 169
_symmetry_cell_setting 'hexagonal'
loop_
_space_group_symop_operation_xyz
x,y,z
x-y,x,1/6+z
-y,x-y,1/3+z
-x,-y,1/2+z
-x+y,-x,2/3+z
y,-x+y,5/6+z
loop_
_atom_site_type_symbol
_atom_site_label
_atom_site_fract_x
_atom_site_fract_y
_atom_site_fract_z
Si Si1 0.750986 0.853387 0.075540
Si Si2 0.276984 0.482296 0.353205
Si Si3 0.416639 0.328359 0.377402
Si Si4 0.202070 0.482562 0.107085
Si Si5 0.098772 0.675330 0.581810
O O1 0.842689 0.823846 0.159334
O O2 0.646981 0.859214 0.158027
O O3 0.662240 0.739103 0.989249
O O4 0.356993 0.411303 0.329507
O O5 0.178402 0.407062 0.451816
O O6 0.214062 0.486619 0.238764
O O7 0.375426 0.625169 0.394562
O O8 0.567705 0.428788 0.393886
O O9 0.053584 0.399016 0.078254
O O10 0.271752 0.421119 0.038318
#
# Coordination Sequence:
#
# PCOD9580158 Si02
#       5
#     6   6   6   6   6
#     4  12  26  52  76 108 148 196 246 298 364 434
#     4  11  24  42  65  98 137 181 232 295 358 430
#     4  11  25  42  70 101 139 182 234 297 361 431
#     4  11  24  42  65  98 137 181 232 295 358 430
#     4  11  25  42  70 101 139 182 234 297 361 431
#
# _framework density 20.046883999999999
#
# number of rings (size 3 to 8) (size 9 to 14) (size 15 to 20)
#    0.000    0.800    4.000    2.400    8.400    0.000 
#    3.600    0.000    0.000    0.000    0.000    0.000 
#    0.000    0.000    0.000    0.000    0.000    0.000 
#
# Total GULP energy -167326.084607 kJ/mol
# GULP energy per Si atom -5577.536154 kJ/mol
# Density = 2.000126 g / cm^3
# Si number density = 20.046884 Si / 1000 Ang^3
#
#
#
# Elastic Constant Matrix: (Units=GPa)
#
#
# Indices 1 2 3 4 5 6 
#
# 1 32.4830 51.5574 15.0621 0.0000 0.0000 0.0000
# 2 51.5574 32.4830 15.0621 0.0000 0.0000 0.0000
# 3 15.0621 15.0621 88.8847 0.0000 0.0000 0.0000
# 4 0.0000 0.0000 0.0000 35.1053 0.0000 0.0000
# 5 0.0000 0.0000 0.0000 0.0000 35.1053 0.0000
# 6 0.0000 0.0000 0.0000 0.0000 0.0000 -9.5372
#
#
#
# Elastic Compliance Matrix: (Units=1/GPa)
#
#
# Indices 1 2 3 4 5 6 
#
# 1 -0.019879 0.032547 -0.002147 0.000000 0.000000 0.000000
# 2 0.032547 -0.019879 -0.002147 0.000000 0.000000 0.000000
# 3 -0.002147 -0.002147 0.011978 0.000000 0.000000 0.000000
# 4 0.000000 0.000000 0.000000 0.028486 0.000000 0.000000
# 5 0.000000 0.000000 0.000000 0.000000 0.028486 0.000000
# 6 0.000000 0.000000 0.000000 0.000000 0.000000 -0.104853
#
#
# Mechanical properties :
#
#
# Convention : Reuss Voigt Hill
#
# Bulk Modulus (GPa) = 34.80910 35.24598 35.02754
# Shear Modulus (GPa) = -40.78558 16.94594 -11.91982
#
# Velocity S-wave (km/s) = -4.51545 2.91058 -2.44108
# Velocity P-wave (km/s) = 3.12796 5.37729 3.09283
#
# Compressibility (1/GPa) = 0.02872812
#
# Stress axis : x y z
#
# Youngs Moduli (GPa) = -50.30470 -50.30470 83.48570
#
# Poissons Ratio (x) = 1.63729 0.17922
# Poissons Ratio (y) = 1.63729 0.17922
# Poissons Ratio (z) = -0.10799 -0.10799
#
# Static dielectric constant tensor:
#      x y z
#    x 1.778230 0.000000 0.000000 
#    y 0.000000 1.778230 0.000000 
#    z 0.000000 0.000000 1.667130 
# 
# From -- ./inp_files/878.got.cif
#   From: 2010.05.17/outbox.ucp.g08.bks.cvg/sg169_cif.got.tgz:878.got - 2010.06.11 15:17:57.
