data_PCOD9580917
_publ_section_title
;
Structure prediction by ZEFSAII (Michael W. Deem and Ramdas Pophale) SiO2 
 PCOD9580917
Probable space group: P 64
;
_chemical_formula_sum "Si O2"
_cell_formula_units_Z 36
_cell_length_a 8.679646
_cell_length_b 8.679646
_cell_length_c 26.213785
_cell_angle_alpha 90.000000
_cell_angle_beta 90.000000
_cell_angle_gamma 120.000000
_cell_volume 1710.268868
_symmetry_space_group_name_H-M "P 64"
_symmetry_group_IT_number 172
_symmetry_cell_setting 'hexagonal'
loop_
_space_group_symop_operation_xyz
x,y,z
x-y,x,2/3+z
-y,x-y,1/3+z
-x,-y,z
-x+y,-x,2/3+z
y,-x+y,1/3+z
loop_
_atom_site_type_symbol
_atom_site_label
_atom_site_fract_x
_atom_site_fract_y
_atom_site_fract_z
Si Si1 0.314945 0.368285 0.315390
Si Si2 0.310385 0.320007 0.015832
Si Si3 0.202558 0.037799 0.931641
Si Si4 0.444684 0.307448 0.125588
Si Si5 0.501300 0.683482 0.741481
Si Si6 0.799794 0.841145 0.825672
O O1 0.500000 0.500000 0.290081
O O2 0.321850 0.193560 0.335700
O O3 0.284140 0.470014 0.362164
O O4 0.154256 0.324238 0.277595
O O5 0.500000 0.500000 0.007069
O O6 0.302212 0.169846 0.978153
O O7 0.320783 0.275220 0.075179
O O8 0.274805 0.116497 0.876417
O O9 0.000000 0.000000 0.931092
O O10 0.500000 0.500000 0.145773
O O11 0.612820 0.297643 0.103956
O O12 0.335782 0.150588 0.165170
O O13 0.500000 0.500000 0.727167
O O14 0.666071 0.794642 0.779152
O O15 0.000000 0.000000 0.815937
#
# Coordination Sequence:
#
# PCOD9580917 Si02
#       6
#     6   6   6   6   6   6
#     4  11  21  36  61  88 117 154 203 253 295 350
#     4  10  20  36  60  89 118 154 196 244 299 354
#     4   9  20  37  57  83 117 158 198 238 296 360
#     4  10  20  36  59  88 119 151 194 246 297 354
#     4  10  21  36  62  94 118 152 200 246 301 361
#     4  10  20  37  58  82 117 159 197 239 297 361
#
# _framework density 21.049323999999999
#
# number of rings (size 3 to 8) (size 9 to 14) (size 15 to 20)
#    0.000    2.000    0.000    5.000    0.000    3.333 
#    0.000    7.500    0.000   30.000    0.000    0.000 
#    0.000    0.000    0.000    0.000    0.000    0.000 
#
# Total GULP energy -200973.939933 kJ/mol
# GULP energy per Si atom -5582.609443 kJ/mol
# Density = 2.100141 g / cm^3
# Si number density = 21.049324 Si / 1000 Ang^3
#
#
#
# Elastic Constant Matrix: (Units=GPa)
#
#
# Indices 1 2 3 4 5 6 
#
# 1 92.7404 23.1665 28.4345 0.0000 0.0000 0.0000
# 2 23.1665 92.7404 28.4345 0.0000 0.0000 0.0000
# 3 28.4345 28.4345 49.7989 0.0000 0.0000 0.0000
# 4 0.0000 0.0000 0.0000 -103.1956 0.0000 0.0000
# 5 0.0000 0.0000 0.0000 0.0000 -103.1956 0.0000
# 6 0.0000 0.0000 0.0000 0.0000 0.0000 34.7869
#
#
#
# Elastic Compliance Matrix: (Units=1/GPa)
#
#
# Indices 1 2 3 4 5 6 
#
# 1 0.013179 -0.001194 -0.006843 0.000000 0.000000 0.000000
# 2 -0.001194 0.013179 -0.006843 0.000000 0.000000 0.000000
# 3 -0.006843 -0.006843 0.027896 0.000000 0.000000 0.000000
# 4 0.000000 0.000000 0.000000 -0.009690 0.000000 0.000000
# 5 0.000000 0.000000 0.000000 0.000000 -0.009690 0.000000
# 6 0.000000 0.000000 0.000000 0.000000 0.000000 0.028746
#
#
# Mechanical properties :
#
#
# Convention : Reuss Voigt Hill
#
# Bulk Modulus (GPa) = 40.82861 43.92785 42.37823
# Shear Modulus (GPa) = 49.23872 -23.97126 12.63373
#
# Velocity S-wave (km/s) = 4.84178 -3.37829 2.45255
# Velocity P-wave (km/s) = 7.12010 2.38687 5.31004
#
# Compressibility (1/GPa) = 0.02449263
#
# Stress axis : x y z
#
# Youngs Moduli (GPa) = 75.87674 75.87674 35.84764
#
# Poissons Ratio (x) = 0.09059 0.24532
# Poissons Ratio (y) = 0.09059 0.24532
# Poissons Ratio (z) = 0.51926 0.51926
#
# Static dielectric constant tensor:
#      x y z
#    x 1.797120 0.000000 0.000000 
#    y 0.000000 1.797120 0.000000 
#    z 0.000000 0.000000 1.768890 
# 
# From -- ./inp_files/2603.got.cif
#   From: 2010.05.17/outbox.cif.g08.bks.cpg/sg172_2_cif.got.tgz:2603.got - 2010.05.20 11:19:57.
