data_PCOD9580558
_publ_section_title
;
Structure prediction by ZEFSAII (Michael W. Deem and Ramdas Pophale) SiO2 
 PCOD9580558
Probable space group: P 62
;
_chemical_formula_sum "Si O2"
_cell_formula_units_Z 18
_cell_length_a 7.937110
_cell_length_b 7.937110
_cell_length_c 12.859536
_cell_angle_alpha 90.000000
_cell_angle_beta 90.000000
_cell_angle_gamma 120.000000
_cell_volume 701.585700
_symmetry_space_group_name_H-M "P 62"
_symmetry_group_IT_number 171
_symmetry_cell_setting 'hexagonal'
loop_
_space_group_symop_operation_xyz
x,y,z
x-y,x,1/3+z
-y,x-y,2/3+z
-x,-y,z
-x+y,-x,1/3+z
y,-x+y,2/3+z
loop_
_atom_site_type_symbol
_atom_site_label
_atom_site_fract_x
_atom_site_fract_y
_atom_site_fract_z
Si Si1 0.166208 0.326384 0.317060
Si Si2 0.081706 0.295316 0.849952
Si Si3 0.245981 0.564618 0.512342
O O1 0.212556 0.203948 0.401082
O O2 0.168320 0.485575 0.397097
O O3 0.325497 0.472870 0.234293
O O4 0.978496 0.186352 0.251130
O O5 0.236795 0.522756 0.837632
O O6 0.873768 0.254393 0.896804
#
# Coordination Sequence:
#
# PCOD9580558 Si02
#       3
#     6   6   6
#     4  10  20  46  87 129 177 235 308 382 451 572
#     4   9  21  44  83 131 174 236 314 363 479 559
#     4   9  21  44  84 124 180 240 299 374 481 547
#
# _framework density 25.656165999999999
#
# number of rings (size 3 to 8) (size 9 to 14) (size 15 to 20)
#    2.000    0.667    0.000    1.000    0.000    0.000 
#   12.000    6.667   22.000    4.000    8.667    0.000 
#    0.000    0.000    0.000    0.000    0.000    0.000 
#
# Total GULP energy -100457.388887 kJ/mol
# GULP energy per Si atom -5580.966049 kJ/mol
# Density = 2.559777 g / cm^3
# Si number density = 25.656166 Si / 1000 Ang^3
#
#
#
# Elastic Constant Matrix: (Units=GPa)
#
#
# Indices 1 2 3 4 5 6 
#
# 1 167.0428 104.5859 94.6402 0.0000 0.0000 0.0000
# 2 104.5859 167.0428 94.6402 0.0000 0.0000 0.0000
# 3 94.6402 94.6402 199.4161 0.0000 0.0000 0.0000
# 4 0.0000 0.0000 0.0000 13.0499 0.0000 0.0000
# 5 0.0000 0.0000 0.0000 0.0000 13.0499 0.0000
# 6 0.0000 0.0000 0.0000 0.0000 0.0000 31.2285
#
#
#
# Elastic Compliance Matrix: (Units=1/GPa)
#
#
# Indices 1 2 3 4 5 6 
#
# 1 0.010756 -0.005255 -0.002611 0.000000 0.000000 0.000000
# 2 -0.005255 0.010756 -0.002611 0.000000 0.000000 0.000000
# 3 -0.002611 -0.002611 0.007492 0.000000 0.000000 0.000000
# 4 0.000000 0.000000 0.000000 0.076629 0.000000 0.000000
# 5 0.000000 0.000000 0.000000 0.000000 0.076629 0.000000
# 6 0.000000 0.000000 0.000000 0.000000 0.000000 0.032022
#
#
# Mechanical properties :
#
#
# Convention : Reuss Voigt Hill
#
# Bulk Modulus (GPa) = 124.19865 124.58158 124.39012
# Shear Modulus (GPa) = 21.01541 27.44134 24.22838
#
# Velocity S-wave (km/s) = 2.86513 3.27399 3.07636
# Velocity P-wave (km/s) = 7.71098 7.93446 7.82352
#
# Compressibility (1/GPa) = 0.00805162
#
# Stress axis : x y z
#
# Youngs Moduli (GPa) = 92.97301 92.97301 133.46748
#
# Poissons Ratio (x) = 0.48859 0.34842
# Poissons Ratio (y) = 0.48859 0.34842
# Poissons Ratio (z) = 0.24271 0.24271
#
# Static dielectric constant tensor:
#      x y z
#    x 2.094660 0.000000 0.000000 
#    y 0.000000 2.094660 0.000000 
#    z 0.000000 0.000000 1.973940 
# 
# From -- ./inp_files/4518.got.cif
#   From: 2010.05.17/outbox.cif.g08.bks.cpg/sg171_3_cif.got.tgz:4518.got - 2010.05.20 11:16:09.
