data_PCOD9580563
_publ_section_title
;
Structure prediction by ZEFSAII (Michael W. Deem and Ramdas Pophale) SiO2 
 PCOD9580563
Probable space group: P 62
;
_chemical_formula_sum "Si O2"
_cell_formula_units_Z 42
_cell_length_a 20.878860
_cell_length_b 20.878860
_cell_length_c 6.199857
_cell_angle_alpha 90.000000
_cell_angle_beta 90.000000
_cell_angle_gamma 120.000000
_cell_volume 2340.592821
_symmetry_space_group_name_H-M "P 62"
_symmetry_group_IT_number 171
_symmetry_cell_setting 'hexagonal'
loop_
_space_group_symop_operation_xyz
x,y,z
x-y,x,1/3+z
-y,x-y,2/3+z
-x,-y,z
-x+y,-x,1/3+z
y,-x+y,2/3+z
loop_
_atom_site_type_symbol
_atom_site_label
_atom_site_fract_x
_atom_site_fract_y
_atom_site_fract_z
Si Si1 0.677094 0.283532 0.338360
Si Si2 0.163532 0.434462 0.054805
Si Si3 0.101116 0.493905 0.423384
Si Si4 0.619851 0.639468 0.445843
Si Si5 0.596440 0.880274 0.841494
Si Si6 0.819818 0.375678 0.742616
Si Si7 0.472119 0.073760 0.466996
O O1 0.731500 0.363687 0.231006
O O2 0.710637 0.228363 0.316965
O O3 0.612444 0.259598 0.161576
O O4 0.131379 0.453662 0.267796
O O5 0.201077 0.385257 0.117523
O O6 0.097748 0.392666 0.876239
O O7 0.038089 0.432914 0.573954
O O8 0.155423 0.552824 0.597101
O O9 0.073695 0.540084 0.285216
O O10 0.694916 0.643236 0.345191
O O11 0.589511 0.582001 0.643958
O O12 0.580762 0.909193 0.616698
O O13 0.514904 0.832709 0.946428
O O14 0.866356 0.388799 0.957123
#
# Coordination Sequence:
#
# PCOD9580563 Si02
#       7
#     6   6   6   6   6   6   6
#     4  12  25  36  52  72 106 142 183 233 299 361
#     4  12  25  40  56  78 107 140 183 240 296 365
#     4  11  22  37  56  78 104 138 183 232 291 343
#     4  11  24  39  58  81 102 138 185 239 294 357
#     4  10  24  38  59  76 104 140 178 235 292 352
#     4  10  21  36  53  74 102 137 179 227 288 353
#     4  10  21  40  55  77 105 139 184 233 286 343
#
# _framework density 17.944171999999998
#
# number of rings (size 3 to 8) (size 9 to 14) (size 15 to 20)
#    0.000    1.143    2.857    2.571    6.000   16.000 
#    0.000    0.000    0.000    0.000    0.000    0.000 
#    0.000    0.000    0.000    0.000    0.000    0.000 
#
# Total GULP energy -233916.013339 kJ/mol
# GULP energy per Si atom -5569.428889 kJ/mol
# Density = 1.790333 g / cm^3
# Si number density = 17.944172 Si / 1000 Ang^3
#
#
#
# Elastic Constant Matrix: (Units=GPa)
#
#
# Indices 1 2 3 4 5 6 
#
# 1 60.7263 34.6623 34.2295 0.0000 0.0000 0.0000
# 2 34.6623 60.7263 34.2295 0.0000 0.0000 0.0000
# 3 34.2295 34.2295 93.5219 0.0000 0.0000 0.0000
# 4 0.0000 0.0000 0.0000 27.3061 0.0000 0.0000
# 5 0.0000 0.0000 0.0000 0.0000 27.3061 0.0000
# 6 0.0000 0.0000 0.0000 0.0000 0.0000 13.0320
#
#
#
# Elastic Compliance Matrix: (Units=1/GPa)
#
#
# Indices 1 2 3 4 5 6 
#
# 1 0.026293 -0.012074 -0.005204 0.000000 0.000000 0.000000
# 2 -0.012074 0.026293 -0.005204 0.000000 0.000000 0.000000
# 3 -0.005204 -0.005204 0.014502 0.000000 0.000000 0.000000
# 4 0.000000 0.000000 0.000000 0.036622 0.000000 0.000000
# 5 0.000000 0.000000 0.000000 0.000000 0.036622 0.000000
# 6 0.000000 0.000000 0.000000 0.000000 0.000000 0.076734
#
#
# Mechanical properties :
#
#
# Convention : Reuss Voigt Hill
#
# Bulk Modulus (GPa) = 45.20244 46.80191 46.00218
# Shear Modulus (GPa) = 18.55945 20.98569 19.77257
#
# Velocity S-wave (km/s) = 3.21952 3.42350 3.32308
# Velocity P-wave (km/s) = 6.25026 6.46264 6.35734
#
# Compressibility (1/GPa) = 0.02212270
#
# Stress axis : x y z
#
# Youngs Moduli (GPa) = 38.03336 38.03336 68.95579
#
# Poissons Ratio (x) = 0.45923 0.35884
# Poissons Ratio (y) = 0.45923 0.35884
# Poissons Ratio (z) = 0.19792 0.19792
#
# Static dielectric constant tensor:
#      x y z
#    x 1.714820 0.000000 0.000000 
#    y 0.000000 1.714820 0.000000 
#    z 0.000000 0.000000 1.701950 
# 
# From -- ./inp_files/4287.got.cif
#   From: 2010.05.17/outbox.cif.g08.bks.cpg/sg171_3_cif.got.tgz:4287.got - 2010.05.20 11:16:09.
