data_PCOD9580875
_publ_section_title
;
Structure prediction by ZEFSAII (Michael W. Deem and Ramdas Pophale) SiO2 
 PCOD9580875
Probable space group: P 62
;
_chemical_formula_sum "Si O2"
_cell_formula_units_Z 21
_cell_length_a 5.007582
_cell_length_b 5.007582
_cell_length_c 39.425062
_cell_angle_alpha 90.000000
_cell_angle_beta 90.000000
_cell_angle_gamma 120.000000
_cell_volume 856.168324
_symmetry_space_group_name_H-M "P 62"
_symmetry_group_IT_number 171
_symmetry_cell_setting 'hexagonal'
loop_
_space_group_symop_operation_xyz
x,y,z
x-y,x,1/3+z
-y,x-y,2/3+z
-x,-y,z
-x+y,-x,1/3+z
y,-x+y,2/3+z
loop_
_atom_site_type_symbol
_atom_site_label
_atom_site_fract_x
_atom_site_fract_y
_atom_site_fract_z
Si Si1 0.000000 0.000000 0.389910
Si Si2 0.500000 0.000000 0.772754
Si Si3 0.000000 0.000000 0.534644
Si Si4 0.500000 0.000000 0.245979
Si Si5 0.000000 0.500000 0.295611
Si Si6 0.000000 0.500000 0.678575
Si Si7 0.500000 0.000000 0.485134
O O1 0.005734 0.253324 0.414581
O O2 0.313802 0.190794 0.367910
O O3 0.391610 0.695805 0.795611
O O4 0.190794 0.313803 0.556644
O O5 0.253324 0.005734 0.509974
O O6 0.771048 0.234174 0.270413
O O7 0.771047 0.536872 0.320808
#
# Coordination Sequence:
#
# PCOD9580875 Si02
#       7
#     3   3   3   3   3   3   3
#     4  12  27  49  78 112 152 200 254 313 379 454
#     4  12  27  50  77 113 154 202 254 315 381 454
#     4  12  27  49  78 112 152 200 254 313 379 454
#     4  12  26  48  76 112 150 199 252 313 379 452
#     4  12  26  48  76 110 152 198 252 314 380 452
#     4  12  26  48  76 112 150 199 252 313 379 452
#     4  12  27  50  77 113 154 202 254 315 381 454
#
# _framework density 24.527885999999999
#
# number of rings (size 3 to 8) (size 9 to 14) (size 15 to 20)
#    0.000    0.000    0.000    9.429    0.000    6.857 
#    0.000    0.000    0.000    0.000    0.000    0.000 
#    0.000    0.000    0.000    0.000    0.000    0.000 
#
# Total GULP energy -117716.775859 kJ/mol
# GULP energy per Si atom -5605.560755 kJ/mol
# Density = 2.447206 g / cm^3
# Si number density = 24.527886 Si / 1000 Ang^3
#
#
#
# Elastic Constant Matrix: (Units=GPa)
#
#
# Indices 1 2 3 4 5 6 
#
# 1 219.2039 96.0329 115.9562 0.0000 0.0000 0.0000
# 2 96.0329 219.2039 115.9562 0.0000 0.0000 0.0000
# 3 115.9562 115.9562 184.2718 0.0000 0.0000 0.0000
# 4 0.0000 0.0000 0.0000 32.2560 0.0000 0.0000
# 5 0.0000 0.0000 0.0000 0.0000 32.2560 0.0000
# 6 0.0000 0.0000 0.0000 0.0000 0.0000 61.5855
#
#
#
# Elastic Compliance Matrix: (Units=1/GPa)
#
#
# Indices 1 2 3 4 5 6 
#
# 1 0.007013 -0.001106 -0.003717 0.000000 0.000000 0.000000
# 2 -0.001106 0.007013 -0.003717 0.000000 0.000000 0.000000
# 3 -0.003717 -0.003717 0.010105 0.000000 0.000000 0.000000
# 4 0.000000 0.000000 0.000000 0.031002 0.000000 0.000000
# 5 0.000000 0.000000 0.000000 0.000000 0.031002 0.000000
# 6 0.000000 0.000000 0.000000 0.000000 0.000000 0.016238
#
#
# Mechanical properties :
#
#
# Convention : Reuss Voigt Hill
#
# Bulk Modulus (GPa) = 141.83579 142.06338 141.94959
# Shear Modulus (GPa) = 41.05053 44.86846 42.95949
#
# Velocity S-wave (km/s) = 4.09544 4.28165 4.18958
# Velocity P-wave (km/s) = 8.96188 9.08231 9.02229
#
# Compressibility (1/GPa) = 0.00705041
#
# Stress axis : x y z
#
# Youngs Moduli (GPa) = 142.59846 142.59846 98.96554
#
# Poissons Ratio (x) = 0.15773 0.36784
# Poissons Ratio (y) = 0.15773 0.36784
# Poissons Ratio (z) = 0.53001 0.53001
#
# Static dielectric constant tensor:
#      x y z
#    x 1.912270 0.000000 0.000000 
#    y 0.000000 1.912270 0.000000 
#    z 0.000000 0.000000 1.961340 
# 
# From -- ./inp_files/5900.got.cif
#   From: 2010.05.17/outbox.cif.g08.bks.cpg/sg171_3_cif.got.tgz:5900.got - 2010.05.20 11:16:09.
