data_PCOD9580608
_publ_section_title
;
Structure prediction by ZEFSAII (Michael W. Deem and Ramdas Pophale) SiO2 
 PCOD9580608
Probable space group: P 62
;
_chemical_formula_sum "Si O2"
_cell_formula_units_Z 18
_cell_length_a 12.357604
_cell_length_b 12.357604
_cell_length_c 5.137503
_cell_angle_alpha 90.000000
_cell_angle_beta 90.000000
_cell_angle_gamma 120.000000
_cell_volume 679.440246
_symmetry_space_group_name_H-M "P 62"
_symmetry_group_IT_number 171
_symmetry_cell_setting 'hexagonal'
loop_
_space_group_symop_operation_xyz
x,y,z
x-y,x,1/3+z
-y,x-y,2/3+z
-x,-y,z
-x+y,-x,1/3+z
y,-x+y,2/3+z
loop_
_atom_site_type_symbol
_atom_site_label
_atom_site_fract_x
_atom_site_fract_y
_atom_site_fract_z
Si Si1 0.737324 0.550720 0.820030
Si Si2 0.518298 0.660807 0.002301
Si Si3 0.837677 0.067699 0.858747
O O1 0.755117 0.478436 0.569783
O O2 0.594931 0.472310 0.916348
O O3 0.809867 0.692807 0.712383
O O4 0.813728 0.549840 0.068331
O O5 0.654879 0.699869 0.119501
O O6 0.942934 0.120193 0.642039
#
# Coordination Sequence:
#
# PCOD9580608 Si02
#       3
#     6   6   6
#     4  10  21  41  79 116 166 211 268 336 425 498
#     4  10  21  41  79 116 166 211 268 336 425 498
#     4  10  26  50  84 115 166 227 288 348 412 508
#
# _framework density 26.492394999999998
#
# number of rings (size 3 to 8) (size 9 to 14) (size 15 to 20)
#    2.000    0.000    0.000    4.000    0.000    2.667 
#    0.000   13.333    7.333    2.000    0.000    0.000 
#    0.000    0.000    0.000    0.000    0.000    0.000 
#
# Total GULP energy -100453.131442 kJ/mol
# GULP energy per Si atom -5580.729525 kJ/mol
# Density = 2.643210 g / cm^3
# Si number density = 26.492395 Si / 1000 Ang^3
#
#
#
# Elastic Constant Matrix: (Units=GPa)
#
#
# Indices 1 2 3 4 5 6 
#
# 1 149.4243 82.0733 42.4236 0.0000 0.0000 0.0000
# 2 82.0733 149.4243 42.4236 0.0000 0.0000 0.0000
# 3 42.4236 42.4236 144.9513 0.0000 0.0000 0.0000
# 4 0.0000 0.0000 0.0000 57.2764 0.0000 0.0000
# 5 0.0000 0.0000 0.0000 0.0000 57.2764 0.0000
# 6 0.0000 0.0000 0.0000 0.0000 0.0000 33.6755
#
#
#
# Elastic Compliance Matrix: (Units=1/GPa)
#
#
# Indices 1 2 3 4 5 6 
#
# 1 0.009843 -0.005004 -0.001416 0.000000 0.000000 0.000000
# 2 -0.005004 0.009843 -0.001416 0.000000 0.000000 0.000000
# 3 -0.001416 -0.001416 0.007728 0.000000 0.000000 0.000000
# 4 0.000000 0.000000 0.000000 0.017459 0.000000 0.000000
# 5 0.000000 0.000000 0.000000 0.000000 0.017459 0.000000
# 6 0.000000 0.000000 0.000000 0.000000 0.000000 0.029695
#
#
# Mechanical properties :
#
#
# Convention : Reuss Voigt Hill
#
# Bulk Modulus (GPa) = 85.17445 86.40453 85.78949
# Shear Modulus (GPa) = 44.79693 48.10430 46.45061
#
# Velocity S-wave (km/s) = 4.11656 4.26582 4.19185
# Velocity P-wave (km/s) = 7.40372 7.54643 7.47541
#
# Compressibility (1/GPa) = 0.01174061
#
# Stress axis : x y z
#
# Youngs Moduli (GPa) = 101.59337 101.59337 129.40244
#
# Poissons Ratio (x) = 0.50842 0.18326
# Poissons Ratio (y) = 0.50842 0.18326
# Poissons Ratio (z) = 0.14387 0.14387
#
# Static dielectric constant tensor:
#      x y z
#    x 2.138250 0.000000 0.000000 
#    y 0.000000 2.138250 0.000000 
#    z 0.000000 0.000000 2.096940 
# 
# From -- ./inp_files/158.got.cif
#   From: 2010.05.17/outbox.cif.g08.bks.cpg/sg171_1_cif.got.tgz:158.got - 2010.05.20 11:16:09.
