data_PCOD9580953
_publ_section_title
;
Structure prediction by ZEFSAII (Michael W. Deem and Ramdas Pophale) SiO2 
 PCOD9580953
Probable space group: P 64
;
_chemical_formula_sum "Si O2"
_cell_formula_units_Z 30
_cell_length_a 7.763671
_cell_length_b 7.763671
_cell_length_c 22.002648
_cell_angle_alpha 90.000000
_cell_angle_beta 90.000000
_cell_angle_gamma 120.000000
_cell_volume 1148.523349
_symmetry_space_group_name_H-M "P 64"
_symmetry_group_IT_number 172
_symmetry_cell_setting 'hexagonal'
loop_
_space_group_symop_operation_xyz
x,y,z
x-y,x,2/3+z
-y,x-y,1/3+z
-x,-y,z
-x+y,-x,2/3+z
y,-x+y,1/3+z
loop_
_atom_site_type_symbol
_atom_site_label
_atom_site_fract_x
_atom_site_fract_y
_atom_site_fract_z
Si Si1 0.908022 0.621136 0.781030
Si Si2 0.025648 0.708207 0.130980
Si Si3 0.499203 0.702231 0.250877
Si Si4 0.344482 0.198476 0.920220
Si Si5 0.048975 0.227482 0.357763
O O1 0.806643 0.512067 0.843654
O O2 0.771579 0.651060 0.733407
O O3 0.000000 0.500000 0.749229
O O4 0.102362 0.829593 0.798948
O O5 0.168949 0.858764 0.181706
O O6 0.109580 0.753684 0.062633
O O7 0.000000 0.500000 0.150161
O O8 0.500000 0.500000 0.268967
O O9 0.316856 0.737494 0.266601
O O10 0.684179 0.913691 0.273239
O O11 0.249037 0.990136 0.955600
O O12 0.000000 0.000000 0.362431
#
# Coordination Sequence:
#
# PCOD9580953 Si02
#       5
#     6   6   6   6   6
#     4  10  21  42  71  99 144 194 239 307 381 450
#     4  11  23  46  73 104 149 201 257 320 392 463
#     4  10  22  43  76 109 152 202 250 316 392 469
#     4  11  24  44  76 109 151 204 256 317 395 474
#     4  10  24  43  72 108 146 198 249 315 391 464
#
# _framework density 26.120498999999999
#
# number of rings (size 3 to 8) (size 9 to 14) (size 15 to 20)
#    0.000    1.600    2.000    2.400    5.600    0.000 
#    0.000    9.000   13.200    0.000    0.000    0.000 
#    0.000    0.000    0.000    0.000    0.000    0.000 
#
# Total GULP energy -167866.031794 kJ/mol
# GULP energy per Si atom -5595.534393 kJ/mol
# Density = 2.606105 g / cm^3
# Si number density = 26.120499 Si / 1000 Ang^3
#
#
#
# Elastic Constant Matrix: (Units=GPa)
#
#
# Indices 1 2 3 4 5 6 
#
# 1 109.1463 39.6276 14.2657 0.0000 0.0000 0.0000
# 2 39.6276 109.1463 14.2657 0.0000 0.0000 0.0000
# 3 14.2657 14.2657 101.2356 0.0000 0.0000 0.0000
# 4 0.0000 0.0000 0.0000 20.3216 0.0000 0.0000
# 5 0.0000 0.0000 0.0000 0.0000 20.3216 0.0000
# 6 0.0000 0.0000 0.0000 0.0000 0.0000 34.7594
#
#
#
# Elastic Compliance Matrix: (Units=1/GPa)
#
#
# Indices 1 2 3 4 5 6 
#
# 1 0.010646 -0.003738 -0.000973 0.000000 0.000000 0.000000
# 2 -0.003738 0.010646 -0.000973 0.000000 0.000000 0.000000
# 3 -0.000973 -0.000973 0.010152 0.000000 0.000000 0.000000
# 4 0.000000 0.000000 0.000000 0.049209 0.000000 0.000000
# 5 0.000000 0.000000 0.000000 0.000000 0.049209 0.000000
# 6 0.000000 0.000000 0.000000 0.000000 0.000000 0.028769
#
#
# Mechanical properties :
#
#
# Convention : Reuss Voigt Hill
#
# Bulk Modulus (GPa) = 49.81330 50.64957 50.23144
# Shear Modulus (GPa) = 28.29751 31.83845 30.06798
#
# Velocity S-wave (km/s) = 3.29499 3.49507 3.39651
# Velocity P-wave (km/s) = 5.79551 5.97664 5.88677
#
# Compressibility (1/GPa) = 0.02007496
#
# Stress axis : x y z
#
# Youngs Moduli (GPa) = 93.92795 93.92795 98.49975
#
# Poissons Ratio (x) = 0.35112 0.09589
# Poissons Ratio (y) = 0.35112 0.09589
# Poissons Ratio (z) = 0.09144 0.09144
#
# Static dielectric constant tensor:
#      x y z
#    x 2.068380 0.000000 0.000000 
#    y 0.000000 2.068380 0.000000 
#    z 0.000000 0.000000 1.976490 
# 
# From -- ./inp_files/2196.got.cif
#   From: 2010.05.17/outbox.cif.g08.bks.cpg/sg172_2_cif.got.tgz:2196.got - 2010.05.20 11:19:57.
