data_PCOD9580868
_publ_section_title
;
Structure prediction by ZEFSAII (Michael W. Deem and Ramdas Pophale) SiO2 
 PCOD9580868
Probable space group: P 62
;
_chemical_formula_sum "Si O2"
_cell_formula_units_Z 18
_cell_length_a 13.060130
_cell_length_b 13.060130
_cell_length_c 4.759858
_cell_angle_alpha 90.000000
_cell_angle_beta 90.000000
_cell_angle_gamma 120.000000
_cell_volume 703.104096
_symmetry_space_group_name_H-M "P 62"
_symmetry_group_IT_number 171
_symmetry_cell_setting 'hexagonal'
loop_
_space_group_symop_operation_xyz
x,y,z
x-y,x,1/3+z
-y,x-y,2/3+z
-x,-y,z
-x+y,-x,1/3+z
y,-x+y,2/3+z
loop_
_atom_site_type_symbol
_atom_site_label
_atom_site_fract_x
_atom_site_fract_y
_atom_site_fract_z
Si Si1 0.832012 0.066598 0.032560
Si Si2 0.547557 0.213899 0.289266
Si Si3 0.609658 0.895655 0.754570
O O1 0.844786 0.160653 0.264361
O O2 0.818279 0.948819 0.176188
O O3 0.711223 0.022213 0.860520
O O4 0.575952 0.329719 0.472538
O O5 0.484044 0.112607 0.523555
O O6 0.458807 0.176705 0.029068
#
# Coordination Sequence:
#
# PCOD9580868 Si02
#       3
#     6   6   6
#     4  12  28  49  79 114 162 204 249 316 379 466
#     4  12  24  50  86 108 150 208 256 320 386 438
#     4  12  26  47  82 118 150 201 262 308 378 476
#
# _framework density 25.600762
#
# number of rings (size 3 to 8) (size 9 to 14) (size 15 to 20)
#    0.000    0.000    6.667    2.000    0.000    6.667 
#    0.000    1.667   29.333    0.000    0.000    0.000 
#    0.000    0.000    0.000    0.000    0.000    0.000 
#
# Total GULP energy -100837.330630 kJ/mol
# GULP energy per Si atom -5602.073924 kJ/mol
# Density = 2.554249 g / cm^3
# Si number density = 25.600762 Si / 1000 Ang^3
#
#
#
# Elastic Constant Matrix: (Units=GPa)
#
#
# Indices 1 2 3 4 5 6 
#
# 1 70.2290 51.2121 39.4855 0.0000 0.0000 0.0000
# 2 51.2121 70.2290 39.4855 0.0000 0.0000 0.0000
# 3 39.4855 39.4855 183.3660 0.0000 0.0000 0.0000
# 4 0.0000 0.0000 0.0000 67.7872 0.0000 0.0000
# 5 0.0000 0.0000 0.0000 0.0000 67.7872 0.0000
# 6 0.0000 0.0000 0.0000 0.0000 0.0000 9.5084
#
#
#
# Elastic Compliance Matrix: (Units=1/GPa)
#
#
# Indices 1 2 3 4 5 6 
#
# 1 0.031080 -0.021505 -0.002062 0.000000 0.000000 0.000000
# 2 -0.021505 0.031080 -0.002062 0.000000 0.000000 0.000000
# 3 -0.002062 -0.002062 0.006342 0.000000 0.000000 0.000000
# 4 0.000000 0.000000 0.000000 0.014752 0.000000 0.000000
# 5 0.000000 0.000000 0.000000 0.000000 0.014752 0.000000
# 6 0.000000 0.000000 0.000000 0.000000 0.000000 0.105170
#
#
# Mechanical properties :
#
#
# Convention : Reuss Voigt Hill
#
# Bulk Modulus (GPa) = 57.98957 64.91003 61.44980
# Shear Modulus (GPa) = 19.21741 41.92594 30.57168
#
# Velocity S-wave (km/s) = 2.74279 4.05122 3.45943
# Velocity P-wave (km/s) = 5.72112 6.87699 6.32551
#
# Compressibility (1/GPa) = 0.01724448
#
# Stress axis : x y z
#
# Youngs Moduli (GPa) = 32.17499 32.17499 157.68924
#
# Poissons Ratio (x) = 0.69192 0.32514
# Poissons Ratio (y) = 0.69192 0.32514
# Poissons Ratio (z) = 0.06634 0.06634
#
# Static dielectric constant tensor:
#      x y z
#    x 2.046410 0.000000 0.000000 
#    y 0.000000 2.046410 0.000000 
#    z 0.000000 0.000000 1.997150 
# 
# From -- ./inp_files/101.got.cif
#   From: 2010.05.17/outbox.cif.g08.bks.cpg/sg171_1_cif.got.tgz:101.got - 2010.05.20 11:16:09.
