data_PCOD9580365
_publ_section_title
;
Structure prediction by ZEFSAII (Michael W. Deem and Ramdas Pophale) SiO2 
 PCOD9580365
Probable space group: P 65
;
_chemical_formula_sum "Si O2"
_cell_formula_units_Z 30
_cell_length_a 11.365482
_cell_length_b 11.365482
_cell_length_c 11.266656
_cell_angle_alpha 90.000000
_cell_angle_beta 90.000000
_cell_angle_gamma 120.000000
_cell_volume 1260.379652
_symmetry_space_group_name_H-M "P 65"
_symmetry_group_IT_number 170
_symmetry_cell_setting 'hexagonal'
loop_
_space_group_symop_operation_xyz
x,y,z
x-y,x,5/6+z
-y,x-y,2/3+z
-x,-y,1/2+z
-x+y,-x,1/3+z
y,-x+y,1/6+z
loop_
_atom_site_type_symbol
_atom_site_label
_atom_site_fract_x
_atom_site_fract_y
_atom_site_fract_z
Si Si1 0.826966 0.338497 0.537660
Si Si2 0.378119 0.399154 0.925966
Si Si3 0.512370 0.188550 0.608448
Si Si4 0.243937 0.091563 0.489595
Si Si5 0.259276 0.884465 0.310584
O O1 0.935509 0.333067 0.624892
O O2 0.675332 0.288324 0.591063
O O3 0.797696 0.269706 0.408990
O O4 0.901193 0.498695 0.510424
O O5 0.348291 0.268589 0.003727
O O6 0.275592 0.433896 0.994541
O O7 0.538901 0.497809 0.930332
O O8 0.404317 0.189059 0.517864
O O9 0.174475 0.173525 0.438452
O O10 0.228562 0.981586 0.389662
#
# Coordination Sequence:
#
# PCOD9580365 Si02
#       5
#     6   6   6   6   6
#     4  11  23  43  68 112 147 191 240 314 386 448
#     4  11  21  42  65 110 142 192 243 301 378 452
#     4  11  27  42  75 108 156 190 249 323 385 454
#     4  12  28  51  76 108 146 208 257 312 378 464
#     4  11  23  40  74 104 143 195 251 302 373 450
#
# _framework density 23.802351999999999
#
# number of rings (size 3 to 8) (size 9 to 14) (size 15 to 20)
#    0.000    0.800    8.000    0.000    5.600    1.600 
#    0.000    4.000    0.000    0.000    0.000    0.000 
#    0.000    0.000    0.000    0.000    0.000    0.000 
#
# Total GULP energy -167139.755203 kJ/mol
# GULP energy per Si atom -5571.325173 kJ/mol
# Density = 2.374818 g / cm^3
# Si number density = 23.802352 Si / 1000 Ang^3
#
#
#
# Elastic Constant Matrix: (Units=GPa)
#
#
# Indices 1 2 3 4 5 6 
#
# 1 73.7899 10.2866 32.9627 0.0000 0.0000 0.0000
# 2 10.2866 73.7899 32.9627 0.0000 0.0000 0.0000
# 3 32.9627 32.9627 108.3633 0.0000 0.0000 0.0000
# 4 0.0000 0.0000 0.0000 34.4080 0.0000 0.0000
# 5 0.0000 0.0000 0.0000 0.0000 34.4080 0.0000
# 6 0.0000 0.0000 0.0000 0.0000 0.0000 31.7517
#
#
#
# Elastic Compliance Matrix: (Units=1/GPa)
#
#
# Indices 1 2 3 4 5 6 
#
# 1 0.015683 -0.000064 -0.004751 0.000000 0.000000 0.000000
# 2 -0.000064 0.015683 -0.004751 0.000000 0.000000 0.000000
# 3 -0.004751 -0.004751 0.012119 0.000000 0.000000 0.000000
# 4 0.000000 0.000000 0.000000 0.029063 0.000000 0.000000
# 5 0.000000 0.000000 0.000000 0.000000 0.029063 0.000000
# 6 0.000000 0.000000 0.000000 0.000000 0.000000 0.031494
#
#
# Mechanical properties :
#
#
# Convention : Reuss Voigt Hill
#
# Bulk Modulus (GPa) = 41.06321 45.37412 43.21867
# Shear Modulus (GPa) = 31.18060 32.09560 31.63810
#
# Velocity S-wave (km/s) = 3.62329 3.67607 3.64978
# Velocity P-wave (km/s) = 5.89860 6.09280 5.99649
#
# Compressibility (1/GPa) = 0.02435270
#
# Stress axis : x y z
#
# Youngs Moduli (GPa) = 63.76196 63.76196 82.51674
#
# Poissons Ratio (x) = 0.00407 0.39206
# Poissons Ratio (y) = 0.00407 0.39206
# Poissons Ratio (z) = 0.30295 0.30295
#
# Static dielectric constant tensor:
#      x y z
#    x 1.937760 0.000000 0.000000 
#    y 0.000000 1.937760 0.000000 
#    z 0.000000 0.000000 2.018940 
# 
# From -- ./inp_files/1149.got.cif
#   From: 2010.05.17/outbox.cif.g08.bks.cpg/sg170_cif.got.tgz:1149.got - 2010.05.20 11:14:30.
