data_PCOD9580731
_publ_section_title
;
Structure prediction by ZEFSAII (Michael W. Deem and Ramdas Pophale) SiO2 
 PCOD9580731
Probable space group: P 62
;
_chemical_formula_sum "Si O2"
_cell_formula_units_Z 21
_cell_length_a 13.321427
_cell_length_b 13.321427
_cell_length_c 5.864271
_cell_angle_alpha 90.000000
_cell_angle_beta 90.000000
_cell_angle_gamma 120.000000
_cell_volume 901.251835
_symmetry_space_group_name_H-M "P 62"
_symmetry_group_IT_number 171
_symmetry_cell_setting 'hexagonal'
loop_
_space_group_symop_operation_xyz
x,y,z
x-y,x,1/3+z
-y,x-y,2/3+z
-x,-y,z
-x+y,-x,1/3+z
y,-x+y,2/3+z
loop_
_atom_site_type_symbol
_atom_site_label
_atom_site_fract_x
_atom_site_fract_y
_atom_site_fract_z
Si Si1 0.000000 0.500000 0.446170
Si Si2 0.202252 0.110298 0.217255
Si Si3 0.068414 0.733642 0.246439
Si Si4 0.766268 0.320014 0.478058
O O1 0.000856 0.595709 0.278363
O O2 0.116013 0.576450 0.593546
O O3 0.134926 0.126131 0.424377
O O4 0.307679 0.101395 0.333719
O O5 0.230130 0.216942 0.050925
O O6 0.188426 0.762860 0.375300
O O7 0.741487 0.391908 0.287842
#
# Coordination Sequence:
#
# PCOD9580731 Si02
#       4
#     3   6   6   6
#     4   8  24  44  70 106 148 180 246 300 364 444
#     4  12  28  46  73 100 143 188 238 301 360 438
#     4  10  26  43  72 106 145 184 242 296 369 440
#     4  10  24  43  75 102 145 190 241 300 367 443
#
# _framework density 23.300924999999999
#
# number of rings (size 3 to 8) (size 9 to 14) (size 15 to 20)
#    1.714    0.000    0.000    1.714   12.000    5.714 
#    0.000    2.857    0.000    0.000    0.000    0.000 
#    0.000    0.000    0.000    0.000    0.000    0.000 
#
# Total GULP energy -117042.152853 kJ/mol
# GULP energy per Si atom -5573.435850 kJ/mol
# Density = 2.324789 g / cm^3
# Si number density = 23.300925 Si / 1000 Ang^3
#
#
#
# Elastic Constant Matrix: (Units=GPa)
#
#
# Indices 1 2 3 4 5 6 
#
# 1 96.9248 6.1890 10.3898 0.0000 0.0000 0.0000
# 2 6.1890 96.9248 10.3898 0.0000 0.0000 0.0000
# 3 10.3898 10.3898 23.4224 0.0000 0.0000 0.0000
# 4 0.0000 0.0000 0.0000 17.1458 0.0000 0.0000
# 5 0.0000 0.0000 0.0000 0.0000 17.1458 0.0000
# 6 0.0000 0.0000 0.0000 0.0000 0.0000 45.3679
#
#
#
# Elastic Compliance Matrix: (Units=1/GPa)
#
#
# Indices 1 2 3 4 5 6 
#
# 1 0.010836 -0.000185 -0.004724 0.000000 0.000000 0.000000
# 2 -0.000185 0.010836 -0.004724 0.000000 0.000000 0.000000
# 3 -0.004724 -0.004724 0.046885 0.000000 0.000000 0.000000
# 4 0.000000 0.000000 0.000000 0.058323 0.000000 0.000000
# 5 0.000000 0.000000 0.000000 0.000000 0.058323 0.000000
# 6 0.000000 0.000000 0.000000 0.000000 0.000000 0.022042
#
#
# Mechanical properties :
#
#
# Convention : Reuss Voigt Hill
#
# Bulk Modulus (GPa) = 20.28863 30.13437 25.21150
# Shear Modulus (GPa) = 20.58104 28.61881 24.59992
#
# Velocity S-wave (km/s) = 2.97521 3.50841 3.25275
# Velocity P-wave (km/s) = 4.53085 5.41966 4.99506
#
# Compressibility (1/GPa) = 0.04928869
#
# Stress axis : x y z
#
# Youngs Moduli (GPa) = 92.28904 92.28904 21.32862
#
# Poissons Ratio (x) = 0.01712 0.10076
# Poissons Ratio (y) = 0.01712 0.10076
# Poissons Ratio (z) = 0.43599 0.43599
#
# Static dielectric constant tensor:
#      x y z
#    x 1.914140 0.000000 0.000000 
#    y 0.000000 1.914140 0.000000 
#    z 0.000000 0.000000 1.854860 
# 
# From -- ./inp_files/179.got.cif
#   From: 2010.05.17/outbox.cif.g08.bks.cpg/sg171_1_cif.got.tgz:179.got - 2010.05.20 11:16:09.
