data_PCOD9580110
_publ_section_title
;
Structure prediction by ZEFSAII (Michael W. Deem and Ramdas Pophale) SiO2 
 PCOD9580110
Probable space group: P 61
;
_chemical_formula_sum "Si O2"
_cell_formula_units_Z 42
_cell_length_a 10.783193
_cell_length_b 10.783193
_cell_length_c 17.549790
_cell_angle_alpha 90.000000
_cell_angle_beta 90.000000
_cell_angle_gamma 120.000000
_cell_volume 1767.247242
_symmetry_space_group_name_H-M "P 61"
_symmetry_group_IT_number 169
_symmetry_cell_setting 'hexagonal'
loop_
_space_group_symop_operation_xyz
x,y,z
x-y,x,1/6+z
-y,x-y,1/3+z
-x,-y,1/2+z
-x+y,-x,2/3+z
y,-x+y,5/6+z
loop_
_atom_site_type_symbol
_atom_site_label
_atom_site_fract_x
_atom_site_fract_y
_atom_site_fract_z
Si Si1 0.265316 0.443284 0.487440
Si Si2 0.026053 0.092045 0.180116
Si Si3 0.020770 0.478300 0.760740
Si Si4 0.599670 0.846456 0.332091
Si Si5 0.556746 0.464050 0.846938
Si Si6 0.513956 0.212526 0.663548
Si Si7 0.345347 0.018174 0.058646
O O1 0.320311 0.412327 0.565440
O O2 0.365178 0.440219 0.419883
O O3 0.283796 0.599304 0.499684
O O4 0.106668 0.354061 0.452259
O O5 0.020833 0.016781 0.098474
O O6 0.181163 0.237272 0.183619
O O7 0.908490 0.141782 0.176031
O O8 0.047597 0.594759 0.695239
O O9 0.167380 0.478362 0.778055
O O10 0.979223 0.545752 0.831844
O O11 0.502343 0.696552 0.373907
O O12 0.556802 0.802162 0.245248
O O13 0.417433 0.464256 0.813725
O O14 0.672312 0.531959 0.778817
#
# Coordination Sequence:
#
# PCOD9580110 Si02
#       7
#     6   6   6   6   6   6   6
#     4  11  26  45  73 109 151 194 243 317 384 454
#     4  12  27  49  77 108 147 212 266 312 380 474
#     4  12  25  44  79 108 144 202 246 311 396 453
#     4  12  24  43  74 106 149 194 256 308 375 466
#     4  11  23  44  69 106 150 188 242 318 370 451
#     4  11  25  42  69 113 144 188 248 311 379 454
#     4  11  26  47  75 108 147 196 261 307 380 470
#
# _framework density 23.765772999999999
#
# number of rings (size 3 to 8) (size 9 to 14) (size 15 to 20)
#    0.000    0.571    5.714    1.714    4.000    0.000 
#    5.143    0.000    0.000    0.000    0.000    0.000 
#    0.000    0.000    0.000    0.000    0.000    0.000 
#
# Total GULP energy -234415.767783 kJ/mol
# GULP energy per Si atom -5581.327804 kJ/mol
# Density = 2.371168 g / cm^3
# Si number density = 23.765773 Si / 1000 Ang^3
#
#
#
# Elastic Constant Matrix: (Units=GPa)
#
#
# Indices 1 2 3 4 5 6 
#
# 1 57.9826 3.0814 17.4348 0.0000 0.0000 0.0000
# 2 3.0814 57.9826 17.4348 0.0000 0.0000 0.0000
# 3 17.4348 17.4348 97.1667 0.0000 0.0000 0.0000
# 4 0.0000 0.0000 0.0000 35.8885 0.0000 0.0000
# 5 0.0000 0.0000 0.0000 0.0000 35.8885 0.0000
# 6 0.0000 0.0000 0.0000 0.0000 0.0000 27.4506
#
#
#
# Elastic Compliance Matrix: (Units=1/GPa)
#
#
# Indices 1 2 3 4 5 6 
#
# 1 0.018230 0.000016 -0.003274 0.000000 0.000000 0.000000
# 2 0.000016 0.018230 -0.003274 0.000000 0.000000 0.000000
# 3 -0.003274 -0.003274 0.011466 0.000000 0.000000 0.000000
# 4 0.000000 0.000000 0.000000 0.027864 0.000000 0.000000
# 5 0.000000 0.000000 0.000000 0.000000 0.027864 0.000000
# 6 0.000000 0.000000 0.000000 0.000000 0.000000 0.036429
#
#
# Mechanical properties :
#
#
# Convention : Reuss Voigt Hill
#
# Bulk Modulus (GPa) = 28.68413 32.11488 30.39950
# Shear Modulus (GPa) = 30.34552 31.52427 30.93489
#
# Velocity S-wave (km/s) = 3.57719 3.64601 3.61176
# Velocity P-wave (km/s) = 5.39976 5.59168 5.49656
#
# Compressibility (1/GPa) = 0.03486249
#
# Stress axis : x y z
#
# Youngs Moduli (GPa) = 54.85424 54.85424 87.21081
#
# Poissons Ratio (x) = -0.00086 0.28552
# Poissons Ratio (y) = -0.00086 0.28552
# Poissons Ratio (z) = 0.17959 0.17959
#
# Static dielectric constant tensor:
#      x y z
#    x 1.947130 0.000000 0.000000 
#    y 0.000000 1.947130 0.000000 
#    z 0.000000 0.000000 1.991140 
# 
# From -- ./inp_files/1383.got.cif
#   From: 2010.05.17/outbox.cif.g08.bks.cpg/sg169_cif.got.tgz:1383.got - 2010.05.20 11:12:54.
