data_PCOD9580426
_publ_section_title
;
Structure prediction by ZEFSAII (Michael W. Deem and Ramdas Pophale) SiO2 
 PCOD9580426
Probable space group: P 62
;
_chemical_formula_sum "Si O2"
_cell_formula_units_Z 33
_cell_length_a 15.909410
_cell_length_b 15.909410
_cell_length_c 7.627145
_cell_angle_alpha 90.000000
_cell_angle_beta 90.000000
_cell_angle_gamma 120.000000
_cell_volume 1671.863371
_symmetry_space_group_name_H-M "P 62"
_symmetry_group_IT_number 171
_symmetry_cell_setting 'hexagonal'
loop_
_space_group_symop_operation_xyz
x,y,z
x-y,x,1/3+z
-y,x-y,2/3+z
-x,-y,z
-x+y,-x,1/3+z
y,-x+y,2/3+z
loop_
_atom_site_type_symbol
_atom_site_label
_atom_site_fract_x
_atom_site_fract_y
_atom_site_fract_z
Si Si1 0.590793 0.712081 0.489690
Si Si2 0.416277 0.110224 0.518744
Si Si3 0.100407 0.883094 0.630609
Si Si4 0.009190 0.799938 0.991978
Si Si5 0.289057 0.963409 0.794833
Si Si6 0.000000 0.500000 0.983914
O O1 0.541219 0.775418 0.539374
O O2 0.698349 0.772078 0.577412
O O3 0.604828 0.703554 0.282878
O O4 0.538836 0.601801 0.552585
O O5 0.484097 0.078501 0.421621
O O6 0.316406 0.078988 0.407086
O O7 0.381802 0.041729 0.689862
O O8 0.130956 0.967829 0.484245
O O9 0.205048 0.891962 0.662940
O O10 0.055640 0.873267 0.826859
O O11 0.028767 0.782007 0.540989
#
# Coordination Sequence:
#
# PCOD9580426 Si02
#       6
#     6   6   6   6   6   3
#     4  10  19  38  61  88 122 161 207 273 316 397
#     4  10  19  38  61  88 122 161 207 273 316 397
#     4  10  18  30  52  90 112 154 205 252 302 383
#     4   9  18  31  54  87 113 154 204 263 312 373
#     4  10  20  33  62  87 116 154 210 252 324 379
#     4  10  24  38  64  94 126 160 226 258 352 412
#
# _framework density 19.738454000000001
#
# number of rings (size 3 to 8) (size 9 to 14) (size 15 to 20)
#    0.000    2.182    3.636    0.000    0.000    0.727 
#    0.000    0.000    8.000    5.455    0.000    0.000 
#    0.000    0.000    0.000    0.000    0.000    0.000 
#
# Total GULP energy -183724.579994 kJ/mol
# GULP energy per Si atom -5567.411515 kJ/mol
# Density = 1.969353 g / cm^3
# Si number density = 19.738454 Si / 1000 Ang^3
#
#
#
# Elastic Constant Matrix: (Units=GPa)
#
#
# Indices 1 2 3 4 5 6 
#
# 1 67.5383 32.4510 15.7583 0.0000 0.0000 0.0000
# 2 32.4510 67.5383 15.7583 0.0000 0.0000 0.0000
# 3 15.7583 15.7583 95.8851 0.0000 0.0000 0.0000
# 4 0.0000 0.0000 0.0000 11.7773 0.0000 0.0000
# 5 0.0000 0.0000 0.0000 0.0000 11.7773 0.0000
# 6 0.0000 0.0000 0.0000 0.0000 0.0000 17.5437
#
#
#
# Elastic Compliance Matrix: (Units=1/GPa)
#
#
# Indices 1 2 3 4 5 6 
#
# 1 0.019524 -0.008976 -0.001733 0.000000 0.000000 0.000000
# 2 -0.008976 0.019524 -0.001733 0.000000 0.000000 0.000000
# 3 -0.001733 -0.001733 0.010999 0.000000 0.000000 0.000000
# 4 0.000000 0.000000 0.000000 0.084909 0.000000 0.000000
# 5 0.000000 0.000000 0.000000 0.000000 0.084909 0.000000
# 6 0.000000 0.000000 0.000000 0.000000 0.000000 0.057001
#
#
# Mechanical properties :
#
#
# Convention : Reuss Voigt Hill
#
# Bulk Modulus (GPa) = 39.74549 39.87744 39.81147
# Shear Modulus (GPa) = 16.12183 19.35261 17.73722
#
# Velocity S-wave (km/s) = 2.86102 3.13461 3.00094
# Velocity P-wave (km/s) = 5.57618 5.77476 5.67634
#
# Compressibility (1/GPa) = 0.02516009
#
# Stress axis : x y z
#
# Youngs Moduli (GPa) = 51.21934 51.21934 90.91811
#
# Poissons Ratio (x) = 0.45977 0.15760
# Poissons Ratio (y) = 0.45977 0.15760
# Poissons Ratio (z) = 0.08879 0.08879
#
# Static dielectric constant tensor:
#      x y z
#    x 1.708290 0.000000 0.000000 
#    y 0.000000 1.708290 0.000000 
#    z 0.000000 0.000000 1.788790 
# 
# From -- ./inp_files/673.got.cif
#   From: 2010.05.17/outbox.cif.g08.bks.cpg/sg171_1_cif.got.tgz:673.got - 2010.05.20 11:16:09.
