data_PCOD9580278
_publ_section_title
;
Structure prediction by ZEFSAII (Michael W. Deem and Ramdas Pophale) SiO2 
 PCOD9580278
Probable space group: P 65
;
_chemical_formula_sum "Si O2"
_cell_formula_units_Z 48
_cell_length_a 12.560803
_cell_length_b 12.560803
_cell_length_c 17.541892
_cell_angle_alpha 90.000000
_cell_angle_beta 90.000000
_cell_angle_gamma 120.000000
_cell_volume 2396.855615
_symmetry_space_group_name_H-M "P 65"
_symmetry_group_IT_number 170
_symmetry_cell_setting 'hexagonal'
loop_
_space_group_symop_operation_xyz
x,y,z
x-y,x,5/6+z
-y,x-y,2/3+z
-x,-y,1/2+z
-x+y,-x,1/3+z
y,-x+y,1/6+z
loop_
_atom_site_type_symbol
_atom_site_label
_atom_site_fract_x
_atom_site_fract_y
_atom_site_fract_z
Si Si1 0.029902 0.348628 0.205310
Si Si2 0.379021 0.994541 0.255941
Si Si3 0.633525 0.345905 0.479085
Si Si4 0.169477 0.433888 0.056046
Si Si5 0.216327 0.852012 0.681751
Si Si6 0.380163 0.022695 0.803121
Si Si7 0.020642 0.569157 0.254646
Si Si8 0.556823 0.702746 0.283455
O O1 0.072316 0.405302 0.122430
O O2 0.138281 0.360539 0.257277
O O3 0.979059 0.426243 0.248699
O O4 0.923210 0.210897 0.204133
O O5 0.396162 0.130246 0.255105
O O6 0.497050 0.986408 0.286315
O O7 0.374363 0.969312 0.165431
O O8 0.270347 0.902566 0.311775
O O9 0.748668 0.423487 0.534122
O O10 0.510196 0.281215 0.528998
O O11 0.626082 0.455095 0.430705
O O12 0.644579 0.236647 0.439206
O O13 0.296887 0.974285 0.727599
O O14 0.311299 0.928754 0.872628
O O15 0.403914 0.160171 0.811965
O O16 0.959261 0.591320 0.181090
#
# Coordination Sequence:
#
# PCOD9580278 Si02
#       8
#     6   6   6   6   6   6   6   6
#     4  11  21  37  65  92 128 171 215 270 330 407
#     4  11  23  42  61 100 136 176 216 281 349 404
#     4  10  22  38  63  99 139 170 204 287 328 417
#     4  11  22  39  62  97 132 168 225 266 343 414
#     4  11  22  39  58  96 127 166 211 269 336 388
#     4  12  25  43  64 101 138 181 225 286 344 414
#     4  10  23  40  59  99 135 178 218 260 349 404
#     4  12  26  42  68 102 137 186 232 275 353 418
#
# _framework density 20.026237999999999
#
# number of rings (size 3 to 8) (size 9 to 14) (size 15 to 20)
#    0.000    1.000    6.250    2.250    3.500    2.000 
#    2.250    0.000    0.000    0.000   65.000    0.000 
#    0.000    0.000    0.000    0.000    0.000    0.000 
#
# Total GULP energy -267328.784901 kJ/mol
# GULP energy per Si atom -5569.349685 kJ/mol
# Density = 1.998066 g / cm^3
# Si number density = 20.026238 Si / 1000 Ang^3
#
#
#
# Elastic Constant Matrix: (Units=GPa)
#
#
# Indices 1 2 3 4 5 6 
#
# 1 66.4761 34.7842 27.5251 0.0000 0.0000 0.0000
# 2 34.7842 66.4761 27.5251 0.0000 0.0000 0.0000
# 3 27.5251 27.5251 102.9207 0.0000 0.0000 0.0000
# 4 0.0000 0.0000 0.0000 23.0804 0.0000 0.0000
# 5 0.0000 0.0000 0.0000 0.0000 23.0804 0.0000
# 6 0.0000 0.0000 0.0000 0.0000 0.0000 15.8459
#
#
#
# Elastic Compliance Matrix: (Units=1/GPa)
#
#
# Indices 1 2 3 4 5 6 
#
# 1 0.021555 -0.009999 -0.003090 0.000000 0.000000 0.000000
# 2 -0.009999 0.021555 -0.003090 0.000000 0.000000 0.000000
# 3 -0.003090 -0.003090 0.011369 0.000000 0.000000 0.000000
# 4 0.000000 0.000000 0.000000 0.043327 0.000000 0.000000
# 5 0.000000 0.000000 0.000000 0.000000 0.043327 0.000000
# 6 0.000000 0.000000 0.000000 0.000000 0.000000 0.063108
#
#
# Mechanical properties :
#
#
# Convention : Reuss Voigt Hill
#
# Bulk Modulus (GPa) = 45.21045 46.17130 45.69087
# Shear Modulus (GPa) = 20.49407 22.13723 21.31565
#
# Velocity S-wave (km/s) = 3.20247 3.32838 3.26603
# Velocity P-wave (km/s) = 6.02487 6.15437 6.08996
#
# Compressibility (1/GPa) = 0.02211878
#
# Stress axis : x y z
#
# Youngs Moduli (GPa) = 46.39350 46.39350 87.95668
#
# Poissons Ratio (x) = 0.46389 0.27183
# Poissons Ratio (y) = 0.46389 0.27183
# Poissons Ratio (z) = 0.14338 0.14338
#
# Static dielectric constant tensor:
#      x y z
#    x 1.746900 0.000000 0.000000 
#    y 0.000000 1.746900 0.000000 
#    z 0.000000 0.000000 1.729070 
# 
# From -- ./inp_files/1443.got.cif
#   From: 2010.05.17/outbox.cif.g08.bks.cpg/sg170_cif.got.tgz:1443.got - 2010.05.20 11:14:30.
