data_PCOD9580637
_publ_section_title
;
Structure prediction by ZEFSAII (Michael W. Deem and Ramdas Pophale) SiO2 
 PCOD9580637
Probable space group: P 62
;
_chemical_formula_sum "Si O2"
_cell_formula_units_Z 30
_cell_length_a 18.397423
_cell_length_b 18.397423
_cell_length_c 5.080991
_cell_angle_alpha 90.000000
_cell_angle_beta 90.000000
_cell_angle_gamma 120.000000
_cell_volume 1489.337227
_symmetry_space_group_name_H-M "P 62"
_symmetry_group_IT_number 171
_symmetry_cell_setting 'hexagonal'
loop_
_space_group_symop_operation_xyz
x,y,z
x-y,x,1/3+z
-y,x-y,2/3+z
-x,-y,z
-x+y,-x,1/3+z
y,-x+y,2/3+z
loop_
_atom_site_type_symbol
_atom_site_label
_atom_site_fract_x
_atom_site_fract_y
_atom_site_fract_z
Si Si1 0.401316 0.497544 0.651390
Si Si2 0.004923 0.683023 0.273968
Si Si3 0.826572 0.646386 0.144658
Si Si4 0.593656 0.092408 0.822340
Si Si5 0.769939 0.531388 0.645999
O O1 0.446346 0.524564 0.372555
O O2 0.328936 0.521184 0.661884
O O3 0.353873 0.398709 0.729043
O O4 0.467473 0.552277 0.874261
O O5 0.928249 0.694993 0.169941
O O6 0.961567 0.603370 0.476838
O O7 0.082687 0.768921 0.389341
O O8 0.792510 0.603363 0.426478
O O9 0.805787 0.574951 0.926046
O O10 0.667504 0.185394 0.881584
#
# Coordination Sequence:
#
# PCOD9580637 Si02
#       5
#     6   6   6   6   6
#     4  11  23  38  60  86 120 162 209 255 300 360
#     4  10  23  40  62  90 124 157 208 262 322 371
#     4  10  22  38  62  84 120 155 190 256 308 379
#     4  11  23  38  60  86 120 162 209 255 300 360
#     4  10  22  40  54  82 124 159 206 249 304 352
#
# _framework density 20.143187000000001
#
# number of rings (size 3 to 8) (size 9 to 14) (size 15 to 20)
#    0.000    1.600    0.000    5.400    0.000   19.200 
#    3.600    0.000    0.000    0.000    0.000    0.000 
#    0.000  153.600    0.000    0.000    0.000    0.000 
#
# Total GULP energy -167366.324825 kJ/mol
# GULP energy per Si atom -5578.877494 kJ/mol
# Density = 2.009734 g / cm^3
# Si number density = 20.143187 Si / 1000 Ang^3
#
#
#
# Elastic Constant Matrix: (Units=GPa)
#
#
# Indices 1 2 3 4 5 6 
#
# 1 124.5395 45.1595 0.7224 0.0000 0.0000 0.0000
# 2 45.1595 124.5395 0.7224 0.0000 0.0000 0.0000
# 3 0.7224 0.7224 48.9328 0.0000 0.0000 0.0000
# 4 0.0000 0.0000 0.0000 20.5813 0.0000 0.0000
# 5 0.0000 0.0000 0.0000 0.0000 20.5813 0.0000
# 6 0.0000 0.0000 0.0000 0.0000 0.0000 39.6900
#
#
#
# Elastic Compliance Matrix: (Units=1/GPa)
#
#
# Indices 1 2 3 4 5 6 
#
# 1 0.009246 -0.003352 -0.000087 0.000000 0.000000 0.000000
# 2 -0.003352 0.009246 -0.000087 0.000000 0.000000 0.000000
# 3 -0.000087 -0.000087 0.020439 0.000000 0.000000 0.000000
# 4 0.000000 0.000000 0.000000 0.048588 0.000000 0.000000
# 5 0.000000 0.000000 0.000000 0.000000 0.048588 0.000000
# 6 0.000000 0.000000 0.000000 0.000000 0.000000 0.025195
#
#
# Mechanical properties :
#
#
# Convention : Reuss Voigt Hill
#
# Bulk Modulus (GPa) = 31.36982 43.46893 37.41937
# Shear Modulus (GPa) = 27.93623 32.93099 30.43361
#
# Velocity S-wave (km/s) = 3.72813 4.04771 3.89120
# Velocity P-wave (km/s) = 5.84287 6.59334 6.22941
#
# Compressibility (1/GPa) = 0.03187778
#
# Stress axis : x y z
#
# Youngs Moduli (GPa) = 108.15976 108.15976 48.92668
#
# Poissons Ratio (x) = 0.36256 0.00426
# Poissons Ratio (y) = 0.36256 0.00426
# Poissons Ratio (z) = 0.00941 0.00941
#
# Static dielectric constant tensor:
#      x y z
#    x 1.749990 0.000000 0.000000 
#    y 0.000000 1.749990 0.000000 
#    z 0.000000 0.000000 1.731860 
# 
# From -- ./inp_files/313.got.cif
#   From: 2010.05.17/outbox.cif.g08.bks.cpg/sg171_1_cif.got.tgz:313.got - 2010.05.20 11:16:09.
