data_PCOD9580452
_publ_section_title
;
Structure prediction by ZEFSAII (Michael W. Deem and Ramdas Pophale) SiO2 
 PCOD9580452
Probable space group: P 62
;
_chemical_formula_sum "Si O2"
_cell_formula_units_Z 45
_cell_length_a 10.143811
_cell_length_b 10.143811
_cell_length_c 22.713605
_cell_angle_alpha 90.000000
_cell_angle_beta 90.000000
_cell_angle_gamma 120.000000
_cell_volume 2024.039568
_symmetry_space_group_name_H-M "P 62"
_symmetry_group_IT_number 171
_symmetry_cell_setting 'hexagonal'
loop_
_space_group_symop_operation_xyz
x,y,z
x-y,x,1/3+z
-y,x-y,2/3+z
-x,-y,z
-x+y,-x,1/3+z
y,-x+y,2/3+z
loop_
_atom_site_type_symbol
_atom_site_label
_atom_site_fract_x
_atom_site_fract_y
_atom_site_fract_z
Si Si1 0.455126 0.833968 0.015260
Si Si2 0.789173 0.788022 0.288644
Si Si3 0.007442 0.354094 0.988039
Si Si4 0.288003 0.014923 0.823216
Si Si5 0.588009 0.306467 0.586233
Si Si6 0.796613 0.767114 0.036354
Si Si7 0.500000 0.500000 0.983551
Si Si8 0.751793 0.387996 0.467302
O O1 0.405182 0.715527 0.070252
O O2 0.500000 0.000000 0.042716
O O3 0.387012 0.093736 0.978204
O O4 0.329932 0.733462 0.964102
O O5 0.801111 0.777562 0.218884
O O6 0.948479 0.846280 0.321821
O O7 0.700200 0.879142 0.305101
O O8 0.115588 0.444969 0.932591
O O9 0.109516 0.318584 0.030982
O O10 0.000000 0.500000 0.014410
O O11 0.452166 0.160928 0.806431
O O12 0.175646 0.983296 0.768845
O O13 0.319404 0.875108 0.823127
O O14 0.543742 0.140890 0.608679
O O15 0.626468 0.327181 0.518200
O O16 0.621500 0.638326 0.023096
#
# Coordination Sequence:
#
# PCOD9580452 Si02
#       8
#     6   6   6   6   6   6   3   6
#     4  12  23  40  69 102 143 187 245 308 362 448
#     4  12  24  44  70 106 144 192 248 301 375 453
#     4  11  25  44  71  97 148 190 234 308 375 432
#     4  11  21  38  72 101 139 184 247 305 369 446
#     4  11  22  42  70 102 141 189 242 298 372 440
#     4  11  22  43  72 102 139 192 245 303 373 446
#     4  10  18  40  72 102 140 186 242 306 360 436
#     4  11  21  37  67 107 137 189 247 305 366 441
#
# _framework density 22.232769000000001
#
# number of rings (size 3 to 8) (size 9 to 14) (size 15 to 20)
#    0.000    0.800    4.000    5.200    0.000    1.600 
#    0.000    2.667   27.867    0.000    0.000    0.000 
#    0.000    0.000    0.000    0.000    0.000    0.000 
#
# Total GULP energy -250546.705389 kJ/mol
# GULP energy per Si atom -5567.704564 kJ/mol
# Density = 2.218217 g / cm^3
# Si number density = 22.232769 Si / 1000 Ang^3
#
#
#
# Elastic Constant Matrix: (Units=GPa)
#
#
# Indices 1 2 3 4 5 6 
#
# 1 87.7735 33.9340 30.6312 0.0000 0.0000 0.0000
# 2 33.9340 87.7735 30.6312 0.0000 0.0000 0.0000
# 3 30.6312 30.6312 159.5066 0.0000 0.0000 0.0000
# 4 0.0000 0.0000 0.0000 -347.8410 0.0000 0.0000
# 5 0.0000 0.0000 0.0000 0.0000 -347.8410 0.0000
# 6 0.0000 0.0000 0.0000 0.0000 0.0000 26.9198
#
#
#
# Elastic Compliance Matrix: (Units=1/GPa)
#
#
# Indices 1 2 3 4 5 6 
#
# 1 0.013835 -0.004739 -0.001747 0.000000 0.000000 0.000000
# 2 -0.004739 0.013835 -0.001747 0.000000 0.000000 0.000000
# 3 -0.001747 -0.001747 0.006940 0.000000 0.000000 0.000000
# 4 0.000000 0.000000 0.000000 -0.002875 0.000000 0.000000
# 5 0.000000 0.000000 0.000000 0.000000 -0.002875 0.000000
# 6 0.000000 0.000000 0.000000 0.000000 0.000000 0.037147
#
#
# Mechanical properties :
#
#
# Convention : Reuss Voigt Hill
#
# Bulk Modulus (GPa) = 55.11259 58.38291 56.74775
# Shear Modulus (GPa) = 56.48419 -117.76196 -30.63889
#
# Velocity S-wave (km/s) = 5.04589 -7.28579 -3.71630
# Velocity P-wave (km/s) = 7.66751 6.66784 2.67680
#
# Compressibility (1/GPa) = 0.01814467
#
# Stress axis : x y z
#
# Youngs Moduli (GPa) = 72.28212 72.28212 144.08812
#
# Poissons Ratio (x) = 0.34255 0.25168
# Poissons Ratio (y) = 0.34255 0.25168
# Poissons Ratio (z) = 0.12626 0.12626
#
# Static dielectric constant tensor:
#      x y z
#    x 3.365980 0.000000 0.000000 
#    y 0.000000 3.365980 0.000000 
#    z 0.000000 0.000000 1.784770 
# 
# From -- ./inp_files/4053.got.cif
#   From: 2010.05.17/outbox.cif.g08.bks.cpg/sg171_3_cif.got.tgz:4053.got - 2010.05.20 11:16:09.
