data_PCOD9580918
_publ_section_title
;
Structure prediction by ZEFSAII (Michael W. Deem and Ramdas Pophale) SiO2 
 PCOD9580918
Probable space group: P 64
;
_chemical_formula_sum "Si O2"
_cell_formula_units_Z 39
_cell_length_a 8.785430
_cell_length_b 8.785430
_cell_length_c 30.760358
_cell_angle_alpha 90.000000
_cell_angle_beta 90.000000
_cell_angle_gamma 120.000000
_cell_volume 2056.118131
_symmetry_space_group_name_H-M "P 64"
_symmetry_group_IT_number 172
_symmetry_cell_setting 'hexagonal'
loop_
_space_group_symop_operation_xyz
x,y,z
x-y,x,2/3+z
-y,x-y,1/3+z
-x,-y,z
-x+y,-x,2/3+z
y,-x+y,1/3+z
loop_
_atom_site_type_symbol
_atom_site_label
_atom_site_fract_x
_atom_site_fract_y
_atom_site_fract_z
Si Si1 0.886489 0.599912 0.122970
Si Si2 0.681895 0.690618 0.550063
Si Si3 0.474428 0.159063 0.614115
Si Si4 0.286674 0.193556 0.024527
Si Si5 0.256734 0.047184 0.698852
Si Si6 0.500000 0.000000 0.426058
Si Si7 0.688838 0.169639 0.269771
O O1 0.671638 0.507807 0.116856
O O2 0.000000 0.500000 0.127103
O O3 0.932213 0.701762 0.168837
O O4 0.973021 0.705557 0.078867
O O5 0.500000 0.500000 0.551991
O O6 0.665093 0.814300 0.586073
O O7 0.825383 0.639699 0.564609
O O8 0.417396 0.128715 0.664962
O O9 0.658225 0.330500 0.604409
O O10 0.500000 0.000000 0.599487
O O11 0.407979 0.329438 0.061315
O O12 0.129036 0.228513 0.010630
O O13 0.189877 0.993073 0.039663
O O14 0.396297 0.217886 0.981769
O O15 0.500000 0.000000 0.268425
#
# Coordination Sequence:
#
# PCOD9580918 Si02
#       7
#     6   6   6   6   6   3   6
#     4  10  22  41  62  87 126 165 208 260 322 388
#     4   9  21  41  59  85 123 164 202 261 314 383
#     4  11  22  35  61  92 117 160 210 249 311 377
#     4  10  20  36  59  90 120 155 197 266 309 362
#     4  10  21  37  60  86 125 153 206 257 312 372
#     4  10  22  38  64  88 120 164 210 256 322 376
#     4  11  21  38  62  88 124 157 205 259 312 377
#
# _framework density 18.967782
#
# number of rings (size 3 to 8) (size 9 to 14) (size 15 to 20)
#    0.000    1.846    2.308    1.385    5.385    0.000 
#    0.000    4.615   20.308    0.000    0.000    0.000 
#    0.000    0.000    0.000    0.000    0.000    0.000 
#
# Total GULP energy -217149.699804 kJ/mol
# GULP energy per Si atom -5567.941021 kJ/mol
# Density = 1.892461 g / cm^3
# Si number density = 18.967782 Si / 1000 Ang^3
#
#
#
# Elastic Constant Matrix: (Units=GPa)
#
#
# Indices 1 2 3 4 5 6 
#
# 1 74.8863 54.3832 32.5046 0.0000 0.0000 0.0000
# 2 54.3832 74.8863 32.5046 0.0000 0.0000 0.0000
# 3 32.5046 32.5046 93.5958 0.0000 0.0000 0.0000
# 4 0.0000 0.0000 0.0000 -18.9530 0.0000 0.0000
# 5 0.0000 0.0000 0.0000 0.0000 -18.9530 0.0000
# 6 0.0000 0.0000 0.0000 0.0000 0.0000 10.2516
#
#
#
# Elastic Compliance Matrix: (Units=1/GPa)
#
#
# Indices 1 2 3 4 5 6 
#
# 1 0.029073 -0.019700 -0.003255 0.000000 0.000000 0.000000
# 2 -0.019700 0.029073 -0.003255 0.000000 0.000000 0.000000
# 3 -0.003255 -0.003255 0.012945 0.000000 0.000000 0.000000
# 4 0.000000 0.000000 0.000000 -0.052762 0.000000 0.000000
# 5 0.000000 0.000000 0.000000 0.000000 -0.052762 0.000000
# 6 0.000000 0.000000 0.000000 0.000000 0.000000 0.097546
#
#
# Mechanical properties :
#
#
# Convention : Reuss Voigt Hill
#
# Bulk Modulus (GPa) = 53.56060 53.57257 53.56659
# Shear Modulus (GPa) = 41.06553 2.73420 21.89987
#
# Velocity S-wave (km/s) = 4.65802 1.20193 3.40160
# Velocity P-wave (km/s) = 7.56495 5.49832 6.61287
#
# Compressibility (1/GPa) = 0.01867044
#
# Stress axis : x y z
#
# Youngs Moduli (GPa) = 34.39629 34.39629 77.24937
#
# Poissons Ratio (x) = 0.67761 0.25145
# Poissons Ratio (y) = 0.67761 0.25145
# Poissons Ratio (z) = 0.11196 0.11196
#
# Static dielectric constant tensor:
#      x y z
#    x 1.700450 0.000000 0.000000 
#    y 0.000000 1.700450 0.000000 
#    z 0.000000 0.000000 1.670860 
# 
# From -- ./inp_files/2862.got.cif
#   From: 2010.05.17/outbox.cif.g08.bks.cpg/sg172_2_cif.got.tgz:2862.got - 2010.05.20 11:19:57.
