data_PCOD9580137
_publ_section_title
;
Structure prediction by ZEFSAII (Michael W. Deem and Ramdas Pophale) SiO2 
 PCOD9580137
Probable space group: P 61
;
_chemical_formula_sum "Si O2"
_cell_formula_units_Z 24
_cell_length_a 15.317914
_cell_length_b 15.317914
_cell_length_c 4.708451
_cell_angle_alpha 90.000000
_cell_angle_beta 90.000000
_cell_angle_gamma 120.000000
_cell_volume 956.770862
_symmetry_space_group_name_H-M "P 61"
_symmetry_group_IT_number 169
_symmetry_cell_setting 'hexagonal'
loop_
_space_group_symop_operation_xyz
x,y,z
x-y,x,1/6+z
-y,x-y,1/3+z
-x,-y,1/2+z
-x+y,-x,2/3+z
y,-x+y,5/6+z
loop_
_atom_site_type_symbol
_atom_site_label
_atom_site_fract_x
_atom_site_fract_y
_atom_site_fract_z
Si Si1 0.879189 0.666595 0.847980
Si Si2 0.439501 0.502606 0.958138
Si Si3 0.297829 0.019884 0.520842
Si Si4 0.323608 0.760691 0.963093
O O1 0.952680 0.736081 0.596563
O O2 0.810543 0.554505 0.717631
O O3 0.814326 0.706600 0.013525
O O4 0.944255 0.657743 0.102873
O O5 0.527661 0.498070 0.778097
O O6 0.338890 0.402749 0.856596
O O7 0.433852 0.599474 0.866883
O O8 0.252753 0.648623 0.078757
#
# Coordination Sequence:
#
# PCOD9580137 Si02
#       4
#     6   6   6   6
#     4  12  27  47  76 106 150 199 257 328 392 475
#     4  12  24  43  66  98 145 202 261 324 375 446
#     4  12  25  48  73 107 144 200 258 319 403 467
#     4  12  28  40  67 105 155 209 262 315 372 462
#
# _framework density 25.084375999999999
#
# number of rings (size 3 to 8) (size 9 to 14) (size 15 to 20)
#    0.000    0.000    7.500    1.500    7.000    2.000 
#    0.000    0.000    0.000    3.000    0.000    0.000 
#    0.000    0.000    0.000    0.000    0.000    0.000 
#
# Total GULP energy -134472.820237 kJ/mol
# GULP energy per Si atom -5603.034177 kJ/mol
# Density = 2.502728 g / cm^3
# Si number density = 25.084376 Si / 1000 Ang^3
#
#
#
# Elastic Constant Matrix: (Units=GPa)
#
#
# Indices 1 2 3 4 5 6 
#
# 1 118.5603 70.3924 49.1253 0.0000 0.0000 0.0000
# 2 70.3924 118.5603 49.1253 0.0000 0.0000 0.0000
# 3 49.1253 49.1253 81.7059 0.0000 0.0000 0.0000
# 4 0.0000 0.0000 0.0000 53.2407 0.0000 0.0000
# 5 0.0000 0.0000 0.0000 0.0000 53.2407 0.0000
# 6 0.0000 0.0000 0.0000 0.0000 0.0000 24.0839
#
#
#
# Elastic Compliance Matrix: (Units=1/GPa)
#
#
# Indices 1 2 3 4 5 6 
#
# 1 0.014230 -0.006531 -0.004629 0.000000 0.000000 0.000000
# 2 -0.006531 0.014230 -0.004629 0.000000 0.000000 0.000000
# 3 -0.004629 -0.004629 0.017806 0.000000 0.000000 0.000000
# 4 0.000000 0.000000 0.000000 0.018783 0.000000 0.000000
# 5 0.000000 0.000000 0.000000 0.000000 0.018783 0.000000
# 6 0.000000 0.000000 0.000000 0.000000 0.000000 0.041521
#
#
# Mechanical properties :
#
#
# Convention : Reuss Voigt Hill
#
# Bulk Modulus (GPa) = 68.08507 72.90140 70.49323
# Shear Modulus (GPa) = 30.89726 36.12529 33.51127
#
# Velocity S-wave (km/s) = 3.51341 3.79905 3.65902
# Velocity P-wave (km/s) = 6.60758 6.95480 6.78341
#
# Compressibility (1/GPa) = 0.01468751
#
# Stress axis : x y z
#
# Youngs Moduli (GPa) = 70.27366 70.27366 56.16200
#
# Poissons Ratio (x) = 0.45893 0.25999
# Poissons Ratio (y) = 0.45893 0.25999
# Poissons Ratio (z) = 0.32531 0.32531
#
# Static dielectric constant tensor:
#      x y z
#    x 2.019120 0.000000 0.000000 
#    y 0.000000 2.019120 0.000000 
#    z 0.000000 0.000000 1.982460 
# 
# From -- ./inp_files/53.got.cif
#   From: 2010.05.17/outbox.cif.g08.bks.cpg/sg169_cif.got.tgz:53.got - 2010.05.20 11:12:54.
