data_PCOD9580036
_publ_section_title
;
Structure prediction by ZEFSAII (Michael W. Deem and Ramdas Pophale) SiO2 
 PCOD9580036
Probable space group: P 61
;
_chemical_formula_sum "Si O2"
_cell_formula_units_Z 30
_cell_length_a 13.839905
_cell_length_b 13.839905
_cell_length_c 7.945330
_cell_angle_alpha 90.000000
_cell_angle_beta 90.000000
_cell_angle_gamma 120.000000
_cell_volume 1317.979908
_symmetry_space_group_name_H-M "P 61"
_symmetry_group_IT_number 169
_symmetry_cell_setting 'hexagonal'
loop_
_space_group_symop_operation_xyz
x,y,z
x-y,x,1/6+z
-y,x-y,1/3+z
-x,-y,1/2+z
-x+y,-x,2/3+z
y,-x+y,5/6+z
loop_
_atom_site_type_symbol
_atom_site_label
_atom_site_fract_x
_atom_site_fract_y
_atom_site_fract_z
Si Si1 0.939343 0.568639 0.646350
Si Si2 0.795063 0.968752 0.845268
Si Si3 0.620064 0.245762 0.498172
Si Si4 0.802758 0.818758 0.537561
Si Si5 0.018556 0.607599 0.290591
O O1 0.824129 0.498785 0.749099
O O2 0.997443 0.695161 0.703491
O O3 0.003645 0.500858 0.685953
O O4 0.933357 0.571267 0.445179
O O5 0.792309 0.891391 0.689986
O O6 0.898766 0.091914 0.828441
O O7 0.685864 0.979661 0.853283
O O8 0.674411 0.301812 0.676258
O O9 0.492082 0.145993 0.522369
O O10 0.911070 0.807770 0.552938
#
# Coordination Sequence:
#
# PCOD9580036 Si02
#       5
#     6   6   6   6   6
#     4  10  25  44  68 104 142 193 245 309 386 468
#     4  10  23  45  71 102 146 197 249 310 375 458
#     4  10  24  44  70 102 140 188 252 312 390 470
#     4  10  23  45  71 102 146 197 249 310 375 458
#     4  10  25  44  68 104 142 193 245 309 386 468
#
# _framework density 22.762108000000001
#
# number of rings (size 3 to 8) (size 9 to 14) (size 15 to 20)
#    1.200    0.800    0.000    1.200    5.600    6.400 
#   21.600    0.000    0.000    0.000    0.000    0.000 
#    0.000    0.000    0.000    0.000    0.000    0.000 
#
# Total GULP energy -167349.053586 kJ/mol
# GULP energy per Si atom -5578.301786 kJ/mol
# Density = 2.271030 g / cm^3
# Si number density = 22.762108 Si / 1000 Ang^3
#
#
#
# Elastic Constant Matrix: (Units=GPa)
#
#
# Indices 1 2 3 4 5 6 
#
# 1 100.9854 62.6624 16.7441 0.0000 0.0000 0.0000
# 2 62.6624 100.9854 16.7441 0.0000 0.0000 0.0000
# 3 16.7441 16.7441 62.4704 0.0000 0.0000 0.0000
# 4 0.0000 0.0000 0.0000 29.5103 0.0000 0.0000
# 5 0.0000 0.0000 0.0000 0.0000 29.5103 0.0000
# 6 0.0000 0.0000 0.0000 0.0000 0.0000 19.1615
#
#
#
# Elastic Compliance Matrix: (Units=1/GPa)
#
#
# Indices 1 2 3 4 5 6 
#
# 1 0.016280 -0.009814 -0.001733 0.000000 0.000000 0.000000
# 2 -0.009814 0.016280 -0.001733 0.000000 0.000000 0.000000
# 3 -0.001733 -0.001733 0.016937 0.000000 0.000000 0.000000
# 4 0.000000 0.000000 0.000000 0.033886 0.000000 0.000000
# 5 0.000000 0.000000 0.000000 0.000000 0.033886 0.000000
# 6 0.000000 0.000000 0.000000 0.000000 0.000000 0.052188
#
#
# Mechanical properties :
#
#
# Convention : Reuss Voigt Hill
#
# Bulk Modulus (GPa) = 43.60054 50.74915 47.17484
# Shear Modulus (GPa) = 24.55047 26.85580 25.70314
#
# Velocity S-wave (km/s) = 3.28772 3.43862 3.36401
# Velocity P-wave (km/s) = 5.79729 6.17327 5.98823
#
# Compressibility (1/GPa) = 0.02293550
#
# Stress axis : x y z
#
# Youngs Moduli (GPa) = 61.42651 61.42651 59.04394
#
# Poissons Ratio (x) = 0.60286 0.10232
# Poissons Ratio (y) = 0.60286 0.10232
# Poissons Ratio (z) = 0.10645 0.10645
#
# Static dielectric constant tensor:
#      x y z
#    x 1.815510 0.000000 0.000000 
#    y 0.000000 1.815510 0.000000 
#    z 0.000000 0.000000 2.087740 
# 
# From -- ./inp_files/548.got.cif
#   From: 2010.05.17/outbox.cif.g08.bks.cpg/sg169_cif.got.tgz:548.got - 2010.05.20 11:12:54.
