data_PCOD9580012
_publ_section_title
;
Structure prediction by ZEFSAII (Michael W. Deem and Ramdas Pophale) SiO2 
 PCOD9580012
Probable space group: P 61
;
_chemical_formula_sum "Si O2"
_cell_formula_units_Z 36
_cell_length_a 13.983236
_cell_length_b 13.983236
_cell_length_c 8.889700
_cell_angle_alpha 90.000000
_cell_angle_beta 90.000000
_cell_angle_gamma 120.000000
_cell_volume 1505.334835
_symmetry_space_group_name_H-M "P 61"
_symmetry_group_IT_number 169
_symmetry_cell_setting 'hexagonal'
loop_
_space_group_symop_operation_xyz
x,y,z
x-y,x,1/6+z
-y,x-y,1/3+z
-x,-y,1/2+z
-x+y,-x,2/3+z
y,-x+y,5/6+z
loop_
_atom_site_type_symbol
_atom_site_label
_atom_site_fract_x
_atom_site_fract_y
_atom_site_fract_z
Si Si1 0.247729 0.731673 0.984220
Si Si2 0.930544 0.648247 0.622434
Si Si3 0.536013 0.943717 0.480111
Si Si4 0.006152 0.198903 0.854249
Si Si5 0.240131 0.557559 0.645406
Si Si6 0.922733 0.353842 0.871882
O O1 0.255670 0.813611 0.851792
O O2 0.120841 0.636137 0.970766
O O3 0.328034 0.682292 0.953645
O O4 0.283099 0.784798 0.149186
O O5 0.932239 0.740392 0.511925
O O6 0.013567 0.675473 0.762621
O O7 0.994195 0.606933 0.512233
O O8 0.430762 0.853766 0.381034
O O9 0.520908 0.050883 0.472917
O O10 0.086553 0.185231 0.742504
O O11 0.963518 0.278823 0.787406
O O12 0.276463 0.482598 0.743049
#
# Coordination Sequence:
#
# PCOD9580012 Si02
#       6
#     6   6   6   6   6   6
#     4  12  24  39  61  97 130 174 235 282 337 424
#     4  10  24  41  62  94 136 179 223 280 354 418
#     4  12  24  38  66  88 138 186 214 282 350 412
#     4  10  22  44  72  96 128 182 232 288 360 422
#     4  12  24  39  61  97 130 174 235 282 337 424
#     4  10  24  41  62  94 136 179 223 280 354 418
#
# _framework density 23.914943999999998
#
# number of rings (size 3 to 8) (size 9 to 14) (size 15 to 20)
#    1.000    0.000    3.333    4.000    0.000    0.000 
#    0.000    1.667    0.000    0.000    0.000    0.000 
#    0.000    0.000    0.000    0.000    0.000    0.000 
#
# Total GULP energy -200669.896236 kJ/mol
# GULP energy per Si atom -5574.163784 kJ/mol
# Density = 2.386051 g / cm^3
# Si number density = 23.914944 Si / 1000 Ang^3
#
#
#
# Elastic Constant Matrix: (Units=GPa)
#
#
# Indices 1 2 3 4 5 6 
#
# 1 74.2465 20.0974 0.3827 0.0000 0.0000 0.0000
# 2 20.0974 74.2465 0.3827 0.0000 0.0000 0.0000
# 3 0.3827 0.3827 51.2331 0.0000 0.0000 0.0000
# 4 0.0000 0.0000 0.0000 33.8281 0.0000 0.0000
# 5 0.0000 0.0000 0.0000 0.0000 33.8281 0.0000
# 6 0.0000 0.0000 0.0000 0.0000 0.0000 27.0746
#
#
#
# Elastic Compliance Matrix: (Units=1/GPa)
#
#
# Indices 1 2 3 4 5 6 
#
# 1 0.014534 -0.003934 -0.000079 0.000000 0.000000 0.000000
# 2 -0.003934 0.014534 -0.000079 0.000000 0.000000 0.000000
# 3 -0.000079 -0.000079 0.019520 0.000000 0.000000 0.000000
# 4 0.000000 0.000000 0.000000 0.029561 0.000000 0.000000
# 5 0.000000 0.000000 0.000000 0.000000 0.029561 0.000000
# 6 0.000000 0.000000 0.000000 0.000000 0.000000 0.036935
#
#
# Mechanical properties :
#
#
# Convention : Reuss Voigt Hill
#
# Bulk Modulus (GPa) = 24.75036 26.82795 25.78916
# Shear Modulus (GPa) = 30.06670 30.87036 30.46853
#
# Velocity S-wave (km/s) = 3.54960 3.59672 3.57324
# Velocity P-wave (km/s) = 5.21261 5.33769 5.27552
#
# Compressibility (1/GPa) = 0.04040345
#
# Stress axis : x y z
#
# Youngs Moduli (GPa) = 68.80494 68.80494 51.22998
#
# Poissons Ratio (x) = 0.27066 0.00406
# Poissons Ratio (y) = 0.27066 0.00406
# Poissons Ratio (z) = 0.00545 0.00545
#
# Static dielectric constant tensor:
#      x y z
#    x 1.935630 0.000000 0.000000 
#    y 0.000000 1.935630 0.000000 
#    z 0.000000 0.000000 2.130470 
# 
# From -- ./inp_files/633.got.cif
#   From: 2010.05.17/outbox.cif.g08.bks.cpg/sg169_cif.got.tgz:633.got - 2010.05.20 11:12:54.
