data_PCOD9580445
_publ_section_title
;
Structure prediction by ZEFSAII (Michael W. Deem and Ramdas Pophale) SiO2 
 PCOD9580445
Probable space group: P 62
;
_chemical_formula_sum "Si O2"
_cell_formula_units_Z 33
_cell_length_a 10.318012
_cell_length_b 10.318012
_cell_length_c 17.481380
_cell_angle_alpha 90.000000
_cell_angle_beta 90.000000
_cell_angle_gamma 120.000000
_cell_volume 1611.752685
_symmetry_space_group_name_H-M "P 62"
_symmetry_group_IT_number 171
_symmetry_cell_setting 'hexagonal'
loop_
_space_group_symop_operation_xyz
x,y,z
x-y,x,1/3+z
-y,x-y,2/3+z
-x,-y,z
-x+y,-x,1/3+z
y,-x+y,2/3+z
loop_
_atom_site_type_symbol
_atom_site_label
_atom_site_fract_x
_atom_site_fract_y
_atom_site_fract_z
Si Si1 0.698385 0.539507 0.165780
Si Si2 0.763597 0.722856 0.878422
Si Si3 0.000000 0.000000 0.460184
Si Si4 0.053178 0.301922 0.379096
Si Si5 0.835887 0.368108 0.085734
Si Si6 0.163440 0.608719 0.666799
O O1 0.645439 0.631411 0.113787
O O2 0.732296 0.432725 0.114581
O O3 0.612879 0.459116 0.241954
O O4 0.865340 0.659757 0.193746
O O5 0.921699 0.854992 0.848749
O O6 0.710521 0.579533 0.824006
O O7 0.738022 0.689747 0.968596
O O8 0.969837 0.858398 0.407362
O O9 0.221937 0.434573 0.361237
O O10 0.729805 0.258129 0.020997
O O11 0.000000 0.500000 0.060709
O O12 0.000000 0.500000 0.700167
#
# Coordination Sequence:
#
# PCOD9580445 Si02
#       6
#     6   6   3   6   6   6
#     4   9  22  39  62  90 123 171 219 267 332 407
#     4   9  19  37  62  92 125 173 221 264 331 411
#     4  10  18  36  64  94 136 170 220 270 330 410
#     4  10  21  38  64  96 132 182 218 275 347 416
#     4  10  22  42  63  89 125 172 225 277 336 413
#     4  11  24  40  65  97 134 167 223 292 334 408
#
# _framework density 20.474605
#
# number of rings (size 3 to 8) (size 9 to 14) (size 15 to 20)
#    0.000    2.182    0.000    1.636    5.091    0.000 
#    0.000    0.909    0.000    0.000    0.000    0.000 
#    0.000    0.000    0.000    0.000    0.000    0.000 
#
# Total GULP energy -183934.662293 kJ/mol
# GULP energy per Si atom -5573.777645 kJ/mol
# Density = 2.042800 g / cm^3
# Si number density = 20.474605 Si / 1000 Ang^3
#
#
#
# Elastic Constant Matrix: (Units=GPa)
#
#
# Indices 1 2 3 4 5 6 
#
# 1 96.1961 35.8066 43.9000 0.0000 0.0000 0.0000
# 2 35.8066 96.1961 43.9000 0.0000 0.0000 0.0000
# 3 43.9000 43.9000 125.4218 0.0000 0.0000 0.0000
# 4 0.0000 0.0000 0.0000 57.8203 0.0000 0.0000
# 5 0.0000 0.0000 0.0000 0.0000 57.8203 0.0000
# 6 0.0000 0.0000 0.0000 0.0000 0.0000 30.1948
#
#
#
# Elastic Compliance Matrix: (Units=1/GPa)
#
#
# Indices 1 2 3 4 5 6 
#
# 1 0.013217 -0.003342 -0.003456 0.000000 0.000000 0.000000
# 2 -0.003342 0.013217 -0.003456 0.000000 0.000000 0.000000
# 3 -0.003456 -0.003456 0.010393 0.000000 0.000000 0.000000
# 4 0.000000 0.000000 0.000000 0.017295 0.000000 0.000000
# 5 0.000000 0.000000 0.000000 0.000000 0.017295 0.000000
# 6 0.000000 0.000000 0.000000 0.000000 0.000000 0.033118
#
#
# Mechanical properties :
#
#
# Convention : Reuss Voigt Hill
#
# Bulk Modulus (GPa) = 61.28747 62.78081 62.03414
# Shear Modulus (GPa) = 38.31914 42.11422 40.21668
#
# Velocity S-wave (km/s) = 4.33083 4.54023 4.43676
# Velocity P-wave (km/s) = 7.41664 7.62982 7.52398
#
# Compressibility (1/GPa) = 0.01631655
#
# Stress axis : x y z
#
# Youngs Moduli (GPa) = 75.66114 75.66114 96.22227
#
# Poissons Ratio (x) = 0.25289 0.33257
# Poissons Ratio (y) = 0.25289 0.33257
# Poissons Ratio (z) = 0.26150 0.26150
#
# Static dielectric constant tensor:
#      x y z
#    x 1.758900 0.000000 0.000000 
#    y 0.000000 1.758900 0.000000 
#    z 0.000000 0.000000 1.755070 
# 
# From -- ./inp_files/2888.got.cif
#   From: 2010.05.17/outbox.cif.g08.bks.cpg/sg171_2_cif.got.tgz:2888.got - 2010.05.20 11:16:09.
