data_PCOD9580600
_publ_section_title
;
Structure prediction by ZEFSAII (Michael W. Deem and Ramdas Pophale) SiO2 
 PCOD9580600
Probable space group: P 62
;
_chemical_formula_sum "Si O2"
_cell_formula_units_Z 30
_cell_length_a 10.196235
_cell_length_b 10.196235
_cell_length_c 13.137132
_cell_angle_alpha 90.000000
_cell_angle_beta 90.000000
_cell_angle_gamma 120.000000
_cell_volume 1182.798781
_symmetry_space_group_name_H-M "P 62"
_symmetry_group_IT_number 171
_symmetry_cell_setting 'hexagonal'
loop_
_space_group_symop_operation_xyz
x,y,z
x-y,x,1/3+z
-y,x-y,2/3+z
-x,-y,z
-x+y,-x,1/3+z
y,-x+y,2/3+z
loop_
_atom_site_type_symbol
_atom_site_label
_atom_site_fract_x
_atom_site_fract_y
_atom_site_fract_z
Si Si1 0.190031 0.392445 0.927500
Si Si2 0.670167 0.245437 0.464121
Si Si3 0.088412 0.920057 0.664539
Si Si4 0.192441 0.330997 0.534420
Si Si5 0.405479 0.579311 0.312749
O O1 0.334628 0.511808 0.860496
O O2 0.194100 0.238390 0.941516
O O3 0.028663 0.336859 0.876423
O O4 0.177423 0.459143 0.037116
O O5 0.795091 0.293278 0.551932
O O6 0.670066 0.385007 0.405942
O O7 0.147636 0.851001 0.750004
O O8 0.956247 0.798631 0.593175
O O9 0.000000 0.000000 0.715669
O O10 0.221684 0.479225 0.595339
O O11 0.500000 0.500000 0.339274
#
# Coordination Sequence:
#
# PCOD9580600 Si02
#       5
#     6   6   6   6   6
#     4  10  22  44  69 105 143 181 246 291 368 431
#     4  10  24  43  68 101 138 192 234 296 353 434
#     4  10  21  40  69 105 139 178 235 294 361 428
#     4  11  23  40  73 100 138 191 231 301 360 436
#     4  11  25  43  68  97 139 186 243 281 368 430
#
# _framework density 25.363569999999999
#
# number of rings (size 3 to 8) (size 9 to 14) (size 15 to 20)
#    0.000    1.600    0.000    4.200    5.600    4.000 
#    0.000    2.000   22.000    0.000    0.000    0.000 
#    0.000    0.000    0.000    0.000    0.000    0.000 
#
# Total GULP energy -167842.020950 kJ/mol
# GULP energy per Si atom -5594.734032 kJ/mol
# Density = 2.530584 g / cm^3
# Si number density = 25.363570 Si / 1000 Ang^3
#
#
#
# Elastic Constant Matrix: (Units=GPa)
#
#
# Indices 1 2 3 4 5 6 
#
# 1 74.7012 23.0156 21.3768 0.0000 0.0000 0.0000
# 2 23.0156 74.7012 21.3768 0.0000 0.0000 0.0000
# 3 21.3768 21.3768 132.3112 0.0000 0.0000 0.0000
# 4 0.0000 0.0000 0.0000 27.4473 0.0000 0.0000
# 5 0.0000 0.0000 0.0000 0.0000 27.4473 0.0000
# 6 0.0000 0.0000 0.0000 0.0000 0.0000 25.8428
#
#
#
# Elastic Compliance Matrix: (Units=1/GPa)
#
#
# Indices 1 2 3 4 5 6 
#
# 1 0.015180 -0.004168 -0.001779 0.000000 0.000000 0.000000
# 2 -0.004168 0.015180 -0.001779 0.000000 0.000000 0.000000
# 3 -0.001779 -0.001779 0.008133 0.000000 0.000000 0.000000
# 4 0.000000 0.000000 0.000000 0.036433 0.000000 0.000000
# 5 0.000000 0.000000 0.000000 0.000000 0.036433 0.000000
# 6 0.000000 0.000000 0.000000 0.000000 0.000000 0.038696
#
#
# Mechanical properties :
#
#
# Convention : Reuss Voigt Hill
#
# Bulk Modulus (GPa) = 43.40211 45.91691 44.65951
# Shear Modulus (GPa) = 28.87043 30.54376 29.70710
#
# Velocity S-wave (km/s) = 3.37748 3.47398 3.42607
# Velocity P-wave (km/s) = 5.68849 5.85100 5.77032
#
# Compressibility (1/GPa) = 0.02304035
#
# Stress axis : x y z
#
# Youngs Moduli (GPa) = 65.87649 65.87649 122.95827
#
# Poissons Ratio (x) = 0.27456 0.21876
# Poissons Ratio (y) = 0.27456 0.21876
# Poissons Ratio (z) = 0.11721 0.11721
#
# Static dielectric constant tensor:
#      x y z
#    x 2.025200 0.000000 0.000000 
#    y 0.000000 2.025200 0.000000 
#    z 0.000000 0.000000 1.970630 
# 
# From -- ./inp_files/2344.got.cif
#   From: 2010.05.17/outbox.cif.g08.bks.cpg/sg171_2_cif.got.tgz:2344.got - 2010.05.20 11:16:09.
