data_PCOD9580068
_publ_section_title
;
Structure prediction by ZEFSAII (Michael W. Deem and Ramdas Pophale) SiO2 
 PCOD9580068
Probable space group: P 61
;
_chemical_formula_sum "Si O2"
_cell_formula_units_Z 36
_cell_length_a 16.033564
_cell_length_b 16.033564
_cell_length_c 7.417452
_cell_angle_alpha 90.000000
_cell_angle_beta 90.000000
_cell_angle_gamma 120.000000
_cell_volume 1651.374278
_symmetry_space_group_name_H-M "P 61"
_symmetry_group_IT_number 169
_symmetry_cell_setting 'hexagonal'
loop_
_space_group_symop_operation_xyz
x,y,z
x-y,x,1/6+z
-y,x-y,1/3+z
-x,-y,1/2+z
-x+y,-x,2/3+z
y,-x+y,5/6+z
loop_
_atom_site_type_symbol
_atom_site_label
_atom_site_fract_x
_atom_site_fract_y
_atom_site_fract_z
Si Si1 0.395516 0.732626 0.629730
Si Si2 0.366913 0.881559 0.091368
Si Si3 0.492000 0.435553 0.858032
Si Si4 0.691692 0.820642 0.910247
Si Si5 0.004433 0.293206 0.887852
Si Si6 0.806763 0.843112 0.549762
O O1 0.298546 0.687103 0.753503
O O2 0.447662 0.680647 0.727915
O O3 0.444231 0.848805 0.644932
O O4 0.282803 0.888674 0.188487
O O5 0.467402 0.952870 0.188904
O O6 0.390919 0.923600 0.890018
O O7 0.407131 0.359628 0.730081
O O8 0.756902 0.851787 0.732465
O O9 0.660474 0.897015 0.972931
O O10 0.736916 0.800642 0.086523
O O11 0.011809 0.259163 0.088108
O O12 0.897920 0.835538 0.604468
#
# Coordination Sequence:
#
# PCOD9580068 Si02
#       6
#     6   6   6   6   6   6
#     4  10  26  47  70 107 149 192 247 315 380 450
#     4  11  26  46  74 109 150 199 254 314 378 464
#     4  11  26  48  73 110 150 203 253 313 386 460
#     4  12  26  44  74 105 145 193 252 313 377 467
#     4  12  26  45  75 106 148 201 252 313 394 463
#     4  12  26  48  72 107 144 188 248 316 383 464
#
# _framework density 21.800025999999999
#
# number of rings (size 3 to 8) (size 9 to 14) (size 15 to 20)
#    0.000    0.667    5.000    1.000   11.667    1.333 
#    3.000    0.000    0.000    0.000    0.000    0.000 
#    0.000    0.000    0.000    0.000    0.000    0.000 
#
# Total GULP energy -200944.538249 kJ/mol
# GULP energy per Si atom -5581.792729 kJ/mol
# Density = 2.175041 g / cm^3
# Si number density = 21.800026 Si / 1000 Ang^3
#
#
#
# Elastic Constant Matrix: (Units=GPa)
#
#
# Indices 1 2 3 4 5 6 
#
# 1 107.4723 56.6486 38.2700 0.0000 0.0000 0.0000
# 2 56.6486 107.4723 38.2700 0.0000 0.0000 0.0000
# 3 38.2700 38.2700 92.7624 0.0000 0.0000 0.0000
# 4 0.0000 0.0000 0.0000 34.2642 0.0000 0.0000
# 5 0.0000 0.0000 0.0000 0.0000 34.2642 0.0000
# 6 0.0000 0.0000 0.0000 0.0000 0.0000 25.4118
#
#
#
# Elastic Compliance Matrix: (Units=1/GPa)
#
#
# Indices 1 2 3 4 5 6 
#
# 1 0.013610 -0.006066 -0.003113 0.000000 0.000000 0.000000
# 2 -0.006066 0.013610 -0.003113 0.000000 0.000000 0.000000
# 3 -0.003113 -0.003113 0.013349 0.000000 0.000000 0.000000
# 4 0.000000 0.000000 0.000000 0.029185 0.000000 0.000000
# 5 0.000000 0.000000 0.000000 0.000000 0.029185 0.000000
# 6 0.000000 0.000000 0.000000 0.000000 0.000000 0.039352
#
#
# Mechanical properties :
#
#
# Convention : Reuss Voigt Hill
#
# Bulk Modulus (GPa) = 62.54940 63.78716 63.16828
# Shear Modulus (GPa) = 29.72623 30.42259 30.07441
#
# Velocity S-wave (km/s) = 3.69668 3.73973 3.71827
# Velocity P-wave (km/s) = 6.85385 6.92612 6.89008
#
# Compressibility (1/GPa) = 0.01598736
#
# Stress axis : x y z
#
# Youngs Moduli (GPa) = 73.47390 73.47390 74.91462
#
# Poissons Ratio (x) = 0.44566 0.23318
# Poissons Ratio (y) = 0.44566 0.23318
# Poissons Ratio (z) = 0.22870 0.22870
#
# Static dielectric constant tensor:
#      x y z
#    x 1.809480 0.000000 0.000000 
#    y 0.000000 1.809480 0.000000 
#    z 0.000000 0.000000 1.823740 
# 
# From -- ./inp_files/611.got.cif
#   From: 2010.05.17/outbox.cif.g08.bks.cpg/sg169_cif.got.tgz:611.got - 2010.05.20 11:12:54.
