data_PCOD9580578
_publ_section_title
;
Structure prediction by ZEFSAII (Michael W. Deem and Ramdas Pophale) SiO2 
 PCOD9580578
Probable space group: P 62
;
_chemical_formula_sum "Si O2"
_cell_formula_units_Z 36
_cell_length_a 8.297056
_cell_length_b 8.297056
_cell_length_c 28.802564
_cell_angle_alpha 90.000000
_cell_angle_beta 90.000000
_cell_angle_gamma 120.000000
_cell_volume 1717.156288
_symmetry_space_group_name_H-M "P 62"
_symmetry_group_IT_number 171
_symmetry_cell_setting 'hexagonal'
loop_
_space_group_symop_operation_xyz
x,y,z
x-y,x,1/3+z
-y,x-y,2/3+z
-x,-y,z
-x+y,-x,1/3+z
y,-x+y,2/3+z
loop_
_atom_site_type_symbol
_atom_site_label
_atom_site_fract_x
_atom_site_fract_y
_atom_site_fract_z
Si Si1 0.556818 0.709273 0.909800
Si Si2 0.703989 0.533805 0.573629
Si Si3 0.579430 0.774919 0.801556
Si Si4 0.097191 0.222031 0.752696
Si Si5 0.981526 0.687314 0.650714
Si Si6 0.792779 0.572111 0.470977
O O1 0.500000 0.500000 0.920016
O O2 0.366804 0.714206 0.910115
O O3 0.622966 0.754655 0.855871
O O4 0.676356 0.845927 0.951554
O O5 0.500000 0.500000 0.570526
O O6 0.803366 0.618623 0.525367
O O7 0.807341 0.645709 0.618695
O O8 0.690311 0.700763 0.769993
O O9 0.357742 0.706893 0.797811
O O10 0.668143 0.992427 0.788775
O O11 0.056261 0.249458 0.699736
O O12 0.980220 0.297778 0.780818
O O13 0.000000 0.000000 0.761762
O O14 0.000000 0.500000 0.656422
#
# Coordination Sequence:
#
# PCOD9580578 Si02
#       6
#     6   6   6   6   6   6
#     4  10  21  39  64  94 121 163 217 266 317 382
#     4  10  21  38  64  91 119 165 214 256 321 381
#     4   9  18  39  64  89 125 166 215 265 319 391
#     4  10  22  39  61  96 126 166 216 260 334 389
#     4  10  22  45  62  86 136 173 202 265 336 392
#     4   9  18  38  65  87 125 169 206 270 321 376
#
# _framework density 20.964894000000001
#
# number of rings (size 3 to 8) (size 9 to 14) (size 15 to 20)
#    0.000    2.333    1.667    0.000    2.333    2.000 
#   15.000    0.000    0.000    0.000    0.000    0.000 
#    0.000    0.000    0.000    0.000    0.000    0.000 
#
# Total GULP energy -200556.672888 kJ/mol
# GULP energy per Si atom -5571.018691 kJ/mol
# Density = 2.091718 g / cm^3
# Si number density = 20.964894 Si / 1000 Ang^3
#
#
#
# Elastic Constant Matrix: (Units=GPa)
#
#
# Indices 1 2 3 4 5 6 
#
# 1 54.5332 35.7890 32.2887 0.0000 0.0000 0.0000
# 2 35.7890 54.5332 32.2887 0.0000 0.0000 0.0000
# 3 32.2887 32.2887 93.8906 0.0000 0.0000 0.0000
# 4 0.0000 0.0000 0.0000 129.7316 0.0000 0.0000
# 5 0.0000 0.0000 0.0000 0.0000 129.7316 0.0000
# 6 0.0000 0.0000 0.0000 0.0000 0.0000 9.3721
#
#
#
# Elastic Compliance Matrix: (Units=1/GPa)
#
#
# Indices 1 2 3 4 5 6 
#
# 1 0.034016 -0.019334 -0.005049 0.000000 0.000000 0.000000
# 2 -0.019334 0.034016 -0.005049 0.000000 0.000000 0.000000
# 3 -0.005049 -0.005049 0.014123 0.000000 0.000000 0.000000
# 4 0.000000 0.000000 0.000000 0.007708 0.000000 0.000000
# 5 0.000000 0.000000 0.000000 0.000000 0.007708 0.000000
# 6 0.000000 0.000000 0.000000 0.000000 0.000000 0.106700
#
#
# Mechanical properties :
#
#
# Convention : Reuss Voigt Hill
#
# Bulk Modulus (GPa) = 42.93620 44.85442 43.89531
# Shear Modulus (GPa) = 18.45715 60.60645 39.53180
#
# Velocity S-wave (km/s) = 2.97034 5.38250 4.34708
# Velocity P-wave (km/s) = 5.68229 7.75047 6.79552
#
# Compressibility (1/GPa) = 0.02329037
#
# Stress axis : x y z
#
# Youngs Moduli (GPa) = 29.39835 29.39835 70.80526
#
# Poissons Ratio (x) = 0.56840 0.35748
# Poissons Ratio (y) = 0.56840 0.35748
# Poissons Ratio (z) = 0.14843 0.14843
#
# Static dielectric constant tensor:
#      x y z
#    x 1.749230 0.000000 0.000000 
#    y 0.000000 1.749230 0.000000 
#    z 0.000000 0.000000 1.734140 
# 
# From -- ./inp_files/5736.got.cif
#   From: 2010.05.17/outbox.cif.g08.bks.cpg/sg171_3_cif.got.tgz:5736.got - 2010.05.20 11:16:09.
