data_PCOD9580883
_publ_section_title
;
Structure prediction by ZEFSAII (Michael W. Deem and Ramdas Pophale) SiO2 
 PCOD9580883
Probable space group: P 62
;
_chemical_formula_sum "Si O2"
_cell_formula_units_Z 27
_cell_length_a 16.586673
_cell_length_b 16.586673
_cell_length_c 4.961005
_cell_angle_alpha 90.000000
_cell_angle_beta 90.000000
_cell_angle_gamma 120.000000
_cell_volume 1182.003771
_symmetry_space_group_name_H-M "P 62"
_symmetry_group_IT_number 171
_symmetry_cell_setting 'hexagonal'
loop_
_space_group_symop_operation_xyz
x,y,z
x-y,x,1/3+z
-y,x-y,2/3+z
-x,-y,z
-x+y,-x,1/3+z
y,-x+y,2/3+z
loop_
_atom_site_type_symbol
_atom_site_label
_atom_site_fract_x
_atom_site_fract_y
_atom_site_fract_z
Si Si1 0.000000 0.500000 0.418140
Si Si2 0.427591 0.308183 0.375543
Si Si3 0.622378 0.848159 0.994415
Si Si4 0.655428 0.974331 0.495051
Si Si5 0.562452 0.271355 0.723800
O O1 0.932672 0.518699 0.607959
O O2 0.964969 0.409438 0.230472
O O3 0.359876 0.293921 0.626852
O O4 0.504506 0.287053 0.492984
O O5 0.375802 0.244359 0.112017
O O6 0.677233 0.927277 0.761358
O O7 0.515628 0.807488 0.907600
O O8 0.643750 0.901042 0.271219
O O9 0.638284 0.254646 0.578747
#
# Coordination Sequence:
#
# PCOD9580883 Si02
#       5
#     3   6   6   6   6
#     4  12  28  42  70  98 128 186 236 306 380 444
#     4  12  28  45  68  96 132 181 240 305 395 450
#     4  12  28  46  66  94 129 178 236 309 378 447
#     4  12  28  45  68  92 130 175 235 309 372 459
#     4  12  29  40  65  94 134 177 237 312 380 439
#
# _framework density 22.842568
#
# number of rings (size 3 to 8) (size 9 to 14) (size 15 to 20)
#    0.000    0.000    4.444    3.333   15.556    0.000 
#    0.000    0.000    0.000    0.000    0.000    0.000 
#    0.000    0.000    0.000    0.000    0.000   48.889 
#
# Total GULP energy -150431.087112 kJ/mol
# GULP energy per Si atom -5571.521745 kJ/mol
# Density = 2.279058 g / cm^3
# Si number density = 22.842568 Si / 1000 Ang^3
#
#
#
# Elastic Constant Matrix: (Units=GPa)
#
#
# Indices 1 2 3 4 5 6 
#
# 1 2.4751 41.8763 19.4082 0.0000 0.0000 0.0000
# 2 41.8763 2.4751 19.4082 0.0000 0.0000 0.0000
# 3 19.4082 19.4082 183.2609 0.0000 0.0000 0.0000
# 4 0.0000 0.0000 0.0000 16.5628 0.0000 0.0000
# 5 0.0000 0.0000 0.0000 0.0000 16.5628 0.0000
# 6 0.0000 0.0000 0.0000 0.0000 0.0000 -19.7006
#
#
#
# Elastic Compliance Matrix: (Units=1/GPa)
#
#
# Indices 1 2 3 4 5 6 
#
# 1 -0.000265 0.025115 -0.002632 0.000000 0.000000 0.000000
# 2 0.025115 -0.000265 -0.002632 0.000000 0.000000 0.000000
# 3 -0.002632 -0.002632 0.006014 0.000000 0.000000 0.000000
# 4 0.000000 0.000000 0.000000 0.060376 0.000000 0.000000
# 5 0.000000 0.000000 0.000000 0.000000 0.060376 0.000000
# 6 0.000000 0.000000 0.000000 0.000000 0.000000 -0.050760
#
#
# Mechanical properties :
#
#
# Convention : Reuss Voigt Hill
#
# Bulk Modulus (GPa) = 22.12972 38.84406 30.48689
# Shear Modulus (GPa) = 98.35365 9.85288 54.10326
#
# Velocity S-wave (km/s) = 6.56892 2.07912 4.87203
# Velocity P-wave (km/s) = 8.20019 4.77553 6.71002
#
# Compressibility (1/GPa) = 0.04518810
#
# Stress axis : x y z
#
# Youngs Moduli (GPa) = -3778.24788 -3778.24801 166.27468
#
# Poissons Ratio (x) = 94.89167 0.43760
# Poissons Ratio (y) = 94.89167 0.43760
# Poissons Ratio (z) = -9.94360 -9.94360
#
# Static dielectric constant tensor:
#      x y z
#    x 2.119790 0.000000 0.000000 
#    y 0.000000 2.119790 0.000000 
#    z 0.000000 0.000000 1.921210 
# 
# From -- ./inp_files/305.got.cif
#   From: 2010.05.17/outbox.cif.g08.bks.cpg/sg171_1_cif.got.tgz:305.got - 2010.05.20 11:16:09.
