data_PCOD9580944
_publ_section_title
;
Structure prediction by ZEFSAII (Michael W. Deem and Ramdas Pophale) SiO2 
 PCOD9580944
Probable space group: P 64
;
_chemical_formula_sum "Si O2"
_cell_formula_units_Z 30
_cell_length_a 16.268000
_cell_length_b 16.268000
_cell_length_c 4.875409
_cell_angle_alpha 90.000000
_cell_angle_beta 90.000000
_cell_angle_gamma 120.000000
_cell_volume 1117.403465
_symmetry_space_group_name_H-M "P 64"
_symmetry_group_IT_number 172
_symmetry_cell_setting 'hexagonal'
loop_
_space_group_symop_operation_xyz
x,y,z
x-y,x,2/3+z
-y,x-y,1/3+z
-x,-y,z
-x+y,-x,2/3+z
y,-x+y,1/3+z
loop_
_atom_site_type_symbol
_atom_site_label
_atom_site_fract_x
_atom_site_fract_y
_atom_site_fract_z
Si Si1 0.062582 0.364941 0.681390
Si Si2 0.194666 0.834024 0.879761
Si Si3 0.224122 0.631272 0.094231
Si Si4 0.850931 0.822268 0.024479
Si Si5 0.489006 0.113144 0.295964
O O1 0.006406 0.254538 0.576593
O O2 0.997949 0.410568 0.618102
O O3 0.154607 0.403269 0.494248
O O4 0.092380 0.361980 0.992597
O O5 0.108241 0.856044 0.902642
O O6 0.151314 0.728224 0.766260
O O7 0.281544 0.590236 0.259437
O O8 0.159413 0.636851 0.333324
O O9 0.152155 0.575631 0.844326
O O10 0.852217 0.912697 0.158037
#
# Coordination Sequence:
#
# PCOD9580944 Si02
#       5
#     6   6   6   6   6
#     4  10  21  39  59  88 122 164 218 257 289 357
#     4  10  21  39  59  88 122 164 218 257 289 357
#     4  12  22  42  66 104 123 146 189 252 300 386
#     4   9  20  36  54  78 122 166 216 270 313 338
#     4  11  22  38  69  92 123 170 201 246 311 352
#
# _framework density 26.847957000000001
#
# number of rings (size 3 to 8) (size 9 to 14) (size 15 to 20)
#    0.000    1.600    2.000    2.400    0.000   12.800 
#    0.000    9.000    0.000   18.000    0.000    0.000 
#    0.000    0.000    0.000    0.000    0.000    0.000 
#
# Total GULP energy -167899.018589 kJ/mol
# GULP energy per Si atom -5596.633953 kJ/mol
# Density = 2.678685 g / cm^3
# Si number density = 26.847957 Si / 1000 Ang^3
#
#
#
# Elastic Constant Matrix: (Units=GPa)
#
#
# Indices 1 2 3 4 5 6 
#
# 1 99.7902 27.9522 25.1510 0.0000 0.0000 0.0000
# 2 27.9522 99.7902 25.1510 0.0000 0.0000 0.0000
# 3 25.1510 25.1510 148.5206 0.0000 0.0000 0.0000
# 4 0.0000 0.0000 0.0000 46.9060 0.0000 0.0000
# 5 0.0000 0.0000 0.0000 0.0000 46.9060 0.0000
# 6 0.0000 0.0000 0.0000 0.0000 0.0000 35.9190
#
#
#
# Elastic Compliance Matrix: (Units=1/GPa)
#
#
# Indices 1 2 3 4 5 6 
#
# 1 0.011154 -0.002766 -0.001420 0.000000 0.000000 0.000000
# 2 -0.002766 0.011154 -0.001420 0.000000 0.000000 0.000000
# 3 -0.001420 -0.001420 0.007214 0.000000 0.000000 0.000000
# 4 0.000000 0.000000 0.000000 0.021319 0.000000 0.000000
# 5 0.000000 0.000000 0.000000 0.000000 0.021319 0.000000
# 6 0.000000 0.000000 0.000000 0.000000 0.000000 0.027840
#
#
# Mechanical properties :
#
#
# Convention : Reuss Voigt Hill
#
# Bulk Modulus (GPa) = 54.62165 56.06769 55.34467
# Shear Modulus (GPa) = 42.61938 43.93599 43.27769
#
# Velocity S-wave (km/s) = 3.98859 4.04972 4.01927
# Velocity P-wave (km/s) = 6.44986 6.54185 6.49602
#
# Compressibility (1/GPa) = 0.01830776
#
# Stress axis : x y z
#
# Youngs Moduli (GPa) = 89.65489 89.65489 138.61673
#
# Poissons Ratio (x) = 0.24801 0.19689
# Poissons Ratio (y) = 0.24801 0.19689
# Poissons Ratio (z) = 0.12734 0.12734
#
# Static dielectric constant tensor:
#      x y z
#    x 2.187780 0.000000 0.000000 
#    y 0.000000 2.187780 0.000000 
#    z 0.000000 0.000000 2.060730 
# 
# From -- ./inp_files/191.got.cif
#   From: 2010.05.17/outbox.cif.g08.bks.cpg/sg172_1_cif.got.tgz:191.got - 2010.05.20 11:19:57.
