data_PCOD9580725
_publ_section_title
;
Structure prediction by ZEFSAII (Michael W. Deem and Ramdas Pophale) SiO2 
 PCOD9580725
Probable space group: P 62
;
_chemical_formula_sum "Si O2"
_cell_formula_units_Z 42
_cell_length_a 10.742493
_cell_length_b 10.742493
_cell_length_c 18.668796
_cell_angle_alpha 90.000000
_cell_angle_beta 90.000000
_cell_angle_gamma 120.000000
_cell_volume 1865.765681
_symmetry_space_group_name_H-M "P 62"
_symmetry_group_IT_number 171
_symmetry_cell_setting 'hexagonal'
loop_
_space_group_symop_operation_xyz
x,y,z
x-y,x,1/3+z
-y,x-y,2/3+z
-x,-y,z
-x+y,-x,1/3+z
y,-x+y,2/3+z
loop_
_atom_site_type_symbol
_atom_site_label
_atom_site_fract_x
_atom_site_fract_y
_atom_site_fract_z
Si Si1 0.304012 0.798273 0.513130
Si Si2 0.948122 0.118682 0.859726
Si Si3 0.724933 0.673249 0.278015
Si Si4 0.000000 0.500000 0.281829
Si Si5 0.552042 0.761510 0.683203
Si Si6 0.460192 0.296680 0.530539
Si Si7 0.847428 0.859396 0.037179
Si Si8 0.500000 0.000000 0.068611
O O1 0.146252 0.704459 0.549424
O O2 0.368674 0.944829 0.558653
O O3 0.301701 0.806011 0.428233
O O4 0.425573 0.757953 0.528940
O O5 0.871147 0.076301 0.782441
O O6 0.079072 0.284037 0.857689
O O7 0.816489 0.086047 0.913184
O O8 0.000000 0.000000 0.870942
O O9 0.880783 0.738583 0.313340
O O10 0.623113 0.598263 0.345578
O O11 0.874425 0.378263 0.331182
O O12 0.520104 0.658408 0.614964
O O13 0.722764 0.858790 0.692080
O O14 0.513130 0.397408 0.460515
O O15 0.000000 0.000000 0.029143
#
# Coordination Sequence:
#
# PCOD9580725 Si02
#       8
#     6   6   6   3   6   6   6   3
#     4  11  26  43  75 110 148 200 260 323 400 472
#     4  11  24  47  78 111 152 198 260 324 405 462
#     4  12  24  48  72 111 148 207 259 324 388 485
#     4  10  24  42  68  98 150 186 256 314 376 478
#     4  11  23  46  72 107 145 205 252 319 390 480
#     4  11  27  49  69 113 159 199 249 330 400 478
#     4  11  22  41  76 110 148 190 259 327 386 461
#     4  12  30  48  72 106 162 208 258 320 406 482
#
# _framework density 22.510867000000001
#
# number of rings (size 3 to 8) (size 9 to 14) (size 15 to 20)
#    0.000    0.857    4.286    2.143    6.000    2.286 
#    5.143    0.000    0.000    0.000    0.000    0.000 
#    0.000    0.000    0.000    0.000    0.000    0.000 
#
# Total GULP energy -233837.135878 kJ/mol
# GULP energy per Si atom -5567.550854 kJ/mol
# Density = 2.245963 g / cm^3
# Si number density = 22.510867 Si / 1000 Ang^3
#
#
#
# Elastic Constant Matrix: (Units=GPa)
#
#
# Indices 1 2 3 4 5 6 
#
# 1 71.9262 36.2632 37.6760 0.0000 0.0000 0.0000
# 2 36.2632 71.9262 37.6760 0.0000 0.0000 0.0000
# 3 37.6760 37.6760 185.5421 0.0000 0.0000 0.0000
# 4 0.0000 0.0000 0.0000 9.1205 0.0000 0.0000
# 5 0.0000 0.0000 0.0000 0.0000 9.1205 0.0000
# 6 0.0000 0.0000 0.0000 0.0000 0.0000 17.8315
#
#
#
# Elastic Compliance Matrix: (Units=1/GPa)
#
#
# Indices 1 2 3 4 5 6 
#
# 1 0.019403 -0.008637 -0.002186 0.000000 0.000000 0.000000
# 2 -0.008637 0.019403 -0.002186 0.000000 0.000000 0.000000
# 3 -0.002186 -0.002186 0.006277 0.000000 0.000000 0.000000
# 4 0.000000 0.000000 0.000000 0.109643 0.000000 0.000000
# 5 0.000000 0.000000 0.000000 0.000000 0.109643 0.000000
# 6 0.000000 0.000000 0.000000 0.000000 0.000000 0.056080
#
#
# Mechanical properties :
#
#
# Convention : Reuss Voigt Hill
#
# Bulk Modulus (GPa) = 52.45382 61.40276 56.92829
# Shear Modulus (GPa) = 14.17137 21.73312 17.95225
#
# Velocity S-wave (km/s) = 2.51178 3.11054 2.82705
# Velocity P-wave (km/s) = 5.63597 6.34325 6.00004
#
# Compressibility (1/GPa) = 0.01906439
#
# Stress axis : x y z
#
# Youngs Moduli (GPa) = 51.53864 51.53864 159.30146
#
# Poissons Ratio (x) = 0.44516 0.34824
# Poissons Ratio (y) = 0.44516 0.34824
# Poissons Ratio (z) = 0.11267 0.11267
#
# Static dielectric constant tensor:
#      x y z
#    x 1.968400 0.000000 0.000000 
#    y 0.000000 1.968400 0.000000 
#    z 0.000000 0.000000 1.866210 
# 
# From -- ./inp_files/5024.got.cif
#   From: 2010.05.17/outbox.cif.g08.bks.cpg/sg171_3_cif.got.tgz:5024.got - 2010.05.20 11:16:09.
