data_PCOD9580358
_publ_section_title
;
Structure prediction by ZEFSAII (Michael W. Deem and Ramdas Pophale) SiO2 
 PCOD9580358
Probable space group: P 65
;
_chemical_formula_sum "Si O2"
_cell_formula_units_Z 48
_cell_length_a 16.257876
_cell_length_b 16.257876
_cell_length_c 10.699175
_cell_angle_alpha 90.000000
_cell_angle_beta 90.000000
_cell_angle_gamma 120.000000
_cell_volume 2449.111381
_symmetry_space_group_name_H-M "P 65"
_symmetry_group_IT_number 170
_symmetry_cell_setting 'hexagonal'
loop_
_space_group_symop_operation_xyz
x,y,z
x-y,x,5/6+z
-y,x-y,2/3+z
-x,-y,1/2+z
-x+y,-x,1/3+z
y,-x+y,1/6+z
loop_
_atom_site_type_symbol
_atom_site_label
_atom_site_fract_x
_atom_site_fract_y
_atom_site_fract_z
Si Si1 0.218583 0.910425 0.879480
Si Si2 0.374197 0.085999 0.213428
Si Si3 0.551847 0.626569 0.386475
Si Si4 0.545791 0.153170 0.869231
Si Si5 0.428566 0.019678 0.462394
Si Si6 0.938789 0.293168 0.366974
Si Si7 0.732869 0.241728 0.742130
Si Si8 0.163173 0.163217 0.941721
O O1 0.147580 0.807828 0.825558
O O2 0.260851 0.992805 0.778513
O O3 0.311594 0.911271 0.931804
O O4 0.175281 0.937748 0.998138
O O5 0.396651 0.063522 0.350963
O O6 0.438773 0.196573 0.180251
O O7 0.264187 0.050357 0.182013
O O8 0.402155 0.025718 0.117538
O O9 0.453038 0.536141 0.348053
O O10 0.544772 0.695966 0.485564
O O11 0.448414 0.104940 0.788959
O O12 0.636193 0.231728 0.793416
O O13 0.570975 0.072423 0.907836
O O14 0.536798 0.205290 0.989416
O O15 0.366067 0.005990 0.584322
O O16 0.068963 0.148190 0.869386
#
# Coordination Sequence:
#
# PCOD9580358 Si02
#       8
#     6   6   6   6   6   6   6   6
#     4  11  22  41  71  99 131 176 232 279 347 424
#     4  11  23  42  70 100 133 187 236 282 341 424
#     4  11  21  39  69  92 131 178 235 279 335 402
#     4  12  25  43  66  99 140 186 234 287 346 408
#     4  12  24  42  67  95 141 189 226 288 348 405
#     4  12  24  43  69 101 137 183 232 288 346 424
#     4  12  24  43  67  98 141 180 234 288 339 413
#     4  11  23  45  77 104 130 175 227 289 356 424
#
# _framework density 19.598946999999999
#
# number of rings (size 3 to 8) (size 9 to 14) (size 15 to 20)
#    0.000    0.500    7.500    2.250    0.000    2.000 
#    2.250    1.250    0.000    0.000    0.000    0.000 
#    0.000    0.000    0.000    0.000    0.000    0.000 
#
# Total GULP energy -268041.812908 kJ/mol
# GULP energy per Si atom -5584.204436 kJ/mol
# Density = 1.955434 g / cm^3
# Si number density = 19.598947 Si / 1000 Ang^3
#
#
#
# Elastic Constant Matrix: (Units=GPa)
#
#
# Indices 1 2 3 4 5 6 
#
# 1 82.9024 42.0031 40.6647 0.0000 0.0000 0.0000
# 2 42.0031 82.9024 40.6647 0.0000 0.0000 0.0000
# 3 40.6647 40.6647 72.7512 0.0000 0.0000 0.0000
# 4 0.0000 0.0000 0.0000 29.1917 0.0000 0.0000
# 5 0.0000 0.0000 0.0000 0.0000 29.1917 0.0000
# 6 0.0000 0.0000 0.0000 0.0000 0.0000 20.4496
#
#
#
# Elastic Compliance Matrix: (Units=1/GPa)
#
#
# Indices 1 2 3 4 5 6 
#
# 1 0.018519 -0.005932 -0.007036 0.000000 0.000000 0.000000
# 2 -0.005932 0.018519 -0.007036 0.000000 0.000000 0.000000
# 3 -0.007036 -0.007036 0.021611 0.000000 0.000000 0.000000
# 4 0.000000 0.000000 0.000000 0.034256 0.000000 0.000000
# 5 0.000000 0.000000 0.000000 0.000000 0.034256 0.000000
# 6 0.000000 0.000000 0.000000 0.000000 0.000000 0.048901
#
#
# Mechanical properties :
#
#
# Convention : Reuss Voigt Hill
#
# Bulk Modulus (GPa) = 53.64117 53.91343 53.77730
# Shear Modulus (GPa) = 22.49400 23.44817 22.97109
#
# Velocity S-wave (km/s) = 3.39147 3.46265 3.42725
# Velocity P-wave (km/s) = 6.53949 6.59960 6.56961
#
# Compressibility (1/GPa) = 0.01864240
#
# Stress axis : x y z
#
# Youngs Moduli (GPa) = 53.99934 53.99934 46.27325
#
# Poissons Ratio (x) = 0.32030 0.32556
# Poissons Ratio (y) = 0.32030 0.32556
# Poissons Ratio (z) = 0.37992 0.37992
#
# Static dielectric constant tensor:
#      x y z
#    x 1.705230 0.000000 0.000000 
#    y 0.000000 1.705230 0.000000 
#    z 0.000000 0.000000 1.715700 
# 
# From -- ./inp_files/1059.got.cif
#   From: 2010.05.17/outbox.cif.g08.bks.cpg/sg170_cif.got.tgz:1059.got - 2010.05.20 11:14:30.
