data_PCOD9580990
_publ_section_title
;
Structure prediction by ZEFSAII (Michael W. Deem and Ramdas Pophale) SiO2 
 PCOD9580990
Probable space group: P 64
;
_chemical_formula_sum "Si O2"
_cell_formula_units_Z 36
_cell_length_a 11.700068
_cell_length_b 11.700068
_cell_length_c 12.694123
_cell_angle_alpha 90.000000
_cell_angle_beta 90.000000
_cell_angle_gamma 120.000000
_cell_volume 1504.908536
_symmetry_space_group_name_H-M "P 64"
_symmetry_group_IT_number 172
_symmetry_cell_setting 'hexagonal'
loop_
_space_group_symop_operation_xyz
x,y,z
x-y,x,2/3+z
-y,x-y,1/3+z
-x,-y,z
-x+y,-x,2/3+z
y,-x+y,1/3+z
loop_
_atom_site_type_symbol
_atom_site_label
_atom_site_fract_x
_atom_site_fract_y
_atom_site_fract_z
Si Si1 0.049697 0.345018 0.780210
Si Si2 0.695146 0.896879 0.821308
Si Si3 0.619379 0.129451 0.230850
Si Si4 0.855259 0.976136 0.028428
Si Si5 0.437148 0.254876 0.487836
Si Si6 0.794078 0.430985 0.943235
O O1 0.088598 0.440313 0.678937
O O2 0.120347 0.256532 0.770466
O O3 0.092138 0.443014 0.880013
O O4 0.894109 0.240840 0.776645
O O5 0.565814 0.759585 0.842120
O O6 0.755250 0.876669 0.713966
O O7 0.684122 0.026583 0.835880
O O8 0.802574 0.920404 0.912372
O O9 0.571694 0.233328 0.241359
O O10 0.500000 0.000000 0.178598
O O11 0.000000 0.000000 0.046030
O O12 0.539576 0.346705 0.399316
O O13 0.517574 0.229942 0.578914
#
# Coordination Sequence:
#
# PCOD9580990 Si02
#       6
#     6   6   6   6   6   6
#     4  11  23  45  75 103 139 200 258 303 387 473
#     4  11  27  43  71 114 149 197 259 323 394 464
#     4  11  22  47  73 104 143 200 251 306 383 471
#     4  11  23  41  69 106 150 191 244 326 397 465
#     4  12  27  46  75 107 149 196 260 321 393 459
#     4  12  25  47  74 103 144 201 258 314 373 475
#
# _framework density 23.921717999999998
#
# number of rings (size 3 to 8) (size 9 to 14) (size 15 to 20)
#    0.000    0.667    5.000    2.000    4.667    2.000 
#    3.000    0.000    0.000    0.000    0.000    0.000 
#    0.000    0.000    0.000    0.000    0.000    0.000 
#
# Total GULP energy -201494.725919 kJ/mol
# GULP energy per Si atom -5597.075720 kJ/mol
# Density = 2.386727 g / cm^3
# Si number density = 23.921718 Si / 1000 Ang^3
#
#
#
# Elastic Constant Matrix: (Units=GPa)
#
#
# Indices 1 2 3 4 5 6 
#
# 1 140.6518 56.6998 25.0562 0.0000 0.0000 0.0000
# 2 56.6998 140.6518 25.0562 0.0000 0.0000 0.0000
# 3 25.0562 25.0562 48.2161 0.0000 0.0000 0.0000
# 4 0.0000 0.0000 0.0000 27.6737 0.0000 0.0000
# 5 0.0000 0.0000 0.0000 0.0000 27.6737 0.0000
# 6 0.0000 0.0000 0.0000 0.0000 0.0000 41.9760
#
#
#
# Elastic Compliance Matrix: (Units=1/GPa)
#
#
# Indices 1 2 3 4 5 6 
#
# 1 0.008874 -0.003037 -0.003033 0.000000 0.000000 0.000000
# 2 -0.003037 0.008874 -0.003033 0.000000 0.000000 0.000000
# 3 -0.003033 -0.003033 0.023893 0.000000 0.000000 0.000000
# 4 0.000000 0.000000 0.000000 0.036135 0.000000 0.000000
# 5 0.000000 0.000000 0.000000 0.000000 0.036135 0.000000
# 6 0.000000 0.000000 0.000000 0.000000 0.000000 0.023823
#
#
# Mechanical properties :
#
#
# Convention : Reuss Voigt Hill
#
# Bulk Modulus (GPa) = 42.67382 60.34933 51.51158
# Shear Modulus (GPa) = 30.53344 34.31184 32.42264
#
# Velocity S-wave (km/s) = 3.57654 3.79137 3.68552
# Velocity P-wave (km/s) = 5.91043 6.66698 6.30007
#
# Compressibility (1/GPa) = 0.02343357
#
# Stress axis : x y z
#
# Youngs Moduli (GPa) = 112.68278 112.68278 41.85377
#
# Poissons Ratio (x) = 0.34223 0.12696
# Poissons Ratio (y) = 0.34223 0.12696
# Poissons Ratio (z) = 0.34182 0.34182
#
# Static dielectric constant tensor:
#      x y z
#    x 1.915910 0.000000 0.000000 
#    y 0.000000 1.915910 0.000000 
#    z 0.000000 0.000000 1.933690 
# 
# From -- ./inp_files/1255.got.cif
#   From: 2010.05.17/outbox.cif.g08.bks.cpg/sg172_1_cif.got.tgz:1255.got - 2010.05.20 11:19:57.
