data_PCOD9580361
_publ_section_title
;
Structure prediction by ZEFSAII (Michael W. Deem and Ramdas Pophale) SiO2 
 PCOD9580361
Probable space group: P 65
;
_chemical_formula_sum "Si O2"
_cell_formula_units_Z 36
_cell_length_a 14.650641
_cell_length_b 14.650641
_cell_length_c 8.752658
_cell_angle_alpha 90.000000
_cell_angle_beta 90.000000
_cell_angle_gamma 120.000000
_cell_volume 1626.986105
_symmetry_space_group_name_H-M "P 65"
_symmetry_group_IT_number 170
_symmetry_cell_setting 'hexagonal'
loop_
_space_group_symop_operation_xyz
x,y,z
x-y,x,5/6+z
-y,x-y,2/3+z
-x,-y,1/2+z
-x+y,-x,1/3+z
y,-x+y,1/6+z
loop_
_atom_site_type_symbol
_atom_site_label
_atom_site_fract_x
_atom_site_fract_y
_atom_site_fract_z
Si Si1 0.777265 0.364375 0.965440
Si Si2 0.076956 0.405253 0.972866
Si Si3 0.775451 0.632714 0.701272
Si Si4 0.566956 0.741757 0.318344
Si Si5 0.163836 0.614584 0.123839
Si Si6 0.222987 0.130171 0.649725
O O1 0.812028 0.301441 0.081406
O O2 0.654492 0.279967 0.929247
O O3 0.838538 0.379505 0.806157
O O4 0.806130 0.476077 0.032960
O O5 0.128944 0.447627 0.809984
O O6 0.967233 0.300687 0.956151
O O7 0.146180 0.373966 0.080866
O O8 0.077123 0.501633 0.061191
O O9 0.833490 0.710635 0.840174
O O10 0.545743 0.836153 0.368177
O O11 0.683411 0.783377 0.255024
O O12 0.143459 0.164940 0.578881
#
# Coordination Sequence:
#
# PCOD9580361 Si02
#       6
#     6   6   6   6   6   6
#     4  11  22  38  68 107 158 202 233 281 363 452
#     4  11  25  42  68  99 142 190 244 297 369 440
#     4  11  24  46  69 102 140 187 239 307 375 443
#     4  12  24  43  73 108 150 185 244 303 358 454
#     4  11  21  40  64 104 150 201 232 274 358 452
#     4  12  30  55  78 106 138 191 258 332 389 443
#
# _framework density 22.126802999999999
#
# number of rings (size 3 to 8) (size 9 to 14) (size 15 to 20)
#    0.000    0.667    6.667    2.000    4.667    2.667 
#    3.000    0.000    0.000    0.000    0.000    0.000 
#    0.000    0.000    0.000    0.000    0.000    0.000 
#
# Total GULP energy -201322.695871 kJ/mol
# GULP energy per Si atom -5592.297108 kJ/mol
# Density = 2.207644 g / cm^3
# Si number density = 22.126803 Si / 1000 Ang^3
#
#
#
# Elastic Constant Matrix: (Units=GPa)
#
#
# Indices 1 2 3 4 5 6 
#
# 1 72.1395 27.1260 31.8918 0.0000 0.0000 0.0000
# 2 27.1260 72.1395 31.8918 0.0000 0.0000 0.0000
# 3 31.8918 31.8918 88.0386 0.0000 0.0000 0.0000
# 4 0.0000 0.0000 0.0000 34.0358 0.0000 0.0000
# 5 0.0000 0.0000 0.0000 0.0000 34.0358 0.0000
# 6 0.0000 0.0000 0.0000 0.0000 0.0000 22.5067
#
#
#
# Elastic Compliance Matrix: (Units=1/GPa)
#
#
# Indices 1 2 3 4 5 6 
#
# 1 0.017673 -0.004543 -0.004756 0.000000 0.000000 0.000000
# 2 -0.004543 0.017673 -0.004756 0.000000 0.000000 0.000000
# 3 -0.004756 -0.004756 0.014805 0.000000 0.000000 0.000000
# 4 0.000000 0.000000 0.000000 0.029381 0.000000 0.000000
# 5 0.000000 0.000000 0.000000 0.000000 0.029381 0.000000
# 6 0.000000 0.000000 0.000000 0.000000 0.000000 0.044431
#
#
# Mechanical properties :
#
#
# Convention : Reuss Voigt Hill
#
# Bulk Modulus (GPa) = 45.37303 46.01520 45.69412
# Shear Modulus (GPa) = 26.48293 27.54284 27.01288
#
# Velocity S-wave (km/s) = 3.46334 3.53196 3.49782
# Velocity P-wave (km/s) = 6.04511 6.12162 6.08349
#
# Compressibility (1/GPa) = 0.02203952
#
# Stress axis : x y z
#
# Youngs Moduli (GPa) = 56.58375 56.58375 67.54627
#
# Poissons Ratio (x) = 0.25704 0.32128
# Poissons Ratio (y) = 0.25704 0.32128
# Poissons Ratio (z) = 0.26914 0.26914
#
# Static dielectric constant tensor:
#      x y z
#    x 1.851110 0.000000 0.000000 
#    y 0.000000 1.851110 0.000000 
#    z 0.000000 0.000000 1.813790 
# 
# From -- ./inp_files/602.got.cif
#   From: 2010.05.17/outbox.cif.g08.bks.cpg/sg170_cif.got.tgz:602.got - 2010.05.20 11:14:30.
