data_PCOD9580076
_publ_section_title
;
Structure prediction by ZEFSAII (Michael W. Deem and Ramdas Pophale) SiO2 
 PCOD9580076
Probable space group: P 61
;
_chemical_formula_sum "Si O2"
_cell_formula_units_Z 42
_cell_length_a 12.099657
_cell_length_b 12.099657
_cell_length_c 16.179052
_cell_angle_alpha 90.000000
_cell_angle_beta 90.000000
_cell_angle_gamma 120.000000
_cell_volume 2051.303027
_symmetry_space_group_name_H-M "P 61"
_symmetry_group_IT_number 169
_symmetry_cell_setting 'hexagonal'
loop_
_space_group_symop_operation_xyz
x,y,z
x-y,x,1/6+z
-y,x-y,1/3+z
-x,-y,1/2+z
-x+y,-x,2/3+z
y,-x+y,5/6+z
loop_
_atom_site_type_symbol
_atom_site_label
_atom_site_fract_x
_atom_site_fract_y
_atom_site_fract_z
Si Si1 0.344770 0.383689 0.319950
Si Si2 0.832889 0.654179 0.276530
Si Si3 0.672162 0.273104 0.491102
Si Si4 0.330041 0.414924 0.610397
Si Si5 0.874361 0.150166 0.632294
Si Si6 0.383469 0.582609 0.846997
Si Si7 0.976189 0.948840 0.329117
O O1 0.314820 0.496803 0.303689
O O2 0.299996 0.259623 0.261436
O O3 0.256375 0.308827 0.397676
O O4 0.491415 0.431634 0.339994
O O5 0.750131 0.634633 0.195036
O O6 0.737745 0.558588 0.343594
O O7 0.906730 0.800371 0.304948
O O8 0.936907 0.611920 0.258308
O O9 0.562524 0.132885 0.459846
O O10 0.630883 0.354782 0.431588
O O11 0.651029 0.270962 0.591650
O O12 0.226557 0.378764 0.537617
O O13 0.968943 0.100725 0.662556
O O14 0.931178 0.949408 0.421238
#
# Coordination Sequence:
#
# PCOD9580076 Si02
#       7
#     6   6   6   6   6   6   6
#     4  12  23  43  67 102 137 175 233 288 348 414
#     4  11  21  36  65 100 129 175 232 286 345 405
#     4  11  25  44  67 101 139 178 228 288 347 412
#     4  11  20  38  67 104 125 175 235 290 340 403
#     4  12  21  38  71 101 131 174 230 295 332 404
#     4  11  27  42  69 100 140 183 230 288 347 419
#     4  12  21  35  66 100 131 174 228 287 337 401
#
# _framework density 20.474789000000001
#
# number of rings (size 3 to 8) (size 9 to 14) (size 15 to 20)
#    0.000    0.571    7.143    0.857    6.000    0.000 
#    0.000    0.000    9.429    1.714    0.000    0.000 
#    0.000    0.000    0.000    0.000    0.000    0.000 
#
# Total GULP energy -233882.238632 kJ/mol
# GULP energy per Si atom -5568.624729 kJ/mol
# Density = 2.042819 g / cm^3
# Si number density = 20.474789 Si / 1000 Ang^3
#
#
#
# Elastic Constant Matrix: (Units=GPa)
#
#
# Indices 1 2 3 4 5 6 
#
# 1 99.1352 43.2305 9.5076 0.0000 0.0000 0.0000
# 2 43.2305 99.1352 9.5076 0.0000 0.0000 0.0000
# 3 9.5076 9.5076 85.5105 0.0000 0.0000 0.0000
# 4 0.0000 0.0000 0.0000 25.2485 0.0000 0.0000
# 5 0.0000 0.0000 0.0000 0.0000 25.2485 0.0000
# 6 0.0000 0.0000 0.0000 0.0000 0.0000 27.9523
#
#
#
# Elastic Compliance Matrix: (Units=1/GPa)
#
#
# Indices 1 2 3 4 5 6 
#
# 1 0.012509 -0.005379 -0.000793 0.000000 0.000000 0.000000
# 2 -0.005379 0.012509 -0.000793 0.000000 0.000000 0.000000
# 3 -0.000793 -0.000793 0.011871 0.000000 0.000000 0.000000
# 4 0.000000 0.000000 0.000000 0.039606 0.000000 0.000000
# 5 0.000000 0.000000 0.000000 0.000000 0.039606 0.000000
# 6 0.000000 0.000000 0.000000 0.000000 0.000000 0.035775
#
#
# Mechanical properties :
#
#
# Convention : Reuss Voigt Hill
#
# Bulk Modulus (GPa) = 43.55439 45.36359 44.45899
# Shear Modulus (GPa) = 28.82538 30.45886 29.64212
#
# Velocity S-wave (km/s) = 3.75620 3.86116 3.80904
# Velocity P-wave (km/s) = 6.33486 6.48707 6.41141
#
# Compressibility (1/GPa) = 0.02295980
#
# Stress axis : x y z
#
# Youngs Moduli (GPa) = 79.94353 79.94353 84.24064
#
# Poissons Ratio (x) = 0.43000 0.06678
# Poissons Ratio (y) = 0.43000 0.06678
# Poissons Ratio (z) = 0.06338 0.06338
#
# Static dielectric constant tensor:
#      x y z
#    x 1.816170 0.000000 0.000000 
#    y 0.000000 1.816170 0.000000 
#    z 0.000000 0.000000 1.826520 
# 
# From -- ./inp_files/1365.got.cif
#   From: 2010.05.17/outbox.cif.g08.bks.cpg/sg169_cif.got.tgz:1365.got - 2010.05.20 11:12:54.
