data_PCOD9580214
_publ_section_title
;
Structure prediction by ZEFSAII (Michael W. Deem and Ramdas Pophale) SiO2 
 PCOD9580214
Probable space group: P 65
;
_chemical_formula_sum "Si O2"
_cell_formula_units_Z 42
_cell_length_a 11.728282
_cell_length_b 11.728282
_cell_length_c 16.849891
_cell_angle_alpha 90.000000
_cell_angle_beta 90.000000
_cell_angle_gamma 120.000000
_cell_volume 2007.227170
_symmetry_space_group_name_H-M "P 65"
_symmetry_group_IT_number 170
_symmetry_cell_setting 'hexagonal'
loop_
_space_group_symop_operation_xyz
x,y,z
x-y,x,5/6+z
-y,x-y,2/3+z
-x,-y,1/2+z
-x+y,-x,1/3+z
y,-x+y,1/6+z
loop_
_atom_site_type_symbol
_atom_site_label
_atom_site_fract_x
_atom_site_fract_y
_atom_site_fract_z
Si Si1 0.992656 0.599920 0.777000
Si Si2 0.365998 0.125066 0.869148
Si Si3 0.763682 0.421248 0.084748
Si Si4 0.325228 0.952581 0.145943
Si Si5 0.256539 0.786207 0.302307
Si Si6 0.439767 0.948761 0.446075
Si Si7 0.859819 0.603553 0.941502
O O1 0.911574 0.547580 0.695700
O O2 0.913900 0.585733 0.857646
O O3 0.064324 0.512218 0.783972
O O4 0.104501 0.751192 0.766981
O O5 0.458751 0.223902 0.800608
O O6 0.312070 0.207334 0.915640
O O7 0.452548 0.097812 0.933942
O O8 0.277106 0.985456 0.826718
O O9 0.620568 0.304817 0.109224
O O10 0.892031 0.412777 0.107915
O O11 0.789533 0.468299 0.993099
O O12 0.275211 0.874576 0.226579
O O13 0.393017 0.106292 0.159637
O O14 0.345398 0.879624 0.372510
#
# Coordination Sequence:
#
# PCOD9580214 Si02
#       7
#     6   6   6   6   6   6   6
#     4  12  24  41  67 106 136 186 230 302 363 431
#     4  10  21  42  68 101 137 184 238 291 356 431
#     4  10  19  44  68 100 140 174 228 296 362 422
#     4  12  24  43  69 107 141 186 243 300 373 434
#     4  11  26  44  70 109 143 188 241 300 377 434
#     4  10  23  43  68 105 144 185 229 304 366 432
#     4  11  23  41  70 100 143 179 249 289 353 436
#
# _framework density 20.924386999999999
#
# number of rings (size 3 to 8) (size 9 to 14) (size 15 to 20)
#    0.000    1.143    4.286    2.571    4.000    1.143 
#    7.714    0.000    0.000    6.857    0.000    0.000 
#    0.000    0.000    0.000    0.000    0.000    0.000 
#
# Total GULP energy -234834.753452 kJ/mol
# GULP energy per Si atom -5591.303654 kJ/mol
# Density = 2.087676 g / cm^3
# Si number density = 20.924387 Si / 1000 Ang^3
#
#
#
# Elastic Constant Matrix: (Units=GPa)
#
#
# Indices 1 2 3 4 5 6 
#
# 1 83.8826 47.3456 35.8038 0.0000 0.0000 0.0000
# 2 47.3456 83.8826 35.8038 0.0000 0.0000 0.0000
# 3 35.8038 35.8038 145.3850 0.0000 0.0000 0.0000
# 4 0.0000 0.0000 0.0000 30.7252 0.0000 0.0000
# 5 0.0000 0.0000 0.0000 0.0000 30.7252 0.0000
# 6 0.0000 0.0000 0.0000 0.0000 0.0000 18.2685
#
#
#
# Elastic Compliance Matrix: (Units=1/GPa)
#
#
# Indices 1 2 3 4 5 6 
#
# 1 0.018086 -0.009283 -0.002168 0.000000 0.000000 0.000000
# 2 -0.009283 0.018086 -0.002168 0.000000 0.000000 0.000000
# 3 -0.002168 -0.002168 0.007946 0.000000 0.000000 0.000000
# 4 0.000000 0.000000 0.000000 0.032547 0.000000 0.000000
# 5 0.000000 0.000000 0.000000 0.000000 0.032547 0.000000
# 6 0.000000 0.000000 0.000000 0.000000 0.000000 0.054739
#
#
# Mechanical properties :
#
#
# Convention : Reuss Voigt Hill
#
# Bulk Modulus (GPa) = 59.23884 61.22848 60.23366
# Shear Modulus (GPa) = 25.40438 28.89022 27.14730
#
# Velocity S-wave (km/s) = 3.48818 3.71980 3.60585
# Velocity P-wave (km/s) = 6.67799 6.91191 6.79596
#
# Compressibility (1/GPa) = 0.01688082
#
# Stress axis : x y z
#
# Youngs Moduli (GPa) = 55.29003 55.29003 125.84786
#
# Poissons Ratio (x) = 0.51326 0.27284
# Poissons Ratio (y) = 0.51326 0.27284
# Poissons Ratio (z) = 0.11987 0.11987
#
# Static dielectric constant tensor:
#      x y z
#    x 1.759160 0.000000 0.000000 
#    y 0.000000 1.759160 0.000000 
#    z 0.000000 0.000000 1.794410 
# 
# From -- ./inp_files/1419.got.cif
#   From: 2010.05.17/outbox.cif.g08.bks.cpg/sg170_cif.got.tgz:1419.got - 2010.05.20 11:14:30.
