data_PCOD9580254
_publ_section_title
;
Structure prediction by ZEFSAII (Michael W. Deem and Ramdas Pophale) SiO2 
 PCOD9580254
Probable space group: P 65
;
_chemical_formula_sum "Si O2"
_cell_formula_units_Z 48
_cell_length_a 14.734399
_cell_length_b 14.734399
_cell_length_c 12.254661
_cell_angle_alpha 90.000000
_cell_angle_beta 90.000000
_cell_angle_gamma 120.000000
_cell_volume 2304.075924
_symmetry_space_group_name_H-M "P 65"
_symmetry_group_IT_number 170
_symmetry_cell_setting 'hexagonal'
loop_
_space_group_symop_operation_xyz
x,y,z
x-y,x,5/6+z
-y,x-y,2/3+z
-x,-y,1/2+z
-x+y,-x,1/3+z
y,-x+y,1/6+z
loop_
_atom_site_type_symbol
_atom_site_label
_atom_site_fract_x
_atom_site_fract_y
_atom_site_fract_z
Si Si1 0.737005 0.456944 0.234450
Si Si2 0.389315 0.756241 0.834676
Si Si3 0.854970 0.028912 0.372286
Si Si4 0.899964 0.551335 0.849709
Si Si5 0.958886 0.141402 0.164808
Si Si6 0.375925 0.038630 0.882597
Si Si7 0.536608 0.056371 0.558309
Si Si8 0.133042 0.732099 0.604170
O O1 0.644360 0.360444 0.298366
O O2 0.745503 0.411813 0.117232
O O3 0.712203 0.549524 0.221370
O O4 0.851262 0.489771 0.285152
O O5 0.341413 0.805354 0.753730
O O6 0.514345 0.834128 0.840386
O O7 0.857615 0.936511 0.304182
O O8 0.740562 0.992200 0.417657
O O9 0.883523 0.112257 0.272816
O O10 0.843696 0.603949 0.785135
O O11 0.950353 0.493172 0.785351
O O12 0.993099 0.631068 0.927714
O O13 0.960815 0.242347 0.111154
O O14 0.057512 0.147230 0.231129
O O15 0.421170 0.979002 0.954718
O O16 0.462064 0.104274 0.527999
#
# Coordination Sequence:
#
# PCOD9580254 Si02
#       8
#     6   6   6   6   6   6   6   6
#     4  11  23  40  61  93 132 177 219 270 330 394
#     4  11  22  40  62  90 135 178 213 259 329 399
#     4  10  22  39  66 101 128 168 225 285 339 390
#     4  12  22  39  62  93 131 173 220 263 326 397
#     4  10  21  37  64  95 123 160 214 275 330 391
#     4  12  23  37  66 100 129 173 230 278 332 404
#     4  11  24  38  60  94 136 175 218 275 336 404
#     4  11  21  38  63  94 128 160 217 271 322 395
#
# _framework density 20.832646
#
# number of rings (size 3 to 8) (size 9 to 14) (size 15 to 20)
#    0.000    1.000    6.250    3.000    1.750    0.000 
#    0.000    0.000    0.000   16.500    0.000    0.000 
#    0.000    0.000    0.000    0.000    0.000    0.000 
#
# Total GULP energy -267440.568099 kJ/mol
# GULP energy per Si atom -5571.678502 kJ/mol
# Density = 2.078523 g / cm^3
# Si number density = 20.832646 Si / 1000 Ang^3
#
#
#
# Elastic Constant Matrix: (Units=GPa)
#
#
# Indices 1 2 3 4 5 6 
#
# 1 91.8176 15.8075 14.0775 0.0000 0.0000 0.0000
# 2 15.8075 91.8176 14.0775 0.0000 0.0000 0.0000
# 3 14.0775 14.0775 32.5257 0.0000 0.0000 0.0000
# 4 0.0000 0.0000 0.0000 25.7652 0.0000 0.0000
# 5 0.0000 0.0000 0.0000 0.0000 25.7652 0.0000
# 6 0.0000 0.0000 0.0000 0.0000 0.0000 38.0050
#
#
#
# Elastic Compliance Matrix: (Units=1/GPa)
#
#
# Indices 1 2 3 4 5 6 
#
# 1 0.011817 -0.001339 -0.004535 0.000000 0.000000 0.000000
# 2 -0.001339 0.011817 -0.004535 0.000000 0.000000 0.000000
# 3 -0.004535 -0.004535 0.034670 0.000000 0.000000 0.000000
# 4 0.000000 0.000000 0.000000 0.038812 0.000000 0.000000
# 5 0.000000 0.000000 0.000000 0.000000 0.038812 0.000000
# 6 0.000000 0.000000 0.000000 0.000000 0.000000 0.026312
#
#
# Mechanical properties :
#
#
# Convention : Reuss Voigt Hill
#
# Bulk Modulus (GPa) = 26.67634 33.78733 30.23184
# Shear Modulus (GPa) = 25.56834 29.38698 27.47766
#
# Velocity S-wave (km/s) = 3.50711 3.75990 3.63570
# Velocity P-wave (km/s) = 5.40672 5.92476 5.67166
#
# Compressibility (1/GPa) = 0.03748640
#
# Stress axis : x y z
#
# Youngs Moduli (GPa) = 84.62380 84.62380 28.84303
#
# Poissons Ratio (x) = 0.11332 0.13080
# Poissons Ratio (y) = 0.11332 0.13080
# Poissons Ratio (z) = 0.38376 0.38376
#
# Static dielectric constant tensor:
#      x y z
#    x 1.797430 0.000000 0.000000 
#    y 0.000000 1.797430 0.000000 
#    z 0.000000 0.000000 1.776550 
# 
# From -- ./inp_files/1067.got.cif
#   From: 2010.05.17/outbox.cif.g08.bks.cpg/sg170_cif.got.tgz:1067.got - 2010.05.20 11:14:30.
