data_PCOD9580343
_publ_section_title
;
Structure prediction by ZEFSAII (Michael W. Deem and Ramdas Pophale) SiO2 
 PCOD9580343
Probable space group: P 65
;
_chemical_formula_sum "Si O2"
_cell_formula_units_Z 48
_cell_length_a 15.078373
_cell_length_b 15.078373
_cell_length_c 11.258335
_cell_angle_alpha 90.000000
_cell_angle_beta 90.000000
_cell_angle_gamma 120.000000
_cell_volume 2216.734926
_symmetry_space_group_name_H-M "P 65"
_symmetry_group_IT_number 170
_symmetry_cell_setting 'hexagonal'
loop_
_space_group_symop_operation_xyz
x,y,z
x-y,x,5/6+z
-y,x-y,2/3+z
-x,-y,1/2+z
-x+y,-x,1/3+z
y,-x+y,1/6+z
loop_
_atom_site_type_symbol
_atom_site_label
_atom_site_fract_x
_atom_site_fract_y
_atom_site_fract_z
Si Si1 0.673345 0.896604 0.509920
Si Si2 0.072387 0.882320 0.384486
Si Si3 0.091468 0.721515 0.808937
Si Si4 0.130367 0.330456 0.255956
Si Si5 0.777842 0.310950 0.978146
Si Si6 0.113937 0.357330 0.659383
Si Si7 0.385519 0.553610 0.875984
Si Si8 0.460039 0.531911 0.348547
O O1 0.711181 0.915762 0.645165
O O2 0.700068 0.821830 0.441418
O O3 0.551578 0.841167 0.498871
O O4 0.723414 0.003251 0.440041
O O5 0.147539 0.909721 0.496810
O O6 0.968823 0.859593 0.450134
O O7 0.128328 0.793373 0.691599
O O8 0.169020 0.792999 0.909535
O O9 0.103499 0.622767 0.786136
O O10 0.969703 0.677479 0.817610
O O11 0.203783 0.430159 0.176816
O O12 0.814690 0.364889 0.850776
O O13 0.655892 0.267214 0.994775
O O14 0.861374 0.393225 0.069466
O O15 0.103930 0.454314 0.696628
O O16 0.480844 0.534417 0.843179
#
# Coordination Sequence:
#
# PCOD9580343 Si02
#       8
#     6   6   6   6   6   6   6   6
#     4  11  24  45  69 101 139 193 236 294 368 444
#     4  12  24  47  72 103 142 184 245 301 363 439
#     4  11  23  44  71 102 143 182 243 300 356 433
#     4  11  22  42  72 103 132 190 235 291 360 424
#     4  11  25  44  71 105 148 186 246 300 356 436
#     4  11  25  44  68 100 141 185 239 298 368 428
#     4  11  25  46  70 108 143 191 247 297 364 435
#     4  10  26  44  69 104 138 189 237 297 367 423
#
# _framework density 21.653468
#
# number of rings (size 3 to 8) (size 9 to 14) (size 15 to 20)
#    0.000    1.000    5.000    0.750    5.250    2.000 
#    6.750    0.000    0.000    0.000    0.000    0.000 
#    0.000    0.000    0.000    0.000    0.000    0.000 
#
# Total GULP energy -267411.592219 kJ/mol
# GULP energy per Si atom -5571.074838 kJ/mol
# Density = 2.160418 g / cm^3
# Si number density = 21.653468 Si / 1000 Ang^3
#
#
#
# Elastic Constant Matrix: (Units=GPa)
#
#
# Indices 1 2 3 4 5 6 
#
# 1 108.6540 48.8299 30.3227 0.0000 0.0000 0.0000
# 2 48.8299 108.6540 30.3227 0.0000 0.0000 0.0000
# 3 30.3227 30.3227 73.1990 0.0000 0.0000 0.0000
# 4 0.0000 0.0000 0.0000 28.3367 0.0000 0.0000
# 5 0.0000 0.0000 0.0000 0.0000 28.3367 0.0000
# 6 0.0000 0.0000 0.0000 0.0000 0.0000 29.9121
#
#
#
# Elastic Compliance Matrix: (Units=1/GPa)
#
#
# Indices 1 2 3 4 5 6 
#
# 1 0.012135 -0.004580 -0.003130 0.000000 0.000000 0.000000
# 2 -0.004580 0.012135 -0.003130 0.000000 0.000000 0.000000
# 3 -0.003130 -0.003130 0.016254 0.000000 0.000000 0.000000
# 4 0.000000 0.000000 0.000000 0.035290 0.000000 0.000000
# 5 0.000000 0.000000 0.000000 0.000000 0.035290 0.000000
# 6 0.000000 0.000000 0.000000 0.000000 0.000000 0.033431
#
#
# Mechanical properties :
#
#
# Convention : Reuss Voigt Hill
#
# Bulk Modulus (GPa) = 53.06243 56.60638 54.83440
# Shear Modulus (GPa) = 28.98595 29.38590 29.18592
#
# Velocity S-wave (km/s) = 3.66270 3.68788 3.67531
# Velocity P-wave (km/s) = 6.51503 6.65828 6.58704
#
# Compressibility (1/GPa) = 0.01884573
#
# Stress axis : x y z
#
# Youngs Moduli (GPa) = 82.40386 82.40386 61.52208
#
# Poissons Ratio (x) = 0.37743 0.19254
# Poissons Ratio (y) = 0.37743 0.19254
# Poissons Ratio (z) = 0.25790 0.25790
#
# Static dielectric constant tensor:
#      x y z
#    x 1.826160 0.000000 0.000000 
#    y 0.000000 1.826160 0.000000 
#    z 0.000000 0.000000 1.783240 
# 
# From -- ./inp_files/1093.got.cif
#   From: 2010.05.17/outbox.cif.g08.bks.cpg/sg170_cif.got.tgz:1093.got - 2010.05.20 11:14:30.
