data_PCOD9580457
_publ_section_title
;
Structure prediction by ZEFSAII (Michael W. Deem and Ramdas Pophale) SiO2 
 PCOD9580457
Probable space group: P 62
;
_chemical_formula_sum "Si O2"
_cell_formula_units_Z 30
_cell_length_a 12.066766
_cell_length_b 12.066766
_cell_length_c 12.459998
_cell_angle_alpha 90.000000
_cell_angle_beta 90.000000
_cell_angle_gamma 120.000000
_cell_volume 1571.196077
_symmetry_space_group_name_H-M "P 62"
_symmetry_group_IT_number 171
_symmetry_cell_setting 'hexagonal'
loop_
_space_group_symop_operation_xyz
x,y,z
x-y,x,1/3+z
-y,x-y,2/3+z
-x,-y,z
-x+y,-x,1/3+z
y,-x+y,2/3+z
loop_
_atom_site_type_symbol
_atom_site_label
_atom_site_fract_x
_atom_site_fract_y
_atom_site_fract_z
Si Si1 0.156364 0.854732 0.884530
Si Si2 0.454411 0.300466 0.776948
Si Si3 0.854733 0.156365 0.629253
Si Si4 0.858113 0.716225 0.923558
Si Si5 0.454410 0.153944 0.403503
O O1 0.158830 0.841168 0.756891
O O2 0.010081 0.807081 0.919508
O O3 0.245204 1.000000 0.923557
O O4 0.186673 0.759758 0.952266
O O5 0.426915 0.240241 0.894851
O O6 0.378260 0.186499 0.692334
O O7 0.383760 0.383760 0.756893
O O8 0.603032 0.396969 0.756892
O O9 0.807080 0.010081 0.594276
O O10 0.813503 0.621742 0.821449
#
# Coordination Sequence:
#
# PCOD9580457 Si02
#       5
#     6   6   6   6   6
#     4  11  20  32  55  92 131 158 199 259 324 384
#     4   9  19  35  53  76 112 164 206 242 296 370
#     4  11  20  32  55  92 131 158 199 259 324 384
#     4  10  19  32  54  84 123 166 198 244 320 390
#     4   9  19  35  53  76 112 164 206 242 296 370
#
# _framework density 19.093733
#
# number of rings (size 3 to 8) (size 9 to 14) (size 15 to 20)
#    0.000    2.000    4.000    0.600    0.000    1.600 
#    0.000    2.000    0.000    0.000    0.000    0.000 
#    0.000    0.000    0.000    0.000    0.000    0.000 
#
# Total GULP energy -167236.874354 kJ/mol
# GULP energy per Si atom -5574.562478 kJ/mol
# Density = 1.905027 g / cm^3
# Si number density = 19.093733 Si / 1000 Ang^3
#
#
#
# Elastic Constant Matrix: (Units=GPa)
#
#
# Indices 1 2 3 4 5 6 
#
# 1 69.0400 35.5798 36.3761 0.0000 0.0000 0.0000
# 2 35.5798 69.0400 36.3761 0.0000 0.0000 0.0000
# 3 36.3761 36.3761 166.9317 0.0000 0.0000 0.0000
# 4 0.0000 0.0000 0.0000 15.3205 0.0000 0.0000
# 5 0.0000 0.0000 0.0000 0.0000 15.3205 0.0000
# 6 0.0000 0.0000 0.0000 0.0000 0.0000 16.7301
#
#
#
# Elastic Compliance Matrix: (Units=1/GPa)
#
#
# Indices 1 2 3 4 5 6 
#
# 1 0.020576 -0.009310 -0.002455 0.000000 0.000000 0.000000
# 2 -0.009310 0.020576 -0.002455 0.000000 0.000000 0.000000
# 3 -0.002455 -0.002455 0.007060 0.000000 0.000000 0.000000
# 4 0.000000 0.000000 0.000000 0.065272 0.000000 0.000000
# 5 0.000000 0.000000 0.000000 0.000000 0.065272 0.000000
# 6 0.000000 0.000000 0.000000 0.000000 0.000000 0.059773
#
#
# Mechanical properties :
#
#
# Convention : Reuss Voigt Hill
#
# Bulk Modulus (GPa) = 50.57679 57.96399 54.27039
# Shear Modulus (GPa) = 18.27757 22.58621 20.43189
#
# Velocity S-wave (km/s) = 3.09731 3.44308 3.27476
# Velocity P-wave (km/s) = 6.27195 6.79926 6.54092
#
# Compressibility (1/GPa) = 0.01977192
#
# Stress axis : x y z
#
# Youngs Moduli (GPa) = 48.60053 48.60053 141.63592
#
# Poissons Ratio (x) = 0.45249 0.34770
# Poissons Ratio (y) = 0.45249 0.34770
# Poissons Ratio (z) = 0.11931 0.11931
#
# Static dielectric constant tensor:
#      x y z
#    x 1.656740 0.000000 0.000000 
#    y 0.000000 1.656740 0.000000 
#    z 0.000000 0.000000 1.698830 
# 
# From -- ./inp_files/1878.got.cif
#   From: 2010.05.17/outbox.cif.g08.bks.cpg/sg171_1_cif.got.tgz:1878.got - 2010.05.20 11:16:09.
