data_PCOD9580143
_publ_section_title
;
Structure prediction by ZEFSAII (Michael W. Deem and Ramdas Pophale) SiO2 
 PCOD9580143
Probable space group: P 61
;
_chemical_formula_sum "Si O2"
_cell_formula_units_Z 48
_cell_length_a 14.935835
_cell_length_b 14.935835
_cell_length_c 11.913284
_cell_angle_alpha 90.000000
_cell_angle_beta 90.000000
_cell_angle_gamma 120.000000
_cell_volume 2301.553853
_symmetry_space_group_name_H-M "P 61"
_symmetry_group_IT_number 169
_symmetry_cell_setting 'hexagonal'
loop_
_space_group_symop_operation_xyz
x,y,z
x-y,x,1/6+z
-y,x-y,1/3+z
-x,-y,1/2+z
-x+y,-x,2/3+z
y,-x+y,5/6+z
loop_
_atom_site_type_symbol
_atom_site_label
_atom_site_fract_x
_atom_site_fract_y
_atom_site_fract_z
Si Si1 0.640173 0.247771 0.750000
Si Si2 0.362332 0.442951 0.805516
Si Si3 0.362311 0.322283 0.021033
Si Si4 0.319418 0.049988 0.258440
Si Si5 0.276535 0.732612 0.803258
Si Si6 0.413141 0.464982 0.236408
Si Si7 0.816181 0.618382 0.137714
Si Si8 0.892284 0.075762 0.430697
O O1 0.559825 0.174082 0.656741
O O2 0.575202 0.267614 0.843798
O O3 0.722889 0.355442 0.695642
O O4 0.700716 0.195494 0.803606
O O5 0.352821 0.393640 0.927297
O O6 0.465129 0.455348 0.746860
O O7 0.258093 0.380933 0.734551
O O8 0.448913 0.295737 0.981298
O O9 0.393848 0.381116 0.140176
O O10 0.255952 0.216154 0.036429
O O11 0.406662 0.040399 0.187683
O O12 0.365118 0.136326 0.354444
O O13 0.259361 0.082170 0.169689
O O14 0.239055 0.937962 0.309361
O O15 0.170267 0.653441 0.865489
O O16 0.985004 0.107954 0.345557
#
# Coordination Sequence:
#
# PCOD9580143 Si02
#       8
#     6   6   6   6   6   6   6   6
#     4  12  26  43  65 108 142 188 236 290 353 435
#     4  12  28  45  70 107 150 188 239 301 367 432
#     4  12  25  47  75 106 141 195 245 300 367 435
#     4  12  25  47  77 105 139 190 245 299 359 437
#     4  12  26  42  70 101 144 183 239 292 351 432
#     4  12  25  45  74 104 142 191 240 292 363 437
#     4  12  28  47  73 103 150 189 241 300 369 430
#     4  12  25  52  78 108 142 188 255 314 367 444
#
# _framework density 20.855475999999999
#
# number of rings (size 3 to 8) (size 9 to 14) (size 15 to 20)
#    0.000    0.000    7.500    1.500    7.000    1.000 
#    2.250    0.000    0.000    0.000    0.000    0.000 
#    0.000    0.000    0.000    0.000    0.000    0.000 
#
# Total GULP energy -268828.478506 kJ/mol
# GULP energy per Si atom -5600.593302 kJ/mol
# Density = 2.080801 g / cm^3
# Si number density = 20.855476 Si / 1000 Ang^3
#
#
#
# Elastic Constant Matrix: (Units=GPa)
#
#
# Indices 1 2 3 4 5 6 
#
# 1 59.9570 -2.6591 12.7850 0.0000 0.0000 0.0000
# 2 -2.6591 59.9570 12.7850 0.0000 0.0000 0.0000
# 3 12.7850 12.7850 46.2067 0.0000 0.0000 0.0000
# 4 0.0000 0.0000 0.0000 33.4442 0.0000 0.0000
# 5 0.0000 0.0000 0.0000 0.0000 33.4442 0.0000
# 6 0.0000 0.0000 0.0000 0.0000 0.0000 31.3081
#
#
#
# Elastic Compliance Matrix: (Units=1/GPa)
#
#
# Indices 1 2 3 4 5 6 
#
# 1 0.017941 0.001970 -0.005509 0.000000 0.000000 0.000000
# 2 0.001970 0.017941 -0.005509 0.000000 0.000000 0.000000
# 3 -0.005509 -0.005509 0.024691 0.000000 0.000000 0.000000
# 4 0.000000 0.000000 0.000000 0.029901 0.000000 0.000000
# 5 0.000000 0.000000 0.000000 0.000000 0.029901 0.000000
# 6 0.000000 0.000000 0.000000 0.000000 0.000000 0.031941
#
#
# Mechanical properties :
#
#
# Convention : Reuss Voigt Hill
#
# Bulk Modulus (GPa) = 23.54269 23.54916 23.54592
# Shear Modulus (GPa) = 27.09018 29.18663 28.13840
#
# Velocity S-wave (km/s) = 3.60800 3.74501 3.67714
# Velocity P-wave (km/s) = 5.35443 5.47871 5.41692
#
# Compressibility (1/GPa) = 0.04247603
#
# Stress axis : x y z
#
# Youngs Moduli (GPa) = 55.73891 55.73891 40.50118
#
# Poissons Ratio (x) = -0.10983 0.22313
# Poissons Ratio (y) = -0.10983 0.22313
# Poissons Ratio (z) = 0.30708 0.30708
#
# Static dielectric constant tensor:
#      x y z
#    x 1.735240 0.000000 0.000000 
#    y 0.000000 1.735240 0.000000 
#    z 0.000000 0.000000 1.736510 
# 
# From -- ./inp_files/1031.got.cif
#   From: 2010.05.17/outbox.cif.g08.bks.cpg/sg169_cif.got.tgz:1031.got - 2010.05.20 11:12:54.
