data_PCOD9580138
_publ_section_title
;
Structure prediction by ZEFSAII (Michael W. Deem and Ramdas Pophale) SiO2 
 PCOD9580138
Probable space group: P 61
;
_chemical_formula_sum "Si O2"
_cell_formula_units_Z 18
_cell_length_a 10.365121
_cell_length_b 10.365121
_cell_length_c 8.261427
_cell_angle_alpha 90.000000
_cell_angle_beta 90.000000
_cell_angle_gamma 120.000000
_cell_volume 768.660305
_symmetry_space_group_name_H-M "P 61"
_symmetry_group_IT_number 169
_symmetry_cell_setting 'hexagonal'
loop_
_space_group_symop_operation_xyz
x,y,z
x-y,x,1/6+z
-y,x-y,1/3+z
-x,-y,1/2+z
-x+y,-x,2/3+z
y,-x+y,5/6+z
loop_
_atom_site_type_symbol
_atom_site_label
_atom_site_fract_x
_atom_site_fract_y
_atom_site_fract_z
Si Si1 0.923059 0.507162 0.689920
Si Si2 0.814747 0.677176 0.941087
Si Si3 0.267133 0.690402 0.636641
O O1 0.853176 0.584894 0.805209
O O2 0.890241 0.335184 0.704414
O O3 0.863145 0.511121 0.511090
O O4 0.096172 0.613581 0.674361
O O5 0.763959 0.791450 0.870022
O O6 0.322646 0.629562 0.787591
#
# Coordination Sequence:
#
# PCOD9580138 Si02
#       3
#     6   6   6
#     4  12  24  46  79 113 158 204 273 333 402 495
#     4  12  27  51  75 117 164 211 272 346 411 493
#     4  12  27  47  78 116 154 209 269 335 407 494
#
# _framework density 23.417366999999999
#
# number of rings (size 3 to 8) (size 9 to 14) (size 15 to 20)
#    0.000    0.000    6.667    2.000    4.667    0.000 
#    6.000    0.000    0.000    0.000    0.000    0.000 
#    0.000    0.000    0.000    0.000    0.000    0.000 
#
# Total GULP energy -100218.470387 kJ/mol
# GULP energy per Si atom -5567.692799 kJ/mol
# Density = 2.336407 g / cm^3
# Si number density = 23.417367 Si / 1000 Ang^3
#
#
#
# Elastic Constant Matrix: (Units=GPa)
#
#
# Indices 1 2 3 4 5 6 
#
# 1 106.1340 141.9205 56.6347 0.0000 0.0000 0.0000
# 2 141.9205 106.1340 56.6347 0.0000 0.0000 0.0000
# 3 56.6347 56.6347 99.8229 0.0000 0.0000 0.0000
# 4 0.0000 0.0000 0.0000 53.2052 0.0000 0.0000
# 5 0.0000 0.0000 0.0000 0.0000 53.2052 0.0000
# 6 0.0000 0.0000 0.0000 0.0000 0.0000 -17.8933
#
#
#
# Elastic Compliance Matrix: (Units=1/GPa)
#
#
# Indices 1 2 3 4 5 6 
#
# 1 -0.011251 0.016692 -0.003087 0.000000 0.000000 0.000000
# 2 0.016692 -0.011251 -0.003087 0.000000 0.000000 0.000000
# 3 -0.003087 -0.003087 0.013521 0.000000 0.000000 0.000000
# 4 0.000000 0.000000 0.000000 0.018795 0.000000 0.000000
# 5 0.000000 0.000000 0.000000 0.000000 0.018795 0.000000
# 6 0.000000 0.000000 0.000000 0.000000 0.000000 -0.055887
#
#
# Mechanical properties :
#
#
# Convention : Reuss Voigt Hill
#
# Bulk Modulus (GPa) = 82.95543 91.38566 87.17054
# Shear Modulus (GPa) = -112.87414 21.49681 -45.68866
#
# Velocity S-wave (km/s) = -6.95023 3.03312 -4.42187
# Velocity P-wave (km/s) = 5.37642 7.16769 3.35186
#
# Compressibility (1/GPa) = 0.01205467
#
# Stress axis : x y z
#
# Youngs Moduli (GPa) = -88.87892 -88.87892 73.96176
#
# Poissons Ratio (x) = 1.48359 0.22832
# Poissons Ratio (y) = 1.48359 0.22832
# Poissons Ratio (z) = -0.27436 -0.27436
#
# Static dielectric constant tensor:
#      x y z
#    x 1.993110 0.000000 0.000000 
#    y 0.000000 1.993110 0.000000 
#    z 0.000000 0.000000 1.927120 
# 
# From -- ./inp_files/414.got.cif
#   From: 2010.05.17/outbox.cif.g08.bks.cpg/sg169_cif.got.tgz:414.got - 2010.05.20 11:12:54.
