data_PCOD9580285
_publ_section_title
;
Structure prediction by ZEFSAII (Michael W. Deem and Ramdas Pophale) SiO2 
 PCOD9580285
Probable space group: P 65
;
_chemical_formula_sum "Si O2"
_cell_formula_units_Z 36
_cell_length_a 16.110079
_cell_length_b 16.110079
_cell_length_c 8.028844
_cell_angle_alpha 90.000000
_cell_angle_beta 90.000000
_cell_angle_gamma 120.000000
_cell_volume 1804.591850
_symmetry_space_group_name_H-M "P 65"
_symmetry_group_IT_number 170
_symmetry_cell_setting 'hexagonal'
loop_
_space_group_symop_operation_xyz
x,y,z
x-y,x,5/6+z
-y,x-y,2/3+z
-x,-y,1/2+z
-x+y,-x,1/3+z
y,-x+y,1/6+z
loop_
_atom_site_type_symbol
_atom_site_label
_atom_site_fract_x
_atom_site_fract_y
_atom_site_fract_z
Si Si1 0.208028 0.103078 0.130540
Si Si2 1.000000 0.304217 0.643548
Si Si3 0.570504 0.614726 0.995846
Si Si4 0.570504 0.955777 0.791251
Si Si5 0.178989 0.357978 0.226882
Si Si6 0.791972 0.895050 0.156557
O O1 0.282638 0.178942 0.260831
O O2 0.140419 0.998532 0.215685
O O3 0.279357 0.082725 0.019421
O O4 0.986471 0.353007 0.478022
O O5 0.082725 0.279356 0.601009
O O6 0.013529 0.366536 0.809075
O O7 0.589020 0.589020 0.810215
O O8 0.579145 0.717871 0.973456
O O9 0.469227 0.530773 0.060215
O O10 0.579145 0.861274 0.813641
O O11 0.178943 0.282638 0.359599
O O12 0.858113 0.998532 0.238078
#
# Coordination Sequence:
#
# PCOD9580285 Si02
#       6
#     6   6   6   6   6   6
#     4  11  22  40  58  94 144 194 234 271 319 386
#     4  10  22  40  62  94 126 168 226 276 318 378
#     4  11  22  42  72  96 124 167 218 275 338 404
#     4  11  22  42  72  96 124 167 218 275 338 404
#     4  10  22  40  64  94 134 170 226 286 342 404
#     4  11  22  40  58  94 144 194 234 271 319 386
#
# _framework density 19.949110000000001
#
# number of rings (size 3 to 8) (size 9 to 14) (size 15 to 20)
#    0.000    1.333    1.667    6.000    0.000    2.667 
#   24.000    0.000    3.667    0.000    0.000    0.000 
#    0.000    0.000    0.000    0.000    0.000    0.000 
#
# Total GULP energy -200633.232797 kJ/mol
# GULP energy per Si atom -5573.145355 kJ/mol
# Density = 1.990371 g / cm^3
# Si number density = 19.949110 Si / 1000 Ang^3
#
#
#
# Elastic Constant Matrix: (Units=GPa)
#
#
# Indices 1 2 3 4 5 6 
#
# 1 132.2475 68.0954 65.8980 0.0000 0.0000 0.0000
# 2 68.0954 132.2475 65.8980 0.0000 0.0000 0.0000
# 3 65.8980 65.8980 143.0569 0.0000 0.0000 0.0000
# 4 0.0000 0.0000 0.0000 47.1632 0.0000 0.0000
# 5 0.0000 0.0000 0.0000 0.0000 47.1632 0.0000
# 6 0.0000 0.0000 0.0000 0.0000 0.0000 32.0761
#
#
#
# Elastic Compliance Matrix: (Units=1/GPa)
#
#
# Indices 1 2 3 4 5 6 
#
# 1 0.011375 -0.004213 -0.003299 0.000000 0.000000 0.000000
# 2 -0.004213 0.011375 -0.003299 0.000000 0.000000 0.000000
# 3 -0.003299 -0.003299 0.010030 0.000000 0.000000 0.000000
# 4 0.000000 0.000000 0.000000 0.021203 0.000000 0.000000
# 5 0.000000 0.000000 0.000000 0.000000 0.021203 0.000000
# 6 0.000000 0.000000 0.000000 0.000000 0.000000 0.031176
#
#
# Mechanical properties :
#
#
# Convention : Reuss Voigt Hill
#
# Bulk Modulus (GPa) = 89.62991 89.70387 89.66689
# Shear Modulus (GPa) = 37.96447 39.12454 38.54451
#
# Velocity S-wave (km/s) = 4.36715 4.43337 4.40038
# Velocity P-wave (km/s) = 8.39381 8.44217 8.41803
#
# Compressibility (1/GPa) = 0.01115699
#
# Stress axis : x y z
#
# Youngs Moduli (GPa) = 87.91353 87.91353 99.70570
#
# Poissons Ratio (x) = 0.37039 0.32893
# Poissons Ratio (y) = 0.37039 0.32893
# Poissons Ratio (z) = 0.29002 0.29002
#
# Static dielectric constant tensor:
#      x y z
#    x 1.686580 0.000000 0.000000 
#    y 0.000000 1.686580 0.000000 
#    z 0.000000 0.000000 1.948390 
# 
# From -- ./inp_files/620.got.cif
#   From: 2010.05.17/outbox.cif.g08.bks.cpg/sg170_cif.got.tgz:620.got - 2010.05.20 11:14:30.
