data_PCOD9580683
_publ_section_title
;
Structure prediction by ZEFSAII (Michael W. Deem and Ramdas Pophale) SiO2 
 PCOD9580683
Probable space group: P 62
;
_chemical_formula_sum "Si O2"
_cell_formula_units_Z 27
_cell_length_a 9.075293
_cell_length_b 9.075293
_cell_length_c 18.240277
_cell_angle_alpha 90.000000
_cell_angle_beta 90.000000
_cell_angle_gamma 120.000000
_cell_volume 1301.018199
_symmetry_space_group_name_H-M "P 62"
_symmetry_group_IT_number 171
_symmetry_cell_setting 'hexagonal'
loop_
_space_group_symop_operation_xyz
x,y,z
x-y,x,1/3+z
-y,x-y,2/3+z
-x,-y,z
-x+y,-x,1/3+z
y,-x+y,2/3+z
loop_
_atom_site_type_symbol
_atom_site_label
_atom_site_fract_x
_atom_site_fract_y
_atom_site_fract_z
Si Si1 0.746999 0.236880 0.849040
Si Si2 0.500000 0.500000 0.633364
Si Si3 0.375114 0.154514 0.876047
Si Si4 0.755104 0.782341 0.737986
Si Si5 0.291038 0.112070 0.042127
O O1 0.857375 0.365973 0.912142
O O2 0.564883 0.224171 0.846703
O O3 0.833377 0.270049 0.769580
O O4 0.718071 0.050059 0.867935
O O5 0.598284 0.660183 0.687106
O O6 0.287192 0.233329 0.824848
O O7 0.370130 0.176658 0.962459
O O8 0.910966 0.752854 0.717613
O O9 0.807617 0.977135 0.722185
#
# Coordination Sequence:
#
# PCOD9580683 Si02
#       5
#     6   3   6   6   6
#     4  10  24  40  67  96 135 177 221 273 348 396
#     4  12  24  42  62 108 132 172 230 292 332 410
#     4  10  22  45  64  94 136 178 222 273 337 410
#     4  10  24  40  69  99 131 176 234 270 335 409
#     4  10  22  44  70  92 133 185 221 276 332 414
#
# _framework density 20.752977000000001
#
# number of rings (size 3 to 8) (size 9 to 14) (size 15 to 20)
#    0.000    1.778    2.222    0.000    6.222    5.333 
#    0.000    0.000    0.000    0.000    0.000    0.000 
#    0.000    0.000    0.000    0.000    0.000    0.000 
#
# Total GULP energy -150786.022963 kJ/mol
# GULP energy per Si atom -5584.667517 kJ/mol
# Density = 2.070574 g / cm^3
# Si number density = 20.752977 Si / 1000 Ang^3
#
#
#
# Elastic Constant Matrix: (Units=GPa)
#
#
# Indices 1 2 3 4 5 6 
#
# 1 47.8913 50.0631 44.4080 0.0000 0.0000 0.0000
# 2 50.0631 47.8913 44.4080 0.0000 0.0000 0.0000
# 3 44.4080 44.4080 174.7647 0.0000 0.0000 0.0000
# 4 0.0000 0.0000 0.0000 35.8904 0.0000 0.0000
# 5 0.0000 0.0000 0.0000 0.0000 35.8904 0.0000
# 6 0.0000 0.0000 0.0000 0.0000 0.0000 -1.0859
#
#
#
# Elastic Compliance Matrix: (Units=1/GPa)
#
#
# Indices 1 2 3 4 5 6 
#
# 1 -0.223597 0.236862 -0.003371 0.000000 0.000000 0.000000
# 2 0.236862 -0.223597 -0.003371 0.000000 0.000000 0.000000
# 3 -0.003371 -0.003371 0.007435 0.000000 0.000000 0.000000
# 4 0.000000 0.000000 0.000000 0.027863 0.000000 0.000000
# 5 0.000000 0.000000 0.000000 0.000000 0.027863 0.000000
# 6 0.000000 0.000000 0.000000 0.000000 0.000000 -0.920918
#
#
# Mechanical properties :
#
#
# Convention : Reuss Voigt Hill
#
# Bulk Modulus (GPa) = 48.82248 60.92285 54.87266
# Shear Modulus (GPa) = -2.84355 22.91688 10.03667
#
# Velocity S-wave (km/s) = -1.17182 3.32666 2.20153
# Velocity P-wave (km/s) = 4.66323 6.64646 5.74113
#
# Compressibility (1/GPa) = 0.02048237
#
# Stress axis : x y z
#
# Youngs Moduli (GPa) = -4.47233 -4.47233 134.49967
#
# Poissons Ratio (x) = 1.05933 0.45335
# Poissons Ratio (y) = 1.05933 0.45335
# Poissons Ratio (z) = -0.01507 -0.01507
#
# Static dielectric constant tensor:
#      x y z
#    x 1.735110 0.000000 0.000000 
#    y 0.000000 1.735110 0.000000 
#    z 0.000000 0.000000 1.752960 
# 
# From -- ./inp_files/3807.got.cif
#   From: 2010.05.17/outbox.cif.g08.bks.cpg/sg171_2_cif.got.tgz:3807.got - 2010.05.20 11:16:09.
