data_PCOD9580348
_publ_section_title
;
Structure prediction by ZEFSAII (Michael W. Deem and Ramdas Pophale) SiO2 
 PCOD9580348
Probable space group: P 65
;
_chemical_formula_sum "Si O2"
_cell_formula_units_Z 42
_cell_length_a 8.838514
_cell_length_b 8.838514
_cell_length_c 29.191676
_cell_angle_alpha 90.000000
_cell_angle_beta 90.000000
_cell_angle_gamma 120.000000
_cell_volume 1974.913917
_symmetry_space_group_name_H-M "P 65"
_symmetry_group_IT_number 170
_symmetry_cell_setting 'hexagonal'
loop_
_space_group_symop_operation_xyz
x,y,z
x-y,x,5/6+z
-y,x-y,2/3+z
-x,-y,1/2+z
-x+y,-x,1/3+z
y,-x+y,1/6+z
loop_
_atom_site_type_symbol
_atom_site_label
_atom_site_fract_x
_atom_site_fract_y
_atom_site_fract_z
Si Si1 0.384969 0.852079 0.539250
Si Si2 0.257509 0.022126 0.149631
Si Si3 0.246656 0.357757 0.127791
Si Si4 0.239247 0.948272 0.041104
Si Si5 0.195624 0.122567 0.426604
Si Si6 0.876561 0.784848 0.026901
Si Si7 0.924188 0.476023 0.384735
O O1 0.264087 0.776795 0.494540
O O2 0.268765 0.886649 0.574705
O O3 0.440991 0.714012 0.556203
O O4 0.571682 0.026219 0.529541
O O5 0.241838 0.982089 0.095571
O O6 0.415448 0.010206 0.172888
O O7 0.091869 0.869104 0.176604
O O8 0.268022 0.208213 0.154442
O O9 0.408547 0.449638 0.093459
O O10 0.065148 0.245339 0.100335
O O11 0.054996 0.777108 0.030729
O O12 0.157166 0.179591 0.475346
O O13 0.047896 0.104097 0.391516
O O14 0.709541 0.616363 0.045940
#
# Coordination Sequence:
#
# PCOD9580348 Si02
#       7
#     6   6   6   6   6   6   6
#     4  11  24  45  68 106 143 187 246 301 369 451
#     4  11  19  45  75  96 138 193 239 296 375 441
#     4  12  22  45  73 101 142 198 241 301 377 446
#     4  11  21  42  72 102 138 190 242 297 367 446
#     4  12  23  47  72 103 137 191 249 296 366 457
#     4  12  24  43  73 101 141 188 245 298 368 442
#     4  11  27  43  69 107 149 185 236 317 370 449
#
# _framework density 21.266749000000001
#
# number of rings (size 3 to 8) (size 9 to 14) (size 15 to 20)
#    0.000    0.571    7.143    1.714    2.000    0.000 
#    7.714    1.429    0.000    0.000    0.000    0.000 
#    0.000    0.000    0.000    0.000    0.000    0.000 
#
# Total GULP energy -234789.945295 kJ/mol
# GULP energy per Si atom -5590.236793 kJ/mol
# Density = 2.121834 g / cm^3
# Si number density = 21.266749 Si / 1000 Ang^3
#
#
#
# Elastic Constant Matrix: (Units=GPa)
#
#
# Indices 1 2 3 4 5 6 
#
# 1 115.7814 41.3574 38.8767 0.0000 0.0000 0.0000
# 2 41.3574 115.7814 38.8767 0.0000 0.0000 0.0000
# 3 38.8767 38.8767 117.6288 0.0000 0.0000 0.0000
# 4 0.0000 0.0000 0.0000 20.7390 0.0000 0.0000
# 5 0.0000 0.0000 0.0000 0.0000 20.7390 0.0000
# 6 0.0000 0.0000 0.0000 0.0000 0.0000 37.2120
#
#
#
# Elastic Compliance Matrix: (Units=1/GPa)
#
#
# Indices 1 2 3 4 5 6 
#
# 1 0.010522 -0.002914 -0.002514 0.000000 0.000000 0.000000
# 2 -0.002914 0.010522 -0.002514 0.000000 0.000000 0.000000
# 3 -0.002514 -0.002514 0.010163 0.000000 0.000000 0.000000
# 4 0.000000 0.000000 0.000000 0.048218 0.000000 0.000000
# 5 0.000000 0.000000 0.000000 0.000000 0.048218 0.000000
# 6 0.000000 0.000000 0.000000 0.000000 0.000000 0.026873
#
#
# Mechanical properties :
#
#
# Convention : Reuss Voigt Hill
#
# Bulk Modulus (GPa) = 65.26775 65.26812 65.26793
# Shear Modulus (GPa) = 28.48819 31.07670 29.78245
#
# Velocity S-wave (km/s) = 3.66398 3.82682 3.74628
# Velocity P-wave (km/s) = 6.97541 7.09104 7.03346
#
# Compressibility (1/GPa) = 0.01532150
#
# Stress axis : x y z
#
# Youngs Moduli (GPa) = 95.03669 95.03669 98.39230
#
# Poissons Ratio (x) = 0.27696 0.24740
# Poissons Ratio (y) = 0.27696 0.24740
# Poissons Ratio (z) = 0.23897 0.23897
#
# Static dielectric constant tensor:
#      x y z
#    x 1.809640 0.000000 0.000000 
#    y 0.000000 1.809640 0.000000 
#    z 0.000000 0.000000 1.761770 
# 
# From -- ./inp_files/1910.got.cif
#   From: 2010.05.17/outbox.cif.g08.bks.cpg/sg170_cif.got.tgz:1910.got - 2010.05.20 11:14:30.
