data_PCOD9580441
_publ_section_title
;
Structure prediction by ZEFSAII (Michael W. Deem and Ramdas Pophale) SiO2 
 PCOD9580441
Probable space group: P 62
;
_chemical_formula_sum "Si O2"
_cell_formula_units_Z 42
_cell_length_a 10.300790
_cell_length_b 10.300790
_cell_length_c 19.653565
_cell_angle_alpha 90.000000
_cell_angle_beta 90.000000
_cell_angle_gamma 120.000000
_cell_volume 1805.980422
_symmetry_space_group_name_H-M "P 62"
_symmetry_group_IT_number 171
_symmetry_cell_setting 'hexagonal'
loop_
_space_group_symop_operation_xyz
x,y,z
x-y,x,1/3+z
-y,x-y,2/3+z
-x,-y,z
-x+y,-x,1/3+z
y,-x+y,2/3+z
loop_
_atom_site_type_symbol
_atom_site_label
_atom_site_fract_x
_atom_site_fract_y
_atom_site_fract_z
Si Si1 0.772101 0.706085 0.202020
Si Si2 0.000000 0.500000 0.771961
Si Si3 0.702581 0.141413 0.982356
Si Si4 0.504349 0.810914 0.743138
Si Si5 0.255871 0.276640 0.725250
Si Si6 0.000000 0.000000 0.118581
Si Si7 0.711169 0.484734 0.826626
Si Si8 0.679037 0.209327 0.620333
O O1 0.656638 0.717180 0.250855
O O2 0.679882 0.591958 0.140990
O O3 0.882952 0.864850 0.166856
O O4 0.844099 0.628545 0.250051
O O5 0.970709 0.598498 0.714191
O O6 0.864862 0.477989 0.821102
O O7 0.602372 0.214894 0.965236
O O8 0.869309 0.262581 0.003974
O O9 0.633872 0.786420 0.709140
O O10 0.393433 0.650748 0.776497
O O11 0.403959 0.846879 0.692608
O O12 0.285938 0.368673 0.796025
O O13 0.087055 0.141302 0.735340
O O14 0.636288 0.446180 0.899853
#
# Coordination Sequence:
#
# PCOD9580441 Si02
#       8
#     6   3   6   6   6   3   6   6
#     4  10  22  41  66  94 139 181 231 283 354 426
#     4  10  18  36  54  94 134 166 208 280 356 406
#     4  11  20  37  65  94 131 178 224 292 354 421
#     4  10  20  40  64  97 132 175 232 300 352 408
#     4  10  22  39  64  91 131 177 231 292 349 423
#     4  10  24  44  62  92 136 194 226 284 342 428
#     4  10  21  34  61  94 131 168 229 287 351 414
#     4  11  21  38  67  99 126 176 228 301 359 411
#
# _framework density 23.256065
#
# number of rings (size 3 to 8) (size 9 to 14) (size 15 to 20)
#    0.000    1.714    4.286    0.429    0.000    5.143 
#    0.000    5.714    0.000   12.000    0.000    0.000 
#    0.000    0.000    0.000    0.000    0.000    0.000 
#
# Total GULP energy -234184.752257 kJ/mol
# GULP energy per Si atom -5575.827435 kJ/mol
# Density = 2.320313 g / cm^3
# Si number density = 23.256065 Si / 1000 Ang^3
#
#
#
# Elastic Constant Matrix: (Units=GPa)
#
#
# Indices 1 2 3 4 5 6 
#
# 1 48.0603 6.4705 -12.9060 0.0000 0.0000 0.0000
# 2 6.4705 48.0603 -12.9060 0.0000 0.0000 0.0000
# 3 -12.9060 -12.9060 52.8041 0.0000 0.0000 0.0000
# 4 0.0000 0.0000 0.0000 23.1848 0.0000 0.0000
# 5 0.0000 0.0000 0.0000 0.0000 23.1848 0.0000
# 6 0.0000 0.0000 0.0000 0.0000 0.0000 20.7949
#
#
#
# Elastic Compliance Matrix: (Units=1/GPa)
#
#
# Indices 1 2 3 4 5 6 
#
# 1 0.022391 -0.001653 0.005068 0.000000 0.000000 0.000000
# 2 -0.001653 0.022391 0.005068 0.000000 0.000000 0.000000
# 3 0.005068 0.005068 0.021416 0.000000 0.000000 0.000000
# 4 0.000000 0.000000 0.000000 0.043132 0.000000 0.000000
# 5 0.000000 0.000000 0.000000 0.000000 0.043132 0.000000
# 6 0.000000 0.000000 0.000000 0.000000 0.000000 0.048089
#
#
# Mechanical properties :
#
#
# Convention : Reuss Voigt Hill
#
# Bulk Modulus (GPa) = 12.02440 12.24909 12.13674
# Shear Modulus (GPa) = 23.66262 24.65066 24.15664
#
# Velocity S-wave (km/s) = 3.19326 3.25925 3.22642
# Velocity P-wave (km/s) = 4.33331 4.40931 4.37148
#
# Compressibility (1/GPa) = 0.08316424
#
# Stress axis : x y z
#
# Youngs Moduli (GPa) = 44.66106 44.66106 46.69511
#
# Poissons Ratio (x) = 0.07385 -0.23667
# Poissons Ratio (y) = 0.07385 -0.23667
# Poissons Ratio (z) = -0.22636 -0.22636
#
# Static dielectric constant tensor:
#      x y z
#    x 1.936630 0.000000 0.000000 
#    y 0.000000 1.936630 0.000000 
#    z 0.000000 0.000000 1.881630 
# 
# From -- ./inp_files/4005.got.cif
#   From: 2010.05.17/outbox.cif.g08.bks.cpg/sg171_3_cif.got.tgz:4005.got - 2010.05.20 11:16:09.
