data_PCOD9580612
_publ_section_title
;
Structure prediction by ZEFSAII (Michael W. Deem and Ramdas Pophale) SiO2 
 PCOD9580612
Probable space group: P 62
;
_chemical_formula_sum "Si O2"
_cell_formula_units_Z 33
_cell_length_a 11.760179
_cell_length_b 11.760179
_cell_length_c 11.863231
_cell_angle_alpha 90.000000
_cell_angle_beta 90.000000
_cell_angle_gamma 120.000000
_cell_volume 1420.893354
_symmetry_space_group_name_H-M "P 62"
_symmetry_group_IT_number 171
_symmetry_cell_setting 'hexagonal'
loop_
_space_group_symop_operation_xyz
x,y,z
x-y,x,1/3+z
-y,x-y,2/3+z
-x,-y,z
-x+y,-x,1/3+z
y,-x+y,2/3+z
loop_
_atom_site_type_symbol
_atom_site_label
_atom_site_fract_x
_atom_site_fract_y
_atom_site_fract_z
Si Si1 0.958539 0.597488 0.096670
Si Si2 0.066451 0.654744 0.697735
Si Si3 0.000000 0.000000 0.280647
Si Si4 0.867527 0.103873 0.117123
Si Si5 0.486825 0.337815 0.012809
Si Si6 0.285268 0.385968 0.103849
O O1 0.885332 0.520339 0.213386
O O2 0.847194 0.628842 0.052278
O O3 0.000000 0.500000 0.038455
O O4 0.084555 0.741924 0.109522
O O5 0.219682 0.715039 0.722716
O O6 0.079413 0.713546 0.570964
O O7 0.000000 0.500000 0.688894
O O8 0.986231 0.696147 0.781938
O O9 0.132920 0.089974 0.347915
O O10 0.957440 0.089313 0.211074
O O11 0.339955 0.297761 0.052080
O O12 0.599715 0.468134 0.070759
#
# Coordination Sequence:
#
# PCOD9580612 Si02
#       6
#     6   6   3   6   6   6
#     4  11  24  40  66 103 136 177 230 297 344 419
#     4  11  24  40  66 103 136 177 230 297 344 419
#     4  10  24  46  70  98 132 186 224 306 344 438
#     4  11  26  42  70 100 139 176 240 286 365 414
#     4  10  21  42  71  93 135 187 233 272 352 434
#     4  10  21  42  71  93 135 187 233 272 352 434
#
# _framework density 23.224826
#
# number of rings (size 3 to 8) (size 9 to 14) (size 15 to 20)
#    0.000    1.455    3.636    2.182   12.727    0.000 
#    0.000    0.909    0.000    0.000    0.000    0.000 
#    0.000    0.000    0.000    0.000    0.000    0.000 
#
# Total GULP energy -184061.144268 kJ/mol
# GULP energy per Si atom -5577.610432 kJ/mol
# Density = 2.317197 g / cm^3
# Si number density = 23.224826 Si / 1000 Ang^3
#
#
#
# Elastic Constant Matrix: (Units=GPa)
#
#
# Indices 1 2 3 4 5 6 
#
# 1 107.7885 25.9482 4.5750 0.0000 0.0000 0.0000
# 2 25.9482 107.7885 4.5750 0.0000 0.0000 0.0000
# 3 4.5750 4.5750 26.9631 0.0000 0.0000 0.0000
# 4 0.0000 0.0000 0.0000 25.6917 0.0000 0.0000
# 5 0.0000 0.0000 0.0000 0.0000 25.6917 0.0000
# 6 0.0000 0.0000 0.0000 0.0000 0.0000 40.9202
#
#
#
# Elastic Compliance Matrix: (Units=1/GPa)
#
#
# Indices 1 2 3 4 5 6 
#
# 1 0.009892 -0.002327 -0.001284 0.000000 0.000000 0.000000
# 2 -0.002327 0.009892 -0.001284 0.000000 0.000000 0.000000
# 3 -0.001284 -0.001284 0.037523 0.000000 0.000000 0.000000
# 4 0.000000 0.000000 0.000000 0.038923 0.000000 0.000000
# 5 0.000000 0.000000 0.000000 0.000000 0.038923 0.000000
# 6 0.000000 0.000000 0.000000 0.000000 0.000000 0.024438
#
#
# Mechanical properties :
#
#
# Convention : Reuss Voigt Hill
#
# Bulk Modulus (GPa) = 21.04415 34.74851 27.89633
# Shear Modulus (GPa) = 26.99503 32.29019 29.64261
#
# Velocity S-wave (km/s) = 3.41300 3.73276 3.57646
# Velocity P-wave (km/s) = 4.96107 5.79416 5.39372
#
# Compressibility (1/GPa) = 0.04751914
#
# Stress axis : x y z
#
# Youngs Moduli (GPa) = 101.09119 101.09119 26.65011
#
# Poissons Ratio (x) = 0.23522 0.03421
# Poissons Ratio (y) = 0.23522 0.03421
# Poissons Ratio (z) = 0.12976 0.12976
#
# Static dielectric constant tensor:
#      x y z
#    x 1.861910 0.000000 0.000000 
#    y 0.000000 1.861910 0.000000 
#    z 0.000000 0.000000 1.977870 
# 
# From -- ./inp_files/4793.got.cif
#   From: 2010.05.17/outbox.cif.g08.bks.cpg/sg171_3_cif.got.tgz:4793.got - 2010.05.20 11:16:09.
