data_PCOD9580620
_publ_section_title
;
Structure prediction by ZEFSAII (Michael W. Deem and Ramdas Pophale) SiO2 
 PCOD9580620
Probable space group: P 62
;
_chemical_formula_sum "Si O2"
_cell_formula_units_Z 42
_cell_length_a 10.114598
_cell_length_b 10.114598
_cell_length_c 19.268531
_cell_angle_alpha 90.000000
_cell_angle_beta 90.000000
_cell_angle_gamma 120.000000
_cell_volume 1707.168902
_symmetry_space_group_name_H-M "P 62"
_symmetry_group_IT_number 171
_symmetry_cell_setting 'hexagonal'
loop_
_space_group_symop_operation_xyz
x,y,z
x-y,x,1/3+z
-y,x-y,2/3+z
-x,-y,z
-x+y,-x,1/3+z
y,-x+y,2/3+z
loop_
_atom_site_type_symbol
_atom_site_label
_atom_site_fract_x
_atom_site_fract_y
_atom_site_fract_z
Si Si1 0.656987 0.785786 0.153750
Si Si2 0.348160 0.687278 0.211367
Si Si3 0.091463 0.671548 0.987074
Si Si4 0.681400 0.594152 0.270021
Si Si5 0.176852 0.086702 0.428237
Si Si6 0.670885 0.034611 0.680668
Si Si7 0.317031 0.160567 0.560081
O O1 0.482702 0.744660 0.156336
O O2 0.701208 0.739483 0.226971
O O3 0.671869 0.681071 0.094987
O O4 0.756093 0.955413 0.125939
O O5 0.436615 0.761723 0.284756
O O6 0.283940 0.509573 0.218288
O O7 0.227054 0.739363 0.197409
O O8 0.107607 0.801766 0.040544
O O9 0.000000 0.500000 0.018148
O O10 0.993828 0.681141 0.922107
O O11 0.500000 0.500000 0.288085
O O12 0.798336 0.614247 0.330412
O O13 0.202861 0.034954 0.504417
O O14 0.000000 0.000000 0.403652
O O15 0.500000 0.000000 0.664767
O O16 0.698867 0.924956 0.631873
#
# Coordination Sequence:
#
# PCOD9580620 Si02
#       7
#     6   6   6   6   6   6   6
#     4  11  25  43  70 104 145 185 245 310 373 443
#     4  10  21  47  70  98 142 191 239 311 373 430
#     4  10  24  47  72 101 144 192 250 309 373 448
#     4  10  23  44  69 103 146 187 238 311 374 435
#     4  12  26  44  70 106 142 197 241 306 382 453
#     4  12  24  43  70 106 141 192 247 300 371 450
#     4  11  24  45  72 101 144 190 247 307 367 452
#
# _framework density 24.602135000000001
#
# number of rings (size 3 to 8) (size 9 to 14) (size 15 to 20)
#    0.000    1.143    2.857    3.000    4.000    3.429 
#    7.714    0.000    0.000    0.000    0.000    0.000 
#    0.000    0.000    0.000    0.000    0.000    0.000 
#
# Total GULP energy -234362.014374 kJ/mol
# GULP energy per Si atom -5580.047961 kJ/mol
# Density = 2.454614 g / cm^3
# Si number density = 24.602135 Si / 1000 Ang^3
#
#
#
# Elastic Constant Matrix: (Units=GPa)
#
#
# Indices 1 2 3 4 5 6 
#
# 1 93.8662 17.5285 25.4857 0.0000 0.0000 0.0000
# 2 17.5285 93.8662 25.4857 0.0000 0.0000 0.0000
# 3 25.4857 25.4857 93.7367 0.0000 0.0000 0.0000
# 4 0.0000 0.0000 0.0000 16.1114 0.0000 0.0000
# 5 0.0000 0.0000 0.0000 0.0000 16.1114 0.0000
# 6 0.0000 0.0000 0.0000 0.0000 0.0000 38.1689
#
#
#
# Elastic Compliance Matrix: (Units=1/GPa)
#
#
# Indices 1 2 3 4 5 6 
#
# 1 0.011676 -0.001424 -0.002788 0.000000 0.000000 0.000000
# 2 -0.001424 0.011676 -0.002788 0.000000 0.000000 0.000000
# 3 -0.002788 -0.002788 0.012184 0.000000 0.000000 0.000000
# 4 0.000000 0.000000 0.000000 0.062068 0.000000 0.000000
# 5 0.000000 0.000000 0.000000 0.000000 0.062068 0.000000
# 6 0.000000 0.000000 0.000000 0.000000 0.000000 0.026199
#
#
# Mechanical properties :
#
#
# Convention : Reuss Voigt Hill
#
# Bulk Modulus (GPa) = 46.42742 46.49656 46.46199
# Shear Modulus (GPa) = 24.14896 28.27628 26.21262
#
# Velocity S-wave (km/s) = 3.13642 3.39387 3.26768
# Velocity P-wave (km/s) = 5.65936 5.85647 5.75876
#
# Compressibility (1/GPa) = 0.02153900
#
# Stress axis : x y z
#
# Youngs Moduli (GPa) = 85.64476 85.64476 82.07512
#
# Poissons Ratio (x) = 0.12192 0.22879
# Poissons Ratio (y) = 0.12192 0.22879
# Poissons Ratio (z) = 0.23874 0.23874
#
# Static dielectric constant tensor:
#      x y z
#    x 2.097080 0.000000 0.000000 
#    y 0.000000 2.097080 0.000000 
#    z 0.000000 0.000000 2.086780 
# 
# From -- ./inp_files/3980.got.cif
#   From: 2010.05.17/outbox.cif.g08.bks.cpg/sg171_2_cif.got.tgz:3980.got - 2010.05.20 11:16:09.
