data_PCOD9580265
_publ_section_title
;
Structure prediction by ZEFSAII (Michael W. Deem and Ramdas Pophale) SiO2 
 PCOD9580265
Probable space group: P 65
;
_chemical_formula_sum "Si O2"
_cell_formula_units_Z 36
_cell_length_a 14.320553
_cell_length_b 14.320553
_cell_length_c 8.755986
_cell_angle_alpha 90.000000
_cell_angle_beta 90.000000
_cell_angle_gamma 120.000000
_cell_volume 1555.089067
_symmetry_space_group_name_H-M "P 65"
_symmetry_group_IT_number 170
_symmetry_cell_setting 'hexagonal'
loop_
_space_group_symop_operation_xyz
x,y,z
x-y,x,5/6+z
-y,x-y,2/3+z
-x,-y,1/2+z
-x+y,-x,1/3+z
y,-x+y,1/6+z
loop_
_atom_site_type_symbol
_atom_site_label
_atom_site_fract_x
_atom_site_fract_y
_atom_site_fract_z
Si Si1 0.723087 0.543137 0.530930
Si Si2 0.019038 0.602716 0.112209
Si Si3 0.967963 0.687991 0.844019
Si Si4 0.531942 0.402838 0.046691
Si Si5 0.533115 0.813441 0.027969
Si Si6 0.878839 0.787406 0.616846
O O1 0.647960 0.525009 0.387586
O O2 0.812269 0.514671 0.479700
O O3 0.675636 0.489346 0.693044
O O4 0.782928 0.670400 0.569980
O O5 0.921641 0.537653 0.227787
O O6 0.036162 0.533852 0.981471
O O7 0.010509 0.694946 0.016553
O O8 0.848328 0.581558 0.852847
O O9 0.937654 0.770929 0.765865
O O10 0.064168 0.693625 0.738981
O O11 0.653927 0.445903 0.990197
O O12 0.833105 0.864642 0.654646
#
# Coordination Sequence:
#
# PCOD9580265 Si02
#       6
#     6   6   6   6   6   6
#     4  11  24  46  72  99 139 188 237 292 359 434
#     4  11  26  43  69 101 138 180 234 289 350 430
#     4  10  21  41  75  93 136 183 233 281 354 427
#     4  11  26  44  70 101 139 181 234 293 359 419
#     4  10  23  45  70 100 138 185 236 288 362 430
#     4  11  22  43  70 102 144 191 236 291 358 418
#
# _framework density 23.149801
#
# number of rings (size 3 to 8) (size 9 to 14) (size 15 to 20)
#    0.000    1.333    3.333    2.000   16.333    0.000 
#    6.000    0.000    0.000    0.000    0.000    0.000 
#    0.000    0.000    0.000    0.000    0.000    0.000 
#
# Total GULP energy -201109.121137 kJ/mol
# GULP energy per Si atom -5586.364476 kJ/mol
# Density = 2.309711 g / cm^3
# Si number density = 23.149801 Si / 1000 Ang^3
#
#
#
# Elastic Constant Matrix: (Units=GPa)
#
#
# Indices 1 2 3 4 5 6 
#
# 1 42.4011 -1.9080 17.0215 0.0000 0.0000 0.0000
# 2 -1.9080 42.4011 17.0215 0.0000 0.0000 0.0000
# 3 17.0215 17.0215 126.3844 0.0000 0.0000 0.0000
# 4 0.0000 0.0000 0.0000 38.3995 0.0000 0.0000
# 5 0.0000 0.0000 0.0000 0.0000 38.3995 0.0000
# 6 0.0000 0.0000 0.0000 0.0000 0.0000 22.1546
#
#
#
# Elastic Compliance Matrix: (Units=1/GPa)
#
#
# Indices 1 2 3 4 5 6 
#
# 1 0.025209 0.002640 -0.003751 0.000000 0.000000 0.000000
# 2 0.002640 0.025209 -0.003751 0.000000 0.000000 0.000000
# 3 -0.003751 -0.003751 0.008923 0.000000 0.000000 0.000000
# 4 0.000000 0.000000 0.000000 0.026042 0.000000 0.000000
# 5 0.000000 0.000000 0.000000 0.000000 0.026042 0.000000
# 6 0.000000 0.000000 0.000000 0.000000 0.000000 0.045137
#
#
# Mechanical properties :
#
#
# Convention : Reuss Voigt Hill
#
# Bulk Modulus (GPa) = 20.15416 30.60626 25.38021
# Shear Modulus (GPa) = 27.34879 31.72748 29.53814
#
# Velocity S-wave (km/s) = 3.44085 3.70608 3.57593
# Velocity P-wave (km/s) = 4.95084 5.61810 5.29499
#
# Compressibility (1/GPa) = 0.04961755
#
# Stress axis : x y z
#
# Youngs Moduli (GPa) = 39.66876 39.66876 112.07426
#
# Poissons Ratio (x) = -0.10473 0.42035
# Poissons Ratio (y) = -0.10473 0.42035
# Poissons Ratio (z) = 0.14878 0.14878
#
# Static dielectric constant tensor:
#      x y z
#    x 1.891300 0.000000 0.000000 
#    y 0.000000 1.891300 0.000000 
#    z 0.000000 0.000000 1.866460 
# 
# From -- ./inp_files/623.got.cif
#   From: 2010.05.17/outbox.cif.g08.bks.cpg/sg170_cif.got.tgz:623.got - 2010.05.20 11:14:30.
