data_PCOD9580911
_publ_section_title
;
Structure prediction by ZEFSAII (Michael W. Deem and Ramdas Pophale) SiO2 
 PCOD9580911
Probable space group: P 64
;
_chemical_formula_sum "Si O2"
_cell_formula_units_Z 39
_cell_length_a 8.599377
_cell_length_b 8.599377
_cell_length_c 30.566133
_cell_angle_alpha 90.000000
_cell_angle_beta 90.000000
_cell_angle_gamma 120.000000
_cell_volume 1957.515043
_symmetry_space_group_name_H-M "P 64"
_symmetry_group_IT_number 172
_symmetry_cell_setting 'hexagonal'
loop_
_space_group_symop_operation_xyz
x,y,z
x-y,x,2/3+z
-y,x-y,1/3+z
-x,-y,z
-x+y,-x,2/3+z
y,-x+y,1/3+z
loop_
_atom_site_type_symbol
_atom_site_label
_atom_site_fract_x
_atom_site_fract_y
_atom_site_fract_z
Si Si1 0.987287 0.182513 0.346930
Si Si2 0.765721 0.261013 0.759362
Si Si3 0.332296 0.184497 0.106058
Si Si4 0.305259 0.978782 0.278739
Si Si5 0.000000 0.500000 0.159225
Si Si6 0.054021 0.367861 0.999707
Si Si7 0.914555 0.781708 0.517465
O O1 0.919605 0.193197 0.394113
O O2 0.851407 0.172106 0.309533
O O3 0.192940 0.328970 0.342893
O O4 0.000000 0.000000 0.345585
O O5 0.807116 0.464249 0.763553
O O6 0.606969 0.163194 0.793190
O O7 0.721546 0.171458 0.710892
O O8 0.931048 0.236300 0.776267
O O9 0.268219 0.037013 0.144730
O O10 0.242425 0.956319 0.229165
O O11 0.500000 0.000000 0.283468
O O12 0.324638 0.158717 0.299117
O O13 0.040684 0.694035 0.180066
O O14 0.000000 0.500000 0.978363
O O15 0.000000 0.000000 0.520880
#
# Coordination Sequence:
#
# PCOD9580911 Si02
#       7
#     6   6   6   6   3   6   6
#     4  10  19  39  70  95 130 180 227 279 347 422
#     4  11  22  40  69 106 139 177 233 291 348 427
#     4  11  22  40  71  99 140 187 232 284 363 415
#     4  11  25  47  68  93 137 181 235 290 367 425
#     4  12  26  44  70 102 140 180 244 286 362 436
#     4  11  22  41  68 102 137 178 232 288 350 433
#     4  12  26  48  70  98 141 194 233 303 362 436
#
# _framework density 19.923217999999999
#
# number of rings (size 3 to 8) (size 9 to 14) (size 15 to 20)
#    0.000    0.923    5.385    3.692    2.154    0.000 
#    8.308    1.538    0.000    0.000    0.000    0.000 
#    0.000    0.000    0.000    0.000    0.000    0.000 
#
# Total GULP energy -217153.388602 kJ/mol
# GULP energy per Si atom -5568.035605 kJ/mol
# Density = 1.987787 g / cm^3
# Si number density = 19.923218 Si / 1000 Ang^3
#
#
#
# Elastic Constant Matrix: (Units=GPa)
#
#
# Indices 1 2 3 4 5 6 
#
# 1 81.1489 25.0125 41.5555 0.0000 0.0000 0.0000
# 2 25.0125 81.1489 41.5555 0.0000 0.0000 0.0000
# 3 41.5555 41.5555 133.5367 0.0000 0.0000 0.0000
# 4 0.0000 0.0000 0.0000 21.3224 0.0000 0.0000
# 5 0.0000 0.0000 0.0000 0.0000 21.3224 0.0000
# 6 0.0000 0.0000 0.0000 0.0000 0.0000 28.0682
#
#
#
# Elastic Compliance Matrix: (Units=1/GPa)
#
#
# Indices 1 2 3 4 5 6 
#
# 1 0.015134 -0.002680 -0.003875 0.000000 0.000000 0.000000
# 2 -0.002680 0.015134 -0.003875 0.000000 0.000000 0.000000
# 3 -0.003875 -0.003875 0.009901 0.000000 0.000000 0.000000
# 4 0.000000 0.000000 0.000000 0.046899 0.000000 0.000000
# 5 0.000000 0.000000 0.000000 0.000000 0.046899 0.000000
# 6 0.000000 0.000000 0.000000 0.000000 0.000000 0.035627
#
#
# Mechanical properties :
#
#
# Convention : Reuss Voigt Hill
#
# Bulk Modulus (GPa) = 51.79739 56.89793 54.34766
# Shear Modulus (GPa) = 25.39476 26.65666 26.02571
#
# Velocity S-wave (km/s) = 3.57407 3.66180 3.61820
# Velocity P-wave (km/s) = 6.56406 6.81901 6.69275
#
# Compressibility (1/GPa) = 0.01930599
#
# Stress axis : x y z
#
# Youngs Moduli (GPa) = 66.07781 66.07781 101.00397
#
# Poissons Ratio (x) = 0.17709 0.39144
# Poissons Ratio (y) = 0.17709 0.39144
# Poissons Ratio (z) = 0.25608 0.25608
#
# Static dielectric constant tensor:
#      x y z
#    x 1.755910 0.000000 0.000000 
#    y 0.000000 1.755910 0.000000 
#    z 0.000000 0.000000 1.665740 
# 
# From -- ./inp_files/2858.got.cif
#   From: 2010.05.17/outbox.cif.g08.bks.cpg/sg172_2_cif.got.tgz:2858.got - 2010.05.20 11:19:57.
