data_PCOD9580319
_publ_section_title
;
Structure prediction by ZEFSAII (Michael W. Deem and Ramdas Pophale) SiO2 
 PCOD9580319
Probable space group: P 65
;
_chemical_formula_sum "Si O2"
_cell_formula_units_Z 42
_cell_length_a 20.762642
_cell_length_b 20.762642
_cell_length_c 5.272569
_cell_angle_alpha 90.000000
_cell_angle_beta 90.000000
_cell_angle_gamma 120.000000
_cell_volume 1968.421659
_symmetry_space_group_name_H-M "P 65"
_symmetry_group_IT_number 170
_symmetry_cell_setting 'hexagonal'
loop_
_space_group_symop_operation_xyz
x,y,z
x-y,x,5/6+z
-y,x-y,2/3+z
-x,-y,1/2+z
-x+y,-x,1/3+z
y,-x+y,1/6+z
loop_
_atom_site_type_symbol
_atom_site_label
_atom_site_fract_x
_atom_site_fract_y
_atom_site_fract_z
Si Si1 0.848832 0.521352 0.335190
Si Si2 0.209124 0.437730 0.437568
Si Si3 0.516567 0.036871 0.875723
Si Si4 0.737204 0.701245 0.570723
Si Si5 0.606933 0.924249 0.256529
Si Si6 0.287454 0.583878 0.146037
Si Si7 0.195865 0.873740 0.385254
O O1 0.915405 0.515610 0.449345
O O2 0.775139 0.448156 0.428205
O O3 0.856511 0.599345 0.425423
O O4 0.839906 0.527635 0.037830
O O5 0.259236 0.421980 0.629808
O O6 0.271322 0.505184 0.265577
O O7 0.150211 0.356304 0.333945
O O8 0.464899 0.068074 0.776309
O O9 0.487849 0.967148 0.680283
O O10 0.691305 0.662979 0.315032
O O11 0.733411 0.774327 0.647950
O O12 0.817735 0.709553 0.510495
O O13 0.701471 0.646292 0.814077
O O14 0.273387 0.634307 0.346750
#
# Coordination Sequence:
#
# PCOD9580319 Si02
#       7
#     6   6   6   6   6   6   6
#     4  11  24  41  66  86 129 170 225 276 341 405
#     4  10  24  41  63  92 126 175 226 279 341 400
#     4  12  28  42  62  93 127 174 219 276 341 392
#     4  11  24  43  72  96 137 170 223 271 338 406
#     4  11  24  43  64  94 130 175 226 276 329 397
#     4  11  25  39  59  90 123 176 230 292 347 393
#     4  10  23  43  66 101 130 172 213 274 333 411
#
# _framework density 21.336893
#
# number of rings (size 3 to 8) (size 9 to 14) (size 15 to 20)
#    0.000    1.143    1.429    3.429   14.000    0.000 
#    0.000    0.000    0.000    0.000    0.000    2.000 
#    0.000    0.000    0.000    0.000    0.000    0.000 
#
# Total GULP energy -234020.246529 kJ/mol
# GULP energy per Si atom -5571.910632 kJ/mol
# Density = 2.128833 g / cm^3
# Si number density = 21.336893 Si / 1000 Ang^3
#
#
#
# Elastic Constant Matrix: (Units=GPa)
#
#
# Indices 1 2 3 4 5 6 
#
# 1 105.1329 41.6122 10.7125 0.0000 0.0000 0.0000
# 2 41.6122 105.1329 10.7125 0.0000 0.0000 0.0000
# 3 10.7125 10.7125 51.7320 0.0000 0.0000 0.0000
# 4 0.0000 0.0000 0.0000 16.2647 0.0000 0.0000
# 5 0.0000 0.0000 0.0000 0.0000 16.2647 0.0000
# 6 0.0000 0.0000 0.0000 0.0000 0.0000 31.7603
#
#
#
# Elastic Compliance Matrix: (Units=1/GPa)
#
#
# Indices 1 2 3 4 5 6 
#
# 1 0.011385 -0.004358 -0.001455 0.000000 0.000000 0.000000
# 2 -0.004358 0.011385 -0.001455 0.000000 0.000000 0.000000
# 3 -0.001455 -0.001455 0.019933 0.000000 0.000000 0.000000
# 4 0.000000 0.000000 0.000000 0.061483 0.000000 0.000000
# 5 0.000000 0.000000 0.000000 0.000000 0.061483 0.000000
# 6 0.000000 0.000000 0.000000 0.000000 0.000000 0.031486
#
#
# Mechanical properties :
#
#
# Convention : Reuss Voigt Hill
#
# Bulk Modulus (GPa) = 35.50317 43.11914 39.31115
# Shear Modulus (GPa) = 22.61630 26.12200 24.36915
#
# Velocity S-wave (km/s) = 3.25924 3.50275 3.38318
# Velocity P-wave (km/s) = 5.55328 6.05075 5.80735
#
# Compressibility (1/GPa) = 0.02816650
#
# Stress axis : x y z
#
# Youngs Moduli (GPa) = 87.83530 87.83530 50.16800
#
# Poissons Ratio (x) = 0.38278 0.07300
# Poissons Ratio (y) = 0.38278 0.07300
# Poissons Ratio (z) = 0.12781 0.12781
#
# Static dielectric constant tensor:
#      x y z
#    x 1.794770 0.000000 0.000000 
#    y 0.000000 1.794770 0.000000 
#    z 0.000000 0.000000 2.063620 
# 
# From -- ./inp_files/275.got.cif
#   From: 2010.05.17/outbox.cif.g08.bks.cpg/sg170_cif.got.tgz:275.got - 2010.05.20 11:14:30.
