data_PCOD9580024
_publ_section_title
;
Structure prediction by ZEFSAII (Michael W. Deem and Ramdas Pophale) SiO2 
 PCOD9580024
Probable space group: P 61
;
_chemical_formula_sum "Si O2"
_cell_formula_units_Z 18
_cell_length_a 10.713842
_cell_length_b 10.713842
_cell_length_c 6.893726
_cell_angle_alpha 90.000000
_cell_angle_beta 90.000000
_cell_angle_gamma 120.000000
_cell_volume 685.291152
_symmetry_space_group_name_H-M "P 61"
_symmetry_group_IT_number 169
_symmetry_cell_setting 'hexagonal'
loop_
_space_group_symop_operation_xyz
x,y,z
x-y,x,1/6+z
-y,x-y,1/3+z
-x,-y,1/2+z
-x+y,-x,2/3+z
y,-x+y,5/6+z
loop_
_atom_site_type_symbol
_atom_site_label
_atom_site_fract_x
_atom_site_fract_y
_atom_site_fract_z
Si Si1 0.449008 0.276074 0.991540
Si Si2 0.533324 0.111075 0.703125
Si Si3 0.266870 0.015566 0.280176
O O1 0.529586 0.230462 0.836761
O O2 0.391073 0.369241 0.880934
O O3 0.548001 0.380744 0.167093
O O4 0.329797 0.127393 0.095020
O O5 0.621300 0.040746 0.798569
O O6 0.247896 0.117152 0.428801
#
# Coordination Sequence:
#
# PCOD9580024 Si02
#       3
#     6   6   6
#     4  11  24  51  84 135 179 232 307 382 464 558
#     4  11  24  50  86 135 176 237 295 390 472 554
#     4  10  22  47  82 122 169 223 292 366 462 540
#
# _framework density 26.266206
#
# number of rings (size 3 to 8) (size 9 to 14) (size 15 to 20)
#    0.000    1.333    6.667    0.000    0.000    5.333 
#   12.000    3.333    7.333    0.000    0.000    0.000 
#    0.000    0.000    0.000    0.000    0.000    0.000 
#
# Total GULP energy -100701.111579 kJ/mol
# GULP energy per Si atom -5594.506199 kJ/mol
# Density = 2.620642 g / cm^3
# Si number density = 26.266206 Si / 1000 Ang^3
#
#
#
# Elastic Constant Matrix: (Units=GPa)
#
#
# Indices 1 2 3 4 5 6 
#
# 1 166.8650 84.7352 76.1588 0.0000 0.0000 0.0000
# 2 84.7352 166.8650 76.1588 0.0000 0.0000 0.0000
# 3 76.1588 76.1588 151.9860 0.0000 0.0000 0.0000
# 4 0.0000 0.0000 0.0000 50.5569 0.0000 0.0000
# 5 0.0000 0.0000 0.0000 0.0000 50.5569 0.0000
# 6 0.0000 0.0000 0.0000 0.0000 0.0000 41.0649
#
#
#
# Elastic Compliance Matrix: (Units=1/GPa)
#
#
# Indices 1 2 3 4 5 6 
#
# 1 0.008941 -0.003235 -0.002859 0.000000 0.000000 0.000000
# 2 -0.003235 0.008941 -0.002859 0.000000 0.000000 0.000000
# 3 -0.002859 -0.002859 0.009445 0.000000 0.000000 0.000000
# 4 0.000000 0.000000 0.000000 0.019780 0.000000 0.000000
# 5 0.000000 0.000000 0.000000 0.000000 0.019780 0.000000
# 6 0.000000 0.000000 0.000000 0.000000 0.000000 0.024352
#
#
# Mechanical properties :
#
#
# Convention : Reuss Voigt Hill
#
# Bulk Modulus (GPa) = 106.15963 106.64683 106.40323
# Shear Modulus (GPa) = 44.53037 45.01328 44.77182
#
# Velocity S-wave (km/s) = 4.12193 4.14422 4.13309
# Velocity P-wave (km/s) = 7.94722 7.97432 7.96078
#
# Compressibility (1/GPa) = 0.00941978
#
# Stress axis : x y z
#
# Youngs Moduli (GPa) = 111.84953 111.84953 105.87981
#
# Poissons Ratio (x) = 0.36186 0.30270
# Poissons Ratio (y) = 0.36186 0.30270
# Poissons Ratio (z) = 0.31976 0.31976
#
# Static dielectric constant tensor:
#      x y z
#    x 2.027190 0.000000 0.000000 
#    y 0.000000 2.027190 0.000000 
#    z 0.000000 0.000000 2.241820 
# 
# From -- ./inp_files/445.got.cif
#   From: 2010.05.17/outbox.cif.g08.bks.cpg/sg169_cif.got.tgz:445.got - 2010.05.20 11:12:54.
