data_PCOD9580692
_publ_section_title
;
Structure prediction by ZEFSAII (Michael W. Deem and Ramdas Pophale) SiO2 
 PCOD9580692
Probable space group: P 62
;
_chemical_formula_sum "Si O2"
_cell_formula_units_Z 33
_cell_length_a 11.324096
_cell_length_b 11.324096
_cell_length_c 13.850649
_cell_angle_alpha 90.000000
_cell_angle_beta 90.000000
_cell_angle_gamma 120.000000
_cell_volume 1538.182408
_symmetry_space_group_name_H-M "P 62"
_symmetry_group_IT_number 171
_symmetry_cell_setting 'hexagonal'
loop_
_space_group_symop_operation_xyz
x,y,z
x-y,x,1/3+z
-y,x-y,2/3+z
-x,-y,z
-x+y,-x,1/3+z
y,-x+y,2/3+z
loop_
_atom_site_type_symbol
_atom_site_label
_atom_site_fract_x
_atom_site_fract_y
_atom_site_fract_z
Si Si1 0.031671 0.885227 0.419330
Si Si2 0.000000 0.500000 0.660875
Si Si3 0.265373 0.109361 0.555831
Si Si4 0.088309 0.735402 0.808876
Si Si5 0.468484 0.847255 0.450205
Si Si6 0.608974 0.316918 0.250780
O O1 0.085762 0.826111 0.336273
O O2 0.891592 0.751184 0.447955
O O3 0.134565 0.977395 0.505416
O O4 0.000000 0.000000 0.374080
O O5 0.988347 0.375922 0.725570
O O6 0.864339 0.437733 0.599560
O O7 0.278644 0.258002 0.554143
O O8 0.388677 0.132396 0.488125
O O9 0.202172 0.703308 0.846574
O O10 0.367698 0.757765 0.536741
O O11 0.408856 0.759410 0.352756
O O12 0.500000 0.000000 0.436295
#
# Coordination Sequence:
#
# PCOD9580692 Si02
#       6
#     6   3   6   6   6   6
#     4  10  23  38  69 110 146 184 243 304 367 425
#     4  12  26  48  74 104 144 198 250 300 376 444
#     4  11  23  43  70 106 143 197 239 305 371 438
#     4  11  23  44  71 104 146 191 248 299 363 452
#     4  12  30  46  74 105 146 188 251 300 376 448
#     4  12  27  52  74 108 142 199 244 303 376 451
#
# _framework density 21.453890999999999
#
# number of rings (size 3 to 8) (size 9 to 14) (size 15 to 20)
#    0.000    0.727    3.636    2.727   14.000    0.000 
#    1.636    0.000    0.000    0.000    0.000    0.000 
#    0.000    0.000    0.000    0.000    0.000    0.000 
#
# Total GULP energy -184096.830960 kJ/mol
# GULP energy per Si atom -5578.691847 kJ/mol
# Density = 2.140506 g / cm^3
# Si number density = 21.453891 Si / 1000 Ang^3
#
#
#
# Elastic Constant Matrix: (Units=GPa)
#
#
# Indices 1 2 3 4 5 6 
#
# 1 74.6178 22.3699 20.2265 0.0000 0.0000 0.0000
# 2 22.3699 74.6178 20.2265 0.0000 0.0000 0.0000
# 3 20.2265 20.2265 55.2566 0.0000 0.0000 0.0000
# 4 0.0000 0.0000 0.0000 11.8619 0.0000 0.0000
# 5 0.0000 0.0000 0.0000 0.0000 11.8619 0.0000
# 6 0.0000 0.0000 0.0000 0.0000 0.0000 26.1240
#
#
#
# Elastic Compliance Matrix: (Units=1/GPa)
#
#
# Indices 1 2 3 4 5 6 
#
# 1 0.015654 -0.003486 -0.004454 0.000000 0.000000 0.000000
# 2 -0.003486 0.015654 -0.004454 0.000000 0.000000 0.000000
# 3 -0.004454 -0.004454 0.021358 0.000000 0.000000 0.000000
# 4 0.000000 0.000000 0.000000 0.084304 0.000000 0.000000
# 5 0.000000 0.000000 0.000000 0.000000 0.084304 0.000000
# 6 0.000000 0.000000 0.000000 0.000000 0.000000 0.038279
#
#
# Mechanical properties :
#
#
# Convention : Reuss Voigt Hill
#
# Bulk Modulus (GPa) = 35.87023 36.68200 36.27612
# Shear Modulus (GPa) = 17.02804 19.41416 18.22110
#
# Velocity S-wave (km/s) = 2.82033 3.01146 2.91746
# Velocity P-wave (km/s) = 5.23084 5.40620 5.31924
#
# Compressibility (1/GPa) = 0.02787827
#
# Stress axis : x y z
#
# Youngs Moduli (GPa) = 63.88157 63.88157 46.82024
#
# Poissons Ratio (x) = 0.22266 0.20855
# Poissons Ratio (y) = 0.22266 0.20855
# Poissons Ratio (z) = 0.28454 0.28454
#
# Static dielectric constant tensor:
#      x y z
#    x 1.970880 0.000000 0.000000 
#    y 0.000000 1.970880 0.000000 
#    z 0.000000 0.000000 1.794530 
# 
# From -- ./inp_files/4785.got.cif
#   From: 2010.05.17/outbox.cif.g08.bks.cpg/sg171_3_cif.got.tgz:4785.got - 2010.05.20 11:16:09.
