data_PCOD9580253
_publ_section_title
;
Structure prediction by ZEFSAII (Michael W. Deem and Ramdas Pophale) SiO2 
 PCOD9580253
Probable space group: P 65
;
_chemical_formula_sum "Si O2"
_cell_formula_units_Z 30
_cell_length_a 13.800077
_cell_length_b 13.800077
_cell_length_c 7.306330
_cell_angle_alpha 90.000000
_cell_angle_beta 90.000000
_cell_angle_gamma 120.000000
_cell_volume 1205.016337
_symmetry_space_group_name_H-M "P 65"
_symmetry_group_IT_number 170
_symmetry_cell_setting 'hexagonal'
loop_
_space_group_symop_operation_xyz
x,y,z
x-y,x,5/6+z
-y,x-y,2/3+z
-x,-y,1/2+z
-x+y,-x,1/3+z
y,-x+y,1/6+z
loop_
_atom_site_type_symbol
_atom_site_label
_atom_site_fract_x
_atom_site_fract_y
_atom_site_fract_z
Si Si1 0.665308 0.536026 0.717920
Si Si2 0.633537 0.240183 0.889141
Si Si3 0.007184 0.579680 0.161963
Si Si4 0.778838 0.803593 0.345939
Si Si5 0.951163 0.177440 0.103515
O O1 0.749752 0.493020 0.656098
O O2 0.547537 0.456643 0.813788
O O3 0.617948 0.559141 0.530451
O O4 0.740179 0.647778 0.831910
O O5 0.614435 0.322720 0.022957
O O6 0.523784 0.118442 0.892254
O O7 0.958414 0.660656 0.110174
O O8 0.871281 0.797999 0.218458
O O9 0.787781 0.775798 0.559055
O O10 0.857899 0.050496 0.065578
#
# Coordination Sequence:
#
# PCOD9580253 Si02
#       5
#     6   6   6   6   6
#     4  10  21  37  60  94 130 173 226 278 346 408
#     4  10  23  39  62  93 132 177 225 279 350 412
#     4  10  22  37  63  96 129 177 224 276 338 412
#     4   9  19  36  64  94 127 166 223 271 336 403
#     4   9  17  33  61  89 122 167 220 276 338 403
#
# _framework density 24.895927
#
# number of rings (size 3 to 8) (size 9 to 14) (size 15 to 20)
#    0.000    2.400    0.000    1.200    5.600    3.200 
#    0.000    0.000    0.000   64.800    0.000    0.000 
#    0.000    0.000    0.000    0.000    0.000    0.000 
#
# Total GULP energy -167470.469262 kJ/mol
# GULP energy per Si atom -5582.348975 kJ/mol
# Density = 2.483926 g / cm^3
# Si number density = 24.895927 Si / 1000 Ang^3
#
#
#
# Elastic Constant Matrix: (Units=GPa)
#
#
# Indices 1 2 3 4 5 6 
#
# 1 132.9424 92.7599 39.4314 0.0000 0.0000 0.0000
# 2 92.7599 132.9424 39.4314 0.0000 0.0000 0.0000
# 3 39.4314 39.4314 61.4274 0.0000 0.0000 0.0000
# 4 0.0000 0.0000 0.0000 22.5357 0.0000 0.0000
# 5 0.0000 0.0000 0.0000 0.0000 22.5357 0.0000
# 6 0.0000 0.0000 0.0000 0.0000 0.0000 20.0912
#
#
#
# Elastic Compliance Matrix: (Units=1/GPa)
#
#
# Indices 1 2 3 4 5 6 
#
# 1 0.015299 -0.009587 -0.003666 0.000000 0.000000 0.000000
# 2 -0.009587 0.015299 -0.003666 0.000000 0.000000 0.000000
# 3 -0.003666 -0.003666 0.020987 0.000000 0.000000 0.000000
# 4 0.000000 0.000000 0.000000 0.044374 0.000000 0.000000
# 5 0.000000 0.000000 0.000000 0.000000 0.044374 0.000000
# 6 0.000000 0.000000 0.000000 0.000000 0.000000 0.049773
#
#
# Mechanical properties :
#
#
# Convention : Reuss Voigt Hill
#
# Bulk Modulus (GPa) = 56.35670 74.50640 65.43155
# Shear Modulus (GPa) = 21.75226 23.41181 22.58204
#
# Velocity S-wave (km/s) = 2.95910 3.06990 3.01501
# Velocity P-wave (km/s) = 5.86183 6.52364 6.20157
#
# Compressibility (1/GPa) = 0.01774412
#
# Stress axis : x y z
#
# Youngs Moduli (GPa) = 65.36336 65.36336 47.64964
#
# Poissons Ratio (x) = 0.62666 0.17471
# Poissons Ratio (y) = 0.62666 0.17471
# Poissons Ratio (z) = 0.23965 0.23965
#
# Static dielectric constant tensor:
#      x y z
#    x 1.992980 0.000000 0.000000 
#    y 0.000000 1.992980 0.000000 
#    z 0.000000 0.000000 2.028500 
# 
# From -- ./inp_files/543.got.cif
#   From: 2010.05.17/outbox.cif.g08.bks.cpg/sg170_cif.got.tgz:543.got - 2010.05.20 11:14:30.
