data_PCOD9580413
_publ_section_title
;
Structure prediction by ZEFSAII (Michael W. Deem and Ramdas Pophale) SiO2 
 PCOD9580413
Probable space group: P 62
;
_chemical_formula_sum "Si O2"
_cell_formula_units_Z 45
_cell_length_a 14.185606
_cell_length_b 14.185606
_cell_length_c 16.364897
_cell_angle_alpha 90.000000
_cell_angle_beta 90.000000
_cell_angle_gamma 120.000000
_cell_volume 2851.935469
_symmetry_space_group_name_H-M "P 62"
_symmetry_group_IT_number 171
_symmetry_cell_setting 'hexagonal'
loop_
_space_group_symop_operation_xyz
x,y,z
x-y,x,1/3+z
-y,x-y,2/3+z
-x,-y,z
-x+y,-x,1/3+z
y,-x+y,2/3+z
loop_
_atom_site_type_symbol
_atom_site_label
_atom_site_fract_x
_atom_site_fract_y
_atom_site_fract_z
Si Si1 0.134108 0.671950 0.274430
Si Si2 0.680817 0.169982 0.393522
Si Si3 0.000000 0.500000 0.946588
Si Si4 0.319183 0.489165 0.499654
Si Si5 0.537842 0.671950 0.285413
Si Si6 0.439246 0.323841 0.913250
Si Si7 0.323841 0.439246 0.313260
Si Si8 0.735518 0.471037 0.779922
O O1 0.207144 0.748204 0.348158
O O2 0.139986 0.560185 0.272910
O O3 0.186078 0.726131 0.187021
O O4 0.008045 0.639254 0.275917
O O5 0.604439 0.071793 0.334934
O O6 0.687300 0.124876 0.481798
O O7 0.609633 0.228281 0.407708
O O8 0.071793 0.604439 0.891576
O O9 0.207144 0.458939 0.545018
O O10 0.312700 0.437577 0.411379
O O11 0.390367 0.618648 0.485469
O O12 0.420200 0.560185 0.286933
O O13 0.631209 0.639254 0.283927
O O14 0.540053 0.726131 0.372822
O O15 0.418136 0.209068 0.946588
#
# Coordination Sequence:
#
# PCOD9580413 Si02
#       8
#     6   6   3   6   6   6   6   6
#     4  10  19  33  53  74 109 148 173 215 269 311
#     4  11  20  32  54  77 110 141 175 221 266 319
#     4  12  20  32  52  88 106 134 184 224 272 310
#     4  11  20  32  54  77 110 141 175 221 266 319
#     4  10  19  33  53  74 109 148 173 215 269 311
#     4  10  22  35  49  78 111 144 183 215 254 331
#     4  10  22  35  49  78 111 144 183 215 254 331
#     4  10  16  32  50  79 110 139 176 214 262 320
#
# _framework density 15.778758
#
# number of rings (size 3 to 8) (size 9 to 14) (size 15 to 20)
#    0.000    1.600    2.667    6.400    0.000    1.067 
#    0.000    2.667    0.000    0.000    0.000    0.933 
#    0.000    0.000    0.000    0.000    0.000    0.000 
#
# Total GULP energy -251012.563568 kJ/mol
# GULP energy per Si atom -5578.056968 kJ/mol
# Density = 1.574285 g / cm^3
# Si number density = 15.778758 Si / 1000 Ang^3
#
#
#
# Elastic Constant Matrix: (Units=GPa)
#
#
# Indices 1 2 3 4 5 6 
#
# 1 85.2268 39.4668 45.3240 0.0000 0.0000 0.0000
# 2 39.4668 85.2268 45.3240 0.0000 0.0000 0.0000
# 3 45.3240 45.3240 85.6078 0.0000 0.0000 0.0000
# 4 0.0000 0.0000 0.0000 121.3717 0.0000 0.0000
# 5 0.0000 0.0000 0.0000 0.0000 121.3717 0.0000
# 6 0.0000 0.0000 0.0000 0.0000 0.0000 22.8800
#
#
#
# Elastic Compliance Matrix: (Units=1/GPa)
#
#
# Indices 1 2 3 4 5 6 
#
# 1 0.017445 -0.004408 -0.006903 0.000000 0.000000 0.000000
# 2 -0.004408 0.017445 -0.006903 0.000000 0.000000 0.000000
# 3 -0.006903 -0.006903 0.018990 0.000000 0.000000 0.000000
# 4 0.000000 0.000000 0.000000 0.008239 0.000000 0.000000
# 5 0.000000 0.000000 0.000000 0.000000 0.008239 0.000000
# 6 0.000000 0.000000 0.000000 0.000000 0.000000 0.043706
#
#
# Mechanical properties :
#
#
# Convention : Reuss Voigt Hill
#
# Bulk Modulus (GPa) = 57.29021 57.36567 57.32794
# Shear Modulus (GPa) = 31.98773 61.52112 46.75443
#
# Velocity S-wave (km/s) = 4.50740 6.25096 5.44936
# Velocity P-wave (km/s) = 7.96719 9.40928 8.71810
#
# Compressibility (1/GPa) = 0.01745499
#
# Stress axis : x y z
#
# Youngs Moduli (GPa) = 57.32173 57.32173 52.65874
#
# Poissons Ratio (x) = 0.25266 0.36348
# Poissons Ratio (y) = 0.25266 0.36348
# Poissons Ratio (z) = 0.39567 0.39567
#
# Static dielectric constant tensor:
#      x y z
#    x 1.506500 0.000000 0.000000 
#    y 0.000000 1.506500 0.000000 
#    z 0.000000 0.000000 1.615870 
# 
# From -- ./inp_files/3055.got.cif
#   From: 2010.05.17/outbox.cif.g08.bks.cpg/sg171_2_cif.got.tgz:3055.got - 2010.05.20 11:16:09.
