data_PCOD9580078
_publ_section_title
;
Structure prediction by ZEFSAII (Michael W. Deem and Ramdas Pophale) SiO2 
 PCOD9580078
Probable space group: P 61
;
_chemical_formula_sum "Si O2"
_cell_formula_units_Z 36
_cell_length_a 15.854972
_cell_length_b 15.854972
_cell_length_c 8.607284
_cell_angle_alpha 90.000000
_cell_angle_beta 90.000000
_cell_angle_gamma 120.000000
_cell_volume 1873.819367
_symmetry_space_group_name_H-M "P 61"
_symmetry_group_IT_number 169
_symmetry_cell_setting 'hexagonal'
loop_
_space_group_symop_operation_xyz
x,y,z
x-y,x,1/6+z
-y,x-y,1/3+z
-x,-y,1/2+z
-x+y,-x,2/3+z
y,-x+y,5/6+z
loop_
_atom_site_type_symbol
_atom_site_label
_atom_site_fract_x
_atom_site_fract_y
_atom_site_fract_z
Si Si1 0.626397 0.996669 0.790580
Si Si2 0.559431 0.873651 0.245642
Si Si3 0.807556 0.204356 0.773244
Si Si4 0.706855 0.240778 0.283459
Si Si5 0.482698 0.434704 0.786811
Si Si6 0.412398 0.657446 0.787369
O O1 0.731365 0.089983 0.753014
O O2 0.636542 0.902891 0.833647
O O3 0.543282 0.974696 0.662470
O O4 0.583968 0.021506 0.947537
O O5 0.542534 0.817395 0.406398
O O6 0.448952 0.827547 0.181285
O O7 0.596165 0.986833 0.235783
O O8 0.613925 0.843484 0.118339
O O9 0.740887 0.251954 0.733837
O O10 0.638365 0.159356 0.160986
O O11 0.677367 0.323684 0.265335
O O12 0.677920 0.207306 0.459074
#
# Coordination Sequence:
#
# PCOD9580078 Si02
#       6
#     6   6   6   6   6   6
#     4  11  23  39  57  81 118 148 197 235 290 331
#     4  11  21  36  52  72 108 151 188 230 271 327
#     4  11  22  39  55  78 111 152 189 243 275 345
#     4  12  22  34  50  74 107 149 188 225 276 327
#     4  11  23  34  53  78 109 150 189 230 271 336
#     4  12  21  32  49  77 107 144 191 223 277 326
#
# _framework density 19.212095999999999
#
# number of rings (size 3 to 8) (size 9 to 14) (size 15 to 20)
#    0.000    0.667    8.333    1.000    2.333    0.000 
#    0.000    0.000    0.000    0.000    0.000    0.000 
#   10.000    0.000    0.000    0.000    0.000    0.000 
#
# Total GULP energy -201066.300357 kJ/mol
# GULP energy per Si atom -5585.175010 kJ/mol
# Density = 1.916837 g / cm^3
# Si number density = 19.212096 Si / 1000 Ang^3
#
#
#
# Elastic Constant Matrix: (Units=GPa)
#
#
# Indices 1 2 3 4 5 6 
#
# 1 82.8399 35.3348 9.9391 0.0000 0.0000 0.0000
# 2 35.3348 82.8399 9.9391 0.0000 0.0000 0.0000
# 3 9.9391 9.9391 42.8988 0.0000 0.0000 0.0000
# 4 0.0000 0.0000 0.0000 23.2179 0.0000 0.0000
# 5 0.0000 0.0000 0.0000 0.0000 23.2179 0.0000
# 6 0.0000 0.0000 0.0000 0.0000 0.0000 23.7526
#
#
#
# Elastic Compliance Matrix: (Units=1/GPa)
#
#
# Indices 1 2 3 4 5 6 
#
# 1 0.014928 -0.006123 -0.002040 0.000000 0.000000 0.000000
# 2 -0.006123 0.014928 -0.002040 0.000000 0.000000 0.000000
# 3 -0.002040 -0.002040 0.024256 0.000000 0.000000 0.000000
# 4 0.000000 0.000000 0.000000 0.043070 0.000000 0.000000
# 5 0.000000 0.000000 0.000000 0.000000 0.043070 0.000000
# 6 0.000000 0.000000 0.000000 0.000000 0.000000 0.042101
#
#
# Mechanical properties :
#
#
# Convention : Reuss Voigt Hill
#
# Bulk Modulus (GPa) = 29.66813 35.44497 32.55655
# Shear Modulus (GPa) = 23.36520 24.26206 23.81363
#
# Velocity S-wave (km/s) = 3.49115 3.55752 3.52449
# Velocity P-wave (km/s) = 5.63265 5.94676 5.79184
#
# Compressibility (1/GPa) = 0.03370620
#
# Stress axis : x y z
#
# Youngs Moduli (GPa) = 66.98918 66.98918 41.22690
#
# Poissons Ratio (x) = 0.41015 0.08411
# Poissons Ratio (y) = 0.41015 0.08411
# Poissons Ratio (z) = 0.13666 0.13666
#
# Static dielectric constant tensor:
#      x y z
#    x 1.689320 0.000000 0.000000 
#    y 0.000000 1.689320 0.000000 
#    z 0.000000 0.000000 1.817480 
# 
# From -- ./inp_files/630.got.cif
#   From: 2010.05.17/outbox.cif.g08.bks.cpg/sg169_cif.got.tgz:630.got - 2010.05.20 11:12:54.
