data_PCOD9580738
_publ_section_title
;
Structure prediction by ZEFSAII (Michael W. Deem and Ramdas Pophale) SiO2 
 PCOD9580738
Probable space group: P 62
;
_chemical_formula_sum "Si O2"
_cell_formula_units_Z 33
_cell_length_a 9.803046
_cell_length_b 9.803046
_cell_length_c 16.580982
_cell_angle_alpha 90.000000
_cell_angle_beta 90.000000
_cell_angle_gamma 120.000000
_cell_volume 1379.948760
_symmetry_space_group_name_H-M "P 62"
_symmetry_group_IT_number 171
_symmetry_cell_setting 'hexagonal'
loop_
_space_group_symop_operation_xyz
x,y,z
x-y,x,1/3+z
-y,x-y,2/3+z
-x,-y,z
-x+y,-x,1/3+z
y,-x+y,2/3+z
loop_
_atom_site_type_symbol
_atom_site_label
_atom_site_fract_x
_atom_site_fract_y
_atom_site_fract_z
Si Si1 0.922546 0.112721 0.853870
Si Si2 0.438185 0.223654 0.466555
Si Si3 0.500000 0.000000 0.382849
Si Si4 0.650313 0.739225 0.028444
Si Si5 0.223935 0.698915 0.301412
Si Si6 0.054241 0.387005 0.638356
O O1 0.793950 0.052576 0.780601
O O2 0.065916 0.282085 0.831514
O O3 0.828860 0.147787 0.923424
O O4 0.000000 0.000000 0.867757
O O5 0.560700 0.260824 0.539447
O O6 0.476256 0.331180 0.386788
O O7 0.400670 0.053727 0.436819
O O8 0.376370 0.848452 0.335079
O O9 0.460144 0.628989 0.019629
O O10 0.719386 0.648242 0.977564
O O11 0.677042 0.899568 0.990577
O O12 0.000000 0.500000 0.596188
#
# Coordination Sequence:
#
# PCOD9580738 Si02
#       6
#     6   6   3   6   6   6
#     4  11  24  45  76 107 153 202 256 329 398 483
#     4  11  25  44  66 105 147 193 254 320 382 469
#     4  12  24  44  72 102 140 202 252 306 390 474
#     4  10  24  45  69 110 149 192 260 322 392 479
#     4  11  24  44  70 105 147 200 255 320 394 474
#     4  11  25  46  71 109 148 201 256 318 398 475
#
# _framework density 23.913931000000002
#
# number of rings (size 3 to 8) (size 9 to 14) (size 15 to 20)
#    0.000    1.091    0.000    5.455    3.818    5.818 
#    6.545    0.000    0.000    0.000    0.000    0.000 
#    0.000    0.000    0.000    0.000    0.000    0.000 
#
# Total GULP energy -184199.620856 kJ/mol
# GULP energy per Si atom -5581.806693 kJ/mol
# Density = 2.385950 g / cm^3
# Si number density = 23.913931 Si / 1000 Ang^3
#
#
#
# Elastic Constant Matrix: (Units=GPa)
#
#
# Indices 1 2 3 4 5 6 
#
# 1 123.3675 34.0142 42.8592 0.0000 0.0000 0.0000
# 2 34.0142 123.3675 42.8592 0.0000 0.0000 0.0000
# 3 42.8592 42.8592 84.7011 0.0000 0.0000 0.0000
# 4 0.0000 0.0000 0.0000 8.9990 0.0000 0.0000
# 5 0.0000 0.0000 0.0000 0.0000 8.9990 0.0000
# 6 0.0000 0.0000 0.0000 0.0000 0.0000 44.6767
#
#
#
# Elastic Compliance Matrix: (Units=1/GPa)
#
#
# Indices 1 2 3 4 5 6 
#
# 1 0.009981 -0.001210 -0.004438 0.000000 0.000000 0.000000
# 2 -0.001210 0.009981 -0.004438 0.000000 0.000000 0.000000
# 3 -0.004438 -0.004438 0.016298 0.000000 0.000000 0.000000
# 4 0.000000 0.000000 0.000000 0.111123 0.000000 0.000000
# 5 0.000000 0.000000 0.000000 0.000000 0.111123 0.000000
# 6 0.000000 0.000000 0.000000 0.000000 0.000000 0.022383
#
#
# Mechanical properties :
#
#
# Convention : Reuss Voigt Hill
#
# Bulk Modulus (GPa) = 62.16131 63.43346 62.79739
# Shear Modulus (GPa) = 16.31712 26.64851 21.48282
#
# Velocity S-wave (km/s) = 2.61497 3.34181 3.00048
# Velocity P-wave (km/s) = 5.93023 6.44000 6.19036
#
# Compressibility (1/GPa) = 0.01608718
#
# Stress axis : x y z
#
# Youngs Moduli (GPa) = 100.18608 100.18608 61.35778
#
# Poissons Ratio (x) = 0.12124 0.27233
# Poissons Ratio (y) = 0.12124 0.27233
# Poissons Ratio (z) = 0.44466 0.44466
#
# Static dielectric constant tensor:
#      x y z
#    x 1.923910 0.000000 0.000000 
#    y 0.000000 1.923910 0.000000 
#    z 0.000000 0.000000 2.046630 
# 
# From -- ./inp_files/2929.got.cif
#   From: 2010.05.17/outbox.cif.g08.bks.cpg/sg171_2_cif.got.tgz:2929.got - 2010.05.20 11:16:09.
