data_PCOD9580548
_publ_section_title
;
Structure prediction by ZEFSAII (Michael W. Deem and Ramdas Pophale) SiO2 
 PCOD9580548
Probable space group: P 62
;
_chemical_formula_sum "Si O2"
_cell_formula_units_Z 33
_cell_length_a 11.995078
_cell_length_b 11.995078
_cell_length_c 12.520520
_cell_angle_alpha 90.000000
_cell_angle_beta 90.000000
_cell_angle_gamma 120.000000
_cell_volume 1560.124118
_symmetry_space_group_name_H-M "P 62"
_symmetry_group_IT_number 171
_symmetry_cell_setting 'hexagonal'
loop_
_space_group_symop_operation_xyz
x,y,z
x-y,x,1/3+z
-y,x-y,2/3+z
-x,-y,z
-x+y,-x,1/3+z
y,-x+y,2/3+z
loop_
_atom_site_type_symbol
_atom_site_label
_atom_site_fract_x
_atom_site_fract_y
_atom_site_fract_z
Si Si1 0.500000 0.000000 0.641870
Si Si2 0.435413 0.727018 0.301133
Si Si3 0.858986 0.027012 0.260122
Si Si4 0.133604 0.178000 0.366329
Si Si5 0.772951 0.536601 0.396677
Si Si6 0.761336 0.548704 0.871010
O O1 0.372624 0.900681 0.706414
O O2 0.542310 0.912383 0.575547
O O3 0.341988 0.575767 0.328012
O O4 0.516370 0.762600 0.191400
O O5 0.333176 0.773433 0.272545
O O6 0.512596 0.773942 0.412122
O O7 0.794943 0.112170 0.233336
O O8 0.003429 0.124160 0.298827
O O9 0.850612 0.946681 0.155783
O O10 0.803261 0.911442 0.345245
O O11 0.214756 0.330215 0.358291
#
# Coordination Sequence:
#
# PCOD9580548 Si02
#       6
#     3   6   6   6   6   6
#     4  10  20  40  74  98 124 194 220 276 348 424
#     4   9  22  43  68 103 138 175 232 304 346 419
#     4  11  24  43  64  95 136 179 228 280 343 418
#     4  11  24  43  64  95 136 179 228 280 343 418
#     4  10  21  43  67 101 138 176 235 283 355 417
#     4  10  21  43  67 101 138 176 235 283 355 417
#
# _framework density 21.152162000000001
#
# number of rings (size 3 to 8) (size 9 to 14) (size 15 to 20)
#    0.000    1.818    1.818    2.182    2.545    2.909 
#   13.091    1.818    0.000    0.000    0.000    0.000 
#    0.000    0.000    0.000    0.000    0.000    0.000 
#
# Total GULP energy -183967.075694 kJ/mol
# GULP energy per Si atom -5574.759870 kJ/mol
# Density = 2.110402 g / cm^3
# Si number density = 21.152162 Si / 1000 Ang^3
#
#
#
# Elastic Constant Matrix: (Units=GPa)
#
#
# Indices 1 2 3 4 5 6 
#
# 1 118.4386 58.6797 34.3190 0.0000 0.0000 0.0000
# 2 58.6797 118.4386 34.3190 0.0000 0.0000 0.0000
# 3 34.3190 34.3190 53.7534 0.0000 0.0000 0.0000
# 4 0.0000 0.0000 0.0000 8.9522 0.0000 0.0000
# 5 0.0000 0.0000 0.0000 0.0000 8.9522 0.0000
# 6 0.0000 0.0000 0.0000 0.0000 0.0000 29.8794
#
#
#
# Elastic Compliance Matrix: (Units=1/GPa)
#
#
# Indices 1 2 3 4 5 6 
#
# 1 0.012118 -0.004616 -0.004790 0.000000 0.000000 0.000000
# 2 -0.004616 0.012118 -0.004790 0.000000 0.000000 0.000000
# 3 -0.004790 -0.004790 0.024719 0.000000 0.000000 0.000000
# 4 0.000000 0.000000 0.000000 0.111705 0.000000 0.000000
# 5 0.000000 0.000000 0.000000 0.000000 0.111705 0.000000
# 6 0.000000 0.000000 0.000000 0.000000 0.000000 0.033468
#
#
# Mechanical properties :
#
#
# Convention : Reuss Voigt Hill
#
# Bulk Modulus (GPa) = 48.62685 60.58509 54.60597
# Shear Modulus (GPa) = 14.65937 20.44427 17.55182
#
# Velocity S-wave (km/s) = 2.63543 3.11228 2.88373
# Velocity P-wave (km/s) = 5.68328 6.45134 6.07945
#
# Compressibility (1/GPa) = 0.02056477
#
# Stress axis : x y z
#
# Youngs Moduli (GPa) = 82.52183 82.52183 40.45390
#
# Poissons Ratio (x) = 0.38091 0.19376
# Poissons Ratio (y) = 0.38091 0.19376
# Poissons Ratio (z) = 0.39526 0.39526
#
# Static dielectric constant tensor:
#      x y z
#    x 1.788640 0.000000 0.000000 
#    y 0.000000 1.788640 0.000000 
#    z 0.000000 0.000000 1.736940 
# 
# From -- ./inp_files/1535.got.cif
#   From: 2010.05.17/outbox.cif.g08.bks.cpg/sg171_1_cif.got.tgz:1535.got - 2010.05.20 11:16:09.
