data_PCOD9580726
_publ_section_title
;
Structure prediction by ZEFSAII (Michael W. Deem and Ramdas Pophale) SiO2 
 PCOD9580726
Probable space group: P 62
;
_chemical_formula_sum "Si O2"
_cell_formula_units_Z 33
_cell_length_a 11.057089
_cell_length_b 11.057089
_cell_length_c 13.941710
_cell_angle_alpha 90.000000
_cell_angle_beta 90.000000
_cell_angle_gamma 120.000000
_cell_volume 1476.142509
_symmetry_space_group_name_H-M "P 62"
_symmetry_group_IT_number 171
_symmetry_cell_setting 'hexagonal'
loop_
_space_group_symop_operation_xyz
x,y,z
x-y,x,1/3+z
-y,x-y,2/3+z
-x,-y,z
-x+y,-x,1/3+z
y,-x+y,2/3+z
loop_
_atom_site_type_symbol
_atom_site_label
_atom_site_fract_x
_atom_site_fract_y
_atom_site_fract_z
Si Si1 0.758807 0.966666 0.913720
Si Si2 0.500000 0.500000 0.514181
Si Si3 0.072024 0.732023 0.004608
Si Si4 0.313157 0.718019 0.064092
Si Si5 0.163178 0.618609 0.535546
Si Si6 0.847665 0.966423 0.718416
O O1 0.596632 0.857903 0.916273
O O2 0.792734 0.020221 0.804573
O O3 0.817709 0.105908 0.976933
O O4 0.831967 0.881635 0.952529
O O5 0.372509 0.393896 0.581649
O O6 0.551914 0.415515 0.449328
O O7 0.153673 0.683420 0.075989
O O8 0.942669 0.744793 0.043164
O O9 0.342267 0.600339 0.107456
O O10 0.341222 0.749441 0.950616
O O11 0.000000 0.500000 0.521578
O O12 0.000000 0.000000 0.752626
#
# Coordination Sequence:
#
# PCOD9580726 Si02
#       6
#     6   3   6   6   6   6
#     4  11  24  43  72 100 142 182 242 303 364 441
#     4  12  24  42  74  92 144 184 232 286 358 442
#     4  11  25  44  69 104 139 185 237 296 366 434
#     4  12  25  46  71 105 139 192 243 296 367 443
#     4  12  26  47  72 106 143 193 249 299 371 453
#     4  10  24  42  70 103 136 184 241 301 366 427
#
# _framework density 22.355567000000001
#
# number of rings (size 3 to 8) (size 9 to 14) (size 15 to 20)
#    0.000    0.727    4.545    1.636   15.273    0.000 
#    0.000    0.000    0.000    0.000    0.000    0.000 
#    0.000    0.000    0.000    0.000    0.000    0.000 
#
# Total GULP energy -184267.127183 kJ/mol
# GULP energy per Si atom -5583.852339 kJ/mol
# Density = 2.230468 g / cm^3
# Si number density = 22.355567 Si / 1000 Ang^3
#
#
#
# Elastic Constant Matrix: (Units=GPa)
#
#
# Indices 1 2 3 4 5 6 
#
# 1 78.8497 21.7779 17.4068 0.0000 0.0000 0.0000
# 2 21.7779 78.8497 17.4068 0.0000 0.0000 0.0000
# 3 17.4068 17.4068 61.5296 0.0000 0.0000 0.0000
# 4 0.0000 0.0000 0.0000 25.6058 0.0000 0.0000
# 5 0.0000 0.0000 0.0000 0.0000 25.6058 0.0000
# 6 0.0000 0.0000 0.0000 0.0000 0.0000 28.5359
#
#
#
# Elastic Compliance Matrix: (Units=1/GPa)
#
#
# Indices 1 2 3 4 5 6 
#
# 1 0.014269 -0.003253 -0.003116 0.000000 0.000000 0.000000
# 2 -0.003253 0.014269 -0.003116 0.000000 0.000000 0.000000
# 3 -0.003116 -0.003116 0.018016 0.000000 0.000000 0.000000
# 4 0.000000 0.000000 0.000000 0.039054 0.000000 0.000000
# 5 0.000000 0.000000 0.000000 0.000000 0.039054 0.000000
# 6 0.000000 0.000000 0.000000 0.000000 0.000000 0.035044
#
#
# Mechanical properties :
#
#
# Convention : Reuss Voigt Hill
#
# Bulk Modulus (GPa) = 36.25599 36.93467 36.59533
# Shear Modulus (GPa) = 26.61423 26.79200 26.70311
#
# Velocity S-wave (km/s) = 3.45410 3.46562 3.45986
# Velocity P-wave (km/s) = 5.67105 5.70713 5.68912
#
# Compressibility (1/GPa) = 0.02758165
#
# Stress axis : x y z
#
# Youngs Moduli (GPa) = 70.08306 70.08306 55.50740
#
# Poissons Ratio (x) = 0.22798 0.17298
# Poissons Ratio (y) = 0.22798 0.17298
# Poissons Ratio (z) = 0.21841 0.21841
#
# Static dielectric constant tensor:
#      x y z
#    x 1.883290 0.000000 0.000000 
#    y 0.000000 1.883290 0.000000 
#    z 0.000000 0.000000 1.812430 
# 
# From -- ./inp_files/2925.got.cif
#   From: 2010.05.17/outbox.cif.g08.bks.cpg/sg171_2_cif.got.tgz:2925.got - 2010.05.20 11:16:09.
