data_PCOD9580689
_publ_section_title
;
Structure prediction by ZEFSAII (Michael W. Deem and Ramdas Pophale) SiO2 
 PCOD9580689
Probable space group: P 62
;
_chemical_formula_sum "Si O2"
_cell_formula_units_Z 21
_cell_length_a 13.860993
_cell_length_b 13.860993
_cell_length_c 4.806568
_cell_angle_alpha 90.000000
_cell_angle_beta 90.000000
_cell_angle_gamma 120.000000
_cell_volume 799.750299
_symmetry_space_group_name_H-M "P 62"
_symmetry_group_IT_number 171
_symmetry_cell_setting 'hexagonal'
loop_
_space_group_symop_operation_xyz
x,y,z
x-y,x,1/3+z
-y,x-y,2/3+z
-x,-y,z
-x+y,-x,1/3+z
y,-x+y,2/3+z
loop_
_atom_site_type_symbol
_atom_site_label
_atom_site_fract_x
_atom_site_fract_y
_atom_site_fract_z
Si Si1 0.223114 0.150282 0.041410
Si Si2 0.000000 0.500000 0.096517
Si Si3 0.265767 0.887251 0.204352
Si Si4 0.226331 0.651528 0.420863
O O1 0.136583 0.166776 0.229053
O O2 0.325237 0.197404 0.257904
O O3 0.281694 0.224802 0.770847
O O4 0.969989 0.572298 0.888373
O O5 0.895345 0.432362 0.302708
O O6 0.246156 0.766769 0.284297
O O7 0.294824 0.584304 0.374787
#
# Coordination Sequence:
#
# PCOD9580689 Si02
#       4
#     6   3   6   6
#     4  12  26  49  78 114 156 209 276 340 420 502
#     4  10  22  46  72 110 158 224 268 356 414 502
#     4  11  26  47  74 111 160 212 275 343 417 498
#     4  10  23  42  68 110 155 213 277 341 414 502
#
# _framework density 26.258194
#
# number of rings (size 3 to 8) (size 9 to 14) (size 15 to 20)
#    0.000    1.143    0.000    5.143    8.000    1.143 
#    5.143   10.000    0.000    0.000    0.000    0.000 
#    0.000    0.000    0.000    0.000    0.000    0.000 
#
# Total GULP energy -117018.935981 kJ/mol
# GULP energy per Si atom -5572.330285 kJ/mol
# Density = 2.619843 g / cm^3
# Si number density = 26.258194 Si / 1000 Ang^3
#
#
#
# Elastic Constant Matrix: (Units=GPa)
#
#
# Indices 1 2 3 4 5 6 
#
# 1 136.1324 59.1552 54.0755 0.0000 0.0000 0.0000
# 2 59.1552 136.1324 54.0755 0.0000 0.0000 0.0000
# 3 54.0755 54.0755 137.0595 0.0000 0.0000 0.0000
# 4 0.0000 0.0000 0.0000 41.9959 0.0000 0.0000
# 5 0.0000 0.0000 0.0000 0.0000 41.9959 0.0000
# 6 0.0000 0.0000 0.0000 0.0000 0.0000 38.4886
#
#
#
# Elastic Compliance Matrix: (Units=1/GPa)
#
#
# Indices 1 2 3 4 5 6 
#
# 1 0.009772 -0.003219 -0.002585 0.000000 0.000000 0.000000
# 2 -0.003219 0.009772 -0.002585 0.000000 0.000000 0.000000
# 3 -0.002585 -0.002585 0.009336 0.000000 0.000000 0.000000
# 4 0.000000 0.000000 0.000000 0.023812 0.000000 0.000000
# 5 0.000000 0.000000 0.000000 0.000000 0.023812 0.000000
# 6 0.000000 0.000000 0.000000 0.000000 0.000000 0.025982
#
#
# Mechanical properties :
#
#
# Convention : Reuss Voigt Hill
#
# Bulk Modulus (GPa) = 82.64451 82.65964 82.65208
# Shear Modulus (GPa) = 40.55245 40.63062 40.59153
#
# Velocity S-wave (km/s) = 3.93411 3.93790 3.93601
# Velocity P-wave (km/s) = 7.22347 7.22662 7.22504
#
# Compressibility (1/GPa) = 0.01210002
#
# Stress axis : x y z
#
# Youngs Moduli (GPa) = 102.33749 102.33749 107.11228
#
# Poissons Ratio (x) = 0.32945 0.27690
# Poissons Ratio (y) = 0.32945 0.27690
# Poissons Ratio (z) = 0.26456 0.26456
#
# Static dielectric constant tensor:
#      x y z
#    x 2.164760 0.000000 0.000000 
#    y 0.000000 2.164760 0.000000 
#    z 0.000000 0.000000 2.090330 
# 
# From -- ./inp_files/162.got.cif
#   From: 2010.05.17/outbox.cif.g08.bks.cpg/sg171_1_cif.got.tgz:162.got - 2010.05.20 11:16:09.
