data_PCOD9580000
_publ_section_title
;
Structure prediction by ZEFSAII (Michael W. Deem and Ramdas Pophale) SiO2 
 PCOD9580000
Probable space group: P 61
;
_chemical_formula_sum "Si O2"
_cell_formula_units_Z 48
_cell_length_a 11.676910
_cell_length_b 11.676910
_cell_length_c 17.409102
_cell_angle_alpha 90.000000
_cell_angle_beta 90.000000
_cell_angle_gamma 120.000000
_cell_volume 2055.714822
_symmetry_space_group_name_H-M "P 61"
_symmetry_group_IT_number 169
_symmetry_cell_setting 'hexagonal'
loop_
_space_group_symop_operation_xyz
x,y,z
x-y,x,1/6+z
-y,x-y,1/3+z
-x,-y,1/2+z
-x+y,-x,2/3+z
y,-x+y,5/6+z
loop_
_atom_site_type_symbol
_atom_site_label
_atom_site_fract_x
_atom_site_fract_y
_atom_site_fract_z
Si Si1 0.242778 0.069378 0.927800
Si Si2 0.148393 0.332215 0.381349
Si Si3 0.171798 0.270261 0.845726
Si Si4 0.714464 0.088362 0.706191
Si Si5 0.896776 0.228736 0.840138
Si Si6 0.780755 0.402245 0.805458
Si Si7 0.522364 0.155070 0.768788
Si Si8 0.687040 0.116525 0.329841
O O1 0.177001 0.146751 0.885230
O O2 0.251235 0.964171 0.872589
O O3 0.391976 0.193675 0.937912
O O4 0.187696 0.977245 0.004897
O O5 0.286469 0.350916 0.352816
O O6 0.148115 0.324932 0.473038
O O7 0.159663 0.470326 0.359262
O O8 0.244935 0.329412 0.765302
O O9 0.234414 0.396057 0.903500
O O10 0.024042 0.220297 0.818960
O O11 0.774684 0.115002 0.792140
O O12 0.616632 0.146837 0.703711
O O13 0.884499 0.350962 0.809822
O O14 0.631255 0.280375 0.818094
O O15 0.788327 0.458462 0.720412
O O16 0.451584 0.004471 0.801727
#
# Coordination Sequence:
#
# PCOD9580000 Si02
#       8
#     6   6   6   6   6   6   6   6
#     4  10  22  44  68 102 130 174 240 286 348 418
#     4  11  23  45  69  98 139 181 233 288 352 423
#     4  11  23  45  69  98 139 181 233 288 352 423
#     4  11  25  43  64 101 140 180 228 285 358 422
#     4  11  25  43  64 101 140 180 228 285 358 422
#     4  10  24  41  68  99 134 181 233 286 350 422
#     4  10  24  41  68  99 134 181 233 286 350 422
#     4  10  22  42  66  98 138 176 230 300 342 420
#
# _framework density 23.349540999999999
#
# number of rings (size 3 to 8) (size 9 to 14) (size 15 to 20)
#    0.000    1.500    0.000    4.500    7.000    6.000 
#   13.500    0.000    0.000    0.000    0.000    0.000 
#    0.000    0.000    0.000    0.000    0.000    0.000 
#
# Total GULP energy -267262.403019 kJ/mol
# GULP energy per Si atom -5567.966730 kJ/mol
# Density = 2.329640 g / cm^3
# Si number density = 23.349541 Si / 1000 Ang^3
#
#
#
# Elastic Constant Matrix: (Units=GPa)
#
#
# Indices 1 2 3 4 5 6 
#
# 1 78.9934 42.2310 7.5522 0.0000 0.0000 0.0000
# 2 42.2310 78.9934 7.5522 0.0000 0.0000 0.0000
# 3 7.5522 7.5522 53.2178 0.0000 0.0000 0.0000
# 4 0.0000 0.0000 0.0000 26.6978 0.0000 0.0000
# 5 0.0000 0.0000 0.0000 0.0000 26.6978 0.0000
# 6 0.0000 0.0000 0.0000 0.0000 0.0000 18.3812
#
#
#
# Elastic Compliance Matrix: (Units=1/GPa)
#
#
# Indices 1 2 3 4 5 6 
#
# 1 0.017800 -0.009402 -0.001192 0.000000 0.000000 0.000000
# 2 -0.009402 0.017800 -0.001192 0.000000 0.000000 0.000000
# 3 -0.001192 -0.001192 0.019129 0.000000 0.000000 0.000000
# 4 0.000000 0.000000 0.000000 0.037456 0.000000 0.000000
# 5 0.000000 0.000000 0.000000 0.000000 0.037456 0.000000
# 6 0.000000 0.000000 0.000000 0.000000 0.000000 0.054403
#
#
# Mechanical properties :
#
#
# Convention : Reuss Voigt Hill
#
# Bulk Modulus (GPa) = 32.09516 36.20839 34.15177
# Shear Modulus (GPa) = 22.93570 24.61331 23.77451
#
# Velocity S-wave (km/s) = 3.13753 3.25025 3.19439
# Velocity P-wave (km/s) = 5.18660 5.44300 5.31635
#
# Compressibility (1/GPa) = 0.03115735
#
# Stress axis : x y z
#
# Youngs Moduli (GPa) = 56.18089 56.18089 52.27682
#
# Poissons Ratio (x) = 0.52821 0.06230
# Poissons Ratio (y) = 0.52821 0.06230
# Poissons Ratio (z) = 0.06695 0.06695
#
# Static dielectric constant tensor:
#      x y z
#    x 1.896780 0.000000 0.000000 
#    y 0.000000 1.896780 0.000000 
#    z 0.000000 0.000000 2.038920 
# 
# From -- ./inp_files/1416.got.cif
#   From: 2010.05.17/outbox.cif.g08.bks.cpg/sg169_cif.got.tgz:1416.got - 2010.05.20 11:12:54.
