data_PCOD9580433
_publ_section_title
;
Structure prediction by ZEFSAII (Michael W. Deem and Ramdas Pophale) SiO2 
 PCOD9580433
Probable space group: P 62
;
_chemical_formula_sum "Si O2"
_cell_formula_units_Z 48
_cell_length_a 20.971966
_cell_length_b 20.971966
_cell_length_c 7.096914
_cell_angle_alpha 90.000000
_cell_angle_beta 90.000000
_cell_angle_gamma 120.000000
_cell_volume 2703.201776
_symmetry_space_group_name_H-M "P 62"
_symmetry_group_IT_number 171
_symmetry_cell_setting 'hexagonal'
loop_
_space_group_symop_operation_xyz
x,y,z
x-y,x,1/3+z
-y,x-y,2/3+z
-x,-y,z
-x+y,-x,1/3+z
y,-x+y,2/3+z
loop_
_atom_site_type_symbol
_atom_site_label
_atom_site_fract_x
_atom_site_fract_y
_atom_site_fract_z
Si Si1 0.103971 0.497600 0.789140
Si Si2 0.717403 0.701402 0.277115
Si Si3 0.805144 0.748062 0.924052
Si Si4 0.378332 0.446517 0.467243
Si Si5 0.262796 0.825292 0.394654
Si Si6 0.142502 0.412813 0.495059
Si Si7 0.796083 0.061440 0.300266
Si Si8 0.588989 0.850509 0.436918
O O1 0.104418 0.572669 0.746618
O O2 0.133270 0.473912 0.608764
O O3 0.018850 0.435486 0.826884
O O4 0.148426 0.490457 0.966080
O O5 0.680521 0.614305 0.322119
O O6 0.658161 0.718363 0.173502
O O7 0.736842 0.742799 0.476003
O O8 0.788226 0.736540 0.145162
O O9 0.780018 0.798293 0.816841
O O10 0.887199 0.765025 0.888184
O O11 0.752151 0.666776 0.842037
O O12 0.337066 0.446917 0.657184
O O13 0.264417 0.826313 0.619670
O O14 0.237161 0.885087 0.344133
O O15 0.202977 0.752682 0.281842
O O16 0.198185 0.398202 0.619077
#
# Coordination Sequence:
#
# PCOD9580433 Si02
#       8
#     6   6   6   6   6   6   6   6
#     4   9  19  37  49  76 117 143 181 220 274 330
#     4  11  20  34  55  78 117 140 178 224 268 326
#     4  11  22  33  56  81 112 145 178 220 282 330
#     4  10  19  34  52  80 113 147 176 226 269 332
#     4  10  18  34  55  76 107 149 179 221 279 323
#     4  10  19  35  55  76 110 148 175 230 272 322
#     4  11  21  36  52  83 112 141 181 226 276 329
#     4  10  20  33  53  84 110 137 184 227 276 329
#
# _framework density 17.756720999999999
#
# number of rings (size 3 to 8) (size 9 to 14) (size 15 to 20)
#    0.000    1.750    7.500    0.000    3.500    1.000 
#    2.250    1.250    0.000    0.000   13.000    4.375 
#    0.000    0.000    0.000    0.000    0.000    0.000 
#
# Total GULP energy -267461.098959 kJ/mol
# GULP energy per Si atom -5572.106228 kJ/mol
# Density = 1.771631 g / cm^3
# Si number density = 17.756721 Si / 1000 Ang^3
#
#
#
# Elastic Constant Matrix: (Units=GPa)
#
#
# Indices 1 2 3 4 5 6 
#
# 1 34.3251 12.4241 11.7476 0.0000 0.0000 0.0000
# 2 12.4241 34.3251 11.7476 0.0000 0.0000 0.0000
# 3 11.7476 11.7476 105.6710 0.0000 0.0000 0.0000
# 4 0.0000 0.0000 0.0000 15.7752 0.0000 0.0000
# 5 0.0000 0.0000 0.0000 0.0000 15.7752 0.0000
# 6 0.0000 0.0000 0.0000 0.0000 0.0000 10.9505
#
#
#
# Elastic Compliance Matrix: (Units=1/GPa)
#
#
# Indices 1 2 3 4 5 6 
#
# 1 0.034158 -0.011502 -0.002519 0.000000 0.000000 0.000000
# 2 -0.011502 0.034158 -0.002519 0.000000 0.000000 0.000000
# 3 -0.002519 -0.002519 0.010023 0.000000 0.000000 0.000000
# 4 0.000000 0.000000 0.000000 0.063391 0.000000 0.000000
# 5 0.000000 0.000000 0.000000 0.000000 0.063391 0.000000
# 6 0.000000 0.000000 0.000000 0.000000 0.000000 0.091320
#
#
# Mechanical properties :
#
#
# Convention : Reuss Voigt Hill
#
# Bulk Modulus (GPa) = 22.09380 27.35107 24.72244
# Shear Modulus (GPa) = 14.50931 17.72699 16.11815
#
# Velocity S-wave (km/s) = 2.86163 3.16306 3.01611
# Velocity P-wave (km/s) = 4.83612 5.36438 5.10708
#
# Compressibility (1/GPa) = 0.04526156
#
# Stress axis : x y z
#
# Youngs Moduli (GPa) = 29.27549 29.27549 99.76689
#
# Poissons Ratio (x) = 0.33672 0.25129
# Poissons Ratio (y) = 0.33672 0.25129
# Poissons Ratio (z) = 0.07374 0.07374
#
# Static dielectric constant tensor:
#      x y z
#    x 1.616180 0.000000 0.000000 
#    y 0.000000 1.616180 0.000000 
#    z 0.000000 0.000000 1.635320 
# 
# From -- ./inp_files/841.got.cif
#   From: 2010.05.17/outbox.cif.g08.bks.cpg/sg171_1_cif.got.tgz:841.got - 2010.05.20 11:16:09.
