data_PCOD9580533
_publ_section_title
;
Structure prediction by ZEFSAII (Michael W. Deem and Ramdas Pophale) SiO2 
 PCOD9580533
Probable space group: P 62
;
_chemical_formula_sum "Si O2"
_cell_formula_units_Z 42
_cell_length_a 13.034231
_cell_length_b 13.034231
_cell_length_c 13.120447
_cell_angle_alpha 90.000000
_cell_angle_beta 90.000000
_cell_angle_gamma 120.000000
_cell_volume 1930.412362
_symmetry_space_group_name_H-M "P 62"
_symmetry_group_IT_number 171
_symmetry_cell_setting 'hexagonal'
loop_
_space_group_symop_operation_xyz
x,y,z
x-y,x,1/3+z
-y,x-y,2/3+z
-x,-y,z
-x+y,-x,1/3+z
y,-x+y,2/3+z
loop_
_atom_site_type_symbol
_atom_site_label
_atom_site_fract_x
_atom_site_fract_y
_atom_site_fract_z
Si Si1 0.000000 0.500000 0.512410
Si Si2 0.481440 0.275854 0.273828
Si Si3 0.737954 0.405892 0.249070
Si Si4 0.248199 0.952668 0.299077
Si Si5 0.857940 0.273126 0.742468
Si Si6 0.176699 0.711475 0.390574
Si Si7 0.500000 0.500000 0.536065
Si Si8 0.281373 0.182850 0.406470
O O1 0.897981 0.492871 0.581088
O O2 0.942866 0.381712 0.446435
O O3 0.609176 0.290310 0.267223
O O4 0.397778 0.197845 0.180552
O O5 0.420149 0.235647 0.381351
O O6 0.755190 0.511113 0.326912
O O7 0.821691 0.357558 0.288597
O O8 0.734641 0.451294 0.136039
O O9 0.190629 0.836578 0.367722
O O10 0.179527 0.919810 0.192114
O O11 0.383313 0.976074 0.270519
O O12 0.233953 0.056829 0.351946
O O13 0.906483 0.404273 0.789406
O O14 0.967769 0.257611 0.703851
#
# Coordination Sequence:
#
# PCOD9580533 Si02
#       8
#     3   6   6   6   6   6   3   6
#     4  10  22  43  63  94 136 168 225 278 353 412
#     4  11  20  38  65  97 127 175 230 281 345 419
#     4  11  21  38  61  98 136 173 228 277 358 432
#     4  11  25  39  65  99 141 186 237 288 358 420
#     4  11  20  38  66  96 133 182 230 286 352 417
#     4  11  25  38  62  97 136 183 215 287 354 433
#     4  10  20  39  63 100 132 176 221 288 345 408
#     4  11  22  41  64  96 133 184 234 291 336 419
#
# _framework density 21.757007999999999
#
# number of rings (size 3 to 8) (size 9 to 14) (size 15 to 20)
#    0.000    1.143    5.714    4.286    2.000    2.286 
#    0.000    0.000    0.000    0.857    0.000    0.000 
#    0.000    0.000    0.000    0.000    0.000    0.000 
#
# Total GULP energy -233932.290905 kJ/mol
# GULP energy per Si atom -5569.816450 kJ/mol
# Density = 2.170749 g / cm^3
# Si number density = 21.757008 Si / 1000 Ang^3
#
#
#
# Elastic Constant Matrix: (Units=GPa)
#
#
# Indices 1 2 3 4 5 6 
#
# 1 82.2267 30.4839 37.1368 0.0000 0.0000 0.0000
# 2 30.4839 82.2267 37.1368 0.0000 0.0000 0.0000
# 3 37.1368 37.1368 93.5022 0.0000 0.0000 0.0000
# 4 0.0000 0.0000 0.0000 31.2905 0.0000 0.0000
# 5 0.0000 0.0000 0.0000 0.0000 31.2905 0.0000
# 6 0.0000 0.0000 0.0000 0.0000 0.0000 25.8714
#
#
#
# Elastic Compliance Matrix: (Units=1/GPa)
#
#
# Indices 1 2 3 4 5 6 
#
# 1 0.015672 -0.003654 -0.004773 0.000000 0.000000 0.000000
# 2 -0.003654 0.015672 -0.004773 0.000000 0.000000 0.000000
# 3 -0.004773 -0.004773 0.014486 0.000000 0.000000 0.000000
# 4 0.000000 0.000000 0.000000 0.031959 0.000000 0.000000
# 5 0.000000 0.000000 0.000000 0.000000 0.031959 0.000000
# 6 0.000000 0.000000 0.000000 0.000000 0.000000 0.038653
#
#
# Mechanical properties :
#
#
# Convention : Reuss Voigt Hill
#
# Bulk Modulus (GPa) = 51.46866 51.94118 51.70492
# Shear Modulus (GPa) = 27.58192 27.90365 27.74278
#
# Velocity S-wave (km/s) = 3.56438 3.58510 3.57476
# Velocity P-wave (km/s) = 6.37551 6.40800 6.39178
#
# Compressibility (1/GPa) = 0.01942930
#
# Stress axis : x y z
#
# Youngs Moduli (GPa) = 63.80798 63.80798 69.02985
#
# Poissons Ratio (x) = 0.23318 0.32949
# Poissons Ratio (y) = 0.23318 0.32949
# Poissons Ratio (z) = 0.30456 0.30456
#
# Static dielectric constant tensor:
#      x y z
#    x 1.873790 0.000000 0.000000 
#    y 0.000000 1.873790 0.000000 
#    z 0.000000 0.000000 1.822950 
# 
# From -- ./inp_files/2510.got.cif
#   From: 2010.05.17/outbox.cif.g08.bks.cpg/sg171_2_cif.got.tgz:2510.got - 2010.05.20 11:16:09.
