data_PCOD9580233
_publ_section_title
;
Structure prediction by ZEFSAII (Michael W. Deem and Ramdas Pophale) SiO2 
 PCOD9580233
Probable space group: P 65
;
_chemical_formula_sum "Si O2"
_cell_formula_units_Z 48
_cell_length_a 17.759475
_cell_length_b 17.759475
_cell_length_c 9.352491
_cell_angle_alpha 90.000000
_cell_angle_beta 90.000000
_cell_angle_gamma 120.000000
_cell_volume 2554.572172
_symmetry_space_group_name_H-M "P 65"
_symmetry_group_IT_number 170
_symmetry_cell_setting 'hexagonal'
loop_
_space_group_symop_operation_xyz
x,y,z
x-y,x,5/6+z
-y,x-y,2/3+z
-x,-y,1/2+z
-x+y,-x,1/3+z
y,-x+y,1/6+z
loop_
_atom_site_type_symbol
_atom_site_label
_atom_site_fract_x
_atom_site_fract_y
_atom_site_fract_z
Si Si1 0.695602 0.682734 0.424080
Si Si2 0.938292 0.402974 0.284060
Si Si3 0.684039 0.825735 0.903718
Si Si4 0.689929 0.690429 0.729778
Si Si5 0.223396 0.441378 0.494373
Si Si6 0.066595 0.466840 0.551817
Si Si7 0.703885 0.860883 0.411282
Si Si8 0.008484 0.153742 0.403690
O O1 0.654145 0.643503 0.577815
O O2 0.626396 0.645688 0.297401
O O3 0.722913 0.783685 0.443776
O O4 0.774777 0.670144 0.374208
O O5 0.975377 0.350335 0.195313
O O6 0.841315 0.328350 0.334590
O O7 0.932074 0.466209 0.168175
O O8 0.006578 0.453093 0.412546
O O9 0.671658 0.768153 0.765152
O O10 0.720003 0.927996 0.882514
O O11 0.599965 0.793935 0.002916
O O12 0.753214 0.813129 0.995988
O O13 0.165234 0.487012 0.520553
O O14 0.191298 0.364128 0.612410
O O15 0.790315 0.946014 0.357924
O O16 0.080316 0.134295 0.462887
#
# Coordination Sequence:
#
# PCOD9580233 Si02
#       8
#     6   6   6   6   6   6   6   6
#     4  11  22  36  56  88 121 155 203 258 309 360
#     4  11  22  40  68  94 123 159 208 256 314 384
#     4  11  19  34  58  79 115 157 201 252 297 361
#     4  11  22  36  56  88 121 155 203 258 309 360
#     4  10  20  38  66  90 116 158 200 248 312 380
#     4  11  22  40  68  94 123 159 208 256 314 384
#     4  11  19  34  58  79 115 157 201 252 297 361
#     4  12  20  34  48  72 106 156 210 244 294 340
#
# _framework density 18.789840000000002
#
# number of rings (size 3 to 8) (size 9 to 14) (size 15 to 20)
#    0.000    1.000    6.250    3.000    0.000    0.000 
#    2.250    0.000    2.750    0.000    0.000    0.000 
#    0.000    0.000    0.000    0.000    0.000    0.000 
#
# Total GULP energy -267640.523373 kJ/mol
# GULP energy per Si atom -5575.844237 kJ/mol
# Density = 1.874707 g / cm^3
# Si number density = 18.789840 Si / 1000 Ang^3
#
#
#
# Elastic Constant Matrix: (Units=GPa)
#
#
# Indices 1 2 3 4 5 6 
#
# 1 67.3389 47.2675 26.2182 0.0000 0.0000 0.0000
# 2 47.2675 67.3389 26.2182 0.0000 0.0000 0.0000
# 3 26.2182 26.2182 95.4739 0.0000 0.0000 0.0000
# 4 0.0000 0.0000 0.0000 33.4077 0.0000 0.0000
# 5 0.0000 0.0000 0.0000 0.0000 33.4077 0.0000
# 6 0.0000 0.0000 0.0000 0.0000 0.0000 10.0357
#
#
#
# Elastic Compliance Matrix: (Units=1/GPa)
#
#
# Indices 1 2 3 4 5 6 
#
# 1 0.029901 -0.019921 -0.002740 0.000000 0.000000 0.000000
# 2 -0.019921 0.029901 -0.002740 0.000000 0.000000 0.000000
# 3 -0.002740 -0.002740 0.011979 0.000000 0.000000 0.000000
# 4 0.000000 0.000000 0.000000 0.029933 0.000000 0.000000
# 5 0.000000 0.000000 0.000000 0.000000 0.029933 0.000000
# 6 0.000000 0.000000 0.000000 0.000000 0.000000 0.099644
#
#
# Mechanical properties :
#
#
# Convention : Reuss Voigt Hill
#
# Bulk Modulus (GPa) = 47.67323 47.72883 47.70103
# Shear Modulus (GPa) = 17.29576 24.06674 20.68125
#
# Velocity S-wave (km/s) = 3.03724 3.58276 3.32122
# Velocity P-wave (km/s) = 6.14220 6.52468 6.33633
#
# Compressibility (1/GPa) = 0.02097613
#
# Stress axis : x y z
#
# Youngs Moduli (GPa) = 33.44394 33.44394 83.47817
#
# Poissons Ratio (x) = 0.66625 0.22877
# Poissons Ratio (y) = 0.66625 0.22877
# Poissons Ratio (z) = 0.09165 0.09165
#
# Static dielectric constant tensor:
#      x y z
#    x 1.671090 0.000000 0.000000 
#    y 0.000000 1.671090 0.000000 
#    z 0.000000 0.000000 1.714770 
# 
# From -- ./inp_files/744.got.cif
#   From: 2010.05.17/outbox.cif.g08.bks.cpg/sg170_cif.got.tgz:744.got - 2010.05.20 11:14:30.
