data_PCOD9580942
_publ_section_title
;
Structure prediction by ZEFSAII (Michael W. Deem and Ramdas Pophale) SiO2 
 PCOD9580942
Probable space group: P 64
;
_chemical_formula_sum "Si O2"
_cell_formula_units_Z 39
_cell_length_a 8.217980
_cell_length_b 8.217980
_cell_length_c 32.526248
_cell_angle_alpha 90.000000
_cell_angle_beta 90.000000
_cell_angle_gamma 120.000000
_cell_volume 1902.369002
_symmetry_space_group_name_H-M "P 64"
_symmetry_group_IT_number 172
_symmetry_cell_setting 'hexagonal'
loop_
_space_group_symop_operation_xyz
x,y,z
x-y,x,2/3+z
-y,x-y,1/3+z
-x,-y,z
-x+y,-x,2/3+z
y,-x+y,1/3+z
loop_
_atom_site_type_symbol
_atom_site_label
_atom_site_fract_x
_atom_site_fract_y
_atom_site_fract_z
Si Si1 0.475762 0.678140 0.393370
Si Si2 0.697853 0.204283 0.463488
Si Si3 0.500000 0.500000 0.856950
Si Si4 0.927785 0.621776 0.974316
Si Si5 0.785871 0.850543 0.068733
Si Si6 0.000688 0.693618 0.322933
Si Si7 0.960821 0.793096 0.580839
O O1 0.500000 0.500000 0.403278
O O2 0.330695 0.686644 0.424665
O O3 0.482359 0.687688 0.343517
O O4 0.653970 0.877207 0.402454
O O5 0.854029 0.162080 0.444530
O O6 0.808229 0.355046 0.499013
O O7 0.500000 0.000000 0.472253
O O8 0.359698 0.311264 0.882464
O O9 0.000000 0.500000 0.950255
O O10 0.833826 0.702564 0.944856
O O11 0.110457 0.802319 0.994160
O O12 0.693218 0.873502 0.027390
O O13 0.000000 0.000000 0.066976
O O14 0.072859 0.783344 0.278154
O O15 0.000000 0.500000 0.325638
O O16 0.000000 0.000000 0.565658
#
# Coordination Sequence:
#
# PCOD9580942 Si02
#       7
#     6   6   3   6   6   6   6
#     4  10  21  40  65 101 136 169 214 279 356 428
#     4  10  27  46  64 100 136 181 246 289 346 430
#     4  12  28  48  76  92 136 202 252 300 354 414
#     4  10  21  38  67 103 137 169 214 286 360 426
#     4  11  21  39  67  96 139 171 208 285 350 422
#     4  11  23  39  65 107 137 172 219 277 368 439
#     4  10  24  49  70 101 138 180 244 296 361 433
#
# _framework density 20.500753
#
# number of rings (size 3 to 8) (size 9 to 14) (size 15 to 20)
#    0.000    1.538    3.077    0.462    9.692    1.231 
#    5.538    0.000    0.000    0.000    0.000    0.000 
#    0.000    0.000    0.000    0.000    0.000    0.000 
#
# Total GULP energy -217182.732629 kJ/mol
# GULP energy per Si atom -5568.788016 kJ/mol
# Density = 2.045409 g / cm^3
# Si number density = 20.500753 Si / 1000 Ang^3
#
#
#
# Elastic Constant Matrix: (Units=GPa)
#
#
# Indices 1 2 3 4 5 6 
#
# 1 96.9764 42.3842 58.8293 0.0000 0.0000 0.0000
# 2 42.3842 96.9764 58.8293 0.0000 0.0000 0.0000
# 3 58.8293 58.8293 91.1378 0.0000 0.0000 0.0000
# 4 0.0000 0.0000 0.0000 21.7428 0.0000 0.0000
# 5 0.0000 0.0000 0.0000 0.0000 21.7428 0.0000
# 6 0.0000 0.0000 0.0000 0.0000 0.0000 27.2961
#
#
#
# Elastic Compliance Matrix: (Units=1/GPa)
#
#
# Indices 1 2 3 4 5 6 
#
# 1 0.017044 -0.001274 -0.010179 0.000000 0.000000 0.000000
# 2 -0.001274 0.017044 -0.010179 0.000000 0.000000 0.000000
# 3 -0.010179 -0.010179 0.024114 0.000000 0.000000 0.000000
# 4 0.000000 0.000000 0.000000 0.045992 0.000000 0.000000
# 5 0.000000 0.000000 0.000000 0.000000 0.045992 0.000000
# 6 0.000000 0.000000 0.000000 0.000000 0.000000 0.036635
#
#
# Mechanical properties :
#
#
# Convention : Reuss Voigt Hill
#
# Bulk Modulus (GPa) = 66.95218 67.24180 67.09699
# Shear Modulus (GPa) = 21.27066 22.49285 21.88176
#
# Velocity S-wave (km/s) = 3.22460 3.31595 3.27060
# Velocity P-wave (km/s) = 6.82594 6.89432 6.86021
#
# Compressibility (1/GPa) = 0.01493603
#
# Stress axis : x y z
#
# Youngs Moduli (GPa) = 58.67249 58.67249 41.46963
#
# Poissons Ratio (x) = 0.07474 0.42214
# Poissons Ratio (y) = 0.07474 0.42214
# Poissons Ratio (z) = 0.59725 0.59725
#
# Static dielectric constant tensor:
#      x y z
#    x 1.768390 0.000000 0.000000 
#    y 0.000000 1.768390 0.000000 
#    z 0.000000 0.000000 1.742310 
# 
# From -- ./inp_files/2880.got.cif
#   From: 2010.05.17/outbox.cif.g08.bks.cpg/sg172_2_cif.got.tgz:2880.got - 2010.05.20 11:19:57.
