data_PCOD9580236
_publ_section_title
;
Structure prediction by ZEFSAII (Michael W. Deem and Ramdas Pophale) SiO2 
 PCOD9580236
Probable space group: P 65
;
_chemical_formula_sum "Si O2"
_cell_formula_units_Z 36
_cell_length_a 11.606832
_cell_length_b 11.606832
_cell_length_c 12.382768
_cell_angle_alpha 90.000000
_cell_angle_beta 90.000000
_cell_angle_gamma 120.000000
_cell_volume 1444.693653
_symmetry_space_group_name_H-M "P 65"
_symmetry_group_IT_number 170
_symmetry_cell_setting 'hexagonal'
loop_
_space_group_symop_operation_xyz
x,y,z
x-y,x,5/6+z
-y,x-y,2/3+z
-x,-y,1/2+z
-x+y,-x,1/3+z
y,-x+y,1/6+z
loop_
_atom_site_type_symbol
_atom_site_label
_atom_site_fract_x
_atom_site_fract_y
_atom_site_fract_z
Si Si1 0.393901 0.861430 0.670380
Si Si2 0.718453 0.530797 0.246701
Si Si3 0.897271 0.232045 0.802895
Si Si4 0.935952 0.594009 0.622375
Si Si5 0.197240 0.069065 0.850484
Si Si6 0.807335 0.407487 0.078545
O O1 0.554840 0.935891 0.673882
O O2 0.344687 0.934407 0.586976
O O3 0.350008 0.819881 0.794101
O O4 0.332645 0.720533 0.606866
O O5 0.775857 0.588093 0.363919
O O6 0.563165 0.420291 0.251259
O O7 0.816335 0.500612 0.176770
O O8 0.736743 0.662491 0.187465
O O9 0.798671 0.131078 0.893877
O O10 0.012499 0.205503 0.756540
O O11 0.085317 0.639995 0.587983
O O12 0.157295 0.090207 0.734337
#
# Coordination Sequence:
#
# PCOD9580236 Si02
#       6
#     6   6   6   6   6   6
#     4  11  22  39  56  91 129 167 209 274 325 386
#     4  10  21  39  62  94 122 173 216 263 317 392
#     4  10  20  39  61  88 124 167 221 261 313 395
#     4  11  24  37  64  92 132 172 215 265 330 402
#     4  10  22  40  72  92 119 166 231 270 316 388
#     4  12  23  36  63  89 130 169 212 269 337 387
#
# _framework density 24.918780000000002
#
# number of rings (size 3 to 8) (size 9 to 14) (size 15 to 20)
#    0.000    1.333    3.333    4.000    7.000    0.000 
#    0.000    0.000   14.667    0.000    0.000    0.000 
#    0.000    0.000    0.000    0.000    0.000    0.000 
#
# Total GULP energy -200786.579521 kJ/mol
# GULP energy per Si atom -5577.404987 kJ/mol
# Density = 2.486206 g / cm^3
# Si number density = 24.918780 Si / 1000 Ang^3
#
#
#
# Elastic Constant Matrix: (Units=GPa)
#
#
# Indices 1 2 3 4 5 6 
#
# 1 47.7518 -0.7712 5.7868 0.0000 0.0000 0.0000
# 2 -0.7712 47.7518 5.7868 0.0000 0.0000 0.0000
# 3 5.7868 5.7868 71.1717 0.0000 0.0000 0.0000
# 4 0.0000 0.0000 0.0000 32.7759 0.0000 0.0000
# 5 0.0000 0.0000 0.0000 0.0000 32.7759 0.0000
# 6 0.0000 0.0000 0.0000 0.0000 0.0000 24.2615
#
#
#
# Elastic Compliance Matrix: (Units=1/GPa)
#
#
# Indices 1 2 3 4 5 6 
#
# 1 0.021165 0.000556 -0.001766 0.000000 0.000000 0.000000
# 2 0.000556 0.021165 -0.001766 0.000000 0.000000 0.000000
# 3 -0.001766 -0.001766 0.014338 0.000000 0.000000 0.000000
# 4 0.000000 0.000000 0.000000 0.030510 0.000000 0.000000
# 5 0.000000 0.000000 0.000000 0.000000 0.030510 0.000000
# 6 0.000000 0.000000 0.000000 0.000000 0.000000 0.041218
#
#
# Mechanical properties :
#
#
# Convention : Reuss Voigt Hill
#
# Bulk Modulus (GPa) = 19.71828 20.92004 20.31916
# Shear Modulus (GPa) = 27.50846 28.35418 27.93132
#
# Velocity S-wave (km/s) = 3.32614 3.37688 3.35161
# Velocity P-wave (km/s) = 4.76247 4.85983 4.81140
#
# Compressibility (1/GPa) = 0.05071437
#
# Stress axis : x y z
#
# Youngs Moduli (GPa) = 47.24869 47.24869 69.74611
#
# Poissons Ratio (x) = -0.02626 0.12317
# Poissons Ratio (y) = -0.02626 0.12317
# Poissons Ratio (z) = 0.08344 0.08344
#
# Static dielectric constant tensor:
#      x y z
#    x 2.072770 0.000000 0.000000 
#    y 0.000000 2.072770 0.000000 
#    z 0.000000 0.000000 2.068030 
# 
# From -- ./inp_files/904.got.cif
#   From: 2010.05.17/outbox.cif.g08.bks.cpg/sg170_cif.got.tgz:904.got - 2010.05.20 11:14:30.
