data_PCOD9580625
_publ_section_title
;
Structure prediction by ZEFSAII (Michael W. Deem and Ramdas Pophale) SiO2 
 PCOD9580625
Probable space group: P 62
;
_chemical_formula_sum "Si O2"
_cell_formula_units_Z 39
_cell_length_a 21.890940
_cell_length_b 21.890940
_cell_length_c 5.188249
_cell_angle_alpha 90.000000
_cell_angle_beta 90.000000
_cell_angle_gamma 120.000000
_cell_volume 2153.179637
_symmetry_space_group_name_H-M "P 62"
_symmetry_group_IT_number 171
_symmetry_cell_setting 'hexagonal'
loop_
_space_group_symop_operation_xyz
x,y,z
x-y,x,1/3+z
-y,x-y,2/3+z
-x,-y,z
-x+y,-x,1/3+z
y,-x+y,2/3+z
loop_
_atom_site_type_symbol
_atom_site_label
_atom_site_fract_x
_atom_site_fract_y
_atom_site_fract_z
Si Si1 0.623045 0.490177 0.103350
Si Si2 0.922805 0.294136 0.664393
Si Si3 0.772023 0.169148 0.680833
Si Si4 0.363798 0.347863 0.817360
Si Si5 0.759009 0.240836 0.191024
Si Si6 0.738388 0.386989 0.582664
Si Si7 0.500000 0.000000 0.512953
O O1 0.659584 0.543051 0.341821
O O2 0.596929 0.410566 0.168106
O O3 0.684187 0.514670 0.887766
O O4 0.554468 0.489721 0.012555
O O5 0.858739 0.212390 0.658130
O O6 0.963755 0.324022 0.393114
O O7 0.978210 0.316058 0.897636
O O8 0.720864 0.088320 0.587054
O O9 0.749907 0.207732 0.469902
O O10 0.759448 0.189274 0.968640
O O11 0.441258 0.418394 0.745991
O O12 0.697108 0.256041 0.129666
O O13 0.691295 0.390355 0.358982
#
# Coordination Sequence:
#
# PCOD9580625 Si02
#       7
#     6   6   6   6   6   6   3
#     4  10  22  40  54  79 107 148 187 246 307 354
#     4  10  22  39  57  81 115 144 185 242 283 344
#     4  11  22  40  62  83 113 155 189 232 299 358
#     4  11  23  38  60  86 111 150 195 239 297 345
#     4  11  23  38  57  79 112 145 188 241 296 362
#     4  12  23  36  54  79 106 138 184 238 300 361
#     4  10  22  36  56  74 108 140 198 246 286 348
#
# _framework density 18.112749000000001
#
# number of rings (size 3 to 8) (size 9 to 14) (size 15 to 20)
#    0.000    1.231    1.538    6.462    0.000    6.154 
#    0.000    0.000    0.000    0.000    0.000    0.000 
#    0.000    0.000    0.000    6.923    0.000    0.000 
#
# Total GULP energy -217135.031098 kJ/mol
# GULP energy per Si atom -5567.564900 kJ/mol
# Density = 1.807152 g / cm^3
# Si number density = 18.112749 Si / 1000 Ang^3
#
#
#
# Elastic Constant Matrix: (Units=GPa)
#
#
# Indices 1 2 3 4 5 6 
#
# 1 101.7756 40.6189 15.8023 0.0000 0.0000 0.0000
# 2 40.6189 101.7756 15.8023 0.0000 0.0000 0.0000
# 3 15.8023 15.8023 66.6309 0.0000 0.0000 0.0000
# 4 0.0000 0.0000 0.0000 39.5755 0.0000 0.0000
# 5 0.0000 0.0000 0.0000 0.0000 39.5755 0.0000
# 6 0.0000 0.0000 0.0000 0.0000 0.0000 30.5783
#
#
#
# Elastic Compliance Matrix: (Units=1/GPa)
#
#
# Indices 1 2 3 4 5 6 
#
# 1 0.011882 -0.004469 -0.001758 0.000000 0.000000 0.000000
# 2 -0.004469 0.011882 -0.001758 0.000000 0.000000 0.000000
# 3 -0.001758 -0.001758 0.015842 0.000000 0.000000 0.000000
# 4 0.000000 0.000000 0.000000 0.025268 0.000000 0.000000
# 5 0.000000 0.000000 0.000000 0.000000 0.025268 0.000000
# 6 0.000000 0.000000 0.000000 0.000000 0.000000 0.032703
#
#
# Mechanical properties :
#
#
# Convention : Reuss Voigt Hill
#
# Bulk Modulus (GPa) = 42.30907 46.06986 44.18947
# Shear Modulus (GPa) = 34.08437 35.14312 34.61375
#
# Velocity S-wave (km/s) = 4.34267 4.40960 4.37626
# Velocity P-wave (km/s) = 6.96810 7.17052 7.07003
#
# Compressibility (1/GPa) = 0.02363559
#
# Stress axis : x y z
#
# Youngs Moduli (GPa) = 84.15951 84.15951 63.12354
#
# Poissons Ratio (x) = 0.37613 0.11098
# Poissons Ratio (y) = 0.37613 0.11098
# Poissons Ratio (z) = 0.14796 0.14796
#
# Static dielectric constant tensor:
#      x y z
#    x 1.599200 0.000000 0.000000 
#    y 0.000000 1.599200 0.000000 
#    z 0.000000 0.000000 1.680520 
# 
# From -- ./inp_files/443.got.cif
#   From: 2010.05.17/outbox.cif.g08.bks.cpg/sg171_1_cif.got.tgz:443.got - 2010.05.20 11:16:09.
