data_PCOD9580764
_publ_section_title
;
Structure prediction by ZEFSAII (Michael W. Deem and Ramdas Pophale) SiO2 
 PCOD9580764
Probable space group: P 62
;
_chemical_formula_sum "Si O2"
_cell_formula_units_Z 42
_cell_length_a 20.238416
_cell_length_b 20.238416
_cell_length_c 5.326575
_cell_angle_alpha 90.000000
_cell_angle_beta 90.000000
_cell_angle_gamma 120.000000
_cell_volume 1889.433953
_symmetry_space_group_name_H-M "P 62"
_symmetry_group_IT_number 171
_symmetry_cell_setting 'hexagonal'
loop_
_space_group_symop_operation_xyz
x,y,z
x-y,x,1/3+z
-y,x-y,2/3+z
-x,-y,z
-x+y,-x,1/3+z
y,-x+y,2/3+z
loop_
_atom_site_type_symbol
_atom_site_label
_atom_site_fract_x
_atom_site_fract_y
_atom_site_fract_z
Si Si1 0.027751 0.426470 0.151540
Si Si2 0.666196 0.455506 0.327218
Si Si3 0.582581 0.952704 0.991103
Si Si4 0.873708 0.883766 0.498254
Si Si5 0.624534 0.195225 0.502350
Si Si6 0.122519 0.242270 0.158385
Si Si7 0.728219 0.011129 0.716298
O O1 0.980866 0.420530 0.404094
O O2 0.886593 0.504712 0.133181
O O3 0.026051 0.346083 0.175002
O O4 0.981113 0.420169 0.904970
O O5 0.679692 0.541080 0.346753
O O6 0.739825 0.450320 0.243081
O O7 0.625142 0.409152 0.586101
O O8 0.611098 0.420995 0.087982
O O9 0.674411 0.995677 0.958939
O O10 0.894298 0.963585 0.384005
O O11 0.789671 0.848161 0.610818
O O12 0.878947 0.829095 0.296741
O O13 0.205476 0.277200 0.029655
O O14 0.086304 0.274699 0.361015
#
# Coordination Sequence:
#
# PCOD9580764 Si02
#       7
#     6   6   6   6   6   6   6
#     4  10  25  46  73 110 142 196 245 307 370 449
#     4  12  26  47  77 113 155 199 248 310 381 458
#     4  10  25  46  73 110 142 196 245 307 370 449
#     4  12  24  39  56  88 120 172 243 288 380 414
#     4  12  26  47  77 113 155 199 248 310 381 458
#     4  12  24  43  64  88 126 188 218 316 348 448
#     4  10  26  44  68  98 140 182 252 296 386 438
#
# _framework density 22.228877000000001
#
# number of rings (size 3 to 8) (size 9 to 14) (size 15 to 20)
#    0.857    0.000    2.857    3.429    4.000    6.286 
#    0.000    2.857    0.000    0.000    0.000    0.000 
#    0.000    0.000    0.000    0.000    0.000    0.000 
#
# Total GULP energy -234120.469043 kJ/mol
# GULP energy per Si atom -5574.296882 kJ/mol
# Density = 2.217828 g / cm^3
# Si number density = 22.228877 Si / 1000 Ang^3
#
#
#
# Elastic Constant Matrix: (Units=GPa)
#
#
# Indices 1 2 3 4 5 6 
#
# 1 72.8864 44.8263 13.3544 0.0000 0.0000 0.0000
# 2 44.8263 72.8864 13.3544 0.0000 0.0000 0.0000
# 3 13.3544 13.3544 124.0940 0.0000 0.0000 0.0000
# 4 0.0000 0.0000 0.0000 53.5325 0.0000 0.0000
# 5 0.0000 0.0000 0.0000 0.0000 53.5325 0.0000
# 6 0.0000 0.0000 0.0000 0.0000 0.0000 14.0301
#
#
#
# Elastic Compliance Matrix: (Units=1/GPa)
#
#
# Indices 1 2 3 4 5 6 
#
# 1 0.022173 -0.013465 -0.000937 0.000000 0.000000 0.000000
# 2 -0.013465 0.022173 -0.000937 0.000000 0.000000 0.000000
# 3 -0.000937 -0.000937 0.008260 0.000000 0.000000 0.000000
# 4 0.000000 0.000000 0.000000 0.018680 0.000000 0.000000
# 5 0.000000 0.000000 0.000000 0.000000 0.018680 0.000000
# 6 0.000000 0.000000 0.000000 0.000000 0.000000 0.071275
#
#
# Mechanical properties :
#
#
# Convention : Reuss Voigt Hill
#
# Bulk Modulus (GPa) = 45.60492 45.88191 45.74341
# Shear Modulus (GPa) = 25.09676 37.44115 31.26895
#
# Velocity S-wave (km/s) = 3.36373 4.10853 3.75464
# Velocity P-wave (km/s) = 5.97050 6.57208 6.27850
#
# Compressibility (1/GPa) = 0.02192746
#
# Stress axis : x y z
#
# Youngs Moduli (GPa) = 45.10032 45.10032 121.06385
#
# Poissons Ratio (x) = 0.60727 0.11345
# Poissons Ratio (y) = 0.60727 0.11345
# Poissons Ratio (z) = 0.04226 0.04226
#
# Static dielectric constant tensor:
#      x y z
#    x 1.866750 0.000000 0.000000 
#    y 0.000000 1.866750 0.000000 
#    z 0.000000 0.000000 1.871410 
# 
# From -- ./inp_files/4294.got.cif
#   From: 2010.05.17/outbox.cif.g08.bks.cpg/sg171_3_cif.got.tgz:4294.got - 2010.05.20 11:16:09.
