data_PCOD9580324
_publ_section_title
;
Structure prediction by ZEFSAII (Michael W. Deem and Ramdas Pophale) SiO2 
 PCOD9580324
Probable space group: P 65
;
_chemical_formula_sum "Si O2"
_cell_formula_units_Z 48
_cell_length_a 16.001358
_cell_length_b 16.001358
_cell_length_c 11.271374
_cell_angle_alpha 90.000000
_cell_angle_beta 90.000000
_cell_angle_gamma 120.000000
_cell_volume 2499.316037
_symmetry_space_group_name_H-M "P 65"
_symmetry_group_IT_number 170
_symmetry_cell_setting 'hexagonal'
loop_
_space_group_symop_operation_xyz
x,y,z
x-y,x,5/6+z
-y,x-y,2/3+z
-x,-y,1/2+z
-x+y,-x,1/3+z
y,-x+y,1/6+z
loop_
_atom_site_type_symbol
_atom_site_label
_atom_site_fract_x
_atom_site_fract_y
_atom_site_fract_z
Si Si1 0.650169 0.108724 0.025950
Si Si2 0.820245 0.874903 0.183356
Si Si3 0.252828 0.687602 0.191104
Si Si4 0.903184 0.356022 0.086000
Si Si5 0.778099 0.171218 0.246775
Si Si6 0.681169 0.240681 0.436916
Si Si7 0.125573 0.180392 0.916162
Si Si8 0.225488 0.387909 0.036588
O O1 0.687041 0.108360 0.159459
O O2 0.608124 0.180858 0.013781
O O3 0.747149 0.151248 0.948603
O O4 0.575211 0.005443 0.974222
O O5 0.715334 0.833711 0.127417
O O6 0.811448 0.811339 0.299588
O O7 0.866109 0.980093 0.246678
O O8 0.352035 0.698209 0.239281
O O9 0.203869 0.728717 0.277774
O O10 0.281527 0.747883 0.070277
O O11 0.852226 0.263770 0.171561
O O12 0.833400 0.401282 0.083770
O O13 0.907934 0.312157 0.958660
O O14 0.739746 0.208863 0.352787
O O15 0.020154 0.134643 0.852950
O O16 0.167938 0.285201 0.973255
#
# Coordination Sequence:
#
# PCOD9580324 Si02
#       8
#     6   6   6   6   6   6   6   6
#     4  11  23  42  66  98 134 175 230 280 327 409
#     4  10  23  45  67  96 136 170 225 285 347 418
#     4  12  22  44  68  95 136 185 223 278 337 416
#     4  11  23  42  66  98 134 175 230 280 327 409
#     4  11  23  42  68  95 139 173 225 279 348 396
#     4  12  22  44  68  95 136 185 223 278 337 416
#     4  10  23  45  67  96 136 170 225 285 347 418
#     4  11  23  42  68  95 139 173 225 279 348 396
#
# _framework density 19.205252999999999
#
# number of rings (size 3 to 8) (size 9 to 14) (size 15 to 20)
#    0.000    1.000    5.000    2.250    3.500    1.000 
#    9.000   21.250    0.000    0.000    0.000    0.000 
#    0.000    0.000    0.000    0.000    0.000    0.000 
#
# Total GULP energy -268038.526038 kJ/mol
# GULP energy per Si atom -5584.135959 kJ/mol
# Density = 1.916154 g / cm^3
# Si number density = 19.205253 Si / 1000 Ang^3
#
#
#
# Elastic Constant Matrix: (Units=GPa)
#
#
# Indices 1 2 3 4 5 6 
#
# 1 157.4980 -64.3460 13.2949 0.0000 0.0000 0.0000
# 2 -64.3460 157.4981 13.2949 0.0000 0.0000 0.0000
# 3 13.2949 13.2949 37.0470 0.0000 0.0000 0.0000
# 4 0.0000 0.0000 0.0000 19.6662 0.0000 0.0000
# 5 0.0000 0.0000 0.0000 0.0000 19.6662 0.0000
# 6 0.0000 0.0000 0.0000 0.0000 0.0000 110.9220
#
#
#
# Elastic Compliance Matrix: (Units=1/GPa)
#
#
# Indices 1 2 3 4 5 6 
#
# 1 0.008234 0.003726 -0.004292 0.000000 0.000000 0.000000
# 2 0.003726 0.008234 -0.004292 0.000000 0.000000 0.000000
# 3 -0.004292 -0.004292 0.030073 0.000000 0.000000 0.000000
# 4 0.000000 0.000000 0.000000 0.050849 0.000000 0.000000
# 5 0.000000 0.000000 0.000000 0.000000 0.050849 0.000000
# 6 0.000000 0.000000 0.000000 0.000000 0.000000 0.009015
#
#
# Mechanical properties :
#
#
# Convention : Reuss Voigt Hill
#
# Bulk Modulus (GPa) = 27.15517 30.72562 28.94039
# Shear Modulus (GPa) = 27.89478 56.03751 41.96614
#
# Velocity S-wave (km/s) = 3.81524 5.40755 4.67962
# Velocity P-wave (km/s) = 5.79468 7.41768 6.65584
#
# Compressibility (1/GPa) = 0.03682541
#
# Stress axis : x y z
#
# Youngs Moduli (GPa) = 121.44789 121.44789 33.25207
#
# Poissons Ratio (x) = -0.45255 0.14272
# Poissons Ratio (y) = -0.45255 0.14272
# Poissons Ratio (z) = 0.52127 0.52127
#
# Static dielectric constant tensor:
#      x y z
#    x 1.643090 0.000000 0.000000 
#    y 0.000000 1.643090 0.000000 
#    z 0.000000 0.000000 1.703880 
# 
# From -- ./inp_files/1095.got.cif
#   From: 2010.05.17/outbox.cif.g08.bks.cpg/sg170_cif.got.tgz:1095.got - 2010.05.20 11:14:30.
