data_PCOD9580109
_publ_section_title
;
Structure prediction by ZEFSAII (Michael W. Deem and Ramdas Pophale) SiO2 
 PCOD9580109
Probable space group: P 61
;
_chemical_formula_sum "Si O2"
_cell_formula_units_Z 36
_cell_length_a 14.188460
_cell_length_b 14.188460
_cell_length_c 9.126455
_cell_angle_alpha 90.000000
_cell_angle_beta 90.000000
_cell_angle_gamma 120.000000
_cell_volume 1591.121224
_symmetry_space_group_name_H-M "P 61"
_symmetry_group_IT_number 169
_symmetry_cell_setting 'hexagonal'
loop_
_space_group_symop_operation_xyz
x,y,z
x-y,x,1/6+z
-y,x-y,1/3+z
-x,-y,1/2+z
-x+y,-x,2/3+z
y,-x+y,5/6+z
loop_
_atom_site_type_symbol
_atom_site_label
_atom_site_fract_x
_atom_site_fract_y
_atom_site_fract_z
Si Si1 0.043545 0.501976 0.985170
Si Si2 0.703749 0.176158 0.933709
Si Si3 0.852131 0.568884 0.732330
Si Si4 0.412392 0.617146 0.809874
Si Si5 0.333644 0.043973 0.126165
Si Si6 0.057134 0.219215 0.720627
O O1 0.087396 0.502375 0.822978
O O2 0.915364 0.427740 0.977282
O O3 0.100707 0.455766 0.089298
O O4 0.065562 0.619710 0.034738
O O5 0.725342 0.286195 0.012890
O O6 0.698207 0.204066 0.764537
O O7 0.786240 0.129653 0.948585
O O8 0.780353 0.456132 0.820970
O O9 0.789294 0.634392 0.709858
O O10 0.949375 0.643004 0.843733
O O11 0.238998 0.005571 0.246198
O O12 0.137176 0.175727 0.664229
#
# Coordination Sequence:
#
# PCOD9580109 Si02
#       6
#     6   6   6   6   6   6
#     4  11  26  41  67 100 145 181 233 289 353 445
#     4  12  26  44  72 103 147 186 236 297 367 438
#     4  11  25  41  70  99 143 184 238 284 366 429
#     4  11  25  43  65 102 137 186 228 285 357 441
#     4  11  23  42  70 102 139 191 234 299 361 433
#     4  12  25  51  78 104 139 200 253 312 372 432
#
# _framework density 22.625554000000001
#
# number of rings (size 3 to 8) (size 9 to 14) (size 15 to 20)
#    0.000    0.667    5.000    3.000   11.667    0.000 
#    0.000    3.333    0.000    0.000    0.000    0.000 
#    0.000    0.000    0.000    0.000    0.000    0.000 
#
# Total GULP energy -201287.548838 kJ/mol
# GULP energy per Si atom -5591.320801 kJ/mol
# Density = 2.257406 g / cm^3
# Si number density = 22.625554 Si / 1000 Ang^3
#
#
#
# Elastic Constant Matrix: (Units=GPa)
#
#
# Indices 1 2 3 4 5 6 
#
# 1 113.4639 47.8769 7.4852 0.0000 0.0000 0.0000
# 2 47.8769 113.4639 7.4852 0.0000 0.0000 0.0000
# 3 7.4852 7.4852 33.3963 0.0000 0.0000 0.0000
# 4 0.0000 0.0000 0.0000 30.6411 0.0000 0.0000
# 5 0.0000 0.0000 0.0000 0.0000 30.6411 0.0000
# 6 0.0000 0.0000 0.0000 0.0000 0.0000 32.7935
#
#
#
# Elastic Compliance Matrix: (Units=1/GPa)
#
#
# Indices 1 2 3 4 5 6 
#
# 1 0.010788 -0.004459 -0.001419 0.000000 0.000000 0.000000
# 2 -0.004459 0.010788 -0.001419 0.000000 0.000000 0.000000
# 3 -0.001419 -0.001419 0.030579 0.000000 0.000000 0.000000
# 4 0.000000 0.000000 0.000000 0.032636 0.000000 0.000000
# 5 0.000000 0.000000 0.000000 0.000000 0.032636 0.000000
# 6 0.000000 0.000000 0.000000 0.000000 0.000000 0.030494
#
#
# Mechanical properties :
#
#
# Convention : Reuss Voigt Hill
#
# Bulk Modulus (GPa) = 26.62121 42.89096 34.75608
# Shear Modulus (GPa) = 28.56572 31.98027 30.27300
#
# Velocity S-wave (km/s) = 3.55708 3.76368 3.66184
# Velocity P-wave (km/s) = 5.35369 6.15508 5.76832
#
# Compressibility (1/GPa) = 0.03756404
#
# Stress axis : x y z
#
# Youngs Moduli (GPa) = 92.69296 92.69296 32.70175
#
# Poissons Ratio (x) = 0.41328 0.04639
# Poissons Ratio (y) = 0.41328 0.04639
# Poissons Ratio (z) = 0.13150 0.13150
#
# Static dielectric constant tensor:
#      x y z
#    x 1.855270 0.000000 0.000000 
#    y 0.000000 1.855270 0.000000 
#    z 0.000000 0.000000 1.857490 
# 
# From -- ./inp_files/612.got.cif
#   From: 2010.05.17/outbox.cif.g08.bks.cpg/sg169_cif.got.tgz:612.got - 2010.05.20 11:12:54.
