data_PCOD9580276
_publ_section_title
;
Structure prediction by ZEFSAII (Michael W. Deem and Ramdas Pophale) SiO2 
 PCOD9580276
Probable space group: P 65
;
_chemical_formula_sum "Si O2"
_cell_formula_units_Z 42
_cell_length_a 15.051542
_cell_length_b 15.051542
_cell_length_c 11.195086
_cell_angle_alpha 90.000000
_cell_angle_beta 90.000000
_cell_angle_gamma 120.000000
_cell_volume 2196.443597
_symmetry_space_group_name_H-M "P 65"
_symmetry_group_IT_number 170
_symmetry_cell_setting 'hexagonal'
loop_
_space_group_symop_operation_xyz
x,y,z
x-y,x,5/6+z
-y,x-y,2/3+z
-x,-y,1/2+z
-x+y,-x,1/3+z
y,-x+y,1/6+z
loop_
_atom_site_type_symbol
_atom_site_label
_atom_site_fract_x
_atom_site_fract_y
_atom_site_fract_z
Si Si1 0.463292 0.882731 0.042400
Si Si2 0.740253 0.103615 0.225649
Si Si3 0.131135 0.737612 0.907736
Si Si4 0.393523 0.262388 0.194369
Si Si5 0.246397 0.492795 0.801052
Si Si6 0.259747 0.363362 0.209789
Si Si7 0.463291 0.580561 0.893038
O O1 0.517806 0.866356 0.158040
O O2 0.346706 0.793032 0.051643
O O3 0.486368 0.000000 0.051052
O O4 0.528353 0.879458 0.928829
O O5 0.782377 0.155204 0.352968
O O6 0.833643 0.166357 0.134386
O O7 0.648896 0.120543 0.173276
O O8 0.699596 0.983661 0.225217
O O9 0.154747 0.727648 0.043622
O O10 0.300404 0.284065 0.210221
O O11 0.372826 0.155204 0.249137
O O12 0.482195 0.348551 0.277398
O O13 0.427098 0.272351 0.058483
O O14 0.346706 0.553674 0.883795
#
# Coordination Sequence:
#
# PCOD9580276 Si02
#       7
#     6   6   6   6   6   6   6
#     4   9  21  39  56  80 120 155 197 231 277 339
#     4   9  19  40  62  84 111 153 203 239 280 343
#     4  10  22  36  59  89 116 153 196 235 292 342
#     4  10  22  36  59  89 116 153 196 235 292 342
#     4  12  24  34  56  88 124 154 188 236 296 340
#     4   9  19  40  62  84 111 153 203 239 280 343
#     4   9  21  39  56  80 120 155 197 231 277 339
#
# _framework density 19.121818999999999
#
# number of rings (size 3 to 8) (size 9 to 14) (size 15 to 20)
#    0.000    2.286    0.000    3.429    4.000    8.000 
#    0.000    0.000    0.000    0.000   18.571    0.000 
#    0.000    0.000    0.000    0.000    0.000    0.000 
#
# Total GULP energy -234340.609739 kJ/mol
# GULP energy per Si atom -5579.538327 kJ/mol
# Density = 1.907830 g / cm^3
# Si number density = 19.121819 Si / 1000 Ang^3
#
#
#
# Elastic Constant Matrix: (Units=GPa)
#
#
# Indices 1 2 3 4 5 6 
#
# 1 88.3663 51.4578 13.0104 0.0000 0.0000 0.0000
# 2 51.4578 88.3663 13.0104 0.0000 0.0000 0.0000
# 3 13.0104 13.0104 55.9573 0.0000 0.0000 0.0000
# 4 0.0000 0.0000 0.0000 9.2089 0.0000 0.0000
# 5 0.0000 0.0000 0.0000 0.0000 9.2089 0.0000
# 6 0.0000 0.0000 0.0000 0.0000 0.0000 18.4542
#
#
#
# Elastic Compliance Matrix: (Units=1/GPa)
#
#
# Indices 1 2 3 4 5 6 
#
# 1 0.017285 -0.009809 -0.001738 0.000000 0.000000 0.000000
# 2 -0.009809 0.017285 -0.001738 0.000000 0.000000 0.000000
# 3 -0.001738 -0.001738 0.018679 0.000000 0.000000 0.000000
# 4 0.000000 0.000000 0.000000 0.108591 0.000000 0.000000
# 5 0.000000 0.000000 0.000000 0.000000 0.108591 0.000000
# 6 0.000000 0.000000 0.000000 0.000000 0.000000 0.054188
#
#
# Mechanical properties :
#
#
# Convention : Reuss Voigt Hill
#
# Bulk Modulus (GPa) = 37.48498 43.07193 40.27846
# Shear Modulus (GPa) = 13.88574 17.72182 15.80378
#
# Velocity S-wave (km/s) = 2.69768 3.04762 2.87797
# Velocity P-wave (km/s) = 5.41748 5.91252 5.67041
#
# Compressibility (1/GPa) = 0.02667735
#
# Stress axis : x y z
#
# Youngs Moduli (GPa) = 57.85476 57.85476 53.53610
#
# Poissons Ratio (x) = 0.56752 0.09305
# Poissons Ratio (y) = 0.56752 0.09305
# Poissons Ratio (z) = 0.10055 0.10055
#
# Static dielectric constant tensor:
#      x y z
#    x 1.676600 0.000000 0.000000 
#    y 0.000000 1.676600 0.000000 
#    z 0.000000 0.000000 1.692190 
# 
# From -- ./inp_files/966.got.cif
#   From: 2010.05.17/outbox.cif.g08.bks.cpg/sg170_cif.got.tgz:966.got - 2010.05.20 11:14:30.
