data_PCOD9580332
_publ_section_title
;
Structure prediction by ZEFSAII (Michael W. Deem and Ramdas Pophale) SiO2 
 PCOD9580332
Probable space group: P 65
;
_chemical_formula_sum "Si O2"
_cell_formula_units_Z 42
_cell_length_a 8.703827
_cell_length_b 8.703827
_cell_length_c 29.066170
_cell_angle_alpha 90.000000
_cell_angle_beta 90.000000
_cell_angle_gamma 120.000000
_cell_volume 1906.948399
_symmetry_space_group_name_H-M "P 65"
_symmetry_group_IT_number 170
_symmetry_cell_setting 'hexagonal'
loop_
_space_group_symop_operation_xyz
x,y,z
x-y,x,5/6+z
-y,x-y,2/3+z
-x,-y,1/2+z
-x+y,-x,1/3+z
y,-x+y,1/6+z
loop_
_atom_site_type_symbol
_atom_site_label
_atom_site_fract_x
_atom_site_fract_y
_atom_site_fract_z
Si Si1 0.939146 0.504280 0.511870
Si Si2 0.806328 0.571535 0.777857
Si Si3 0.246560 0.258000 0.729728
Si Si4 0.339326 0.508078 0.584998
Si Si5 0.103030 0.157108 0.827838
Si Si6 0.720300 0.812437 0.844126
Si Si7 0.955274 0.400189 0.844169
O O1 0.933825 0.395870 0.557126
O O2 0.911585 0.374493 0.469506
O O3 0.770940 0.531601 0.515021
O O4 0.109965 0.696827 0.502262
O O5 0.659159 0.374313 0.759763
O O6 0.717662 0.662628 0.809911
O O7 0.912411 0.686898 0.732694
O O8 0.932068 0.533052 0.810708
O O9 0.362849 0.166838 0.716611
O O10 0.189372 0.171441 0.779226
O O11 0.073157 0.219226 0.702127
O O12 0.521765 0.565640 0.559483
O O13 0.077146 0.325742 0.825378
O O14 0.915077 0.979906 0.834969
#
# Coordination Sequence:
#
# PCOD9580332 Si02
#       7
#     6   6   6   6   6   6   6
#     4  10  24  45  71 103 147 193 246 311 371 458
#     4  11  25  46  76 109 146 192 254 308 381 453
#     4  12  23  46  67 109 140 194 247 306 370 455
#     4  11  24  45  69 106 146 188 250 306 375 441
#     4  11  26  42  77 101 151 193 245 303 381 437
#     4  11  24  46  75 107 147 201 247 309 384 450
#     4  10  26  46  69 105 147 193 247 307 374 456
#
# _framework density 22.024716000000002
#
# number of rings (size 3 to 8) (size 9 to 14) (size 15 to 20)
#    0.000    1.143    2.857    1.714   10.000    3.429 
#    5.143    0.000    0.000    0.000    0.000    0.000 
#    0.000    0.000    0.000    0.000    0.000    0.000 
#
# Total GULP energy -233872.637193 kJ/mol
# GULP energy per Si atom -5568.396124 kJ/mol
# Density = 2.197459 g / cm^3
# Si number density = 22.024716 Si / 1000 Ang^3
#
#
#
# Elastic Constant Matrix: (Units=GPa)
#
#
# Indices 1 2 3 4 5 6 
#
# 1 135.8605 -27.8098 49.0629 0.0000 0.0000 0.0000
# 2 -27.8098 135.8605 49.0629 0.0000 0.0000 0.0000
# 3 49.0629 49.0629 113.6048 0.0000 0.0000 0.0000
# 4 0.0000 0.0000 0.0000 37.7276 0.0000 0.0000
# 5 0.0000 0.0000 0.0000 0.0000 37.7276 0.0000
# 6 0.0000 0.0000 0.0000 0.0000 0.0000 81.8351
#
#
#
# Elastic Compliance Matrix: (Units=1/GPa)
#
#
# Indices 1 2 3 4 5 6 
#
# 1 0.010668 0.004559 -0.006576 0.000000 0.000000 0.000000
# 2 0.004559 0.010668 -0.006576 0.000000 0.000000 0.000000
# 3 -0.006576 -0.006576 0.014483 0.000000 0.000000 0.000000
# 4 0.000000 0.000000 0.000000 0.026506 0.000000 0.000000
# 5 0.000000 0.000000 0.000000 0.000000 0.026506 0.000000
# 6 0.000000 0.000000 0.000000 0.000000 0.000000 0.012220
#
#
# Mechanical properties :
#
#
# Convention : Reuss Voigt Hill
#
# Bulk Modulus (GPa) = 53.67105 58.43976 56.05541
# Shear Modulus (GPa) = 40.17719 52.45872 46.31795
#
# Velocity S-wave (km/s) = 4.27568 4.88567 4.59082
# Velocity P-wave (km/s) = 6.98547 7.64315 7.32170
#
# Compressibility (1/GPa) = 0.01863202
#
# Stress axis : x y z
#
# Youngs Moduli (GPa) = 93.73456 93.73456 69.04860
#
# Poissons Ratio (x) = -0.42730 0.45407
# Poissons Ratio (y) = -0.42730 0.45407
# Poissons Ratio (z) = 0.61641 0.61641
#
# Static dielectric constant tensor:
#      x y z
#    x 1.870040 0.000000 0.000000 
#    y 0.000000 1.870040 0.000000 
#    z 0.000000 0.000000 1.858640 
# 
# From -- ./inp_files/1937.got.cif
#   From: 2010.05.17/outbox.cif.g08.bks.cpg/sg170_cif.got.tgz:1937.got - 2010.05.20 11:14:30.
