data_PCOD9580847
_publ_section_title
;
Structure prediction by ZEFSAII (Michael W. Deem and Ramdas Pophale) SiO2 
 PCOD9580847
Probable space group: P 62
;
_chemical_formula_sum "Si O2"
_cell_formula_units_Z 33
_cell_length_a 11.728683
_cell_length_b 11.728683
_cell_length_c 11.833677
_cell_angle_alpha 90.000000
_cell_angle_beta 90.000000
_cell_angle_gamma 120.000000
_cell_volume 1409.771867
_symmetry_space_group_name_H-M "P 62"
_symmetry_group_IT_number 171
_symmetry_cell_setting 'hexagonal'
loop_
_space_group_symop_operation_xyz
x,y,z
x-y,x,1/3+z
-y,x-y,2/3+z
-x,-y,z
-x+y,-x,1/3+z
y,-x+y,2/3+z
loop_
_atom_site_type_symbol
_atom_site_label
_atom_site_fract_x
_atom_site_fract_y
_atom_site_fract_z
Si Si1 0.874763 0.256207 0.697500
Si Si2 0.743299 0.599976 0.915246
Si Si3 0.599983 0.743304 0.241946
Si Si4 0.699104 0.398198 0.745264
Si Si5 0.381454 0.256210 0.793033
Si Si6 0.500000 0.000000 0.745258
O O1 0.853213 0.174780 0.813515
O O2 0.787084 0.328507 0.717046
O O3 0.819736 0.180261 0.578601
O O4 0.029218 0.335803 0.669096
O O5 0.765324 0.493311 0.852090
O O6 0.617522 0.528727 0.997038
O O7 0.528764 0.617533 0.160144
O O8 0.853197 0.678423 0.010355
O O9 0.493299 0.765305 0.305095
O O10 0.541433 0.328508 0.773488
O O11 0.306598 0.335811 0.821434
#
# Coordination Sequence:
#
# PCOD9580847 Si02
#       6
#     6   6   6   6   6   3
#     4  12  22  41  65  97 137 191 234 279 356 423
#     4  12  24  39  64  95 141 186 233 286 348 430
#     4  12  24  39  64  95 141 186 233 286 348 430
#     4  12  23  36  63 102 143 184 228 293 350 426
#     4  12  22  41  65  97 137 191 234 279 356 423
#     4  12  18  44  60  94 136 182 236 266 350 422
#
# _framework density 23.408041999999998
#
# number of rings (size 3 to 8) (size 9 to 14) (size 15 to 20)
#    0.000    0.000    7.273    4.364    0.000    1.455 
#    0.000    7.273    0.000    0.000    0.000   12.727 
#    0.000    0.000    0.000    0.000    0.000    0.000 
#
# Total GULP energy -183975.278998 kJ/mol
# GULP energy per Si atom -5575.008454 kJ/mol
# Density = 2.335476 g / cm^3
# Si number density = 23.408042 Si / 1000 Ang^3
#
#
#
# Elastic Constant Matrix: (Units=GPa)
#
#
# Indices 1 2 3 4 5 6 
#
# 1 92.5781 31.5449 44.4043 0.0000 0.0000 0.0000
# 2 31.5449 92.5781 44.4043 0.0000 0.0000 0.0000
# 3 44.4043 44.4043 140.5428 0.0000 0.0000 0.0000
# 4 0.0000 0.0000 0.0000 -127.4897 0.0000 0.0000
# 5 0.0000 0.0000 0.0000 0.0000 -127.4897 0.0000
# 6 0.0000 0.0000 0.0000 0.0000 0.0000 30.5166
#
#
#
# Elastic Compliance Matrix: (Units=1/GPa)
#
#
# Indices 1 2 3 4 5 6 
#
# 1 0.013397 -0.002987 -0.003289 0.000000 0.000000 0.000000
# 2 -0.002987 0.013397 -0.003289 0.000000 0.000000 0.000000
# 3 -0.003289 -0.003289 0.009194 0.000000 0.000000 0.000000
# 4 0.000000 0.000000 0.000000 -0.007844 0.000000 0.000000
# 5 0.000000 0.000000 0.000000 0.000000 -0.007844 0.000000
# 6 0.000000 0.000000 0.000000 0.000000 0.000000 0.032769
#
#
# Mechanical properties :
#
#
# Convention : Reuss Voigt Hill
#
# Bulk Modulus (GPa) = 59.32168 62.93398 61.12783
# Shear Modulus (GPa) = 64.25169 -31.20288 16.52441
#
# Velocity S-wave (km/s) = 5.24482 -3.65499 2.65981
# Velocity P-wave (km/s) = 7.87877 3.02194 5.96687
#
# Compressibility (1/GPa) = 0.01685724
#
# Stress axis : x y z
#
# Youngs Moduli (GPa) = 74.64286 74.64286 108.77211
#
# Poissons Ratio (x) = 0.22299 0.35774
# Poissons Ratio (y) = 0.22299 0.35774
# Poissons Ratio (z) = 0.24550 0.24550
#
# Static dielectric constant tensor:
#      x y z
#    x 2.218620 0.000000 0.000000 
#    y 0.000000 2.218620 0.000000 
#    z 0.000000 0.000000 2.011980 
# 
# From -- ./inp_files/1526.got.cif
#   From: 2010.05.17/outbox.cif.g08.bks.cpg/sg171_1_cif.got.tgz:1526.got - 2010.05.20 11:16:09.
