data_PCOD9580951
_publ_section_title
;
Structure prediction by ZEFSAII (Michael W. Deem and Ramdas Pophale) SiO2 
 PCOD9580951
Probable space group: P 64
;
_chemical_formula_sum "Si O2"
_cell_formula_units_Z 45
_cell_length_a 11.248469
_cell_length_b 11.248469
_cell_length_c 16.873981
_cell_angle_alpha 90.000000
_cell_angle_beta 90.000000
_cell_angle_gamma 120.000000
_cell_volume 1848.991944
_symmetry_space_group_name_H-M "P 64"
_symmetry_group_IT_number 172
_symmetry_cell_setting 'hexagonal'
loop_
_space_group_symop_operation_xyz
x,y,z
x-y,x,2/3+z
-y,x-y,1/3+z
-x,-y,z
-x+y,-x,2/3+z
y,-x+y,1/3+z
loop_
_atom_site_type_symbol
_atom_site_label
_atom_site_fract_x
_atom_site_fract_y
_atom_site_fract_z
Si Si1 0.141441 0.121978 0.730940
Si Si2 0.788739 0.152332 0.308705
Si Si3 0.262362 0.324262 0.855724
Si Si4 0.220061 0.266700 0.247905
Si Si5 0.651740 0.267352 0.999077
Si Si6 0.955494 0.605074 0.227503
Si Si7 0.310892 0.707389 0.488755
Si Si8 0.500000 0.000000 0.540944
O O1 0.102991 0.231835 0.696328
O O2 0.258571 0.215365 0.792784
O O3 0.198263 0.069665 0.659319
O O4 0.000000 0.000000 0.765270
O O5 0.743215 0.249048 0.349690
O O6 0.904282 0.260895 0.249562
O O7 0.674782 0.022856 0.263809
O O8 0.321764 0.477703 0.826899
O O9 0.099602 0.256244 0.877177
O O10 0.140210 0.331680 0.198034
O O11 0.371050 0.397058 0.261194
O O12 0.648775 0.127448 0.974297
O O13 0.686377 0.340822 0.913386
O O14 0.711299 0.326384 0.086554
O O15 0.000000 0.500000 0.189349
O O16 0.415336 0.870015 0.484765
#
# Coordination Sequence:
#
# PCOD9580951 Si02
#       8
#     6   6   6   6   6   6   6   3
#     4  11  22  38  66  99 140 176 228 299 362 430
#     4  10  22  42  64  99 137 177 232 288 361 424
#     4  11  24  42  67 108 138 186 238 301 368 437
#     4  10  21  41  68  93 135 184 231 292 357 431
#     4  11  23  47  70 104 141 195 237 297 365 432
#     4   9  20  39  68  92 137 181 231 288 350 422
#     4  11  25  45  74 103 147 191 248 303 367 443
#     4  10  22  46  70  96 140 192 238 304 360 436
#
# _framework density 24.337586000000002
#
# number of rings (size 3 to 8) (size 9 to 14) (size 15 to 20)
#    0.000    1.600    4.000    0.000    3.733    3.733 
#    2.400    2.667    2.933    0.000    0.000    0.000 
#    0.000    0.000    0.000    0.000    0.000    0.000 
#
# Total GULP energy -250700.925776 kJ/mol
# GULP energy per Si atom -5571.131684 kJ/mol
# Density = 2.428219 g / cm^3
# Si number density = 24.337586 Si / 1000 Ang^3
#
#
#
# Elastic Constant Matrix: (Units=GPa)
#
#
# Indices 1 2 3 4 5 6 
#
# 1 53.9882 14.1167 12.5592 0.0000 0.0000 0.0000
# 2 14.1167 53.9882 12.5592 0.0000 0.0000 0.0000
# 3 12.5592 12.5592 84.9594 0.0000 0.0000 0.0000
# 4 0.0000 0.0000 0.0000 17.2605 0.0000 0.0000
# 5 0.0000 0.0000 0.0000 0.0000 17.2605 0.0000
# 6 0.0000 0.0000 0.0000 0.0000 0.0000 19.9357
#
#
#
# Elastic Compliance Matrix: (Units=1/GPa)
#
#
# Indices 1 2 3 4 5 6 
#
# 1 0.020305 -0.004775 -0.002296 0.000000 0.000000 0.000000
# 2 -0.004775 0.020305 -0.002296 0.000000 0.000000 0.000000
# 3 -0.002296 -0.002296 0.012449 0.000000 0.000000 0.000000
# 4 0.000000 0.000000 0.000000 0.057936 0.000000 0.000000
# 5 0.000000 0.000000 0.000000 0.000000 0.057936 0.000000
# 6 0.000000 0.000000 0.000000 0.000000 0.000000 0.050161
#
#
# Mechanical properties :
#
#
# Convention : Reuss Voigt Hill
#
# Bulk Modulus (GPa) = 29.13239 30.15621 29.64430
# Shear Modulus (GPa) = 20.05875 21.13806 20.59840
#
# Velocity S-wave (km/s) = 2.87398 2.95029 2.91239
# Velocity P-wave (km/s) = 4.79678 4.90136 4.84935
#
# Compressibility (1/GPa) = 0.03432605
#
# Stress axis : x y z
#
# Youngs Moduli (GPa) = 49.24829 49.24829 80.32737
#
# Poissons Ratio (x) = 0.23518 0.18441
# Poissons Ratio (y) = 0.23518 0.18441
# Poissons Ratio (z) = 0.11306 0.11306
#
# Static dielectric constant tensor:
#      x y z
#    x 2.038100 0.000000 0.000000 
#    y 0.000000 2.038100 0.000000 
#    z 0.000000 0.000000 2.259310 
# 
# From -- ./inp_files/1722.got.cif
#   From: 2010.05.17/outbox.cif.g08.bks.cpg/sg172_1_cif.got.tgz:1722.got - 2010.05.20 11:19:57.
