data_PCOD9580822
_publ_section_title
;
Structure prediction by ZEFSAII (Michael W. Deem and Ramdas Pophale) SiO2 
 PCOD9580822
Probable space group: P 62
;
_chemical_formula_sum "Si O2"
_cell_formula_units_Z 30
_cell_length_a 16.909699
_cell_length_b 16.909699
_cell_length_c 5.090588
_cell_angle_alpha 90.000000
_cell_angle_beta 90.000000
_cell_angle_gamma 120.000000
_cell_volume 1260.579776
_symmetry_space_group_name_H-M "P 62"
_symmetry_group_IT_number 171
_symmetry_cell_setting 'hexagonal'
loop_
_space_group_symop_operation_xyz
x,y,z
x-y,x,1/3+z
-y,x-y,2/3+z
-x,-y,z
-x+y,-x,1/3+z
y,-x+y,2/3+z
loop_
_atom_site_type_symbol
_atom_site_label
_atom_site_fract_x
_atom_site_fract_y
_atom_site_fract_z
Si Si1 0.860307 0.477774 0.074620
Si Si2 0.232533 0.226706 0.236477
Si Si3 0.821557 0.728952 0.729166
Si Si4 0.415688 0.392017 0.241554
Si Si5 0.173264 0.704486 0.324580
O O1 0.930882 0.533922 0.305911
O O2 0.825002 0.371690 0.135966
O O3 0.922669 0.515223 0.812592
O O4 0.775343 0.497796 0.081322
O O5 0.207621 0.137578 0.399420
O O6 0.194213 0.277335 0.416582
O O7 0.339991 0.287194 0.276974
O O8 0.213646 0.222802 0.931774
O O9 0.767351 0.626455 0.840752
O O10 0.356755 0.443888 0.192845
#
# Coordination Sequence:
#
# PCOD9580822 Si02
#       5
#     6   6   6   6   6
#     4  12  28  50  71 107 147 194 247 307 367 440
#     4  11  23  42  72 106 141 187 235 301 348 430
#     4  11  24  42  72 105 143 184 242 291 361 425
#     4  11  26  45  75 101 144 192 245 302 368 434
#     4  11  28  47  76 104 148 194 248 304 374 432
#
# _framework density 23.798572
#
# number of rings (size 3 to 8) (size 9 to 14) (size 15 to 20)
#    0.000    0.800    2.000    4.200    5.600   12.800 
#    0.000    0.000    0.000    6.000    0.000    0.000 
#    0.000    0.000    0.000    0.000    0.000    0.000 
#
# Total GULP energy -167162.084384 kJ/mol
# GULP energy per Si atom -5572.069479 kJ/mol
# Density = 2.374441 g / cm^3
# Si number density = 23.798572 Si / 1000 Ang^3
#
#
#
# Elastic Constant Matrix: (Units=GPa)
#
#
# Indices 1 2 3 4 5 6 
#
# 1 91.7373 84.0843 44.6312 0.0000 0.0000 0.0000
# 2 84.0843 91.7373 44.6312 0.0000 0.0000 0.0000
# 3 44.6312 44.6312 138.9167 0.0000 0.0000 0.0000
# 4 0.0000 0.0000 0.0000 23.2927 0.0000 0.0000
# 5 0.0000 0.0000 0.0000 0.0000 23.2927 0.0000
# 6 0.0000 0.0000 0.0000 0.0000 0.0000 3.8265
#
#
#
# Elastic Compliance Matrix: (Units=1/GPa)
#
#
# Indices 1 2 3 4 5 6 
#
# 1 0.068732 -0.061936 -0.002183 0.000000 0.000000 0.000000
# 2 -0.061936 0.068732 -0.002183 0.000000 0.000000 0.000000
# 3 -0.002183 -0.002183 0.008602 0.000000 0.000000 0.000000
# 4 0.000000 0.000000 0.000000 0.042932 0.000000 0.000000
# 5 0.000000 0.000000 0.000000 0.000000 0.042932 0.000000
# 6 0.000000 0.000000 0.000000 0.000000 0.000000 0.261337
#
#
# Mechanical properties :
#
#
# Convention : Reuss Voigt Hill
#
# Bulk Modulus (GPa) = 74.29453 74.34275 74.31864
# Shear Modulus (GPa) = 7.93198 20.01866 13.97532
#
# Velocity S-wave (km/s) = 1.82762 2.90344 2.42592
# Velocity P-wave (km/s) = 5.97825 6.52274 6.25642
#
# Compressibility (1/GPa) = 0.01345994
#
# Stress axis : x y z
#
# Youngs Moduli (GPa) = 14.54920 14.54920 116.25793
#
# Poissons Ratio (x) = 0.90112 0.25384
# Poissons Ratio (y) = 0.90112 0.25384
# Poissons Ratio (z) = 0.03177 0.03177
#
# Static dielectric constant tensor:
#      x y z
#    x 2.073500 0.000000 0.000000 
#    y 0.000000 2.073500 0.000000 
#    z 0.000000 0.000000 1.865460 
# 
# From -- ./inp_files/310.got.cif
#   From: 2010.05.17/outbox.cif.g08.bks.cpg/sg171_1_cif.got.tgz:310.got - 2010.05.20 11:16:09.
