data_PCOD9580927
_publ_section_title
;
Structure prediction by ZEFSAII (Michael W. Deem and Ramdas Pophale) SiO2 
 PCOD9580927
Probable space group: P 64
;
_chemical_formula_sum "Si O2"
_cell_formula_units_Z 39
_cell_length_a 8.605257
_cell_length_b 8.605257
_cell_length_c 30.272132
_cell_angle_alpha 90.000000
_cell_angle_beta 90.000000
_cell_angle_gamma 120.000000
_cell_volume 1941.338783
_symmetry_space_group_name_H-M "P 64"
_symmetry_group_IT_number 172
_symmetry_cell_setting 'hexagonal'
loop_
_space_group_symop_operation_xyz
x,y,z
x-y,x,2/3+z
-y,x-y,1/3+z
-x,-y,z
-x+y,-x,2/3+z
y,-x+y,1/3+z
loop_
_atom_site_type_symbol
_atom_site_label
_atom_site_fract_x
_atom_site_fract_y
_atom_site_fract_z
Si Si1 0.832661 0.026305 0.024360
Si Si2 0.801426 0.455657 0.689840
Si Si3 0.313620 0.815653 0.958581
Si Si4 0.950849 0.709318 0.457481
Si Si5 0.000000 0.000000 0.856433
Si Si6 0.879672 0.289930 0.869936
Si Si7 0.315999 0.707829 0.456992
O O1 0.644353 0.840223 0.022763
O O2 0.834106 0.088661 0.074465
O O3 0.000000 0.000000 0.017097
O O4 0.827102 0.154759 0.987070
O O5 0.669684 0.335771 0.651254
O O6 0.739506 0.370947 0.738673
O O7 0.000000 0.500000 0.681849
O O8 0.271334 0.785117 0.907414
O O9 0.500000 0.000000 0.963459
O O10 0.811000 0.502336 0.466454
O O11 0.162956 0.767214 0.461622
O O12 0.920665 0.826295 0.492590
O O13 0.975341 0.166469 0.875214
O O14 0.800192 0.310212 0.822263
O O15 0.000000 0.500000 0.882065
#
# Coordination Sequence:
#
# PCOD9580927 Si02
#       7
#     6   6   6   6   3   6   6
#     4  10  20  38  66  96 129 166 217 277 324 392
#     4  10  21  40  67  96 128 174 220 269 337 401
#     4  10  24  46  63  91 134 178 224 272 338 413
#     4  10  20  39  68 100 129 168 221 277 337 395
#     4  12  26  42  66 102 130 172 226 288 342 402
#     4  12  27  47  64  96 138 178 224 283 342 416
#     4  10  21  41  68  96 133 176 216 274 335 406
#
# _framework density 20.089231000000002
#
# number of rings (size 3 to 8) (size 9 to 14) (size 15 to 20)
#    0.000    1.538    3.846    0.462    5.385    1.231 
#    5.538    0.000    0.000    0.000    0.000    0.000 
#    0.000    0.000    0.000    0.000    0.000    0.000 
#
# Total GULP energy -217236.261738 kJ/mol
# GULP energy per Si atom -5570.160557 kJ/mol
# Density = 2.004351 g / cm^3
# Si number density = 20.089231 Si / 1000 Ang^3
#
#
#
# Elastic Constant Matrix: (Units=GPa)
#
#
# Indices 1 2 3 4 5 6 
#
# 1 79.0832 19.8941 25.4260 0.0000 0.0000 0.0000
# 2 19.8941 79.0832 25.4260 0.0000 0.0000 0.0000
# 3 25.4260 25.4260 79.8338 0.0000 0.0000 0.0000
# 4 0.0000 0.0000 0.0000 27.2134 0.0000 0.0000
# 5 0.0000 0.0000 0.0000 0.0000 27.2134 0.0000
# 6 0.0000 0.0000 0.0000 0.0000 0.0000 29.5946
#
#
#
# Elastic Compliance Matrix: (Units=1/GPa)
#
#
# Indices 1 2 3 4 5 6 
#
# 1 0.014487 -0.002408 -0.003847 0.000000 0.000000 0.000000
# 2 -0.002408 0.014487 -0.003847 0.000000 0.000000 0.000000
# 3 -0.003847 -0.003847 0.014977 0.000000 0.000000 0.000000
# 4 0.000000 0.000000 0.000000 0.036747 0.000000 0.000000
# 5 0.000000 0.000000 0.000000 0.000000 0.036747 0.000000
# 6 0.000000 0.000000 0.000000 0.000000 0.000000 0.033790
#
#
# Mechanical properties :
#
#
# Convention : Reuss Voigt Hill
#
# Bulk Modulus (GPa) = 42.10994 42.16583 42.13788
# Shear Modulus (GPa) = 27.87770 27.95456 27.91613
#
# Velocity S-wave (km/s) = 3.72922 3.73435 3.73179
# Velocity P-wave (km/s) = 6.28886 6.29513 6.29200
#
# Compressibility (1/GPa) = 0.02374736
#
# Stress axis : x y z
#
# Youngs Moduli (GPa) = 69.02507 69.02507 66.77050
#
# Poissons Ratio (x) = 0.16618 0.25689
# Poissons Ratio (y) = 0.16618 0.25689
# Poissons Ratio (z) = 0.26556 0.26556
#
# Static dielectric constant tensor:
#      x y z
#    x 1.726630 0.000000 0.000000 
#    y 0.000000 1.726630 0.000000 
#    z 0.000000 0.000000 1.696660 
# 
# From -- ./inp_files/2874.got.cif
#   From: 2010.05.17/outbox.cif.g08.bks.cpg/sg172_2_cif.got.tgz:2874.got - 2010.05.20 11:19:57.
