data_PCOD9580839
_publ_section_title
;
Structure prediction by ZEFSAII (Michael W. Deem and Ramdas Pophale) SiO2 
 PCOD9580839
Probable space group: P 62
;
_chemical_formula_sum "Si O2"
_cell_formula_units_Z 21
_cell_length_a 9.901135
_cell_length_b 9.901135
_cell_length_c 11.014754
_cell_angle_alpha 90.000000
_cell_angle_beta 90.000000
_cell_angle_gamma 120.000000
_cell_volume 935.137339
_symmetry_space_group_name_H-M "P 62"
_symmetry_group_IT_number 171
_symmetry_cell_setting 'hexagonal'
loop_
_space_group_symop_operation_xyz
x,y,z
x-y,x,1/3+z
-y,x-y,2/3+z
-x,-y,z
-x+y,-x,1/3+z
y,-x+y,2/3+z
loop_
_atom_site_type_symbol
_atom_site_label
_atom_site_fract_x
_atom_site_fract_y
_atom_site_fract_z
Si Si1 0.322239 0.958976 0.083850
Si Si2 0.193595 0.809661 0.556932
Si Si3 0.640688 0.966154 0.354886
Si Si4 0.000000 0.500000 0.390359
O O1 0.290995 0.984324 0.221387
O O2 0.215461 0.783859 0.042224
O O3 0.500000 0.000000 0.077162
O O4 0.292031 0.065807 0.992467
O O5 0.231731 0.940182 0.456508
O O6 0.355160 0.882703 0.636025
O O7 0.114343 0.647591 0.477377
O O8 0.500000 0.000000 0.367693
#
# Coordination Sequence:
#
# PCOD9580839 Si02
#       4
#     6   6   6   3
#     4  11  26  46  75 115 154 204 260 324 394 479
#     4  12  26  48  79 117 160 208 274 340 402 503
#     4  11  26  46  75 115 154 204 260 324 394 479
#     4  12  28  48  80 120 164 214 278 342 424 504
#
# _framework density 22.456593999999999
#
# number of rings (size 3 to 8) (size 9 to 14) (size 15 to 20)
#    0.000    0.571    2.857    3.429    4.000    0.000 
#    0.000   14.286    0.000    0.000    0.000    0.000 
#    0.000    0.000    0.000    0.000    0.000    0.000 
#
# Total GULP energy -117309.236565 kJ/mol
# GULP energy per Si atom -5586.154122 kJ/mol
# Density = 2.240548 g / cm^3
# Si number density = 22.456594 Si / 1000 Ang^3
#
#
#
# Elastic Constant Matrix: (Units=GPa)
#
#
# Indices 1 2 3 4 5 6 
#
# 1 104.8145 15.7620 -8.2541 0.0000 0.0000 0.0000
# 2 15.7620 104.8145 -8.2541 0.0000 0.0000 0.0000
# 3 -8.2541 -8.2541 54.8167 0.0000 0.0000 0.0000
# 4 0.0000 0.0000 0.0000-1237.2123 0.0001 0.0000
# 5 0.0000 0.0000 0.0000 0.0001-1237.2124 0.0000
# 6 0.0000 0.0000 0.0000 0.0000 0.0000 44.5262
#
#
#
# Elastic Compliance Matrix: (Units=1/GPa)
#
#
# Indices 1 2 3 4 5 6 
#
# 1 0.009849 -0.001381 0.001275 0.000000 0.000000 0.000000
# 2 -0.001381 0.009849 0.001275 0.000000 0.000000 0.000000
# 3 0.001275 0.001275 0.018627 0.000000 0.000000 0.000000
# 4 0.000000 0.000000 0.000000 -0.000808 0.000000 0.000000
# 5 0.000000 0.000000 0.000000 0.000000 -0.000808 0.000000
# 6 0.000000 0.000000 0.000000 0.000000 0.000000 0.022459
#
#
# Mechanical properties :
#
#
# Convention : Reuss Voigt Hill
#
# Bulk Modulus (GPa) = 24.59228 29.21701 26.90464
# Shear Modulus (GPa) = 71.04146 -468.30022 -198.62938
#
# Velocity S-wave (km/s) = 5.63060 -14.45643 -9.41501
# Velocity P-wave (km/s) = 7.29701 16.29762 10.30452
#
# Compressibility (1/GPa) = 0.04066316
#
# Stress axis : x y z
#
# Youngs Moduli (GPa) = 101.53623 101.53623 53.68657
#
# Poissons Ratio (x) = 0.14018 -0.06846
# Poissons Ratio (y) = 0.14018 -0.06846
# Poissons Ratio (z) = -0.12947 -0.12947
#
# Static dielectric constant tensor:
#      x y z
#    x 2.560370 0.000000 0.000000 
#    y 0.000000 2.560370 0.000000 
#    z 0.000000 0.000000 1.839270 
# 
# From -- ./inp_files/1766.got.cif
#   From: 2010.05.17/outbox.cif.g08.bks.cpg/sg171_1_cif.got.tgz:1766.got - 2010.05.20 11:16:09.
