data_PCOD9580572
_publ_section_title
;
Structure prediction by ZEFSAII (Michael W. Deem and Ramdas Pophale) SiO2 
 PCOD9580572
Probable space group: P 62
;
_chemical_formula_sum "Si O2"
_cell_formula_units_Z 42
_cell_length_a 14.500999
_cell_length_b 14.500999
_cell_length_c 10.038591
_cell_angle_alpha 90.000000
_cell_angle_beta 90.000000
_cell_angle_gamma 120.000000
_cell_volume 1828.097005
_symmetry_space_group_name_H-M "P 62"
_symmetry_group_IT_number 171
_symmetry_cell_setting 'hexagonal'
loop_
_space_group_symop_operation_xyz
x,y,z
x-y,x,1/3+z
-y,x-y,2/3+z
-x,-y,z
-x+y,-x,1/3+z
y,-x+y,2/3+z
loop_
_atom_site_type_symbol
_atom_site_label
_atom_site_fract_x
_atom_site_fract_y
_atom_site_fract_z
Si Si1 0.529754 0.384751 0.366450
Si Si2 0.710487 0.748568 0.870727
Si Si3 0.537588 0.381425 0.804186
Si Si4 0.420080 0.138347 0.376066
Si Si5 0.294456 0.053564 0.814151
Si Si6 0.679696 0.612817 0.427615
Si Si7 0.372368 0.546397 0.093893
O O1 0.492746 0.264084 0.399462
O O2 0.644531 0.487649 0.400614
O O3 0.434116 0.394076 0.431202
O O4 0.537113 0.396881 0.205959
O O5 0.589119 0.682470 0.817137
O O6 0.754608 0.672933 0.818189
O O7 0.749862 0.864131 0.807828
O O8 0.723085 0.757278 0.031322
O O9 0.594649 0.485964 0.713212
O O10 0.574394 0.295989 0.770567
O O11 0.577232 0.425323 0.950767
O O12 0.363005 0.102441 0.233490
O O13 0.419923 0.107938 0.779575
O O14 0.304614 0.039986 0.973025
#
# Coordination Sequence:
#
# PCOD9580572 Si02
#       7
#     6   6   6   6   6   6   6
#     4  10  24  40  63  89 135 170 234 266 346 386
#     4  11  25  42  66  92 135 173 228 277 347 404
#     4  11  23  36  59  90 135 177 231 261 338 381
#     4  12  26  36  63  94 133 177 219 288 334 407
#     4  10  23  44  65  93 124 178 226 279 333 412
#     4  10  25  42  65  92 133 179 226 282 331 408
#     4  10  21  37  60  89 126 183 221 277 308 406
#
# _framework density 22.974712
#
# number of rings (size 3 to 8) (size 9 to 14) (size 15 to 20)
#    0.000    1.429    1.429    2.143   18.000    1.143 
#    0.000    0.000    0.000    0.000    0.000    3.000 
#    0.000    0.000    0.000    0.000    0.000    0.000 
#
# Total GULP energy -234366.019674 kJ/mol
# GULP energy per Si atom -5580.143326 kJ/mol
# Density = 2.292242 g / cm^3
# Si number density = 22.974712 Si / 1000 Ang^3
#
#
#
# Elastic Constant Matrix: (Units=GPa)
#
#
# Indices 1 2 3 4 5 6 
#
# 1 39.3877 17.1319 -7.8374 0.0000 0.0000 0.0000
# 2 17.1319 39.3877 -7.8374 0.0000 0.0000 0.0000
# 3 -7.8374 -7.8374 77.7670 0.0000 0.0000 0.0000
# 4 0.0000 0.0000 0.0000 -49.1027 0.0000 0.0000
# 5 0.0000 0.0000 0.0000 0.0000 -49.1027 0.0000
# 6 0.0000 0.0000 0.0000 0.0000 0.0000 11.1279
#
#
#
# Elastic Compliance Matrix: (Units=1/GPa)
#
#
# Indices 1 2 3 4 5 6 
#
# 1 0.031567 -0.013365 0.001834 0.000000 0.000000 0.000000
# 2 -0.013365 0.031567 0.001834 0.000000 0.000000 0.000000
# 3 0.001834 0.001834 0.013229 0.000000 0.000000 0.000000
# 4 0.000000 0.000000 0.000000 -0.020365 0.000000 0.000000
# 5 0.000000 0.000000 0.000000 0.000000 -0.020365 0.000000
# 6 0.000000 0.000000 0.000000 0.000000 0.000000 0.089864
#
#
# Mechanical properties :
#
#
# Convention : Reuss Voigt Hill
#
# Bulk Modulus (GPa) = 17.55321 17.71739 17.63530
# Shear Modulus (GPa) = 30.51042 -7.07648 11.71697
#
# Velocity S-wave (km/s) = 3.64813 -1.75693 2.26076
# Velocity P-wave (km/s) = 5.04003 1.90071 3.80885
#
# Compressibility (1/GPa) = 0.05696965
#
# Stress axis : x y z
#
# Youngs Moduli (GPa) = 31.67874 31.67874 75.59344
#
# Poissons Ratio (x) = 0.42339 -0.13867
# Poissons Ratio (y) = 0.42339 -0.13867
# Poissons Ratio (z) = -0.05811 -0.05811
#
# Static dielectric constant tensor:
#      x y z
#    x 2.061360 0.000000 0.000000 
#    y 0.000000 2.061360 0.000000 
#    z 0.000000 0.000000 1.924980 
# 
# From -- ./inp_files/1664.got.cif
#   From: 2010.05.17/outbox.cif.g08.bks.cpg/sg171_1_cif.got.tgz:1664.got - 2010.05.20 11:16:09.
