data_PCOD9580420
_publ_section_title
;
Structure prediction by ZEFSAII (Michael W. Deem and Ramdas Pophale) SiO2 
 PCOD9580420
Probable space group: P 62
;
_chemical_formula_sum "Si O2"
_cell_formula_units_Z 36
_cell_length_a 8.321058
_cell_length_b 8.321058
_cell_length_c 27.420085
_cell_angle_alpha 90.000000
_cell_angle_beta 90.000000
_cell_angle_gamma 120.000000
_cell_volume 1644.207128
_symmetry_space_group_name_H-M "P 62"
_symmetry_group_IT_number 171
_symmetry_cell_setting 'hexagonal'
loop_
_space_group_symop_operation_xyz
x,y,z
x-y,x,1/3+z
-y,x-y,2/3+z
-x,-y,z
-x+y,-x,1/3+z
y,-x+y,2/3+z
loop_
_atom_site_type_symbol
_atom_site_label
_atom_site_fract_x
_atom_site_fract_y
_atom_site_fract_z
Si Si1 0.393885 0.273155 0.159380
Si Si2 0.464898 0.762965 0.479432
Si Si3 0.794751 0.820196 0.258026
Si Si4 0.687445 0.693018 0.662714
Si Si5 0.376310 0.063380 0.585725
Si Si6 0.716176 0.794402 0.770243
O O1 0.500000 0.500000 0.161701
O O2 0.543345 0.215947 0.142763
O O3 0.330686 0.191205 0.213207
O O4 0.207326 0.214993 0.128535
O O5 0.525207 0.837679 0.534997
O O6 0.334682 0.837411 0.455550
O O7 0.663651 0.863602 0.452624
O O8 0.864680 0.676200 0.246018
O O9 0.695830 0.824709 0.308028
O O10 0.000000 0.000000 0.257011
O O11 0.500000 0.500000 0.671598
O O12 0.645539 0.792261 0.618546
O O13 0.730184 0.808279 0.712220
O O14 0.500000 0.000000 0.614785
#
# Coordination Sequence:
#
# PCOD9580420 Si02
#       6
#     6   6   6   6   6   6
#     4  10  19  34  67  99 121 171 237 281 337 426
#     4  10  17  34  65  94 128 171 232 274 353 417
#     4  10  22  39  59  95 136 173 215 281 350 414
#     4  11  23  38  59  93 135 181 222 275 355 420
#     4  11  20  38  66  96 126 172 223 281 341 420
#     4  10  19  37  61  94 137 178 216 293 354 417
#
# _framework density 21.895049
#
# number of rings (size 3 to 8) (size 9 to 14) (size 15 to 20)
#    0.000    1.667    5.000    2.000    0.000    2.000 
#    0.000    2.500    0.000    0.000    4.333    0.000 
#    0.000    0.000    0.000    0.000    0.000    0.000 
#
# Total GULP energy -200519.915215 kJ/mol
# GULP energy per Si atom -5569.997645 kJ/mol
# Density = 2.184522 g / cm^3
# Si number density = 21.895049 Si / 1000 Ang^3
#
#
#
# Elastic Constant Matrix: (Units=GPa)
#
#
# Indices 1 2 3 4 5 6 
#
# 1 86.5224 22.3964 17.5516 0.0000 0.0000 0.0000
# 2 22.3964 86.5224 17.5516 0.0000 0.0000 0.0000
# 3 17.5516 17.5516 129.9396 0.0000 0.0000 0.0000
# 4 0.0000 0.0000 0.0000 26.9767 0.0000 0.0000
# 5 0.0000 0.0000 0.0000 0.0000 26.9767 0.0000
# 6 0.0000 0.0000 0.0000 0.0000 0.0000 32.0630
#
#
#
# Elastic Compliance Matrix: (Units=1/GPa)
#
#
# Indices 1 2 3 4 5 6 
#
# 1 0.012597 -0.002998 -0.001297 0.000000 0.000000 0.000000
# 2 -0.002998 0.012597 -0.001297 0.000000 0.000000 0.000000
# 3 -0.001297 -0.001297 0.008046 0.000000 0.000000 0.000000
# 4 0.000000 0.000000 0.000000 0.037069 0.000000 0.000000
# 5 0.000000 0.000000 0.000000 0.000000 0.037069 0.000000
# 6 0.000000 0.000000 0.000000 0.000000 0.000000 0.031189
#
#
# Mechanical properties :
#
#
# Convention : Reuss Voigt Hill
#
# Bulk Modulus (GPa) = 45.33530 46.44260 45.88895
# Shear Modulus (GPa) = 31.82681 33.56895 32.69788
#
# Velocity S-wave (km/s) = 3.81676 3.91983 3.86863
# Velocity P-wave (km/s) = 6.33831 6.46098 6.39994
#
# Compressibility (1/GPa) = 0.02205787
#
# Stress axis : x y z
#
# Youngs Moduli (GPa) = 79.38610 79.38610 124.28301
#
# Poissons Ratio (x) = 0.23797 0.16114
# Poissons Ratio (y) = 0.23797 0.16114
# Poissons Ratio (z) = 0.10293 0.10293
#
# Static dielectric constant tensor:
#      x y z
#    x 1.952600 0.000000 0.000000 
#    y 0.000000 1.952600 0.000000 
#    z 0.000000 0.000000 1.768410 
# 
# From -- ./inp_files/5803.got.cif
#   From: 2010.05.17/outbox.cif.g08.bks.cpg/sg171_3_cif.got.tgz:5803.got - 2010.05.20 11:16:09.
