data_PCOD9580862
_publ_section_title
;
Structure prediction by ZEFSAII (Michael W. Deem and Ramdas Pophale) SiO2 
 PCOD9580862
Probable space group: P 62
;
_chemical_formula_sum "Si O2"
_cell_formula_units_Z 33
_cell_length_a 16.433788
_cell_length_b 16.433788
_cell_length_c 6.319306
_cell_angle_alpha 90.000000
_cell_angle_beta 90.000000
_cell_angle_gamma 120.000000
_cell_volume 1478.003212
_symmetry_space_group_name_H-M "P 62"
_symmetry_group_IT_number 171
_symmetry_cell_setting 'hexagonal'
loop_
_space_group_symop_operation_xyz
x,y,z
x-y,x,1/3+z
-y,x-y,2/3+z
-x,-y,z
-x+y,-x,1/3+z
y,-x+y,2/3+z
loop_
_atom_site_type_symbol
_atom_site_label
_atom_site_fract_x
_atom_site_fract_y
_atom_site_fract_z
Si Si1 0.239803 0.004077 0.615100
Si Si2 0.943192 0.846270 0.638348
Si Si3 0.000000 0.500000 0.389754
Si Si4 0.914732 0.366508 0.771464
Si Si5 0.624701 0.106251 0.342176
Si Si6 0.613945 0.819707 0.812703
O O1 0.195128 0.977818 0.851651
O O2 0.212306 0.904176 0.514663
O O3 0.199482 0.052922 0.457683
O O4 0.343683 0.089531 0.661004
O O5 0.919683 0.891725 0.443683
O O6 0.067171 0.582141 0.546071
O O7 0.061385 0.473641 0.239172
O O8 0.874196 0.418565 0.916971
O O9 0.849271 0.258784 0.706040
O O10 0.018965 0.401669 0.868500
O O11 0.727371 0.195105 0.366647
#
# Coordination Sequence:
#
# PCOD9580862 Si02
#       6
#     6   6   3   6   6   6
#     4  12  27  39  64 102 150 196 252 309 352 435
#     4  12  24  45  56  84 145 208 265 302 352 405
#     4   8  16  44  68  92 130 174 228 294 372 410
#     4   9  21  42  70 101 137 182 233 300 362 431
#     4   9  21  42  70 101 137 182 233 300 362 431
#     4  12  24  44  69 108 142 190 243 292 370 434
#
# _framework density 22.32742
#
# number of rings (size 3 to 8) (size 9 to 14) (size 15 to 20)
#    0.000    1.818    3.636    1.091    5.091    3.636 
#    0.000    0.000    4.000    0.000    4.727    0.000 
#    0.000    0.000    0.000    0.000    0.000    0.000 
#
# Total GULP energy -184217.669571 kJ/mol
# GULP energy per Si atom -5582.353623 kJ/mol
# Density = 2.227660 g / cm^3
# Si number density = 22.327420 Si / 1000 Ang^3
#
#
#
# Elastic Constant Matrix: (Units=GPa)
#
#
# Indices 1 2 3 4 5 6 
#
# 1 57.0926 3.8237 8.6893 0.0000 0.0000 0.0000
# 2 3.8237 57.0926 8.6893 0.0000 0.0000 0.0000
# 3 8.6893 8.6893 84.6410 0.0000 0.0000 0.0000
# 4 0.0000 0.0000 0.0000 25.5537 0.0000 0.0000
# 5 0.0000 0.0000 0.0000 0.0000 25.5537 0.0000
# 6 0.0000 0.0000 0.0000 0.0000 0.0000 26.6344
#
#
#
# Elastic Compliance Matrix: (Units=1/GPa)
#
#
# Indices 1 2 3 4 5 6 
#
# 1 0.017842 -0.000931 -0.001736 0.000000 0.000000 0.000000
# 2 -0.000931 0.017842 -0.001736 0.000000 0.000000 0.000000
# 3 -0.001736 -0.001736 0.012171 0.000000 0.000000 0.000000
# 4 0.000000 0.000000 0.000000 0.039133 0.000000 0.000000
# 5 0.000000 0.000000 0.000000 0.000000 0.039133 0.000000
# 6 0.000000 0.000000 0.000000 0.000000 0.000000 0.037545
#
#
# Mechanical properties :
#
#
# Convention : Reuss Voigt Hill
#
# Bulk Modulus (GPa) = 25.60881 26.80344 26.20612
# Shear Modulus (GPa) = 26.95577 27.38998 27.17287
#
# Velocity S-wave (km/s) = 3.47838 3.50629 3.49236
# Velocity P-wave (km/s) = 5.25612 5.33131 5.29385
#
# Compressibility (1/GPa) = 0.03904907
#
# Stress axis : x y z
#
# Youngs Moduli (GPa) = 56.04763 56.04763 82.16209
#
# Poissons Ratio (x) = 0.05216 0.14264
# Poissons Ratio (y) = 0.05216 0.14264
# Poissons Ratio (z) = 0.09731 0.09731
#
# Static dielectric constant tensor:
#      x y z
#    x 1.908520 0.000000 0.000000 
#    y 0.000000 1.908520 0.000000 
#    z 0.000000 0.000000 1.826640 
# 
# From -- ./inp_files/676.got.cif
#   From: 2010.05.17/outbox.cif.g08.bks.cpg/sg171_1_cif.got.tgz:676.got - 2010.05.20 11:16:09.
