data_PCOD9580594
_publ_section_title
;
Structure prediction by ZEFSAII (Michael W. Deem and Ramdas Pophale) SiO2 
 PCOD9580594
Probable space group: P 62
;
_chemical_formula_sum "Si O2"
_cell_formula_units_Z 45
_cell_length_a 11.763702
_cell_length_b 11.763702
_cell_length_c 19.559520
_cell_angle_alpha 90.000000
_cell_angle_beta 90.000000
_cell_angle_gamma 120.000000
_cell_volume 2344.103877
_symmetry_space_group_name_H-M "P 62"
_symmetry_group_IT_number 171
_symmetry_cell_setting 'hexagonal'
loop_
_space_group_symop_operation_xyz
x,y,z
x-y,x,1/3+z
-y,x-y,2/3+z
-x,-y,z
-x+y,-x,1/3+z
y,-x+y,2/3+z
loop_
_atom_site_type_symbol
_atom_site_label
_atom_site_fract_x
_atom_site_fract_y
_atom_site_fract_z
Si Si1 0.109648 0.151604 0.966380
Si Si2 0.270912 0.556902 0.040017
Si Si3 0.307774 0.020233 0.753780
Si Si4 0.500000 0.000000 0.140304
Si Si5 0.277778 0.469601 0.370454
Si Si6 0.791399 0.649904 0.234314
Si Si7 0.270346 0.859133 0.247194
Si Si8 0.420594 0.845581 0.513560
O O1 0.229640 0.160593 0.922714
O O2 0.080451 0.258001 0.931135
O O3 0.160304 0.205159 0.043146
O O4 0.000000 0.000000 0.967431
O O5 0.315968 0.449718 0.058706
O O6 0.392245 0.689036 0.012484
O O7 0.225024 0.599000 0.107520
O O8 0.155419 0.485829 0.985164
O O9 0.313241 0.048777 0.834688
O O10 0.262721 0.870106 0.735413
O O11 0.507683 0.892748 0.093146
O O12 0.374839 0.937695 0.189600
O O13 0.288707 0.391232 0.305359
O O14 0.810589 0.527331 0.215531
O O15 0.192109 0.707891 0.220825
O O16 0.500000 0.000000 0.503105
#
# Coordination Sequence:
#
# PCOD9580594 Si02
#       8
#     6   6   6   3   6   6   6   6
#     4  10  22  40  65  98 128 174 216 267 325 395
#     4  10  21  40  65  95 121 166 224 269 323 383
#     4   9  22  40  65  97 122 165 222 273 320 380
#     4  12  28  44  56 100 142 182 204 262 344 390
#     4  11  22  43  63  91 134 166 219 269 318 398
#     4  10  21  40  66  96 121 167 220 268 328 378
#     4  11  23  43  65  89 138 177 213 268 328 395
#     4  11  20  38  67  96 122 159 225 281 312 376
#
# _framework density 19.197101
#
# number of rings (size 3 to 8) (size 9 to 14) (size 15 to 20)
#    0.000    1.600    4.000    0.400    2.800    0.533 
#    9.600    0.000    0.000    0.000    0.000    0.000 
#    0.000    0.000    0.000    0.000    0.000    0.000 
#
# Total GULP energy -250984.825140 kJ/mol
# GULP energy per Si atom -5577.440559 kJ/mol
# Density = 1.915341 g / cm^3
# Si number density = 19.197101 Si / 1000 Ang^3
#
#
#
# Elastic Constant Matrix: (Units=GPa)
#
#
# Indices 1 2 3 4 5 6 
#
# 1 64.4570 36.0856 30.1286 0.0000 0.0000 0.0000
# 2 36.0856 64.4570 30.1286 0.0000 0.0000 0.0000
# 3 30.1286 30.1286 107.6002 0.0000 0.0000 0.0000
# 4 0.0000 0.0000 0.0000 21.4064 0.0000 0.0000
# 5 0.0000 0.0000 0.0000 0.0000 21.4064 0.0000
# 6 0.0000 0.0000 0.0000 0.0000 0.0000 14.1857
#
#
#
# Elastic Compliance Matrix: (Units=1/GPa)
#
#
# Indices 1 2 3 4 5 6 
#
# 1 0.023599 -0.011648 -0.003347 0.000000 0.000000 0.000000
# 2 -0.011648 0.023599 -0.003347 0.000000 0.000000 0.000000
# 3 -0.003347 -0.003347 0.011168 0.000000 0.000000 0.000000
# 4 0.000000 0.000000 0.000000 0.046715 0.000000 0.000000
# 5 0.000000 0.000000 0.000000 0.000000 0.046715 0.000000
# 6 0.000000 0.000000 0.000000 0.000000 0.000000 0.070493
#
#
# Mechanical properties :
#
#
# Convention : Reuss Voigt Hill
#
# Bulk Modulus (GPa) = 46.11486 47.68886 46.90186
# Shear Modulus (GPa) = 18.78293 20.74447 19.76370
#
# Velocity S-wave (km/s) = 3.13137 3.29082 3.21209
# Velocity P-wave (km/s) = 6.09491 6.27176 6.18397
#
# Compressibility (1/GPa) = 0.02168499
#
# Stress axis : x y z
#
# Youngs Moduli (GPa) = 42.37435 42.37435 89.54357
#
# Poissons Ratio (x) = 0.49356 0.29966
# Poissons Ratio (y) = 0.49356 0.29966
# Poissons Ratio (z) = 0.14181 0.14181
#
# Static dielectric constant tensor:
#      x y z
#    x 1.651640 0.000000 0.000000 
#    y 0.000000 1.651640 0.000000 
#    z 0.000000 0.000000 1.697110 
# 
# From -- ./inp_files/5077.got.cif
#   From: 2010.05.17/outbox.cif.g08.bks.cpg/sg171_3_cif.got.tgz:5077.got - 2010.05.20 11:16:09.
