data_PCOD9580290
_publ_section_title
;
Structure prediction by ZEFSAII (Michael W. Deem and Ramdas Pophale) SiO2 
 PCOD9580290
Probable space group: P 65
;
_chemical_formula_sum "Si O2"
_cell_formula_units_Z 42
_cell_length_a 14.705967
_cell_length_b 14.705967
_cell_length_c 11.090233
_cell_angle_alpha 90.000000
_cell_angle_beta 90.000000
_cell_angle_gamma 120.000000
_cell_volume 2077.105121
_symmetry_space_group_name_H-M "P 65"
_symmetry_group_IT_number 170
_symmetry_cell_setting 'hexagonal'
loop_
_space_group_symop_operation_xyz
x,y,z
x-y,x,5/6+z
-y,x-y,2/3+z
-x,-y,1/2+z
-x+y,-x,1/3+z
y,-x+y,1/6+z
loop_
_atom_site_type_symbol
_atom_site_label
_atom_site_fract_x
_atom_site_fract_y
_atom_site_fract_z
Si Si1 0.178174 0.399892 0.469880
Si Si2 0.937173 0.295253 0.521503
Si Si3 0.385920 0.634633 0.243918
Si Si4 0.245393 0.717377 0.154363
Si Si5 0.122505 0.355016 0.007071
Si Si6 0.120500 0.185539 0.846354
Si Si7 0.720001 0.608349 0.725844
O O1 0.219213 0.359639 0.583115
O O2 0.238188 0.525613 0.483538
O O3 0.213072 0.366326 0.348916
O O4 0.055043 0.365425 0.472965
O O5 0.870346 0.339916 0.591744
O O6 0.952645 0.227806 0.624171
O O7 0.283541 0.646857 0.224534
O O8 0.440661 0.677695 0.372935
O O9 0.356777 0.516400 0.224206
O O10 0.256492 0.808912 0.244146
O O11 0.085714 0.245061 0.939803
O O12 0.200168 0.365722 0.114581
O O13 0.014242 0.345998 0.049927
O O14 0.037327 0.136510 0.742312
#
# Coordination Sequence:
#
# PCOD9580290 Si02
#       7
#     6   6   6   6   6   6   6
#     4  11  23  42  67 100 138 177 229 284 346 414
#     4  10  22  41  71  97 134 177 228 284 343 422
#     4  11  23  44  68  98 135 174 229 288 346 419
#     4  10  23  43  69  96 131 179 230 287 343 415
#     4  11  25  43  70  95 140 180 228 287 349 419
#     4  11  21  44  68  99 132 176 232 280 350 416
#     4  12  25  45  67 101 140 181 228 290 349 417
#
# _framework density 20.22045
#
# number of rings (size 3 to 8) (size 9 to 14) (size 15 to 20)
#    0.000    1.143    4.286    1.714    0.000    3.429 
#    5.143    0.000    0.000    0.000    0.000    0.000 
#    0.000    0.000    0.000    0.000    0.000    0.000 
#
# Total GULP energy -234425.078480 kJ/mol
# GULP energy per Si atom -5581.549488 kJ/mol
# Density = 2.017443 g / cm^3
# Si number density = 20.220450 Si / 1000 Ang^3
#
#
#
# Elastic Constant Matrix: (Units=GPa)
#
#
# Indices 1 2 3 4 5 6 
#
# 1 18.3128 20.7602 12.4333 0.0000 0.0000 0.0000
# 2 20.7602 18.3128 12.4333 0.0000 0.0000 0.0000
# 3 12.4333 12.4333 96.5025 0.0000 0.0000 0.0000
# 4 0.0000 0.0000 0.0000 29.2144 0.0000 0.0000
# 5 0.0000 0.0000 0.0000 0.0000 29.2144 0.0000
# 6 0.0000 0.0000 0.0000 0.0000 0.0000 -1.2237
#
#
#
# Elastic Compliance Matrix: (Units=1/GPa)
#
#
# Indices 1 2 3 4 5 6 
#
# 1 -0.190359 0.218238 -0.003592 0.000000 0.000000 0.000000
# 2 0.218238 -0.190359 -0.003592 0.000000 0.000000 0.000000
# 3 -0.003592 -0.003592 0.011288 0.000000 0.000000 0.000000
# 4 0.000000 0.000000 0.000000 0.034230 0.000000 0.000000
# 5 0.000000 0.000000 0.000000 0.000000 0.034230 0.000000
# 6 0.000000 0.000000 0.000000 0.000000 0.000000 -0.817194
#
#
# Mechanical properties :
#
#
# Convention : Reuss Voigt Hill
#
# Bulk Modulus (GPa) = 18.98306 24.93128 21.95717
# Shear Modulus (GPa) = -3.28361 17.27444 6.99541
#
# Velocity S-wave (km/s) = -1.27571 2.92602 1.86201
# Velocity P-wave (km/s) = 2.69045 4.87565 3.93767
#
# Compressibility (1/GPa) = 0.05267854
#
# Stress axis : x y z
#
# Youngs Moduli (GPa) = -5.25323 -5.25323 88.58982
#
# Poissons Ratio (x) = 1.14646 0.31821
# Poissons Ratio (y) = 1.14646 0.31821
# Poissons Ratio (z) = -0.01887 -0.01887
#
# Static dielectric constant tensor:
#      x y z
#    x 1.716110 0.000000 0.000000 
#    y 0.000000 1.716110 0.000000 
#    z 0.000000 0.000000 1.743730 
# 
# From -- ./inp_files/1029.got.cif
#   From: 2010.05.17/outbox.cif.g08.bks.cpg/sg170_cif.got.tgz:1029.got - 2010.05.20 11:14:30.
