data_PCOD9580301
_publ_section_title
;
Structure prediction by ZEFSAII (Michael W. Deem and Ramdas Pophale) SiO2 
 PCOD9580301
Probable space group: P 65
;
_chemical_formula_sum "Si O2"
_cell_formula_units_Z 24
_cell_length_a 12.059498
_cell_length_b 12.059498
_cell_length_c 7.304583
_cell_angle_alpha 90.000000
_cell_angle_beta 90.000000
_cell_angle_gamma 120.000000
_cell_volume 919.992993
_symmetry_space_group_name_H-M "P 65"
_symmetry_group_IT_number 170
_symmetry_cell_setting 'hexagonal'
loop_
_space_group_symop_operation_xyz
x,y,z
x-y,x,5/6+z
-y,x-y,2/3+z
-x,-y,1/2+z
-x+y,-x,1/3+z
y,-x+y,1/6+z
loop_
_atom_site_type_symbol
_atom_site_label
_atom_site_fract_x
_atom_site_fract_y
_atom_site_fract_z
Si Si1 0.436608 0.494376 0.648790
Si Si2 0.259213 0.067261 0.745946
Si Si3 0.787832 0.207426 0.742572
Si Si4 0.775053 0.351653 0.045564
O O1 0.323520 0.386910 0.523256
O O2 0.525122 0.635993 0.573387
O O3 0.349392 0.498715 0.814412
O O4 0.521300 0.434421 0.714589
O O5 0.221883 0.146776 0.613369
O O6 0.296315 0.141417 0.945327
O O7 0.803038 0.245377 0.955265
O O8 0.696412 0.388928 0.897612
#
# Coordination Sequence:
#
# PCOD9580301 Si02
#       4
#     6   6   6   6
#     4  10  25  44  75 111 155 206 268 340 419 491
#     4  10  23  44  71 100 156 211 265 335 405 504
#     4  10  22  43  74 109 153 200 258 342 406 484
#     4  12  26  47  78 118 164 209 273 345 426 505
#
# _framework density 26.087154999999999
#
# number of rings (size 3 to 8) (size 9 to 14) (size 15 to 20)
#    1.500    0.000    2.500    1.500    7.000    0.000 
#    0.000    5.000    0.000    0.000    0.000    0.000 
#    0.000    0.000    0.000    0.000    0.000    0.000 
#
# Total GULP energy -134023.636861 kJ/mol
# GULP energy per Si atom -5584.318203 kJ/mol
# Density = 2.602778 g / cm^3
# Si number density = 26.087155 Si / 1000 Ang^3
#
#
#
# Elastic Constant Matrix: (Units=GPa)
#
#
# Indices 1 2 3 4 5 6 
#
# 1 159.1906 79.5510 44.8746 0.0000 0.0000 0.0000
# 2 79.5510 159.1906 44.8746 0.0000 0.0000 0.0000
# 3 44.8746 44.8746 88.7608 0.0000 0.0000 0.0000
# 4 0.0000 0.0000 0.0000 33.0185 0.0000 0.0000
# 5 0.0000 0.0000 0.0000 0.0000 33.0185 0.0000
# 6 0.0000 0.0000 0.0000 0.0000 0.0000 39.8198
#
#
#
# Elastic Compliance Matrix: (Units=1/GPa)
#
#
# Indices 1 2 3 4 5 6 
#
# 1 0.008864 -0.003693 -0.002615 0.000000 0.000000 0.000000
# 2 -0.003693 0.008864 -0.002615 0.000000 0.000000 0.000000
# 3 -0.002615 -0.002615 0.013910 0.000000 0.000000 0.000000
# 4 0.000000 0.000000 0.000000 0.030286 0.000000 0.000000
# 5 0.000000 0.000000 0.000000 0.000000 0.030286 0.000000
# 6 0.000000 0.000000 0.000000 0.000000 0.000000 0.025113
#
#
# Mechanical properties :
#
#
# Convention : Reuss Voigt Hill
#
# Bulk Modulus (GPa) = 72.49151 82.86027 77.67589
# Shear Modulus (GPa) = 35.77440 37.02747 36.40093
#
# Velocity S-wave (km/s) = 3.70718 3.77155 3.73950
# Velocity P-wave (km/s) = 6.79506 7.12727 6.96314
#
# Compressibility (1/GPa) = 0.01379472
#
# Stress axis : x y z
#
# Youngs Moduli (GPa) = 112.81540 112.81540 71.89131
#
# Poissons Ratio (x) = 0.41657 0.18796
# Poissons Ratio (y) = 0.41657 0.18796
# Poissons Ratio (z) = 0.29496 0.29496
#
# Static dielectric constant tensor:
#      x y z
#    x 2.075350 0.000000 0.000000 
#    y 0.000000 2.075350 0.000000 
#    z 0.000000 0.000000 2.167490 
# 
# From -- ./inp_files/864.got.cif
#   From: 2010.05.17/outbox.cif.g08.bks.cpg/sg170_cif.got.tgz:864.got - 2010.05.20 11:14:30.
