data_PCOD9580474
_publ_section_title
;
Structure prediction by ZEFSAII (Michael W. Deem and Ramdas Pophale) SiO2 
 PCOD9580474
Probable space group: P 62
;
_chemical_formula_sum "Si O2"
_cell_formula_units_Z 45
_cell_length_a 18.391302
_cell_length_b 18.391302
_cell_length_c 7.912195
_cell_angle_alpha 90.000000
_cell_angle_beta 90.000000
_cell_angle_gamma 120.000000
_cell_volume 2317.675157
_symmetry_space_group_name_H-M "P 62"
_symmetry_group_IT_number 171
_symmetry_cell_setting 'hexagonal'
loop_
_space_group_symop_operation_xyz
x,y,z
x-y,x,1/3+z
-y,x-y,2/3+z
-x,-y,z
-x+y,-x,1/3+z
y,-x+y,2/3+z
loop_
_atom_site_type_symbol
_atom_site_label
_atom_site_fract_x
_atom_site_fract_y
_atom_site_fract_z
Si Si1 0.399628 0.047807 0.929450
Si Si2 0.460341 0.212108 0.406935
Si Si3 0.774652 0.086880 0.488111
Si Si4 0.408533 0.837603 0.485698
Si Si5 0.234980 0.464561 0.337218
Si Si6 0.355021 0.923666 0.232856
Si Si7 0.000000 0.500000 0.374237
Si Si8 0.226193 0.307582 0.965744
O O1 0.331373 0.050495 0.805823
O O2 0.426943 0.991448 0.825894
O O3 0.467198 0.147217 0.939907
O O4 0.382503 0.003814 0.112561
O O5 0.547130 0.217726 0.464324
O O6 0.466582 0.223011 0.205174
O O7 0.442845 0.284128 0.472659
O O8 0.385704 0.128535 0.500010
O O9 0.784181 0.156764 0.622791
O O10 0.686684 0.061146 0.397374
O O11 0.848268 0.134320 0.354328
O O12 0.766671 0.002442 0.555242
O O13 0.315374 0.786293 0.571093
O O14 0.411572 0.887147 0.311816
O O15 0.466657 0.915771 0.604071
#
# Coordination Sequence:
#
# PCOD9580474 Si02
#       8
#     6   6   6   6   6   6   3   6
#     4  11  22  38  63  86 115 158 212 258 306 370
#     4  11  22  41  60  86 122 165 203 264 316 375
#     4   9  19  36  60  88 124 155 197 257 301 365
#     4  11  25  41  59  88 122 165 207 264 319 376
#     4  10  23  40  59  85 122 159 217 262 309 369
#     4  10  22  39  60  86 114 156 211 253 311 375
#     4  12  24  36  62  82 122 158 210 252 320 378
#     4  10  19  37  61  89 125 156 201 254 311 359
#
# _framework density 19.41601
#
# number of rings (size 3 to 8) (size 9 to 14) (size 15 to 20)
#    0.000    1.600    1.333    4.800    3.733    0.000 
#    2.400    0.000    0.000    0.000    0.000    0.000 
#    0.000  137.600    0.000    0.000    0.000    0.000 
#
# Total GULP energy -250645.541437 kJ/mol
# GULP energy per Si atom -5569.900921 kJ/mol
# Density = 1.937182 g / cm^3
# Si number density = 19.416010 Si / 1000 Ang^3
#
#
#
# Elastic Constant Matrix: (Units=GPa)
#
#
# Indices 1 2 3 4 5 6 
#
# 1 67.3201 32.3102 25.0271 0.0000 0.0000 0.0000
# 2 32.3102 67.3201 25.0271 0.0000 0.0000 0.0000
# 3 25.0271 25.0271 92.7686 0.0000 0.0000 0.0000
# 4 0.0000 0.0000 0.0000 25.3408 0.0000 0.0000
# 5 0.0000 0.0000 0.0000 0.0000 25.3408 0.0000
# 6 0.0000 0.0000 0.0000 0.0000 0.0000 17.5049
#
#
#
# Elastic Compliance Matrix: (Units=1/GPa)
#
#
# Indices 1 2 3 4 5 6 
#
# 1 0.020087 -0.008476 -0.003132 0.000000 0.000000 0.000000
# 2 -0.008476 0.020087 -0.003132 0.000000 0.000000 0.000000
# 3 -0.003132 -0.003132 0.012470 0.000000 0.000000 0.000000
# 4 0.000000 0.000000 0.000000 0.039462 0.000000 0.000000
# 5 0.000000 0.000000 0.000000 0.000000 0.039462 0.000000
# 6 0.000000 0.000000 0.000000 0.000000 0.000000 0.057127
#
#
# Mechanical properties :
#
#
# Convention : Reuss Voigt Hill
#
# Bulk Modulus (GPa) = 43.17459 43.57083 43.37271
# Shear Modulus (GPa) = 22.13396 23.30693 22.72045
#
# Velocity S-wave (km/s) = 3.38003 3.46843 3.42452
# Velocity P-wave (km/s) = 6.12517 6.20721 6.16632
#
# Compressibility (1/GPa) = 0.02316177
#
# Stress axis : x y z
#
# Youngs Moduli (GPa) = 49.78326 49.78326 80.19505
#
# Poissons Ratio (x) = 0.42198 0.25120
# Poissons Ratio (y) = 0.42198 0.25120
# Poissons Ratio (z) = 0.15594 0.15594
#
# Static dielectric constant tensor:
#      x y z
#    x 1.676300 0.000000 0.000000 
#    y 0.000000 1.676300 0.000000 
#    z 0.000000 0.000000 1.884150 
# 
# From -- ./inp_files/1331.got.cif
#   From: 2010.05.17/outbox.cif.g08.bks.cpg/sg171_1_cif.got.tgz:1331.got - 2010.05.20 11:16:09.
