data_PCOD9580549
_publ_section_title
;
Structure prediction by ZEFSAII (Michael W. Deem and Ramdas Pophale) SiO2 
 PCOD9580549
Probable space group: P 62
;
_chemical_formula_sum "Si O2"
_cell_formula_units_Z 39
_cell_length_a 9.968426
_cell_length_b 9.968426
_cell_length_c 23.062360
_cell_angle_alpha 90.000000
_cell_angle_beta 90.000000
_cell_angle_gamma 120.000000
_cell_volume 1984.666583
_symmetry_space_group_name_H-M "P 62"
_symmetry_group_IT_number 171
_symmetry_cell_setting 'hexagonal'
loop_
_space_group_symop_operation_xyz
x,y,z
x-y,x,1/3+z
-y,x-y,2/3+z
-x,-y,z
-x+y,-x,1/3+z
y,-x+y,2/3+z
loop_
_atom_site_type_symbol
_atom_site_label
_atom_site_fract_x
_atom_site_fract_y
_atom_site_fract_z
Si Si1 0.204854 0.383161 0.620820
Si Si2 0.500000 0.000000 0.559315
Si Si3 0.101274 0.851287 0.831083
Si Si4 0.318237 0.930830 0.373479
Si Si5 0.615949 0.931388 0.041465
Si Si6 0.742885 0.363867 0.321705
Si Si7 0.975306 0.765323 0.157792
O O1 0.193340 0.363750 0.552152
O O2 0.303698 0.309787 0.646645
O O3 0.298698 0.564503 0.635469
O O4 0.045848 0.311395 0.658640
O O5 0.454073 0.855216 0.601228
O O6 0.348394 0.965271 0.522548
O O7 0.085305 0.769998 0.769121
O O8 0.924645 0.804207 0.846018
O O9 0.206199 0.037211 0.828615
O O10 0.236775 0.746676 0.367485
O O11 0.250628 0.989913 0.423266
O O12 0.500000 0.000000 0.386671
O O13 0.500000 0.000000 0.052456
O O14 0.518777 0.759238 0.015576
#
# Coordination Sequence:
#
# PCOD9580549 Si02
#       7
#     6   3   6   6   6   6   6
#     4  10  21  44  65  89 130 171 218 274 328 401
#     4  12  24  42  64  94 142 166 222 274 340 406
#     4  11  24  42  67 100 124 176 230 266 339 406
#     4  10  20  41  64  85 128 166 214 266 329 392
#     4  10  22  42  67  95 136 171 222 284 341 402
#     4  10  24  38  63  99 123 176 214 268 340 390
#     4  11  24  41  62  98 130 171 219 276 334 398
#
# _framework density 19.650656000000001
#
# number of rings (size 3 to 8) (size 9 to 14) (size 15 to 20)
#    0.000    1.538    2.308    1.846    2.154    4.308 
#    5.538    1.538    0.000    0.000    0.000    0.000 
#    0.000    0.000    0.000    0.000    0.000    0.000 
#
# Total GULP energy -217607.232344 kJ/mol
# GULP energy per Si atom -5579.672624 kJ/mol
# Density = 1.960593 g / cm^3
# Si number density = 19.650656 Si / 1000 Ang^3
#
#
#
# Elastic Constant Matrix: (Units=GPa)
#
#
# Indices 1 2 3 4 5 6 
#
# 1 61.4538 21.1180 18.7404 0.0000 0.0000 0.0000
# 2 21.1180 61.4538 18.7404 0.0000 0.0000 0.0000
# 3 18.7404 18.7404 86.6953 0.0000 0.0000 0.0000
# 4 0.0000 0.0000 0.0000 28.7521 0.0000 0.0000
# 5 0.0000 0.0000 0.0000 0.0000 28.7521 0.0000
# 6 0.0000 0.0000 0.0000 0.0000 0.0000 20.1679
#
#
#
# Elastic Compliance Matrix: (Units=1/GPa)
#
#
# Indices 1 2 3 4 5 6 
#
# 1 0.019110 -0.005682 -0.002903 0.000000 0.000000 0.000000
# 2 -0.005682 0.019110 -0.002903 0.000000 0.000000 0.000000
# 3 -0.002903 -0.002903 0.012790 0.000000 0.000000 0.000000
# 4 0.000000 0.000000 0.000000 0.034780 0.000000 0.000000
# 5 0.000000 0.000000 0.000000 0.000000 0.034780 0.000000
# 6 0.000000 0.000000 0.000000 0.000000 0.000000 0.049584
#
#
# Mechanical properties :
#
#
# Convention : Reuss Voigt Hill
#
# Bulk Modulus (GPa) = 35.66937 36.31118 35.99028
# Shear Modulus (GPa) = 24.69462 25.60134 25.14798
#
# Velocity S-wave (km/s) = 3.54882 3.61338 3.58124
# Velocity P-wave (km/s) = 5.91467 5.99393 5.95443
#
# Compressibility (1/GPa) = 0.02803526
#
# Stress axis : x y z
#
# Youngs Moduli (GPa) = 52.32841 52.32841 78.18872
#
# Poissons Ratio (x) = 0.29732 0.22696
# Poissons Ratio (y) = 0.29732 0.22696
# Poissons Ratio (z) = 0.15189 0.15189
#
# Static dielectric constant tensor:
#      x y z
#    x 1.711940 0.000000 0.000000 
#    y 0.000000 1.711940 0.000000 
#    z 0.000000 0.000000 1.671800 
# 
# From -- ./inp_files/3965.got.cif
#   From: 2010.05.17/outbox.cif.g08.bks.cpg/sg171_2_cif.got.tgz:3965.got - 2010.05.20 11:16:09.
