data_PCOD9580649
_publ_section_title
;
Structure prediction by ZEFSAII (Michael W. Deem and Ramdas Pophale) SiO2 
 PCOD9580649
Probable space group: P 62
;
_chemical_formula_sum "Si O2"
_cell_formula_units_Z 42
_cell_length_a 9.239365
_cell_length_b 9.239365
_cell_length_c 27.827881
_cell_angle_alpha 90.000000
_cell_angle_beta 90.000000
_cell_angle_gamma 120.000000
_cell_volume 2057.287643
_symmetry_space_group_name_H-M "P 62"
_symmetry_group_IT_number 171
_symmetry_cell_setting 'hexagonal'
loop_
_space_group_symop_operation_xyz
x,y,z
x-y,x,1/3+z
-y,x-y,2/3+z
-x,-y,z
-x+y,-x,1/3+z
y,-x+y,2/3+z
loop_
_atom_site_type_symbol
_atom_site_label
_atom_site_fract_x
_atom_site_fract_y
_atom_site_fract_z
Si Si1 0.193212 0.622003 0.828080
Si Si2 0.215695 0.435332 0.202639
Si Si3 0.500000 0.500000 0.938731
Si Si4 0.883637 0.068482 0.446239
Si Si5 0.534543 0.856091 0.415172
Si Si6 0.000000 0.500000 0.598111
Si Si7 0.112084 0.410979 0.418145
Si Si8 0.314095 0.678994 0.666403
O O1 0.361473 0.687412 0.860522
O O2 0.233596 0.529601 0.785420
O O3 0.216227 0.785347 0.800216
O O4 0.000000 0.500000 0.845226
O O5 0.064549 0.405066 0.237378
O O6 0.144537 0.325158 0.154862
O O7 0.342184 0.392190 0.230302
O O8 0.619579 0.457479 0.970987
O O9 0.988698 0.218886 0.410277
O O10 0.730684 0.931412 0.415722
O O11 0.000000 0.000000 0.466228
O O12 0.435892 0.795968 0.365240
O O13 0.500000 0.000000 0.434489
O O14 0.162243 0.562802 0.631469
O O15 0.233996 0.491293 0.373428
O O16 0.000000 0.500000 0.424228
#
# Coordination Sequence:
#
# PCOD9580649 Si02
#       8
#     6   6   3   6   6   3   6   6
#     4  11  22  38  67  99 125 164 219 277 337 403
#     4  11  21  43  63  90 135 173 221 272 336 403
#     4  10  22  40  65  84 118 188 216 255 318 410
#     4  12  24  38  66 104 132 163 207 285 355 383
#     4  11  22  40  62 100 135 160 208 292 340 389
#     4  10  24  40  65  84 128 184 220 263 304 404
#     4  11  20  38  65  91 129 163 206 264 342 397
#     4  10  23  40  62  90 119 176 227 251 321 406
#
# _framework density 20.415229
#
# number of rings (size 3 to 8) (size 9 to 14) (size 15 to 20)
#    0.000    1.143    3.571    3.429    6.000    0.000 
#    0.000    4.286    0.000    0.000    0.000    0.000 
#    0.000    0.000    0.000    0.000    0.000    0.000 
#
# Total GULP energy -234227.233192 kJ/mol
# GULP energy per Si atom -5576.838886 kJ/mol
# Density = 2.036876 g / cm^3
# Si number density = 20.415229 Si / 1000 Ang^3
#
#
#
# Elastic Constant Matrix: (Units=GPa)
#
#
# Indices 1 2 3 4 5 6 
#
# 1 113.5645 37.3241 38.5581 0.0000 0.0000 0.0000
# 2 37.3241 113.5645 38.5581 0.0000 0.0000 0.0000
# 3 38.5581 38.5581 75.6734 0.0000 0.0000 0.0000
# 4 0.0000 0.0000 0.0000 13.6133 0.0000 0.0000
# 5 0.0000 0.0000 0.0000 0.0000 13.6133 0.0000
# 6 0.0000 0.0000 0.0000 0.0000 0.0000 38.1202
#
#
#
# Elastic Compliance Matrix: (Units=1/GPa)
#
#
# Indices 1 2 3 4 5 6 
#
# 1 0.011039 -0.002078 -0.004566 0.000000 0.000000 0.000000
# 2 -0.002078 0.011039 -0.004566 0.000000 0.000000 0.000000
# 3 -0.004566 -0.004566 0.017868 0.000000 0.000000 0.000000
# 4 0.000000 0.000000 0.000000 0.073457 0.000000 0.000000
# 5 0.000000 0.000000 0.000000 0.000000 0.073457 0.000000
# 6 0.000000 0.000000 0.000000 0.000000 0.000000 0.026233
#
#
# Mechanical properties :
#
#
# Convention : Reuss Voigt Hill
#
# Bulk Modulus (GPa) = 57.05832 59.07590 58.06711
# Shear Modulus (GPa) = 20.71647 25.62683 23.17165
#
# Velocity S-wave (km/s) = 3.18898 3.54684 3.37266
# Velocity P-wave (km/s) = 6.44740 6.76560 6.60842
#
# Compressibility (1/GPa) = 0.01752593
#
# Stress axis : x y z
#
# Youngs Moduli (GPa) = 90.59052 90.59052 55.96707
#
# Poissons Ratio (x) = 0.18822 0.25554
# Poissons Ratio (y) = 0.18822 0.25554
# Poissons Ratio (z) = 0.41363 0.41363
#
# Static dielectric constant tensor:
#      x y z
#    x 1.756160 0.000000 0.000000 
#    y 0.000000 1.756160 0.000000 
#    z 0.000000 0.000000 1.741930 
# 
# From -- ./inp_files/6134.got.cif
#   From: 2010.05.17/outbox.cif.g08.bks.cpg/sg171_4_cif.got.tgz:6134.got - 2010.05.20 11:16:09.
