data_PCOD9580069
_publ_section_title
;
Structure prediction by ZEFSAII (Michael W. Deem and Ramdas Pophale) SiO2 
 PCOD9580069
Probable space group: P 61
;
_chemical_formula_sum "Si O2"
_cell_formula_units_Z 24
_cell_length_a 14.026996
_cell_length_b 14.026996
_cell_length_c 5.269198
_cell_angle_alpha 90.000000
_cell_angle_beta 90.000000
_cell_angle_gamma 120.000000
_cell_volume 897.851466
_symmetry_space_group_name_H-M "P 61"
_symmetry_group_IT_number 169
_symmetry_cell_setting 'hexagonal'
loop_
_space_group_symop_operation_xyz
x,y,z
x-y,x,1/6+z
-y,x-y,1/3+z
-x,-y,1/2+z
-x+y,-x,2/3+z
y,-x+y,5/6+z
loop_
_atom_site_type_symbol
_atom_site_label
_atom_site_fract_x
_atom_site_fract_y
_atom_site_fract_z
Si Si1 0.759430 0.326858 0.137070
Si Si2 0.322462 0.367531 0.802727
Si Si3 0.235280 0.166239 0.116408
Si Si4 0.565936 0.641833 0.791969
O O1 0.750057 0.381723 0.396189
O O2 0.827597 0.266555 0.062548
O O3 0.831243 0.440519 0.980690
O O4 0.379840 0.385422 0.531553
O O5 0.250063 0.237219 0.859732
O O6 0.412867 0.404236 0.030841
O O7 0.151326 0.190847 0.264076
O O8 0.354866 0.227226 0.246740
#
# Coordination Sequence:
#
# PCOD9580069 Si02
#       4
#     6   6   6   6
#     4  12  30  42  76 114 162 204 266 304 388 468
#     4  10  26  49  77 105 153 207 253 321 382 462
#     4  10  26  50  78 110 150 194 266 320 402 446
#     4  10  26  49  77 105 153 207 253 321 382 462
#
# _framework density 26.730481999999999
#
# number of rings (size 3 to 8) (size 9 to 14) (size 15 to 20)
#    1.500    0.000    0.000    1.500   17.500    0.000 
#    4.500    0.000    0.000    0.000    0.000    0.000 
#    0.000    0.000    0.000    0.000    0.000    0.000 
#
# Total GULP energy -133928.150153 kJ/mol
# GULP energy per Si atom -5580.339590 kJ/mol
# Density = 2.666964 g / cm^3
# Si number density = 26.730482 Si / 1000 Ang^3
#
#
#
# Elastic Constant Matrix: (Units=GPa)
#
#
# Indices 1 2 3 4 5 6 
#
# 1 85.2121 24.4766 14.8279 0.0000 0.0000 0.0000
# 2 24.4766 85.2121 14.8279 0.0000 0.0000 0.0000
# 3 14.8279 14.8279 130.1767 0.0000 0.0000 0.0000
# 4 0.0000 0.0000 0.0000 -74.0872 0.0000 0.0000
# 5 0.0000 0.0000 0.0000 0.0000 -74.0872 0.0000
# 6 0.0000 0.0000 0.0000 0.0000 0.0000 30.3677
#
#
#
# Elastic Compliance Matrix: (Units=1/GPa)
#
#
# Indices 1 2 3 4 5 6 
#
# 1 0.012936 -0.003529 -0.001071 0.000000 0.000000 0.000000
# 2 -0.003529 0.012936 -0.001071 0.000000 0.000000 0.000000
# 3 -0.001071 -0.001071 0.007926 0.000000 0.000000 0.000000
# 4 0.000000 0.000000 0.000000 -0.013498 0.000000 0.000000
# 5 0.000000 0.000000 0.000000 0.000000 -0.013498 0.000000
# 6 0.000000 0.000000 0.000000 0.000000 0.000000 0.032930
#
#
# Mechanical properties :
#
#
# Convention : Reuss Voigt Hill
#
# Bulk Modulus (GPa) = 44.53756 45.42951 44.98354
# Shear Modulus (GPa) = 85.38220 -7.13011 39.12605
#
# Velocity S-wave (km/s) = 5.65785 -1.63499 3.83002
# Velocity P-wave (km/s) = 7.70581 3.66988 6.03521
#
# Compressibility (1/GPa) = 0.02245296
#
# Stress axis : x y z
#
# Youngs Moduli (GPa) = 77.30594 77.30594 126.16781
#
# Poissons Ratio (x) = 0.27283 0.13518
# Poissons Ratio (y) = 0.27283 0.13518
# Poissons Ratio (z) = 0.08283 0.08283
#
# Static dielectric constant tensor:
#      x y z
#    x 4.941770 0.000000 0.000000 
#    y 0.000000 4.941770 0.000000 
#    z 0.000000 0.000000 2.165850 
# 
# From -- ./inp_files/97.got.cif
#   From: 2010.05.17/outbox.cif.g08.bks.cpg/sg169_cif.got.tgz:97.got - 2010.05.20 11:12:54.
