data_PCOD9580967
_publ_section_title
;
Structure prediction by ZEFSAII (Michael W. Deem and Ramdas Pophale) SiO2 
 PCOD9580967
Probable space group: P 64
;
_chemical_formula_sum "Si O2"
_cell_formula_units_Z 48
_cell_length_a 14.379987
_cell_length_b 14.379987
_cell_length_c 12.236666
_cell_angle_alpha 90.000000
_cell_angle_beta 90.000000
_cell_angle_gamma 120.000000
_cell_volume 2191.344836
_symmetry_space_group_name_H-M "P 64"
_symmetry_group_IT_number 172
_symmetry_cell_setting 'hexagonal'
loop_
_space_group_symop_operation_xyz
x,y,z
x-y,x,2/3+z
-y,x-y,1/3+z
-x,-y,z
-x+y,-x,2/3+z
y,-x+y,1/3+z
loop_
_atom_site_type_symbol
_atom_site_label
_atom_site_fract_x
_atom_site_fract_y
_atom_site_fract_z
Si Si1 0.389888 0.058531 0.143250
Si Si2 0.681620 0.080095 0.921326
Si Si3 0.269340 0.544806 0.715011
Si Si4 0.410342 0.387441 0.045140
Si Si5 0.417377 0.042285 0.705944
Si Si6 0.179656 0.278235 0.146391
Si Si7 0.636377 0.404428 0.483637
Si Si8 0.813560 0.095580 0.591055
O O1 0.502069 0.158661 0.102004
O O2 0.328806 0.120473 0.192807
O O3 0.394626 0.995563 0.248463
O O4 0.345458 0.977369 0.039384
O O5 0.809222 0.147059 0.901891
O O6 0.633504 0.154966 0.877424
O O7 0.632914 0.988171 0.827984
O O8 0.146912 0.455489 0.738115
O O9 0.282839 0.552057 0.584999
O O10 0.306273 0.662766 0.762181
O O11 0.500000 0.500000 0.089083
O O12 0.296165 0.357521 0.094228
O O13 0.503805 0.169692 0.724072
O O14 0.500000 0.000000 0.687317
O O15 0.316185 0.969794 0.624821
O O16 0.184724 0.177779 0.189827
O O17 0.105171 0.245096 0.043052
#
# Coordination Sequence:
#
# PCOD9580967 Si02
#       8
#     6   6   6   6   6   6   6   6
#     4  11  24  44  71  99 141 193 248 305 369 445
#     4  10  22  43  69  97 139 189 246 301 361 444
#     4  12  25  42  66 106 146 192 247 302 359 455
#     4  11  24  41  66  97 143 189 234 297 367 430
#     4   9  20  39  64  91 138 187 233 288 348 422
#     4  10  22  43  68 100 133 179 235 294 370 426
#     4  11  25  40  64 104 147 194 246 291 363 454
#     4  10  22  43  69 101 134 179 239 298 368 429
#
# _framework density 21.904357000000001
#
# number of rings (size 3 to 8) (size 9 to 14) (size 15 to 20)
#    0.000    1.500    2.500    1.500    5.250    4.500 
#    0.000    0.000    0.000    2.250    0.000    0.000 
#    0.000    0.000    0.000    0.000    0.000    0.000 
#
# Total GULP energy -267329.554894 kJ/mol
# GULP energy per Si atom -5569.365727 kJ/mol
# Density = 2.185450 g / cm^3
# Si number density = 21.904357 Si / 1000 Ang^3
#
#
#
# Elastic Constant Matrix: (Units=GPa)
#
#
# Indices 1 2 3 4 5 6 
#
# 1 90.4177 29.7285 29.9760 0.0000 0.0000 0.0000
# 2 29.7285 90.4177 29.9760 0.0000 0.0000 0.0000
# 3 29.9760 29.9760 114.9692 0.0000 0.0000 0.0000
# 4 0.0000 0.0000 0.0000 21.3624 0.0000 0.0000
# 5 0.0000 0.0000 0.0000 0.0000 21.3624 0.0000
# 6 0.0000 0.0000 0.0000 0.0000 0.0000 30.3446
#
#
#
# Elastic Compliance Matrix: (Units=1/GPa)
#
#
# Indices 1 2 3 4 5 6 
#
# 1 0.013023 -0.003455 -0.002495 0.000000 0.000000 0.000000
# 2 -0.003455 0.013023 -0.002495 0.000000 0.000000 0.000000
# 3 -0.002495 -0.002495 0.009999 0.000000 0.000000 0.000000
# 4 0.000000 0.000000 0.000000 0.046811 0.000000 0.000000
# 5 0.000000 0.000000 0.000000 0.000000 0.046811 0.000000
# 6 0.000000 0.000000 0.000000 0.000000 0.000000 0.032955
#
#
# Mechanical properties :
#
#
# Convention : Reuss Voigt Hill
#
# Bulk Modulus (GPa) = 52.20243 52.79615 52.49929
# Shear Modulus (GPa) = 26.89692 28.35549 27.62621
#
# Velocity S-wave (km/s) = 3.50798 3.60184 3.55522
# Velocity P-wave (km/s) = 6.34757 6.43840 6.39315
#
# Compressibility (1/GPa) = 0.01915620
#
# Stress axis : x y z
#
# Youngs Moduli (GPa) = 76.78892 76.78892 100.01142
#
# Poissons Ratio (x) = 0.26528 0.24950
# Poissons Ratio (y) = 0.26528 0.24950
# Poissons Ratio (z) = 0.19156 0.19156
#
# Static dielectric constant tensor:
#      x y z
#    x 1.869730 0.000000 0.000000 
#    y 0.000000 1.869730 0.000000 
#    z 0.000000 0.000000 1.843840 
# 
# From -- ./inp_files/1147.got.cif
#   From: 2010.05.17/outbox.cif.g08.bks.cpg/sg172_1_cif.got.tgz:1147.got - 2010.05.20 11:19:57.
