data_PCOD9580652
_publ_section_title
;
Structure prediction by ZEFSAII (Michael W. Deem and Ramdas Pophale) SiO2 
 PCOD9580652
Probable space group: P 62
;
_chemical_formula_sum "Si O2"
_cell_formula_units_Z 42
_cell_length_a 8.881559
_cell_length_b 8.881559
_cell_length_c 27.358068
_cell_angle_alpha 90.000000
_cell_angle_beta 90.000000
_cell_angle_gamma 120.000000
_cell_volume 1868.936160
_symmetry_space_group_name_H-M "P 62"
_symmetry_group_IT_number 171
_symmetry_cell_setting 'hexagonal'
loop_
_space_group_symop_operation_xyz
x,y,z
x-y,x,1/3+z
-y,x-y,2/3+z
-x,-y,z
-x+y,-x,1/3+z
y,-x+y,2/3+z
loop_
_atom_site_type_symbol
_atom_site_label
_atom_site_fract_x
_atom_site_fract_y
_atom_site_fract_z
Si Si1 0.555250 0.355873 0.946220
Si Si2 0.334936 0.307671 0.193392
Si Si3 0.800546 0.885279 0.291413
Si Si4 0.187018 0.517770 0.168896
Si Si5 0.308114 0.882503 0.341053
Si Si6 0.094183 0.281958 0.362832
Si Si7 0.508482 0.825011 0.120825
O O1 0.500000 0.500000 0.938721
O O2 0.582682 0.319237 0.890798
O O3 0.721040 0.417354 0.980224
O O4 0.394599 0.229486 0.979854
O O5 0.500000 0.500000 0.185217
O O6 0.301802 0.256350 0.249931
O O7 0.183283 0.333516 0.168741
O O8 0.371657 0.171319 0.165627
O O9 0.829993 0.842981 0.347688
O O10 0.711582 0.001429 0.298929
O O11 0.000000 0.000000 0.272904
O O12 0.319232 0.658780 0.130848
O O13 0.000000 0.500000 0.163986
O O14 0.115271 0.798784 0.366997
O O15 0.500000 0.000000 0.365079
O O16 0.195325 0.403511 0.407494
O O17 0.500000 0.000000 0.116294
#
# Coordination Sequence:
#
# PCOD9580652 Si02
#       7
#     6   6   6   6   6   6   6
#     4   9  19  37  68  99 133 175 223 284 345 418
#     4  10  23  41  65  98 136 183 227 283 356 427
#     4  10  22  40  65  95 134 177 230 288 340 412
#     4  10  22  43  70 102 134 182 234 285 356 427
#     4  10  23  36  66 108 129 171 225 299 341 410
#     4  10  22  48  65  93 145 183 230 280 367 421
#     4  11  27  45  67  99 139 189 230 297 354 435
#
# _framework density 22.47268
#
# number of rings (size 3 to 8) (size 9 to 14) (size 15 to 20)
#    0.000    2.000    1.429    0.000    8.000    6.857 
#    0.000   10.714    0.000    0.000    0.000    0.000 
#    0.000    0.000    0.000    0.000    0.000    0.000 
#
# Total GULP energy -233909.407434 kJ/mol
# GULP energy per Si atom -5569.271606 kJ/mol
# Density = 2.242153 g / cm^3
# Si number density = 22.472680 Si / 1000 Ang^3
#
#
#
# Elastic Constant Matrix: (Units=GPa)
#
#
# Indices 1 2 3 4 5 6 
#
# 1 88.7044 23.7030 26.2015 0.0000 0.0000 0.0000
# 2 23.7030 88.7044 26.2015 0.0000 0.0000 0.0000
# 3 26.2015 26.2015 97.7812 0.0000 0.0000 0.0000
# 4 0.0000 0.0000 0.0000 11.9994 0.0000 0.0000
# 5 0.0000 0.0000 0.0000 0.0000 11.9994 0.0000
# 6 0.0000 0.0000 0.0000 0.0000 0.0000 32.5007
#
#
#
# Elastic Compliance Matrix: (Units=1/GPa)
#
#
# Indices 1 2 3 4 5 6 
#
# 1 0.012775 -0.002609 -0.002724 0.000000 0.000000 0.000000
# 2 -0.002609 0.012775 -0.002724 0.000000 0.000000 0.000000
# 3 -0.002724 -0.002724 0.011687 0.000000 0.000000 0.000000
# 4 0.000000 0.000000 0.000000 0.083338 0.000000 0.000000
# 5 0.000000 0.000000 0.000000 0.000000 0.083338 0.000000
# 6 0.000000 0.000000 0.000000 0.000000 0.000000 0.030769
#
#
# Mechanical properties :
#
#
# Convention : Reuss Voigt Hill
#
# Bulk Modulus (GPa) = 47.34255 47.48910 47.41583
# Shear Modulus (GPa) = 19.39210 24.57215 21.98213
#
# Velocity S-wave (km/s) = 2.94073 3.31028 3.13097
# Velocity P-wave (km/s) = 5.71341 5.98234 5.84942
#
# Compressibility (1/GPa) = 0.02112265
#
# Stress axis : x y z
#
# Youngs Moduli (GPa) = 78.27652 78.27652 85.56640
#
# Poissons Ratio (x) = 0.20423 0.23309
# Poissons Ratio (y) = 0.20423 0.23309
# Poissons Ratio (z) = 0.21323 0.21323
#
# Static dielectric constant tensor:
#      x y z
#    x 1.952050 0.000000 0.000000 
#    y 0.000000 1.952050 0.000000 
#    z 0.000000 0.000000 1.829180 
# 
# From -- ./inp_files/6129.got.cif
#   From: 2010.05.17/outbox.cif.g08.bks.cpg/sg171_4_cif.got.tgz:6129.got - 2010.05.20 11:16:09.
