data_PCOD9580638
_publ_section_title
;
Structure prediction by ZEFSAII (Michael W. Deem and Ramdas Pophale) SiO2 
 PCOD9580638
Probable space group: P 62
;
_chemical_formula_sum "Si O2"
_cell_formula_units_Z 24
_cell_length_a 14.839493
_cell_length_b 14.839493
_cell_length_c 5.445698
_cell_angle_alpha 90.000000
_cell_angle_beta 90.000000
_cell_angle_gamma 120.000000
_cell_volume 1038.537807
_symmetry_space_group_name_H-M "P 62"
_symmetry_group_IT_number 171
_symmetry_cell_setting 'hexagonal'
loop_
_space_group_symop_operation_xyz
x,y,z
x-y,x,1/3+z
-y,x-y,2/3+z
-x,-y,z
-x+y,-x,1/3+z
y,-x+y,2/3+z
loop_
_atom_site_type_symbol
_atom_site_label
_atom_site_fract_x
_atom_site_fract_y
_atom_site_fract_z
Si Si1 0.654222 0.834299 0.835100
Si Si2 0.342861 0.509971 0.806623
Si Si3 0.502288 0.672532 0.175196
Si Si4 0.677276 0.012208 0.159800
O O1 0.551512 0.814447 0.691598
O O2 0.700981 0.782431 0.652742
O O3 0.611773 0.761115 0.069522
O O4 0.700926 0.948515 0.951265
O O5 0.285733 0.551621 0.623680
O O6 0.347165 0.417625 0.662328
O O7 0.441607 0.594836 0.955478
O O8 0.547519 0.632303 0.388757
#
# Coordination Sequence:
#
# PCOD9580638 Si02
#       4
#     6   6   6   6
#     4  10  22  38  62  90 126 166 216 272 326 388
#     4  10  23  41  62  90 130 178 223 268 318 379
#     4  10  23  41  62  90 130 178 223 268 318 379
#     4  10  22  41  62  90 126 169 222 274 328 385
#
# _framework density 23.109416
#
# number of rings (size 3 to 8) (size 9 to 14) (size 15 to 20)
#    0.000    2.000    0.000    1.500    0.000   16.000 
#    0.000    7.500    0.000    0.000    0.000    0.000 
#    0.000 1180.000    0.000    0.000    0.000    0.000 
#
# Total GULP energy -133920.044208 kJ/mol
# GULP energy per Si atom -5580.001842 kJ/mol
# Density = 2.305682 g / cm^3
# Si number density = 23.109416 Si / 1000 Ang^3
#
#
#
# Elastic Constant Matrix: (Units=GPa)
#
#
# Indices 1 2 3 4 5 6 
#
# 1 100.3869 74.2025 52.2020 0.0000 0.0000 0.0000
# 2 74.2025 100.3869 52.2020 0.0000 0.0000 0.0000
# 3 52.2020 52.2020 94.6855 0.0000 0.0000 0.0000
# 4 0.0000 0.0000 0.0000 51.0636 0.0000 0.0000
# 5 0.0000 0.0000 0.0000 0.0000 51.0636 0.0000
# 6 0.0000 0.0000 0.0000 0.0000 0.0000 13.0922
#
#
#
# Elastic Compliance Matrix: (Units=1/GPa)
#
#
# Indices 1 2 3 4 5 6 
#
# 1 0.023368 -0.014823 -0.004711 0.000000 0.000000 0.000000
# 2 -0.014823 0.023368 -0.004711 0.000000 0.000000 0.000000
# 3 -0.004711 -0.004711 0.015756 0.000000 0.000000 0.000000
# 4 0.000000 0.000000 0.000000 0.019583 0.000000 0.000000
# 5 0.000000 0.000000 0.000000 0.000000 0.019583 0.000000
# 6 0.000000 0.000000 0.000000 0.000000 0.000000 0.076381
#
#
# Mechanical properties :
#
#
# Convention : Reuss Voigt Hill
#
# Bulk Modulus (GPa) = 71.42003 72.51916 71.96960
# Shear Modulus (GPa) = 21.62665 30.83406 26.23036
#
# Velocity S-wave (km/s) = 3.06246 3.65672 3.37271
# Velocity P-wave (km/s) = 6.59372 7.01981 6.81010
#
# Compressibility (1/GPa) = 0.01400167
#
# Stress axis : x y z
#
# Youngs Moduli (GPa) = 42.79401 42.79401 63.46880
#
# Poissons Ratio (x) = 0.63433 0.29900
# Poissons Ratio (y) = 0.63433 0.29900
# Poissons Ratio (z) = 0.20160 0.20160
#
# Static dielectric constant tensor:
#      x y z
#    x 1.881140 0.000000 0.000000 
#    y 0.000000 1.881140 0.000000 
#    z 0.000000 0.000000 1.923280 
# 
# From -- ./inp_files/4097.got.cif
#   From: 2010.05.17/outbox.cif.g08.bks.cpg/sg171_3_cif.got.tgz:4097.got - 2010.05.20 11:16:09.
