data_PCOD9580140
_publ_section_title
;
Structure prediction by ZEFSAII (Michael W. Deem and Ramdas Pophale) SiO2 
 PCOD9580140
Probable space group: P 61
;
_chemical_formula_sum "Si O2"
_cell_formula_units_Z 24
_cell_length_a 7.207873
_cell_length_b 7.207873
_cell_length_c 18.185844
_cell_angle_alpha 90.000000
_cell_angle_beta 90.000000
_cell_angle_gamma 120.000000
_cell_volume 818.235551
_symmetry_space_group_name_H-M "P 61"
_symmetry_group_IT_number 169
_symmetry_cell_setting 'hexagonal'
loop_
_space_group_symop_operation_xyz
x,y,z
x-y,x,1/6+z
-y,x-y,1/3+z
-x,-y,1/2+z
-x+y,-x,2/3+z
y,-x+y,5/6+z
loop_
_atom_site_type_symbol
_atom_site_label
_atom_site_fract_x
_atom_site_fract_y
_atom_site_fract_z
Si Si1 0.463154 0.621610 0.701900
Si Si2 0.390935 0.000121 0.399985
Si Si3 0.466314 0.536892 0.863305
Si Si4 0.097119 0.007499 0.760436
O O1 0.535816 0.535793 0.633627
O O2 0.464822 0.505047 0.775586
O O3 0.565252 0.870032 0.716938
O O4 0.209283 0.533859 0.685561
O O5 0.523701 0.236691 0.368625
O O6 0.161268 0.965832 0.426262
O O7 0.275593 0.333181 0.902614
O O8 0.965173 0.877663 0.684130
#
# Coordination Sequence:
#
# PCOD9580140 Si02
#       4
#     6   6   6   6
#     4  12  27  50  81 117 168 209 279 342 407 503
#     4  12  25  50  76 116 165 212 271 343 402 502
#     4  12  28  50  82 122 158 220 273 339 426 486
#     4  12  24  50  81 113 169 215 273 354 413 495
#
# _framework density 29.331406999999999
#
# number of rings (size 3 to 8) (size 9 to 14) (size 15 to 20)
#    0.000    0.000    5.000    3.000    3.500    2.000 
#    0.000    0.000    0.000    0.000    0.000    0.000 
#    0.000    0.000    0.000    0.000    0.000    0.000 
#
# Total GULP energy -134264.303467 kJ/mol
# GULP energy per Si atom -5594.345978 kJ/mol
# Density = 2.926465 g / cm^3
# Si number density = 29.331407 Si / 1000 Ang^3
#
#
#
# Elastic Constant Matrix: (Units=GPa)
#
#
# Indices 1 2 3 4 5 6 
#
# 1 123.3167 24.3331 16.9177 0.0000 0.0000 0.0000
# 2 24.3331 123.3167 16.9177 0.0000 0.0000 0.0000
# 3 16.9177 16.9177 204.6212 0.0000 0.0000 0.0000
# 4 0.0000 0.0000 0.0000 46.1574 0.0000 0.0000
# 5 0.0000 0.0000 0.0000 0.0000 46.1574 0.0000
# 6 0.0000 0.0000 0.0000 0.0000 0.0000 49.4918
#
#
#
# Elastic Compliance Matrix: (Units=1/GPa)
#
#
# Indices 1 2 3 4 5 6 
#
# 1 0.008503 -0.001600 -0.000571 0.000000 0.000000 0.000000
# 2 -0.001600 0.008503 -0.000571 0.000000 0.000000 0.000000
# 3 -0.000571 -0.000571 0.004981 0.000000 0.000000 0.000000
# 4 0.000000 0.000000 0.000000 0.021665 0.000000 0.000000
# 5 0.000000 0.000000 0.000000 0.000000 0.021665 0.000000
# 6 0.000000 0.000000 0.000000 0.000000 0.000000 0.020205
#
#
# Mechanical properties :
#
#
# Convention : Reuss Voigt Hill
#
# Bulk Modulus (GPa) = 60.58577 63.06572 61.82575
# Shear Modulus (GPa) = 51.80963 54.56705 53.18834
#
# Velocity S-wave (km/s) = 4.20736 4.31787 4.26297
# Velocity P-wave (km/s) = 6.65605 6.81223 6.73459
#
# Compressibility (1/GPa) = 0.01650553
#
# Stress axis : x y z
#
# Youngs Moduli (GPa) = 117.60369 117.60369 200.74434
#
# Poissons Ratio (x) = 0.18811 0.11458
# Poissons Ratio (y) = 0.18811 0.11458
# Poissons Ratio (z) = 0.06713 0.06713
#
# Static dielectric constant tensor:
#      x y z
#    x 2.299020 0.000000 0.000000 
#    y 0.000000 2.299020 0.000000 
#    z 0.000000 0.000000 2.563970 
# 
# From -- ./inp_files/1294.got.cif
#   From: 2010.05.17/outbox.cif.g08.bks.cpg/sg169_cif.got.tgz:1294.got - 2010.05.20 11:12:54.
