data_PCOD9580336
_publ_section_title
;
Structure prediction by ZEFSAII (Michael W. Deem and Ramdas Pophale) SiO2 
 PCOD9580336
Probable space group: P 65
;
_chemical_formula_sum "Si O2"
_cell_formula_units_Z 48
_cell_length_a 16.397527
_cell_length_b 16.397527
_cell_length_c 8.228025
_cell_angle_alpha 90.000000
_cell_angle_beta 90.000000
_cell_angle_gamma 120.000000
_cell_volume 1915.944584
_symmetry_space_group_name_H-M "P 65"
_symmetry_group_IT_number 170
_symmetry_cell_setting 'hexagonal'
loop_
_space_group_symop_operation_xyz
x,y,z
x-y,x,5/6+z
-y,x-y,2/3+z
-x,-y,1/2+z
-x+y,-x,1/3+z
y,-x+y,1/6+z
loop_
_atom_site_type_symbol
_atom_site_label
_atom_site_fract_x
_atom_site_fract_y
_atom_site_fract_z
Si Si1 0.598827 0.863758 0.703010
Si Si2 0.151025 0.202798 0.857908
Si Si3 0.617790 0.623509 0.764532
Si Si4 0.836603 0.583708 0.029907
Si Si5 0.554861 0.966985 0.422683
Si Si6 0.736395 0.681610 0.044916
Si Si7 0.719319 0.326912 0.259845
Si Si8 0.471249 0.306618 0.034340
O O1 0.706521 0.895409 0.647475
O O2 0.528710 0.753025 0.687326
O O3 0.589636 0.900457 0.876532
O O4 0.560600 0.910279 0.574026
O O5 0.166108 0.121946 0.950931
O O6 0.220562 0.248402 0.699480
O O7 0.512321 0.537179 0.785116
O O8 0.603782 0.666955 0.598835
O O9 0.674728 0.697566 0.907763
O O10 0.931407 0.579104 0.059073
O O11 0.822669 0.670355 0.978723
O O12 0.765824 0.492750 0.931134
O O13 0.807408 0.572759 0.220497
O O14 0.575420 0.920495 0.266223
O O15 0.685312 0.340076 0.084534
O O16 0.811609 0.427388 0.306113
#
# Coordination Sequence:
#
# PCOD9580336 Si02
#       8
#     6   6   6   6   6   6   6   6
#     4  11  23  43  72  98 140 193 227 288 360 434
#     4  11  24  49  80 104 135 181 230 287 380 463
#     4  12  26  40  66 111 142 178 247 304 343 423
#     4  11  22  43  67  89 137 193 233 284 362 418
#     4  11  23  41  68  98 141 193 237 286 347 416
#     4  11  24  41  70 104 143 186 241 296 361 437
#     4  10  25  39  63  92 140 188 244 289 349 410
#     4  11  23  42  66  92 136 186 239 280 356 421
#
# _framework density 25.052917999999998
#
# number of rings (size 3 to 8) (size 9 to 14) (size 15 to 20)
#    0.000    1.000    3.750    3.750    7.000    3.000 
#    0.000    2.500    0.000    0.000    0.000    0.000 
#    0.000    0.000    0.000    0.000    0.000    0.000 
#
# Total GULP energy -267422.755943 kJ/mol
# GULP energy per Si atom -5571.307415 kJ/mol
# Density = 2.499590 g / cm^3
# Si number density = 25.052918 Si / 1000 Ang^3
#
#
#
# Elastic Constant Matrix: (Units=GPa)
#
#
# Indices 1 2 3 4 5 6 
#
# 1 84.0344 26.7792 5.5926 0.0000 0.0000 0.0000
# 2 26.7792 84.0344 5.5926 0.0000 0.0000 0.0000
# 3 5.5926 5.5926 64.4192 0.0000 0.0000 0.0000
# 4 0.0000 0.0000 0.0000 33.8408 0.0000 0.0000
# 5 0.0000 0.0000 0.0000 0.0000 33.8408 0.0000
# 6 0.0000 0.0000 0.0000 0.0000 0.0000 28.6276
#
#
#
# Elastic Compliance Matrix: (Units=1/GPa)
#
#
# Indices 1 2 3 4 5 6 
#
# 1 0.013285 -0.004181 -0.000790 0.000000 0.000000 0.000000
# 2 -0.004181 0.013285 -0.000790 0.000000 0.000000 0.000000
# 3 -0.000790 -0.000790 0.015661 0.000000 0.000000 0.000000
# 4 0.000000 0.000000 0.000000 0.029550 0.000000 0.000000
# 5 0.000000 0.000000 0.000000 0.000000 0.029550 0.000000
# 6 0.000000 0.000000 0.000000 0.000000 0.000000 0.034931
#
#
# Mechanical properties :
#
#
# Convention : Reuss Voigt Hill
#
# Bulk Modulus (GPa) = 32.56587 34.26851 33.41719
# Shear Modulus (GPa) = 31.64145 32.23008 31.93576
#
# Velocity S-wave (km/s) = 3.55770 3.59064 3.57421
# Velocity P-wave (km/s) = 5.46840 5.55864 5.51370
#
# Compressibility (1/GPa) = 0.03070700
#
# Stress axis : x y z
#
# Youngs Moduli (GPa) = 75.27397 75.27397 63.85471
#
# Poissons Ratio (x) = 0.31471 0.05047
# Poissons Ratio (y) = 0.31471 0.05047
# Poissons Ratio (z) = 0.05949 0.05949
#
# Static dielectric constant tensor:
#      x y z
#    x 2.150110 0.000000 0.000000 
#    y 0.000000 2.150110 0.000000 
#    z 0.000000 0.000000 2.080530 
# 
# From -- ./inp_files/763.got.cif
#   From: 2010.05.17/outbox.cif.g08.bks.cpg/sg170_cif.got.tgz:763.got - 2010.05.20 11:14:30.
