data_PCOD9580478
_publ_section_title
;
Structure prediction by ZEFSAII (Michael W. Deem and Ramdas Pophale) SiO2 
 PCOD9580478
Probable space group: P 62
;
_chemical_formula_sum "Si O2"
_cell_formula_units_Z 39
_cell_length_a 16.124918
_cell_length_b 16.124918
_cell_length_c 9.204238
_cell_angle_alpha 90.000000
_cell_angle_beta 90.000000
_cell_angle_gamma 120.000000
_cell_volume 2072.590491
_symmetry_space_group_name_H-M "P 62"
_symmetry_group_IT_number 171
_symmetry_cell_setting 'hexagonal'
loop_
_space_group_symop_operation_xyz
x,y,z
x-y,x,1/3+z
-y,x-y,2/3+z
-x,-y,z
-x+y,-x,1/3+z
y,-x+y,2/3+z
loop_
_atom_site_type_symbol
_atom_site_label
_atom_site_fract_x
_atom_site_fract_y
_atom_site_fract_z
Si Si1 0.959369 0.298223 0.070880
Si Si2 0.359051 0.184964 0.636431
Si Si3 0.500000 0.500000 0.717212
Si Si4 0.171162 0.531313 0.837302
Si Si5 0.175130 0.709674 0.809954
Si Si6 0.124946 0.489789 0.496450
Si Si7 0.653687 0.559038 0.169705
O O1 0.901975 0.212341 0.185853
O O2 0.975789 0.401441 0.131554
O O3 0.886611 0.280405 0.937446
O O4 0.061333 0.312383 0.012329
O O5 0.464131 0.256275 0.568561
O O6 0.379802 0.139184 0.775656
O O7 0.487803 0.570467 0.607105
O O8 0.226009 0.646364 0.845529
O O9 0.144530 0.498906 0.670576
O O10 0.262588 0.809353 0.760262
O O11 0.105301 0.657789 0.676736
O O12 0.143749 0.593351 0.447333
O O13 0.016203 0.411907 0.470063
#
# Coordination Sequence:
#
# PCOD9580478 Si02
#       7
#     6   6   3   6   6   6   6
#     4  10  21  38  60  85 114 159 195 241 291 356
#     4  11  22  37  57  88 122 149 195 244 297 347
#     4   8  16  32  54  78 110 148 188 230 280 330
#     4   9  17  34  55  80 109 147 192 225 271 343
#     4  10  20  36  60  80 110 160 197 234 280 350
#     4  10  19  38  55  78 114 153 192 232 289 341
#     4  10  23  35  54  83 117 148 190 248 283 342
#
# _framework density 18.817029999999999
#
# number of rings (size 3 to 8) (size 9 to 14) (size 15 to 20)
#    0.000    2.154    1.538    3.692    2.154    3.692 
#    8.308    0.000    0.000    0.000    0.000    3.231 
#    0.000    0.000    0.000    0.000    0.000    0.000 
#
# Total GULP energy -217125.245489 kJ/mol
# GULP energy per Si atom -5567.313987 kJ/mol
# Density = 1.877420 g / cm^3
# Si number density = 18.817030 Si / 1000 Ang^3
#
#
#
# Elastic Constant Matrix: (Units=GPa)
#
#
# Indices 1 2 3 4 5 6 
#
# 1 82.3616 34.0612 12.2375 0.0000 0.0000 0.0000
# 2 34.0612 82.3616 12.2375 0.0000 0.0000 0.0000
# 3 12.2375 12.2375 44.3794 0.0000 0.0000 0.0000
# 4 0.0000 0.0000 0.0000 13.1062 0.0000 0.0000
# 5 0.0000 0.0000 0.0000 0.0000 13.1062 0.0000
# 6 0.0000 0.0000 0.0000 0.0000 0.0000 24.1502
#
#
#
# Elastic Compliance Matrix: (Units=1/GPa)
#
#
# Indices 1 2 3 4 5 6 
#
# 1 0.014911 -0.005793 -0.002514 0.000000 0.000000 0.000000
# 2 -0.005793 0.014911 -0.002514 0.000000 0.000000 0.000000
# 3 -0.002514 -0.002514 0.023920 0.000000 0.000000 0.000000
# 4 0.000000 0.000000 0.000000 0.076300 0.000000 0.000000
# 5 0.000000 0.000000 0.000000 0.000000 0.076300 0.000000
# 6 0.000000 0.000000 0.000000 0.000000 0.000000 0.041407
#
#
# Mechanical properties :
#
#
# Convention : Reuss Voigt Hill
#
# Bulk Modulus (GPa) = 31.15411 36.24165 33.69788
# Shear Modulus (GPa) = 17.85139 20.11031 18.98085
#
# Velocity S-wave (km/s) = 3.08341 3.27269 3.17946
# Velocity P-wave (km/s) = 5.41007 5.79504 5.60586
#
# Compressibility (1/GPa) = 0.03209849
#
# Stress axis : x y z
#
# Youngs Moduli (GPa) = 67.06532 67.06532 41.80675
#
# Poissons Ratio (x) = 0.38850 0.10511
# Poissons Ratio (y) = 0.38850 0.10511
# Poissons Ratio (z) = 0.16862 0.16862
#
# Static dielectric constant tensor:
#      x y z
#    x 1.679040 0.000000 0.000000 
#    y 0.000000 1.679040 0.000000 
#    z 0.000000 0.000000 1.690800 
# 
# From -- ./inp_files/1250.got.cif
#   From: 2010.05.17/outbox.cif.g08.bks.cpg/sg171_1_cif.got.tgz:1250.got - 2010.05.20 11:16:09.
