data_PCOD9580745
_publ_section_title
;
Structure prediction by ZEFSAII (Michael W. Deem and Ramdas Pophale) SiO2 
 PCOD9580745
Probable space group: P 62
;
_chemical_formula_sum "Si O2"
_cell_formula_units_Z 27
_cell_length_a 10.755472
_cell_length_b 10.755472
_cell_length_c 12.623004
_cell_angle_alpha 90.000000
_cell_angle_beta 90.000000
_cell_angle_gamma 120.000000
_cell_volume 1264.597444
_symmetry_space_group_name_H-M "P 62"
_symmetry_group_IT_number 171
_symmetry_cell_setting 'hexagonal'
loop_
_space_group_symop_operation_xyz
x,y,z
x-y,x,1/3+z
-y,x-y,2/3+z
-x,-y,z
-x+y,-x,1/3+z
y,-x+y,2/3+z
loop_
_atom_site_type_symbol
_atom_site_label
_atom_site_fract_x
_atom_site_fract_y
_atom_site_fract_z
Si Si1 0.219513 0.869876 0.310760
Si Si2 0.792900 0.628901 0.380360
Si Si3 0.058647 0.397855 0.204179
Si Si4 0.000000 0.500000 0.839777
Si Si5 0.112350 0.947673 0.898400
O O1 0.079838 0.744167 0.252104
O O2 0.362126 0.901456 0.246364
O O3 0.239791 0.861670 0.436386
O O4 0.208017 0.012633 0.297744
O O5 0.637350 0.543022 0.432333
O O6 0.815622 0.758062 0.303476
O O7 0.902757 0.719353 0.472682
O O8 0.836185 0.536772 0.305259
O O9 0.000000 0.500000 0.167009
O O10 0.000000 0.000000 0.862757
#
# Coordination Sequence:
#
# PCOD9580745 Si02
#       5
#     6   6   6   3   6
#     4  11  23  46  72  99 138 180 230 282 351 410
#     4  11  24  42  67 105 137 178 228 283 346 412
#     4  12  26  44  69 101 137 183 230 283 336 420
#     4  10  24  46  70  98 142 184 224 278 350 420
#     4  11  21  40  74 104 133 168 225 298 349 401
#
# _framework density 21.350667000000001
#
# number of rings (size 3 to 8) (size 9 to 14) (size 15 to 20)
#    0.000    0.889    3.333    4.667    0.000    1.778 
#   16.000    0.000    0.000    0.000    0.000    0.000 
#    0.000    0.000    0.000    0.000    0.000    0.000 
#
# Total GULP energy -150817.150397 kJ/mol
# GULP energy per Si atom -5585.820385 kJ/mol
# Density = 2.130207 g / cm^3
# Si number density = 21.350667 Si / 1000 Ang^3
#
#
#
# Elastic Constant Matrix: (Units=GPa)
#
#
# Indices 1 2 3 4 5 6 
#
# 1 73.4157 13.9647 22.4525 0.0000 0.0000 0.0000
# 2 13.9647 73.4157 22.4525 0.0000 0.0000 0.0000
# 3 22.4525 22.4525 107.8314 0.0000 0.0000 0.0000
# 4 0.0000 0.0000 0.0000 25.8229 0.0000 0.0000
# 5 0.0000 0.0000 0.0000 0.0000 25.8229 0.0000
# 6 0.0000 0.0000 0.0000 0.0000 0.0000 29.7255
#
#
#
# Elastic Compliance Matrix: (Units=1/GPa)
#
#
# Indices 1 2 3 4 5 6 
#
# 1 0.014818 -0.002003 -0.002668 0.000000 0.000000 0.000000
# 2 -0.002003 0.014818 -0.002668 0.000000 0.000000 0.000000
# 3 -0.002668 -0.002668 0.010385 0.000000 0.000000 0.000000
# 4 0.000000 0.000000 0.000000 0.038725 0.000000 0.000000
# 5 0.000000 0.000000 0.000000 0.000000 0.038725 0.000000
# 6 0.000000 0.000000 0.000000 0.000000 0.000000 0.033641
#
#
# Mechanical properties :
#
#
# Convention : Reuss Voigt Hill
#
# Bulk Modulus (GPa) = 39.45971 41.37802 40.41886
# Shear Modulus (GPa) = 28.69619 29.32711 29.01165
#
# Velocity S-wave (km/s) = 3.67009 3.71022 3.69021
# Velocity P-wave (km/s) = 6.03998 6.14627 6.09335
#
# Compressibility (1/GPa) = 0.02534230
#
# Stress axis : x y z
#
# Youngs Moduli (GPa) = 67.48520 67.48520 96.29296
#
# Poissons Ratio (x) = 0.13514 0.25695
# Poissons Ratio (y) = 0.13514 0.25695
# Poissons Ratio (z) = 0.18008 0.18008
#
# Static dielectric constant tensor:
#      x y z
#    x 1.788590 0.000000 0.000000 
#    y 0.000000 1.788590 0.000000 
#    z 0.000000 0.000000 1.782630 
# 
# From -- ./inp_files/2326.got.cif
#   From: 2010.05.17/outbox.cif.g08.bks.cpg/sg171_2_cif.got.tgz:2326.got - 2010.05.20 11:16:09.
