data_PCOD9580956
_publ_section_title
;
Structure prediction by ZEFSAII (Michael W. Deem and Ramdas Pophale) SiO2 
 PCOD9580956
Probable space group: P 64
;
_chemical_formula_sum "Si O2"
_cell_formula_units_Z 45
_cell_length_a 11.524582
_cell_length_b 11.524582
_cell_length_c 19.068562
_cell_angle_alpha 90.000000
_cell_angle_beta 90.000000
_cell_angle_gamma 120.000000
_cell_volume 2193.304550
_symmetry_space_group_name_H-M "P 64"
_symmetry_group_IT_number 172
_symmetry_cell_setting 'hexagonal'
loop_
_space_group_symop_operation_xyz
x,y,z
x-y,x,2/3+z
-y,x-y,1/3+z
-x,-y,z
-x+y,-x,2/3+z
y,-x+y,1/3+z
loop_
_atom_site_type_symbol
_atom_site_label
_atom_site_fract_x
_atom_site_fract_y
_atom_site_fract_z
Si Si1 0.500000 0.000000 0.793200
Si Si2 0.847704 0.053298 0.137367
Si Si3 0.295137 0.557136 0.847891
Si Si4 0.545726 0.804680 0.893495
Si Si5 0.076496 0.293630 0.056587
Si Si6 0.917300 0.339719 0.381472
Si Si7 0.798338 0.074438 0.562076
Si Si8 0.100507 0.652225 0.798010
O O1 0.495219 0.887081 0.845289
O O2 0.369575 0.963665 0.745611
O O3 0.822059 0.142935 0.192482
O O4 0.988653 0.159210 0.102367
O O5 0.728364 0.000348 0.079187
O O6 0.825494 0.924762 0.181679
O O7 0.432575 0.650997 0.886562
O O8 0.311151 0.507136 0.771944
O O9 0.207148 0.422078 0.890741
O O10 0.220252 0.640642 0.833436
O O11 0.573112 0.857522 0.972222
O O12 0.234883 0.372395 0.073001
O O13 0.045627 0.245694 0.976722
O O14 0.000000 0.500000 0.376134
O O15 0.662854 0.965021 0.525141
O O16 0.000000 0.500000 0.773826
#
# Coordination Sequence:
#
# PCOD9580956 Si02
#       8
#     3   6   6   6   6   6   6   6
#     4  10  22  36  62 112 136 166 232 282 340 410
#     4  10  25  45  63 102 143 176 241 281 335 438
#     4  10  22  40  64 100 142 169 229 290 336 417
#     4  11  21  38  68 100 140 182 222 286 350 405
#     4  11  24  43  72  98 140 182 230 288 348 413
#     4  11  22  40  66  99 143 190 220 285 361 410
#     4  10  25  44  67  96 135 189 223 282 352 401
#     4  10  23  45  66 101 139 172 230 284 333 414
#
# _framework density 20.516987
#
# number of rings (size 3 to 8) (size 9 to 14) (size 15 to 20)
#    0.000    1.600    3.333    0.000    4.667    6.933 
#    0.000    1.333    0.000    0.000    0.000    0.000 
#    0.000    0.000    0.000    0.000    0.000    0.000 
#
# Total GULP energy -251278.010316 kJ/mol
# GULP energy per Si atom -5583.955785 kJ/mol
# Density = 2.047029 g / cm^3
# Si number density = 20.516987 Si / 1000 Ang^3
#
#
#
# Elastic Constant Matrix: (Units=GPa)
#
#
# Indices 1 2 3 4 5 6 
#
# 1 98.0509 42.9042 50.6809 0.0000 0.0000 0.0000
# 2 42.9042 98.0509 50.6809 0.0000 0.0000 0.0000
# 3 50.6809 50.6809 113.8910 0.0000 0.0000 0.0000
# 4 0.0000 0.0000 0.0000 -33.0641 0.0000 0.0000
# 5 0.0000 0.0000 0.0000 0.0000 -33.0641 0.0000
# 6 0.0000 0.0000 0.0000 0.0000 0.0000 27.5733
#
#
#
# Elastic Compliance Matrix: (Units=1/GPa)
#
#
# Indices 1 2 3 4 5 6 
#
# 1 0.014283 -0.003850 -0.004643 0.000000 0.000000 0.000000
# 2 -0.003850 0.014283 -0.004643 0.000000 0.000000 0.000000
# 3 -0.004643 -0.004643 0.012912 0.000000 0.000000 0.000000
# 4 0.000000 0.000000 0.000000 -0.030244 0.000000 0.000000
# 5 0.000000 0.000000 0.000000 0.000000 -0.030244 0.000000
# 6 0.000000 0.000000 0.000000 0.000000 0.000000 0.036267
#
#
# Mechanical properties :
#
#
# Convention : Reuss Voigt Hill
#
# Bulk Modulus (GPa) = 65.75617 66.50277 66.12947
# Shear Modulus (GPa) = 102.88638 3.33748 53.11193
#
# Velocity S-wave (km/s) = 7.08913 1.27680 5.09343
# Velocity P-wave (km/s) = 9.95625 5.88706 8.17877
#
# Compressibility (1/GPa) = 0.01520770
#
# Stress axis : x y z
#
# Youngs Moduli (GPa) = 70.01209 70.01209 77.44597
#
# Poissons Ratio (x) = 0.26956 0.35955
# Poissons Ratio (y) = 0.26956 0.35955
# Poissons Ratio (z) = 0.32504 0.32504
#
# Static dielectric constant tensor:
#      x y z
#    x 1.845360 0.000000 0.000000 
#    y 0.000000 1.845360 0.000000 
#    z 0.000000 0.000000 1.684650 
# 
# From -- ./inp_files/1721.got.cif
#   From: 2010.05.17/outbox.cif.g08.bks.cpg/sg172_1_cif.got.tgz:1721.got - 2010.05.20 11:19:57.
