data_PCOD9580775
_publ_section_title
;
Structure prediction by ZEFSAII (Michael W. Deem and Ramdas Pophale) SiO2 
 PCOD9580775
Probable space group: P 62
;
_chemical_formula_sum "Si O2"
_cell_formula_units_Z 42
_cell_length_a 14.106110
_cell_length_b 14.106110
_cell_length_c 11.789715
_cell_angle_alpha 90.000000
_cell_angle_beta 90.000000
_cell_angle_gamma 120.000000
_cell_volume 2031.648027
_symmetry_space_group_name_H-M "P 62"
_symmetry_group_IT_number 171
_symmetry_cell_setting 'hexagonal'
loop_
_space_group_symop_operation_xyz
x,y,z
x-y,x,1/3+z
-y,x-y,2/3+z
-x,-y,z
-x+y,-x,1/3+z
y,-x+y,2/3+z
loop_
_atom_site_type_symbol
_atom_site_label
_atom_site_fract_x
_atom_site_fract_y
_atom_site_fract_z
Si Si1 0.922692 0.292248 0.589420
Si Si2 0.101810 0.394138 0.793647
Si Si3 0.101810 0.394138 0.293647
Si Si4 0.000000 0.500000 0.929475
Si Si5 0.500000 0.500000 0.096143
Si Si6 0.986479 0.821874 0.440321
Si Si7 0.292248 0.369556 0.756086
Si Si8 0.835395 0.013521 0.273655
O O1 0.791944 0.228349 0.603062
O O2 0.009057 0.339348 0.694346
O O3 0.952407 0.393512 0.507544
O O4 0.938597 0.197569 0.529367
O O5 0.085166 0.487954 0.849562
O O6 0.228349 0.436405 0.769728
O O7 0.077379 0.297007 0.882560
O O8 0.085166 0.487954 0.349563
O O9 0.077378 0.297006 0.382560
O O10 0.009057 0.339349 0.194346
O O11 0.047593 0.606487 0.007544
O O12 0.908520 0.851530 0.511067
O O13 0.056989 0.908520 0.344400
O O14 0.197569 0.258972 0.696034
#
# Coordination Sequence:
#
# PCOD9580775 Si02
#       8
#     6   6   6   3   3   6   6   6
#     4  11  22  43  72  96 136 179 229 286 350 411
#     4  11  22  43  72  96 136 179 229 286 350 411
#     4  11  22  43  72  96 136 179 229 286 350 411
#     4  10  26  40  70 102 130 188 232 288 356 410
#     4  10  26  40  70 102 130 188 232 288 356 410
#     4  11  22  39  66 104 136 180 223 271 335 413
#     4  11  22  43  72  96 136 179 229 286 350 411
#     4  11  22  39  66 104 136 180 223 271 335 413
#
# _framework density 20.672872000000002
#
# number of rings (size 3 to 8) (size 9 to 14) (size 15 to 20)
#    0.000    1.143    5.714    0.857    0.000    0.000 
#    0.000   10.000   31.429    0.000    0.000    0.000 
#    0.000    0.000    0.000    0.000    0.000    0.000 
#
# Total GULP energy -234349.650836 kJ/mol
# GULP energy per Si atom -5579.753591 kJ/mol
# Density = 2.062582 g / cm^3
# Si number density = 20.672872 Si / 1000 Ang^3
#
#
#
# Elastic Constant Matrix: (Units=GPa)
#
#
# Indices 1 2 3 4 5 6 
#
# 1 92.6354 32.6912 25.2717 0.0000 0.0000 0.0000
# 2 32.6912 92.6354 25.2717 0.0000 0.0000 0.0000
# 3 25.2717 25.2717 71.9625 0.0000 0.0000 0.0000
# 4 0.0000 0.0000 0.0000 42.5745 0.0000 0.0000
# 5 0.0000 0.0000 0.0000 0.0000 42.5745 0.0000
# 6 0.0000 0.0000 0.0000 0.0000 0.0000 29.9721
#
#
#
# Elastic Compliance Matrix: (Units=1/GPa)
#
#
# Indices 1 2 3 4 5 6 
#
# 1 0.012989 -0.003693 -0.003264 0.000000 0.000000 0.000000
# 2 -0.003693 0.012989 -0.003264 0.000000 0.000000 0.000000
# 3 -0.003264 -0.003264 0.016189 0.000000 0.000000 0.000000
# 4 0.000000 0.000000 0.000000 0.023488 0.000000 0.000000
# 5 0.000000 0.000000 0.000000 0.000000 0.023488 0.000000
# 6 0.000000 0.000000 0.000000 0.000000 0.000000 0.033364
#
#
# Mechanical properties :
#
#
# Convention : Reuss Voigt Hill
#
# Bulk Modulus (GPa) = 46.03522 47.07809 46.55666
# Shear Modulus (GPa) = 33.29054 34.62412 33.95733
#
# Velocity S-wave (km/s) = 4.01727 4.09694 4.05730
# Velocity P-wave (km/s) = 6.62078 6.72326 6.67222
#
# Compressibility (1/GPa) = 0.02172250
#
# Stress axis : x y z
#
# Youngs Moduli (GPa) = 76.98863 76.98863 61.77057
#
# Poissons Ratio (x) = 0.28434 0.20165
# Poissons Ratio (y) = 0.28434 0.20165
# Poissons Ratio (z) = 0.25133 0.25133
#
# Static dielectric constant tensor:
#      x y z
#    x 1.783630 0.000000 0.000000 
#    y 0.000000 1.783630 0.000000 
#    z 0.000000 0.000000 1.868890 
# 
# From -- ./inp_files/4693.got.cif
#   From: 2010.05.17/outbox.cif.g08.bks.cpg/sg171_3_cif.got.tgz:4693.got - 2010.05.20 11:16:09.
