data_PCOD9580166
_publ_section_title
;
Structure prediction by ZEFSAII (Michael W. Deem and Ramdas Pophale) SiO2 
 PCOD9580166
Probable space group: P 65
;
_chemical_formula_sum "Si O2"
_cell_formula_units_Z 36
_cell_length_a 16.002306
_cell_length_b 16.002306
_cell_length_c 7.381506
_cell_angle_alpha 90.000000
_cell_angle_beta 90.000000
_cell_angle_gamma 120.000000
_cell_volume 1636.970113
_symmetry_space_group_name_H-M "P 65"
_symmetry_group_IT_number 170
_symmetry_cell_setting 'hexagonal'
loop_
_space_group_symop_operation_xyz
x,y,z
x-y,x,5/6+z
-y,x-y,2/3+z
-x,-y,1/2+z
-x+y,-x,1/3+z
y,-x+y,1/6+z
loop_
_atom_site_type_symbol
_atom_site_label
_atom_site_fract_x
_atom_site_fract_y
_atom_site_fract_z
Si Si1 0.617755 0.039732 0.636390
Si Si2 0.789807 0.915844 0.684363
Si Si3 0.411035 0.692465 0.975684
Si Si4 0.202223 0.382149 0.775862
Si Si5 0.877288 0.405085 0.555913
Si Si6 0.854353 0.255091 0.994519
O O1 0.725217 0.104623 0.558565
O O2 0.584654 0.108263 0.728370
O O3 0.541119 0.979682 0.483910
O O4 0.615427 0.960889 0.781337
O O5 0.843222 0.861257 0.607519
O O6 0.722531 0.906427 0.508376
O O7 0.705145 0.864457 0.837553
O O8 0.339507 0.709788 0.844418
O O9 0.414431 0.604877 0.873107
O O10 0.515806 0.787377 0.962286
O O11 0.296654 0.448983 0.664475
O O12 0.233304 0.436308 0.970798
#
# Coordination Sequence:
#
# PCOD9580166 Si02
#       6
#     6   6   6   6   6   6
#     4  11  19  36  59  85 118 161 210 250 310 382
#     4  10  17  32  59  88 107 155 209 264 320 380
#     4  12  22  39  62  96 135 170 218 262 314 379
#     4   9  17  35  56  82 115 156 203 260 310 378
#     4  11  21  36  57  89 123 161 209 259 303 382
#     4   9  18  34  57  88 114 161 209 255 313 383
#
# _framework density 21.991849999999999
#
# number of rings (size 3 to 8) (size 9 to 14) (size 15 to 20)
#    1.000    0.667    6.667    0.000    0.000    2.667 
#    0.000    0.000    0.000    4.000    0.000    0.000 
#    0.000    0.000    0.000    0.000    0.000    0.000 
#
# Total GULP energy -200417.028002 kJ/mol
# GULP energy per Si atom -5567.139667 kJ/mol
# Density = 2.194180 g / cm^3
# Si number density = 21.991850 Si / 1000 Ang^3
#
#
#
# Elastic Constant Matrix: (Units=GPa)
#
#
# Indices 1 2 3 4 5 6 
#
# 1 141.0964 64.2923 19.4824 0.0000 0.0000 0.0000
# 2 64.2923 141.0964 19.4824 0.0000 0.0000 0.0000
# 3 19.4824 19.4824 49.6661 0.0000 0.0000 0.0000
# 4 0.0000 0.0000 0.0000 16.7792 0.0000 0.0000
# 5 0.0000 0.0000 0.0000 0.0000 16.7792 0.0000
# 6 0.0000 0.0000 0.0000 0.0000 0.0000 38.4021
#
#
#
# Elastic Compliance Matrix: (Units=1/GPa)
#
#
# Indices 1 2 3 4 5 6 
#
# 1 0.009140 -0.003880 -0.002063 0.000000 0.000000 0.000000
# 2 -0.003880 0.009140 -0.002063 0.000000 0.000000 0.000000
# 3 -0.002063 -0.002063 0.021753 0.000000 0.000000 0.000000
# 4 0.000000 0.000000 0.000000 0.059598 0.000000 0.000000
# 5 0.000000 0.000000 0.000000 0.000000 0.059598 0.000000
# 6 0.000000 0.000000 0.000000 0.000000 0.000000 0.026040
#
#
# Mechanical properties :
#
#
# Convention : Reuss Voigt Hill
#
# Bulk Modulus (GPa) = 41.63176 59.81921 50.72549
# Shear Modulus (GPa) = 23.89033 29.63220 26.76126
#
# Velocity S-wave (km/s) = 3.29952 3.67470 3.49215
# Velocity P-wave (km/s) = 5.78683 6.72787 6.27502
#
# Compressibility (1/GPa) = 0.02402012
#
# Stress axis : x y z
#
# Youngs Moduli (GPa) = 109.40674 109.40674 45.97003
#
# Poissons Ratio (x) = 0.42449 0.09486
# Poissons Ratio (y) = 0.42449 0.09486
# Poissons Ratio (z) = 0.22575 0.22575
#
# Static dielectric constant tensor:
#      x y z
#    x 1.871820 0.000000 0.000000 
#    y 0.000000 1.871820 0.000000 
#    z 0.000000 0.000000 1.828360 
# 
# From -- ./inp_files/664.got.cif
#   From: 2010.05.17/outbox.cif.g08.bks.cpg/sg170_cif.got.tgz:664.got - 2010.05.20 11:14:30.
