data_PCOD9580553
_publ_section_title
;
Structure prediction by ZEFSAII (Michael W. Deem and Ramdas Pophale) SiO2 
 PCOD9580553
Probable space group: P 62
;
_chemical_formula_sum "Si O2"
_cell_formula_units_Z 39
_cell_length_a 19.025678
_cell_length_b 19.025678
_cell_length_c 6.571092
_cell_angle_alpha 90.000000
_cell_angle_beta 90.000000
_cell_angle_gamma 120.000000
_cell_volume 2059.911034
_symmetry_space_group_name_H-M "P 62"
_symmetry_group_IT_number 171
_symmetry_cell_setting 'hexagonal'
loop_
_space_group_symop_operation_xyz
x,y,z
x-y,x,1/3+z
-y,x-y,2/3+z
-x,-y,z
-x+y,-x,1/3+z
y,-x+y,2/3+z
loop_
_atom_site_type_symbol
_atom_site_label
_atom_site_fract_x
_atom_site_fract_y
_atom_site_fract_z
Si Si1 0.666549 0.520500 0.135920
Si Si2 0.198119 0.789437 0.820873
Si Si3 0.000000 0.500000 0.592877
Si Si4 0.907344 0.683792 0.114073
Si Si5 0.318604 0.721493 0.260669
Si Si6 0.339663 0.881842 0.142155
Si Si7 0.317554 0.092248 0.536165
O O1 0.706792 0.536281 0.361548
O O2 0.572646 0.496431 0.141831
O O3 0.685792 0.455093 0.034182
O O4 0.714842 0.604051 0.007218
O O5 0.211998 0.854153 0.646711
O O6 0.279627 0.829470 0.957115
O O7 0.129627 0.777386 0.981700
O O8 0.959859 0.541374 0.726445
O O9 0.998319 0.743505 0.180130
O O10 0.904535 0.614169 0.967501
O O11 0.861230 0.719328 0.981187
O O12 0.376126 0.697280 0.378530
O O13 0.359092 0.817889 0.249584
#
# Coordination Sequence:
#
# PCOD9580553 Si02
#       7
#     6   6   3   6   6   6   6
#     4  11  24  42  59  90 119 170 211 274 318 377
#     4  10  20  42  64  82 127 160 214 253 318 378
#     4  12  26  36  66  96 124 158 222 276 326 354
#     4  10  21  39  65  93 123 160 204 254 316 381
#     4  12  27  40  60  83 122 176 222 259 324 385
#     4  11  24  42  59  90 119 170 211 274 318 377
#     4  10  21  39  65  93 123 160 204 254 316 381
#
# _framework density 18.932856000000001
#
# number of rings (size 3 to 8) (size 9 to 14) (size 15 to 20)
#    0.000    1.231    4.615    2.769    6.462    6.154 
#    0.000    1.538    0.000    0.000    0.000    5.385 
#    0.000    0.000    0.000    0.000    0.000    0.000 
#
# Total GULP energy -217903.487293 kJ/mol
# GULP energy per Si atom -5587.268905 kJ/mol
# Density = 1.888976 g / cm^3
# Si number density = 18.932856 Si / 1000 Ang^3
#
#
#
# Elastic Constant Matrix: (Units=GPa)
#
#
# Indices 1 2 3 4 5 6 
#
# 1 67.3337 5.6334 7.5759 0.0000 0.0000 0.0000
# 2 5.6334 67.3337 7.5759 0.0000 0.0000 0.0000
# 3 7.5759 7.5759 75.0262 0.0000 0.0000 0.0000
# 4 0.0000 0.0000 0.0000 10.0667 0.0000 0.0000
# 5 0.0000 0.0000 0.0000 0.0000 10.0667 0.0000
# 6 0.0000 0.0000 0.0000 0.0000 0.0000 30.8501
#
#
#
# Elastic Compliance Matrix: (Units=1/GPa)
#
#
# Indices 1 2 3 4 5 6 
#
# 1 0.015103 -0.001105 -0.001414 0.000000 0.000000 0.000000
# 2 -0.001105 0.015103 -0.001414 0.000000 0.000000 0.000000
# 3 -0.001414 -0.001414 0.013614 0.000000 0.000000 0.000000
# 4 0.000000 0.000000 0.000000 0.099338 0.000000 0.000000
# 5 0.000000 0.000000 0.000000 0.000000 0.099338 0.000000
# 6 0.000000 0.000000 0.000000 0.000000 0.000000 0.032415
#
#
# Mechanical properties :
#
#
# Convention : Reuss Voigt Hill
#
# Bulk Modulus (GPa) = 27.81116 27.91821 27.86469
# Shear Modulus (GPa) = 16.96304 22.79059 19.87682
#
# Velocity S-wave (km/s) = 2.99650 3.47329 3.24367
# Velocity P-wave (km/s) = 5.16656 5.55544 5.36452
#
# Compressibility (1/GPa) = 0.03595678
#
# Stress axis : x y z
#
# Youngs Moduli (GPa) = 66.21263 66.21263 73.45308
#
# Poissons Ratio (x) = 0.07313 0.10383
# Poissons Ratio (y) = 0.07313 0.10383
# Poissons Ratio (z) = 0.09359 0.09359
#
# Static dielectric constant tensor:
#      x y z
#    x 1.648810 0.000000 0.000000 
#    y 0.000000 1.648810 0.000000 
#    z 0.000000 0.000000 1.666640 
# 
# From -- ./inp_files/758.got.cif
#   From: 2010.05.17/outbox.cif.g08.bks.cpg/sg171_1_cif.got.tgz:758.got - 2010.05.20 11:16:09.
