data_PCOD9580832
_publ_section_title
;
Structure prediction by ZEFSAII (Michael W. Deem and Ramdas Pophale) SiO2 
 PCOD9580832
Probable space group: P 62
;
_chemical_formula_sum "Si O2"
_cell_formula_units_Z 36
_cell_length_a 11.180072
_cell_length_b 11.180072
_cell_length_c 13.542999
_cell_angle_alpha 90.000000
_cell_angle_beta 90.000000
_cell_angle_gamma 120.000000
_cell_volume 1466.002392
_symmetry_space_group_name_H-M "P 62"
_symmetry_group_IT_number 171
_symmetry_cell_setting 'hexagonal'
loop_
_space_group_symop_operation_xyz
x,y,z
x-y,x,1/3+z
-y,x-y,2/3+z
-x,-y,z
-x+y,-x,1/3+z
y,-x+y,2/3+z
loop_
_atom_site_type_symbol
_atom_site_label
_atom_site_fract_x
_atom_site_fract_y
_atom_site_fract_z
Si Si1 0.120014 0.794914 0.075220
Si Si2 0.500770 0.130689 0.661839
Si Si3 0.231819 0.280522 0.300189
Si Si4 0.576980 0.725211 0.127571
Si Si5 0.841501 0.393968 0.949562
Si Si6 0.785589 0.921387 0.629037
O O1 0.088322 0.825554 0.183215
O O2 0.144754 0.668292 0.055098
O O3 0.998684 0.785873 0.003730
O O4 0.257233 0.931569 0.044066
O O5 0.583518 0.139454 0.760544
O O6 0.554714 0.284642 0.619766
O O7 0.341786 0.078744 0.683798
O O8 0.500000 0.000000 0.605770
O O9 0.306082 0.284207 0.196688
O O10 0.204151 0.391510 0.356759
O O11 0.072706 0.152595 0.302195
O O12 0.520780 0.793193 0.205030
O O13 0.000000 0.500000 0.924375
#
# Coordination Sequence:
#
# PCOD9580832 Si02
#       6
#     6   6   6   6   6   6
#     4  11  25  45  78 115 150 214 270 356 414 519
#     4  12  28  48  73 116 158 222 272 353 433 536
#     4  11  24  47  75 118 156 217 275 354 437 519
#     4  11  27  49  80 117 164 220 282 360 444 534
#     4  11  26  49  82 113 161 216 286 354 442 530
#     4  12  25  46  77 110 165 203 283 341 433 521
#
# _framework density 24.556577999999998
#
# number of rings (size 3 to 8) (size 9 to 14) (size 15 to 20)
#    0.000    0.667    3.333    3.500    2.333    6.000 
#    0.000    0.000    0.000    0.000    0.000    0.000 
#    0.000    0.000    0.000    0.000    0.000    0.000 
#
# Total GULP energy -200518.598773 kJ/mol
# GULP energy per Si atom -5569.961077 kJ/mol
# Density = 2.450069 g / cm^3
# Si number density = 24.556578 Si / 1000 Ang^3
#
#
#
# Elastic Constant Matrix: (Units=GPa)
#
#
# Indices 1 2 3 4 5 6 
#
# 1 136.3965 57.7172 49.0113 0.0000 0.0000 0.0000
# 2 57.7172 136.3965 49.0113 0.0000 0.0000 0.0000
# 3 49.0113 49.0113 113.4391 0.0000 0.0000 0.0000
# 4 0.0000 0.0000 0.0000 5.9184 0.0000 0.0000
# 5 0.0000 0.0000 0.0000 0.0000 5.9184 0.0000
# 6 0.0000 0.0000 0.0000 0.0000 0.0000 39.3397
#
#
#
# Elastic Compliance Matrix: (Units=1/GPa)
#
#
# Indices 1 2 3 4 5 6 
#
# 1 0.009650 -0.003060 -0.002847 0.000000 0.000000 0.000000
# 2 -0.003060 0.009650 -0.002847 0.000000 0.000000 0.000000
# 3 -0.002847 -0.002847 0.011275 0.000000 0.000000 0.000000
# 4 0.000000 0.000000 0.000000 0.168965 0.000000 0.000000
# 5 0.000000 0.000000 0.000000 0.000000 0.168965 0.000000
# 6 0.000000 0.000000 0.000000 0.000000 0.000000 0.025420
#
#
# Mechanical properties :
#
#
# Convention : Reuss Voigt Hill
#
# Bulk Modulus (GPa) = 76.53308 77.52351 77.02829
# Shear Modulus (GPa) = 12.02540 25.60145 18.81342
#
# Velocity S-wave (km/s) = 2.21532 3.23236 2.77090
# Velocity P-wave (km/s) = 6.14632 6.75046 6.45546
#
# Compressibility (1/GPa) = 0.01306625
#
# Stress axis : x y z
#
# Youngs Moduli (GPa) = 103.63212 103.63212 88.68963
#
# Poissons Ratio (x) = 0.31715 0.25249
# Poissons Ratio (y) = 0.31715 0.25249
# Poissons Ratio (z) = 0.29503 0.29503
#
# Static dielectric constant tensor:
#      x y z
#    x 2.060360 0.000000 0.000000 
#    y 0.000000 2.060360 0.000000 
#    z 0.000000 0.000000 2.045470 
# 
# From -- ./inp_files/4802.got.cif
#   From: 2010.05.17/outbox.cif.g08.bks.cpg/sg171_3_cif.got.tgz:4802.got - 2010.05.20 11:16:09.
