data_PCOD9580907
_publ_section_title
;
Structure prediction by ZEFSAII (Michael W. Deem and Ramdas Pophale) SiO2 
 PCOD9580907
Probable space group: P 64
;
_chemical_formula_sum "Si O2"
_cell_formula_units_Z 42
_cell_length_a 20.855393
_cell_length_b 20.855393
_cell_length_c 5.409552
_cell_angle_alpha 90.000000
_cell_angle_beta 90.000000
_cell_angle_gamma 120.000000
_cell_volume 2037.645772
_symmetry_space_group_name_H-M "P 64"
_symmetry_group_IT_number 172
_symmetry_cell_setting 'hexagonal'
loop_
_space_group_symop_operation_xyz
x,y,z
x-y,x,2/3+z
-y,x-y,1/3+z
-x,-y,z
-x+y,-x,2/3+z
y,-x+y,1/3+z
loop_
_atom_site_type_symbol
_atom_site_label
_atom_site_fract_x
_atom_site_fract_y
_atom_site_fract_z
Si Si1 0.701469 0.649087 0.016850
Si Si2 0.073313 0.581301 0.959581
Si Si3 0.056820 0.132156 0.426632
Si Si4 0.606878 0.704227 0.761260
Si Si5 0.647771 0.801280 0.264437
Si Si6 0.550852 0.089892 0.127794
Si Si7 0.208059 0.185179 0.140620
O O1 0.641101 0.589352 0.201999
O O2 0.761066 0.626427 0.931235
O O3 0.748643 0.727028 0.153688
O O4 0.659351 0.667599 0.801037
O O5 0.118737 0.576183 0.727106
O O6 0.000000 0.500000 0.984093
O O7 0.110734 0.593091 0.226483
O O8 0.073900 0.094475 0.651338
O O9 0.128418 0.156561 0.259528
O O10 0.044511 0.197367 0.530297
O O11 0.622082 0.751909 0.512955
O O12 0.524461 0.634384 0.750201
O O13 0.620202 0.752406 0.012515
O O14 0.737504 0.839334 0.263821
O O15 0.500000 0.000000 0.151833
#
# Coordination Sequence:
#
# PCOD9580907 Si02
#       7
#     6   6   6   6   6   6   6
#     4  11  24  43  64  93 139 171 219 274 321 413
#     4  10  20  36  62 100 123 164 205 257 327 383
#     4  12  26  46  62  84 108 160 232 291 336 396
#     4  11  24  42  64  95 140 171 216 271 317 397
#     4  11  27  40  63  93 133 186 214 263 349 388
#     4  10  19  36  63  96 127 160 200 255 326 375
#     4  11  28  41  63  85 121 174 217 280 342 392
#
# _framework density 20.612023000000001
#
# number of rings (size 3 to 8) (size 9 to 14) (size 15 to 20)
#    0.000    1.143    2.857    3.429   16.000    5.143 
#    0.000    0.000    0.000    0.000    0.000    0.000 
#   21.429    0.000    0.000    0.000    0.000    0.000 
#
# Total GULP energy -234565.096875 kJ/mol
# GULP energy per Si atom -5584.883259 kJ/mol
# Density = 2.056511 g / cm^3
# Si number density = 20.612023 Si / 1000 Ang^3
#
#
#
# Elastic Constant Matrix: (Units=GPa)
#
#
# Indices 1 2 3 4 5 6 
#
# 1 66.7957 35.2164 10.7513 0.0000 0.0000 0.0000
# 2 35.2164 66.7957 10.7513 0.0000 0.0000 0.0000
# 3 10.7513 10.7513 103.2916 0.0000 0.0000 0.0000
# 4 0.0000 0.0000 0.0000 3.7702 0.0000 0.0000
# 5 0.0000 0.0000 0.0000 0.0000 3.7702 0.0000
# 6 0.0000 0.0000 0.0000 0.0000 0.0000 15.7897
#
#
#
# Elastic Compliance Matrix: (Units=1/GPa)
#
#
# Indices 1 2 3 4 5 6 
#
# 1 0.020844 -0.010822 -0.001043 0.000000 0.000000 0.000000
# 2 -0.010822 0.020844 -0.001043 0.000000 0.000000 0.000000
# 3 -0.001043 -0.001043 0.009899 0.000000 0.000000 0.000000
# 4 0.000000 0.000000 0.000000 0.265239 0.000000 0.000000
# 5 0.000000 0.000000 0.000000 0.000000 0.265239 0.000000
# 6 0.000000 0.000000 0.000000 0.000000 0.000000 0.063333
#
#
# Mechanical properties :
#
#
# Convention : Reuss Voigt Hill
#
# Bulk Modulus (GPa) = 38.80344 38.92455 38.86399
# Shear Modulus (GPa) = 7.35506 16.67695 12.01600
#
# Velocity S-wave (km/s) = 1.89105 2.84753 2.41708
# Velocity P-wave (km/s) = 4.86154 5.45313 5.16581
#
# Compressibility (1/GPa) = 0.02577091
#
# Stress axis : x y z
#
# Youngs Moduli (GPa) = 47.97436 47.97436 101.02540
#
# Poissons Ratio (x) = 0.51917 0.10539
# Poissons Ratio (y) = 0.51917 0.10539
# Poissons Ratio (z) = 0.05005 0.05005
#
# Static dielectric constant tensor:
#      x y z
#    x 1.782990 0.000000 0.000000 
#    y 0.000000 1.782990 0.000000 
#    z 0.000000 0.000000 1.826870 
# 
# From -- ./inp_files/324.got.cif
#   From: 2010.05.17/outbox.cif.g08.bks.cpg/sg172_1_cif.got.tgz:324.got - 2010.05.20 11:19:57.
