data_PCOD9580154
_publ_section_title
;
Structure prediction by ZEFSAII (Michael W. Deem and Ramdas Pophale) SiO2 
 PCOD9580154
Probable space group: P 61
;
_chemical_formula_sum "Si O2"
_cell_formula_units_Z 18
_cell_length_a 13.054640
_cell_length_b 13.054640
_cell_length_c 5.020620
_cell_angle_alpha 90.000000
_cell_angle_beta 90.000000
_cell_angle_gamma 120.000000
_cell_volume 740.999276
_symmetry_space_group_name_H-M "P 61"
_symmetry_group_IT_number 169
_symmetry_cell_setting 'hexagonal'
loop_
_space_group_symop_operation_xyz
x,y,z
x-y,x,1/6+z
-y,x-y,1/3+z
-x,-y,1/2+z
-x+y,-x,2/3+z
y,-x+y,5/6+z
loop_
_atom_site_type_symbol
_atom_site_label
_atom_site_fract_x
_atom_site_fract_y
_atom_site_fract_z
Si Si1 0.613651 0.198946 0.393110
Si Si2 0.630835 0.628542 0.259815
Si Si3 0.010759 0.772312 0.919334
O O1 0.725260 0.293722 0.561272
O O2 0.507898 0.103338 0.574771
O O3 0.643476 0.120496 0.197629
O O4 0.734967 0.691650 0.474913
O O5 0.673881 0.686592 0.972273
O O6 0.894280 0.779182 0.862784
#
# Coordination Sequence:
#
# PCOD9580154 Si02
#       3
#     6   6   6
#     4  12  32  52  82 120 166 214 276 334 416 486
#     4  12  29  53  80 120 162 220 272 340 404 484
#     4  12  29  51  82 118 168 216 276 336 404 482
#
# _framework density 24.291519999999998
#
# number of rings (size 3 to 8) (size 9 to 14) (size 15 to 20)
#    0.000    0.000    0.000    6.000   23.333    2.667 
#    0.000    0.000    0.000    0.000    0.000    0.000 
#    0.000    0.000    0.000    0.000    0.000    0.000 
#
# Total GULP energy -101217.397345 kJ/mol
# GULP energy per Si atom -5623.188741 kJ/mol
# Density = 2.423623 g / cm^3
# Si number density = 24.291520 Si / 1000 Ang^3
#
#
#
# Elastic Constant Matrix: (Units=GPa)
#
#
# Indices 1 2 3 4 5 6 
#
# 1 121.5241 41.8718 19.7387 0.0000 0.0000 0.0000
# 2 41.8718 121.5241 19.7387 0.0000 0.0000 0.0000
# 3 19.7387 19.7387 79.9090 0.0000 0.0000 0.0000
# 4 0.0000 0.0000 0.0000 54.1838 0.0000 0.0000
# 5 0.0000 0.0000 0.0000 0.0000 54.1838 0.0000
# 6 0.0000 0.0000 0.0000 0.0000 0.0000 39.8261
#
#
#
# Elastic Compliance Matrix: (Units=1/GPa)
#
#
# Indices 1 2 3 4 5 6 
#
# 1 0.009532 -0.003023 -0.001608 0.000000 0.000000 0.000000
# 2 -0.003023 0.009532 -0.001608 0.000000 0.000000 0.000000
# 3 -0.001608 -0.001608 0.013308 0.000000 0.000000 0.000000
# 4 0.000000 0.000000 0.000000 0.018456 0.000000 0.000000
# 5 0.000000 0.000000 0.000000 0.000000 0.018456 0.000000
# 6 0.000000 0.000000 0.000000 0.000000 0.000000 0.025109
#
#
# Mechanical properties :
#
#
# Convention : Reuss Voigt Hill
#
# Bulk Modulus (GPa) = 50.26455 53.96173 52.11314
# Shear Modulus (GPa) = 44.05264 45.74593 44.89928
#
# Velocity S-wave (km/s) = 4.26314 4.34430 4.30391
# Velocity P-wave (km/s) = 6.70594 6.88668 6.79691
#
# Compressibility (1/GPa) = 0.01989474
#
# Stress axis : x y z
#
# Youngs Moduli (GPa) = 104.91470 104.91470 75.14002
#
# Poissons Ratio (x) = 0.31716 0.12080
# Poissons Ratio (y) = 0.31716 0.12080
# Poissons Ratio (z) = 0.16867 0.16867
#
# Static dielectric constant tensor:
#      x y z
#    x 1.893520 0.000000 0.000000 
#    y 0.000000 1.893520 0.000000 
#    z 0.000000 0.000000 1.915370 
# 
# From -- ./inp_files/42.got.cif
#   From: 2010.05.17/outbox.cif.g08.bks.cpg/sg169_cif.got.tgz:42.got - 2010.05.20 11:12:54.
