data_PCOD9580980
_publ_section_title
;
Structure prediction by ZEFSAII (Michael W. Deem and Ramdas Pophale) SiO2 
 PCOD9580980
Probable space group: P 64
;
_chemical_formula_sum "Si O2"
_cell_formula_units_Z 18
_cell_length_a 7.643900
_cell_length_b 7.643900
_cell_length_c 11.801287
_cell_angle_alpha 90.000000
_cell_angle_beta 90.000000
_cell_angle_gamma 120.000000
_cell_volume 597.159021
_symmetry_space_group_name_H-M "P 64"
_symmetry_group_IT_number 172
_symmetry_cell_setting 'hexagonal'
loop_
_space_group_symop_operation_xyz
x,y,z
x-y,x,2/3+z
-y,x-y,1/3+z
-x,-y,z
-x+y,-x,2/3+z
y,-x+y,1/3+z
loop_
_atom_site_type_symbol
_atom_site_label
_atom_site_fract_x
_atom_site_fract_y
_atom_site_fract_z
Si Si1 0.658459 0.278171 0.485580
Si Si2 0.663211 0.788530 0.679088
Si Si3 0.748082 0.728662 0.051502
O O1 0.817463 0.500008 0.446065
O O2 0.490003 0.255058 0.574781
O O3 0.743030 0.121896 0.495291
O O4 0.511767 0.171388 0.373306
O O5 0.826001 0.720127 0.648037
O O6 0.818149 0.015378 0.720463
#
# Coordination Sequence:
#
# PCOD9580980 Si02
#       3
#     6   6   6
#     4  11  26  49  82 119 167 223 286 349 443 519
#     4  11  26  52  80 122 165 226 285 360 431 525
#     4  10  26  47  78 114 166 223 279 356 427 515
#
# _framework density 30.142724999999999
#
# number of rings (size 3 to 8) (size 9 to 14) (size 15 to 20)
#    0.000    1.333    0.000    2.000    9.333   13.333 
#   12.000    0.000    0.000    0.000    0.000    0.000 
#    0.000    0.000    0.000    0.000    0.000    0.000 
#
# Total GULP energy -100265.455227 kJ/mol
# GULP energy per Si atom -5570.303068 kJ/mol
# Density = 3.007412 g / cm^3
# Si number density = 30.142725 Si / 1000 Ang^3
#
#
#
# Elastic Constant Matrix: (Units=GPa)
#
#
# Indices 1 2 3 4 5 6 
#
# 1 266.5498 114.4582 62.3163 0.0000 0.0000 0.0000
# 2 114.4582 266.5498 62.3163 0.0000 0.0000 0.0000
# 3 62.3163 62.3163 118.7928 0.0000 0.0000 0.0000
# 4 0.0000 0.0000 0.0000 32.5650 0.0000 0.0000
# 5 0.0000 0.0000 0.0000 0.0000 32.5650 0.0000
# 6 0.0000 0.0000 0.0000 0.0000 0.0000 76.0458
#
#
#
# Elastic Compliance Matrix: (Units=1/GPa)
#
#
# Indices 1 2 3 4 5 6 
#
# 1 0.004872 -0.001703 -0.001662 0.000000 0.000000 0.000000
# 2 -0.001703 0.004872 -0.001662 0.000000 0.000000 0.000000
# 3 -0.001662 -0.001662 0.010162 0.000000 0.000000 0.000000
# 4 0.000000 0.000000 0.000000 0.030708 0.000000 0.000000
# 5 0.000000 0.000000 0.000000 0.000000 0.030708 0.000000
# 6 0.000000 0.000000 0.000000 0.000000 0.000000 0.013150
#
#
# Mechanical properties :
#
#
# Convention : Reuss Voigt Hill
#
# Bulk Modulus (GPa) = 101.52035 125.56376 113.54206
# Shear Modulus (GPa) = 46.37844 55.75527 51.06686
#
# Velocity S-wave (km/s) = 3.92679 4.30549 4.12049
# Velocity P-wave (km/s) = 7.36971 8.15249 7.77096
#
# Compressibility (1/GPa) = 0.00985024
#
# Stress axis : x y z
#
# Youngs Moduli (GPa) = 205.26987 205.26987 98.40832
#
# Poissons Ratio (x) = 0.34965 0.16356
# Poissons Ratio (y) = 0.34965 0.16356
# Poissons Ratio (z) = 0.34116 0.34116
#
# Static dielectric constant tensor:
#      x y z
#    x 2.394840 0.000000 0.000000 
#    y 0.000000 2.394840 0.000000 
#    z 0.000000 0.000000 2.669270 
# 
# From -- ./inp_files/873.got.cif
#   From: 2010.05.17/outbox.cif.g08.bks.cpg/sg172_1_cif.got.tgz:873.got - 2010.05.20 11:19:57.
