data_PCOD9580544
_publ_section_title
;
Structure prediction by ZEFSAII (Michael W. Deem and Ramdas Pophale) SiO2 
 PCOD9580544
Probable space group: P 62
;
_chemical_formula_sum "Si O2"
_cell_formula_units_Z 39
_cell_length_a 13.370795
_cell_length_b 13.370795
_cell_length_c 11.035671
_cell_angle_alpha 90.000000
_cell_angle_beta 90.000000
_cell_angle_gamma 120.000000
_cell_volume 1708.613514
_symmetry_space_group_name_H-M "P 62"
_symmetry_group_IT_number 171
_symmetry_cell_setting 'hexagonal'
loop_
_space_group_symop_operation_xyz
x,y,z
x-y,x,1/3+z
-y,x-y,2/3+z
-x,-y,z
-x+y,-x,1/3+z
y,-x+y,2/3+z
loop_
_atom_site_type_symbol
_atom_site_label
_atom_site_fract_x
_atom_site_fract_y
_atom_site_fract_z
Si Si1 0.284041 0.773724 0.702380
Si Si2 0.882222 0.751228 0.708120
Si Si3 0.500000 0.500000 0.977720
Si Si4 0.241200 0.608127 0.908727
Si Si5 0.199060 0.083993 0.642620
Si Si6 0.283199 0.102133 0.901534
Si Si7 0.857705 0.324646 0.107509
O O1 0.394704 0.900909 0.719124
O O2 0.234673 0.702118 0.824352
O O3 0.332359 0.703257 0.627868
O O4 0.187643 0.781888 0.625713
O O5 0.887822 0.872505 0.683638
O O6 0.750707 0.648340 0.697949
O O7 0.972944 0.743213 0.620827
O O8 0.903378 0.750386 0.851461
O O9 0.609478 0.549305 0.886586
O O10 0.236141 0.506664 0.827066
O O11 0.157464 0.585615 0.021935
O O12 0.143760 0.949378 0.612936
O O13 0.283673 0.108255 0.756165
#
# Coordination Sequence:
#
# PCOD9580544 Si02
#       7
#     6   6   3   6   6   6   6
#     4  10  22  41  64  93 120 167 206 261 314 376
#     4  11  23  39  63  92 128 167 213 259 318 382
#     4  10  20  40  68  86 114 164 218 248 302 382
#     4   9  22  43  60  86 137 154 199 270 322 354
#     4  10  23  40  58  92 132 166 206 267 312 376
#     4  11  23  39  63  92 128 167 213 259 318 382
#     4  10  22  41  64  93 120 167 206 261 314 376
#
# _framework density 22.825523
#
# number of rings (size 3 to 8) (size 9 to 14) (size 15 to 20)
#    0.000    1.846    0.000    3.231    4.308    9.846 
#    0.000    1.538    0.000    0.000    0.000    0.000 
#    0.000    0.000    0.000    0.000    0.000    0.000 
#
# Total GULP energy -217957.581863 kJ/mol
# GULP energy per Si atom -5588.655945 kJ/mol
# Density = 2.277357 g / cm^3
# Si number density = 22.825523 Si / 1000 Ang^3
#
#
#
# Elastic Constant Matrix: (Units=GPa)
#
#
# Indices 1 2 3 4 5 6 
#
# 1 54.9789 5.1966 7.1070 0.0000 0.0000 0.0000
# 2 5.1966 54.9789 7.1070 0.0000 0.0000 0.0000
# 3 7.1070 7.1070 90.0628 0.0000 0.0000 0.0000
# 4 0.0000 0.0000 0.0000 15.8183 0.0000 0.0000
# 5 0.0000 0.0000 0.0000 0.0000 15.8183 0.0000
# 6 0.0000 0.0000 0.0000 0.0000 0.0000 24.8912
#
#
#
# Elastic Compliance Matrix: (Units=1/GPa)
#
#
# Indices 1 2 3 4 5 6 
#
# 1 0.018511 -0.001577 -0.001336 0.000000 0.000000 0.000000
# 2 -0.001577 0.018511 -0.001336 0.000000 0.000000 0.000000
# 3 -0.001336 -0.001336 0.011314 0.000000 0.000000 0.000000
# 4 0.000000 0.000000 0.000000 0.063218 0.000000 0.000000
# 5 0.000000 0.000000 0.000000 0.000000 0.063218 0.000000
# 6 0.000000 0.000000 0.000000 0.000000 0.000000 0.040175
#
#
# Mechanical properties :
#
#
# Convention : Reuss Voigt Hill
#
# Bulk Modulus (GPa) = 25.10252 26.53795 25.82024
# Shear Modulus (GPa) = 21.12168 23.34624 22.23396
#
# Velocity S-wave (km/s) = 3.04526 3.20161 3.12442
# Velocity P-wave (km/s) = 4.83594 5.03178 4.93483
#
# Compressibility (1/GPa) = 0.03983663
#
# Stress axis : x y z
#
# Youngs Moduli (GPa) = 54.02320 54.02320 88.38409
#
# Poissons Ratio (x) = 0.08519 0.11810
# Poissons Ratio (y) = 0.08519 0.11810
# Poissons Ratio (z) = 0.07219 0.07219
#
# Static dielectric constant tensor:
#      x y z
#    x 1.864900 0.000000 0.000000 
#    y 0.000000 1.864900 0.000000 
#    z 0.000000 0.000000 1.878770 
# 
# From -- ./inp_files/1986.got.cif
#   From: 2010.05.17/outbox.cif.g08.bks.cpg/sg171_1_cif.got.tgz:1986.got - 2010.05.20 11:16:09.
