data_PCOD9580719
_publ_section_title
;
Structure prediction by ZEFSAII (Michael W. Deem and Ramdas Pophale) SiO2 
 PCOD9580719
Probable space group: P 62
;
_chemical_formula_sum "Si O2"
_cell_formula_units_Z 39
_cell_length_a 21.702491
_cell_length_b 21.702491
_cell_length_c 5.193419
_cell_angle_alpha 90.000000
_cell_angle_beta 90.000000
_cell_angle_gamma 120.000000
_cell_volume 2118.376567
_symmetry_space_group_name_H-M "P 62"
_symmetry_group_IT_number 171
_symmetry_cell_setting 'hexagonal'
loop_
_space_group_symop_operation_xyz
x,y,z
x-y,x,1/3+z
-y,x-y,2/3+z
-x,-y,z
-x+y,-x,1/3+z
y,-x+y,2/3+z
loop_
_atom_site_type_symbol
_atom_site_label
_atom_site_fract_x
_atom_site_fract_y
_atom_site_fract_z
Si Si1 0.594105 0.749119 0.613060
Si Si2 0.500000 0.500000 0.628993
Si Si3 0.863522 0.406888 0.294259
Si Si4 0.499269 0.694513 0.110182
Si Si5 0.662743 0.398299 0.584500
Si Si6 0.100034 0.711503 0.357699
Si Si7 0.354141 0.360404 0.509660
O O1 0.544515 0.731716 0.362131
O O2 0.625835 0.833670 0.667049
O O3 0.639267 0.709936 0.552062
O O4 0.549223 0.709161 0.866354
O O5 0.536635 0.471228 0.823058
O O6 0.434141 0.431759 0.484846
O O7 0.838435 0.448545 0.481692
O O8 0.869444 0.342038 0.408154
O O9 0.808442 0.376522 0.060954
O O10 0.449332 0.727887 0.048740
O O11 0.612559 0.322693 0.463848
O O12 0.045619 0.693172 0.593291
O O13 0.056137 0.683502 0.091249
#
# Coordination Sequence:
#
# PCOD9580719 Si02
#       7
#     6   3   6   6   6   6   6
#     4  12  25  45  64  89 117 158 201 249 313 374
#     4  10  24  40  58  82 116 154 206 254 304 378
#     4  11  24  41  56  84 115 153 205 260 313 376
#     4  12  25  39  60  83 115 156 199 260 314 366
#     4  12  25  39  56  82 114 150 201 264 323 373
#     4  11  26  42  63  88 118 155 202 255 305 367
#     4  11  25  43  64  87 119 159 200 256 309 359
#
# _framework density 18.410323999999999
#
# number of rings (size 3 to 8) (size 9 to 14) (size 15 to 20)
#    0.000    0.615    4.615    2.769    8.615    0.615 
#    0.000    0.000    0.000    0.000    0.000    0.000 
#    0.000    0.000    0.000    6.923    0.000    0.000 
#
# Total GULP energy -218104.664936 kJ/mol
# GULP energy per Si atom -5592.427306 kJ/mol
# Density = 1.836842 g / cm^3
# Si number density = 18.410324 Si / 1000 Ang^3
#
#
#
# Elastic Constant Matrix: (Units=GPa)
#
#
# Indices 1 2 3 4 5 6 
#
# 1 107.5152 52.5430 26.7196 0.0000 0.0000 0.0000
# 2 52.5430 107.5152 26.7196 0.0000 0.0000 0.0000
# 3 26.7196 26.7196 87.3943 0.0000 0.0000 0.0000
# 4 0.0000 0.0000 0.0000 32.9422 0.0000 0.0000
# 5 0.0000 0.0000 0.0000 0.0000 32.9422 0.0000
# 6 0.0000 0.0000 0.0000 0.0000 0.0000 27.4861
#
#
#
# Elastic Compliance Matrix: (Units=1/GPa)
#
#
# Indices 1 2 3 4 5 6 
#
# 1 0.012575 -0.005617 -0.002127 0.000000 0.000000 0.000000
# 2 -0.005617 0.012575 -0.002127 0.000000 0.000000 0.000000
# 3 -0.002127 -0.002127 0.012743 0.000000 0.000000 0.000000
# 4 0.000000 0.000000 0.000000 0.030356 0.000000 0.000000
# 5 0.000000 0.000000 0.000000 0.000000 0.030356 0.000000
# 6 0.000000 0.000000 0.000000 0.000000 0.000000 0.036382
#
#
# Mechanical properties :
#
#
# Convention : Reuss Voigt Hill
#
# Bulk Modulus (GPa) = 55.09667 57.15433 56.12550
# Shear Modulus (GPa) = 31.09862 31.77026 31.43444
#
# Velocity S-wave (km/s) = 4.11444 4.15863 4.13660
# Velocity P-wave (km/s) = 7.25007 7.36010 7.30529
#
# Compressibility (1/GPa) = 0.01814992
#
# Stress axis : x y z
#
# Youngs Moduli (GPa) = 79.52602 79.52602 78.47334
#
# Poissons Ratio (x) = 0.44666 0.16694
# Poissons Ratio (y) = 0.44666 0.16694
# Poissons Ratio (z) = 0.16918 0.16918
#
# Static dielectric constant tensor:
#      x y z
#    x 1.641050 0.000000 0.000000 
#    y 0.000000 1.641050 0.000000 
#    z 0.000000 0.000000 1.677550 
# 
# From -- ./inp_files/435.got.cif
#   From: 2010.05.17/outbox.cif.g08.bks.cpg/sg171_1_cif.got.tgz:435.got - 2010.05.20 11:16:09.
