data_PCOD9580066
_publ_section_title
;
Structure prediction by ZEFSAII (Michael W. Deem and Ramdas Pophale) SiO2 
 PCOD9580066
Probable space group: P 61
;
_chemical_formula_sum "Si O2"
_cell_formula_units_Z 24
_cell_length_a 15.345546
_cell_length_b 15.345546
_cell_length_c 4.941466
_cell_angle_alpha 90.000000
_cell_angle_beta 90.000000
_cell_angle_gamma 120.000000
_cell_volume 1007.746118
_symmetry_space_group_name_H-M "P 61"
_symmetry_group_IT_number 169
_symmetry_cell_setting 'hexagonal'
loop_
_space_group_symop_operation_xyz
x,y,z
x-y,x,1/6+z
-y,x-y,1/3+z
-x,-y,1/2+z
-x+y,-x,2/3+z
y,-x+y,5/6+z
loop_
_atom_site_type_symbol
_atom_site_label
_atom_site_fract_x
_atom_site_fract_y
_atom_site_fract_z
Si Si1 0.442582 0.500819 0.022380
Si Si2 0.877790 0.238678 0.874696
Si Si3 0.226022 0.076196 0.041285
Si Si4 0.251840 0.563807 0.579365
O O1 0.469868 0.464731 0.296749
O O2 0.428597 0.595992 0.091078
O O3 0.345494 0.415927 0.864353
O O4 0.868595 0.164611 0.115596
O O5 0.773023 0.221692 0.750397
O O6 0.932206 0.222308 0.621325
O O7 0.177242 0.141983 0.130708
O O8 0.254973 0.630910 0.329675
#
# Coordination Sequence:
#
# PCOD9580066 Si02
#       4
#     6   6   6   6
#     4  11  26  44  72 106 153 196 253 308 366 435
#     4  11  27  47  76 112 146 196 249 303 379 445
#     4  12  29  52  79 110 149 194 252 324 393 458
#     4  10  26  45  71 104 156 206 248 301 370 448
#
# _framework density 23.815522000000001
#
# number of rings (size 3 to 8) (size 9 to 14) (size 15 to 20)
#    0.000    1.000    0.000    3.000   24.500    2.000 
#    0.000    0.000    0.000    0.000    0.000    0.000 
#    0.000    0.000    0.000    0.000    0.000    0.000 
#
# Total GULP energy -134209.094463 kJ/mol
# GULP energy per Si atom -5592.045603 kJ/mol
# Density = 2.376132 g / cm^3
# Si number density = 23.815522 Si / 1000 Ang^3
#
#
#
# Elastic Constant Matrix: (Units=GPa)
#
#
# Indices 1 2 3 4 5 6 
#
# 1 95.0941 92.9111 49.3817 0.0000 0.0000 0.0000
# 2 92.9111 95.0941 49.3817 0.0000 0.0000 0.0000
# 3 49.3817 49.3817 123.1540 0.0000 0.0000 0.0000
# 4 0.0000 0.0000 0.0000 30.6337 0.0000 0.0000
# 5 0.0000 0.0000 0.0000 0.0000 30.6337 0.0000
# 6 0.0000 0.0000 0.0000 0.0000 0.0000 1.0915
#
#
#
# Elastic Compliance Matrix: (Units=1/GPa)
#
#
# Indices 1 2 3 4 5 6 
#
# 1 0.232411 -0.225673 -0.002702 0.000000 0.000000 0.000000
# 2 -0.225673 0.232411 -0.002702 0.000000 0.000000 0.000000
# 3 -0.002702 -0.002702 0.010287 0.000000 0.000000 0.000000
# 4 0.000000 0.000000 0.000000 0.032644 0.000000 0.000000
# 5 0.000000 0.000000 0.000000 0.000000 0.032644 0.000000
# 6 0.000000 0.000000 0.000000 0.000000 0.000000 0.916168
#
#
# Mechanical properties :
#
#
# Convention : Reuss Voigt Hill
#
# Bulk Modulus (GPa) = 77.18554 77.41013 77.29783
# Shear Modulus (GPa) = 2.60005 20.58296 11.59151
#
# Velocity S-wave (km/s) = 1.04600 2.94303 2.20857
# Velocity P-wave (km/s) = 5.82571 6.64253 6.24749
#
# Compressibility (1/GPa) = 0.01295579
#
# Stress axis : x y z
#
# Youngs Moduli (GPa) = 4.30272 4.30272 97.21274
#
# Poissons Ratio (x) = 0.97101 0.26266
# Poissons Ratio (y) = 0.97101 0.26266
# Poissons Ratio (z) = 0.01163 0.01163
#
# Static dielectric constant tensor:
#      x y z
#    x 1.950200 0.000000 0.000000 
#    y 0.000000 1.950200 0.000000 
#    z 0.000000 0.000000 1.928520 
# 
# From -- ./inp_files/54.got.cif
#   From: 2010.05.17/outbox.cif.g08.bks.cpg/sg169_cif.got.tgz:54.got - 2010.05.20 11:12:54.
