data_PCOD9580419
_publ_section_title
;
Structure prediction by ZEFSAII (Michael W. Deem and Ramdas Pophale) SiO2 
 PCOD9580419
Probable space group: P 62
;
_chemical_formula_sum "Si O2"
_cell_formula_units_Z 36
_cell_length_a 8.868247
_cell_length_b 8.868247
_cell_length_c 26.778801
_cell_angle_alpha 90.000000
_cell_angle_beta 90.000000
_cell_angle_gamma 120.000000
_cell_volume 1823.884451
_symmetry_space_group_name_H-M "P 62"
_symmetry_group_IT_number 171
_symmetry_cell_setting 'hexagonal'
loop_
_space_group_symop_operation_xyz
x,y,z
x-y,x,1/3+z
-y,x-y,2/3+z
-x,-y,z
-x+y,-x,1/3+z
y,-x+y,2/3+z
loop_
_atom_site_type_symbol
_atom_site_label
_atom_site_fract_x
_atom_site_fract_y
_atom_site_fract_z
Si Si1 0.631282 0.682966 0.201440
Si Si2 0.337137 0.310967 0.900861
Si Si3 0.545974 0.682045 0.011882
Si Si4 0.681600 0.176778 0.977872
Si Si5 0.158373 0.959693 0.161368
Si Si6 0.196200 0.158871 0.383927
O O1 0.500000 0.500000 0.177133
O O2 0.799633 0.664075 0.215812
O O3 0.547308 0.705380 0.252679
O O4 0.678066 0.850659 0.169222
O O5 0.500000 0.500000 0.887312
O O6 0.345931 0.299924 0.960809
O O7 0.169088 0.296953 0.873633
O O8 0.500000 0.500000 0.035873
O O9 0.370465 0.681074 0.993939
O O10 0.668377 0.848483 0.044893
O O11 0.500000 0.000000 0.988880
O O12 0.826644 0.161958 0.009593
O O13 0.153528 0.890168 0.106030
O O14 0.000000 0.000000 0.163038
O O15 0.000000 0.000000 0.376830
#
# Coordination Sequence:
#
# PCOD9580419 Si02
#       6
#     6   6   6   6   6   6
#     4  10  17  34  58  81 111 152 195 238 284 355
#     4  10  19  35  57  83 115 150 196 249 293 340
#     4  10  20  36  61  82 113 152 201 244 297 348
#     4   9  17  34  58  80 106 152 196 234 289 345
#     4   9  21  35  55  86 117 155 196 230 300 375
#     4  10  20  36  57  86 114 151 194 238 296 363
#
# _framework density 19.738091000000001
#
# number of rings (size 3 to 8) (size 9 to 14) (size 15 to 20)
#    0.000    2.333    5.000    0.000    2.333    0.667 
#    0.000   11.667    0.000    0.000    0.000    0.000 
#    0.000    0.000    0.000    0.000    0.000    0.000 
#
# Total GULP energy -200414.145327 kJ/mol
# GULP energy per Si atom -5567.059592 kJ/mol
# Density = 1.969317 g / cm^3
# Si number density = 19.738091 Si / 1000 Ang^3
#
#
#
# Elastic Constant Matrix: (Units=GPa)
#
#
# Indices 1 2 3 4 5 6 
#
# 1 49.0172 -1.6806 14.4214 0.0000 0.0000 0.0000
# 2 -1.6806 49.0172 14.4214 0.0000 0.0000 0.0000
# 3 14.4214 14.4214 57.8071 0.0000 0.0000 0.0000
# 4 0.0000 0.0000 0.0000 8.3704 0.0000 0.0000
# 5 0.0000 0.0000 0.0000 0.0000 8.3704 0.0000
# 6 0.0000 0.0000 0.0000 0.0000 0.0000 25.3489
#
#
#
# Elastic Compliance Matrix: (Units=1/GPa)
#
#
# Indices 1 2 3 4 5 6 
#
# 1 0.022318 0.002594 -0.006215 0.000000 0.000000 0.000000
# 2 0.002594 0.022318 -0.006215 0.000000 0.000000 0.000000
# 3 -0.006215 -0.006215 0.020400 0.000000 0.000000 0.000000
# 4 0.000000 0.000000 0.000000 0.119468 0.000000 0.000000
# 5 0.000000 0.000000 0.000000 0.000000 0.119468 0.000000
# 6 0.000000 0.000000 0.000000 0.000000 0.000000 0.039449
#
#
# Mechanical properties :
#
#
# Convention : Reuss Voigt Hill
#
# Bulk Modulus (GPa) = 22.04374 23.35177 22.69776
# Shear Modulus (GPa) = 13.21995 16.99657 15.10826
#
# Velocity S-wave (km/s) = 2.59080 2.93764 2.76965
# Velocity P-wave (km/s) = 4.48798 4.83351 4.66395
#
# Compressibility (1/GPa) = 0.04536435
#
# Stress axis : x y z
#
# Youngs Moduli (GPa) = 44.80602 44.80602 49.01992
#
# Poissons Ratio (x) = -0.11621 0.30466
# Poissons Ratio (y) = -0.11621 0.30466
# Poissons Ratio (z) = 0.27847 0.27847
#
# Static dielectric constant tensor:
#      x y z
#    x 1.745330 0.000000 0.000000 
#    y 0.000000 1.745330 0.000000 
#    z 0.000000 0.000000 1.697170 
# 
# From -- ./inp_files/5745.got.cif
#   From: 2010.05.17/outbox.cif.g08.bks.cpg/sg171_3_cif.got.tgz:5745.got - 2010.05.20 11:16:09.
