data_PCOD9580909
_publ_section_title
;
Structure prediction by ZEFSAII (Michael W. Deem and Ramdas Pophale) SiO2 
 PCOD9580909
Probable space group: P 64
;
_chemical_formula_sum "Si O2"
_cell_formula_units_Z 45
_cell_length_a 11.545929
_cell_length_b 11.545929
_cell_length_c 19.432447
_cell_angle_alpha 90.000000
_cell_angle_beta 90.000000
_cell_angle_gamma 120.000000
_cell_volume 2243.447385
_symmetry_space_group_name_H-M "P 64"
_symmetry_group_IT_number 172
_symmetry_cell_setting 'hexagonal'
loop_
_space_group_symop_operation_xyz
x,y,z
x-y,x,2/3+z
-y,x-y,1/3+z
-x,-y,z
-x+y,-x,2/3+z
y,-x+y,1/3+z
loop_
_atom_site_type_symbol
_atom_site_label
_atom_site_fract_x
_atom_site_fract_y
_atom_site_fract_z
Si Si1 0.276958 0.182101 0.799140
Si Si2 0.500000 0.000000 0.895876
Si Si3 0.309686 0.797076 0.418373
Si Si4 0.143171 0.624838 0.624487
Si Si5 0.312306 0.048063 0.997518
Si Si6 0.957070 0.847573 0.216158
Si Si7 0.319864 0.194619 0.206910
Si Si8 0.429341 0.725370 0.845350
O O1 0.295122 0.231703 0.721413
O O2 0.197921 0.250060 0.833430
O O3 0.419671 0.238389 0.833357
O O4 0.198265 0.023142 0.814551
O O5 0.603259 0.989891 0.946792
O O6 0.569967 0.135807 0.851806
O O7 0.440121 0.849394 0.370683
O O8 0.301034 0.877097 0.484888
O O9 0.285717 0.659554 0.451881
O O10 0.188409 0.778165 0.368233
O O11 0.167629 0.770704 0.602742
O O12 0.259843 0.616516 0.583061
O O13 0.000000 0.500000 0.599570
O O14 0.200621 0.041254 0.946697
O O15 0.797225 0.772164 0.224330
O O16 0.000000 0.000000 0.210797
#
# Coordination Sequence:
#
# PCOD9580909 Si02
#       8
#     6   3   6   6   6   6   6   6
#     4  10  19  38  62  91 123 160 212 275 323 380
#     4  12  22  40  64  92 136 162 218 278 326 384
#     4  10  22  39  63  93 122 166 229 263 326 397
#     4  11  20  39  66  91 125 170 221 272 316 398
#     4  11  22  38  67  94 121 173 217 272 322 402
#     4  10  21  39  60  93 133 161 210 276 339 381
#     4   9  21  37  62  91 128 168 210 275 330 384
#     4  11  22  40  63  93 125 165 221 277 320 384
#
# _framework density 20.058416000000001
#
# number of rings (size 3 to 8) (size 9 to 14) (size 15 to 20)
#    0.000    1.600    4.000    0.800    1.867    2.667 
#    4.800    0.000    0.000    0.000    0.000    0.000 
#    0.000    0.000    0.000    0.000    0.000    0.000 
#
# Total GULP energy -250687.430854 kJ/mol
# GULP energy per Si atom -5570.831797 kJ/mol
# Density = 2.001276 g / cm^3
# Si number density = 20.058416 Si / 1000 Ang^3
#
#
#
# Elastic Constant Matrix: (Units=GPa)
#
#
# Indices 1 2 3 4 5 6 
#
# 1 47.6742 28.2770 25.4583 0.0000 0.0000 0.0000
# 2 28.2770 47.6742 25.4583 0.0000 0.0000 0.0000
# 3 25.4583 25.4583 71.9009 0.0000 0.0000 0.0000
# 4 0.0000 0.0000 0.0000 35.5396 0.0000 0.0000
# 5 0.0000 0.0000 0.0000 0.0000 35.5396 0.0000
# 6 0.0000 0.0000 0.0000 0.0000 0.0000 9.6986
#
#
#
# Elastic Compliance Matrix: (Units=1/GPa)
#
#
# Indices 1 2 3 4 5 6 
#
# 1 0.034409 -0.017145 -0.006113 0.000000 0.000000 0.000000
# 2 -0.017145 0.034409 -0.006113 0.000000 0.000000 0.000000
# 3 -0.006113 -0.006113 0.018237 0.000000 0.000000 0.000000
# 4 0.000000 0.000000 0.000000 0.028138 0.000000 0.000000
# 5 0.000000 0.000000 0.000000 0.000000 0.028138 0.000000
# 6 0.000000 0.000000 0.000000 0.000000 0.000000 0.103108
#
#
# Mechanical properties :
#
#
# Convention : Reuss Voigt Hill
#
# Bulk Modulus (GPa) = 35.31816 36.18184 35.75000
# Shear Modulus (GPa) = 15.89235 22.02596 18.95915
#
# Velocity S-wave (km/s) = 2.81784 3.31734 3.07774
# Velocity P-wave (km/s) = 5.31346 5.72280 5.52192
#
# Compressibility (1/GPa) = 0.02831405
#
# Stress axis : x y z
#
# Youngs Moduli (GPa) = 29.06211 29.06211 54.83408
#
# Poissons Ratio (x) = 0.49826 0.33519
# Poissons Ratio (y) = 0.49826 0.33519
# Poissons Ratio (z) = 0.17765 0.17765
#
# Static dielectric constant tensor:
#      x y z
#    x 1.829230 0.000000 0.000000 
#    y 0.000000 1.829230 0.000000 
#    z 0.000000 0.000000 1.743490 
# 
# From -- ./inp_files/1701.got.cif
#   From: 2010.05.17/outbox.cif.g08.bks.cpg/sg172_1_cif.got.tgz:1701.got - 2010.05.20 11:19:57.
