data_PCOD9580530
_publ_section_title
;
Structure prediction by ZEFSAII (Michael W. Deem and Ramdas Pophale) SiO2 
 PCOD9580530
Probable space group: P 62
;
_chemical_formula_sum "Si O2"
_cell_formula_units_Z 33
_cell_length_a 12.111076
_cell_length_b 12.111076
_cell_length_c 12.102124
_cell_angle_alpha 90.000000
_cell_angle_beta 90.000000
_cell_angle_gamma 120.000000
_cell_volume 1537.296679
_symmetry_space_group_name_H-M "P 62"
_symmetry_group_IT_number 171
_symmetry_cell_setting 'hexagonal'
loop_
_space_group_symop_operation_xyz
x,y,z
x-y,x,1/3+z
-y,x-y,2/3+z
-x,-y,z
-x+y,-x,1/3+z
y,-x+y,2/3+z
loop_
_atom_site_type_symbol
_atom_site_label
_atom_site_fract_x
_atom_site_fract_y
_atom_site_fract_z
Si Si1 0.632264 0.116774 0.254990
Si Si2 0.019903 0.268065 0.073651
Si Si3 0.002166 0.737134 0.458374
Si Si4 0.874150 0.997359 0.993620
Si Si5 0.830868 0.362184 0.149697
Si Si6 0.000000 0.500000 0.347517
O O1 0.721917 0.057630 0.286716
O O2 0.698887 0.234623 0.172845
O O3 0.603250 0.162874 0.373418
O O4 0.500000 0.000000 0.214114
O O5 0.155632 0.306813 0.124144
O O6 0.937234 0.320829 0.130099
O O7 0.939207 0.116154 0.076319
O O8 0.962800 0.757680 0.579378
O O9 0.991295 0.606369 0.420169
O O10 0.929225 0.786372 0.377037
O O11 0.000000 0.000000 0.942601
O O12 0.878434 0.438791 0.264471
#
# Coordination Sequence:
#
# PCOD9580530 Si02
#       6
#     6   6   6   6   6   3
#     4  10  22  41  70  93 125 171 224 267 327 393
#     4  10  20  38  68  89 126 166 215 266 327 391
#     4  11  23  37  62 100 132 168 213 269 336 389
#     4  10  22  38  64 101 131 164 212 280 336 391
#     4  11  22  43  66  95 122 179 224 268 321 399
#     4  12  22  38  64  90 132 176 216 264 326 410
#
# _framework density 21.466253999999999
#
# number of rings (size 3 to 8) (size 9 to 14) (size 15 to 20)
#    0.000    1.455    4.545    2.727    5.091    0.000 
#    6.545    0.000    2.000    0.000    0.000    0.000 
#    0.000    0.000    0.000    0.000    0.000    0.000 
#
# Total GULP energy -184139.129975 kJ/mol
# GULP energy per Si atom -5579.973636 kJ/mol
# Density = 2.141740 g / cm^3
# Si number density = 21.466254 Si / 1000 Ang^3
#
#
#
# Elastic Constant Matrix: (Units=GPa)
#
#
# Indices 1 2 3 4 5 6 
#
# 1 111.9045 38.5634 37.0295 0.0000 0.0000 0.0000
# 2 38.5634 111.9045 37.0295 0.0000 0.0000 0.0000
# 3 37.0295 37.0295 49.7672 0.0000 0.0000 0.0000
# 4 0.0000 0.0000 0.0000 14.7288 0.0000 0.0000
# 5 0.0000 0.0000 0.0000 0.0000 14.7288 0.0000
# 6 0.0000 0.0000 0.0000 0.0000 0.0000 36.6706
#
#
#
# Elastic Compliance Matrix: (Units=1/GPa)
#
#
# Indices 1 2 3 4 5 6 
#
# 1 0.012061 -0.001574 -0.007802 0.000000 0.000000 0.000000
# 2 -0.001574 0.012061 -0.007802 0.000000 0.000000 0.000000
# 3 -0.007802 -0.007802 0.031704 0.000000 0.000000 0.000000
# 4 0.000000 0.000000 0.000000 0.067894 0.000000 0.000000
# 5 0.000000 0.000000 0.000000 0.000000 0.067894 0.000000
# 6 0.000000 0.000000 0.000000 0.000000 0.000000 0.027270
#
#
# Mechanical properties :
#
#
# Convention : Reuss Voigt Hill
#
# Bulk Modulus (GPa) = 46.58223 55.42457 51.00340
# Shear Modulus (GPa) = 19.20144 23.95588 21.57866
#
# Velocity S-wave (km/s) = 2.99405 3.34425 3.17399
# Velocity P-wave (km/s) = 5.80515 6.38651 6.10276
#
# Compressibility (1/GPa) = 0.02146741
#
# Stress axis : x y z
#
# Youngs Moduli (GPa) = 82.91503 82.91503 31.54151
#
# Poissons Ratio (x) = 0.13054 0.24610
# Poissons Ratio (y) = 0.13054 0.24610
# Poissons Ratio (z) = 0.64693 0.64693
#
# Static dielectric constant tensor:
#      x y z
#    x 1.810160 0.000000 0.000000 
#    y 0.000000 1.810160 0.000000 
#    z 0.000000 0.000000 1.856570 
# 
# From -- ./inp_files/1539.got.cif
#   From: 2010.05.17/outbox.cif.g08.bks.cpg/sg171_1_cif.got.tgz:1539.got - 2010.05.20 11:16:09.
