data_PCOD9580820
_publ_section_title
;
Structure prediction by ZEFSAII (Michael W. Deem and Ramdas Pophale) SiO2 
 PCOD9580820
Probable space group: P 62
;
_chemical_formula_sum "Si O2"
_cell_formula_units_Z 33
_cell_length_a 10.195792
_cell_length_b 10.195792
_cell_length_c 19.541590
_cell_angle_alpha 90.000000
_cell_angle_beta 90.000000
_cell_angle_gamma 120.000000
_cell_volume 1759.269862
_symmetry_space_group_name_H-M "P 62"
_symmetry_group_IT_number 171
_symmetry_cell_setting 'hexagonal'
loop_
_space_group_symop_operation_xyz
x,y,z
x-y,x,1/3+z
-y,x-y,2/3+z
-x,-y,z
-x+y,-x,1/3+z
y,-x+y,2/3+z
loop_
_atom_site_type_symbol
_atom_site_label
_atom_site_fract_x
_atom_site_fract_y
_atom_site_fract_z
Si Si1 0.751326 0.683587 0.336570
Si Si2 0.000000 0.000000 0.941293
Si Si3 0.468740 0.235548 0.129710
Si Si4 0.500000 0.000000 0.321599
Si Si5 0.000000 0.500000 0.560987
Si Si6 0.766807 0.235548 0.086209
Si Si7 0.316413 0.248674 0.546015
O O1 0.885189 0.847414 0.314637
O O2 0.821745 0.616721 0.390535
O O3 0.651720 0.571759 0.275022
O O4 0.625412 0.706817 0.376357
O O5 0.962224 0.847414 0.901282
O O6 0.484629 0.367559 0.178359
O O7 0.629611 0.259223 0.107959
O O8 0.374588 0.081406 0.172895
O O9 0.515371 0.882930 0.370893
O O10 0.348280 0.920039 0.274230
O O11 0.821744 0.205024 0.158717
#
# Coordination Sequence:
#
# PCOD9580820 Si02
#       7
#     6   3   6   3   3   6   6
#     4  11  23  43  67  99 136 181 230 286 357 424
#     4  12  24  42  72 102 142 182 228 304 356 420
#     4  11  23  41  69  97 135 183 238 283 351 432
#     4  12  22  43  70  99 134 192 224 294 358 414
#     4  12  22  43  70  99 134 192 224 294 358 414
#     4  11  23  41  69  97 135 183 238 283 351 432
#     4  11  23  43  67  99 136 181 230 286 357 424
#
# _framework density 18.757783
#
# number of rings (size 3 to 8) (size 9 to 14) (size 15 to 20)
#    0.000    0.727    7.273    1.091    0.000    5.818 
#    0.000    0.000    0.000    0.000    0.000    0.000 
#    0.000    0.000    0.000    0.000    0.000    0.000 
#
# Total GULP energy -184105.701299 kJ/mol
# GULP energy per Si atom -5578.960645 kJ/mol
# Density = 1.871509 g / cm^3
# Si number density = 18.757783 Si / 1000 Ang^3
#
#
#
# Elastic Constant Matrix: (Units=GPa)
#
#
# Indices 1 2 3 4 5 6 
#
# 1 283.2881 -173.0306 71.2708 0.0000 0.0000 0.0000
# 2 -173.0306 283.2881 71.2708 0.0000 0.0000 0.0000
# 3 71.2708 71.2708 149.6200 0.0000 0.0000 0.0000
# 4 0.0000 0.0000 0.0000 111.6314 0.0000 0.0000
# 5 0.0000 0.0000 0.0000 0.0000 111.6314 0.0000
# 6 0.0000 0.0000 0.0000 0.0000 0.0000 228.1593
#
#
#
# Elastic Compliance Matrix: (Units=1/GPa)
#
#
# Indices 1 2 3 4 5 6 
#
# 1 0.012900 0.010708 -0.011246 0.000000 0.000000 0.000000
# 2 0.010708 0.012900 -0.011246 0.000000 0.000000 0.000000
# 3 -0.011246 -0.011246 0.017397 0.000000 0.000000 0.000000
# 4 0.000000 0.000000 0.000000 0.008958 0.000000 0.000000
# 5 0.000000 0.000000 0.000000 0.000000 0.008958 0.000000
# 6 0.000000 0.000000 0.000000 0.000000 0.000000 0.004383
#
#
# Mechanical properties :
#
#
# Convention : Reuss Voigt Hill
#
# Bulk Modulus (GPa) = 50.94002 72.80203 61.87103
# Shear Modulus (GPa) = 52.29840 140.06342 96.18091
#
# Velocity S-wave (km/s) = 5.28597 8.65053 7.16844
# Velocity P-wave (km/s) = 8.02938 11.77588 10.07825
#
# Compressibility (1/GPa) = 0.01963093
#
# Stress axis : x y z
#
# Youngs Moduli (GPa) = 77.52074 77.52074 57.48051
#
# Poissons Ratio (x) = -0.83012 0.64640
# Poissons Ratio (y) = -0.83012 0.64640
# Poissons Ratio (z) = 0.87177 0.87177
#
# Static dielectric constant tensor:
#      x y z
#    x 1.653500 0.000000 0.000000 
#    y 0.000000 1.653500 0.000000 
#    z 0.000000 0.000000 1.697010 
# 
# From -- ./inp_files/2935.got.cif
#   From: 2010.05.17/outbox.cif.g08.bks.cpg/sg171_2_cif.got.tgz:2935.got - 2010.05.20 11:16:09.
