data_PCOD9580184
_publ_section_title
;
Structure prediction by ZEFSAII (Michael W. Deem and Ramdas Pophale) SiO2 
 PCOD9580184
Probable space group: P 65
;
_chemical_formula_sum "Si O2"
_cell_formula_units_Z 36
_cell_length_a 14.751364
_cell_length_b 14.751364
_cell_length_c 7.887975
_cell_angle_alpha 90.000000
_cell_angle_beta 90.000000
_cell_angle_gamma 120.000000
_cell_volume 1486.484950
_symmetry_space_group_name_H-M "P 65"
_symmetry_group_IT_number 170
_symmetry_cell_setting 'hexagonal'
loop_
_space_group_symop_operation_xyz
x,y,z
x-y,x,5/6+z
-y,x-y,2/3+z
-x,-y,1/2+z
-x+y,-x,1/3+z
y,-x+y,1/6+z
loop_
_atom_site_type_symbol
_atom_site_label
_atom_site_fract_x
_atom_site_fract_y
_atom_site_fract_z
Si Si1 0.869412 0.281983 0.408200
Si Si2 0.838880 0.456318 0.403201
Si Si3 0.042763 0.836744 0.408837
Si Si4 0.431893 0.140209 0.133454
Si Si5 0.513528 0.530024 0.896454
Si Si6 0.130574 0.915891 0.888884
O O1 0.792580 0.331167 0.398248
O O2 0.895162 0.284252 0.607458
O O3 0.832006 0.166515 0.345705
O O4 0.970699 0.371589 0.309197
O O5 0.765742 0.501618 0.446813
O O6 0.923627 0.497041 0.555722
O O7 0.911689 0.497656 0.236257
O O8 0.096641 0.764978 0.421656
O O9 0.956170 0.822435 0.545242
O O10 0.972585 0.797503 0.236492
O O11 0.510400 0.097838 0.171004
O O12 0.161062 0.006719 0.754966
#
# Coordination Sequence:
#
# PCOD9580184 Si02
#       6
#     6   6   6   6   6   6
#     4   9  20  37  62  86 130 178 216 277 357 405
#     4   9  21  38  68  93 125 177 232 281 347 422
#     4  10  19  32  59  91 121 172 228 258 324 410
#     4  11  18  38  69  90 126 177 231 286 352 419
#     4   9  21  40  63  92 132 167 228 281 346 419
#     4  10  19  35  59  90 126 171 223 259 328 417
#
# _framework density 24.218209000000002
#
# number of rings (size 3 to 8) (size 9 to 14) (size 15 to 20)
#    1.000    1.333    3.333    1.000    0.000    0.000 
#    0.000   13.333    7.333    0.000    0.000    0.000 
#    0.000    0.000    0.000    0.000    0.000    0.000 
#
# Total GULP energy -200760.041470 kJ/mol
# GULP energy per Si atom -5576.667819 kJ/mol
# Density = 2.416309 g / cm^3
# Si number density = 24.218209 Si / 1000 Ang^3
#
#
#
# Elastic Constant Matrix: (Units=GPa)
#
#
# Indices 1 2 3 4 5 6 
#
# 1 106.6910 56.6727 17.5580 0.0000 0.0000 0.0000
# 2 56.6727 106.6910 17.5580 0.0000 0.0000 0.0000
# 3 17.5580 17.5580 51.8663 0.0000 0.0000 0.0000
# 4 0.0000 0.0000 0.0000 5.8913 0.0000 0.0000
# 5 0.0000 0.0000 0.0000 0.0000 5.8913 0.0000
# 6 0.0000 0.0000 0.0000 0.0000 0.0000 25.0091
#
#
#
# Elastic Compliance Matrix: (Units=1/GPa)
#
#
# Indices 1 2 3 4 5 6 
#
# 1 0.013297 -0.006695 -0.002235 0.000000 0.000000 0.000000
# 2 -0.006695 0.013297 -0.002235 0.000000 0.000000 0.000000
# 3 -0.002235 -0.002235 0.020793 0.000000 0.000000 0.000000
# 4 0.000000 0.000000 0.000000 0.169742 0.000000 0.000000
# 5 0.000000 0.000000 0.000000 0.000000 0.169742 0.000000
# 6 0.000000 0.000000 0.000000 0.000000 0.000000 0.039985
#
#
# Mechanical properties :
#
#
# Convention : Reuss Voigt Hill
#
# Bulk Modulus (GPa) = 39.90820 49.86952 44.88886
# Shear Modulus (GPa) = 10.92800 18.92231 14.92515
#
# Velocity S-wave (km/s) = 2.12652 2.79825 2.48519
# Velocity P-wave (km/s) = 4.74804 5.57465 5.17787
#
# Compressibility (1/GPa) = 0.02505750
#
# Stress axis : x y z
#
# Youngs Moduli (GPa) = 75.20381 75.20381 48.09206
#
# Poissons Ratio (x) = 0.50353 0.10748
# Poissons Ratio (y) = 0.50353 0.10748
# Poissons Ratio (z) = 0.16807 0.16807
#
# Static dielectric constant tensor:
#      x y z
#    x 1.960880 0.000000 0.000000 
#    y 0.000000 1.960880 0.000000 
#    z 0.000000 0.000000 2.025720 
# 
# From -- ./inp_files/938.got.cif
#   From: 2010.05.17/outbox.cif.g08.bks.cpg/sg170_cif.got.tgz:938.got - 2010.05.20 11:14:30.
