data_PCOD9580588
_publ_section_title
;
Structure prediction by ZEFSAII (Michael W. Deem and Ramdas Pophale) SiO2 
 PCOD9580588
Probable space group: P 62
;
_chemical_formula_sum "Si O2"
_cell_formula_units_Z 42
_cell_length_a 17.294156
_cell_length_b 17.294156
_cell_length_c 8.619488
_cell_angle_alpha 90.000000
_cell_angle_beta 90.000000
_cell_angle_gamma 120.000000
_cell_volume 2232.599614
_symmetry_space_group_name_H-M "P 62"
_symmetry_group_IT_number 171
_symmetry_cell_setting 'hexagonal'
loop_
_space_group_symop_operation_xyz
x,y,z
x-y,x,1/3+z
-y,x-y,2/3+z
-x,-y,z
-x+y,-x,1/3+z
y,-x+y,2/3+z
loop_
_atom_site_type_symbol
_atom_site_label
_atom_site_fract_x
_atom_site_fract_y
_atom_site_fract_z
Si Si1 0.606435 0.880715 0.667700
Si Si2 0.704993 0.338535 0.929138
Si Si3 0.179133 0.753787 0.975517
Si Si4 0.405481 0.410126 0.500703
Si Si5 0.561209 0.098781 0.653506
Si Si6 0.370420 0.311186 0.183116
Si Si7 0.474346 0.311668 0.712448
O O1 0.608742 0.857897 0.484583
O O2 0.510749 0.873934 0.697695
O O3 0.593418 0.791536 0.750146
O O4 0.678054 0.979034 0.734137
O O5 0.646776 0.328871 0.084289
O O6 0.746387 0.275862 0.968201
O O7 0.776176 0.444320 0.932008
O O8 0.099449 0.671153 0.888922
O O9 0.219153 0.849357 0.888117
O O10 0.500000 0.500000 0.473031
O O11 0.368089 0.350800 0.348456
O O12 0.421470 0.354394 0.632869
O O13 0.617972 0.086743 0.786065
O O14 0.632017 0.159409 0.527630
O O15 0.500000 0.000000 0.580035
#
# Coordination Sequence:
#
# PCOD9580588 Si02
#       7
#     6   6   6   6   6   6   6
#     4  11  22  42  57  83 131 167 219 284 330 402
#     4  12  25  40  60  93 134 175 237 289 334 399
#     4  12  25  42  62  92 127 175 233 284 335 420
#     4  12  22  41  64  90 129 171 219 279 339 400
#     4  10  21  40  58  83 123 172 216 268 329 396
#     4  11  26  41  60  92 122 173 231 274 344 402
#     4  12  21  39  61  87 126 175 216 274 343 390
#
# _framework density 18.812149000000002
#
# number of rings (size 3 to 8) (size 9 to 14) (size 15 to 20)
#    0.000    0.571    5.714    3.429    6.000    0.000 
#    0.000    0.000    0.000    0.000    0.000    0.000 
#    0.000    3.429    0.000    0.000    0.000    0.000 
#
# Total GULP energy -234246.786065 kJ/mol
# GULP energy per Si atom -5577.304430 kJ/mol
# Density = 1.876933 g / cm^3
# Si number density = 18.812149 Si / 1000 Ang^3
#
#
#
# Elastic Constant Matrix: (Units=GPa)
#
#
# Indices 1 2 3 4 5 6 
#
# 1 74.1664 16.4293 28.8486 0.0000 0.0000 0.0000
# 2 16.4293 74.1664 28.8486 0.0000 0.0000 0.0000
# 3 28.8486 28.8486 79.9460 0.0000 0.0000 0.0000
# 4 0.0000 0.0000 0.0000 20.7362 0.0000 0.0000
# 5 0.0000 0.0000 0.0000 0.0000 20.7362 0.0000
# 6 0.0000 0.0000 0.0000 0.0000 0.0000 28.8686
#
#
#
# Elastic Compliance Matrix: (Units=1/GPa)
#
#
# Indices 1 2 3 4 5 6 
#
# 1 0.015826 -0.001494 -0.005172 0.000000 0.000000 0.000000
# 2 -0.001494 0.015826 -0.005172 0.000000 0.000000 0.000000
# 3 -0.005172 -0.005172 0.016241 0.000000 0.000000 0.000000
# 4 0.000000 0.000000 0.000000 0.048225 0.000000 0.000000
# 5 0.000000 0.000000 0.000000 0.000000 0.048225 0.000000
# 6 0.000000 0.000000 0.000000 0.000000 0.000000 0.034640
#
#
# Mechanical properties :
#
#
# Convention : Reuss Voigt Hill
#
# Bulk Modulus (GPa) = 41.29205 41.83685 41.56445
# Shear Modulus (GPa) = 23.72716 24.34502 24.03609
#
# Velocity S-wave (km/s) = 3.55529 3.60128 3.57836
# Velocity P-wave (km/s) = 6.23304 6.29125 6.26221
#
# Compressibility (1/GPa) = 0.02421774
#
# Stress axis : x y z
#
# Youngs Moduli (GPa) = 63.18815 63.18815 61.57343
#
# Poissons Ratio (x) = 0.09441 0.31843
# Poissons Ratio (y) = 0.09441 0.31843
# Poissons Ratio (z) = 0.32678 0.32678
#
# Static dielectric constant tensor:
#      x y z
#    x 1.727200 0.000000 0.000000 
#    y 0.000000 1.727200 0.000000 
#    z 0.000000 0.000000 1.803800 
# 
# From -- ./inp_files/1260.got.cif
#   From: 2010.05.17/outbox.cif.g08.bks.cpg/sg171_1_cif.got.tgz:1260.got - 2010.05.20 11:16:09.
