data_PCOD9580679
_publ_section_title
;
Structure prediction by ZEFSAII (Michael W. Deem and Ramdas Pophale) SiO2 
 PCOD9580679
Probable space group: P 62
;
_chemical_formula_sum "Si O2"
_cell_formula_units_Z 36
_cell_length_a 10.733903
_cell_length_b 10.733903
_cell_length_c 17.030464
_cell_angle_alpha 90.000000
_cell_angle_beta 90.000000
_cell_angle_gamma 120.000000
_cell_volume 1699.309342
_symmetry_space_group_name_H-M "P 62"
_symmetry_group_IT_number 171
_symmetry_cell_setting 'hexagonal'
loop_
_space_group_symop_operation_xyz
x,y,z
x-y,x,1/3+z
-y,x-y,2/3+z
-x,-y,z
-x+y,-x,1/3+z
y,-x+y,2/3+z
loop_
_atom_site_type_symbol
_atom_site_label
_atom_site_fract_x
_atom_site_fract_y
_atom_site_fract_z
Si Si1 0.644397 0.770472 0.673620
Si Si2 0.836058 0.897622 0.070406
Si Si3 0.938898 0.630169 0.516328
Si Si4 0.669122 0.439622 0.136198
Si Si5 0.350541 0.209369 0.348315
Si Si6 0.147898 0.494100 0.845178
O O1 0.758781 0.935142 0.694706
O O2 0.507813 0.727359 0.730770
O O3 0.726147 0.679773 0.687002
O O4 0.600846 0.750985 0.583346
O O5 0.747028 0.844504 0.150317
O O6 0.795529 0.993206 0.016646
O O7 0.000000 0.000000 0.092779
O O8 0.866619 0.501847 0.452448
O O9 0.865949 0.577663 0.600710
O O10 0.109785 0.688521 0.518488
O O11 0.672061 0.307297 0.177759
O O12 0.431170 0.293578 0.425505
O O13 0.000000 0.500000 0.856647
#
# Coordination Sequence:
#
# PCOD9580679 Si02
#       6
#     6   6   6   6   6   6
#     4  10  24  44  65  96 136 176 228 290 339 424
#     4   9  20  40  66  95 129 175 226 286 351 409
#     4  10  22  43  66  99 133 177 231 288 350 424
#     4  10  24  42  66  92 135 180 223 289 346 411
#     4  11  23  40  69 100 134 175 232 283 351 423
#     4  12  27  41  67  99 136 185 227 284 356 418
#
# _framework density 21.185075000000001
#
# number of rings (size 3 to 8) (size 9 to 14) (size 15 to 20)
#    0.000    1.667    0.000    3.000    7.000    7.333 
#    0.000    5.000    0.000    0.000    0.000    0.000 
#    0.000    0.000    0.000    0.000    0.000    0.000 
#
# Total GULP energy -200744.591439 kJ/mol
# GULP energy per Si atom -5576.238651 kJ/mol
# Density = 2.113686 g / cm^3
# Si number density = 21.185075 Si / 1000 Ang^3
#
#
#
# Elastic Constant Matrix: (Units=GPa)
#
#
# Indices 1 2 3 4 5 6 
#
# 1 69.2130 35.0597 35.4994 0.0000 0.0000 0.0000
# 2 35.0597 69.2130 35.4994 0.0000 0.0000 0.0000
# 3 35.4994 35.4994 118.4520 0.0000 0.0000 0.0000
# 4 0.0000 0.0000 0.0000 22.6039 0.0000 0.0000
# 5 0.0000 0.0000 0.0000 0.0000 22.6039 0.0000
# 6 0.0000 0.0000 0.0000 0.0000 0.0000 17.0766
#
#
#
# Elastic Compliance Matrix: (Units=1/GPa)
#
#
# Indices 1 2 3 4 5 6 
#
# 1 0.020664 -0.008615 -0.003611 0.000000 0.000000 0.000000
# 2 -0.008615 0.020664 -0.003611 0.000000 0.000000 0.000000
# 3 -0.003611 -0.003611 0.010607 0.000000 0.000000 0.000000
# 4 0.000000 0.000000 0.000000 0.044240 0.000000 0.000000
# 5 0.000000 0.000000 0.000000 0.000000 0.044240 0.000000
# 6 0.000000 0.000000 0.000000 0.000000 0.000000 0.058560
#
#
# Mechanical properties :
#
#
# Convention : Reuss Voigt Hill
#
# Bulk Modulus (GPa) = 49.35706 52.11056 50.73381
# Shear Modulus (GPa) = 21.06117 22.51150 21.78634
#
# Velocity S-wave (km/s) = 3.15644 3.26331 3.21032
# Velocity P-wave (km/s) = 6.05250 6.23298 6.14340
#
# Compressibility (1/GPa) = 0.02026053
#
# Stress axis : x y z
#
# Youngs Moduli (GPa) = 48.39246 48.39246 94.28052
#
# Poissons Ratio (x) = 0.41692 0.34045
# Poissons Ratio (y) = 0.41692 0.34045
# Poissons Ratio (z) = 0.17475 0.17475
#
# Static dielectric constant tensor:
#      x y z
#    x 1.826460 0.000000 0.000000 
#    y 0.000000 1.826460 0.000000 
#    z 0.000000 0.000000 1.731150 
# 
# From -- ./inp_files/4797.got.cif
#   From: 2010.05.17/outbox.cif.g08.bks.cpg/sg171_3_cif.got.tgz:4797.got - 2010.05.20 11:16:09.
