data_PCOD9580545
_publ_section_title
;
Structure prediction by ZEFSAII (Michael W. Deem and Ramdas Pophale) SiO2 
 PCOD9580545
Probable space group: P 62
;
_chemical_formula_sum "Si O2"
_cell_formula_units_Z 45
_cell_length_a 11.245857
_cell_length_b 11.245857
_cell_length_c 17.577702
_cell_angle_alpha 90.000000
_cell_angle_beta 90.000000
_cell_angle_gamma 120.000000
_cell_volume 1925.208821
_symmetry_space_group_name_H-M "P 62"
_symmetry_group_IT_number 171
_symmetry_cell_setting 'hexagonal'
loop_
_space_group_symop_operation_xyz
x,y,z
x-y,x,1/3+z
-y,x-y,2/3+z
-x,-y,z
-x+y,-x,1/3+z
y,-x+y,2/3+z
loop_
_atom_site_type_symbol
_atom_site_label
_atom_site_fract_x
_atom_site_fract_y
_atom_site_fract_z
Si Si1 0.882977 0.345283 0.996300
Si Si2 0.314221 0.358145 0.908602
Si Si3 0.952512 0.736373 0.663969
Si Si4 0.500000 0.500000 0.398608
Si Si5 0.156909 0.078693 0.849690
Si Si6 0.043810 0.281208 0.402095
Si Si7 0.730554 0.480559 0.499221
Si Si8 0.809229 0.420342 0.158569
O O1 0.792295 0.289677 0.920357
O O2 0.000000 0.500000 0.974638
O O3 0.894027 0.207923 0.014350
O O4 0.831769 0.378784 0.074896
O O5 0.181797 0.221107 0.883329
O O6 0.434036 0.358606 0.856965
O O7 0.316289 0.495530 0.885322
O O8 0.335792 0.335260 0.995736
O O9 0.968037 0.602339 0.682168
O O10 0.996639 0.806691 0.581049
O O11 0.077087 0.856654 0.712301
O O12 0.600621 0.469121 0.451158
O O13 0.246706 0.085860 0.777768
O O14 0.000000 0.000000 0.828786
O O15 0.135503 0.401529 0.459699
O O16 0.736138 0.341620 0.494265
#
# Coordination Sequence:
#
# PCOD9580545 Si02
#       8
#     6   6   6   3   6   6   6   6
#     4  12  23  39  68 104 137 181 229 291 353 425
#     4  10  25  48  65 102 144 183 232 294 361 426
#     4  10  23  43  66  99 138 179 231 294 350 418
#     4  10  20  40  68  94 140 182 224 300 344 420
#     4  11  25  45  73 101 135 185 239 290 354 425
#     4  10  24  46  69 100 138 186 244 287 362 430
#     4  11  23  39  69 102 133 188 239 286 355 421
#     4  11  25  45  67 101 149 182 231 296 362 429
#
# _framework density 23.374086999999999
#
# number of rings (size 3 to 8) (size 9 to 14) (size 15 to 20)
#    0.000    1.333    4.667    0.000    3.733    5.333 
#    2.400    0.000    0.000    0.000    0.000    0.000 
#    0.000    0.000    0.000    0.000    0.000    0.000 
#
# Total GULP energy -251100.303228 kJ/mol
# GULP energy per Si atom -5580.006738 kJ/mol
# Density = 2.332089 g / cm^3
# Si number density = 23.374087 Si / 1000 Ang^3
#
#
#
# Elastic Constant Matrix: (Units=GPa)
#
#
# Indices 1 2 3 4 5 6 
#
# 1 40.5413 10.8829 25.3041 0.0000 0.0000 0.0000
# 2 10.8829 40.5413 25.3041 0.0000 0.0000 0.0000
# 3 25.3041 25.3041 145.1497 0.0000 0.0000 0.0000
# 4 0.0000 0.0000 0.0000 13.0339 0.0000 0.0000
# 5 0.0000 0.0000 0.0000 0.0000 13.0339 0.0000
# 6 0.0000 0.0000 0.0000 0.0000 0.0000 14.8292
#
#
#
# Elastic Compliance Matrix: (Units=1/GPa)
#
#
# Indices 1 2 3 4 5 6 
#
# 1 0.028595 -0.005122 -0.004092 0.000000 0.000000 0.000000
# 2 -0.005122 0.028595 -0.004092 0.000000 0.000000 0.000000
# 3 -0.004092 -0.004092 0.008316 0.000000 0.000000 0.000000
# 4 0.000000 0.000000 0.000000 0.076723 0.000000 0.000000
# 5 0.000000 0.000000 0.000000 0.000000 0.076723 0.000000
# 6 0.000000 0.000000 0.000000 0.000000 0.000000 0.067435
#
#
# Mechanical properties :
#
#
# Convention : Reuss Voigt Hill
#
# Bulk Modulus (GPa) = 25.71069 38.80161 32.25615
# Shear Modulus (GPa) = 15.33911 19.16215 17.25063
#
# Velocity S-wave (km/s) = 2.56451 2.86633 2.71961
# Velocity P-wave (km/s) = 4.44887 5.25269 4.86740
#
# Compressibility (1/GPa) = 0.03889433
#
# Stress axis : x y z
#
# Youngs Moduli (GPa) = 34.97078 34.97078 120.24702
#
# Poissons Ratio (x) = 0.17912 0.49207
# Poissons Ratio (y) = 0.17912 0.49207
# Poissons Ratio (z) = 0.14311 0.14311
#
# Static dielectric constant tensor:
#      x y z
#    x 1.902180 0.000000 0.000000 
#    y 0.000000 1.902180 0.000000 
#    z 0.000000 0.000000 1.889180 
# 
# From -- ./inp_files/5049.got.cif
#   From: 2010.05.17/outbox.cif.g08.bks.cpg/sg171_3_cif.got.tgz:5049.got - 2010.05.20 11:16:09.
