data_PCOD9580346
_publ_section_title
;
Structure prediction by ZEFSAII (Michael W. Deem and Ramdas Pophale) SiO2 
 PCOD9580346
Probable space group: P 65
;
_chemical_formula_sum "Si O2"
_cell_formula_units_Z 42
_cell_length_a 15.342386
_cell_length_b 15.342386
_cell_length_c 11.819666
_cell_angle_alpha 90.000000
_cell_angle_beta 90.000000
_cell_angle_gamma 120.000000
_cell_volume 2409.470681
_symmetry_space_group_name_H-M "P 65"
_symmetry_group_IT_number 170
_symmetry_cell_setting 'hexagonal'
loop_
_space_group_symop_operation_xyz
x,y,z
x-y,x,5/6+z
-y,x-y,2/3+z
-x,-y,1/2+z
-x+y,-x,1/3+z
y,-x+y,1/6+z
loop_
_atom_site_type_symbol
_atom_site_label
_atom_site_fract_x
_atom_site_fract_y
_atom_site_fract_z
Si Si1 0.515130 0.792919 0.485920
Si Si2 0.600020 0.832909 0.994650
Si Si3 0.485953 0.203386 0.742868
Si Si4 0.104226 0.480171 0.956827
Si Si5 0.938262 0.611690 0.700116
Si Si6 0.400446 0.729042 0.840121
Si Si7 0.487745 0.907010 0.665626
O O1 0.565650 0.814683 0.363769
O O2 0.545635 0.722593 0.553340
O O3 0.390847 0.733001 0.479383
O O4 0.540255 0.891878 0.556028
O O5 0.654942 0.779371 0.933013
O O6 0.494753 0.773941 0.925012
O O7 0.650575 0.952974 0.990700
O O8 0.575913 0.814478 0.128402
O O9 0.545724 0.141892 0.757092
O O10 0.571210 0.319224 0.735862
O O11 0.989200 0.422325 0.916851
O O12 0.112562 0.454255 0.086949
O O13 0.940111 0.531153 0.788088
O O14 0.433573 0.798529 0.728103
#
# Coordination Sequence:
#
# PCOD9580346 Si02
#       7
#     6   6   6   6   6   6   6
#     4  11  22  36  53  80 117 161 203 240 293 345
#     4  12  23  38  57  83 114 154 193 251 288 349
#     4  11  20  32  50  79 115 154 198 232 279 335
#     4  11  23  36  54  81 112 160 203 249 283 343
#     4  12  24  39  58  83 115 151 201 244 298 347
#     4  11  19  34  54  76 115 158 201 239 280 331
#     4  12  21  35  56  80 112 156 209 241 285 344
#
# _framework density 17.431215000000002
#
# number of rings (size 3 to 8) (size 9 to 14) (size 15 to 20)
#    0.000    0.571    7.143    4.286    0.000    0.000 
#    2.571    0.000    0.000    0.000    0.000    0.000 
#    4.286    0.000    0.000    0.000    0.000    0.000 
#
# Total GULP energy -234173.781542 kJ/mol
# GULP energy per Si atom -5575.566227 kJ/mol
# Density = 1.739154 g / cm^3
# Si number density = 17.431215 Si / 1000 Ang^3
#
#
#
# Elastic Constant Matrix: (Units=GPa)
#
#
# Indices 1 2 3 4 5 6 
#
# 1 53.6590 17.7946 26.7442 0.0000 0.0000 0.0000
# 2 17.7946 53.6590 26.7442 0.0000 0.0000 0.0000
# 3 26.7442 26.7442 133.8813 0.0000 0.0000 0.0000
# 4 0.0000 0.0000 0.0000 24.2130 0.0000 0.0000
# 5 0.0000 0.0000 0.0000 0.0000 24.2130 0.0000
# 6 0.0000 0.0000 0.0000 0.0000 0.0000 17.9322
#
#
#
# Elastic Compliance Matrix: (Units=1/GPa)
#
#
# Indices 1 2 3 4 5 6 
#
# 1 0.022169 -0.005714 -0.003287 0.000000 0.000000 0.000000
# 2 -0.005714 0.022169 -0.003287 0.000000 0.000000 0.000000
# 3 -0.003287 -0.003287 0.008783 0.000000 0.000000 0.000000
# 4 0.000000 0.000000 0.000000 0.041300 0.000000 0.000000
# 5 0.000000 0.000000 0.000000 0.000000 0.041300 0.000000
# 6 0.000000 0.000000 0.000000 0.000000 0.000000 0.055766
#
#
# Mechanical properties :
#
#
# Convention : Reuss Voigt Hill
#
# Bulk Modulus (GPa) = 35.03193 42.64057 38.83625
# Shear Modulus (GPa) = 22.16525 24.59938 23.38231
#
# Velocity S-wave (km/s) = 3.56980 3.76070 3.66649
# Velocity P-wave (km/s) = 6.09361 6.58578 6.34447
#
# Compressibility (1/GPa) = 0.02854539
#
# Stress axis : x y z
#
# Youngs Moduli (GPa) = 45.10737 45.10737 113.86136
#
# Poissons Ratio (x) = 0.25772 0.37429
# Poissons Ratio (y) = 0.25772 0.37429
# Poissons Ratio (z) = 0.14828 0.14828
#
# Static dielectric constant tensor:
#      x y z
#    x 1.614370 0.000000 0.000000 
#    y 0.000000 1.614370 0.000000 
#    z 0.000000 0.000000 1.664360 
# 
# From -- ./inp_files/1037.got.cif
#   From: 2010.05.17/outbox.cif.g08.bks.cpg/sg170_cif.got.tgz:1037.got - 2010.05.20 11:14:30.
