data_PCOD9580527
_publ_section_title
;
Structure prediction by ZEFSAII (Michael W. Deem and Ramdas Pophale) SiO2 
 PCOD9580527
Probable space group: P 62
;
_chemical_formula_sum "Si O2"
_cell_formula_units_Z 39
_cell_length_a 8.648466
_cell_length_b 8.648466
_cell_length_c 29.097575
_cell_angle_alpha 90.000000
_cell_angle_beta 90.000000
_cell_angle_gamma 120.000000
_cell_volume 1884.801387
_symmetry_space_group_name_H-M "P 62"
_symmetry_group_IT_number 171
_symmetry_cell_setting 'hexagonal'
loop_
_space_group_symop_operation_xyz
x,y,z
x-y,x,1/3+z
-y,x-y,2/3+z
-x,-y,z
-x+y,-x,1/3+z
y,-x+y,2/3+z
loop_
_atom_site_type_symbol
_atom_site_label
_atom_site_fract_x
_atom_site_fract_y
_atom_site_fract_z
Si Si1 0.174565 0.179698 0.151370
Si Si2 0.220233 0.930892 0.570027
Si Si3 0.274277 0.705272 0.219373
Si Si4 0.465093 0.808060 0.121672
Si Si5 0.904925 0.789422 0.997705
Si Si6 0.000000 0.500000 0.959376
Si Si7 0.460282 0.160560 0.748782
O O1 0.165520 0.207416 0.205983
O O2 0.343106 0.172641 0.131922
O O3 0.183608 0.348842 0.125683
O O4 0.000000 0.000000 0.138388
O O5 0.309876 0.807667 0.569294
O O6 0.366055 0.114244 0.545862
O O7 0.205413 0.999620 0.619997
O O8 0.371440 0.744435 0.171040
O O9 0.402784 0.830200 0.259241
O O10 0.336588 0.660716 0.084588
O O11 0.500000 0.000000 0.108696
O O12 0.004522 0.673911 0.984314
O O13 0.778527 0.661824 0.037899
O O14 0.000000 0.000000 0.012647
O O15 0.500000 0.000000 0.755794
#
# Coordination Sequence:
#
# PCOD9580527 Si02
#       7
#     6   6   6   6   6   3   6
#     4  11  22  39  65 101 129 173 222 283 340 412
#     4  10  22  38  69  96 131 178 226 275 361 407
#     4  10  20  38  64 102 134 167 215 297 345 409
#     4  11  22  41  66  99 139 173 223 293 353 410
#     4  11  25  47  69  98 137 193 232 287 354 440
#     4  10  24  42  66 104 136 166 230 296 342 420
#     4  10  24  45  66  91 139 181 232 283 350 425
#
# _framework density 20.691832999999999
#
# number of rings (size 3 to 8) (size 9 to 14) (size 15 to 20)
#    0.000    1.538    2.308    1.846    8.615    0.000 
#   11.077    0.000    0.000    0.000    0.000    0.000 
#    0.000    0.000    0.000    0.000    0.000    0.000 
#
# Total GULP energy -217327.203550 kJ/mol
# GULP energy per Si atom -5572.492399 kJ/mol
# Density = 2.064474 g / cm^3
# Si number density = 20.691833 Si / 1000 Ang^3
#
#
#
# Elastic Constant Matrix: (Units=GPa)
#
#
# Indices 1 2 3 4 5 6 
#
# 1 105.7085 62.0518 36.7068 0.0000 0.0000 0.0000
# 2 62.0518 105.7085 36.7068 0.0000 0.0000 0.0000
# 3 36.7068 36.7068 77.7185 0.0000 0.0000 0.0000
# 4 0.0000 0.0000 0.0000 46.9234 0.0000 0.0000
# 5 0.0000 0.0000 0.0000 0.0000 46.9234 0.0000
# 6 0.0000 0.0000 0.0000 0.0000 0.0000 21.8284
#
#
#
# Elastic Compliance Matrix: (Units=1/GPa)
#
#
# Indices 1 2 3 4 5 6 
#
# 1 0.015210 -0.007696 -0.003549 0.000000 0.000000 0.000000
# 2 -0.007696 0.015210 -0.003549 0.000000 0.000000 0.000000
# 3 -0.003549 -0.003549 0.016219 0.000000 0.000000 0.000000
# 4 0.000000 0.000000 0.000000 0.021311 0.000000 0.000000
# 5 0.000000 0.000000 0.000000 0.000000 0.021311 0.000000
# 6 0.000000 0.000000 0.000000 0.000000 0.000000 0.045812
#
#
# Mechanical properties :
#
#
# Convention : Reuss Voigt Hill
#
# Bulk Modulus (GPa) = 58.64543 62.22959 60.43751
# Shear Modulus (GPa) = 29.35217 33.37970 31.36593
#
# Velocity S-wave (km/s) = 3.77044 4.02080 3.89763
# Velocity P-wave (km/s) = 6.88177 7.18996 7.03755
#
# Compressibility (1/GPa) = 0.01705163
#
# Stress axis : x y z
#
# Youngs Moduli (GPa) = 65.74645 65.74645 61.65518
#
# Poissons Ratio (x) = 0.50599 0.21881
# Poissons Ratio (y) = 0.50599 0.21881
# Poissons Ratio (z) = 0.23332 0.23332
#
# Static dielectric constant tensor:
#      x y z
#    x 1.598010 0.000000 0.000000 
#    y 0.000000 1.598010 0.000000 
#    z 0.000000 0.000000 1.725460 
# 
# From -- ./inp_files/6042.got.cif
#   From: 2010.05.17/outbox.cif.g08.bks.cpg/sg171_4_cif.got.tgz:6042.got - 2010.05.20 11:16:09.
