data_PCOD9580355
_publ_section_title
;
Structure prediction by ZEFSAII (Michael W. Deem and Ramdas Pophale) SiO2 
 PCOD9580355
Probable space group: P 65
;
_chemical_formula_sum "Si O2"
_cell_formula_units_Z 48
_cell_length_a 14.217468
_cell_length_b 14.217468
_cell_length_c 12.363231
_cell_angle_alpha 90.000000
_cell_angle_beta 90.000000
_cell_angle_gamma 120.000000
_cell_volume 2164.248546
_symmetry_space_group_name_H-M "P 65"
_symmetry_group_IT_number 170
_symmetry_cell_setting 'hexagonal'
loop_
_space_group_symop_operation_xyz
x,y,z
x-y,x,5/6+z
-y,x-y,2/3+z
-x,-y,1/2+z
-x+y,-x,1/3+z
y,-x+y,1/6+z
loop_
_atom_site_type_symbol
_atom_site_label
_atom_site_fract_x
_atom_site_fract_y
_atom_site_fract_z
Si Si1 0.929579 0.109048 0.741690
Si Si2 0.846931 0.573735 0.729398
Si Si3 0.917403 0.628927 0.504858
Si Si4 0.136994 0.638253 0.450666
Si Si5 0.540366 0.748219 0.130692
Si Si6 0.191745 0.544709 0.831495
Si Si7 0.492896 0.873534 0.532746
Si Si8 0.354047 0.292661 0.823574
O O1 0.814676 0.101248 0.769291
O O2 0.002934 0.108801 0.838314
O O3 0.007343 0.228617 0.690494
O O4 0.893322 0.651401 0.626871
O O5 0.726333 0.490691 0.687748
O O6 0.830643 0.603492 0.849539
O O7 0.908531 0.505085 0.720399
O O8 0.848715 0.507997 0.451088
O O9 0.035935 0.643356 0.499468
O O10 0.150568 0.533881 0.459551
O O11 0.132960 0.661667 0.323118
O O12 0.460070 0.798569 0.142970
O O13 0.615876 0.768457 0.233415
O O14 0.308474 0.554296 0.817940
O O15 0.114043 0.446874 0.750451
O O16 0.591308 0.957596 0.459306
#
# Coordination Sequence:
#
# PCOD9580355 Si02
#       8
#     6   6   6   6   6   6   6   6
#     4  12  25  51  80 110 139 189 261 334 376 436
#     4  11  23  39  61  95 143 189 227 295 366 444
#     4  12  23  43  78 103 136 188 262 317 364 440
#     4  11  21  42  63 100 140 179 247 302 358 447
#     4  11  27  41  63 104 159 198 229 294 389 468
#     4  12  23  41  71 105 137 193 242 302 369 439
#     4  11  21  38  65  94 135 186 236 296 356 426
#     4  12  23  45  67 103 143 186 250 296 360 456
#
# _framework density 22.178598999999998
#
# number of rings (size 3 to 8) (size 9 to 14) (size 15 to 20)
#    0.000    0.500    6.250    2.250    3.500    0.000 
#    2.250    2.500    0.000    0.000    0.000    0.000 
#    0.000    0.000    0.000    0.000    0.000    0.000 
#
# Total GULP energy -267657.829406 kJ/mol
# GULP energy per Si atom -5576.204779 kJ/mol
# Density = 2.212812 g / cm^3
# Si number density = 22.178599 Si / 1000 Ang^3
#
#
#
# Elastic Constant Matrix: (Units=GPa)
#
#
# Indices 1 2 3 4 5 6 
#
# 1 68.3411 26.3840 24.7353 0.0000 0.0000 0.0000
# 2 26.3840 68.3411 24.7353 0.0000 0.0000 0.0000
# 3 24.7353 24.7353 90.3860 0.0000 0.0000 0.0000
# 4 0.0000 0.0000 0.0000 28.1951 0.0000 0.0000
# 5 0.0000 0.0000 0.0000 0.0000 28.1951 0.0000
# 6 0.0000 0.0000 0.0000 0.0000 0.0000 20.9786
#
#
#
# Elastic Compliance Matrix: (Units=1/GPa)
#
#
# Indices 1 2 3 4 5 6 
#
# 1 0.018076 -0.005758 -0.003371 0.000000 0.000000 0.000000
# 2 -0.005758 0.018076 -0.003371 0.000000 0.000000 0.000000
# 3 -0.003371 -0.003371 0.012909 0.000000 0.000000 0.000000
# 4 0.000000 0.000000 0.000000 0.035467 0.000000 0.000000
# 5 0.000000 0.000000 0.000000 0.000000 0.035467 0.000000
# 6 0.000000 0.000000 0.000000 0.000000 0.000000 0.047668
#
#
# Mechanical properties :
#
#
# Convention : Reuss Voigt Hill
#
# Bulk Modulus (GPa) = 41.56276 42.08636 41.82456
# Shear Modulus (GPa) = 24.91512 25.55467 25.23489
#
# Velocity S-wave (km/s) = 3.35533 3.39812 3.37679
# Velocity P-wave (km/s) = 5.81306 5.86631 5.83975
#
# Compressibility (1/GPa) = 0.02406000
#
# Stress axis : x y z
#
# Youngs Moduli (GPa) = 55.32332 55.32332 77.46793
#
# Poissons Ratio (x) = 0.31857 0.26113
# Poissons Ratio (y) = 0.31857 0.26113
# Poissons Ratio (z) = 0.18648 0.18648
#
# Static dielectric constant tensor:
#      x y z
#    x 1.846360 0.000000 0.000000 
#    y 0.000000 1.846360 0.000000 
#    z 0.000000 0.000000 1.921650 
# 
# From -- ./inp_files/1046.got.cif
#   From: 2010.05.17/outbox.cif.g08.bks.cpg/sg170_cif.got.tgz:1046.got - 2010.05.20 11:14:30.
