data_PCOD9580454
_publ_section_title
;
Structure prediction by ZEFSAII (Michael W. Deem and Ramdas Pophale) SiO2 
 PCOD9580454
Probable space group: P 62
;
_chemical_formula_sum "Si O2"
_cell_formula_units_Z 39
_cell_length_a 12.432052
_cell_length_b 12.432052
_cell_length_c 13.109109
_cell_angle_alpha 90.000000
_cell_angle_beta 90.000000
_cell_angle_gamma 120.000000
_cell_volume 1754.645724
_symmetry_space_group_name_H-M "P 62"
_symmetry_group_IT_number 171
_symmetry_cell_setting 'hexagonal'
loop_
_space_group_symop_operation_xyz
x,y,z
x-y,x,1/3+z
-y,x-y,2/3+z
-x,-y,z
-x+y,-x,1/3+z
y,-x+y,2/3+z
loop_
_atom_site_type_symbol
_atom_site_label
_atom_site_fract_x
_atom_site_fract_y
_atom_site_fract_z
Si Si1 0.335519 0.592910 0.424160
Si Si2 0.091208 0.216062 0.695004
Si Si3 0.500000 0.500000 0.126225
Si Si4 0.284445 0.817393 0.939882
Si Si5 0.536163 0.784632 0.737029
Si Si6 0.162690 0.343082 0.293385
Si Si7 0.886394 0.133156 0.269290
O O1 0.304881 0.555106 0.541133
O O2 0.467497 0.636781 0.374041
O O3 0.321323 0.715118 0.412454
O O4 0.236811 0.468071 0.361474
O O5 0.180887 0.343007 0.635749
O O6 0.133750 0.119817 0.657719
O O7 0.108747 0.231775 0.815912
O O8 0.957452 0.196697 0.662843
O O9 0.452804 0.380293 0.199070
O O10 0.612746 0.514530 0.059872
O O11 0.622776 0.781187 0.649287
O O12 0.608533 0.807812 0.844234
O O13 0.013878 0.259085 0.295988
#
# Coordination Sequence:
#
# PCOD9580454 Si02
#       7
#     6   6   3   6   6   6   6
#     4  11  23  42  72  99 131 181 237 289 336 409
#     4  12  27  43  70 101 142 182 224 288 353 416
#     4  10  18  42  72  94 128 182 236 280 326 412
#     4  11  22  40  66 100 136 178 230 286 344 412
#     4  11  23  43  67 102 132 178 235 281 339 411
#     4  12  24  45  72  97 135 179 235 281 340 417
#     4  12  27  44  67 103 140 181 223 288 352 414
#
# _framework density 22.226707000000001
#
# number of rings (size 3 to 8) (size 9 to 14) (size 15 to 20)
#    0.000    0.615    6.154    3.231    4.308    1.231 
#    0.000    0.769    0.000    0.000    0.000    0.000 
#    0.000    0.000    0.000    0.000    0.000    0.000 
#
# Total GULP energy -217717.529026 kJ/mol
# GULP energy per Si atom -5582.500744 kJ/mol
# Density = 2.217612 g / cm^3
# Si number density = 22.226707 Si / 1000 Ang^3
#
#
#
# Elastic Constant Matrix: (Units=GPa)
#
#
# Indices 1 2 3 4 5 6 
#
# 1 50.6399 11.2503 -3.6829 0.0000 0.0000 0.0000
# 2 11.2503 50.6399 -3.6829 0.0000 0.0000 0.0000
# 3 -3.6829 -3.6829 70.2049 0.0000 0.0000 0.0000
# 4 0.0000 0.0000 0.0000 15.7263 0.0000 0.0000
# 5 0.0000 0.0000 0.0000 0.0000 15.7263 0.0000
# 6 0.0000 0.0000 0.0000 0.0000 0.0000 19.6948
#
#
#
# Elastic Compliance Matrix: (Units=1/GPa)
#
#
# Indices 1 2 3 4 5 6 
#
# 1 0.020823 -0.004564 0.000853 0.000000 0.000000 0.000000
# 2 -0.004564 0.020823 0.000853 0.000000 0.000000 0.000000
# 3 0.000853 0.000853 0.014334 0.000000 0.000000 0.000000
# 4 0.000000 0.000000 0.000000 0.063588 0.000000 0.000000
# 5 0.000000 0.000000 0.000000 0.000000 0.063588 0.000000
# 6 0.000000 0.000000 0.000000 0.000000 0.000000 0.050775
#
#
# Mechanical properties :
#
#
# Convention : Reuss Voigt Hill
#
# Bulk Modulus (GPa) = 19.89510 19.91707 19.90609
# Shear Modulus (GPa) = 19.50065 21.40281 20.45173
#
# Velocity S-wave (km/s) = 2.96523 3.10648 3.03668
# Velocity P-wave (km/s) = 4.54905 4.67411 4.61200
#
# Compressibility (1/GPa) = 0.05026362
#
# Stress axis : x y z
#
# Youngs Moduli (GPa) = 48.02314 48.02314 69.76663
#
# Poissons Ratio (x) = 0.21918 -0.05951
# Poissons Ratio (y) = 0.21918 -0.05951
# Poissons Ratio (z) = -0.04096 -0.04096
#
# Static dielectric constant tensor:
#      x y z
#    x 1.866780 0.000000 0.000000 
#    y 0.000000 1.866780 0.000000 
#    z 0.000000 0.000000 1.788620 
# 
# From -- ./inp_files/2012.got.cif
#   From: 2010.05.17/outbox.cif.g08.bks.cpg/sg171_2_cif.got.tgz:2012.got - 2010.05.20 11:16:09.
