data_PCOD9580975
_publ_section_title
;
Structure prediction by ZEFSAII (Michael W. Deem and Ramdas Pophale) SiO2 
 PCOD9580975
Probable space group: P 64
;
_chemical_formula_sum "Si O2"
_cell_formula_units_Z 18
_cell_length_a 7.885477
_cell_length_b 7.885477
_cell_length_c 13.212448
_cell_angle_alpha 90.000000
_cell_angle_beta 90.000000
_cell_angle_gamma 120.000000
_cell_volume 711.491738
_symmetry_space_group_name_H-M "P 64"
_symmetry_group_IT_number 172
_symmetry_cell_setting 'hexagonal'
loop_
_space_group_symop_operation_xyz
x,y,z
x-y,x,2/3+z
-y,x-y,1/3+z
-x,-y,z
-x+y,-x,2/3+z
y,-x+y,1/3+z
loop_
_atom_site_type_symbol
_atom_site_label
_atom_site_fract_x
_atom_site_fract_y
_atom_site_fract_z
Si Si1 0.500000 0.500000 0.648010
Si Si2 0.500000 0.000000 0.632778
Si Si3 0.171222 0.828779 0.473727
Si Si4 0.000000 0.749873 0.140394
O O1 0.324245 0.471713 0.721133
O O2 0.397817 0.324489 0.567056
O O3 0.675756 0.147468 0.559656
O O4 0.602182 0.926671 0.713732
O O5 0.951817 0.765988 0.510762
O O6 0.234013 0.048183 0.436692
#
# Coordination Sequence:
#
# PCOD9580975 Si02
#       4
#     3   3   6   6
#     4  11  24  42  73 110 148 196 251 301 370 446
#     4  11  24  42  73 110 148 196 251 301 370 446
#     4  11  24  44  74 109 148 194 250 309 366 435
#     4  10  24  48  72 102 152 204 244 304 374 438
#
# _framework density 25.298957999999999
#
# number of rings (size 3 to 8) (size 9 to 14) (size 15 to 20)
#    0.000    1.333    0.000    4.000    0.000   16.000 
#    0.000    3.333    0.000    0.000    0.000    0.000 
#    0.000    0.000    0.000    0.000    0.000    0.000 
#
# Total GULP energy -100637.251151 kJ/mol
# GULP energy per Si atom -5590.958397 kJ/mol
# Density = 2.524138 g / cm^3
# Si number density = 25.298958 Si / 1000 Ang^3
#
#
#
# Elastic Constant Matrix: (Units=GPa)
#
#
# Indices 1 2 3 4 5 6 
#
# 1 147.7910 83.0707 99.7149 0.0000 0.0000 0.0000
# 2 83.0707 147.7910 99.7149 0.0000 0.0000 0.0000
# 3 99.7149 99.7149 216.5710 0.0000 0.0000 0.0000
# 4 0.0000 0.0000 0.0000 33.9069 0.0000 0.0000
# 5 0.0000 0.0000 0.0000 0.0000 33.9069 0.0000
# 6 0.0000 0.0000 0.0000 0.0000 0.0000 32.3601
#
#
#
# Elastic Compliance Matrix: (Units=1/GPa)
#
#
# Indices 1 2 3 4 5 6 
#
# 1 0.011322 -0.004129 -0.003311 0.000000 0.000000 0.000000
# 2 -0.004129 0.011322 -0.003311 0.000000 0.000000 0.000000
# 3 -0.003311 -0.003311 0.007667 0.000000 0.000000 0.000000
# 4 0.000000 0.000000 0.000000 0.029493 0.000000 0.000000
# 5 0.000000 0.000000 0.000000 0.000000 0.029493 0.000000
# 6 0.000000 0.000000 0.000000 0.000000 0.000000 0.030902
#
#
# Mechanical properties :
#
#
# Convention : Reuss Voigt Hill
#
# Bulk Modulus (GPa) = 113.56778 119.68378 116.62578
# Shear Modulus (GPa) = 34.56921 35.34494 34.95708
#
# Velocity S-wave (km/s) = 3.70053 3.74182 3.72124
# Velocity P-wave (km/s) = 7.95276 8.12889 8.04130
#
# Compressibility (1/GPa) = 0.00880531
#
# Stress axis : x y z
#
# Youngs Moduli (GPa) = 88.32619 88.32619 130.43228
#
# Poissons Ratio (x) = 0.36474 0.43192
# Poissons Ratio (y) = 0.36474 0.43192
# Poissons Ratio (z) = 0.29249 0.29249
#
# Static dielectric constant tensor:
#      x y z
#    x 2.108560 0.000000 0.000000 
#    y 0.000000 2.108560 0.000000 
#    z 0.000000 0.000000 1.886940 
# 
# From -- ./inp_files/892.got.cif
#   From: 2010.05.17/outbox.cif.g08.bks.cpg/sg172_1_cif.got.tgz:892.got - 2010.05.20 11:19:57.
