data_PCOD9580948
_publ_section_title
;
Structure prediction by ZEFSAII (Michael W. Deem and Ramdas Pophale) SiO2 
 PCOD9580948
Probable space group: P 64
;
_chemical_formula_sum "Si O2"
_cell_formula_units_Z 39
_cell_length_a 8.541344
_cell_length_b 8.541344
_cell_length_c 30.648282
_cell_angle_alpha 90.000000
_cell_angle_beta 90.000000
_cell_angle_gamma 120.000000
_cell_volume 1936.373780
_symmetry_space_group_name_H-M "P 64"
_symmetry_group_IT_number 172
_symmetry_cell_setting 'hexagonal'
loop_
_space_group_symop_operation_xyz
x,y,z
x-y,x,2/3+z
-y,x-y,1/3+z
-x,-y,z
-x+y,-x,2/3+z
y,-x+y,1/3+z
loop_
_atom_site_type_symbol
_atom_site_label
_atom_site_fract_x
_atom_site_fract_y
_atom_site_fract_z
Si Si1 0.621558 0.315899 0.599000
Si Si2 0.717025 0.583746 0.677099
Si Si3 0.000000 0.000000 0.666750
Si Si4 0.343852 0.797185 0.834461
Si Si5 0.495969 0.810478 0.103947
Si Si6 0.245813 0.969297 0.599255
Si Si7 0.972980 0.805351 0.833423
O O1 0.723885 0.486248 0.631777
O O2 0.643881 0.366245 0.547892
O O3 0.682641 0.169070 0.606254
O O4 0.401926 0.182620 0.603255
O O5 0.500000 0.500000 0.678071
O O6 0.839129 0.803049 0.684619
O O7 0.756082 0.507147 0.721423
O O8 0.104697 0.932369 0.636339
O O9 0.354089 0.683965 0.794924
O O10 0.153303 0.790887 0.831377
O O11 0.500000 0.000000 0.831940
O O12 0.657980 0.830584 0.134511
O O13 0.500000 0.000000 0.102599
O O14 0.156656 0.926220 0.551412
O O15 0.000000 0.000000 0.822034
#
# Coordination Sequence:
#
# PCOD9580948 Si02
#       7
#     6   6   3   6   6   6   6
#     4  10  21  43  67  96 137 174 213 285 337 399
#     4  11  25  46  67  96 139 179 224 292 342 417
#     4  12  24  42  68 102 126 178 234 276 352 414
#     4  11  23  42  70  99 130 180 225 274 343 406
#     4  11  25  45  65  94 135 181 225 280 344 408
#     4  10  21  39  69 100 128 170 224 276 340 404
#     4  11  22  41  68  98 132 170 223 281 328 404
#
# _framework density 20.140739
#
# number of rings (size 3 to 8) (size 9 to 14) (size 15 to 20)
#    0.000    1.231    3.846    1.846    3.231    1.846 
#    8.308    0.000    0.000    0.000    0.000    0.000 
#    0.000    0.000    0.000    0.000    0.000    0.000 
#
# Total GULP energy -217309.248987 kJ/mol
# GULP energy per Si atom -5572.032025 kJ/mol
# Density = 2.009490 g / cm^3
# Si number density = 20.140739 Si / 1000 Ang^3
#
#
#
# Elastic Constant Matrix: (Units=GPa)
#
#
# Indices 1 2 3 4 5 6 
#
# 1 73.3382 11.3229 29.8317 0.0000 0.0000 0.0000
# 2 11.3229 73.3382 29.8317 0.0000 0.0000 0.0000
# 3 29.8317 29.8317 109.5810 0.0000 0.0000 0.0000
# 4 0.0000 0.0000 0.0000 15.6116 0.0000 0.0000
# 5 0.0000 0.0000 0.0000 0.0000 15.6116 0.0000
# 6 0.0000 0.0000 0.0000 0.0000 0.0000 31.0076
#
#
#
# Elastic Compliance Matrix: (Units=1/GPa)
#
#
# Indices 1 2 3 4 5 6 
#
# 1 0.015370 -0.000755 -0.003979 0.000000 0.000000 0.000000
# 2 -0.000755 0.015370 -0.003979 0.000000 0.000000 0.000000
# 3 -0.003979 -0.003979 0.011292 0.000000 0.000000 0.000000
# 4 0.000000 0.000000 0.000000 0.064055 0.000000 0.000000
# 5 0.000000 0.000000 0.000000 0.000000 0.064055 0.000000
# 6 0.000000 0.000000 0.000000 0.000000 0.000000 0.032250
#
#
# Mechanical properties :
#
#
# Convention : Reuss Voigt Hill
#
# Bulk Modulus (GPa) = 40.63707 44.24779 42.44243
# Shear Modulus (GPa) = 21.92782 24.79757 23.36269
#
# Velocity S-wave (km/s) = 3.30317 3.51267 3.40953
# Velocity P-wave (km/s) = 5.89646 6.20232 6.05133
#
# Compressibility (1/GPa) = 0.02460807
#
# Stress axis : x y z
#
# Youngs Moduli (GPa) = 65.05982 65.05982 88.55768
#
# Poissons Ratio (x) = 0.04909 0.35237
# Poissons Ratio (y) = 0.04909 0.35237
# Poissons Ratio (z) = 0.25887 0.25887
#
# Static dielectric constant tensor:
#      x y z
#    x 1.727640 0.000000 0.000000 
#    y 0.000000 1.727640 0.000000 
#    z 0.000000 0.000000 1.730190 
# 
# From -- ./inp_files/2854.got.cif
#   From: 2010.05.17/outbox.cif.g08.bks.cpg/sg172_2_cif.got.tgz:2854.got - 2010.05.20 11:19:57.
