data_PCOD9580477
_publ_section_title
;
Structure prediction by ZEFSAII (Michael W. Deem and Ramdas Pophale) SiO2 
 PCOD9580477
Probable space group: P 62
;
_chemical_formula_sum "Si O2"
_cell_formula_units_Z 39
_cell_length_a 8.107823
_cell_length_b 8.107823
_cell_length_c 34.244341
_cell_angle_alpha 90.000000
_cell_angle_beta 90.000000
_cell_angle_gamma 120.000000
_cell_volume 1949.521203
_symmetry_space_group_name_H-M "P 62"
_symmetry_group_IT_number 171
_symmetry_cell_setting 'hexagonal'
loop_
_space_group_symop_operation_xyz
x,y,z
x-y,x,1/3+z
-y,x-y,2/3+z
-x,-y,z
-x+y,-x,1/3+z
y,-x+y,2/3+z
loop_
_atom_site_type_symbol
_atom_site_label
_atom_site_fract_x
_atom_site_fract_y
_atom_site_fract_z
Si Si1 0.785211 0.948999 0.375000
Si Si2 0.494365 0.198249 0.442393
Si Si3 0.823400 0.518674 0.557491
Si Si4 0.551944 0.217445 0.619378
Si Si5 0.844901 0.779890 0.623911
Si Si6 0.782778 0.341284 0.373831
Si Si7 0.500000 0.500000 0.502727
O O1 0.683667 0.852709 0.414608
O O2 0.703267 0.848450 0.333550
O O3 0.770277 0.137891 0.372358
O O4 0.000000 0.000000 0.376773
O O5 0.665307 0.328562 0.412314
O O6 0.484217 0.323083 0.477504
O O7 0.500000 0.000000 0.451345
O O8 0.686495 0.335825 0.583929
O O9 0.898097 0.684595 0.589524
O O10 0.688455 0.554422 0.528313
O O11 0.000000 0.500000 0.540818
O O12 0.364268 0.242027 0.618139
O O13 0.640591 0.275260 0.663188
O O14 0.500000 0.000000 0.615237
O O15 0.000000 0.000000 0.624490
O O16 0.000000 0.500000 0.378924
#
# Coordination Sequence:
#
# PCOD9580477 Si02
#       7
#     6   6   6   6   6   6   3
#     4   9  19  36  63  99 133 160 201 262 332 402
#     4  10  23  45  66  91 127 175 218 267 332 386
#     4  12  25  45  65  91 127 174 226 271 329 390
#     4  10  19  37  66 100 138 165 205 272 337 401
#     4  10  19  38  65 100 135 164 204 264 335 404
#     4   9  19  35  64 100 132 164 204 268 333 399
#     4  12  28  48  66  90 132 178 234 286 314 396
#
# _framework density 20.004909999999999
#
# number of rings (size 3 to 8) (size 9 to 14) (size 15 to 20)
#    0.000    1.846    1.538    1.846    2.154    4.923 
#    8.308    0.000    0.000    0.000    0.000    0.000 
#    0.000    0.000    0.000    0.000    0.000    0.000 
#
# Total GULP energy -217396.154340 kJ/mol
# GULP energy per Si atom -5574.260368 kJ/mol
# Density = 1.995938 g / cm^3
# Si number density = 20.004910 Si / 1000 Ang^3
#
#
#
# Elastic Constant Matrix: (Units=GPa)
#
#
# Indices 1 2 3 4 5 6 
#
# 1 83.7212 15.0518 40.1089 0.0000 0.0000 0.0000
# 2 15.0518 83.7212 40.1089 0.0000 0.0000 0.0000
# 3 40.1089 40.1089 104.2509 0.0000 0.0000 0.0000
# 4 0.0000 0.0000 0.0000 30.0783 0.0000 0.0000
# 5 0.0000 0.0000 0.0000 0.0000 30.0783 0.0000
# 6 0.0000 0.0000 0.0000 0.0000 0.0000 34.3347
#
#
#
# Elastic Compliance Matrix: (Units=1/GPa)
#
#
# Indices 1 2 3 4 5 6 
#
# 1 0.014644 0.000081 -0.005665 0.000000 0.000000 0.000000
# 2 0.000081 0.014644 -0.005665 0.000000 0.000000 0.000000
# 3 -0.005665 -0.005665 0.013952 0.000000 0.000000 0.000000
# 4 0.000000 0.000000 0.000000 0.033247 0.000000 0.000000
# 5 0.000000 0.000000 0.000000 0.000000 0.033247 0.000000
# 6 0.000000 0.000000 0.000000 0.000000 0.000000 0.029125
#
#
# Mechanical properties :
#
#
# Convention : Reuss Voigt Hill
#
# Bulk Modulus (GPa) = 48.21414 51.35916 49.78665
# Shear Modulus (GPa) = 29.71425 30.65987 30.18706
#
# Velocity S-wave (km/s) = 3.85820 3.91911 3.88878
# Velocity P-wave (km/s) = 6.63333 6.79767 6.71600
#
# Compressibility (1/GPa) = 0.02074080
#
# Stress axis : x y z
#
# Youngs Moduli (GPa) = 68.28790 68.28790 71.67683
#
# Poissons Ratio (x) = -0.00556 0.40607
# Poissons Ratio (y) = -0.00556 0.40607
# Poissons Ratio (z) = 0.38687 0.38687
#
# Static dielectric constant tensor:
#      x y z
#    x 1.750260 0.000000 0.000000 
#    y 0.000000 1.750260 0.000000 
#    z 0.000000 0.000000 1.716410 
# 
# From -- ./inp_files/6062.got.cif
#   From: 2010.05.17/outbox.cif.g08.bks.cpg/sg171_4_cif.got.tgz:6062.got - 2010.05.20 11:16:09.
