data_PCOD9580858
_publ_section_title
;
Structure prediction by ZEFSAII (Michael W. Deem and Ramdas Pophale) SiO2 
 PCOD9580858
Probable space group: P 62
;
_chemical_formula_sum "Si O2"
_cell_formula_units_Z 45
_cell_length_a 12.289635
_cell_length_b 12.289635
_cell_length_c 16.984334
_cell_angle_alpha 90.000000
_cell_angle_beta 90.000000
_cell_angle_gamma 120.000000
_cell_volume 2221.555271
_symmetry_space_group_name_H-M "P 62"
_symmetry_group_IT_number 171
_symmetry_cell_setting 'hexagonal'
loop_
_space_group_symop_operation_xyz
x,y,z
x-y,x,1/3+z
-y,x-y,2/3+z
-x,-y,z
-x+y,-x,1/3+z
y,-x+y,2/3+z
loop_
_atom_site_type_symbol
_atom_site_label
_atom_site_fract_x
_atom_site_fract_y
_atom_site_fract_z
Si Si1 0.732062 0.323813 0.500000
Si Si2 0.000000 0.000000 0.855029
Si Si3 0.173513 0.394218 0.445102
Si Si4 0.442794 0.087010 0.970992
Si Si5 0.112969 0.749134 0.380518
Si Si6 0.230295 0.038535 0.419974
Si Si7 0.742224 0.829995 0.260425
Si Si8 0.106101 0.646843 0.205171
O O1 0.775409 0.463171 0.470935
O O2 0.796658 0.335134 0.584546
O O3 0.795660 0.272717 0.438253
O O4 0.583206 0.232451 0.509191
O O5 0.073675 0.122712 0.800899
O O6 0.899307 0.009833 0.909529
O O7 0.262819 0.397071 0.376891
O O8 0.181047 0.320469 0.520986
O O9 0.031145 0.328597 0.411275
O O10 0.500000 0.000000 0.994117
O O11 0.318799 0.001127 0.920695
O O12 0.161665 0.896917 0.385932
O O13 0.120013 0.704821 0.292360
O O14 0.280281 0.130911 0.345478
O O15 0.343257 0.064197 0.478722
O O16 0.000000 0.500000 0.208445
#
# Coordination Sequence:
#
# PCOD9580858 Si02
#       8
#     6   3   6   6   6   6   6   6
#     4  12  23  47  71 106 142 196 245 306 364 448
#     4  12  24  48  76 112 142 198 248 304 370 450
#     4  12  26  44  76 105 141 196 250 304 373 441
#     4  12  25  46  72 104 146 190 251 315 370 447
#     4  12  24  47  74 107 142 194 253 304 365 449
#     4  12  27  46  73 108 152 190 244 312 379 441
#     4  12  26  45  73 107 146 190 245 308 373 440
#     4  12  27  46  73 108 152 195 246 306 378 448
#
# _framework density 20.256080000000001
#
# number of rings (size 3 to 8) (size 9 to 14) (size 15 to 20)
#    0.000    0.000    5.333    4.800    5.600    1.067 
#    0.000    0.000    0.000    0.000    0.000    0.000 
#    0.000    0.000    0.000    0.000    0.000    0.000 
#
# Total GULP energy -251874.013903 kJ/mol
# GULP energy per Si atom -5597.200309 kJ/mol
# Density = 2.020998 g / cm^3
# Si number density = 20.256080 Si / 1000 Ang^3
#
#
#
# Elastic Constant Matrix: (Units=GPa)
#
#
# Indices 1 2 3 4 5 6 
#
# 1 97.1501 44.8657 32.8681 0.0000 0.0000 0.0000
# 2 44.8657 97.1501 32.8681 0.0000 0.0000 0.0000
# 3 32.8681 32.8681 128.3360 0.0000 0.0000 0.0000
# 4 0.0000 0.0000 0.0000 45.4066 0.0000 0.0000
# 5 0.0000 0.0000 0.0000 0.0000 45.4066 0.0000
# 6 0.0000 0.0000 0.0000 0.0000 0.0000 26.1422
#
#
#
# Elastic Compliance Matrix: (Units=1/GPa)
#
#
# Indices 1 2 3 4 5 6 
#
# 1 0.013557 -0.005569 -0.002046 0.000000 0.000000 0.000000
# 2 -0.005569 0.013557 -0.002046 0.000000 0.000000 0.000000
# 3 -0.002046 -0.002046 0.008840 0.000000 0.000000 0.000000
# 4 0.000000 0.000000 0.000000 0.022023 0.000000 0.000000
# 5 0.000000 0.000000 0.000000 0.000000 0.022023 0.000000
# 6 0.000000 0.000000 0.000000 0.000000 0.000000 0.038252
#
#
# Mechanical properties :
#
#
# Convention : Reuss Voigt Hill
#
# Bulk Modulus (GPa) = 60.12049 60.42668 60.27359
# Shear Modulus (GPa) = 34.93590 37.52671 36.23130
#
# Velocity S-wave (km/s) = 4.15747 4.30887 4.23385
# Velocity P-wave (km/s) = 7.26572 7.39265 7.32946
#
# Compressibility (1/GPa) = 0.01663326
#
# Stress axis : x y z
#
# Youngs Moduli (GPa) = 73.76086 73.76086 113.12206
#
# Poissons Ratio (x) = 0.41076 0.23144
# Poissons Ratio (y) = 0.41076 0.23144
# Poissons Ratio (z) = 0.15091 0.15091
#
# Static dielectric constant tensor:
#      x y z
#    x 1.698110 0.000000 0.000000 
#    y 0.000000 1.698110 0.000000 
#    z 0.000000 0.000000 1.704840 
# 
# From -- ./inp_files/5079.got.cif
#   From: 2010.05.17/outbox.cif.g08.bks.cpg/sg171_3_cif.got.tgz:5079.got - 2010.05.20 11:16:09.
