data_PCOD9580334
_publ_section_title
;
Structure prediction by ZEFSAII (Michael W. Deem and Ramdas Pophale) SiO2 
 PCOD9580334
Probable space group: P 65
;
_chemical_formula_sum "Si O2"
_cell_formula_units_Z 48
_cell_length_a 11.710647
_cell_length_b 11.710647
_cell_length_c 17.204046
_cell_angle_alpha 90.000000
_cell_angle_beta 90.000000
_cell_angle_gamma 120.000000
_cell_volume 2043.257054
_symmetry_space_group_name_H-M "P 65"
_symmetry_group_IT_number 170
_symmetry_cell_setting 'hexagonal'
loop_
_space_group_symop_operation_xyz
x,y,z
x-y,x,5/6+z
-y,x-y,2/3+z
-x,-y,1/2+z
-x+y,-x,1/3+z
y,-x+y,1/6+z
loop_
_atom_site_type_symbol
_atom_site_label
_atom_site_fract_x
_atom_site_fract_y
_atom_site_fract_z
Si Si1 0.460612 0.266742 0.406440
Si Si2 0.385595 0.764427 0.783051
Si Si3 0.014964 0.774025 0.665509
Si Si4 0.264966 0.985773 0.971881
Si Si5 0.975790 0.993072 0.303756
Si Si6 0.001728 0.491243 0.353714
Si Si7 0.781132 0.522439 0.263865
Si Si8 0.150554 0.800035 0.828638
O O1 0.578787 0.254761 0.370211
O O2 0.358245 0.138096 0.454791
O O3 0.373643 0.268001 0.334115
O O4 0.505023 0.399601 0.453715
O O5 0.499674 0.902317 0.749302
O O6 0.331443 0.624563 0.739867
O O7 0.259244 0.782338 0.783066
O O8 0.058564 0.802156 0.758358
O O9 0.966187 0.867951 0.624510
O O10 0.232788 0.921388 0.885994
O O11 0.404974 0.116843 0.971201
O O12 0.253725 0.872390 0.028812
O O13 0.158002 0.030557 0.996409
O O14 0.914417 0.977010 0.218218
O O15 0.884688 0.510281 0.320767
O O16 0.935867 0.335905 0.376329
#
# Coordination Sequence:
#
# PCOD9580334 Si02
#       8
#     6   6   6   6   6   6   6   6
#     4  11  24  42  70 101 138 185 236 295 352 429
#     4  11  25  47  70 100 136 189 241 282 359 440
#     4  11  23  43  70 102 140 178 243 301 350 414
#     4  12  26  44  72 105 146 180 239 294 361 436
#     4  12  24  41  70 105 139 184 236 296 361 428
#     4  10  24  47  70  98 141 183 235 300 351 417
#     4  11  27  47  68 104 147 190 227 296 363 433
#     4  10  25  43  76 101 127 185 247 300 345 413
#
# _framework density 23.491903000000001
#
# number of rings (size 3 to 8) (size 9 to 14) (size 15 to 20)
#    0.000    1.000    3.750    1.500    5.250    2.000 
#    0.000    0.000    0.000    0.000    0.000    0.000 
#    0.000    0.000    0.000    0.000    0.000    0.000 
#
# Total GULP energy -267208.697066 kJ/mol
# GULP energy per Si atom -5566.847856 kJ/mol
# Density = 2.343843 g / cm^3
# Si number density = 23.491903 Si / 1000 Ang^3
#
#
#
# Elastic Constant Matrix: (Units=GPa)
#
#
# Indices 1 2 3 4 5 6 
#
# 1 10.5022 70.9102 15.3081 0.0000 0.0000 0.0000
# 2 70.9102 10.5022 15.3081 0.0000 0.0000 0.0000
# 3 15.3081 15.3081 53.9543 0.0000 0.0000 0.0000
# 4 0.0000 0.0000 0.0000 28.1767 0.0000 0.0000
# 5 0.0000 0.0000 0.0000 0.0000 28.1767 0.0000
# 6 0.0000 0.0000 0.0000 0.0000 0.0000 -30.2040
#
#
#
# Elastic Compliance Matrix: (Units=1/GPa)
#
#
# Indices 1 2 3 4 5 6 
#
# 1 -0.001402 0.015152 -0.003901 0.000000 0.000000 0.000000
# 2 0.015152 -0.001402 -0.003901 0.000000 0.000000 0.000000
# 3 -0.003901 -0.003901 0.020748 0.000000 0.000000 0.000000
# 4 0.000000 0.000000 0.000000 0.035490 0.000000 0.000000
# 5 0.000000 0.000000 0.000000 0.000000 0.035490 0.000000
# 6 0.000000 0.000000 0.000000 0.000000 0.000000 -0.033108
#
#
# Mechanical properties :
#
#
# Convention : Reuss Voigt Hill
#
# Bulk Modulus (GPa) = 30.63405 30.89017 30.76211
# Shear Modulus (GPa) = 96.15657 3.45869 49.80763
#
# Velocity S-wave (km/s) = 6.40474 1.21470 4.60956
# Velocity P-wave (km/s) = 8.23181 3.89168 6.43847
#
# Compressibility (1/GPa) = 0.03264341
#
# Stress axis : x y z
#
# Youngs Moduli (GPa) = -713.31274 -713.31270 48.19746
#
# Poissons Ratio (x) = 10.80824 0.18803
# Poissons Ratio (y) = 10.80824 0.18803
# Poissons Ratio (z) = -2.78283 -2.78283
#
# Static dielectric constant tensor:
#      x y z
#    x 2.016980 0.000000 0.000000 
#    y 0.000000 2.016980 0.000000 
#    z 0.000000 0.000000 1.929110 
# 
# From -- ./inp_files/1461.got.cif
#   From: 2010.05.17/outbox.cif.g08.bks.cpg/sg170_cif.got.tgz:1461.got - 2010.05.20 11:14:30.
