data_PCOD9580083
_publ_section_title
;
Structure prediction by ZEFSAII (Michael W. Deem and Ramdas Pophale) SiO2 
 PCOD9580083
Probable space group: P 61
;
_chemical_formula_sum "Si O2"
_cell_formula_units_Z 24
_cell_length_a 9.698433
_cell_length_b 9.698433
_cell_length_c 15.869514
_cell_angle_alpha 90.000000
_cell_angle_beta 90.000000
_cell_angle_gamma 120.000000
_cell_volume 1292.698957
_symmetry_space_group_name_H-M "P 61"
_symmetry_group_IT_number 169
_symmetry_cell_setting 'hexagonal'
loop_
_space_group_symop_operation_xyz
x,y,z
x-y,x,1/6+z
-y,x-y,1/3+z
-x,-y,1/2+z
-x+y,-x,2/3+z
y,-x+y,5/6+z
loop_
_atom_site_type_symbol
_atom_site_label
_atom_site_fract_x
_atom_site_fract_y
_atom_site_fract_z
Si Si1 0.350490 0.967854 0.982950
Si Si2 0.557843 0.287077 0.912326
Si Si3 0.442158 0.729234 0.909893
Si Si4 0.350489 0.382636 0.339268
O O1 0.393767 0.133352 0.939296
O O2 0.435095 0.887937 0.930872
O O3 0.165772 0.834228 0.994442
O O4 0.415582 1.000000 0.077776
O O5 0.626186 0.252371 0.827776
O O6 0.564906 0.452842 0.891347
O O7 0.671386 0.328615 0.994443
O O8 0.606234 0.739586 0.882922
#
# Coordination Sequence:
#
# PCOD9580083 Si02
#       4
#     6   6   6   6
#     4  11  22  40  62  97 126 166 212 266 320 373
#     4  11  21  38  64  96 121 164 215 264 306 380
#     4  11  21  38  64  96 121 164 215 264 306 380
#     4  11  22  40  62  97 126 166 212 266 320 373
#
# _framework density 18.565809000000002
#
# number of rings (size 3 to 8) (size 9 to 14) (size 15 to 20)
#    0.000    1.000   10.000    1.500    0.000    0.000 
#    0.000    0.000    0.000    6.000    0.000    0.000 
#    0.000    0.000    0.000    0.000    0.000    0.000 
#
# Total GULP energy -133649.636826 kJ/mol
# GULP energy per Si atom -5568.734868 kJ/mol
# Density = 1.852355 g / cm^3
# Si number density = 18.565809 Si / 1000 Ang^3
#
#
#
# Elastic Constant Matrix: (Units=GPa)
#
#
# Indices 1 2 3 4 5 6 
#
# 1 50.7769 26.2675 20.3019 0.0000 0.0000 0.0000
# 2 26.2675 50.7769 20.3019 0.0000 0.0000 0.0000
# 3 20.3019 20.3019 145.0414 0.0000 0.0000 0.0000
# 4 0.0000 0.0000 0.0000 33.6771 0.0000 0.0000
# 5 0.0000 0.0000 0.0000 0.0000 33.6771 0.0000
# 6 0.0000 0.0000 0.0000 0.0000 0.0000 12.2547
#
#
#
# Elastic Compliance Matrix: (Units=1/GPa)
#
#
# Indices 1 2 3 4 5 6 
#
# 1 0.027407 -0.013394 -0.001961 0.000000 0.000000 0.000000
# 2 -0.013394 0.027407 -0.001961 0.000000 0.000000 0.000000
# 3 -0.001961 -0.001961 0.007444 0.000000 0.000000 0.000000
# 4 0.000000 0.000000 0.000000 0.029694 0.000000 0.000000
# 5 0.000000 0.000000 0.000000 0.000000 0.029694 0.000000
# 6 0.000000 0.000000 0.000000 0.000000 0.000000 0.081601
#
#
# Mechanical properties :
#
#
# Convention : Reuss Voigt Hill
#
# Bulk Modulus (GPa) = 36.20000 42.25975 39.22987
# Shear Modulus (GPa) = 20.23573 27.90340 24.06957
#
# Velocity S-wave (km/s) = 3.30501 3.88099 3.60453
# Velocity P-wave (km/s) = 5.83992 6.54938 6.20480
#
# Compressibility (1/GPa) = 0.02762431
#
# Stress axis : x y z
#
# Youngs Moduli (GPa) = 36.48710 36.48710 134.34194
#
# Poissons Ratio (x) = 0.48870 0.26351
# Poissons Ratio (y) = 0.48870 0.26351
# Poissons Ratio (z) = 0.07157 0.07157
#
# Static dielectric constant tensor:
#      x y z
#    x 1.670860 0.000000 0.000000 
#    y 0.000000 1.670860 0.000000 
#    z 0.000000 0.000000 1.681390 
# 
# From -- ./inp_files/1295.got.cif
#   From: 2010.05.17/outbox.cif.g08.bks.cpg/sg169_cif.got.tgz:1295.got - 2010.05.20 11:12:54.
