data_PCOD9580470
_publ_section_title
;
Structure prediction by ZEFSAII (Michael W. Deem and Ramdas Pophale) SiO2 
 PCOD9580470
Probable space group: P 62
;
_chemical_formula_sum "Si O2"
_cell_formula_units_Z 39
_cell_length_a 19.517892
_cell_length_b 19.517892
_cell_length_c 5.391416
_cell_angle_alpha 90.000000
_cell_angle_beta 90.000000
_cell_angle_gamma 120.000000
_cell_volume 1778.686038
_symmetry_space_group_name_H-M "P 62"
_symmetry_group_IT_number 171
_symmetry_cell_setting 'hexagonal'
loop_
_space_group_symop_operation_xyz
x,y,z
x-y,x,1/3+z
-y,x-y,2/3+z
-x,-y,z
-x+y,-x,1/3+z
y,-x+y,2/3+z
loop_
_atom_site_type_symbol
_atom_site_label
_atom_site_fract_x
_atom_site_fract_y
_atom_site_fract_z
Si Si1 0.038694 0.642696 0.583680
Si Si2 0.316755 0.729016 0.477291
Si Si3 0.621907 0.474933 0.640064
Si Si4 0.969535 0.213821 0.766733
Si Si5 0.432119 0.191997 0.649516
Si Si6 0.500000 0.500000 0.975633
Si Si7 0.735510 0.872970 0.594739
O O1 0.096270 0.624289 0.747723
O O2 0.007891 0.695135 0.716642
O O3 0.099987 0.704438 0.386641
O O4 0.980112 0.558538 0.465262
O O5 0.368242 0.728549 0.706440
O O6 0.382838 0.788933 0.282078
O O7 0.253051 0.756676 0.507260
O O8 0.711669 0.516288 0.746478
O O9 0.558649 0.480387 0.822056
O O10 0.926118 0.164485 0.514328
O O11 0.046645 0.210550 0.849909
O O12 0.914788 0.184734 0.010034
O O13 0.354452 0.198594 0.636715
#
# Coordination Sequence:
#
# PCOD9580470 Si02
#       7
#     6   6   6   6   6   3   6
#     4  10  20  38  56  81 126 172 215 288 328 403
#     4  10  20  35  56  82 117 172 224 281 333 399
#     4  10  19  36  55  78 124 159 223 281 340 395
#     4  11  24  44  74 102 144 175 227 269 352 405
#     4   9  20  36  55  86 122 166 228 272 334 382
#     4  10  22  34  52  84 118 170 224 288 344 402
#     4  11  23  45  70 107 136 183 215 284 329 425
#
# _framework density 21.926297999999999
#
# number of rings (size 3 to 8) (size 9 to 14) (size 15 to 20)
#    0.000    1.846    1.538    2.308    0.000    2.462 
#    5.538    1.538    0.000    4.615    0.000    0.000 
#    0.000    0.000    0.000    0.000    0.000    0.000 
#
# Total GULP energy -217295.595264 kJ/mol
# GULP energy per Si atom -5571.681930 kJ/mol
# Density = 2.187639 g / cm^3
# Si number density = 21.926298 Si / 1000 Ang^3
#
#
#
# Elastic Constant Matrix: (Units=GPa)
#
#
# Indices 1 2 3 4 5 6 
#
# 1 73.6071 38.6365 35.3109 0.0000 0.0000 0.0000
# 2 38.6365 73.6071 35.3109 0.0000 0.0000 0.0000
# 3 35.3109 35.3109 103.3903 0.0000 0.0000 0.0000
# 4 0.0000 0.0000 0.0000 15.6998 0.0000 0.0000
# 5 0.0000 0.0000 0.0000 0.0000 15.6998 0.0000
# 6 0.0000 0.0000 0.0000 0.0000 0.0000 17.4853
#
#
#
# Elastic Compliance Matrix: (Units=1/GPa)
#
#
# Indices 1 2 3 4 5 6 
#
# 1 0.019972 -0.008624 -0.003876 0.000000 0.000000 0.000000
# 2 -0.008624 0.019972 -0.003876 0.000000 0.000000 0.000000
# 3 -0.003876 -0.003876 0.012319 0.000000 0.000000 0.000000
# 4 0.000000 0.000000 0.000000 0.063695 0.000000 0.000000
# 5 0.000000 0.000000 0.000000 0.000000 0.063695 0.000000
# 6 0.000000 0.000000 0.000000 0.000000 0.000000 0.057191
#
#
# Mechanical properties :
#
#
# Convention : Reuss Voigt Hill
#
# Bulk Modulus (GPa) = 51.24957 52.12455 51.68706
# Shear Modulus (GPa) = 18.10951 19.20004 18.65477
#
# Velocity S-wave (km/s) = 2.87701 2.96237 2.92000
# Velocity P-wave (km/s) = 5.87031 5.96029 5.91547
#
# Compressibility (1/GPa) = 0.01951236
#
# Stress axis : x y z
#
# Youngs Moduli (GPa) = 50.07121 50.07121 81.17328
#
# Poissons Ratio (x) = 0.43181 0.31459
# Poissons Ratio (y) = 0.43181 0.31459
# Poissons Ratio (z) = 0.19405 0.19405
#
# Static dielectric constant tensor:
#      x y z
#    x 1.852600 0.000000 0.000000 
#    y 0.000000 1.852600 0.000000 
#    z 0.000000 0.000000 1.895150 
# 
# From -- ./inp_files/458.got.cif
#   From: 2010.05.17/outbox.cif.g08.bks.cpg/sg171_1_cif.got.tgz:458.got - 2010.05.20 11:16:09.
