data_PCOD9580887
_publ_section_title
;
Structure prediction by ZEFSAII (Michael W. Deem and Ramdas Pophale) SiO2 
 PCOD9580887
Probable space group: P 62
;
_chemical_formula_sum "Si O2"
_cell_formula_units_Z 36
_cell_length_a 9.000000
_cell_length_b 9.000000
_cell_length_c 27.000000
_cell_angle_alpha 90.000000
_cell_angle_beta 90.000000
_cell_angle_gamma 120.000000
_cell_volume 1893.997558
_symmetry_space_group_name_H-M "P 62"
_symmetry_group_IT_number 171
_symmetry_cell_setting 'hexagonal'
loop_
_space_group_symop_operation_xyz
x,y,z
x-y,x,1/3+z
-y,x-y,2/3+z
-x,-y,z
-x+y,-x,1/3+z
y,-x+y,2/3+z
loop_
_atom_site_type_symbol
_atom_site_label
_atom_site_fract_x
_atom_site_fract_y
_atom_site_fract_z
Si Si1 0.829944 0.516256 0.302730
Si Si2 0.143509 0.963937 0.808833
Si Si3 0.839217 0.317695 0.872627
Si Si4 0.156611 0.177175 0.363540
Si Si5 0.524716 0.832803 0.862881
Si Si6 0.516857 0.831103 0.322299
O O1 0.842960 0.665477 0.336983
O O2 0.789042 0.563927 0.248357
O O3 0.670316 0.339284 0.323547
O O4 0.000000 0.500000 0.301370
O O5 0.139266 0.814237 0.840015
O O6 0.083954 0.896923 0.753396
O O7 0.334626 0.121793 0.820320
O O8 0.000000 0.000000 0.829912
O O9 0.668988 0.315629 0.853476
O O10 0.831141 0.270438 0.930592
O O11 0.000000 0.500000 0.866816
O O12 0.335676 0.178133 0.354280
O O13 0.000000 0.000000 0.342997
O O14 0.500000 0.000000 0.869984
O O15 0.500000 0.000000 0.332467
#
# Coordination Sequence:
#
# PCOD9580887 Si02
#       6
#     6   6   6   6   6   6
#     4  11  22  36  62  94 118 154 200 245 303 362
#     4  10  22  37  55  81 115 157 197 238 295 352
#     4   9  19  36  59  86 112 148 193 241 301 356
#     4  11  23  39  56  84 123 163 202 244 299 357
#     4   9  19  38  59  80 113 151 192 242 292 348
#     4  10  21  40  63  89 121 153 198 254 302 357
#
# _framework density 19.007415999999999
#
# number of rings (size 3 to 8) (size 9 to 14) (size 15 to 20)
#    0.000    2.000    0.000    4.500    0.000   10.000 
#    0.000    3.333    0.000    0.000    0.000    0.000 
#    0.000    0.000    0.000    0.000    0.000    0.000 
#
# Total GULP energy -200515.818323 kJ/mol
# GULP energy per Si atom -5569.883842 kJ/mol
# Density = 1.896415 g / cm^3
# Si number density = 19.007416 Si / 1000 Ang^3
#
#
#
# Elastic Constant Matrix: (Units=GPa)
#
#
# Indices 1 2 3 4 5 6 
#
# 1 112.5551 58.2656 63.0216 0.0000 0.0000 0.0000
# 2 58.2656 112.5551 63.0216 0.0000 0.0000 0.0000
# 3 63.0216 63.0216 53.1640 0.0000 0.0000 0.0000
# 4 0.0000 0.0000 0.0000 30.3819 0.0000 0.0000
# 5 0.0000 0.0000 0.0000 0.0000 30.3819 0.0000
# 6 0.0000 0.0000 0.0000 0.0000 0.0000 27.1448
#
#
#
# Elastic Compliance Matrix: (Units=1/GPa)
#
#
# Indices 1 2 3 4 5 6 
#
# 1 0.032567 0.014148 -0.055377 0.000000 0.000000 0.000000
# 2 0.014148 0.032567 -0.055377 0.000000 0.000000 0.000000
# 3 -0.055377 -0.055377 0.150099 0.000000 0.000000 0.000000
# 4 0.000000 0.000000 0.000000 0.032914 0.000000 0.000000
# 5 0.000000 0.000000 0.000000 0.000000 0.032914 0.000000
# 6 0.000000 0.000000 0.000000 0.000000 0.000000 0.036840
#
#
# Mechanical properties :
#
#
# Convention : Reuss Voigt Hill
#
# Bulk Modulus (GPa) = 45.40934 71.87689 58.64311
# Shear Modulus (GPa) = 9.64404 23.84605 16.74505
#
# Velocity S-wave (km/s) = 2.25496 3.54583 2.97134
# Velocity P-wave (km/s) = 5.54274 7.39332 6.53388
#
# Compressibility (1/GPa) = 0.02202190
#
# Stress axis : x y z
#
# Youngs Moduli (GPa) = 30.70562 30.70562 6.66226
#
# Poissons Ratio (x) = -0.43441 0.36893
# Poissons Ratio (y) = -0.43441 0.36893
# Poissons Ratio (z) = 1.70038 1.70038
#
# Static dielectric constant tensor:
#      x y z
#    x 1.704150 0.000000 0.000000 
#    y 0.000000 1.704150 0.000000 
#    z 0.000000 0.000000 1.663490 
# 
# From -- ./inp_files/5747.got.cif
#   From: 2010.05.17/outbox.ucp.g08.bks.cvg/sg171_3_cif.got.tgz:5747.got - 2010.06.11 15:18:14.
