data_PCOD9580718
_publ_section_title
;
Structure prediction by ZEFSAII (Michael W. Deem and Ramdas Pophale) SiO2 
 PCOD9580718
Probable space group: P 62
;
_chemical_formula_sum "Si O2"
_cell_formula_units_Z 42
_cell_length_a 20.390210
_cell_length_b 20.390210
_cell_length_c 5.330951
_cell_angle_alpha 90.000000
_cell_angle_beta 90.000000
_cell_angle_gamma 120.000000
_cell_volume 1919.458468
_symmetry_space_group_name_H-M "P 62"
_symmetry_group_IT_number 171
_symmetry_cell_setting 'hexagonal'
loop_
_space_group_symop_operation_xyz
x,y,z
x-y,x,1/3+z
-y,x-y,2/3+z
-x,-y,z
-x+y,-x,1/3+z
y,-x+y,2/3+z
loop_
_atom_site_type_symbol
_atom_site_label
_atom_site_fract_x
_atom_site_fract_y
_atom_site_fract_z
Si Si1 0.806931 0.480054 0.725380
Si Si2 0.745246 0.782077 0.860152
Si Si3 0.064908 0.649858 0.670803
Si Si4 0.735783 0.932945 0.002308
Si Si5 0.440670 0.545642 0.011414
Si Si6 0.416571 0.343596 0.707529
Si Si7 0.452987 0.795888 0.290085
O O1 0.871606 0.478829 0.562165
O O2 0.742975 0.481404 0.565900
O O3 0.768411 0.398978 0.859792
O O4 0.843849 0.548596 0.918803
O O5 0.744163 0.859759 0.928458
O O6 0.784151 0.768748 0.600121
O O7 0.657539 0.712462 0.865850
O O8 0.787071 0.774263 0.100414
O O9 0.090732 0.737799 0.644763
O O10 0.055756 0.596626 0.433241
O O11 0.125930 0.640922 0.833812
O O12 0.988168 0.615518 0.822472
O O13 0.506877 0.582852 0.806678
O O14 0.367276 0.548790 0.911156
#
# Coordination Sequence:
#
# PCOD9580718 Si02
#       7
#     6   6   6   6   6   6   6
#     4  10  24  39  60  87 120 175 231 295 359 419
#     4  11  26  48  78 113 152 193 238 298 366 447
#     4  10  25  41  61  98 129 179 236 293 362 426
#     4  11  26  48  78 113 152 193 238 298 366 447
#     4  10  24  41  60  84 130 178 232 308 348 426
#     4  10  25  41  61  98 129 179 236 293 362 426
#     4  10  24  39  60  87 120 175 231 295 359 419
#
# _framework density 21.881174000000001
#
# number of rings (size 3 to 8) (size 9 to 14) (size 15 to 20)
#    0.000    1.714    0.000    0.857   14.000    8.571 
#    0.000    0.000    0.000    4.286    0.000    0.000 
#    0.000    0.000    0.000    0.000    0.000    0.000 
#
# Total GULP energy -233885.447600 kJ/mol
# GULP energy per Si atom -5568.701133 kJ/mol
# Density = 2.183137 g / cm^3
# Si number density = 21.881174 Si / 1000 Ang^3
#
#
#
# Elastic Constant Matrix: (Units=GPa)
#
#
# Indices 1 2 3 4 5 6 
#
# 1 100.3494 50.5830 28.9209 0.0000 0.0000 0.0000
# 2 50.5830 100.3494 28.9209 0.0000 0.0000 0.0000
# 3 28.9209 28.9209 83.4369 0.0000 0.0000 0.0000
# 4 0.0000 0.0000 0.0000 20.9300 0.0000 0.0000
# 5 0.0000 0.0000 0.0000 0.0000 20.9300 0.0000
# 6 0.0000 0.0000 0.0000 0.0000 0.0000 24.8832
#
#
#
# Elastic Compliance Matrix: (Units=1/GPa)
#
#
# Indices 1 2 3 4 5 6 
#
# 1 0.013867 -0.006227 -0.002648 0.000000 0.000000 0.000000
# 2 -0.006227 0.013867 -0.002648 0.000000 0.000000 0.000000
# 3 -0.002648 -0.002648 0.013821 0.000000 0.000000 0.000000
# 4 0.000000 0.000000 0.000000 0.047778 0.000000 0.000000
# 5 0.000000 0.000000 0.000000 0.000000 0.047778 0.000000
# 6 0.000000 0.000000 0.000000 0.000000 0.000000 0.040188
#
#
# Mechanical properties :
#
#
# Convention : Reuss Voigt Hill
#
# Bulk Modulus (GPa) = 54.02906 55.66504 54.84705
# Shear Modulus (GPa) = 24.21118 25.06268 24.63693
#
# Velocity S-wave (km/s) = 3.32999 3.38805 3.35915
# Velocity P-wave (km/s) = 6.28735 6.38749 6.33762
#
# Compressibility (1/GPa) = 0.01850856
#
# Stress axis : x y z
#
# Youngs Moduli (GPa) = 72.11292 72.11292 72.35354
#
# Poissons Ratio (x) = 0.44903 0.19161
# Poissons Ratio (y) = 0.44903 0.19161
# Poissons Ratio (z) = 0.19098 0.19098
#
# Static dielectric constant tensor:
#      x y z
#    x 1.850890 0.000000 0.000000 
#    y 0.000000 1.850890 0.000000 
#    z 0.000000 0.000000 2.003980 
# 
# From -- ./inp_files/4248.got.cif
#   From: 2010.05.17/outbox.cif.g08.bks.cpg/sg171_3_cif.got.tgz:4248.got - 2010.05.20 11:16:09.
