data_PCOD9580826
_publ_section_title
;
Structure prediction by ZEFSAII (Michael W. Deem and Ramdas Pophale) SiO2 
 PCOD9580826
Probable space group: P 62
;
_chemical_formula_sum "Si O2"
_cell_formula_units_Z 18
_cell_length_a 11.636234
_cell_length_b 11.636234
_cell_length_c 6.427967
_cell_angle_alpha 90.000000
_cell_angle_beta 90.000000
_cell_angle_gamma 120.000000
_cell_volume 753.753189
_symmetry_space_group_name_H-M "P 62"
_symmetry_group_IT_number 171
_symmetry_cell_setting 'hexagonal'
loop_
_space_group_symop_operation_xyz
x,y,z
x-y,x,1/3+z
-y,x-y,2/3+z
-x,-y,z
-x+y,-x,1/3+z
y,-x+y,2/3+z
loop_
_atom_site_type_symbol
_atom_site_label
_atom_site_fract_x
_atom_site_fract_y
_atom_site_fract_z
Si Si1 0.222997 0.576663 0.511990
Si Si2 0.336679 0.028492 0.834290
Si Si3 0.207058 0.153894 0.530819
O O1 0.367855 0.634318 0.410603
O O2 0.129924 0.638833 0.459957
O O3 0.122792 0.423961 0.450034
O O4 0.270298 0.090325 0.684057
O O5 0.296143 0.006734 0.080750
O O6 0.094743 0.156525 0.664015
#
# Coordination Sequence:
#
# PCOD9580826 Si02
#       3
#     6   6   6
#     4  11  23  44  70 100 139 185 242 306 378 453
#     4  11  26  43  68 102 138 187 240 301 380 460
#     4  12  25  43  64  94 133 175 230 292 360 439
#
# _framework density 23.880493999999999
#
# number of rings (size 3 to 8) (size 9 to 14) (size 15 to 20)
#    0.000    0.667    0.000    8.000    0.000    6.667 
#    0.000    6.667    0.000    0.000    0.000    0.000 
#    0.000    0.000    0.000    0.000    0.000    0.000 
#
# Total GULP energy -100263.103401 kJ/mol
# GULP energy per Si atom -5570.172411 kJ/mol
# Density = 2.382614 g / cm^3
# Si number density = 23.880494 Si / 1000 Ang^3
#
#
#
# Elastic Constant Matrix: (Units=GPa)
#
#
# Indices 1 2 3 4 5 6 
#
# 1 94.3969 23.6878 13.7406 0.0000 0.0000 0.0000
# 2 23.6878 94.3969 13.7406 0.0000 0.0000 0.0000
# 3 13.7406 13.7406 54.1131 0.0000 0.0000 0.0000
# 4 0.0000 0.0000 0.0000 37.5714 0.0000 0.0000
# 5 0.0000 0.0000 0.0000 0.0000 37.5714 0.0000
# 6 0.0000 0.0000 0.0000 0.0000 0.0000 35.3545
#
#
#
# Elastic Compliance Matrix: (Units=1/GPa)
#
#
# Indices 1 2 3 4 5 6 
#
# 1 0.011571 -0.002571 -0.002285 0.000000 0.000000 0.000000
# 2 -0.002571 0.011571 -0.002285 0.000000 0.000000 0.000000
# 3 -0.002285 -0.002285 0.019640 0.000000 0.000000 0.000000
# 4 0.000000 0.000000 0.000000 0.026616 0.000000 0.000000
# 5 0.000000 0.000000 0.000000 0.000000 0.026616 0.000000
# 6 0.000000 0.000000 0.000000 0.000000 0.000000 0.028285
#
#
# Mechanical properties :
#
#
# Convention : Reuss Voigt Hill
#
# Bulk Modulus (GPa) = 35.08827 38.36055 36.72441
# Shear Modulus (GPa) = 33.76467 34.88198 34.32332
#
# Velocity S-wave (km/s) = 3.76427 3.82604 3.79528
# Velocity P-wave (km/s) = 5.79811 5.96796 5.88365
#
# Compressibility (1/GPa) = 0.02849955
#
# Stress axis : x y z
#
# Youngs Moduli (GPa) = 86.41984 86.41984 50.91534
#
# Poissons Ratio (x) = 0.22219 0.11636
# Poissons Ratio (y) = 0.22219 0.11636
# Poissons Ratio (z) = 0.19750 0.19750
#
# Static dielectric constant tensor:
#      x y z
#    x 1.975860 0.000000 0.000000 
#    y 0.000000 1.975860 0.000000 
#    z 0.000000 0.000000 1.895620 
# 
# From -- ./inp_files/104.got.cif
#   From: 2010.05.17/outbox.cif.g08.bks.cpg/sg171_1_cif.got.tgz:104.got - 2010.05.20 11:16:09.
