data_PCOD9580208
_publ_section_title
;
Structure prediction by ZEFSAII (Michael W. Deem and Ramdas Pophale) SiO2 
 PCOD9580208
Probable space group: P 65
;
_chemical_formula_sum "Si O2"
_cell_formula_units_Z 42
_cell_length_a 9.200266
_cell_length_b 9.200266
_cell_length_c 27.071757
_cell_angle_alpha 90.000000
_cell_angle_beta 90.000000
_cell_angle_gamma 120.000000
_cell_volume 1984.485101
_symmetry_space_group_name_H-M "P 65"
_symmetry_group_IT_number 170
_symmetry_cell_setting 'hexagonal'
loop_
_space_group_symop_operation_xyz
x,y,z
x-y,x,5/6+z
-y,x-y,2/3+z
-x,-y,1/2+z
-x+y,-x,1/3+z
y,-x+y,1/6+z
loop_
_atom_site_type_symbol
_atom_site_label
_atom_site_fract_x
_atom_site_fract_y
_atom_site_fract_z
Si Si1 0.591332 0.040650 0.754210
Si Si2 0.032860 0.413219 0.574048
Si Si3 0.747628 0.524960 0.164671
Si Si4 0.763578 0.058993 0.031976
Si Si5 0.326731 0.684401 0.181558
Si Si6 0.273207 0.518339 0.407872
Si Si7 0.761858 0.062279 0.925809
O O1 0.563585 0.133004 0.801359
O O2 0.693884 0.179019 0.712719
O O3 0.403155 0.911783 0.736296
O O4 0.663417 0.915425 0.763208
O O5 0.101985 0.386378 0.625521
O O6 0.197837 0.518762 0.541004
O O7 0.903399 0.261032 0.540369
O O8 0.952282 0.533175 0.583015
O O9 0.762530 0.382248 0.194072
O O10 0.678321 0.174506 0.022636
O O11 0.952799 0.175009 0.049628
O O12 0.657851 0.924056 0.073139
O O13 0.752256 0.978803 0.978747
O O14 0.378797 0.732727 0.124897
#
# Coordination Sequence:
#
# PCOD9580208 Si02
#       7
#     6   6   6   6   6   6   6
#     4  11  23  40  72  96 132 179 230 284 346 411
#     4  10  19  38  64 101 130 175 231 288 336 411
#     4  11  21  38  69 100 136 179 236 286 349 411
#     4  11  24  42  68  99 133 175 232 280 342 415
#     4  10  23  40  64 101 133 173 233 276 334 420
#     4  12  23  40  69  99 132 179 227 285 339 420
#     4  11  21  42  68  96 136 176 227 281 340 406
#
# _framework density 21.164182
#
# number of rings (size 3 to 8) (size 9 to 14) (size 15 to 20)
#    0.000    1.143    5.714    0.857    2.000    0.000 
#    0.000    0.000    9.429    0.000    0.000    0.000 
#    0.000    0.000    0.000    0.000    0.000    0.000 
#
# Total GULP energy -234555.857181 kJ/mol
# GULP energy per Si atom -5584.663266 kJ/mol
# Density = 2.111601 g / cm^3
# Si number density = 21.164182 Si / 1000 Ang^3
#
#
#
# Elastic Constant Matrix: (Units=GPa)
#
#
# Indices 1 2 3 4 5 6 
#
# 1 64.8975 13.5317 27.4096 0.0000 0.0000 0.0000
# 2 13.5317 64.8975 27.4096 0.0000 0.0000 0.0000
# 3 27.4096 27.4096 119.8608 0.0000 0.0000 0.0000
# 4 0.0000 0.0000 0.0000 32.7309 0.0000 0.0000
# 5 0.0000 0.0000 0.0000 0.0000 32.7309 0.0000
# 6 0.0000 0.0000 0.0000 0.0000 0.0000 25.6829
#
#
#
# Elastic Compliance Matrix: (Units=1/GPa)
#
#
# Indices 1 2 3 4 5 6 
#
# 1 0.017322 -0.002146 -0.003470 0.000000 0.000000 0.000000
# 2 -0.002146 0.017322 -0.003470 0.000000 0.000000 0.000000
# 3 -0.003470 -0.003470 0.009930 0.000000 0.000000 0.000000
# 4 0.000000 0.000000 0.000000 0.030552 0.000000 0.000000
# 5 0.000000 0.000000 0.000000 0.000000 0.030552 0.000000
# 6 0.000000 0.000000 0.000000 0.000000 0.000000 0.038936
#
#
# Mechanical properties :
#
#
# Convention : Reuss Voigt Hill
#
# Bulk Modulus (GPa) = 37.87790 42.92861 40.40325
# Shear Modulus (GPa) = 29.13935 30.31596 29.72765
#
# Velocity S-wave (km/s) = 3.71458 3.78884 3.75189
# Velocity P-wave (km/s) = 6.02773 6.28236 6.15636
#
# Compressibility (1/GPa) = 0.02640062
#
# Stress axis : x y z
#
# Youngs Moduli (GPa) = 57.72960 57.72960 100.70243
#
# Poissons Ratio (x) = 0.12389 0.34948
# Poissons Ratio (y) = 0.12389 0.34948
# Poissons Ratio (z) = 0.20035 0.20035
#
# Static dielectric constant tensor:
#      x y z
#    x 1.772400 0.000000 0.000000 
#    y 0.000000 1.772400 0.000000 
#    z 0.000000 0.000000 1.795530 
# 
# From -- ./inp_files/1913.got.cif
#   From: 2010.05.17/outbox.cif.g08.bks.cpg/sg170_cif.got.tgz:1913.got - 2010.05.20 11:14:30.
