data_PCOD9580032
_publ_section_title
;
Structure prediction by ZEFSAII (Michael W. Deem and Ramdas Pophale) SiO2 
 PCOD9580032
Probable space group: P 61
;
_chemical_formula_sum "Si O2"
_cell_formula_units_Z 24
_cell_length_a 15.665696
_cell_length_b 15.665696
_cell_length_c 5.043761
_cell_angle_alpha 90.000000
_cell_angle_beta 90.000000
_cell_angle_gamma 120.000000
_cell_volume 1071.974662
_symmetry_space_group_name_H-M "P 61"
_symmetry_group_IT_number 169
_symmetry_cell_setting 'hexagonal'
loop_
_space_group_symop_operation_xyz
x,y,z
x-y,x,1/6+z
-y,x-y,1/3+z
-x,-y,1/2+z
-x+y,-x,2/3+z
y,-x+y,5/6+z
loop_
_atom_site_type_symbol
_atom_site_label
_atom_site_fract_x
_atom_site_fract_y
_atom_site_fract_z
Si Si1 0.953130 0.436298 0.125000
Si Si2 0.649921 0.875971 0.410977
Si Si3 0.865243 0.777615 0.074658
Si Si4 0.693897 0.436576 0.581649
O O1 0.957033 0.343254 0.257426
O O2 0.835128 0.382870 0.064637
O O3 0.988262 0.518072 0.355278
O O4 0.728993 0.881756 0.618316
O O5 0.548749 0.775276 0.471568
O O6 0.690863 0.888977 0.115196
O O7 0.973587 0.829169 0.196619
O O8 0.623228 0.366984 0.808709
#
# Coordination Sequence:
#
# PCOD9580032 Si02
#       4
#     6   6   6   6
#     4  10  23  44  66 101 142 193 251 301 366 423
#     4  10  26  46  72 111 143 196 243 302 377 439
#     4  12  27  51  77 110 146 189 248 317 393 456
#     4  10  26  43  69 104 147 204 250 296 366 438
#
# _framework density 22.388590000000001
#
# number of rings (size 3 to 8) (size 9 to 14) (size 15 to 20)
#    1.500    0.000    0.000    3.000    7.000    8.000 
#    0.000    0.000    0.000    0.000    0.000    0.000 
#    0.000    0.000    0.000    0.000    0.000    0.000 
#
# Total GULP energy -133714.280577 kJ/mol
# GULP energy per Si atom -5571.428357 kJ/mol
# Density = 2.233763 g / cm^3
# Si number density = 22.388590 Si / 1000 Ang^3
#
#
#
# Elastic Constant Matrix: (Units=GPa)
#
#
# Indices 1 2 3 4 5 6 
#
# 1 76.6257 -3.8944 18.7532 0.0000 0.0000 0.0000
# 2 -3.8944 76.6257 18.7532 0.0000 0.0000 0.0000
# 3 18.7532 18.7532 74.6441 0.0000 0.0000 0.0000
# 4 0.0000 0.0000 0.0000 22.4397 0.0000 0.0000
# 5 0.0000 0.0000 0.0000 0.0000 22.4397 0.0000
# 6 0.0000 0.0000 0.0000 0.0000 0.0000 40.2600
#
#
#
# Elastic Compliance Matrix: (Units=1/GPa)
#
#
# Indices 1 2 3 4 5 6 
#
# 1 0.014107 0.001688 -0.003968 0.000000 0.000000 0.000000
# 2 0.001688 0.014107 -0.003968 0.000000 0.000000 0.000000
# 3 -0.003968 -0.003968 0.015391 0.000000 0.000000 0.000000
# 4 0.000000 0.000000 0.000000 0.044564 0.000000 0.000000
# 5 0.000000 0.000000 0.000000 0.000000 0.044564 0.000000
# 6 0.000000 0.000000 0.000000 0.000000 0.000000 0.024839
#
#
# Mechanical properties :
#
#
# Convention : Reuss Voigt Hill
#
# Bulk Modulus (GPa) = 32.14541 32.79101 32.46821
# Shear Modulus (GPa) = 27.71019 29.98012 28.84515
#
# Velocity S-wave (km/s) = 3.52190 3.66331 3.59330
# Velocity P-wave (km/s) = 5.56125 5.70712 5.63466
#
# Compressibility (1/GPa) = 0.03110864
#
# Stress axis : x y z
#
# Youngs Moduli (GPa) = 70.88436 70.88436 64.97337
#
# Poissons Ratio (x) = -0.11967 0.25784
# Poissons Ratio (y) = -0.11967 0.25784
# Poissons Ratio (z) = 0.28130 0.28130
#
# Static dielectric constant tensor:
#      x y z
#    x 1.910790 0.000000 0.000000 
#    y 0.000000 1.910790 0.000000 
#    z 0.000000 0.000000 1.799510 
# 
# From -- ./inp_files/64.got.cif
#   From: 2010.05.17/outbox.cif.g08.bks.cpg/sg169_cif.got.tgz:64.got - 2010.05.20 11:12:54.
