data_PCOD9580485
_publ_section_title
;
Structure prediction by ZEFSAII (Michael W. Deem and Ramdas Pophale) SiO2 
 PCOD9580485
Probable space group: P 62
;
_chemical_formula_sum "Si O2"
_cell_formula_units_Z 42
_cell_length_a 13.817151
_cell_length_b 13.817151
_cell_length_c 11.459545
_cell_angle_alpha 90.000000
_cell_angle_beta 90.000000
_cell_angle_gamma 120.000000
_cell_volume 1894.676260
_symmetry_space_group_name_H-M "P 62"
_symmetry_group_IT_number 171
_symmetry_cell_setting 'hexagonal'
loop_
_space_group_symop_operation_xyz
x,y,z
x-y,x,1/3+z
-y,x-y,2/3+z
-x,-y,z
-x+y,-x,1/3+z
y,-x+y,2/3+z
loop_
_atom_site_type_symbol
_atom_site_label
_atom_site_fract_x
_atom_site_fract_y
_atom_site_fract_z
Si Si1 0.541148 0.725323 0.931810
Si Si2 0.163027 0.127920 0.276186
Si Si3 0.703406 0.418437 0.860520
Si Si4 0.898278 0.825774 0.863733
Si Si5 0.636527 0.664319 0.152017
Si Si6 0.624425 0.192459 0.955914
Si Si7 0.388151 0.183688 0.698241
O O1 0.425324 0.615345 0.888187
O O2 0.621555 0.761968 0.818667
O O3 0.601673 0.715037 0.043955
O O4 0.492477 0.807752 0.964732
O O5 0.191990 0.076540 0.391243
O O6 0.260649 0.244758 0.229315
O O7 0.044075 0.125750 0.258360
O O8 0.148368 0.032592 0.187160
O O9 0.764871 0.464411 0.738837
O O10 0.691783 0.296901 0.868601
O O11 0.775052 0.503354 0.961560
O O12 0.843763 0.716254 0.944249
O O13 0.531621 0.614194 0.236861
O O14 0.677548 0.590158 0.083296
#
# Coordination Sequence:
#
# PCOD9580485 Si02
#       7
#     6   6   6   6   6   6   6
#     4  10  22  42  66  99 143 188 232 290 366 416
#     4  11  24  45  69 101 141 187 233 297 365 423
#     4  10  19  44  69  96 136 191 233 289 364 428
#     4  11  24  45  69 101 141 187 233 297 365 423
#     4  12  25  39  73 103 139 183 245 293 348 440
#     4  10  19  44  69  96 136 191 233 289 364 428
#     4  12  25  39  73 103 139 183 245 293 348 440
#
# _framework density 22.167375
#
# number of rings (size 3 to 8) (size 9 to 14) (size 15 to 20)
#    0.857    0.286    2.857    5.143    6.000    2.286 
#    2.571    0.000    0.000    0.857    0.000    0.000 
#    0.000    0.000    0.000    0.000    0.000    0.000 
#
# Total GULP energy -233802.396779 kJ/mol
# GULP energy per Si atom -5566.723733 kJ/mol
# Density = 2.211692 g / cm^3
# Si number density = 22.167375 Si / 1000 Ang^3
#
#
#
# Elastic Constant Matrix: (Units=GPa)
#
#
# Indices 1 2 3 4 5 6 
#
# 1 64.5946 15.2609 23.4532 0.0000 0.0000 0.0000
# 2 15.2609 64.5946 23.4532 0.0000 0.0000 0.0000
# 3 23.4532 23.4532 104.3709 0.0000 0.0000 0.0000
# 4 0.0000 0.0000 0.0000 38.1976 0.0000 0.0000
# 5 0.0000 0.0000 0.0000 0.0000 38.1976 0.0000
# 6 0.0000 0.0000 0.0000 0.0000 0.0000 24.6669
#
#
#
# Elastic Compliance Matrix: (Units=1/GPa)
#
#
# Indices 1 2 3 4 5 6 
#
# 1 0.017348 -0.002922 -0.003242 0.000000 0.000000 0.000000
# 2 -0.002922 0.017348 -0.003242 0.000000 0.000000 0.000000
# 3 -0.003242 -0.003242 0.011038 0.000000 0.000000 0.000000
# 4 0.000000 0.000000 0.000000 0.026180 0.000000 0.000000
# 5 0.000000 0.000000 0.000000 0.000000 0.026180 0.000000
# 6 0.000000 0.000000 0.000000 0.000000 0.000000 0.040540
#
#
# Mechanical properties :
#
#
# Convention : Reuss Voigt Hill
#
# Bulk Modulus (GPa) = 37.14097 39.76608 38.45352
# Shear Modulus (GPa) = 30.04445 31.63861 30.84153
#
# Velocity S-wave (km/s) = 3.68550 3.78201 3.73406
# Velocity P-wave (km/s) = 5.90776 6.08682 5.99796
#
# Compressibility (1/GPa) = 0.02692444
#
# Stress axis : x y z
#
# Youngs Moduli (GPa) = 57.64197 57.64197 90.59475
#
# Poissons Ratio (x) = 0.16841 0.29370
# Poissons Ratio (y) = 0.16841 0.29370
# Poissons Ratio (z) = 0.18687 0.18687
#
# Static dielectric constant tensor:
#      x y z
#    x 1.843750 0.000000 0.000000 
#    y 0.000000 1.843750 0.000000 
#    z 0.000000 0.000000 1.837220 
# 
# From -- ./inp_files/1681.got.cif
#   From: 2010.05.17/outbox.cif.g08.bks.cpg/sg171_1_cif.got.tgz:1681.got - 2010.05.20 11:16:09.
