data_PCOD9580806
_publ_section_title
;
Structure prediction by ZEFSAII (Michael W. Deem and Ramdas Pophale) SiO2 
 PCOD9580806
Probable space group: P 62
;
_chemical_formula_sum "Si O2"
_cell_formula_units_Z 24
_cell_length_a 14.424912
_cell_length_b 14.424912
_cell_length_c 5.791313
_cell_angle_alpha 90.000000
_cell_angle_beta 90.000000
_cell_angle_gamma 120.000000
_cell_volume 1043.599865
_symmetry_space_group_name_H-M "P 62"
_symmetry_group_IT_number 171
_symmetry_cell_setting 'hexagonal'
loop_
_space_group_symop_operation_xyz
x,y,z
x-y,x,1/3+z
-y,x-y,2/3+z
-x,-y,z
-x+y,-x,1/3+z
y,-x+y,2/3+z
loop_
_atom_site_type_symbol
_atom_site_label
_atom_site_fract_x
_atom_site_fract_y
_atom_site_fract_z
Si Si1 0.241362 0.679830 0.971030
Si Si2 0.843595 0.620558 0.295300
Si Si3 0.310279 0.378799 0.885550
Si Si4 0.127920 0.192016 0.593303
O O1 0.262303 0.598211 0.824832
O O2 0.237549 0.762966 0.793380
O O3 0.130727 0.635551 0.106046
O O4 0.896112 0.738547 0.411174
O O5 0.947143 0.606600 0.280555
O O6 0.772414 0.622432 0.079851
O O7 0.237298 0.285419 0.702516
O O8 0.143516 0.105069 0.456326
#
# Coordination Sequence:
#
# PCOD9580806 Si02
#       4
#     6   6   6   6
#     4  11  26  50  72 100 142 184 244 315 368 436
#     4  11  23  44  75 104 145 190 239 296 362 436
#     4  11  23  44  75 104 145 190 239 296 362 436
#     4  11  22  40  70 106 153 198 243 285 354 430
#
# _framework density 22.997319999999998
#
# number of rings (size 3 to 8) (size 9 to 14) (size 15 to 20)
#    0.000    1.000    5.000    1.500    0.000    0.000 
#    0.000   27.500    0.000    0.000    0.000    0.000 
#    0.000    0.000    0.000    0.000    0.000    0.000 
#
# Total GULP energy -134143.526856 kJ/mol
# GULP energy per Si atom -5589.313619 kJ/mol
# Density = 2.294498 g / cm^3
# Si number density = 22.997320 Si / 1000 Ang^3
#
#
#
# Elastic Constant Matrix: (Units=GPa)
#
#
# Indices 1 2 3 4 5 6 
#
# 1 75.8683 15.7355 12.6952 0.0000 0.0000 0.0000
# 2 15.7355 75.8683 12.6952 0.0000 0.0000 0.0000
# 3 12.6952 12.6952 65.0007 0.0000 0.0000 0.0000
# 4 0.0000 0.0000 0.0000 40.6506 0.0000 0.0000
# 5 0.0000 0.0000 0.0000 0.0000 40.6506 0.0000
# 6 0.0000 0.0000 0.0000 0.0000 0.0000 30.0664
#
#
#
# Elastic Compliance Matrix: (Units=1/GPa)
#
#
# Indices 1 2 3 4 5 6 
#
# 1 0.014086 -0.002544 -0.002254 0.000000 0.000000 0.000000
# 2 -0.002544 0.014086 -0.002254 0.000000 0.000000 0.000000
# 3 -0.002254 -0.002254 0.016265 0.000000 0.000000 0.000000
# 4 0.000000 0.000000 0.000000 0.024600 0.000000 0.000000
# 5 0.000000 0.000000 0.000000 0.000000 0.024600 0.000000
# 6 0.000000 0.000000 0.000000 0.000000 0.000000 0.033260
#
#
# Mechanical properties :
#
#
# Convention : Reuss Voigt Hill
#
# Bulk Modulus (GPa) = 32.96940 33.22102 33.09521
# Shear Modulus (GPa) = 33.08826 33.98096 33.53461
#
# Velocity S-wave (km/s) = 3.79725 3.84813 3.82278
# Velocity P-wave (km/s) = 5.79593 5.84988 5.82297
#
# Compressibility (1/GPa) = 0.03033116
#
# Stress axis : x y z
#
# Youngs Moduli (GPa) = 70.99442 70.99442 61.48191
#
# Poissons Ratio (x) = 0.18063 0.13859
# Poissons Ratio (y) = 0.18063 0.13859
# Poissons Ratio (z) = 0.16003 0.16003
#
# Static dielectric constant tensor:
#      x y z
#    x 1.883110 0.000000 0.000000 
#    y 0.000000 1.883110 0.000000 
#    z 0.000000 0.000000 2.004000 
# 
# From -- ./inp_files/516.got.cif
#   From: 2010.05.17/outbox.cif.g08.bks.cpg/sg171_1_cif.got.tgz:516.got - 2010.05.20 11:16:09.
