data_PCOD9580339
_publ_section_title
;
Structure prediction by ZEFSAII (Michael W. Deem and Ramdas Pophale) SiO2 
 PCOD9580339
Probable space group: P 65
;
_chemical_formula_sum "Si O2"
_cell_formula_units_Z 48
_cell_length_a 11.771320
_cell_length_b 11.771320
_cell_length_c 16.621118
_cell_angle_alpha 90.000000
_cell_angle_beta 90.000000
_cell_angle_gamma 120.000000
_cell_volume 1994.532864
_symmetry_space_group_name_H-M "P 65"
_symmetry_group_IT_number 170
_symmetry_cell_setting 'hexagonal'
loop_
_space_group_symop_operation_xyz
x,y,z
x-y,x,5/6+z
-y,x-y,2/3+z
-x,-y,1/2+z
-x+y,-x,1/3+z
y,-x+y,1/6+z
loop_
_atom_site_type_symbol
_atom_site_label
_atom_site_fract_x
_atom_site_fract_y
_atom_site_fract_z
Si Si1 0.141278 0.463547 0.190240
Si Si2 0.057309 0.354635 0.483206
Si Si3 0.305843 0.071223 0.415653
Si Si4 0.437188 0.433647 0.113319
Si Si5 0.950094 0.064279 0.278442
Si Si6 0.421574 0.045270 0.112807
Si Si7 0.589546 0.747059 0.329066
Si Si8 0.401953 0.670461 0.702110
O O1 0.203559 0.422739 0.262603
O O2 0.052142 0.516644 0.225157
O O3 0.252223 0.567449 0.130551
O O4 0.043338 0.337514 0.137948
O O5 0.074851 0.482866 0.437378
O O6 0.113693 0.269911 0.440278
O O7 0.116403 0.406008 0.570491
O O8 0.904550 0.245176 0.494604
O O9 0.350361 0.050400 0.326599
O O10 0.174185 0.076916 0.422663
O O11 0.424356 0.378649 0.024567
O O12 0.534000 0.413604 0.169857
O O13 0.956969 0.042418 0.374625
O O14 0.500761 0.191825 0.154530
O O15 0.299866 0.971245 0.051856
O O16 0.435443 0.684010 0.354626
#
# Coordination Sequence:
#
# PCOD9580339 Si02
#       8
#     6   6   6   6   6   6   6   6
#     4  11  25  44  67 104 150 196 246 319 385 456
#     4  11  25  50  73 109 154 199 252 323 393 473
#     4  11  23  47  70 104 156 188 255 319 385 456
#     4  10  25  46  70 106 149 198 244 317 383 462
#     4  12  26  50  77 115 155 208 263 324 403 475
#     4  12  26  42  77 110 136 206 259 307 395 454
#     4  11  25  48  74 104 157 197 252 323 391 476
#     4  10  25  47  68 104 151 192 251 318 381 460
#
# _framework density 24.065784000000001
#
# number of rings (size 3 to 8) (size 9 to 14) (size 15 to 20)
#    0.000    1.000    3.750    2.250    8.750    0.000 
#    9.000    0.000    0.000    0.000    0.000    0.000 
#    0.000    0.000    0.000    0.000    0.000    0.000 
#
# Total GULP energy -267473.024615 kJ/mol
# GULP energy per Si atom -5572.354679 kJ/mol
# Density = 2.401101 g / cm^3
# Si number density = 24.065784 Si / 1000 Ang^3
#
#
#
# Elastic Constant Matrix: (Units=GPa)
#
#
# Indices 1 2 3 4 5 6 
#
# 1 39.6899 28.6547 15.6073 0.0000 0.0000 0.0000
# 2 28.6547 39.6899 15.6073 0.0000 0.0000 0.0000
# 3 15.6073 15.6073 94.4598 0.0000 0.0000 0.0000
# 4 0.0000 0.0000 0.0000 28.8191 0.0000 0.0000
# 5 0.0000 0.0000 0.0000 0.0000 28.8191 0.0000
# 6 0.0000 0.0000 0.0000 0.0000 0.0000 5.5176
#
#
#
# Elastic Compliance Matrix: (Units=1/GPa)
#
#
# Indices 1 2 3 4 5 6 
#
# 1 0.053223 -0.037397 -0.002615 0.000000 0.000000 0.000000
# 2 -0.037397 0.053223 -0.002615 0.000000 0.000000 0.000000
# 3 -0.002615 -0.002615 0.011451 0.000000 0.000000 0.000000
# 4 0.000000 0.000000 0.000000 0.034699 0.000000 0.000000
# 5 0.000000 0.000000 0.000000 0.000000 0.034699 0.000000
# 6 0.000000 0.000000 0.000000 0.000000 0.000000 0.181239
#
#
# Mechanical properties :
#
#
# Convention : Reuss Voigt Hill
#
# Bulk Modulus (GPa) = 30.63434 32.61980 31.62707
# Shear Modulus (GPa) = 10.76037 20.22915 15.49476
#
# Velocity S-wave (km/s) = 2.11682 2.90242 2.54017
# Velocity P-wave (km/s) = 4.32801 4.98155 4.66624
#
# Compressibility (1/GPa) = 0.03264311
#
# Stress axis : x y z
#
# Youngs Moduli (GPa) = 18.78893 18.78893 87.33163
#
# Poissons Ratio (x) = 0.70265 0.22836
# Poissons Ratio (y) = 0.70265 0.22836
# Poissons Ratio (z) = 0.04913 0.04913
#
# Static dielectric constant tensor:
#      x y z
#    x 1.995640 0.000000 0.000000 
#    y 0.000000 1.995640 0.000000 
#    z 0.000000 0.000000 1.939480 
# 
# From -- ./inp_files/1466.got.cif
#   From: 2010.05.17/outbox.cif.g08.bks.cpg/sg170_cif.got.tgz:1466.got - 2010.05.20 11:14:30.
