data_PCOD9580293
_publ_section_title
;
Structure prediction by ZEFSAII (Michael W. Deem and Ramdas Pophale) SiO2 
 PCOD9580293
Probable space group: P 65
;
_chemical_formula_sum "Si O2"
_cell_formula_units_Z 36
_cell_length_a 9.310731
_cell_length_b 9.310731
_cell_length_c 22.966748
_cell_angle_alpha 90.000000
_cell_angle_beta 90.000000
_cell_angle_gamma 120.000000
_cell_volume 1724.239920
_symmetry_space_group_name_H-M "P 65"
_symmetry_group_IT_number 170
_symmetry_cell_setting 'hexagonal'
loop_
_space_group_symop_operation_xyz
x,y,z
x-y,x,5/6+z
-y,x-y,2/3+z
-x,-y,1/2+z
-x+y,-x,1/3+z
y,-x+y,1/6+z
loop_
_atom_site_type_symbol
_atom_site_label
_atom_site_fract_x
_atom_site_fract_y
_atom_site_fract_z
Si Si1 0.435153 0.744468 0.796570
Si Si2 0.874305 0.002707 0.718090
Si Si3 0.569631 0.687132 0.677123
Si Si4 0.182243 0.092493 0.494077
Si Si5 0.178452 0.689419 0.237170
Si Si6 0.584572 0.912279 0.090173
O O1 0.498044 0.675233 0.742437
O O2 0.364465 0.615720 0.850020
O O3 0.280443 0.751989 0.769024
O O4 0.563815 0.927651 0.823200
O O5 0.727123 0.873019 0.677192
O O6 0.853544 0.887374 0.773616
O O7 0.050670 0.036604 0.694365
O O8 0.854425 0.161630 0.721352
O O9 0.454928 0.696510 0.625987
O O10 0.303344 0.057403 0.533025
O O11 0.278912 0.279743 0.473728
O O12 0.007473 0.525021 0.253071
#
# Coordination Sequence:
#
# PCOD9580293 Si02
#       6
#     6   6   6   6   6   6
#     4  12  28  45  76 112 156 202 258 325 395 458
#     4  11  20  42  72 103 133 199 245 300 373 462
#     4  12  24  47  73 105 151 200 248 309 393 465
#     4  10  22  42  72  93 150 189 247 300 385 449
#     4  12  25  42  77 106 149 191 265 310 382 462
#     4  11  25  44  68 109 143 195 251 316 372 450
#
# _framework density 20.878764
#
# number of rings (size 3 to 8) (size 9 to 14) (size 15 to 20)
#    0.000    0.667    3.333    5.000    2.333    2.667 
#    3.000    0.000    0.000    0.000    0.000    0.000 
#    0.000    0.000    0.000    0.000    0.000    0.000 
#
# Total GULP energy -200835.447226 kJ/mol
# GULP energy per Si atom -5578.762423 kJ/mol
# Density = 2.083124 g / cm^3
# Si number density = 20.878764 Si / 1000 Ang^3
#
#
#
# Elastic Constant Matrix: (Units=GPa)
#
#
# Indices 1 2 3 4 5 6 
#
# 1 131.5402 54.3515 58.0630 0.0000 0.0000 0.0000
# 2 54.3515 131.5402 58.0630 0.0000 0.0000 0.0000
# 3 58.0630 58.0630 134.4978 0.0000 0.0000 0.0000
# 4 0.0000 0.0000 0.0000 30.9439 0.0000 0.0000
# 5 0.0000 0.0000 0.0000 0.0000 30.9439 0.0000
# 6 0.0000 0.0000 0.0000 0.0000 0.0000 38.5944
#
#
#
# Elastic Compliance Matrix: (Units=1/GPa)
#
#
# Indices 1 2 3 4 5 6 
#
# 1 0.010161 -0.002795 -0.003180 0.000000 0.000000 0.000000
# 2 -0.002795 0.010161 -0.003180 0.000000 0.000000 0.000000
# 3 -0.003180 -0.003180 0.010181 0.000000 0.000000 0.000000
# 4 0.000000 0.000000 0.000000 0.032317 0.000000 0.000000
# 5 0.000000 0.000000 0.000000 0.000000 0.032317 0.000000
# 6 0.000000 0.000000 0.000000 0.000000 0.000000 0.025911
#
#
# Mechanical properties :
#
#
# Convention : Reuss Voigt Hill
#
# Bulk Modulus (GPa) = 82.01486 82.05926 82.03706
# Shear Modulus (GPa) = 34.86298 35.23649 35.04973
#
# Velocity S-wave (km/s) = 4.09073 4.11258 4.10167
# Velocity P-wave (km/s) = 7.85359 7.87015 7.86187
#
# Compressibility (1/GPa) = 0.01219291
#
# Stress axis : x y z
#
# Youngs Moduli (GPa) = 98.41936 98.41936 98.22601
#
# Poissons Ratio (x) = 0.27505 0.31235
# Poissons Ratio (y) = 0.27505 0.31235
# Poissons Ratio (z) = 0.31296 0.31296
#
# Static dielectric constant tensor:
#      x y z
#    x 1.748610 0.000000 0.000000 
#    y 0.000000 1.748610 0.000000 
#    z 0.000000 0.000000 1.874890 
# 
# From -- ./inp_files/1798.got.cif
#   From: 2010.05.17/outbox.cif.g08.bks.cpg/sg170_cif.got.tgz:1798.got - 2010.05.20 11:14:30.
