data_PCOD9580583
_publ_section_title
;
Structure prediction by ZEFSAII (Michael W. Deem and Ramdas Pophale) SiO2 
 PCOD9580583
Probable space group: P 62
;
_chemical_formula_sum "Si O2"
_cell_formula_units_Z 39
_cell_length_a 19.997713
_cell_length_b 19.997713
_cell_length_c 4.992261
_cell_angle_alpha 90.000000
_cell_angle_beta 90.000000
_cell_angle_gamma 120.000000
_cell_volume 1728.974455
_symmetry_space_group_name_H-M "P 62"
_symmetry_group_IT_number 171
_symmetry_cell_setting 'hexagonal'
loop_
_space_group_symop_operation_xyz
x,y,z
x-y,x,1/3+z
-y,x-y,2/3+z
-x,-y,z
-x+y,-x,1/3+z
y,-x+y,2/3+z
loop_
_atom_site_type_symbol
_atom_site_label
_atom_site_fract_x
_atom_site_fract_y
_atom_site_fract_z
Si Si1 0.428157 0.610460 0.661530
Si Si2 0.394443 0.136960 0.003286
Si Si3 0.768108 0.921027 0.122888
Si Si4 0.000000 0.500000 0.098746
Si Si5 0.034650 0.663097 0.169794
Si Si6 0.289566 0.751618 0.843346
Si Si7 0.988671 0.780657 0.292606
O O1 0.457918 0.547556 0.643762
O O2 0.340561 0.585204 0.568051
O O3 0.477539 0.679695 0.454025
O O4 0.430584 0.640100 0.964669
O O5 0.320644 0.142518 0.090651
O O6 0.392546 0.073480 0.210013
O O7 0.464584 0.220604 0.037649
O O8 0.388254 0.103266 0.709071
O O9 0.784927 0.945070 0.426686
O O10 0.808063 0.881660 0.967064
O O11 0.776342 0.990172 0.938877
O O12 0.002071 0.573844 0.239446
O O13 0.977819 0.698634 0.191919
#
# Coordination Sequence:
#
# PCOD9580583 Si02
#       7
#     6   6   6   3   6   6   6
#     4  12  28  45  75  97 146 184 251 291 369 429
#     4  10  22  43  64  90 131 172 229 279 332 415
#     4  10  21  39  65  95 129 168 218 261 332 391
#     4  12  28  48  68 114 140 186 232 322 360 416
#     4  10  23  42  65  92 138 173 218 283 350 399
#     4  12  25  48  66 100 130 193 233 295 346 445
#     4  10  21  40  65  97 128 176 211 273 321 413
#
# _framework density 22.556725
#
# number of rings (size 3 to 8) (size 9 to 14) (size 15 to 20)
#    0.000    1.231    1.538    3.692    4.308    2.462 
#    5.538    0.000    0.000    4.615    0.000    0.000 
#    0.000    0.000    0.000    0.000    0.000    0.000 
#
# Total GULP energy -217102.279641 kJ/mol
# GULP energy per Si atom -5566.725119 kJ/mol
# Density = 2.250539 g / cm^3
# Si number density = 22.556725 Si / 1000 Ang^3
#
#
#
# Elastic Constant Matrix: (Units=GPa)
#
#
# Indices 1 2 3 4 5 6 
#
# 1 49.7735 29.8284 13.5652 0.0000 0.0000 0.0000
# 2 29.8284 49.7735 13.5652 0.0000 0.0000 0.0000
# 3 13.5652 13.5652 95.0373 0.0000 0.0000 0.0000
# 4 0.0000 0.0000 0.0000 12.9778 0.0000 0.0000
# 5 0.0000 0.0000 0.0000 0.0000 12.9778 0.0000
# 6 0.0000 0.0000 0.0000 0.0000 0.0000 9.9726
#
#
#
# Elastic Compliance Matrix: (Units=1/GPa)
#
#
# Indices 1 2 3 4 5 6 
#
# 1 0.031671 -0.018466 -0.001885 0.000000 0.000000 0.000000
# 2 -0.018466 0.031671 -0.001885 0.000000 0.000000 0.000000
# 3 -0.001885 -0.001885 0.011060 0.000000 0.000000 0.000000
# 4 0.000000 0.000000 0.000000 0.077054 0.000000 0.000000
# 5 0.000000 0.000000 0.000000 0.000000 0.077054 0.000000
# 6 0.000000 0.000000 0.000000 0.000000 0.000000 0.100275
#
#
# Mechanical properties :
#
#
# Convention : Reuss Voigt Hill
#
# Bulk Modulus (GPa) = 33.41035 34.27796 33.84416
# Shear Modulus (GPa) = 13.04680 16.36068 14.70374
#
# Velocity S-wave (km/s) = 2.40760 2.69608 2.55592
# Velocity P-wave (km/s) = 4.75106 4.99211 4.87308
#
# Compressibility (1/GPa) = 0.02993085
#
# Stress axis : x y z
#
# Youngs Moduli (GPa) = 31.57435 31.57435 90.41395
#
# Poissons Ratio (x) = 0.58306 0.17041
# Poissons Ratio (y) = 0.58306 0.17041
# Poissons Ratio (z) = 0.05951 0.05951
#
# Static dielectric constant tensor:
#      x y z
#    x 2.010570 0.000000 0.000000 
#    y 0.000000 2.010570 0.000000 
#    z 0.000000 0.000000 1.801360 
# 
# From -- ./inp_files/464.got.cif
#   From: 2010.05.17/outbox.cif.g08.bks.cpg/sg171_1_cif.got.tgz:464.got - 2010.05.20 11:16:09.
