data_PCOD9580273
_publ_section_title
;
Structure prediction by ZEFSAII (Michael W. Deem and Ramdas Pophale) SiO2 
 PCOD9580273
Probable space group: P 65
;
_chemical_formula_sum "Si O2"
_cell_formula_units_Z 42
_cell_length_a 23.131108
_cell_length_b 23.131108
_cell_length_c 5.440951
_cell_angle_alpha 90.000000
_cell_angle_beta 90.000000
_cell_angle_gamma 120.000000
_cell_volume 2521.147873
_symmetry_space_group_name_H-M "P 65"
_symmetry_group_IT_number 170
_symmetry_cell_setting 'hexagonal'
loop_
_space_group_symop_operation_xyz
x,y,z
x-y,x,5/6+z
-y,x-y,2/3+z
-x,-y,1/2+z
-x+y,-x,1/3+z
y,-x+y,1/6+z
loop_
_atom_site_type_symbol
_atom_site_label
_atom_site_fract_x
_atom_site_fract_y
_atom_site_fract_z
Si Si1 0.457666 0.924978 0.644530
Si Si2 0.554483 0.793079 0.693331
Si Si3 0.992942 0.403100 0.599542
Si Si4 0.546845 0.660924 0.597557
Si Si5 0.816265 0.405865 0.201493
Si Si6 0.317727 0.605258 0.036463
Si Si7 0.866295 0.305881 0.358927
O O1 0.533503 0.940896 0.614980
O O2 0.401703 0.919102 0.451584
O O3 0.457035 0.979067 0.827042
O O4 0.426170 0.854609 0.776197
O O5 0.575683 0.735574 0.699799
O O6 0.474053 0.752446 0.697070
O O7 0.572573 0.832184 0.432561
O O8 0.575465 0.839327 0.938740
O O9 0.946571 0.346006 0.407507
O O10 0.055473 0.406081 0.739119
O O11 0.476981 0.643026 0.471837
O O12 0.845232 0.363882 0.339642
O O13 0.741061 0.362337 0.117833
O O14 0.271604 0.634627 0.134725
#
# Coordination Sequence:
#
# PCOD9580273 Si02
#       7
#     6   6   6   6   6   6   6
#     4  11  19  33  53  80  96 119 166 216 264 292
#     4  11  27  38  52  72 101 130 155 208 252 321
#     4  11  20  34  57  75  94 127 161 216 251 318
#     4  11  23  34  55  72 101 122 167 207 263 302
#     4  10  22  32  49  67  96 124 161 204 247 308
#     4  11  23  32  47  60  89 128 168 190 241 307
#     4  11  24  41  53  72  99 128 160 197 260 312
#
# _framework density 16.659078999999998
#
# number of rings (size 3 to 8) (size 9 to 14) (size 15 to 20)
#    0.000    1.143    2.857    4.286   16.000    0.000 
#    0.000    0.000    0.000    0.000    0.000    0.000 
#    0.000    0.000    0.000    0.000    0.000    0.000 
#
# Total GULP energy -233859.651794 kJ/mol
# GULP energy per Si atom -5568.086947 kJ/mol
# Density = 1.662116 g / cm^3
# Si number density = 16.659079 Si / 1000 Ang^3
#
#
#
# Elastic Constant Matrix: (Units=GPa)
#
#
# Indices 1 2 3 4 5 6 
#
# 1 49.5148 18.4074 19.1644 0.0000 0.0000 0.0000
# 2 18.4074 49.5148 19.1644 0.0000 0.0000 0.0000
# 3 19.1644 19.1644 73.0011 0.0000 0.0000 0.0000
# 4 0.0000 0.0000 0.0000 17.6380 0.0000 0.0000
# 5 0.0000 0.0000 0.0000 0.0000 17.6380 0.0000
# 6 0.0000 0.0000 0.0000 0.0000 0.0000 15.5537
#
#
#
# Elastic Compliance Matrix: (Units=1/GPa)
#
#
# Indices 1 2 3 4 5 6 
#
# 1 0.024715 -0.007432 -0.004537 0.000000 0.000000 0.000000
# 2 -0.007432 0.024715 -0.004537 0.000000 0.000000 0.000000
# 3 -0.004537 -0.004537 0.016081 0.000000 0.000000 0.000000
# 4 0.000000 0.000000 0.000000 0.056696 0.000000 0.000000
# 5 0.000000 0.000000 0.000000 0.000000 0.056696 0.000000
# 6 0.000000 0.000000 0.000000 0.000000 0.000000 0.064293
#
#
# Mechanical properties :
#
#
# Convention : Reuss Voigt Hill
#
# Bulk Modulus (GPa) = 30.77108 31.72258 31.24683
# Shear Modulus (GPa) = 17.41915 17.85224 17.63569
#
# Velocity S-wave (km/s) = 3.23712 3.27712 3.25718
# Velocity P-wave (km/s) = 5.69939 5.77952 5.73960
#
# Compressibility (1/GPa) = 0.03249804
#
# Stress axis : x y z
#
# Youngs Moduli (GPa) = 40.46149 40.46149 62.18657
#
# Poissons Ratio (x) = 0.30070 0.28215
# Poissons Ratio (y) = 0.30070 0.28215
# Poissons Ratio (z) = 0.18358 0.18358
#
# Static dielectric constant tensor:
#      x y z
#    x 1.714000 0.000000 0.000000 
#    y 0.000000 1.714000 0.000000 
#    z 0.000000 0.000000 1.962930 
# 
# From -- ./inp_files/330.got.cif
#   From: 2010.05.17/outbox.cif.g08.bks.cpg/sg170_cif.got.tgz:330.got - 2010.05.20 11:14:30.
