data_PCOD9580769
_publ_section_title
;
Structure prediction by ZEFSAII (Michael W. Deem and Ramdas Pophale) SiO2 
 PCOD9580769
Probable space group: P 62
;
_chemical_formula_sum "Si O2"
_cell_formula_units_Z 39
_cell_length_a 11.750291
_cell_length_b 11.750291
_cell_length_c 13.152407
_cell_angle_alpha 90.000000
_cell_angle_beta 90.000000
_cell_angle_gamma 120.000000
_cell_volume 1572.653753
_symmetry_space_group_name_H-M "P 62"
_symmetry_group_IT_number 171
_symmetry_cell_setting 'hexagonal'
loop_
_space_group_symop_operation_xyz
x,y,z
x-y,x,1/3+z
-y,x-y,2/3+z
-x,-y,z
-x+y,-x,1/3+z
y,-x+y,2/3+z
loop_
_atom_site_type_symbol
_atom_site_label
_atom_site_fract_x
_atom_site_fract_y
_atom_site_fract_z
Si Si1 0.129947 0.624375 0.942960
Si Si2 0.063060 0.771613 0.785300
Si Si3 0.213001 0.062256 0.809560
Si Si4 0.686238 0.957944 0.609381
Si Si5 0.525914 0.740360 0.457546
Si Si6 0.500000 0.500000 0.081673
Si Si7 0.081690 0.642248 0.601643
O O1 0.092572 0.724973 0.891413
O O2 0.173965 0.563162 0.853782
O O3 0.000000 0.500000 0.988983
O O4 0.240567 0.699101 0.026232
O O5 0.141170 0.742566 0.695754
O O6 0.913339 0.663797 0.761209
O O7 0.086712 0.918848 0.788919
O O8 0.274841 0.112257 0.698042
O O9 0.225972 0.182465 0.875912
O O10 0.302688 0.017886 0.873411
O O11 0.572415 0.860042 0.535261
O O12 0.618307 0.023715 0.675058
O O13 0.411114 0.529403 0.163871
O O14 0.000000 0.500000 0.653996
#
# Coordination Sequence:
#
# PCOD9580769 Si02
#       7
#     6   6   6   6   6   3   6
#     4  10  25  48  72 104 149 201 255 327 403 492
#     4  11  22  44  73 108 153 199 254 333 406 498
#     4  11  23  43  72 114 156 203 264 335 416 499
#     4  11  25  45  72 111 153 213 261 337 409 495
#     4  11  26  47  71 104 150 208 266 324 411 491
#     4   8  22  42  68 102 144 200 256 336 390 474
#     4   9  18  39  67 101 142 193 254 322 399 475
#
# _framework density 24.798848
#
# number of rings (size 3 to 8) (size 9 to 14) (size 15 to 20)
#    0.462    1.231    1.538    2.308    5.385    0.615 
#    8.308    3.077    0.000    0.000    0.000    0.000 
#    0.000    0.000    0.000    0.000    0.000    0.000 
#
# Total GULP energy -217170.724822 kJ/mol
# GULP energy per Si atom -5568.480124 kJ/mol
# Density = 2.474240 g / cm^3
# Si number density = 24.798848 Si / 1000 Ang^3
#
#
#
# Elastic Constant Matrix: (Units=GPa)
#
#
# Indices 1 2 3 4 5 6 
#
# 1 60.4558 28.1627 35.9944 0.0000 0.0000 0.0000
# 2 28.1627 60.4558 35.9944 0.0000 0.0000 0.0000
# 3 35.9944 35.9944 132.9160 0.0000 0.0000 0.0000
# 4 0.0000 0.0000 0.0000 35.3035 0.0000 0.0000
# 5 0.0000 0.0000 0.0000 0.0000 35.3035 0.0000
# 6 0.0000 0.0000 0.0000 0.0000 0.0000 16.1465
#
#
#
# Elastic Compliance Matrix: (Units=1/GPa)
#
#
# Indices 1 2 3 4 5 6 
#
# 1 0.022717 -0.008250 -0.003918 0.000000 0.000000 0.000000
# 2 -0.008250 0.022717 -0.003918 0.000000 0.000000 0.000000
# 3 -0.003918 -0.003918 0.009645 0.000000 0.000000 0.000000
# 4 0.000000 0.000000 0.000000 0.028326 0.000000 0.000000
# 5 0.000000 0.000000 0.000000 0.000000 0.028326 0.000000
# 6 0.000000 0.000000 0.000000 0.000000 0.000000 0.061933
#
#
# Mechanical properties :
#
#
# Convention : Reuss Voigt Hill
#
# Bulk Modulus (GPa) = 43.65227 50.45894 47.05560
# Shear Modulus (GPa) = 23.42255 27.59578 25.50916
#
# Velocity S-wave (km/s) = 3.07661 3.33946 3.21073
# Velocity P-wave (km/s) = 5.50104 5.93808 5.72373
#
# Compressibility (1/GPa) = 0.02290832
#
# Stress axis : x y z
#
# Youngs Moduli (GPa) = 44.02063 44.02063 103.67624
#
# Poissons Ratio (x) = 0.36316 0.40617
# Poissons Ratio (y) = 0.36316 0.40617
# Poissons Ratio (z) = 0.17246 0.17246
#
# Static dielectric constant tensor:
#      x y z
#    x 2.063770 0.000000 0.000000 
#    y 0.000000 2.063770 0.000000 
#    z 0.000000 0.000000 1.985970 
# 
# From -- ./inp_files/2013.got.cif
#   From: 2010.05.17/outbox.cif.g08.bks.cpg/sg171_2_cif.got.tgz:2013.got - 2010.05.20 11:16:09.
