data_PCOD9580088
_publ_section_title
;
Structure prediction by ZEFSAII (Michael W. Deem and Ramdas Pophale) SiO2 
 PCOD9580088
Probable space group: P 61
;
_chemical_formula_sum "Si O2"
_cell_formula_units_Z 48
_cell_length_a 17.468160
_cell_length_b 17.468160
_cell_length_c 9.215783
_cell_angle_alpha 90.000000
_cell_angle_beta 90.000000
_cell_angle_gamma 120.000000
_cell_volume 2435.326498
_symmetry_space_group_name_H-M "P 61"
_symmetry_group_IT_number 169
_symmetry_cell_setting 'hexagonal'
loop_
_space_group_symop_operation_xyz
x,y,z
x-y,x,1/6+z
-y,x-y,1/3+z
-x,-y,1/2+z
-x+y,-x,2/3+z
y,-x+y,5/6+z
loop_
_atom_site_type_symbol
_atom_site_label
_atom_site_fract_x
_atom_site_fract_y
_atom_site_fract_z
Si Si1 0.366144 0.213993 0.409070
Si Si2 0.406249 0.258011 0.734724
Si Si3 0.260781 0.702245 0.203972
Si Si4 0.994052 0.577898 0.543779
Si Si5 0.649994 0.949088 0.736491
Si Si6 0.374766 0.758125 0.568234
Si Si7 0.858750 0.297933 0.265921
Si Si8 0.488990 0.920838 0.935889
O O1 0.366282 0.207992 0.584539
O O2 0.471463 0.268942 0.367454
O O3 0.331610 0.121796 0.322751
O O4 0.316557 0.268794 0.378441
O O5 0.374474 0.324296 0.790839
O O6 0.512278 0.322446 0.711484
O O7 0.395787 0.195228 0.867421
O O8 0.343968 0.690732 0.230981
O O9 0.179796 0.639560 0.310258
O O10 0.224774 0.650686 0.053258
O O11 0.929532 0.508651 0.663911
O O12 0.076285 0.644096 0.638562
O O13 0.022635 0.533859 0.415986
O O14 0.606927 0.907906 0.581138
O O15 0.577919 0.955496 0.839540
O O16 0.457415 0.792742 0.460889
#
# Coordination Sequence:
#
# PCOD9580088 Si02
#       8
#     6   6   6   6   6   6   6   6
#     4  11  25  44  70  96 131 175 220 279 349 421
#     4  12  25  42  60  92 131 176 228 279 343 396
#     4  11  23  38  61  84 129 171 223 270 325 382
#     4  12  24  40  64  86 130 177 224 292 332 401
#     4  11  24  44  68  97 127 168 224 279 347 420
#     4  12  21  41  56  91 133 180 236 279 315 383
#     4  12  25  40  64  93 130 174 235 281 338 395
#     4  11  21  41  57  91 121 171 222 267 331 392
#
# _framework density 19.709883999999999
#
# number of rings (size 3 to 8) (size 9 to 14) (size 15 to 20)
#    0.000    0.500    6.250    3.750    1.750    2.000 
#    0.000    0.000    0.000    0.000    0.000    1.750 
#    0.000    0.000    0.000    0.000    0.000    0.000 
#
# Total GULP energy -268192.852195 kJ/mol
# GULP energy per Si atom -5587.351087 kJ/mol
# Density = 1.966502 g / cm^3
# Si number density = 19.709884 Si / 1000 Ang^3
#
#
#
# Elastic Constant Matrix: (Units=GPa)
#
#
# Indices 1 2 3 4 5 6 
#
# 1 74.8895 33.4857 35.1000 0.0000 0.0000 0.0000
# 2 33.4857 74.8895 35.1000 0.0000 0.0000 0.0000
# 3 35.1000 35.1000 125.4743 0.0000 0.0000 0.0000
# 4 0.0000 0.0000 0.0000 33.4527 0.0000 0.0000
# 5 0.0000 0.0000 0.0000 0.0000 33.4527 0.0000
# 6 0.0000 0.0000 0.0000 0.0000 0.0000 20.7019
#
#
#
# Elastic Compliance Matrix: (Units=1/GPa)
#
#
# Indices 1 2 3 4 5 6 
#
# 1 0.017711 -0.006442 -0.003152 0.000000 0.000000 0.000000
# 2 -0.006442 0.017711 -0.003152 0.000000 0.000000 0.000000
# 3 -0.003152 -0.003152 0.009733 0.000000 0.000000 0.000000
# 4 0.000000 0.000000 0.000000 0.029893 0.000000 0.000000
# 5 0.000000 0.000000 0.000000 0.000000 0.029893 0.000000
# 6 0.000000 0.000000 0.000000 0.000000 0.000000 0.048305
#
#
# Mechanical properties :
#
#
# Convention : Reuss Voigt Hill
#
# Bulk Modulus (GPa) = 50.85916 53.62496 52.24206
# Shear Modulus (GPa) = 26.98435 28.95930 27.97183
#
# Velocity S-wave (km/s) = 3.70412 3.83727 3.77128
# Velocity P-wave (km/s) = 6.64484 6.84829 6.74733
#
# Compressibility (1/GPa) = 0.01966214
#
# Stress axis : x y z
#
# Youngs Moduli (GPa) = 56.46282 56.46282 102.73832
#
# Poissons Ratio (x) = 0.36371 0.32387
# Poissons Ratio (y) = 0.36371 0.32387
# Poissons Ratio (z) = 0.17799 0.17799
#
# Static dielectric constant tensor:
#      x y z
#    x 1.722520 0.000000 0.000000 
#    y 0.000000 1.722520 0.000000 
#    z 0.000000 0.000000 1.766710 
# 
# From -- ./inp_files/735.got.cif
#   From: 2010.05.17/outbox.cif.g08.bks.cpg/sg169_cif.got.tgz:735.got - 2010.05.20 11:12:54.
