data_PCOD9580979
_publ_section_title
;
Structure prediction by ZEFSAII (Michael W. Deem and Ramdas Pophale) SiO2 
 PCOD9580979
Probable space group: P 64
;
_chemical_formula_sum "Si O2"
_cell_formula_units_Z 24
_cell_length_a 11.180804
_cell_length_b 11.180804
_cell_length_c 8.652661
_cell_angle_alpha 90.000000
_cell_angle_beta 90.000000
_cell_angle_gamma 120.000000
_cell_volume 936.755797
_symmetry_space_group_name_H-M "P 64"
_symmetry_group_IT_number 172
_symmetry_cell_setting 'hexagonal'
loop_
_space_group_symop_operation_xyz
x,y,z
x-y,x,2/3+z
-y,x-y,1/3+z
-x,-y,z
-x+y,-x,2/3+z
y,-x+y,1/3+z
loop_
_atom_site_type_symbol
_atom_site_label
_atom_site_fract_x
_atom_site_fract_y
_atom_site_fract_z
Si Si1 0.292697 0.912046 0.637750
Si Si2 0.299923 0.378003 0.806993
Si Si3 0.343174 0.565221 0.096311
Si Si4 0.249917 0.452217 0.466425
O O1 0.153721 0.858682 0.538191
O O2 0.250726 0.813636 0.789312
O O3 0.287013 0.915001 0.133159
O O4 0.378685 0.066391 0.692689
O O5 0.138557 0.516048 0.859563
O O6 0.296563 0.436726 0.639122
O O7 0.365839 0.497106 0.940259
O O8 0.317728 0.614155 0.420593
#
# Coordination Sequence:
#
# PCOD9580979 Si02
#       4
#     6   6   6   6
#     4  10  25  50  81 122 174 233 285 381 456 526
#     4  10  29  48  80 131 174 229 305 371 459 555
#     4  10  25  48  82 123 172 225 291 393 439 525
#     4  12  26  51  85 127 174 247 298 373 478 545
#
# _framework density 25.620336999999999
#
# number of rings (size 3 to 8) (size 9 to 14) (size 15 to 20)
#    1.500    0.000    0.000    2.250    7.000    3.000 
#    4.500    3.750    0.000    0.000    0.000    0.000 
#    0.000    0.000    0.000    0.000    0.000    0.000 
#
# Total GULP energy -133718.711640 kJ/mol
# GULP energy per Si atom -5571.612985 kJ/mol
# Density = 2.556202 g / cm^3
# Si number density = 25.620337 Si / 1000 Ang^3
#
#
#
# Elastic Constant Matrix: (Units=GPa)
#
#
# Indices 1 2 3 4 5 6 
#
# 1 200.7578 129.7918 106.1323 0.0000 0.0000 0.0000
# 2 129.7918 200.7578 106.1323 0.0000 0.0000 0.0000
# 3 106.1323 106.1323 161.0931 0.0000 0.0000 0.0000
# 4 0.0000 0.0000 0.0000 58.8296 0.0000 0.0000
# 5 0.0000 0.0000 0.0000 0.0000 58.8296 0.0000
# 6 0.0000 0.0000 0.0000 0.0000 0.0000 35.4830
#
#
#
# Elastic Compliance Matrix: (Units=1/GPa)
#
#
# Indices 1 2 3 4 5 6 
#
# 1 0.009667 -0.004424 -0.003455 0.000000 0.000000 0.000000
# 2 -0.004424 0.009667 -0.003455 0.000000 0.000000 0.000000
# 3 -0.003455 -0.003455 0.010760 0.000000 0.000000 0.000000
# 4 0.000000 0.000000 0.000000 0.016998 0.000000 0.000000
# 5 0.000000 0.000000 0.000000 0.000000 0.016998 0.000000
# 6 0.000000 0.000000 0.000000 0.000000 0.000000 0.028183
#
#
# Mechanical properties :
#
#
# Convention : Reuss Voigt Hill
#
# Bulk Modulus (GPa) = 134.61982 138.52462 136.57222
# Shear Modulus (GPa) = 42.58360 45.33194 43.95777
#
# Velocity S-wave (km/s) = 4.08131 4.21096 4.14664
# Velocity P-wave (km/s) = 8.65261 8.82204 8.73774
#
# Compressibility (1/GPa) = 0.00742833
#
# Stress axis : x y z
#
# Youngs Moduli (GPa) = 103.43946 103.43946 92.93955
#
# Poissons Ratio (x) = 0.45759 0.32108
# Poissons Ratio (y) = 0.45759 0.32108
# Poissons Ratio (z) = 0.35735 0.35735
#
# Static dielectric constant tensor:
#      x y z
#    x 2.097060 0.000000 0.000000 
#    y 0.000000 2.097060 0.000000 
#    z 0.000000 0.000000 2.426450 
# 
# From -- ./inp_files/100.got.cif
#   From: 2010.05.17/outbox.cif.g08.bks.cpg/sg172_1_cif.got.tgz:100.got - 2010.05.20 11:19:57.
