data_PCOD9580958
_publ_section_title
;
Structure prediction by ZEFSAII (Michael W. Deem and Ramdas Pophale) SiO2 
 PCOD9580958
Probable space group: P 64
;
_chemical_formula_sum "Si O2"
_cell_formula_units_Z 39
_cell_length_a 14.157980
_cell_length_b 14.157980
_cell_length_c 10.460116
_cell_angle_alpha 90.000000
_cell_angle_beta 90.000000
_cell_angle_gamma 120.000000
_cell_volume 1815.807148
_symmetry_space_group_name_H-M "P 64"
_symmetry_group_IT_number 172
_symmetry_cell_setting 'hexagonal'
loop_
_space_group_symop_operation_xyz
x,y,z
x-y,x,2/3+z
-y,x-y,1/3+z
-x,-y,z
-x+y,-x,2/3+z
y,-x+y,1/3+z
loop_
_atom_site_type_symbol
_atom_site_label
_atom_site_fract_x
_atom_site_fract_y
_atom_site_fract_z
Si Si1 0.829894 0.443516 0.754460
Si Si2 0.283441 0.919035 0.599956
Si Si3 0.635594 0.919035 0.841166
Si Si4 0.363958 0.113693 0.433164
Si Si5 0.886307 0.636042 0.341291
Si Si6 0.613622 0.443516 0.686662
Si Si7 0.000000 0.500000 0.553894
O O1 0.862844 0.510840 0.885996
O O2 0.852058 0.343229 0.760313
O O3 0.707982 0.415964 0.720561
O O4 0.916886 0.516051 0.643828
O O5 0.164171 0.827222 0.644714
O O6 0.340488 0.000000 0.720561
O O7 0.287844 0.990182 0.478100
O O8 0.663051 0.827222 0.796408
O O9 0.702338 0.990182 0.963022
O O10 0.510840 0.862844 0.888459
O O11 0.356277 0.178139 0.553894
O O12 0.852058 0.508829 0.347476
O O13 0.599165 0.516051 0.797294
#
# Coordination Sequence:
#
# PCOD9580958 Si02
#       7
#     6   6   6   6   6   6   3
#     4  12  25  39  62  89 134 186 234 280 341 420
#     4  10  22  42  63  92 132 181 231 293 347 417
#     4  10  22  42  63  92 132 181 231 293 347 417
#     4  10  22  38  63  93 129 177 229 283 349 416
#     4  10  22  38  63  93 129 177 229 283 349 416
#     4  12  25  39  62  89 134 186 234 280 341 420
#     4  12  24  44  54  88 128 180 242 282 324 402
#
# _framework density 21.478052000000002
#
# number of rings (size 3 to 8) (size 9 to 14) (size 15 to 20)
#    0.000    1.231    3.077    1.846    6.462    7.385 
#    0.000    0.000    0.000    0.000    0.000    0.000 
#    0.000  104.615    0.000    0.000    0.000    0.000 
#
# Total GULP energy -217552.085166 kJ/mol
# GULP energy per Si atom -5578.258594 kJ/mol
# Density = 2.142917 g / cm^3
# Si number density = 21.478052 Si / 1000 Ang^3
#
#
#
# Elastic Constant Matrix: (Units=GPa)
#
#
# Indices 1 2 3 4 5 6 
#
# 1 91.3127 49.2755 36.7139 0.0000 0.0000 0.0000
# 2 49.2755 91.3127 36.7139 0.0000 0.0000 0.0000
# 3 36.7139 36.7139 78.4984 0.0000 0.0000 0.0000
# 4 0.0000 0.0000 0.0000 45.7717 0.0000 0.0000
# 5 0.0000 0.0000 0.0000 0.0000 45.7717 0.0000
# 6 0.0000 0.0000 0.0000 0.0000 0.0000 21.0186
#
#
#
# Elastic Compliance Matrix: (Units=1/GPa)
#
#
# Indices 1 2 3 4 5 6 
#
# 1 0.016600 -0.007188 -0.004402 0.000000 0.000000 0.000000
# 2 -0.007188 0.016600 -0.004402 0.000000 0.000000 0.000000
# 3 -0.004402 -0.004402 0.016857 0.000000 0.000000 0.000000
# 4 0.000000 0.000000 0.000000 0.021848 0.000000 0.000000
# 5 0.000000 0.000000 0.000000 0.000000 0.021848 0.000000
# 6 0.000000 0.000000 0.000000 0.000000 0.000000 0.047577
#
#
# Mechanical properties :
#
#
# Convention : Reuss Voigt Hill
#
# Bulk Modulus (GPa) = 55.33176 56.28112 55.80644
# Shear Modulus (GPa) = 27.88027 31.74044 29.81035
#
# Velocity S-wave (km/s) = 3.60680 3.84840 3.72956
# Velocity P-wave (km/s) = 6.56988 6.78290 6.67724
#
# Compressibility (1/GPa) = 0.01807280
#
# Stress axis : x y z
#
# Youngs Moduli (GPa) = 60.23990 60.23990 59.32315
#
# Poissons Ratio (x) = 0.43301 0.26114
# Poissons Ratio (y) = 0.43301 0.26114
# Poissons Ratio (z) = 0.26518 0.26518
#
# Static dielectric constant tensor:
#      x y z
#    x 1.814900 0.000000 0.000000 
#    y 0.000000 1.814900 0.000000 
#    z 0.000000 0.000000 1.832620 
# 
# From -- ./inp_files/1075.got.cif
#   From: 2010.05.17/outbox.cif.g08.bks.cpg/sg172_1_cif.got.tgz:1075.got - 2010.05.20 11:19:57.
