data_PCOD9580124
_publ_section_title
;
Structure prediction by ZEFSAII (Michael W. Deem and Ramdas Pophale) SiO2 
 PCOD9580124
Probable space group: P 61
;
_chemical_formula_sum "Si O2"
_cell_formula_units_Z 36
_cell_length_a 10.328675
_cell_length_b 10.328675
_cell_length_c 15.915881
_cell_angle_alpha 90.000000
_cell_angle_beta 90.000000
_cell_angle_gamma 120.000000
_cell_volume 1470.450941
_symmetry_space_group_name_H-M "P 61"
_symmetry_group_IT_number 169
_symmetry_cell_setting 'hexagonal'
loop_
_space_group_symop_operation_xyz
x,y,z
x-y,x,1/6+z
-y,x-y,1/3+z
-x,-y,1/2+z
-x+y,-x,2/3+z
y,-x+y,5/6+z
loop_
_atom_site_type_symbol
_atom_site_label
_atom_site_fract_x
_atom_site_fract_y
_atom_site_fract_z
Si Si1 0.884657 0.053798 0.784140
Si Si2 0.851087 0.538563 0.544529
Si Si3 0.550823 0.168279 0.666660
Si Si4 0.779083 0.195124 0.545359
Si Si5 0.598660 0.618399 0.546021
Si Si6 0.304501 0.817072 0.338221
O O1 0.839017 0.178104 0.806162
O O2 0.004794 0.095551 0.710002
O O3 0.735001 0.920790 0.742028
O O4 0.813582 0.366051 0.531558
O O5 0.744707 0.605754 0.521447
O O6 0.020842 0.630563 0.511902
O O7 0.856126 0.562777 0.644112
O O8 0.661930 0.125612 0.621126
O O9 0.534399 0.269227 0.595154
O O10 0.632940 0.231753 0.756489
O O11 0.694058 0.089849 0.466657
O O12 0.469616 0.446408 0.530120
#
# Coordination Sequence:
#
# PCOD9580124 Si02
#       6
#     6   6   6   6   6   6
#     4  12  27  53  73 111 154 214 264 308 396 483
#     4  11  26  48  69 113 152 195 259 320 399 462
#     4  11  25  46  80 112 153 203 263 325 401 467
#     4  12  24  45  80 109 149 201 251 324 396 459
#     4  11  27  43  74 111 152 193 256 328 384 460
#     4  11  25  49  76 114 154 202 261 327 396 469
#
# _framework density 24.482285999999998
#
# number of rings (size 3 to 8) (size 9 to 14) (size 15 to 20)
#    0.000    0.667    6.667    0.000    9.333    2.667 
#    3.000    0.000    0.000    0.000    0.000    0.000 
#    0.000    0.000    0.000    0.000    0.000    0.000 
#
# Total GULP energy -200715.081697 kJ/mol
# GULP energy per Si atom -5575.418936 kJ/mol
# Density = 2.442656 g / cm^3
# Si number density = 24.482286 Si / 1000 Ang^3
#
#
#
# Elastic Constant Matrix: (Units=GPa)
#
#
# Indices 1 2 3 4 5 6 
#
# 1 67.4979 16.7947 49.7947 0.0000 0.0000 0.0000
# 2 16.7947 67.4979 49.7947 0.0000 0.0000 0.0000
# 3 49.7947 49.7947 168.9374 0.0000 0.0000 0.0000
# 4 0.0000 0.0000 0.0000 52.0146 0.0000 0.0000
# 5 0.0000 0.0000 0.0000 0.0000 52.0146 0.0000
# 6 0.0000 0.0000 0.0000 0.0000 0.0000 25.3516
#
#
#
# Elastic Compliance Matrix: (Units=1/GPa)
#
#
# Indices 1 2 3 4 5 6 
#
# 1 0.018962 -0.000760 -0.005365 0.000000 0.000000 0.000000
# 2 -0.000760 0.018962 -0.005365 0.000000 0.000000 0.000000
# 3 -0.005365 -0.005365 0.009082 0.000000 0.000000 0.000000
# 4 0.000000 0.000000 0.000000 0.019225 0.000000 0.000000
# 5 0.000000 0.000000 0.000000 0.000000 0.019225 0.000000
# 6 0.000000 0.000000 0.000000 0.000000 0.000000 0.039445
#
#
# Mechanical properties :
#
#
# Convention : Reuss Voigt Hill
#
# Bulk Modulus (GPa) = 41.62167 59.63349 50.62758
# Shear Modulus (GPa) = 32.07337 38.37944 35.22640
#
# Velocity S-wave (km/s) = 3.62341 3.96364 3.79734
# Velocity P-wave (km/s) = 5.87734 6.73483 6.32064
#
# Compressibility (1/GPa) = 0.02402595
#
# Stress axis : x y z
#
# Youngs Moduli (GPa) = 52.73593 52.73593 110.10649
#
# Poissons Ratio (x) = 0.04009 0.59074
# Poissons Ratio (y) = 0.04009 0.59074
# Poissons Ratio (z) = 0.28294 0.28294
#
# Static dielectric constant tensor:
#      x y z
#    x 2.041500 0.000000 0.000000 
#    y 0.000000 2.041500 0.000000 
#    z 0.000000 0.000000 1.960050 
# 
# From -- ./inp_files/1161.got.cif
#   From: 2010.05.17/outbox.cif.g08.bks.cpg/sg169_cif.got.tgz:1161.got - 2010.05.20 11:12:54.
