data_PCOD9580961
_publ_section_title
;
Structure prediction by ZEFSAII (Michael W. Deem and Ramdas Pophale) SiO2 
 PCOD9580961
Probable space group: P 64
;
_chemical_formula_sum "Si O2"
_cell_formula_units_Z 45
_cell_length_a 16.712699
_cell_length_b 16.712699
_cell_length_c 9.406839
_cell_angle_alpha 90.000000
_cell_angle_beta 90.000000
_cell_angle_gamma 120.000000
_cell_volume 2275.451199
_symmetry_space_group_name_H-M "P 64"
_symmetry_group_IT_number 172
_symmetry_cell_setting 'hexagonal'
loop_
_space_group_symop_operation_xyz
x,y,z
x-y,x,2/3+z
-y,x-y,1/3+z
-x,-y,z
-x+y,-x,2/3+z
y,-x+y,1/3+z
loop_
_atom_site_type_symbol
_atom_site_label
_atom_site_fract_x
_atom_site_fract_y
_atom_site_fract_z
Si Si1 0.223910 0.831579 0.700010
Si Si2 0.681601 0.146275 0.223945
Si Si3 0.375297 0.376933 0.260707
Si Si4 0.878685 0.396851 0.401168
Si Si5 0.500000 0.500000 0.477108
Si Si6 0.782543 0.272084 0.968490
Si Si7 0.317958 0.748579 0.497608
Si Si8 0.033100 0.678030 0.619540
O O1 0.244303 0.814542 0.861819
O O2 0.265806 0.776886 0.613162
O O3 0.112778 0.777094 0.675999
O O4 0.269871 0.933676 0.631735
O O5 0.586166 0.091424 0.139289
O O6 0.656453 0.179933 0.368312
O O7 0.716890 0.072880 0.244717
O O8 0.746283 0.231950 0.124194
O O9 0.463171 0.417317 0.364528
O O10 0.322533 0.429591 0.307623
O O11 0.386200 0.398044 0.093535
O O12 0.922401 0.423134 0.245436
O O13 0.767258 0.342792 0.425214
O O14 0.917387 0.341816 0.489481
O O15 0.751278 0.342704 0.899211
#
# Coordination Sequence:
#
# PCOD9580961 Si02
#       8
#     6   6   6   6   3   6   6   6
#     4  10  22  40  61  83 113 155 201 255 302 373
#     4  12  22  39  61  81 122 159 207 259 305 362
#     4  11  22  40  60  82 114 151 199 251 312 370
#     4  11  24  37  54  82 115 160 208 256 298 350
#     4  12  22  34  58  82 114 156 204 258 316 342
#     4  11  26  39  59  91 119 158 208 258 312 365
#     4  11  23  40  57  81 117 164 208 252 297 360
#     4  10  22  41  59  81 111 157 208 244 314 372
#
# _framework density 19.776297
#
# number of rings (size 3 to 8) (size 9 to 14) (size 15 to 20)
#    0.000    1.067    2.667    4.800    5.600    0.000 
#    0.000    0.000    0.000    0.000    0.000    0.000 
#    0.000   12.800    0.000    0.000    0.000    0.000 
#
# Total GULP energy -250507.584426 kJ/mol
# GULP energy per Si atom -5566.835209 kJ/mol
# Density = 1.973128 g / cm^3
# Si number density = 19.776297 Si / 1000 Ang^3
#
#
#
# Elastic Constant Matrix: (Units=GPa)
#
#
# Indices 1 2 3 4 5 6 
#
# 1 72.1783 34.1992 11.7509 0.0000 0.0000 0.0000
# 2 34.1992 72.1783 11.7509 0.0000 0.0000 0.0000
# 3 11.7509 11.7509 84.9539 0.0000 0.0000 0.0000
# 4 0.0000 0.0000 0.0000 21.0238 0.0000 0.0000
# 5 0.0000 0.0000 0.0000 0.0000 21.0238 0.0000
# 6 0.0000 0.0000 0.0000 0.0000 0.0000 18.9895
#
#
#
# Elastic Compliance Matrix: (Units=1/GPa)
#
#
# Indices 1 2 3 4 5 6 
#
# 1 0.018014 -0.008317 -0.001341 0.000000 0.000000 0.000000
# 2 -0.008317 0.018014 -0.001341 0.000000 0.000000 0.000000
# 3 -0.001341 -0.001341 0.012142 0.000000 0.000000 0.000000
# 4 0.000000 0.000000 0.000000 0.047565 0.000000 0.000000
# 5 0.000000 0.000000 0.000000 0.000000 0.047565 0.000000
# 6 0.000000 0.000000 0.000000 0.000000 0.000000 0.052661
#
#
# Mechanical properties :
#
#
# Convention : Reuss Voigt Hill
#
# Bulk Modulus (GPa) = 38.21069 38.30136 38.25603
# Shear Modulus (GPa) = 22.05729 23.64805 22.85267
#
# Velocity S-wave (km/s) = 3.34329 3.46175 3.40304
# Velocity P-wave (km/s) = 5.85379 5.94875 5.90146
#
# Compressibility (1/GPa) = 0.02617069
#
# Stress axis : x y z
#
# Youngs Moduli (GPa) = 55.51378 55.51378 82.35785
#
# Poissons Ratio (x) = 0.46169 0.11046
# Poissons Ratio (y) = 0.46169 0.11046
# Poissons Ratio (z) = 0.07446 0.07446
#
# Static dielectric constant tensor:
#      x y z
#    x 1.821710 0.000000 0.000000 
#    y 0.000000 1.821710 0.000000 
#    z 0.000000 0.000000 1.793000 
# 
# From -- ./inp_files/759.got.cif
#   From: 2010.05.17/outbox.cif.g08.bks.cpg/sg172_1_cif.got.tgz:759.got - 2010.05.20 11:19:57.
