data_PCOD9580711
_publ_section_title
;
Structure prediction by ZEFSAII (Michael W. Deem and Ramdas Pophale) SiO2 
 PCOD9580711
Probable space group: P 62
;
_chemical_formula_sum "Si O2"
_cell_formula_units_Z 45
_cell_length_a 14.574141
_cell_length_b 14.574141
_cell_length_c 9.696698
_cell_angle_alpha 90.000000
_cell_angle_beta 90.000000
_cell_angle_gamma 120.000000
_cell_volume 1783.694344
_symmetry_space_group_name_H-M "P 62"
_symmetry_group_IT_number 171
_symmetry_cell_setting 'hexagonal'
loop_
_space_group_symop_operation_xyz
x,y,z
x-y,x,1/3+z
-y,x-y,2/3+z
-x,-y,z
-x+y,-x,1/3+z
y,-x+y,2/3+z
loop_
_atom_site_type_symbol
_atom_site_label
_atom_site_fract_x
_atom_site_fract_y
_atom_site_fract_z
Si Si1 0.687164 0.457612 0.920020
Si Si2 0.287838 0.337517 0.784853
Si Si3 0.704572 0.076267 0.948233
Si Si4 0.784144 0.524482 0.223285
Si Si5 0.037381 0.264926 0.360288
Si Si6 0.798900 0.732714 0.509753
Si Si7 0.427936 0.834278 0.095150
Si Si8 0.500000 0.500000 0.667289
O O1 0.715041 0.555415 0.819655
O O2 0.562228 0.379474 0.936679
O O3 0.728466 0.389874 0.835664
O O4 0.745228 0.500322 0.065527
O O5 0.238002 0.255889 0.658875
O O6 0.416231 0.397852 0.753919
O O7 0.216809 0.267698 0.913976
O O8 0.625521 0.111637 0.004915
O O9 0.722038 0.010713 0.068839
O O10 0.681644 0.007331 0.809152
O O11 0.814405 0.177208 0.891356
O O12 0.871475 0.643451 0.263715
O O13 0.685682 0.497936 0.324139
O O14 0.086806 0.201250 0.435017
O O15 0.482621 0.908645 0.226298
#
# Coordination Sequence:
#
# PCOD9580711 Si02
#       8
#     6   6   6   6   6   6   6   3
#     4  12  24  39  64  93 132 182 243 284 351 407
#     4  12  23  42  66  97 132 184 235 300 348 416
#     4  10  23  45  69 100 136 176 236 284 360 432
#     4  12  25  39  61  93 139 192 240 292 344 408
#     4  10  25  41  66  99 137 171 239 290 351 419
#     4  10  23  45  69 100 135 174 227 285 363 429
#     4  12  24  41  64  93 135 194 232 289 348 414
#     4  12  26  38  62  88 134 178 242 284 344 406
#
# _framework density 25.228539000000001
#
# number of rings (size 3 to 8) (size 9 to 14) (size 15 to 20)
#    0.800    0.000    4.000    4.000    1.867    0.000 
#    0.000    0.000    0.000    0.000    0.000    4.667 
#    0.000    0.000    0.000    0.000    0.000    0.000 
#
# Total GULP energy -250817.922513 kJ/mol
# GULP energy per Si atom -5573.731611 kJ/mol
# Density = 2.517112 g / cm^3
# Si number density = 25.228539 Si / 1000 Ang^3
#
#
#
# Elastic Constant Matrix: (Units=GPa)
#
#
# Indices 1 2 3 4 5 6 
#
# 1 40.4870 7.3300 9.6809 0.0000 0.0000 0.0000
# 2 7.3300 40.4870 9.6809 0.0000 0.0000 0.0000
# 3 9.6809 9.6809 170.5338 0.0000 0.0000 0.0000
# 4 0.0000 0.0000 0.0000 18.9269 0.0000 0.0000
# 5 0.0000 0.0000 0.0000 0.0000 18.9269 0.0000
# 6 0.0000 0.0000 0.0000 0.0000 0.0000 16.5785
#
#
#
# Elastic Compliance Matrix: (Units=1/GPa)
#
#
# Indices 1 2 3 4 5 6 
#
# 1 0.025782 -0.004377 -0.001215 0.000000 0.000000 0.000000
# 2 -0.004377 0.025782 -0.001215 0.000000 0.000000 0.000000
# 3 -0.001215 -0.001215 0.006002 0.000000 0.000000 0.000000
# 4 0.000000 0.000000 0.000000 0.052835 0.000000 0.000000
# 5 0.000000 0.000000 0.000000 0.000000 0.052835 0.000000
# 6 0.000000 0.000000 0.000000 0.000000 0.000000 0.060319
#
#
# Mechanical properties :
#
#
# Convention : Reuss Voigt Hill
#
# Bulk Modulus (GPa) = 22.75232 33.87682 28.31457
# Shear Modulus (GPa) = 19.85538 25.87418 22.86478
#
# Velocity S-wave (km/s) = 2.80843 3.20596 3.01376
# Velocity P-wave (km/s) = 4.42204 5.21166 4.83300
#
# Compressibility (1/GPa) = 0.04395157
#
# Stress axis : x y z
#
# Youngs Moduli (GPa) = 38.78629 38.78629 166.61381
#
# Poissons Ratio (x) = 0.16978 0.20246
# Poissons Ratio (y) = 0.16978 0.20246
# Poissons Ratio (z) = 0.04713 0.04713
#
# Static dielectric constant tensor:
#      x y z
#    x 2.224370 0.000000 0.000000 
#    y 0.000000 2.224370 0.000000 
#    z 0.000000 0.000000 2.282540 
# 
# From -- ./inp_files/4444.got.cif
#   From: 2010.05.17/outbox.cif.g08.bks.cpg/sg171_3_cif.got.tgz:4444.got - 2010.05.20 11:16:09.
