data_PCOD9580799
_publ_section_title
;
Structure prediction by ZEFSAII (Michael W. Deem and Ramdas Pophale) SiO2 
 PCOD9580799
Probable space group: P 62
;
_chemical_formula_sum "Si O2"
_cell_formula_units_Z 45
_cell_length_a 12.807759
_cell_length_b 12.807759
_cell_length_c 16.442143
_cell_angle_alpha 90.000000
_cell_angle_beta 90.000000
_cell_angle_gamma 120.000000
_cell_volume 2335.798347
_symmetry_space_group_name_H-M "P 62"
_symmetry_group_IT_number 171
_symmetry_cell_setting 'hexagonal'
loop_
_space_group_symop_operation_xyz
x,y,z
x-y,x,1/3+z
-y,x-y,2/3+z
-x,-y,z
-x+y,-x,1/3+z
y,-x+y,2/3+z
loop_
_atom_site_type_symbol
_atom_site_label
_atom_site_fract_x
_atom_site_fract_y
_atom_site_fract_z
Si Si1 0.784815 0.334185 0.502580
Si Si2 0.000000 0.000000 0.858327
Si Si3 0.203235 0.428966 0.462835
Si Si4 0.418521 0.052736 0.988622
Si Si5 0.049416 0.688540 0.376443
Si Si6 0.182803 0.963769 0.417884
Si Si7 0.740136 0.860505 0.274605
Si Si8 0.937804 0.571244 0.202154
O O1 0.749023 0.436340 0.494449
O O2 0.886278 0.369635 0.570958
O O3 0.843494 0.325954 0.416860
O O4 0.681615 0.204709 0.533926
O O5 0.904774 0.894784 0.800120
O O6 0.079124 0.958199 0.911064
O O7 0.274037 0.424835 0.384620
O O8 0.199754 0.341055 0.533175
O O9 0.064865 0.376031 0.435916
O O10 0.500000 0.000000 0.023501
O O11 0.278300 0.960803 0.969600
O O12 0.000628 0.626624 0.289143
O O13 0.096170 0.831474 0.379059
O O14 0.257202 0.057837 0.348221
O O15 0.270484 0.951277 0.481248
O O16 0.000000 0.500000 0.166651
#
# Coordination Sequence:
#
# PCOD9580799 Si02
#       8
#     6   3   6   6   6   6   6   6
#     4  11  22  42  68  98 125 170 233 291 328 401
#     4  12  22  40  66 102 138 176 222 280 356 418
#     4  12  23  40  68  98 127 178 229 281 343 403
#     4  12  24  42  66  96 136 176 224 284 341 411
#     4  11  21  41  68  97 125 171 233 284 330 401
#     4  11  25  40  63  99 142 173 215 284 360 414
#     4  12  24  40  65  99 139 178 223 281 349 427
#     4  11  24  43  66  97 132 178 228 284 346 410
#
# _framework density 19.265360999999999
#
# number of rings (size 3 to 8) (size 9 to 14) (size 15 to 20)
#    0.000    0.533    5.333    4.000    1.867    1.067 
#    0.000    0.667    0.000    0.000    0.000    0.000 
#    0.000    0.000    0.000    0.000    0.000    0.000 
#
# Total GULP energy -251490.978011 kJ/mol
# GULP energy per Si atom -5588.688400 kJ/mol
# Density = 1.922151 g / cm^3
# Si number density = 19.265361 Si / 1000 Ang^3
#
#
#
# Elastic Constant Matrix: (Units=GPa)
#
#
# Indices 1 2 3 4 5 6 
#
# 1 81.5460 28.7238 20.2453 0.0000 0.0000 0.0000
# 2 28.7238 81.5460 20.2453 0.0000 0.0000 0.0000
# 3 20.2453 20.2453 80.7875 0.0000 0.0000 0.0000
# 4 0.0000 0.0000 0.0000 -22.4182 0.0000 0.0000
# 5 0.0000 0.0000 0.0000 0.0000 -22.4182 0.0000
# 6 0.0000 0.0000 0.0000 0.0000 0.0000 26.4111
#
#
#
# Elastic Compliance Matrix: (Units=1/GPa)
#
#
# Indices 1 2 3 4 5 6 
#
# 1 0.014460 -0.004472 -0.002503 0.000000 0.000000 0.000000
# 2 -0.004472 0.014460 -0.002503 0.000000 0.000000 0.000000
# 3 -0.002503 -0.002503 0.013633 0.000000 0.000000 0.000000
# 4 0.000000 0.000000 0.000000 -0.044607 0.000000 0.000000
# 5 0.000000 0.000000 0.000000 0.000000 -0.044607 0.000000
# 6 0.000000 0.000000 0.000000 0.000000 0.000000 0.037863
#
#
# Mechanical properties :
#
#
# Convention : Reuss Voigt Hill
#
# Bulk Modulus (GPa) = 42.37936 42.47870 42.42903
# Shear Modulus (GPa) = 277.42992 7.95924 142.69458
#
# Velocity S-wave (km/s) = 12.01321 2.03478 8.61561
# Velocity P-wave (km/s) = 14.64474 5.25524 11.00195
#
# Compressibility (1/GPa) = 0.02359639
#
# Stress axis : x y z
#
# Youngs Moduli (GPa) = 69.15822 69.15822 73.35354
#
# Poissons Ratio (x) = 0.30927 0.18360
# Poissons Ratio (y) = 0.30927 0.18360
# Poissons Ratio (z) = 0.17310 0.17310
#
# Static dielectric constant tensor:
#      x y z
#    x 1.699430 0.000000 0.000000 
#    y 0.000000 1.699430 0.000000 
#    z 0.000000 0.000000 1.669790 
# 
# From -- ./inp_files/3043.got.cif
#   From: 2010.05.17/outbox.cif.g08.bks.cpg/sg171_2_cif.got.tgz:3043.got - 2010.05.20 11:16:09.
