data_PCOD9580180
_publ_section_title
;
Structure prediction by ZEFSAII (Michael W. Deem and Ramdas Pophale) SiO2 
 PCOD9580180
Probable space group: P 65
;
_chemical_formula_sum "Si O2"
_cell_formula_units_Z 24
_cell_length_a 10.983616
_cell_length_b 10.983616
_cell_length_c 8.188877
_cell_angle_alpha 90.000000
_cell_angle_beta 90.000000
_cell_angle_gamma 120.000000
_cell_volume 855.550524
_symmetry_space_group_name_H-M "P 65"
_symmetry_group_IT_number 170
_symmetry_cell_setting 'hexagonal'
loop_
_space_group_symop_operation_xyz
x,y,z
x-y,x,5/6+z
-y,x-y,2/3+z
-x,-y,1/2+z
-x+y,-x,1/3+z
y,-x+y,1/6+z
loop_
_atom_site_type_symbol
_atom_site_label
_atom_site_fract_x
_atom_site_fract_y
_atom_site_fract_z
Si Si1 0.059041 0.792657 0.566880
Si Si2 0.280379 0.183841 0.879058
Si Si3 0.527702 0.160822 0.871749
Si Si4 0.862768 0.387516 0.912543
O O1 0.129355 0.697775 0.570942
O O2 0.950291 0.773208 0.702530
O O3 0.969894 0.736259 0.395439
O O4 0.436282 0.231347 0.816043
O O5 0.210571 0.018641 0.913857
O O6 0.689146 0.286552 0.887577
O O7 0.477067 0.109231 0.056038
O O8 0.481062 0.014487 0.777427
#
# Coordination Sequence:
#
# PCOD9580180 Si02
#       4
#     6   6   6   6
#     4  10  18  41  71  94 133 193 239 301 381 452
#     4  10  21  43  75 102 144 199 254 317 401 466
#     4  12  27  48  77 113 156 212 259 335 404 497
#     4  12  26  46  75 107 157 204 262 321 406 475
#
# _framework density 28.052116000000002
#
# number of rings (size 3 to 8) (size 9 to 14) (size 15 to 20)
#    0.000    1.000    7.500    0.000    3.500    0.000 
#    0.000   12.500    0.000    0.000    0.000    0.000 
#    0.000    0.000    0.000    0.000    0.000    0.000 
#
# Total GULP energy -133630.651068 kJ/mol
# GULP energy per Si atom -5567.943795 kJ/mol
# Density = 2.798827 g / cm^3
# Si number density = 28.052116 Si / 1000 Ang^3
#
#
#
# Elastic Constant Matrix: (Units=GPa)
#
#
# Indices 1 2 3 4 5 6 
#
# 1 140.5933 55.4301 6.4572 0.0000 0.0000 0.0000
# 2 55.4301 140.5933 6.4572 0.0000 0.0000 0.0000
# 3 6.4572 6.4572 83.7876 0.0000 0.0000 0.0000
# 4 0.0000 0.0000 0.0000 18.3095 0.0000 0.0000
# 5 0.0000 0.0000 0.0000 0.0000 18.3095 0.0000
# 6 0.0000 0.0000 0.0000 0.0000 0.0000 42.5816
#
#
#
# Elastic Compliance Matrix: (Units=1/GPa)
#
#
# Indices 1 2 3 4 5 6 
#
# 1 0.008435 -0.003307 -0.000395 0.000000 0.000000 0.000000
# 2 -0.003307 0.008435 -0.000395 0.000000 0.000000 0.000000
# 3 -0.000395 -0.000395 0.011996 0.000000 0.000000 0.000000
# 4 0.000000 0.000000 0.000000 0.054617 0.000000 0.000000
# 5 0.000000 0.000000 0.000000 0.000000 0.054617 0.000000
# 6 0.000000 0.000000 0.000000 0.000000 0.000000 0.023484
#
#
# Mechanical properties :
#
#
# Convention : Reuss Voigt Hill
#
# Bulk Modulus (GPa) = 48.37894 55.74037 52.05965
# Shear Modulus (GPa) = 28.30163 35.61541 31.95852
#
# Velocity S-wave (km/s) = 3.17976 3.56703 3.37895
# Velocity P-wave (km/s) = 5.54659 6.07276 5.81563
#
# Compressibility (1/GPa) = 0.02067015
#
# Stress axis : x y z
#
# Youngs Moduli (GPa) = 118.55626 118.55626 83.36217
#
# Poissons Ratio (x) = 0.39211 0.03294
# Poissons Ratio (y) = 0.39211 0.03294
# Poissons Ratio (z) = 0.04685 0.04685
#
# Static dielectric constant tensor:
#      x y z
#    x 2.418080 0.000000 0.000000 
#    y 0.000000 2.418080 0.000000 
#    z 0.000000 0.000000 2.098000 
# 
# From -- ./inp_files/863.got.cif
#   From: 2010.05.17/outbox.cif.g08.bks.cpg/sg170_cif.got.tgz:863.got - 2010.05.20 11:14:30.
