data_PCOD9580102
_publ_section_title
;
Structure prediction by ZEFSAII (Michael W. Deem and Ramdas Pophale) SiO2 
 PCOD9580102
Probable space group: P 61
;
_chemical_formula_sum "Si O2"
_cell_formula_units_Z 36
_cell_length_a 11.168535
_cell_length_b 11.168535
_cell_length_c 14.246654
_cell_angle_alpha 90.000000
_cell_angle_beta 90.000000
_cell_angle_gamma 120.000000
_cell_volume 1538.990460
_symmetry_space_group_name_H-M "P 61"
_symmetry_group_IT_number 169
_symmetry_cell_setting 'hexagonal'
loop_
_space_group_symop_operation_xyz
x,y,z
x-y,x,1/6+z
-y,x-y,1/3+z
-x,-y,1/2+z
-x+y,-x,2/3+z
y,-x+y,5/6+z
loop_
_atom_site_type_symbol
_atom_site_label
_atom_site_fract_x
_atom_site_fract_y
_atom_site_fract_z
Si Si1 0.257671 0.962530 0.688760
Si Si2 0.565059 0.529526 0.824602
Si Si3 0.162864 0.491264 0.670343
Si Si4 0.868897 0.055069 0.882867
Si Si5 0.068357 0.684880 0.707305
Si Si6 0.172674 0.510321 0.321578
O O1 0.370306 0.926607 0.648421
O O2 0.136726 0.837431 0.748612
O O3 0.193783 0.014225 0.610316
O O4 0.352291 0.078345 0.764533
O O5 0.534703 0.602104 0.912413
O O6 0.556348 0.613028 0.735834
O O7 0.704773 0.523404 0.836241
O O8 0.087717 0.343571 0.720909
O O9 0.155700 0.610338 0.729021
O O10 0.325209 0.553399 0.649882
O O11 0.919608 0.078415 0.774365
O O12 0.913643 0.569996 0.730330
#
# Coordination Sequence:
#
# PCOD9580102 Si02
#       6
#     6   6   6   6   6   6
#     4  11  22  44  70 103 140 183 243 296 358 440
#     4  11  27  44  69 111 144 187 246 306 365 441
#     4  11  26  45  74 105 142 186 248 309 369 435
#     4  12  26  49  74 105 142 197 250 297 373 454
#     4  11  24  42  72 103 141 184 240 305 366 432
#     4  12  25  46  75 105 149 193 239 309 379 432
#
# _framework density 23.391956
#
# number of rings (size 3 to 8) (size 9 to 14) (size 15 to 20)
#    0.000    0.667    5.000    2.000    7.000    1.333 
#    3.000    0.000    0.000    0.000    0.000    0.000 
#    0.000    0.000    0.000    0.000    0.000    0.000 
#
# Total GULP energy -200990.961743 kJ/mol
# GULP energy per Si atom -5583.082271 kJ/mol
# Density = 2.333872 g / cm^3
# Si number density = 23.391956 Si / 1000 Ang^3
#
#
#
# Elastic Constant Matrix: (Units=GPa)
#
#
# Indices 1 2 3 4 5 6 
#
# 1 84.7829 11.9570 3.7627 0.0000 0.0000 0.0000
# 2 11.9570 84.7829 3.7627 0.0000 0.0000 0.0000
# 3 3.7627 3.7627 42.5913 0.0000 0.0000 0.0000
# 4 0.0000 0.0000 0.0000 35.6067 0.0000 0.0000
# 5 0.0000 0.0000 0.0000 0.0000 35.6067 0.0000
# 6 0.0000 0.0000 0.0000 0.0000 0.0000 36.4129
#
#
#
# Elastic Compliance Matrix: (Units=1/GPa)
#
#
# Indices 1 2 3 4 5 6 
#
# 1 0.012070 -0.001661 -0.000920 0.000000 0.000000 0.000000
# 2 -0.001661 0.012070 -0.000920 0.000000 0.000000 0.000000
# 3 -0.000920 -0.000920 0.023641 0.000000 0.000000 0.000000
# 4 0.000000 0.000000 0.000000 0.028085 0.000000 0.000000
# 5 0.000000 0.000000 0.000000 0.000000 0.028085 0.000000
# 6 0.000000 0.000000 0.000000 0.000000 0.000000 0.027463
#
#
# Mechanical properties :
#
#
# Convention : Reuss Voigt Hill
#
# Bulk Modulus (GPa) = 24.52158 27.90240 26.21199
# Shear Modulus (GPa) = 32.89306 34.37025 33.63166
#
# Velocity S-wave (km/s) = 3.75396 3.83733 3.79587
# Velocity P-wave (km/s) = 5.41251 5.62028 5.51737
#
# Compressibility (1/GPa) = 0.04078040
#
# Stress axis : x y z
#
# Youngs Moduli (GPa) = 82.85034 82.85034 42.29860
#
# Poissons Ratio (x) = 0.13765 0.03889
# Poissons Ratio (y) = 0.13765 0.03889
# Poissons Ratio (z) = 0.07618 0.07618
#
# Static dielectric constant tensor:
#      x y z
#    x 1.936670 0.000000 0.000000 
#    y 0.000000 1.936670 0.000000 
#    z 0.000000 0.000000 2.005830 
# 
# From -- ./inp_files/1150.got.cif
#   From: 2010.05.17/outbox.cif.g08.bks.cpg/sg169_cif.got.tgz:1150.got - 2010.05.20 11:12:54.
