data_PCOD9580903
_publ_section_title
;
Structure prediction by ZEFSAII (Michael W. Deem and Ramdas Pophale) SiO2 
 PCOD9580903
Probable space group: P 64
;
_chemical_formula_sum "Si O2"
_cell_formula_units_Z 36
_cell_length_a 8.188079
_cell_length_b 8.188079
_cell_length_c 28.544950
_cell_angle_alpha 90.000000
_cell_angle_beta 90.000000
_cell_angle_gamma 120.000000
_cell_volume 1657.387147
_symmetry_space_group_name_H-M "P 64"
_symmetry_group_IT_number 172
_symmetry_cell_setting 'hexagonal'
loop_
_space_group_symop_operation_xyz
x,y,z
x-y,x,2/3+z
-y,x-y,1/3+z
-x,-y,z
-x+y,-x,2/3+z
y,-x+y,1/3+z
loop_
_atom_site_type_symbol
_atom_site_label
_atom_site_fract_x
_atom_site_fract_y
_atom_site_fract_z
Si Si1 0.132979 0.903433 0.783760
Si Si2 0.340405 0.289623 0.966000
Si Si3 0.569334 0.768991 0.072302
Si Si4 0.981780 0.793879 0.222195
Si Si5 0.946552 0.287313 0.967747
Si Si6 0.204498 0.429431 0.397161
O O1 0.223979 0.953537 0.835366
O O2 0.989577 0.686389 0.769638
O O3 0.306554 0.012541 0.748516
O O4 0.000000 0.000000 0.779402
O O5 0.500000 0.500000 0.953112
O O6 0.132728 0.267301 0.972432
O O7 0.324680 0.151975 0.923480
O O8 0.395283 0.252718 0.017538
O O9 0.347925 0.699293 0.076939
O O10 0.667321 0.991780 0.083126
O O11 0.796492 0.656700 0.251060
O O12 0.000000 0.000000 0.219897
O O13 0.000000 0.500000 0.971839
O O14 0.793840 0.184836 0.008332
#
# Coordination Sequence:
#
# PCOD9580903 Si02
#       6
#     6   6   6   6   6   6
#     4   9  18  36  59  90 127 170 213 267 333 395
#     4  11  21  37  60  94 124 162 212 269 313 390
#     4  10  19  34  62  94 123 164 218 266 321 385
#     4   9  20  38  60  86 128 170 207 261 332 389
#     4  11  21  37  62  87 123 162 210 259 321 381
#     4  10  19  34  62  91 124 164 214 270 317 383
#
# _framework density 21.720934
#
# number of rings (size 3 to 8) (size 9 to 14) (size 15 to 20)
#    0.000    2.000    3.333    1.000    0.000    0.000 
#   12.000    0.833    0.000    0.000    0.000    0.000 
#    0.000    0.000    0.000    0.000    0.000    0.000 
#
# Total GULP energy -200758.167580 kJ/mol
# GULP energy per Si atom -5576.615766 kJ/mol
# Density = 2.167150 g / cm^3
# Si number density = 21.720934 Si / 1000 Ang^3
#
#
#
# Elastic Constant Matrix: (Units=GPa)
#
#
# Indices 1 2 3 4 5 6 
#
# 1 83.6312 25.1969 12.2640 0.0000 0.0000 0.0000
# 2 25.1969 83.6312 12.2640 0.0000 0.0000 0.0000
# 3 12.2640 12.2640 98.1055 0.0000 0.0000 0.0000
# 4 0.0000 0.0000 0.0000 9.8813 0.0000 0.0000
# 5 0.0000 0.0000 0.0000 0.0000 9.8813 0.0000
# 6 0.0000 0.0000 0.0000 0.0000 0.0000 29.2171
#
#
#
# Elastic Compliance Matrix: (Units=1/GPa)
#
#
# Indices 1 2 3 4 5 6 
#
# 1 0.013284 -0.003829 -0.001182 0.000000 0.000000 0.000000
# 2 -0.003829 0.013284 -0.001182 0.000000 0.000000 0.000000
# 3 -0.001182 -0.001182 0.010489 0.000000 0.000000 0.000000
# 4 0.000000 0.000000 0.000000 0.101201 0.000000 0.000000
# 5 0.000000 0.000000 0.000000 0.000000 0.101201 0.000000
# 6 0.000000 0.000000 0.000000 0.000000 0.000000 0.034226
#
#
# Mechanical properties :
#
#
# Convention : Reuss Voigt Hill
#
# Bulk Modulus (GPa) = 40.53324 40.53530 40.53427
# Shear Modulus (GPa) = 16.98977 24.17217 20.58097
#
# Velocity S-wave (km/s) = 2.79979 3.33956 3.08152
# Velocity P-wave (km/s) = 5.39937 5.79419 5.60026
#
# Compressibility (1/GPa) = 0.02467111
#
# Stress axis : x y z
#
# Youngs Moduli (GPa) = 75.27729 75.27729 95.34141
#
# Poissons Ratio (x) = 0.28824 0.11269
# Poissons Ratio (y) = 0.28824 0.11269
# Poissons Ratio (z) = 0.08898 0.08898
#
# Static dielectric constant tensor:
#      x y z
#    x 1.799730 0.000000 0.000000 
#    y 0.000000 1.799730 0.000000 
#    z 0.000000 0.000000 1.750140 
# 
# From -- ./inp_files/2797.got.cif
#   From: 2010.05.17/outbox.cif.g08.bks.cpg/sg172_2_cif.got.tgz:2797.got - 2010.05.20 11:19:57.
