data_PCOD9580597
_publ_section_title
;
Structure prediction by ZEFSAII (Michael W. Deem and Ramdas Pophale) SiO2 
 PCOD9580597
Probable space group: P 62
;
_chemical_formula_sum "Si O2"
_cell_formula_units_Z 36
_cell_length_a 8.521770
_cell_length_b 8.521770
_cell_length_c 27.732353
_cell_angle_alpha 90.000000
_cell_angle_beta 90.000000
_cell_angle_gamma 120.000000
_cell_volume 1744.122434
_symmetry_space_group_name_H-M "P 62"
_symmetry_group_IT_number 171
_symmetry_cell_setting 'hexagonal'
loop_
_space_group_symop_operation_xyz
x,y,z
x-y,x,1/3+z
-y,x-y,2/3+z
-x,-y,z
-x+y,-x,1/3+z
y,-x+y,2/3+z
loop_
_atom_site_type_symbol
_atom_site_label
_atom_site_fract_x
_atom_site_fract_y
_atom_site_fract_z
Si Si1 0.563374 0.687060 0.928650
Si Si2 0.686541 0.493614 0.562228
Si Si3 0.686596 0.677574 0.825665
Si Si4 0.033617 0.331781 0.754270
Si Si5 0.949372 0.660285 0.647231
Si Si6 0.950067 0.651068 0.468915
O O1 0.500000 0.500000 0.956355
O O2 0.381198 0.682191 0.906626
O O3 0.680623 0.681785 0.883551
O O4 0.685246 0.863278 0.960023
O O5 0.500000 0.500000 0.556220
O O6 0.816479 0.579364 0.515608
O O7 0.792711 0.611972 0.608764
O O8 0.500000 0.500000 0.810863
O O9 0.843128 0.663388 0.798333
O O10 0.699874 0.865551 0.812189
O O11 0.000000 0.500000 0.757548
O O12 0.106423 0.325607 0.701395
O O13 0.840216 0.154983 0.760228
O O14 0.000000 0.500000 0.648049
O O15 0.000000 0.500000 0.456647
#
# Coordination Sequence:
#
# PCOD9580597 Si02
#       6
#     6   6   6   6   6   6
#     4  10  21  40  67  95 129 167 220 273 320 386
#     4  11  22  40  69  98 127 169 222 267 332 388
#     4  11  23  41  65  95 131 170 219 275 319 385
#     4  11  25  41  67  98 136 174 218 263 331 396
#     4   9  20  45  66  92 131 174 212 268 330 393
#     4  12  22  41  66  95 133 172 218 271 318 383
#
# _framework density 20.640754000000001
#
# number of rings (size 3 to 8) (size 9 to 14) (size 15 to 20)
#    0.000    1.333    3.333    2.500    7.000    1.333 
#    0.000    7.500    0.000    0.000    0.000    0.000 
#    0.000    0.000    0.000    0.000    0.000    0.000 
#
# Total GULP energy -200984.510282 kJ/mol
# GULP energy per Si atom -5582.903063 kJ/mol
# Density = 2.059377 g / cm^3
# Si number density = 20.640754 Si / 1000 Ang^3
#
#
#
# Elastic Constant Matrix: (Units=GPa)
#
#
# Indices 1 2 3 4 5 6 
#
# 1 87.8798 13.7524 16.0907 0.0000 0.0000 0.0000
# 2 13.7524 87.8798 16.0907 0.0000 0.0000 0.0000
# 3 16.0907 16.0907 53.2564 0.0000 0.0000 0.0000
# 4 0.0000 0.0000 0.0000 24.4410 0.0000 0.0000
# 5 0.0000 0.0000 0.0000 0.0000 24.4410 0.0000
# 6 0.0000 0.0000 0.0000 0.0000 0.0000 37.0637
#
#
#
# Elastic Compliance Matrix: (Units=1/GPa)
#
#
# Indices 1 2 3 4 5 6 
#
# 1 0.012185 -0.001305 -0.003287 0.000000 0.000000 0.000000
# 2 -0.001305 0.012185 -0.003287 0.000000 0.000000 0.000000
# 3 -0.003287 -0.003287 0.020764 0.000000 0.000000 0.000000
# 4 0.000000 0.000000 0.000000 0.040915 0.000000 0.000000
# 5 0.000000 0.000000 0.000000 0.000000 0.040915 0.000000
# 6 0.000000 0.000000 0.000000 0.000000 0.000000 0.026981
#
#
# Mechanical properties :
#
#
# Convention : Reuss Voigt Hill
#
# Bulk Modulus (GPa) = 34.04276 35.65372 34.84824
# Shear Modulus (GPa) = 27.85585 29.39461 28.62523
#
# Velocity S-wave (km/s) = 3.67762 3.77783 3.72806
# Velocity P-wave (km/s) = 5.87894 6.02829 5.95408
#
# Compressibility (1/GPa) = 0.02937482
#
# Stress axis : x y z
#
# Youngs Moduli (GPa) = 82.06602 82.06602 48.16134
#
# Poissons Ratio (x) = 0.10709 0.15832
# Poissons Ratio (y) = 0.10709 0.15832
# Poissons Ratio (z) = 0.26978 0.26978
#
# Static dielectric constant tensor:
#      x y z
#    x 1.779850 0.000000 0.000000 
#    y 0.000000 1.779850 0.000000 
#    z 0.000000 0.000000 1.725870 
# 
# From -- ./inp_files/5756.got.cif
#   From: 2010.05.17/outbox.cif.g08.bks.cpg/sg171_3_cif.got.tgz:5756.got - 2010.05.20 11:16:09.
