data_PCOD9580113
_publ_section_title
;
Structure prediction by ZEFSAII (Michael W. Deem and Ramdas Pophale) SiO2 
 PCOD9580113
Probable space group: P 61
;
_chemical_formula_sum "Si O2"
_cell_formula_units_Z 42
_cell_length_a 8.626553
_cell_length_b 8.626553
_cell_length_c 29.056719
_cell_angle_alpha 90.000000
_cell_angle_beta 90.000000
_cell_angle_gamma 120.000000
_cell_volume 1872.629217
_symmetry_space_group_name_H-M "P 61"
_symmetry_group_IT_number 169
_symmetry_cell_setting 'hexagonal'
loop_
_space_group_symop_operation_xyz
x,y,z
x-y,x,1/6+z
-y,x-y,1/3+z
-x,-y,1/2+z
-x+y,-x,2/3+z
y,-x+y,5/6+z
loop_
_atom_site_type_symbol
_atom_site_label
_atom_site_fract_x
_atom_site_fract_y
_atom_site_fract_z
Si Si1 0.543106 0.423735 0.467410
Si Si2 0.385222 0.011798 0.068403
Si Si3 0.157082 0.678392 0.999648
Si Si4 0.927851 0.263673 0.777166
Si Si5 0.278502 0.037598 0.550797
Si Si6 0.566118 0.609240 0.554373
Si Si7 0.299839 0.956380 0.725907
O O1 0.686119 0.359873 0.479928
O O2 0.405051 0.277984 0.431382
O O3 0.469602 0.468929 0.513115
O O4 0.636880 0.614248 0.442451
O O5 0.244287 0.847950 0.035426
O O6 0.559335 0.987561 0.069301
O O7 0.354946 0.044351 0.122652
O O8 0.430430 0.204650 0.047865
O O9 0.043314 0.493827 0.027092
O O10 0.905634 0.228527 0.831365
O O11 0.962957 0.460742 0.765696
O O12 0.079992 0.245105 0.751236
O O13 0.099693 0.852077 0.544710
O O14 0.763749 0.639059 0.557833
#
# Coordination Sequence:
#
# PCOD9580113 Si02
#       7
#     6   6   6   6   6   6   6
#     4  11  23  45  69 108 145 195 248 307 382 454
#     4  12  23  48  77 108 146 201 256 309 383 456
#     4  11  24  47  71 108 148 195 254 305 383 452
#     4  12  23  47  72 110 145 198 254 308 381 459
#     4  12  24  43  77 105 149 198 248 315 378 449
#     4  11  25  44  73 106 150 194 249 314 383 455
#     4  11  26  44  67 107 147 191 245 312 378 455
#
# _framework density 22.428359
#
# number of rings (size 3 to 8) (size 9 to 14) (size 15 to 20)
#    0.000    0.571    5.714    1.714    6.000    1.143 
#    2.571    2.857    0.000    0.000    0.000    0.000 
#    0.000    0.000    0.000    0.000    0.000    0.000 
#
# Total GULP energy -234233.500183 kJ/mol
# GULP energy per Si atom -5576.988100 kJ/mol
# Density = 2.237731 g / cm^3
# Si number density = 22.428359 Si / 1000 Ang^3
#
#
#
# Elastic Constant Matrix: (Units=GPa)
#
#
# Indices 1 2 3 4 5 6 
#
# 1 594.3073 -434.8361 42.2938 0.0000 0.0000 0.0000
# 2 -434.8361 594.3073 42.2938 0.0000 0.0000 0.0000
# 3 42.2938 42.2938 87.6797 0.0000 0.0000 0.0000
# 4 0.0000 0.0000 0.0000 39.0465 0.0000 0.0000
# 5 0.0000 0.0000 0.0000 0.0000 39.0465 0.0000
# 6 0.0000 0.0000 0.0000 0.0000 0.0000 514.5720
#
#
#
# Elastic Compliance Matrix: (Units=1/GPa)
#
#
# Indices 1 2 3 4 5 6 
#
# 1 0.004699 0.003728 -0.004065 0.000000 0.000000 0.000000
# 2 0.003728 0.004699 -0.004065 0.000000 0.000000 0.000000
# 3 -0.004065 -0.004065 0.015327 0.000000 0.000000 0.000000
# 4 0.000000 0.000000 0.000000 0.025610 0.000000 0.000000
# 5 0.000000 0.000000 0.000000 0.000000 0.025610 0.000000
# 6 0.000000 0.000000 0.000000 0.000000 0.000000 0.001943
#
#
# Mechanical properties :
#
#
# Convention : Reuss Voigt Hill
#
# Bulk Modulus (GPa) = 62.81023 63.97746 63.39385
# Shear Modulus (GPa) = 54.34748 226.96918 140.65833
#
# Velocity S-wave (km/s) = 4.92790 10.07061 7.92784
# Velocity P-wave (km/s) = 7.77461 12.79883 10.58902
#
# Compressibility (1/GPa) = 0.01592097
#
# Stress axis : x y z
#
# Youngs Moduli (GPa) = 212.80016 212.80016 65.24598
#
# Poissons Ratio (x) = -0.79323 0.26521
# Poissons Ratio (y) = -0.79323 0.26521
# Poissons Ratio (z) = 0.86499 0.86499
#
# Static dielectric constant tensor:
#      x y z
#    x 1.945120 0.000000 0.000000 
#    y 0.000000 1.945120 0.000000 
#    z 0.000000 0.000000 2.044920 
# 
# From -- ./inp_files/1847.got.cif
#   From: 2010.05.17/outbox.cif.g08.bks.cpg/sg169_cif.got.tgz:1847.got - 2010.05.20 11:12:54.
