data_PCOD9580785
_publ_section_title
;
Structure prediction by ZEFSAII (Michael W. Deem and Ramdas Pophale) SiO2 
 PCOD9580785
Probable space group: P 62
;
_chemical_formula_sum "Si O2"
_cell_formula_units_Z 36
_cell_length_a 10.009448
_cell_length_b 10.009448
_cell_length_c 20.673849
_cell_angle_alpha 90.000000
_cell_angle_beta 90.000000
_cell_angle_gamma 120.000000
_cell_volume 1793.792596
_symmetry_space_group_name_H-M "P 62"
_symmetry_group_IT_number 171
_symmetry_cell_setting 'hexagonal'
loop_
_space_group_symop_operation_xyz
x,y,z
x-y,x,1/3+z
-y,x-y,2/3+z
-x,-y,z
-x+y,-x,1/3+z
y,-x+y,2/3+z
loop_
_atom_site_type_symbol
_atom_site_label
_atom_site_fract_x
_atom_site_fract_y
_atom_site_fract_z
Si Si1 0.172175 0.525576 0.989380
Si Si2 0.675924 0.127445 0.962319
Si Si3 0.687176 0.059815 0.104493
Si Si4 0.108691 0.357541 0.485835
Si Si5 0.789376 0.300175 0.458138
Si Si6 0.661068 0.498479 0.871214
O O1 0.294086 0.705476 0.980673
O O2 0.232638 0.451119 0.935459
O O3 0.000000 0.500000 0.978156
O O4 0.195957 0.491035 0.062815
O O5 0.760515 0.140523 0.895670
O O6 0.500000 0.000000 0.950005
O O7 0.724803 0.081219 0.028590
O O8 0.794033 0.215657 0.145345
O O9 0.500000 0.000000 0.112661
O O10 0.710542 0.921294 0.127113
O O11 0.156768 0.519243 0.448343
O O12 0.926650 0.269521 0.475923
O O13 0.680180 0.267967 0.519306
O O14 0.500000 0.500000 0.875584
#
# Coordination Sequence:
#
# PCOD9580785 Si02
#       6
#     6   6   6   6   6   6
#     4  12  24  42  69  96 132 177 231 283 348 413
#     4  11  19  37  66  95 126 175 228 274 333 412
#     4  11  21  39  66  97 127 178 232 275 336 424
#     4  11  21  39  65  98 136 174 234 287 347 408
#     4  11  22  39  64  97 135 175 220 297 343 403
#     4  12  24  41  64 100 136 168 228 288 345 411
#
# _framework density 20.069209000000001
#
# number of rings (size 3 to 8) (size 9 to 14) (size 15 to 20)
#    0.000    0.667    6.667    3.000    2.333    0.000 
#    0.000    0.833    0.000    0.000    0.000    0.000 
#    0.000    0.000    0.000    0.000    0.000    0.000 
#
# Total GULP energy -200567.847315 kJ/mol
# GULP energy per Si atom -5571.329092 kJ/mol
# Density = 2.002353 g / cm^3
# Si number density = 20.069209 Si / 1000 Ang^3
#
#
#
# Elastic Constant Matrix: (Units=GPa)
#
#
# Indices 1 2 3 4 5 6 
#
# 1 72.8846 12.8699 19.6008 0.0000 0.0000 0.0000
# 2 12.8699 72.8846 19.6008 0.0000 0.0000 0.0000
# 3 19.6008 19.6008 126.2465 0.0000 0.0000 0.0000
# 4 0.0000 0.0000 0.0000 25.9375 0.0000 0.0000
# 5 0.0000 0.0000 0.0000 0.0000 25.9375 0.0000
# 6 0.0000 0.0000 0.0000 0.0000 0.0000 30.0073
#
#
#
# Elastic Compliance Matrix: (Units=1/GPa)
#
#
# Indices 1 2 3 4 5 6 
#
# 1 0.014607 -0.002055 -0.001949 0.000000 0.000000 0.000000
# 2 -0.002055 0.014607 -0.001949 0.000000 0.000000 0.000000
# 3 -0.001949 -0.001949 0.008526 0.000000 0.000000 0.000000
# 4 0.000000 0.000000 0.000000 0.038554 0.000000 0.000000
# 5 0.000000 0.000000 0.000000 0.000000 0.038554 0.000000
# 6 0.000000 0.000000 0.000000 0.000000 0.000000 0.033325
#
#
# Mechanical properties :
#
#
# Convention : Reuss Voigt Hill
#
# Bulk Modulus (GPa) = 38.70713 41.79544 40.25128
# Shear Modulus (GPa) = 29.63985 31.03942 30.33964
#
# Velocity S-wave (km/s) = 3.84719 3.93697 3.89234
# Velocity P-wave (km/s) = 6.25006 6.44494 6.34824
#
# Compressibility (1/GPa) = 0.02583503
#
# Stress axis : x y z
#
# Youngs Moduli (GPa) = 68.45874 68.45874 117.28623
#
# Poissons Ratio (x) = 0.14070 0.22857
# Poissons Ratio (y) = 0.14070 0.22857
# Poissons Ratio (z) = 0.13341 0.13341
#
# Static dielectric constant tensor:
#      x y z
#    x 1.758590 0.000000 0.000000 
#    y 0.000000 1.758590 0.000000 
#    z 0.000000 0.000000 1.745580 
# 
# From -- ./inp_files/3638.got.cif
#   From: 2010.05.17/outbox.cif.g08.bks.cpg/sg171_2_cif.got.tgz:3638.got - 2010.05.20 11:16:09.
