data_PCOD9580700
_publ_section_title
;
Structure prediction by ZEFSAII (Michael W. Deem and Ramdas Pophale) SiO2 
 PCOD9580700
Probable space group: P 62
;
_chemical_formula_sum "Si O2"
_cell_formula_units_Z 42
_cell_length_a 10.953762
_cell_length_b 10.953762
_cell_length_c 17.989169
_cell_angle_alpha 90.000000
_cell_angle_beta 90.000000
_cell_angle_gamma 120.000000
_cell_volume 1869.254068
_symmetry_space_group_name_H-M "P 62"
_symmetry_group_IT_number 171
_symmetry_cell_setting 'hexagonal'
loop_
_space_group_symop_operation_xyz
x,y,z
x-y,x,1/3+z
-y,x-y,2/3+z
-x,-y,z
-x+y,-x,1/3+z
y,-x+y,2/3+z
loop_
_atom_site_type_symbol
_atom_site_label
_atom_site_fract_x
_atom_site_fract_y
_atom_site_fract_z
Si Si1 0.742050 0.422276 0.786410
Si Si2 0.205616 0.743407 0.908143
Si Si3 0.000000 0.500000 0.618452
Si Si4 0.215734 0.313059 0.723780
Si Si5 0.036486 0.271916 0.466704
Si Si6 0.845617 0.572699 0.167461
Si Si7 0.000000 0.000000 0.731477
Si Si8 0.226934 0.454851 0.336609
O O1 0.807033 0.380218 0.855544
O O2 0.830221 0.586696 0.767090
O O3 0.583932 0.378954 0.807649
O O4 0.721178 0.321979 0.715237
O O5 0.167784 0.841830 0.860249
O O6 0.375241 0.855819 0.916134
O O7 0.120429 0.709569 0.984623
O O8 0.064268 0.650997 0.659541
O O9 0.320768 0.297500 0.781985
O O10 0.090897 0.158315 0.696564
O O11 0.104089 0.362071 0.393447
O O12 0.893398 0.268937 0.488729
O O13 0.999633 0.116937 0.448784
O O14 0.849043 0.563407 0.257325
#
# Coordination Sequence:
#
# PCOD9580700 Si02
#       8
#     6   6   3   6   6   6   3   6
#     4  11  22  43  70 105 134 182 246 301 368 423
#     4  11  21  40  70 100 131 180 233 306 356 431
#     4  12  18  40  74  88 134 172 238 300 348 432
#     4  11  24  45  67 100 149 184 237 290 369 441
#     4  10  23  42  68 100 131 179 241 285 361 434
#     4  11  23  46  65  98 145 186 228 296 374 447
#     4  10  24  44  66  96 138 190 226 290 346 434
#     4  11  23  40  74 103 130 183 240 303 352 438
#
# _framework density 22.468855999999999
#
# number of rings (size 3 to 8) (size 9 to 14) (size 15 to 20)
#    0.000    1.143    4.286    1.286    0.000    2.286 
#   15.429    1.429    0.000    0.000    0.000    0.000 
#    0.000    0.000    0.000    0.000    0.000    0.000 
#
# Total GULP energy -233912.913177 kJ/mol
# GULP energy per Si atom -5569.355076 kJ/mol
# Density = 2.241772 g / cm^3
# Si number density = 22.468856 Si / 1000 Ang^3
#
#
#
# Elastic Constant Matrix: (Units=GPa)
#
#
# Indices 1 2 3 4 5 6 
#
# 1 69.8437 26.8635 36.4878 0.0000 0.0000 0.0000
# 2 26.8635 69.8437 36.4878 0.0000 0.0000 0.0000
# 3 36.4878 36.4878 151.9045 0.0000 0.0000 0.0000
# 4 0.0000 0.0000 0.0000 21.4930 0.0000 0.0000
# 5 0.0000 0.0000 0.0000 0.0000 21.4930 0.0000
# 6 0.0000 0.0000 0.0000 0.0000 0.0000 21.4901
#
#
#
# Elastic Compliance Matrix: (Units=1/GPa)
#
#
# Indices 1 2 3 4 5 6 
#
# 1 0.017948 -0.005318 -0.003034 0.000000 0.000000 0.000000
# 2 -0.005318 0.017948 -0.003034 0.000000 0.000000 0.000000
# 3 -0.003034 -0.003034 0.008040 0.000000 0.000000 0.000000
# 4 0.000000 0.000000 0.000000 0.046527 0.000000 0.000000
# 5 0.000000 0.000000 0.000000 0.000000 0.046527 0.000000
# 6 0.000000 0.000000 0.000000 0.000000 0.000000 0.046533
#
#
# Mechanical properties :
#
#
# Convention : Reuss Voigt Hill
#
# Bulk Modulus (GPa) = 47.24744 54.58557 50.91651
# Shear Modulus (GPa) = 23.43569 25.67875 24.55722
#
# Velocity S-wave (km/s) = 3.23310 3.38429 3.30956
# Velocity P-wave (km/s) = 5.91700 6.29427 6.10855
#
# Compressibility (1/GPa) = 0.02116517
#
# Stress axis : x y z
#
# Youngs Moduli (GPa) = 55.71615 55.71615 124.37069
#
# Poissons Ratio (x) = 0.29632 0.37730
# Poissons Ratio (y) = 0.29632 0.37730
# Poissons Ratio (z) = 0.16903 0.16903
#
# Static dielectric constant tensor:
#      x y z
#    x 1.892340 0.000000 0.000000 
#    y 0.000000 1.892340 0.000000 
#    z 0.000000 0.000000 1.916990 
# 
# From -- ./inp_files/5017.got.cif
#   From: 2010.05.17/outbox.cif.g08.bks.cpg/sg171_3_cif.got.tgz:5017.got - 2010.05.20 11:16:09.
