data_PCOD9580759
_publ_section_title
;
Structure prediction by ZEFSAII (Michael W. Deem and Ramdas Pophale) SiO2 
 PCOD9580759
Probable space group: P 62
;
_chemical_formula_sum "Si O2"
_cell_formula_units_Z 42
_cell_length_a 14.537647
_cell_length_b 14.537647
_cell_length_c 11.429140
_cell_angle_alpha 90.000000
_cell_angle_beta 90.000000
_cell_angle_gamma 120.000000
_cell_volume 2091.859071
_symmetry_space_group_name_H-M "P 62"
_symmetry_group_IT_number 171
_symmetry_cell_setting 'hexagonal'
loop_
_space_group_symop_operation_xyz
x,y,z
x-y,x,1/3+z
-y,x-y,2/3+z
-x,-y,z
-x+y,-x,1/3+z
y,-x+y,2/3+z
loop_
_atom_site_type_symbol
_atom_site_label
_atom_site_fract_x
_atom_site_fract_y
_atom_site_fract_z
Si Si1 0.428399 0.380351 0.073590
Si Si2 0.753272 0.654858 0.915307
Si Si3 0.068124 0.451478 0.810649
Si Si4 0.162160 0.383277 0.612533
Si Si5 0.190702 0.594009 0.216351
Si Si6 0.281055 0.272819 0.660926
Si Si7 0.235675 0.629360 0.960829
O O1 0.500000 0.500000 0.123769
O O2 0.411111 0.291179 0.164401
O O3 0.311681 0.345879 0.028411
O O4 0.495552 0.386292 0.958935
O O5 0.687698 0.527304 0.888760
O O6 0.732459 0.709020 0.799884
O O7 0.877110 0.704009 0.954421
O O8 0.089058 0.379635 0.720701
O O9 0.016054 0.384143 0.928720
O O10 0.174779 0.554609 0.852345
O O11 0.000000 0.500000 0.758216
O O12 0.183606 0.285026 0.608233
O O13 0.274040 0.488958 0.634470
O O14 0.306258 0.642456 0.274473
O O15 0.196367 0.566733 0.082561
#
# Coordination Sequence:
#
# PCOD9580759 Si02
#       7
#     6   6   6   6   6   6   6
#     4  10  25  44  63  97 140 176 226 284 349 413
#     4  11  23  44  66  96 129 179 233 289 343 414
#     4  12  22  37  64  95 136 180 216 271 335 413
#     4  12  24  41  61 101 137 175 226 278 350 406
#     4  11  21  37  62  95 139 181 224 272 331 420
#     4  12  21  43  69  96 128 175 237 282 338 418
#     4  12  19  35  59  96 135 177 218 262 327 408
#
# _framework density 20.077833999999999
#
# number of rings (size 3 to 8) (size 9 to 14) (size 15 to 20)
#    0.000    0.571    7.143    2.143    0.000    1.143 
#    2.571    0.000    0.000    2.571    0.000    0.000 
#    0.000    0.000    0.000    0.000    0.000    0.000 
#
# Total GULP energy -234102.265268 kJ/mol
# GULP energy per Si atom -5573.863459 kJ/mol
# Density = 2.003214 g / cm^3
# Si number density = 20.077834 Si / 1000 Ang^3
#
#
#
# Elastic Constant Matrix: (Units=GPa)
#
#
# Indices 1 2 3 4 5 6 
#
# 1 95.8997 34.2760 36.5482 0.0000 0.0000 0.0000
# 2 34.2760 95.8997 36.5482 0.0000 0.0000 0.0000
# 3 36.5482 36.5482 96.2741 0.0000 0.0000 0.0000
# 4 0.0000 0.0000 0.0000 27.2705 0.0000 0.0000
# 5 0.0000 0.0000 0.0000 0.0000 27.2705 0.0000
# 6 0.0000 0.0000 0.0000 0.0000 0.0000 30.8119
#
#
#
# Elastic Compliance Matrix: (Units=1/GPa)
#
#
# Indices 1 2 3 4 5 6 
#
# 1 0.012995 -0.003232 -0.003706 0.000000 0.000000 0.000000
# 2 -0.003232 0.012995 -0.003706 0.000000 0.000000 0.000000
# 3 -0.003706 -0.003706 0.013201 0.000000 0.000000 0.000000
# 4 0.000000 0.000000 0.000000 0.036670 0.000000 0.000000
# 5 0.000000 0.000000 0.000000 0.000000 0.036670 0.000000
# 6 0.000000 0.000000 0.000000 0.000000 0.000000 0.032455
#
#
# Mechanical properties :
#
#
# Convention : Reuss Voigt Hill
#
# Bulk Modulus (GPa) = 55.85988 55.86870 55.86429
# Shear Modulus (GPa) = 29.02875 29.11733 29.07304
#
# Velocity S-wave (km/s) = 3.80651 3.81231 3.80941
# Velocity P-wave (km/s) = 6.87033 6.87494 6.87263
#
# Compressibility (1/GPa) = 0.01790194
#
# Stress axis : x y z
#
# Youngs Moduli (GPa) = 76.95086 76.95086 75.75148
#
# Poissons Ratio (x) = 0.24872 0.28076
# Poissons Ratio (y) = 0.24872 0.28076
# Poissons Ratio (z) = 0.28521 0.28521
#
# Static dielectric constant tensor:
#      x y z
#    x 1.775260 0.000000 0.000000 
#    y 0.000000 1.775260 0.000000 
#    z 0.000000 0.000000 1.717600 
# 
# From -- ./inp_files/1662.got.cif
#   From: 2010.05.17/outbox.cif.g08.bks.cpg/sg171_1_cif.got.tgz:1662.got - 2010.05.20 11:16:09.
