data_PCOD9580728
_publ_section_title
;
Structure prediction by ZEFSAII (Michael W. Deem and Ramdas Pophale) SiO2 
 PCOD9580728
Probable space group: P 62
;
_chemical_formula_sum "Si O2"
_cell_formula_units_Z 42
_cell_length_a 11.454982
_cell_length_b 11.454982
_cell_length_c 15.471375
_cell_angle_alpha 90.000000
_cell_angle_beta 90.000000
_cell_angle_gamma 120.000000
_cell_volume 1758.119402
_symmetry_space_group_name_H-M "P 62"
_symmetry_group_IT_number 171
_symmetry_cell_setting 'hexagonal'
loop_
_space_group_symop_operation_xyz
x,y,z
x-y,x,1/3+z
-y,x-y,2/3+z
-x,-y,z
-x+y,-x,1/3+z
y,-x+y,2/3+z
loop_
_atom_site_type_symbol
_atom_site_label
_atom_site_fract_x
_atom_site_fract_y
_atom_site_fract_z
Si Si1 0.296041 0.904588 0.877300
Si Si2 0.517222 0.175846 0.318285
Si Si3 0.198859 0.667840 0.288668
Si Si4 0.198715 0.816838 0.588156
Si Si5 0.249586 0.323686 0.802029
Si Si6 0.269313 0.048201 0.096243
Si Si7 0.500000 0.500000 0.079399
Si Si8 0.500000 0.500000 0.491140
O O1 0.279784 0.812059 0.958318
O O2 0.145780 0.856780 0.843533
O O3 0.377505 0.885552 0.800031
O O4 0.380797 0.063833 0.890883
O O5 0.670107 0.247692 0.347623
O O6 0.408603 0.073476 0.385297
O O7 0.532447 0.118198 0.226652
O O8 0.200600 0.530255 0.265535
O O9 0.173876 0.735580 0.204569
O O10 0.071199 0.626538 0.349350
O O11 0.137594 0.840587 0.677229
O O12 0.240127 0.933923 0.517814
O O13 0.095257 0.229427 0.771854
O O14 0.385689 0.006810 0.103090
#
# Coordination Sequence:
#
# PCOD9580728 Si02
#       8
#     6   6   6   6   6   6   3   3
#     4  11  25  46  69 108 143 203 252 318 391 469
#     4  11  26  42  71 110 148 197 257 319 398 466
#     4  12  25  44  72 113 154 201 255 331 405 462
#     4  12  26  48  75 105 155 205 260 324 394 465
#     4  12  26  48  74 112 153 206 266 322 395 472
#     4  11  24  49  72 107 152 201 265 314 391 484
#     4  12  24  44  70 112 154 190 260 314 404 470
#     4  10  24  42  72 106 150 194 252 322 388 472
#
# _framework density 23.889161999999999
#
# number of rings (size 3 to 8) (size 9 to 14) (size 15 to 20)
#    0.000    0.571    5.714    0.857    8.000    1.143 
#    5.143    1.429    0.000    0.000    0.000    0.000 
#    0.000    0.000    0.000    0.000    0.000    0.000 
#
# Total GULP energy -234578.579247 kJ/mol
# GULP energy per Si atom -5585.204268 kJ/mol
# Density = 2.383479 g / cm^3
# Si number density = 23.889162 Si / 1000 Ang^3
#
#
#
# Elastic Constant Matrix: (Units=GPa)
#
#
# Indices 1 2 3 4 5 6 
#
# 1 91.2783 21.1545 18.5134 0.0000 0.0000 0.0000
# 2 21.1545 91.2783 18.5134 0.0000 0.0000 0.0000
# 3 18.5134 18.5134 81.6355 0.0000 0.0000 0.0000
# 4 0.0000 0.0000 0.0000 42.2166 0.0000 0.0000
# 5 0.0000 0.0000 0.0000 0.0000 42.2166 0.0000
# 6 0.0000 0.0000 0.0000 0.0000 0.0000 35.0619
#
#
#
# Elastic Compliance Matrix: (Units=1/GPa)
#
#
# Indices 1 2 3 4 5 6 
#
# 1 0.011936 -0.002324 -0.002180 0.000000 0.000000 0.000000
# 2 -0.002324 0.011936 -0.002180 0.000000 0.000000 0.000000
# 3 -0.002180 -0.002180 0.013238 0.000000 0.000000 0.000000
# 4 0.000000 0.000000 0.000000 0.023687 0.000000 0.000000
# 5 0.000000 0.000000 0.000000 0.000000 0.023687 0.000000
# 6 0.000000 0.000000 0.000000 0.000000 0.000000 0.028521
#
#
# Mechanical properties :
#
#
# Convention : Reuss Voigt Hill
#
# Bulk Modulus (GPa) = 42.11756 42.28385 42.20070
# Shear Modulus (GPa) = 37.23321 37.63306 37.43313
#
# Velocity S-wave (km/s) = 3.95217 3.97334 3.96277
# Velocity P-wave (km/s) = 6.20442 6.22802 6.21624
#
# Compressibility (1/GPa) = 0.02374307
#
# Stress axis : x y z
#
# Youngs Moduli (GPa) = 83.77817 83.77817 75.53856
#
# Poissons Ratio (x) = 0.19472 0.16466
# Poissons Ratio (y) = 0.19472 0.16466
# Poissons Ratio (z) = 0.18262 0.18262
#
# Static dielectric constant tensor:
#      x y z
#    x 1.948150 0.000000 0.000000 
#    y 0.000000 1.948150 0.000000 
#    z 0.000000 0.000000 1.996440 
# 
# From -- ./inp_files/2511.got.cif
#   From: 2010.05.17/outbox.cif.g08.bks.cpg/sg171_2_cif.got.tgz:2511.got - 2010.05.20 11:16:09.
