data_PCOD9580057
_publ_section_title
;
Structure prediction by ZEFSAII (Michael W. Deem and Ramdas Pophale) SiO2 
 PCOD9580057
Probable space group: P 61
;
_chemical_formula_sum "Si O2"
_cell_formula_units_Z 48
_cell_length_a 12.179534
_cell_length_b 12.179534
_cell_length_c 16.771155
_cell_angle_alpha 90.000000
_cell_angle_beta 90.000000
_cell_angle_gamma 120.000000
_cell_volume 2154.541921
_symmetry_space_group_name_H-M "P 61"
_symmetry_group_IT_number 169
_symmetry_cell_setting 'hexagonal'
loop_
_space_group_symop_operation_xyz
x,y,z
x-y,x,1/6+z
-y,x-y,1/3+z
-x,-y,1/2+z
-x+y,-x,2/3+z
y,-x+y,5/6+z
loop_
_atom_site_type_symbol
_atom_site_label
_atom_site_fract_x
_atom_site_fract_y
_atom_site_fract_z
Si Si1 0.637148 0.545263 0.938330
Si Si2 0.091782 0.364870 0.380642
Si Si3 0.042379 0.740362 0.408883
Si Si4 0.821530 0.160496 0.378474
Si Si5 0.108124 0.015111 0.796959
Si Si6 0.322754 0.605668 0.132075
Si Si7 0.593146 0.670029 0.080974
Si Si8 0.547642 0.116683 0.662872
O O1 0.781735 0.630578 0.911535
O O2 0.604080 0.400920 0.922942
O O3 0.538817 0.570515 0.890867
O O4 0.622252 0.577592 0.028779
O O5 0.086304 0.354677 0.285291
O O6 0.103661 0.493834 0.413861
O O7 0.964539 0.244645 0.410498
O O8 0.184048 0.849941 0.383242
O O9 0.066655 0.664643 0.478491
O O10 0.960667 0.799995 0.441305
O O11 0.969562 0.647154 0.336059
O O12 0.785375 0.261816 0.346983
O O13 0.823580 0.067711 0.311364
O O14 0.056593 0.017175 0.886199
O O15 0.443241 0.622791 0.082518
O O16 0.382177 0.735084 0.183949
#
# Coordination Sequence:
#
# PCOD9580057 Si02
#       8
#     6   6   6   6   6   6   6   6
#     4  11  26  45  76 108 141 194 252 307 372 456
#     4  11  24  45  67 107 141 190 238 305 370 436
#     4  11  25  48  70 106 146 197 241 310 371 443
#     4  12  25  44  75 104 151 191 245 306 377 454
#     4  12  27  49  72 110 152 198 253 309 380 461
#     4  10  27  45  70 111 139 198 242 305 373 455
#     4  11  26  47  76 103 148 193 247 308 377 453
#     4  10  24  47  72 103 150 187 248 306 370 438
#
# _framework density 22.278516
#
# number of rings (size 3 to 8) (size 9 to 14) (size 15 to 20)
#    0.000    1.000    3.750    0.750    8.750    3.000 
#    2.250    0.000    0.000    0.000    0.000    0.000 
#    0.000    0.000    0.000    0.000    0.000    0.000 
#
# Total GULP energy -268244.719695 kJ/mol
# GULP energy per Si atom -5588.431660 kJ/mol
# Density = 2.222781 g / cm^3
# Si number density = 22.278516 Si / 1000 Ang^3
#
#
#
# Elastic Constant Matrix: (Units=GPa)
#
#
# Indices 1 2 3 4 5 6 
#
# 1 110.0719 47.4026 29.9975 0.0000 0.0000 0.0000
# 2 47.4026 110.0719 29.9975 0.0000 0.0000 0.0000
# 3 29.9975 29.9975 79.7671 0.0000 0.0000 0.0000
# 4 0.0000 0.0000 0.0000 13.4739 0.0000 0.0000
# 5 0.0000 0.0000 0.0000 0.0000 13.4739 0.0000
# 6 0.0000 0.0000 0.0000 0.0000 0.0000 31.3347
#
#
#
# Elastic Compliance Matrix: (Units=1/GPa)
#
#
# Indices 1 2 3 4 5 6 
#
# 1 0.011684 -0.004272 -0.002787 0.000000 0.000000 0.000000
# 2 -0.004272 0.011684 -0.002787 0.000000 0.000000 0.000000
# 3 -0.002787 -0.002787 0.014633 0.000000 0.000000 0.000000
# 4 0.000000 0.000000 0.000000 0.074218 0.000000 0.000000
# 5 0.000000 0.000000 0.000000 0.000000 0.074218 0.000000
# 6 0.000000 0.000000 0.000000 0.000000 0.000000 0.031914
#
#
# Mechanical properties :
#
#
# Convention : Reuss Voigt Hill
#
# Bulk Modulus (GPa) = 54.62213 57.18956 55.90584
# Shear Modulus (GPa) = 20.47941 24.49072 22.48506
#
# Velocity S-wave (km/s) = 3.03519 3.31916 3.18035
# Velocity P-wave (km/s) = 6.07077 6.35729 6.21568
#
# Compressibility (1/GPa) = 0.01830760
#
# Stress axis : x y z
#
# Youngs Moduli (GPa) = 85.58359 85.58359 68.33857
#
# Poissons Ratio (x) = 0.36564 0.19049
# Poissons Ratio (y) = 0.36564 0.19049
# Poissons Ratio (z) = 0.23856 0.23856
#
# Static dielectric constant tensor:
#      x y z
#    x 1.827320 0.000000 0.000000 
#    y 0.000000 1.827320 0.000000 
#    z 0.000000 0.000000 1.827520 
# 
# From -- ./inp_files/1431.got.cif
#   From: 2010.05.17/outbox.cif.g08.bks.cpg/sg169_cif.got.tgz:1431.got - 2010.05.20 11:12:54.
