data_PCOD9580281
_publ_section_title
;
Structure prediction by ZEFSAII (Michael W. Deem and Ramdas Pophale) SiO2 
 PCOD9580281
Probable space group: P 65
;
_chemical_formula_sum "Si O2"
_cell_formula_units_Z 42
_cell_length_a 14.305245
_cell_length_b 14.305245
_cell_length_c 11.012569
_cell_angle_alpha 90.000000
_cell_angle_beta 90.000000
_cell_angle_gamma 120.000000
_cell_volume 1951.685675
_symmetry_space_group_name_H-M "P 65"
_symmetry_group_IT_number 170
_symmetry_cell_setting 'hexagonal'
loop_
_space_group_symop_operation_xyz
x,y,z
x-y,x,5/6+z
-y,x-y,2/3+z
-x,-y,1/2+z
-x+y,-x,1/3+z
y,-x+y,1/6+z
loop_
_atom_site_type_symbol
_atom_site_label
_atom_site_fract_x
_atom_site_fract_y
_atom_site_fract_z
Si Si1 0.014855 0.391982 0.531080
Si Si2 0.160507 0.180810 0.965894
Si Si3 0.840220 0.155924 0.449926
Si Si4 0.140153 0.743345 0.697737
Si Si5 0.367910 0.811817 0.694619
Si Si6 0.076050 0.464431 0.128679
Si Si7 0.403354 0.169773 0.248249
O O1 0.104088 0.393543 0.622266
O O2 0.083538 0.450979 0.413126
O O3 0.919888 0.270493 0.509773
O O4 0.965756 0.464356 0.567837
O O5 0.213057 0.146442 0.856353
O O6 0.045286 0.157002 0.915790
O O7 0.230239 0.307708 0.002287
O O8 0.861988 0.179545 0.304488
O O9 0.242519 0.724017 0.723927
O O10 0.156082 0.785537 0.558304
O O11 0.027184 0.633985 0.691630
O O12 0.375812 0.829529 0.551475
O O13 0.477988 0.818098 0.737956
O O14 0.131966 0.416235 0.043029
#
# Coordination Sequence:
#
# PCOD9580281 Si02
#       7
#     6   6   6   6   6   6   6
#     4  11  22  41  68 100 140 184 229 303 360 437
#     4  12  27  50  71 105 142 188 250 313 369 438
#     4  11  23  44  70 102 140 188 242 295 375 428
#     4  10  22  42  69 102 142 191 238 297 362 451
#     4  10  22  39  65 101 140 181 237 290 355 439
#     4  11  22  42  67 101 143 188 238 291 370 433
#     4  11  24  46  72 103 145 192 242 305 369 438
#
# _framework density 21.519860000000001
#
# number of rings (size 3 to 8) (size 9 to 14) (size 15 to 20)
#    0.000    1.143    4.286    1.714    0.000    1.143 
#    7.714    0.000    0.000    0.000    0.000    0.000 
#    0.000    0.000    0.000    0.000    0.000    0.000 
#
# Total GULP energy -233839.352650 kJ/mol
# GULP energy per Si atom -5567.603635 kJ/mol
# Density = 2.147088 g / cm^3
# Si number density = 21.519860 Si / 1000 Ang^3
#
#
#
# Elastic Constant Matrix: (Units=GPa)
#
#
# Indices 1 2 3 4 5 6 
#
# 1 123.5381 63.4687 25.2798 0.0000 0.0000 0.0000
# 2 63.4687 123.5381 25.2798 0.0000 0.0000 0.0000
# 3 25.2798 25.2798 48.2848 0.0000 0.0000 0.0000
# 4 0.0000 0.0000 0.0000 0.5403 0.0000 0.0000
# 5 0.0000 0.0000 0.0000 0.0000 0.5403 0.0000
# 6 0.0000 0.0000 0.0000 0.0000 0.0000 30.0347
#
#
#
# Elastic Compliance Matrix: (Units=1/GPa)
#
#
# Indices 1 2 3 4 5 6 
#
# 1 0.011438 -0.005209 -0.003261 0.000000 0.000000 0.000000
# 2 -0.005209 0.011438 -0.003261 0.000000 0.000000 0.000000
# 3 -0.003261 -0.003261 0.024125 0.000000 0.000000 0.000000
# 4 0.000000 0.000000 0.000000 1.850913 0.000000 0.000000
# 5 0.000000 0.000000 0.000000 0.000000 1.850913 0.000000
# 6 0.000000 0.000000 0.000000 0.000000 0.000000 0.033295
#
#
# Mechanical properties :
#
#
# Convention : Reuss Voigt Hill
#
# Bulk Modulus (GPa) = 42.48367 58.15752 50.32060
# Shear Modulus (GPa) = 1.31115 18.31191 9.81153
#
# Velocity S-wave (km/s) = 0.78141 2.92024 2.13757
# Velocity P-wave (km/s) = 4.53857 6.20114 5.43381
#
# Compressibility (1/GPa) = 0.02353845
#
# Stress axis : x y z
#
# Youngs Moduli (GPa) = 87.42586 87.42586 41.45011
#
# Poissons Ratio (x) = 0.45541 0.13518
# Poissons Ratio (y) = 0.45541 0.13518
# Poissons Ratio (z) = 0.28512 0.28512
#
# Static dielectric constant tensor:
#      x y z
#    x 1.865530 0.000000 0.000000 
#    y 0.000000 1.865530 0.000000 
#    z 0.000000 0.000000 1.849790 
# 
# From -- ./inp_files/972.got.cif
#   From: 2010.05.17/outbox.cif.g08.bks.cpg/sg170_cif.got.tgz:972.got - 2010.05.20 11:14:30.
