data_PCOD9580311
_publ_section_title
;
Structure prediction by ZEFSAII (Michael W. Deem and Ramdas Pophale) SiO2 
 PCOD9580311
Probable space group: P 65
;
_chemical_formula_sum "Si O2"
_cell_formula_units_Z 48
_cell_length_a 18.343066
_cell_length_b 18.343066
_cell_length_c 9.445469
_cell_angle_alpha 90.000000
_cell_angle_beta 90.000000
_cell_angle_gamma 120.000000
_cell_volume 2752.314234
_symmetry_space_group_name_H-M "P 65"
_symmetry_group_IT_number 170
_symmetry_cell_setting 'hexagonal'
loop_
_space_group_symop_operation_xyz
x,y,z
x-y,x,5/6+z
-y,x-y,2/3+z
-x,-y,1/2+z
-x+y,-x,1/3+z
y,-x+y,1/6+z
loop_
_atom_site_type_symbol
_atom_site_label
_atom_site_fract_x
_atom_site_fract_y
_atom_site_fract_z
Si Si1 0.499861 0.687124 0.572430
Si Si2 0.534002 0.601342 0.017982
Si Si3 0.858703 0.342124 0.773497
Si Si4 0.616155 0.504591 0.126854
Si Si5 0.880410 0.233826 0.002232
Si Si6 0.465070 0.655338 0.246689
Si Si7 0.495038 0.793023 0.040148
Si Si8 0.654735 0.723485 0.768431
O O1 0.481729 0.759629 0.622780
O O2 0.427103 0.596232 0.624044
O O3 0.498940 0.692834 0.401817
O O4 0.586792 0.701419 0.640549
O O5 0.547984 0.526074 0.067533
O O6 0.537123 0.647854 0.163338
O O7 0.437013 0.555438 0.970754
O O8 0.597853 0.661340 0.897864
O O9 0.887593 0.347026 0.611789
O O10 0.897071 0.299399 0.874171
O O11 0.684579 0.539789 0.004294
O O12 0.823015 0.135277 0.961820
O O13 0.812716 0.242817 0.101334
O O14 0.973175 0.271600 0.069932
O O15 0.381824 0.568156 0.287606
O O16 0.444920 0.706458 0.128029
#
# Coordination Sequence:
#
# PCOD9580311 Si02
#       8
#     6   6   6   6   6   6   6   6
#     4  10  23  38  53  79 115 159 204 254 290 345
#     4  12  23  35  60  83 114 160 203 252 293 350
#     4  11  23  38  54  81 116 160 205 247 300 340
#     4  11  23  37  56  80 114 158 203 249 291 355
#     4  11  23  42  61  88 116 156 194 251 307 368
#     4  11  24  37  54  81 114 166 208 253 293 348
#     4  11  22  40  53  80 119 158 214 246 301 348
#     4  11  23  41  63  84 124 147 199 250 307 368
#
# _framework density 17.439869000000002
#
# number of rings (size 3 to 8) (size 9 to 14) (size 15 to 20)
#    0.000    1.000    6.250    0.750    5.250    2.000 
#    0.000    0.000    0.000    0.000    0.000    0.000 
#   11.250    0.000    0.000    0.000    0.000    0.000 
#
# Total GULP energy -267316.644861 kJ/mol
# GULP energy per Si atom -5569.096768 kJ/mol
# Density = 1.740017 g / cm^3
# Si number density = 17.439869 Si / 1000 Ang^3
#
#
#
# Elastic Constant Matrix: (Units=GPa)
#
#
# Indices 1 2 3 4 5 6 
#
# 1 73.9943 40.1508 26.5148 0.0000 0.0000 0.0000
# 2 40.1508 73.9943 26.5148 0.0000 0.0000 0.0000
# 3 26.5148 26.5148 97.5072 0.0000 0.0000 0.0000
# 4 0.0000 0.0000 0.0000 18.0351 0.0000 0.0000
# 5 0.0000 0.0000 0.0000 0.0000 18.0351 0.0000
# 6 0.0000 0.0000 0.0000 0.0000 0.0000 16.9218
#
#
#
# Elastic Compliance Matrix: (Units=1/GPa)
#
#
# Indices 1 2 3 4 5 6 
#
# 1 0.019788 -0.009760 -0.002727 0.000000 0.000000 0.000000
# 2 -0.009760 0.019788 -0.002727 0.000000 0.000000 0.000000
# 3 -0.002727 -0.002727 0.011739 0.000000 0.000000 0.000000
# 4 0.000000 0.000000 0.000000 0.055447 0.000000 0.000000
# 5 0.000000 0.000000 0.000000 0.000000 0.055447 0.000000
# 6 0.000000 0.000000 0.000000 0.000000 0.000000 0.059096
#
#
# Mechanical properties :
#
#
# Convention : Reuss Voigt Hill
#
# Bulk Modulus (GPa) = 47.87732 47.98406 47.93069
# Shear Modulus (GPa) = 19.32788 20.75277 20.04033
#
# Velocity S-wave (km/s) = 3.33266 3.45332 3.39353
# Velocity P-wave (km/s) = 6.50548 6.59351 6.54964
#
# Compressibility (1/GPa) = 0.02088672
#
# Stress axis : x y z
#
# Youngs Moduli (GPa) = 50.53653 50.53653 85.18895
#
# Poissons Ratio (x) = 0.49324 0.23229
# Poissons Ratio (y) = 0.49324 0.23229
# Poissons Ratio (z) = 0.13780 0.13780
#
# Static dielectric constant tensor:
#      x y z
#    x 1.702540 0.000000 0.000000 
#    y 0.000000 1.702540 0.000000 
#    z 0.000000 0.000000 1.649840 
# 
# From -- ./inp_files/749.got.cif
#   From: 2010.05.17/outbox.cif.g08.bks.cpg/sg170_cif.got.tgz:749.got - 2010.05.20 11:14:30.
