data_PCOD9580013
_publ_section_title
;
Structure prediction by ZEFSAII (Michael W. Deem and Ramdas Pophale) SiO2 
 PCOD9580013
Probable space group: P 61
;
_chemical_formula_sum "Si O2"
_cell_formula_units_Z 30
_cell_length_a 14.525356
_cell_length_b 14.525356
_cell_length_c 7.562237
_cell_angle_alpha 90.000000
_cell_angle_beta 90.000000
_cell_angle_gamma 120.000000
_cell_volume 1381.765949
_symmetry_space_group_name_H-M "P 61"
_symmetry_group_IT_number 169
_symmetry_cell_setting 'hexagonal'
loop_
_space_group_symop_operation_xyz
x,y,z
x-y,x,1/6+z
-y,x-y,1/3+z
-x,-y,1/2+z
-x+y,-x,2/3+z
y,-x+y,5/6+z
loop_
_atom_site_type_symbol
_atom_site_label
_atom_site_fract_x
_atom_site_fract_y
_atom_site_fract_z
Si Si1 0.641248 0.577754 0.102460
Si Si2 0.014741 0.810591 0.134106
Si Si3 0.455172 0.876387 0.570847
Si Si4 0.791727 0.244710 0.101902
Si Si5 0.885024 0.112395 0.254358
O O1 0.701416 0.700990 0.042457
O O2 0.526875 0.540469 0.187672
O O3 0.713269 0.564207 0.248948
O O4 0.625001 0.510793 0.924855
O O5 0.095398 0.907373 0.258394
O O6 0.011857 0.843344 0.630062
O O7 0.072860 0.831412 0.944221
O O8 0.509773 0.846649 0.414680
O O9 0.330947 0.791041 0.584165
O O10 0.806369 0.148337 0.174541
#
# Coordination Sequence:
#
# PCOD9580013 Si02
#       5
#     6   6   6   6   6
#     4  12  25  49  76 107 151 194 248 307 380 444
#     4  10  22  44  75 110 150 197 242 301 368 448
#     4  12  28  47  75 106 147 194 250 311 376 442
#     4  12  27  47  74 110 143 198 250 312 370 443
#     4  10  22  45  76 109 153 195 240 297 368 451
#
# _framework density 21.711348000000001
#
# number of rings (size 3 to 8) (size 9 to 14) (size 15 to 20)
#    0.000    0.800    4.000    2.400    2.800    0.000 
#    0.000   26.000    0.000    0.000    0.000    0.000 
#    0.000    0.000    0.000    0.000    0.000    0.000 
#
# Total GULP energy -168081.529994 kJ/mol
# GULP energy per Si atom -5602.717666 kJ/mol
# Density = 2.166193 g / cm^3
# Si number density = 21.711348 Si / 1000 Ang^3
#
#
#
# Elastic Constant Matrix: (Units=GPa)
#
#
# Indices 1 2 3 4 5 6 
#
# 1 82.1014 32.3500 49.6778 0.0000 0.0000 0.0000
# 2 32.3500 82.1014 49.6778 0.0000 0.0000 0.0000
# 3 49.6778 49.6778 178.1669 0.0000 0.0000 0.0000
# 4 0.0000 0.0000 0.0000 32.6268 0.0000 0.0000
# 5 0.0000 0.0000 0.0000 0.0000 32.6268 0.0000
# 6 0.0000 0.0000 0.0000 0.0000 0.0000 24.8757
#
#
#
# Elastic Compliance Matrix: (Units=1/GPa)
#
#
# Indices 1 2 3 4 5 6 
#
# 1 0.015814 -0.004286 -0.003214 0.000000 0.000000 0.000000
# 2 -0.004286 0.015814 -0.003214 0.000000 0.000000 0.000000
# 3 -0.003214 -0.003214 0.007405 0.000000 0.000000 0.000000
# 4 0.000000 0.000000 0.000000 0.030650 0.000000 0.000000
# 5 0.000000 0.000000 0.000000 0.000000 0.030650 0.000000
# 6 0.000000 0.000000 0.000000 0.000000 0.000000 0.040200
#
#
# Mechanical properties :
#
#
# Convention : Reuss Voigt Hill
#
# Bulk Modulus (GPa) = 56.80694 67.30900 62.05797
# Shear Modulus (GPa) = 29.79226 32.07014 30.93120
#
# Velocity S-wave (km/s) = 3.70834 3.84749 3.77856
# Velocity P-wave (km/s) = 6.67511 7.12788 6.90521
#
# Compressibility (1/GPa) = 0.01760348
#
# Stress axis : x y z
#
# Youngs Moduli (GPa) = 63.23603 63.23603 135.04139
#
# Poissons Ratio (x) = 0.27104 0.43405
# Poissons Ratio (y) = 0.27104 0.43405
# Poissons Ratio (z) = 0.20325 0.20325
#
# Static dielectric constant tensor:
#      x y z
#    x 1.759150 0.000000 0.000000 
#    y 0.000000 1.759150 0.000000 
#    z 0.000000 0.000000 1.779710 
# 
# From -- ./inp_files/174.got.cif
#   From: 2010.05.17/outbox.cif.g08.bks.cpg/sg169_cif.got.tgz:174.got - 2010.05.20 11:12:54.
