data_PCOD9580228
_publ_section_title
;
Structure prediction by ZEFSAII (Michael W. Deem and Ramdas Pophale) SiO2 
 PCOD9580228
Probable space group: P 65
;
_chemical_formula_sum "Si O2"
_cell_formula_units_Z 48
_cell_length_a 23.167237
_cell_length_b 23.167237
_cell_length_c 5.521972
_cell_angle_alpha 90.000000
_cell_angle_beta 90.000000
_cell_angle_gamma 120.000000
_cell_volume 2566.689387
_symmetry_space_group_name_H-M "P 65"
_symmetry_group_IT_number 170
_symmetry_cell_setting 'hexagonal'
loop_
_space_group_symop_operation_xyz
x,y,z
x-y,x,5/6+z
-y,x-y,2/3+z
-x,-y,1/2+z
-x+y,-x,1/3+z
y,-x+y,1/6+z
loop_
_atom_site_type_symbol
_atom_site_label
_atom_site_fract_x
_atom_site_fract_y
_atom_site_fract_z
Si Si1 0.384807 0.237433 0.170270
Si Si2 0.295333 0.831195 0.838804
Si Si3 0.391902 0.453133 0.623457
Si Si4 0.490587 0.426250 0.903696
Si Si5 0.297182 0.537515 0.253192
Si Si6 0.288657 0.414463 0.003144
Si Si7 0.366145 0.348721 0.230542
Si Si8 0.333680 0.727051 0.185595
O O1 0.424545 0.268196 0.422652
O O2 0.370581 0.161879 0.168910
O O3 0.337539 0.270096 0.195182
O O4 0.419678 0.261344 0.907867
O O5 0.275733 0.754477 0.808950
O O6 0.372863 0.882580 0.884133
O O7 0.450368 0.461255 0.804888
O O8 0.434592 0.518465 0.463247
O O9 0.328038 0.448229 0.754715
O O10 0.370359 0.383513 0.486780
O O11 0.442350 0.384172 0.127309
O O12 0.365266 0.604601 0.327246
O O13 0.305888 0.474772 0.189093
O O14 0.257368 0.542452 0.014332
O O15 0.322591 0.371720 0.077517
O O16 0.371533 0.716413 0.411922
#
# Coordination Sequence:
#
# PCOD9580228 Si02
#       8
#     6   6   6   6   6   6   6   6
#     4  10  22  43  64  86 120 153 191 245 304 368
#     4  10  22  39  63  80 109 155 195 239 311 373
#     4  11  20  37  59  87 118 146 200 256 305 363
#     4  10  20  38  56  82 113 150 194 252 303 361
#     4  10  22  42  57  77 107 148 198 254 305 384
#     4  10  25  39  61  91 114 151 204 252 308 370
#     4  10  21  40  61  85 117 151 196 243 305 366
#     4   9  20  40  53  66 100 138 188 241 307 365
#
# _framework density 18.701132999999999
#
# number of rings (size 3 to 8) (size 9 to 14) (size 15 to 20)
#    0.000    2.000    2.500    0.000    7.000    0.000 
#   11.250    5.000    0.000    0.000    0.000    0.000 
#    0.000    0.000    0.000    0.000    4.750    0.250 
#
# Total GULP energy -267211.151425 kJ/mol
# GULP energy per Si atom -5566.898988 kJ/mol
# Density = 1.865857 g / cm^3
# Si number density = 18.701133 Si / 1000 Ang^3
#
#
#
# Elastic Constant Matrix: (Units=GPa)
#
#
# Indices 1 2 3 4 5 6 
#
# 1 89.2513 36.9015 17.3571 0.0000 0.0000 0.0000
# 2 36.9015 89.2513 17.3571 0.0000 0.0000 0.0000
# 3 17.3571 17.3571 72.3821 0.0000 0.0000 0.0000
# 4 0.0000 0.0000 0.0000 25.7066 0.0000 0.0000
# 5 0.0000 0.0000 0.0000 0.0000 25.7066 0.0000
# 6 0.0000 0.0000 0.0000 0.0000 0.0000 26.1749
#
#
#
# Elastic Compliance Matrix: (Units=1/GPa)
#
#
# Indices 1 2 3 4 5 6 
#
# 1 0.013795 -0.005308 -0.002035 0.000000 0.000000 0.000000
# 2 -0.005308 0.013795 -0.002035 0.000000 0.000000 0.000000
# 3 -0.002035 -0.002035 0.014792 0.000000 0.000000 0.000000
# 4 0.000000 0.000000 0.000000 0.038900 0.000000 0.000000
# 5 0.000000 0.000000 0.000000 0.000000 0.038900 0.000000
# 6 0.000000 0.000000 0.000000 0.000000 0.000000 0.038205
#
#
# Mechanical properties :
#
#
# Convention : Reuss Voigt Hill
#
# Bulk Modulus (GPa) = 42.32830 43.79069 43.05950
# Shear Modulus (GPa) = 27.02450 27.46888 27.24669
#
# Velocity S-wave (km/s) = 3.80554 3.83670 3.82115
# Velocity P-wave (km/s) = 6.48018 6.56459 6.52252
#
# Compressibility (1/GPa) = 0.02362486
#
# Stress axis : x y z
#
# Youngs Moduli (GPa) = 72.49211 72.49211 67.60584
#
# Poissons Ratio (x) = 0.38477 0.13759
# Poissons Ratio (y) = 0.38477 0.13759
# Poissons Ratio (z) = 0.14753 0.14753
#
# Static dielectric constant tensor:
#      x y z
#    x 1.722530 0.000000 0.000000 
#    y 0.000000 1.722530 0.000000 
#    z 0.000000 0.000000 1.774990 
# 
# From -- ./inp_files/369.got.cif
#   From: 2010.05.17/outbox.cif.g08.bks.cpg/sg170_cif.got.tgz:369.got - 2010.05.20 11:14:30.
