data_PCOD9580585
_publ_section_title
;
Structure prediction by ZEFSAII (Michael W. Deem and Ramdas Pophale) SiO2 
 PCOD9580585
Probable space group: P 62
;
_chemical_formula_sum "Si O2"
_cell_formula_units_Z 24
_cell_length_a 9.452060
_cell_length_b 9.452060
_cell_length_c 11.033600
_cell_angle_alpha 90.000000
_cell_angle_beta 90.000000
_cell_angle_gamma 120.000000
_cell_volume 853.691204
_symmetry_space_group_name_H-M "P 62"
_symmetry_group_IT_number 171
_symmetry_cell_setting 'hexagonal'
loop_
_space_group_symop_operation_xyz
x,y,z
x-y,x,1/3+z
-y,x-y,2/3+z
-x,-y,z
-x+y,-x,1/3+z
y,-x+y,2/3+z
loop_
_atom_site_type_symbol
_atom_site_label
_atom_site_fract_x
_atom_site_fract_y
_atom_site_fract_z
Si Si1 0.724571 0.170947 0.397070
Si Si2 0.436507 0.176242 0.267784
Si Si3 0.000000 0.000000 0.538616
Si Si4 0.288218 0.067068 0.031953
Si Si5 0.000000 0.500000 0.293985
O O1 0.606098 0.211092 0.318992
O O2 0.644307 0.121828 0.532277
O O3 0.900495 0.333400 0.374377
O O4 0.689503 0.001109 0.332040
O O5 0.435006 0.176948 0.121602
O O6 0.385002 0.303114 0.314228
O O7 0.088551 0.180390 0.263802
O O8 0.997233 0.140520 0.797018
#
# Coordination Sequence:
#
# PCOD9580585 Si02
#       5
#     6   6   3   6   3
#     4  10  21  39  65  96 139 187 239 303 371 441
#     4   9  17  31  56  86 124 178 229 288 354 420
#     4   8  16  26  46  82 126 178 230 286 346 416
#     4   9  15  29  50  80 124 172 230 283 344 419
#     4  10  22  44  72 106 152 198 250 306 376 446
#
# _framework density 28.113209999999999
#
# number of rings (size 3 to 8) (size 9 to 14) (size 15 to 20)
#    0.000    3.000    0.000    3.000    0.000    0.000 
#    0.000   15.000    0.000    4.500    0.000    0.000 
#    0.000    0.000    0.000    0.000    0.000    0.000 
#
# Total GULP energy -133967.634616 kJ/mol
# GULP energy per Si atom -5581.984776 kJ/mol
# Density = 2.804922 g / cm^3
# Si number density = 28.113210 Si / 1000 Ang^3
#
#
#
# Elastic Constant Matrix: (Units=GPa)
#
#
# Indices 1 2 3 4 5 6 
#
# 1 97.2402 54.5056 35.5651 0.0000 0.0000 0.0000
# 2 54.5056 97.2402 35.5651 0.0000 0.0000 0.0000
# 3 35.5651 35.5651 104.5620 0.0000 0.0000 0.0000
# 4 0.0000 0.0000 0.0000 29.4341 0.0000 0.0000
# 5 0.0000 0.0000 0.0000 0.0000 29.4341 0.0000
# 6 0.0000 0.0000 0.0000 0.0000 0.0000 21.3673
#
#
#
# Elastic Compliance Matrix: (Units=1/GPa)
#
#
# Indices 1 2 3 4 5 6 
#
# 1 0.015620 -0.007780 -0.002667 0.000000 0.000000 0.000000
# 2 -0.007780 0.015620 -0.002667 0.000000 0.000000 0.000000
# 3 -0.002667 -0.002667 0.011378 0.000000 0.000000 0.000000
# 4 0.000000 0.000000 0.000000 0.033974 0.000000 0.000000
# 5 0.000000 0.000000 0.000000 0.000000 0.033974 0.000000
# 6 0.000000 0.000000 0.000000 0.000000 0.000000 0.046800
#
#
# Mechanical properties :
#
#
# Convention : Reuss Voigt Hill
#
# Bulk Modulus (GPa) = 61.00879 61.14602 61.07741
# Shear Modulus (GPa) = 26.44701 27.60754 27.02728
#
# Velocity S-wave (km/s) = 3.07046 3.13711 3.10396
# Velocity P-wave (km/s) = 5.85820 5.90924 5.88378
#
# Compressibility (1/GPa) = 0.01639108
#
# Stress axis : x y z
#
# Youngs Moduli (GPa) = 64.02014 64.02014 87.89104
#
# Poissons Ratio (x) = 0.49809 0.23437
# Poissons Ratio (y) = 0.49809 0.23437
# Poissons Ratio (z) = 0.17072 0.17072
#
# Static dielectric constant tensor:
#      x y z
#    x 2.134030 0.000000 0.000000 
#    y 0.000000 2.134030 0.000000 
#    z 0.000000 0.000000 2.421410 
# 
# From -- ./inp_files/4615.got.cif
#   From: 2010.05.17/outbox.cif.g08.bks.cpg/sg171_3_cif.got.tgz:4615.got - 2010.05.20 11:16:09.
