data_PCOD9580379
_publ_section_title
;
Structure prediction by ZEFSAII (Michael W. Deem and Ramdas Pophale) SiO2 
 PCOD9580379
Probable space group: P 65
;
_chemical_formula_sum "Si O2"
_cell_formula_units_Z 36
_cell_length_a 14.124450
_cell_length_b 14.124450
_cell_length_c 9.135425
_cell_angle_alpha 90.000000
_cell_angle_beta 90.000000
_cell_angle_gamma 120.000000
_cell_volume 1578.346964
_symmetry_space_group_name_H-M "P 65"
_symmetry_group_IT_number 170
_symmetry_cell_setting 'hexagonal'
loop_
_space_group_symop_operation_xyz
x,y,z
x-y,x,5/6+z
-y,x-y,2/3+z
-x,-y,1/2+z
-x+y,-x,1/3+z
y,-x+y,1/6+z
loop_
_atom_site_type_symbol
_atom_site_label
_atom_site_fract_x
_atom_site_fract_y
_atom_site_fract_z
Si Si1 0.138565 0.782351 0.398610
Si Si2 0.554261 0.187761 0.711236
Si Si3 0.381306 0.283289 0.994030
Si Si4 0.168299 0.953680 0.643522
Si Si5 0.811025 0.371957 0.050687
Si Si6 0.382579 0.365861 0.673319
O O1 0.166183 0.825808 0.232807
O O2 0.152288 0.877834 0.503926
O O3 0.211140 0.729513 0.450414
O O4 0.016051 0.684442 0.411085
O O5 0.645164 0.153100 0.697910
O O6 0.605601 0.316173 0.738030
O O7 0.505856 0.162212 0.545227
O O8 0.463850 0.108831 0.827758
O O9 0.366224 0.300485 0.824602
O O10 0.277751 0.971718 0.722088
O O11 0.066305 0.886994 0.752737
O O12 0.907504 0.486033 0.984757
#
# Coordination Sequence:
#
# PCOD9580379 Si02
#       6
#     6   6   6   6   6   6
#     4  12  24  48  71 109 147 199 245 304 374 443
#     4  11  24  45  70 111 153 191 250 302 381 455
#     4  11  27  43  74 107 151 195 244 309 369 451
#     4  12  27  51  76 105 143 195 251 314 374 444
#     4  11  23  43  73 111 147 202 242 308 371 460
#     4  11  25  46  74 107 151 192 242 309 377 445
#
# _framework density 22.808672000000001
#
# number of rings (size 3 to 8) (size 9 to 14) (size 15 to 20)
#    0.000    0.667    3.333    4.000    7.000    0.000 
#    6.000    0.000    0.000    0.000    0.000    0.000 
#    0.000    0.000    0.000    0.000    0.000    0.000 
#
# Total GULP energy -201363.719955 kJ/mol
# GULP energy per Si atom -5593.436665 kJ/mol
# Density = 2.275676 g / cm^3
# Si number density = 22.808672 Si / 1000 Ang^3
#
#
#
# Elastic Constant Matrix: (Units=GPa)
#
#
# Indices 1 2 3 4 5 6 
#
# 1 74.7008 20.7117 17.5310 0.0000 0.0000 0.0000
# 2 20.7117 74.7008 17.5310 0.0000 0.0000 0.0000
# 3 17.5310 17.5310 80.4178 0.0000 0.0000 0.0000
# 4 0.0000 0.0000 0.0000 42.3190 0.0000 0.0000
# 5 0.0000 0.0000 0.0000 0.0000 42.3190 0.0000
# 6 0.0000 0.0000 0.0000 0.0000 0.0000 26.9946
#
#
#
# Elastic Compliance Matrix: (Units=1/GPa)
#
#
# Indices 1 2 3 4 5 6 
#
# 1 0.014958 -0.003564 -0.002484 0.000000 0.000000 0.000000
# 2 -0.003564 0.014958 -0.002484 0.000000 0.000000 0.000000
# 3 -0.002484 -0.002484 0.013518 0.000000 0.000000 0.000000
# 4 0.000000 0.000000 0.000000 0.023630 0.000000 0.000000
# 5 0.000000 0.000000 0.000000 0.000000 0.023630 0.000000
# 6 0.000000 0.000000 0.000000 0.000000 0.000000 0.037044
#
#
# Mechanical properties :
#
#
# Convention : Reuss Voigt Hill
#
# Bulk Modulus (GPa) = 37.92195 37.92964 37.92579
# Shear Modulus (GPa) = 32.55376 33.92958 33.24167
#
# Velocity S-wave (km/s) = 3.78200 3.86109 3.82175
# Velocity P-wave (km/s) = 5.97776 6.04508 6.01151
#
# Compressibility (1/GPa) = 0.02636995
#
# Stress axis : x y z
#
# Youngs Moduli (GPa) = 66.85434 66.85434 73.97553
#
# Poissons Ratio (x) = 0.23829 0.18374
# Poissons Ratio (y) = 0.23829 0.18374
# Poissons Ratio (z) = 0.16605 0.16605
#
# Static dielectric constant tensor:
#      x y z
#    x 1.830870 0.000000 0.000000 
#    y 0.000000 1.830870 0.000000 
#    z 0.000000 0.000000 1.896780 
# 
# From -- ./inp_files/633.got.cif
#   From: 2010.05.17/outbox.cif.g08.bks.cpg/sg170_cif.got.tgz:633.got - 2010.05.20 11:14:30.
