data_PCOD9580766
_publ_section_title
;
Structure prediction by ZEFSAII (Michael W. Deem and Ramdas Pophale) SiO2 
 PCOD9580766
Probable space group: P 62
;
_chemical_formula_sum "Si O2"
_cell_formula_units_Z 30
_cell_length_a 9.656220
_cell_length_b 9.656220
_cell_length_c 14.450354
_cell_angle_alpha 90.000000
_cell_angle_beta 90.000000
_cell_angle_gamma 120.000000
_cell_volume 1166.872546
_symmetry_space_group_name_H-M "P 62"
_symmetry_group_IT_number 171
_symmetry_cell_setting 'hexagonal'
loop_
_space_group_symop_operation_xyz
x,y,z
x-y,x,1/3+z
-y,x-y,2/3+z
-x,-y,z
-x+y,-x,1/3+z
y,-x+y,2/3+z
loop_
_atom_site_type_symbol
_atom_site_label
_atom_site_fract_x
_atom_site_fract_y
_atom_site_fract_z
Si Si1 0.336393 0.075008 0.926320
Si Si2 0.112469 0.192831 0.950838
Si Si3 0.473524 0.333117 0.703941
Si Si4 0.096140 0.760313 0.809254
Si Si5 0.337620 0.676834 0.541416
O O1 0.280485 0.208669 0.926030
O O2 0.522738 0.160586 0.903705
O O3 0.228855 0.936287 0.852451
O O4 0.310704 0.037044 0.036465
O O5 0.102776 0.291352 0.038158
O O6 0.052539 0.264100 0.870117
O O7 0.000000 0.000000 0.961915
O O8 0.500000 0.500000 0.666351
O O9 0.573808 0.381666 0.797038
O O10 0.558699 0.270422 0.633449
O O11 0.186522 0.662969 0.831169
#
# Coordination Sequence:
#
# PCOD9580766 Si02
#       5
#     6   6   6   6   6
#     4  11  25  45  77 112 158 210 272 333 415 491
#     4  10  25  47  74 110 157 206 266 328 406 493
#     4  12  27  49  79 115 157 211 269 339 413 502
#     4  11  24  48  74 112 162 217 262 337 413 503
#     4  12  26  49  77 113 156 206 272 334 413 486
#
# _framework density 25.709748999999999
#
# number of rings (size 3 to 8) (size 9 to 14) (size 15 to 20)
#    0.000    0.800    4.000    1.800    2.800   12.000 
#    3.600    0.000    0.000    0.000    0.000    0.000 
#    0.000    0.000    0.000    0.000    0.000    0.000 
#
# Total GULP energy -167651.695956 kJ/mol
# GULP energy per Si atom -5588.389865 kJ/mol
# Density = 2.565123 g / cm^3
# Si number density = 25.709749 Si / 1000 Ang^3
#
#
#
# Elastic Constant Matrix: (Units=GPa)
#
#
# Indices 1 2 3 4 5 6 
#
# 1 76.3894 11.5681 5.6797 0.0000 0.0000 0.0000
# 2 11.5681 76.3894 5.6797 0.0000 0.0000 0.0000
# 3 5.6797 5.6797 89.8304 0.0000 0.0000 0.0000
# 4 0.0000 0.0000 0.0000 37.6688 0.0000 0.0000
# 5 0.0000 0.0000 0.0000 0.0000 37.6688 0.0000
# 6 0.0000 0.0000 0.0000 0.0000 0.0000 32.4107
#
#
#
# Elastic Compliance Matrix: (Units=1/GPa)
#
#
# Indices 1 2 3 4 5 6 
#
# 1 0.013445 -0.001982 -0.000725 0.000000 0.000000 0.000000
# 2 -0.001982 0.013445 -0.000725 0.000000 0.000000 0.000000
# 3 -0.000725 -0.000725 0.011224 0.000000 0.000000 0.000000
# 4 0.000000 0.000000 0.000000 0.026547 0.000000 0.000000
# 5 0.000000 0.000000 0.000000 0.000000 0.026547 0.000000
# 6 0.000000 0.000000 0.000000 0.000000 0.000000 0.030854
#
#
# Mechanical properties :
#
#
# Convention : Reuss Voigt Hill
#
# Bulk Modulus (GPa) = 31.99980 32.05156 32.02568
# Shear Modulus (GPa) = 35.88295 36.19509 36.03902
#
# Velocity S-wave (km/s) = 3.73995 3.75618 3.74808
# Velocity P-wave (km/s) = 5.57882 5.59515 5.58699
#
# Compressibility (1/GPa) = 0.03125019
#
# Stress axis : x y z
#
# Youngs Moduli (GPa) = 74.37778 74.37778 89.09693
#
# Poissons Ratio (x) = 0.14743 0.06457
# Poissons Ratio (y) = 0.14743 0.06457
# Poissons Ratio (z) = 0.05391 0.05391
#
# Static dielectric constant tensor:
#      x y z
#    x 2.090170 0.000000 0.000000 
#    y 0.000000 2.090170 0.000000 
#    z 0.000000 0.000000 2.069360 
# 
# From -- ./inp_files/2857.got.cif
#   From: 2010.05.17/outbox.cif.g08.bks.cpg/sg171_2_cif.got.tgz:2857.got - 2010.05.20 11:16:09.
