data_PCOD9580362
_publ_section_title
;
Structure prediction by ZEFSAII (Michael W. Deem and Ramdas Pophale) SiO2 
 PCOD9580362
Probable space group: P 65
;
_chemical_formula_sum "Si O2"
_cell_formula_units_Z 42
_cell_length_a 11.894378
_cell_length_b 11.894378
_cell_length_c 15.152365
_cell_angle_alpha 90.000000
_cell_angle_beta 90.000000
_cell_angle_gamma 120.000000
_cell_volume 1856.498178
_symmetry_space_group_name_H-M "P 65"
_symmetry_group_IT_number 170
_symmetry_cell_setting 'hexagonal'
loop_
_space_group_symop_operation_xyz
x,y,z
x-y,x,5/6+z
-y,x-y,2/3+z
-x,-y,1/2+z
-x+y,-x,1/3+z
y,-x+y,1/6+z
loop_
_atom_site_type_symbol
_atom_site_label
_atom_site_fract_x
_atom_site_fract_y
_atom_site_fract_z
Si Si1 0.345886 0.901126 0.346060
Si Si2 0.929522 0.828322 0.535116
Si Si3 0.242510 0.608360 0.303243
Si Si4 0.239313 0.529715 0.503075
Si Si5 0.685328 0.755004 0.409221
Si Si6 0.044405 0.658965 0.069328
Si Si7 0.037929 0.512779 0.839754
O O1 0.240062 0.936260 0.379523
O O2 0.266144 0.754103 0.310048
O O3 0.460551 0.903616 0.404458
O O4 0.427519 0.995327 0.264580
O O5 0.920993 0.880550 0.631653
O O6 0.797820 0.797344 0.481681
O O7 0.263807 0.568453 0.400620
O O8 0.345618 0.618049 0.231212
O O9 0.089717 0.511793 0.289356
O O10 0.094440 0.417879 0.522807
O O11 0.341000 0.482914 0.528168
O O12 0.700734 0.670094 0.334188
O O13 0.547428 0.657746 0.452317
O O14 0.665735 0.864751 0.362853
#
# Coordination Sequence:
#
# PCOD9580362 Si02
#       7
#     6   6   6   6   6   6   6
#     4  11  21  40  69 102 138 177 241 314 367 430
#     4  12  24  46  80 109 144 203 267 316 377 467
#     4  11  23  41  67  99 145 180 234 301 367 443
#     4  11  25  42  65 104 145 188 231 302 383 435
#     4  12  23  42  73 106 139 194 259 304 360 454
#     4  12  25  41  70 108 141 184 243 314 372 435
#     4  11  21  42  68 100 136 184 241 299 366 442
#
# _framework density 22.623238000000001
#
# number of rings (size 3 to 8) (size 9 to 14) (size 15 to 20)
#    0.000    0.571    5.714    3.429    4.000    0.000 
#    0.000    0.000    9.429    0.000    0.000    0.000 
#    0.000    0.000    0.000    0.000    0.000    0.000 
#
# Total GULP energy -234649.290536 kJ/mol
# GULP energy per Si atom -5586.887870 kJ/mol
# Density = 2.257175 g / cm^3
# Si number density = 22.623238 Si / 1000 Ang^3
#
#
#
# Elastic Constant Matrix: (Units=GPa)
#
#
# Indices 1 2 3 4 5 6 
#
# 1 97.2546 37.5627 3.3993 0.0000 0.0000 0.0000
# 2 37.5627 97.2546 3.3993 0.0000 0.0000 0.0000
# 3 3.3993 3.3993 40.8811 0.0000 0.0000 0.0000
# 4 0.0000 0.0000 0.0000 27.8566 0.0000 0.0000
# 5 0.0000 0.0000 0.0000 0.0000 27.8566 0.0000
# 6 0.0000 0.0000 0.0000 0.0000 0.0000 29.8460
#
#
#
# Elastic Compliance Matrix: (Units=1/GPa)
#
#
# Indices 1 2 3 4 5 6 
#
# 1 0.012101 -0.004652 -0.000619 0.000000 0.000000 0.000000
# 2 -0.004652 0.012101 -0.000619 0.000000 0.000000 0.000000
# 3 -0.000619 -0.000619 0.024564 0.000000 0.000000 0.000000
# 4 0.000000 0.000000 0.000000 0.035898 0.000000 0.000000
# 5 0.000000 0.000000 0.000000 0.000000 0.035898 0.000000
# 6 0.000000 0.000000 0.000000 0.000000 0.000000 0.033505
#
#
# Mechanical properties :
#
#
# Convention : Reuss Voigt Hill
#
# Bulk Modulus (GPa) = 27.03865 36.01255 31.52560
# Shear Modulus (GPa) = 28.06202 29.84709 28.95455
#
# Velocity S-wave (km/s) = 3.52576 3.63617 3.58139
# Velocity P-wave (km/s) = 5.34344 5.79499 5.57379
#
# Compressibility (1/GPa) = 0.03698409
#
# Stress axis : x y z
#
# Youngs Moduli (GPa) = 82.63998 82.63998 40.70967
#
# Poissons Ratio (x) = 0.38444 0.02521
# Poissons Ratio (y) = 0.38444 0.02521
# Poissons Ratio (z) = 0.05118 0.05118
#
# Static dielectric constant tensor:
#      x y z
#    x 1.870730 0.000000 0.000000 
#    y 0.000000 1.870730 0.000000 
#    z 0.000000 0.000000 1.943400 
# 
# From -- ./inp_files/1417.got.cif
#   From: 2010.05.17/outbox.cif.g08.bks.cpg/sg170_cif.got.tgz:1417.got - 2010.05.20 11:14:30.
