data_PCOD9580037
_publ_section_title
;
Structure prediction by ZEFSAII (Michael W. Deem and Ramdas Pophale) SiO2 
 PCOD9580037
Probable space group: P 61
;
_chemical_formula_sum "Si O2"
_cell_formula_units_Z 48
_cell_length_a 14.738453
_cell_length_b 14.738453
_cell_length_c 12.406452
_cell_angle_alpha 90.000000
_cell_angle_beta 90.000000
_cell_angle_gamma 120.000000
_cell_volume 2333.898866
_symmetry_space_group_name_H-M "P 61"
_symmetry_group_IT_number 169
_symmetry_cell_setting 'hexagonal'
loop_
_space_group_symop_operation_xyz
x,y,z
x-y,x,1/6+z
-y,x-y,1/3+z
-x,-y,1/2+z
-x+y,-x,2/3+z
y,-x+y,5/6+z
loop_
_atom_site_type_symbol
_atom_site_label
_atom_site_fract_x
_atom_site_fract_y
_atom_site_fract_z
Si Si1 0.957877 0.622608 0.924840
Si Si2 0.468737 0.743842 0.785797
Si Si3 0.490884 0.432725 0.662047
Si Si4 0.020106 0.859484 0.898358
Si Si5 0.970373 0.447567 0.614280
Si Si6 0.162617 0.014366 0.721187
Si Si7 0.732270 0.268480 0.879188
Si Si8 0.051563 0.663472 0.505047
O O1 0.024657 0.574498 0.869646
O O2 0.999540 0.742989 0.904715
O O3 0.833949 0.558988 0.901112
O O4 0.969567 0.600013 0.049321
O O5 0.472061 0.849700 0.748864
O O6 0.362758 0.649063 0.742497
O O7 0.475324 0.738507 0.916180
O O8 0.427335 0.455527 0.572473
O O9 0.529288 0.363237 0.600428
O O10 0.409455 0.367542 0.755815
O O11 0.920234 0.860189 0.844883
O O12 0.111125 0.923426 0.811216
O O13 0.029413 0.572613 0.592544
O O14 0.142292 0.103493 0.774984
O O15 0.283834 0.048263 0.711717
O O16 0.840040 0.296503 0.940933
#
# Coordination Sequence:
#
# PCOD9580037 Si02
#       8
#     6   6   6   6   6   6   6   6
#     4  11  23  44  67 103 138 176 232 277 340 415
#     4  12  24  44  68  98 141 182 226 284 342 411
#     4  11  23  42  67  98 141 179 227 285 335 411
#     4  10  23  45  72 100 134 175 231 286 344 414
#     4  11  23  42  67  98 141 179 227 285 335 411
#     4  10  23  45  72 100 134 175 231 286 344 414
#     4  12  24  44  68  98 141 182 226 284 342 411
#     4  11  23  44  67 103 138 176 232 277 340 415
#
# _framework density 20.566443
#
# number of rings (size 3 to 8) (size 9 to 14) (size 15 to 20)
#    0.000    1.000    5.000    1.500    7.000    1.000 
#    0.000    6.250    0.000    0.000    0.000    0.000 
#    0.000    0.000    0.000    0.000    0.000    0.000 
#
# Total GULP energy -267724.639378 kJ/mol
# GULP energy per Si atom -5577.596654 kJ/mol
# Density = 2.051963 g / cm^3
# Si number density = 20.566443 Si / 1000 Ang^3
#
#
#
# Elastic Constant Matrix: (Units=GPa)
#
#
# Indices 1 2 3 4 5 6 
#
# 1 331.3420 -185.2976 11.1287 0.0000 0.0000 0.0000
# 2 -185.2976 331.3420 11.1287 0.0000 0.0000 0.0000
# 3 11.1287 11.1287 49.5650 0.0000 0.0000 0.0000
# 4 0.0000 0.0000 0.0000 17.9817 0.0000 0.0000
# 5 0.0000 0.0000 0.0000 0.0000 17.9817 0.0000
# 6 0.0000 0.0000 0.0000 0.0000 0.0000 258.3198
#
#
#
# Elastic Compliance Matrix: (Units=1/GPa)
#
#
# Indices 1 2 3 4 5 6 
#
# 1 0.004513 0.002577 -0.001592 0.000000 0.000000 0.000000
# 2 0.002577 0.004513 -0.001592 0.000000 0.000000 0.000000
# 3 -0.001592 -0.001592 0.020890 0.000000 0.000000 0.000000
# 4 0.000000 0.000000 0.000000 0.055612 0.000000 0.000000
# 5 0.000000 0.000000 0.000000 0.000000 0.055612 0.000000
# 6 0.000000 0.000000 0.000000 0.000000 0.000000 0.003871
#
#
# Mechanical properties :
#
#
# Convention : Reuss Voigt Hill
#
# Bulk Modulus (GPa) = 34.84007 42.90762 38.87385
# Shear Modulus (GPa) = 32.09412 117.20926 74.65169
#
# Velocity S-wave (km/s) = 3.95461 7.55740 6.03130
# Velocity P-wave (km/s) = 6.15053 9.85193 8.21248
#
# Compressibility (1/GPa) = 0.02870258
#
# Stress axis : x y z
#
# Youngs Moduli (GPa) = 221.59621 221.59621 47.86891
#
# Poissons Ratio (x) = -0.57108 0.07620
# Poissons Ratio (y) = -0.57108 0.07620
# Poissons Ratio (z) = 0.35275 0.35275
#
# Static dielectric constant tensor:
#      x y z
#    x 1.751100 0.000000 0.000000 
#    y 0.000000 1.751100 0.000000 
#    z 0.000000 0.000000 1.787180 
# 
# From -- ./inp_files/1036.got.cif
#   From: 2010.05.17/outbox.cif.g08.bks.cpg/sg169_cif.got.tgz:1036.got - 2010.05.20 11:12:54.
