data_PCOD9580250
_publ_section_title
;
Structure prediction by ZEFSAII (Michael W. Deem and Ramdas Pophale) SiO2 
 PCOD9580250
Probable space group: P 65
;
_chemical_formula_sum "Si O2"
_cell_formula_units_Z 42
_cell_length_a 14.514194
_cell_length_b 14.514194
_cell_length_c 12.379297
_cell_angle_alpha 90.000000
_cell_angle_beta 90.000000
_cell_angle_gamma 120.000000
_cell_volume 2258.460304
_symmetry_space_group_name_H-M "P 65"
_symmetry_group_IT_number 170
_symmetry_cell_setting 'hexagonal'
loop_
_space_group_symop_operation_xyz
x,y,z
x-y,x,5/6+z
-y,x-y,2/3+z
-x,-y,1/2+z
-x+y,-x,1/3+z
y,-x+y,1/6+z
loop_
_atom_site_type_symbol
_atom_site_label
_atom_site_fract_x
_atom_site_fract_y
_atom_site_fract_z
Si Si1 0.720679 0.390011 0.395820
Si Si2 0.817849 0.249783 0.293383
Si Si3 0.459589 0.104208 0.994840
Si Si4 0.273167 0.484599 0.227259
Si Si5 0.542697 0.658405 0.737233
Si Si6 0.958739 0.408455 0.901470
Si Si7 0.359632 0.998272 0.778495
O O1 0.767312 0.319887 0.342927
O O2 0.716391 0.482952 0.326273
O O3 0.597202 0.313138 0.424607
O O4 0.787055 0.449891 0.501588
O O5 0.850209 0.285354 0.169790
O O6 0.730358 0.124790 0.284835
O O7 0.919256 0.271684 0.364312
O O8 0.422854 0.064641 0.116621
O O9 0.548571 0.070948 0.968741
O O10 0.378038 0.048851 0.898093
O O11 0.164084 0.415238 0.160780
O O12 0.362090 0.508549 0.139561
O O13 0.613671 0.649965 0.643688
O O14 0.002354 0.534242 0.902421
#
# Coordination Sequence:
#
# PCOD9580250 Si02
#       7
#     6   6   6   6   6   6   6
#     4  11  19  36  53  80 114 165 204 244 302 373
#     4  12  25  38  62  85 125 167 211 265 320 378
#     4  10  21  35  53  81 118 157 217 248 300 373
#     4  11  22  35  56  77 119 160 210 244 304 375
#     4  10  21  34  51  80 116 158 208 244 299 364
#     4  11  21  34  54  83 116 163 204 255 299 372
#     4  11  25  40  57  88 122 164 216 264 318 373
#
# _framework density 18.596741999999999
#
# number of rings (size 3 to 8) (size 9 to 14) (size 15 to 20)
#    0.000    1.143    5.714    3.429    6.000    1.143 
#    0.000    0.000    0.000    0.000    0.000    0.000 
#    8.571    0.000    0.000    0.000    0.000    0.000 
#
# Total GULP energy -234107.616227 kJ/mol
# GULP energy per Si atom -5573.990863 kJ/mol
# Density = 1.855441 g / cm^3
# Si number density = 18.596742 Si / 1000 Ang^3
#
#
#
# Elastic Constant Matrix: (Units=GPa)
#
#
# Indices 1 2 3 4 5 6 
#
# 1 52.0310 22.6439 28.4828 0.0000 0.0000 0.0000
# 2 22.6439 52.0310 28.4828 0.0000 0.0000 0.0000
# 3 28.4828 28.4828 142.1058 0.0000 0.0000 0.0000
# 4 0.0000 0.0000 0.0000 26.5108 0.0000 0.0000
# 5 0.0000 0.0000 0.0000 0.0000 26.5108 0.0000
# 6 0.0000 0.0000 0.0000 0.0000 0.0000 14.6935
#
#
#
# Elastic Compliance Matrix: (Units=1/GPa)
#
#
# Indices 1 2 3 4 5 6 
#
# 1 0.024919 -0.009110 -0.003169 0.000000 0.000000 0.000000
# 2 -0.009110 0.024919 -0.003169 0.000000 0.000000 0.000000
# 3 -0.003169 -0.003169 0.008307 0.000000 0.000000 0.000000
# 4 0.000000 0.000000 0.000000 0.037720 0.000000 0.000000
# 5 0.000000 0.000000 0.000000 0.000000 0.037720 0.000000
# 6 0.000000 0.000000 0.000000 0.000000 0.000000 0.068057
#
#
# Mechanical properties :
#
#
# Convention : Reuss Voigt Hill
#
# Bulk Modulus (GPa) = 36.69728 45.04298 40.87013
# Shear Modulus (GPa) = 20.69364 24.64690 22.67027
#
# Velocity S-wave (km/s) = 3.33942 3.64446 3.49527
# Velocity P-wave (km/s) = 5.88600 6.47943 6.18983
#
# Compressibility (1/GPa) = 0.02724998
#
# Stress axis : x y z
#
# Youngs Moduli (GPa) = 40.13073 40.13073 120.37765
#
# Poissons Ratio (x) = 0.36559 0.38142
# Poissons Ratio (y) = 0.36559 0.38142
# Poissons Ratio (z) = 0.12716 0.12716
#
# Static dielectric constant tensor:
#      x y z
#    x 1.700630 0.000000 0.000000 
#    y 0.000000 1.700630 0.000000 
#    z 0.000000 0.000000 1.713560 
# 
# From -- ./inp_files/992.got.cif
#   From: 2010.05.17/outbox.cif.g08.bks.cpg/sg170_cif.got.tgz:992.got - 2010.05.20 11:14:30.
