data_PCOD9580185
_publ_section_title
;
Structure prediction by ZEFSAII (Michael W. Deem and Ramdas Pophale) SiO2 
 PCOD9580185
Probable space group: P 65
;
_chemical_formula_sum "Si O2"
_cell_formula_units_Z 36
_cell_length_a 13.867075
_cell_length_b 13.867075
_cell_length_c 11.076745
_cell_angle_alpha 90.000000
_cell_angle_beta 90.000000
_cell_angle_gamma 120.000000
_cell_volume 1844.643808
_symmetry_space_group_name_H-M "P 65"
_symmetry_group_IT_number 170
_symmetry_cell_setting 'hexagonal'
loop_
_space_group_symop_operation_xyz
x,y,z
x-y,x,5/6+z
-y,x-y,2/3+z
-x,-y,1/2+z
-x+y,-x,1/3+z
y,-x+y,1/6+z
loop_
_atom_site_type_symbol
_atom_site_label
_atom_site_fract_x
_atom_site_fract_y
_atom_site_fract_z
Si Si1 0.197623 0.661407 0.818790
Si Si2 0.032974 0.544530 0.299226
Si Si3 0.036420 0.846772 0.948784
Si Si4 0.912570 0.595185 0.970108
Si Si5 0.215613 0.670780 0.105046
Si Si6 0.744667 0.091017 0.580194
O O1 0.227512 0.783916 0.779575
O O2 0.301119 0.643321 0.786991
O O3 0.084793 0.563518 0.762657
O O4 0.184374 0.648031 0.964337
O O5 0.068085 0.500106 0.415519
O O6 0.127085 0.582285 0.196815
O O7 0.002854 0.642587 0.320523
O O8 0.137406 0.898543 0.047701
O O9 0.999375 0.718274 0.921303
O O10 0.086582 0.927463 0.836429
O O11 0.923521 0.612500 0.113974
O O12 0.223717 0.789167 0.132784
#
# Coordination Sequence:
#
# PCOD9580185 Si02
#       6
#     6   6   6   6   6   6
#     4  10  21  35  53  81 115 150 193 237 284 350
#     4  11  19  31  55  81 111 143 186 239 281 333
#     4  10  19  35  61  83 105 144 193 236 278 333
#     4  10  19  35  57  83 111 150 193 233 281 342
#     4  10  19  33  52  78 112 149 185 230 286 341
#     4   9  19  33  52  78 108 144 188 229 276 341
#
# _framework density 19.515961999999998
#
# number of rings (size 3 to 8) (size 9 to 14) (size 15 to 20)
#    0.000    2.000    0.000    7.000    0.000    0.000 
#    0.000    1.667    0.000   24.000    0.000    0.000 
#    0.000    0.000    0.000    0.000    0.000    0.000 
#
# Total GULP energy -200623.857037 kJ/mol
# GULP energy per Si atom -5572.884918 kJ/mol
# Density = 1.947154 g / cm^3
# Si number density = 19.515962 Si / 1000 Ang^3
#
#
#
# Elastic Constant Matrix: (Units=GPa)
#
#
# Indices 1 2 3 4 5 6 
#
# 1 97.2378 30.0253 30.7644 0.0000 0.0000 0.0000
# 2 30.0253 97.2378 30.7644 0.0000 0.0000 0.0000
# 3 30.7644 30.7644 39.9341 0.0000 0.0000 0.0000
# 4 0.0000 0.0000 0.0000 32.7048 0.0000 0.0000
# 5 0.0000 0.0000 0.0000 0.0000 32.7048 0.0000
# 6 0.0000 0.0000 0.0000 0.0000 0.0000 33.6063
#
#
#
# Elastic Compliance Matrix: (Units=1/GPa)
#
#
# Indices 1 2 3 4 5 6 
#
# 1 0.013700 -0.001178 -0.009646 0.000000 0.000000 0.000000
# 2 -0.001178 0.013700 -0.009646 0.000000 0.000000 0.000000
# 3 -0.009646 -0.009646 0.039904 0.000000 0.000000 0.000000
# 4 0.000000 0.000000 0.000000 0.030577 0.000000 0.000000
# 5 0.000000 0.000000 0.000000 0.000000 0.030577 0.000000
# 6 0.000000 0.000000 0.000000 0.000000 0.000000 0.029756
#
#
# Mechanical properties :
#
#
# Convention : Reuss Voigt Hill
#
# Bulk Modulus (GPa) = 37.93383 46.39084 42.16233
# Shear Modulus (GPa) = 24.04516 29.32690 26.68603
#
# Velocity S-wave (km/s) = 3.51390 3.88069 3.70184
# Velocity P-wave (km/s) = 5.99524 6.62586 6.31842
#
# Compressibility (1/GPa) = 0.02636170
#
# Stress axis : x y z
#
# Youngs Moduli (GPa) = 72.99354 72.99354 25.06021
#
# Poissons Ratio (x) = 0.08601 0.24174
# Poissons Ratio (y) = 0.08601 0.24174
# Poissons Ratio (z) = 0.70412 0.70412
#
# Static dielectric constant tensor:
#      x y z
#    x 1.752430 0.000000 0.000000 
#    y 0.000000 1.752430 0.000000 
#    z 0.000000 0.000000 1.685530 
# 
# From -- ./inp_files/900.got.cif
#   From: 2010.05.17/outbox.cif.g08.bks.cpg/sg170_cif.got.tgz:900.got - 2010.05.20 11:14:30.
