data_PCOD9580992
_publ_section_title
;
Structure prediction by ZEFSAII (Michael W. Deem and Ramdas Pophale) SiO2 
 PCOD9580992
Probable space group: P 64
;
_chemical_formula_sum "Si O2"
_cell_formula_units_Z 36
_cell_length_a 9.123188
_cell_length_b 9.123188
_cell_length_c 21.689127
_cell_angle_alpha 90.000000
_cell_angle_beta 90.000000
_cell_angle_gamma 120.000000
_cell_volume 1563.385041
_symmetry_space_group_name_H-M "P 64"
_symmetry_group_IT_number 172
_symmetry_cell_setting 'hexagonal'
loop_
_space_group_symop_operation_xyz
x,y,z
x-y,x,2/3+z
-y,x-y,1/3+z
-x,-y,z
-x+y,-x,2/3+z
y,-x+y,1/3+z
loop_
_atom_site_type_symbol
_atom_site_label
_atom_site_fract_x
_atom_site_fract_y
_atom_site_fract_z
Si Si1 0.197974 0.573169 0.034560
Si Si2 0.609362 0.913030 0.858845
Si Si3 0.178329 0.509133 0.799262
Si Si4 0.087101 0.384017 0.307193
Si Si5 0.368523 0.565463 0.923627
Si Si6 0.008192 0.178162 0.428497
O O1 0.325841 0.640483 0.093009
O O2 0.232209 0.719481 0.986300
O O3 0.000000 0.500000 0.047927
O O4 0.274554 0.486186 0.989165
O O5 0.495811 0.763325 0.906736
O O6 0.690582 0.853579 0.806033
O O7 0.500000 0.000000 0.839185
O O8 0.744855 0.051494 0.905715
O O9 0.232119 0.518366 0.869940
O O10 0.170159 0.337782 0.776904
O O11 0.000000 0.500000 0.792708
O O12 0.000000 0.500000 0.320039
O O13 0.040409 0.243470 0.358754
O O14 0.500000 0.500000 0.912669
O O15 0.000000 0.000000 0.434939
#
# Coordination Sequence:
#
# PCOD9580992 Si02
#       6
#     6   6   6   6   6   6
#     4  12  27  48  79 111 153 202 264 325 403 476
#     4  11  24  47  80 109 147 203 260 327 398 484
#     4  12  28  48  72 115 161 201 266 328 388 490
#     4  11  23  50  74 105 151 200 252 331 397 473
#     4  12  24  47  79 106 149 205 257 320 405 468
#     4  12  28  46  75 113 152 208 258 324 403 473
#
# _framework density 23.026956999999999
#
# number of rings (size 3 to 8) (size 9 to 14) (size 15 to 20)
#    0.000    0.333    6.667    2.000    4.667    3.333 
#    0.000    0.000    0.000    0.000    0.000    0.000 
#    0.000    0.000    0.000    0.000    0.000    0.000 
#
# Total GULP energy -200866.383249 kJ/mol
# GULP energy per Si atom -5579.621757 kJ/mol
# Density = 2.297455 g / cm^3
# Si number density = 23.026957 Si / 1000 Ang^3
#
#
#
# Elastic Constant Matrix: (Units=GPa)
#
#
# Indices 1 2 3 4 5 6 
#
# 1 131.1146 55.7251 42.4496 0.0000 0.0000 0.0000
# 2 55.7251 131.1146 42.4496 0.0000 0.0000 0.0000
# 3 42.4496 42.4496 144.2597 0.0000 0.0000 0.0000
# 4 0.0000 0.0000 0.0000 -92.2324 0.0000 0.0000
# 5 0.0000 0.0000 0.0000 0.0000 -92.2324 0.0000
# 6 0.0000 0.0000 0.0000 0.0000 0.0000 37.6948
#
#
#
# Elastic Compliance Matrix: (Units=1/GPa)
#
#
# Indices 1 2 3 4 5 6 
#
# 1 0.009721 -0.003543 -0.001818 0.000000 0.000000 0.000000
# 2 -0.003543 0.009721 -0.001818 0.000000 0.000000 0.000000
# 3 -0.001818 -0.001818 0.008002 0.000000 0.000000 0.000000
# 4 0.000000 0.000000 0.000000 -0.010842 0.000000 0.000000
# 5 0.000000 0.000000 0.000000 0.000000 -0.010842 0.000000
# 6 0.000000 0.000000 0.000000 0.000000 0.000000 0.026529
#
#
# Mechanical properties :
#
#
# Convention : Reuss Voigt Hill
#
# Bulk Modulus (GPa) = 76.41530 76.41531 76.41531
# Shear Modulus (GPa) = 98.02101 -11.62970 43.19565
#
# Velocity S-wave (km/s) = 6.53149 -2.24976 4.33583
# Velocity P-wave (km/s) = 9.49409 5.14865 7.63696
#
# Compressibility (1/GPa) = 0.01308638
#
# Stress axis : x y z
#
# Youngs Moduli (GPa) = 102.86625 102.86625 124.97075
#
# Poissons Ratio (x) = 0.36446 0.22720
# Poissons Ratio (y) = 0.36446 0.22720
# Poissons Ratio (z) = 0.18701 0.18701
#
# Static dielectric constant tensor:
#      x y z
#    x 3.291190 0.000000 0.000000 
#    y 0.000000 3.291190 0.000000 
#    z 0.000000 0.000000 2.041820 
# 
# From -- ./inp_files/2620.got.cif
#   From: 2010.05.17/outbox.cif.g08.bks.cpg/sg172_2_cif.got.tgz:2620.got - 2010.05.20 11:19:57.
