data_PCOD9580823
_publ_section_title
;
Structure prediction by ZEFSAII (Michael W. Deem and Ramdas Pophale) SiO2 
 PCOD9580823
Probable space group: P 62
;
_chemical_formula_sum "Si O2"
_cell_formula_units_Z 45
_cell_length_a 11.768383
_cell_length_b 11.768383
_cell_length_c 18.549031
_cell_angle_alpha 90.000000
_cell_angle_beta 90.000000
_cell_angle_gamma 120.000000
_cell_volume 2224.771675
_symmetry_space_group_name_H-M "P 62"
_symmetry_group_IT_number 171
_symmetry_cell_setting 'hexagonal'
loop_
_space_group_symop_operation_xyz
x,y,z
x-y,x,1/3+z
-y,x-y,2/3+z
-x,-y,z
-x+y,-x,1/3+z
y,-x+y,2/3+z
loop_
_atom_site_type_symbol
_atom_site_label
_atom_site_fract_x
_atom_site_fract_y
_atom_site_fract_z
Si Si1 0.284229 0.009567 0.836630
Si Si2 0.893483 0.035662 0.966502
Si Si3 0.225001 0.589586 0.685069
Si Si4 0.500000 0.000000 0.914183
Si Si5 0.653173 0.867306 0.067241
Si Si6 0.131595 0.493274 0.971088
Si Si7 0.232736 0.967695 0.417378
Si Si8 0.749711 0.143436 0.148003
O O1 0.261903 0.119524 0.799543
O O2 0.176694 0.942099 0.899448
O O3 0.429255 0.060890 0.867127
O O4 0.249998 0.896613 0.779399
O O5 0.000000 0.000000 0.938928
O O6 0.971443 0.155429 0.021164
O O7 0.774505 0.920796 0.011807
O O8 0.109310 0.494592 0.630569
O O9 0.189633 0.703859 0.695026
O O10 0.365210 0.623566 0.653686
O O11 0.203901 0.519831 0.762220
O O12 0.688968 0.993631 0.118247
O O13 0.149592 0.430040 0.898091
O O14 0.000000 0.500000 0.958445
O O15 0.099301 0.401690 0.041247
O O16 0.322791 0.095199 0.465510
#
# Coordination Sequence:
#
# PCOD9580823 Si02
#       8
#     6   6   6   3   6   6   6   6
#     4  12  27  41  74 100 142 190 228 299 371 419
#     4  11  23  43  69 102 140 175 235 295 358 422
#     4  12  24  48  69 102 141 181 244 296 339 433
#     4  12  26  48  68 106 140 188 244 298 356 428
#     4  11  23  44  70 102 135 182 235 293 348 428
#     4  12  27  45  73 104 142 193 237 292 361 429
#     4  11  26  47  65 107 144 175 241 298 350 435
#     4  11  24  44  75 101 137 186 239 288 355 419
#
# _framework density 20.226794000000002
#
# number of rings (size 3 to 8) (size 9 to 14) (size 15 to 20)
#    0.000    0.533    5.333    2.400   11.200    0.000 
#    0.000    0.000    0.000    0.000    0.000    0.000 
#    0.000    0.000    0.000    0.000    0.000    0.000 
#
# Total GULP energy -251534.252859 kJ/mol
# GULP energy per Si atom -5589.650064 kJ/mol
# Density = 2.018076 g / cm^3
# Si number density = 20.226794 Si / 1000 Ang^3
#
#
#
# Elastic Constant Matrix: (Units=GPa)
#
#
# Indices 1 2 3 4 5 6 
#
# 1 101.5953 48.5263 39.4047 0.0000 0.0000 0.0000
# 2 48.5263 101.5953 39.4047 0.0000 0.0000 0.0000
# 3 39.4047 39.4047 82.4611 0.0000 0.0000 0.0000
# 4 0.0000 0.0000 0.0000 26.5573 0.0000 0.0000
# 5 0.0000 0.0000 0.0000 0.0000 26.5573 0.0000
# 6 0.0000 0.0000 0.0000 0.0000 0.0000 26.5345
#
#
#
# Elastic Compliance Matrix: (Units=1/GPa)
#
#
# Indices 1 2 3 4 5 6 
#
# 1 0.013868 -0.004976 -0.004249 0.000000 0.000000 0.000000
# 2 -0.004976 0.013868 -0.004249 0.000000 0.000000 0.000000
# 3 -0.004249 -0.004249 0.016188 0.000000 0.000000 0.000000
# 4 0.000000 0.000000 0.000000 0.037654 0.000000 0.000000
# 5 0.000000 0.000000 0.000000 0.000000 0.037654 0.000000
# 6 0.000000 0.000000 0.000000 0.000000 0.000000 0.037687
#
#
# Mechanical properties :
#
#
# Convention : Reuss Voigt Hill
#
# Bulk Modulus (GPa) = 58.90889 60.03591 59.47240
# Shear Modulus (GPa) = 26.38176 26.48423 26.43300
#
# Velocity S-wave (km/s) = 3.61542 3.62244 3.61893
# Velocity P-wave (km/s) = 6.82758 6.87327 6.85046
#
# Compressibility (1/GPa) = 0.01697537
#
# Stress axis : x y z
#
# Youngs Moduli (GPa) = 72.11032 72.11032 61.77485
#
# Poissons Ratio (x) = 0.35880 0.26249
# Poissons Ratio (y) = 0.35880 0.26249
# Poissons Ratio (z) = 0.30640 0.30640
#
# Static dielectric constant tensor:
#      x y z
#    x 1.735590 0.000000 0.000000 
#    y 0.000000 1.735590 0.000000 
#    z 0.000000 0.000000 1.731080 
# 
# From -- ./inp_files/5071.got.cif
#   From: 2010.05.17/outbox.cif.g08.bks.cpg/sg171_3_cif.got.tgz:5071.got - 2010.05.20 11:16:09.
