data_PCOD9580736
_publ_section_title
;
Structure prediction by ZEFSAII (Michael W. Deem and Ramdas Pophale) SiO2 
 PCOD9580736
Probable space group: P 62
;
_chemical_formula_sum "Si O2"
_cell_formula_units_Z 33
_cell_length_a 8.222040
_cell_length_b 8.222040
_cell_length_c 27.377449
_cell_angle_alpha 90.000000
_cell_angle_beta 90.000000
_cell_angle_gamma 120.000000
_cell_volume 1602.812722
_symmetry_space_group_name_H-M "P 62"
_symmetry_group_IT_number 171
_symmetry_cell_setting 'hexagonal'
loop_
_space_group_symop_operation_xyz
x,y,z
x-y,x,1/3+z
-y,x-y,2/3+z
-x,-y,z
-x+y,-x,1/3+z
y,-x+y,2/3+z
loop_
_atom_site_type_symbol
_atom_site_label
_atom_site_fract_x
_atom_site_fract_y
_atom_site_fract_z
Si Si1 0.812848 0.468410 0.747000
Si Si2 0.781359 0.402477 0.332409
Si Si3 0.400116 0.127316 0.909822
Si Si4 0.943417 0.711501 0.039486
Si Si5 0.834415 0.284974 0.464926
Si Si6 0.000000 0.000000 0.957915
O O1 0.793698 0.328887 0.702482
O O2 0.797223 0.639795 0.723900
O O3 0.635757 0.357155 0.782459
O O4 0.000000 0.500000 0.773302
O O5 0.769854 0.467674 0.278315
O O6 0.688203 0.183587 0.347973
O O7 0.000000 0.500000 0.345324
O O8 0.396709 0.178969 0.853447
O O9 0.500000 0.000000 0.912097
O O10 0.184555 0.030349 0.928841
O O11 0.833400 0.698564 0.089542
O O12 0.932967 0.830117 0.995324
O O13 0.000000 0.500000 0.462752
#
# Coordination Sequence:
#
# PCOD9580736 Si02
#       6
#     6   6   6   6   6   3
#     4  11  23  40  65  99 132 174 239 287 340 424
#     4  11  20  38  65  94 130 175 219 281 342 408
#     4  11  25  46  67  99 147 181 230 297 354 426
#     4  11  23  39  69  99 130 176 233 277 345 420
#     4  10  24  45  65  95 139 180 223 288 359 409
#     4  12  24  42  68 110 126 184 234 288 358 420
#
# _framework density 20.588806999999999
#
# number of rings (size 3 to 8) (size 9 to 14) (size 15 to 20)
#    0.000    1.091    1.818    7.091    2.545    2.182 
#    3.273    1.818    0.000    0.000    0.000    0.000 
#    0.000    0.000    0.000    0.000    0.000    0.000 
#
# Total GULP energy -183937.315190 kJ/mol
# GULP energy per Si atom -5573.858036 kJ/mol
# Density = 2.054195 g / cm^3
# Si number density = 20.588807 Si / 1000 Ang^3
#
#
#
# Elastic Constant Matrix: (Units=GPa)
#
#
# Indices 1 2 3 4 5 6 
#
# 1 88.0513 27.5012 41.8939 0.0000 0.0000 0.0000
# 2 27.5012 88.0513 41.8939 0.0000 0.0000 0.0000
# 3 41.8939 41.8939 179.2369 0.0000 0.0000 0.0000
# 4 0.0000 0.0000 0.0000 59.6455 0.0000 0.0000
# 5 0.0000 0.0000 0.0000 0.0000 59.6455 0.0000
# 6 0.0000 0.0000 0.0000 0.0000 0.0000 30.2750
#
#
#
# Elastic Compliance Matrix: (Units=1/GPa)
#
#
# Indices 1 2 3 4 5 6 
#
# 1 0.013468 -0.003048 -0.002436 0.000000 0.000000 0.000000
# 2 -0.003048 0.013468 -0.002436 0.000000 0.000000 0.000000
# 3 -0.002436 -0.002436 0.006718 0.000000 0.000000 0.000000
# 4 0.000000 0.000000 0.000000 0.016766 0.000000 0.000000
# 5 0.000000 0.000000 0.000000 0.000000 0.016766 0.000000
# 6 0.000000 0.000000 0.000000 0.000000 0.000000 0.033031
#
#
# Mechanical properties :
#
#
# Convention : Reuss Voigt Hill
#
# Bulk Modulus (GPa) = 56.12995 64.21303 60.17149
# Shear Modulus (GPa) = 40.98663 46.18322 43.58493
#
# Velocity S-wave (km/s) = 4.46659 4.74130 4.60600
# Velocity P-wave (km/s) = 7.34317 7.82491 7.58787
#
# Compressibility (1/GPa) = 0.01781580
#
# Stress axis : x y z
#
# Youngs Moduli (GPa) = 74.25184 74.25184 148.85943
#
# Poissons Ratio (x) = 0.22629 0.36255
# Poissons Ratio (y) = 0.22629 0.36255
# Poissons Ratio (z) = 0.18084 0.18084
#
# Static dielectric constant tensor:
#      x y z
#    x 1.376480 0.000000 0.000000 
#    y 0.000000 1.376480 0.000000 
#    z 0.000000 0.000000 1.701900 
# 
# From -- ./inp_files/5805.got.cif
#   From: 2010.05.17/outbox.cif.g08.bks.cpg/sg171_3_cif.got.tgz:5805.got - 2010.05.20 11:16:09.
