data_PCOD9580116
_publ_section_title
;
Structure prediction by ZEFSAII (Michael W. Deem and Ramdas Pophale) SiO2 
 PCOD9580116
Probable space group: P 61
;
_chemical_formula_sum "Si O2"
_cell_formula_units_Z 42
_cell_length_a 8.313851
_cell_length_b 8.313851
_cell_length_c 31.949637
_cell_angle_alpha 90.000000
_cell_angle_beta 90.000000
_cell_angle_gamma 120.000000
_cell_volume 1912.498194
_symmetry_space_group_name_H-M "P 61"
_symmetry_group_IT_number 169
_symmetry_cell_setting 'hexagonal'
loop_
_space_group_symop_operation_xyz
x,y,z
x-y,x,1/6+z
-y,x-y,1/3+z
-x,-y,1/2+z
-x+y,-x,2/3+z
y,-x+y,5/6+z
loop_
_atom_site_type_symbol
_atom_site_label
_atom_site_fract_x
_atom_site_fract_y
_atom_site_fract_z
Si Si1 0.938552 0.048671 0.933750
Si Si2 0.168216 0.519332 0.159900
Si Si3 0.347510 0.443721 0.722532
Si Si4 0.752117 0.169803 0.802964
Si Si5 0.187908 0.541423 0.066873
Si Si6 0.402644 0.744474 0.231479
Si Si7 0.808593 0.949206 0.356583
O O1 0.844856 0.168557 0.918685
O O2 0.065921 0.053027 0.894838
O O3 0.775017 0.843664 0.944350
O O4 0.048900 0.131959 0.977246
O O5 0.233621 0.505943 0.113770
O O6 0.307430 0.693305 0.186690
O O7 0.983898 0.535817 0.153852
O O8 0.133360 0.339479 0.185917
O O9 0.278142 0.393675 0.674895
O O10 0.420553 0.663350 0.725883
O O11 0.475332 0.355531 0.734059
O O12 0.731645 0.308881 0.771353
O O13 0.197255 0.402776 0.033701
O O14 0.967398 0.460164 0.067383
#
# Coordination Sequence:
#
# PCOD9580116 Si02
#       7
#     6   6   6   6   6   6   6
#     4  12  24  44  78 108 148 198 257 311 389 465
#     4  11  25  45  70 103 147 192 242 322 383 445
#     4  12  25  43  77 108 140 208 248 303 393 461
#     4  11  24  45  70 104 144 196 242 313 386 455
#     4  11  25  44  73 105 148 190 254 305 379 461
#     4  11  26  46  68 110 150 187 252 321 371 464
#     4  12  23  45  74 110 145 193 255 315 381 463
#
# _framework density 21.960806999999999
#
# number of rings (size 3 to 8) (size 9 to 14) (size 15 to 20)
#    0.000    0.571    5.714    1.714    4.000    2.286 
#    0.000    0.000    0.000    0.000    0.000    0.000 
#    0.000    0.000    0.000    0.000    0.000    0.000 
#
# Total GULP energy -234430.436966 kJ/mol
# GULP energy per Si atom -5581.677071 kJ/mol
# Density = 2.191082 g / cm^3
# Si number density = 21.960807 Si / 1000 Ang^3
#
#
#
# Elastic Constant Matrix: (Units=GPa)
#
#
# Indices 1 2 3 4 5 6 
#
# 1 95.3967 48.9244 47.2579 0.0000 0.0000 0.0000
# 2 48.9244 95.3967 47.2579 0.0000 0.0000 0.0000
# 3 47.2579 47.2579 131.1017 0.0000 0.0000 0.0000
# 4 0.0000 0.0000 0.0000 21.5420 0.0000 0.0000
# 5 0.0000 0.0000 0.0000 0.0000 21.5420 0.0000
# 6 0.0000 0.0000 0.0000 0.0000 0.0000 23.2361
#
#
#
# Elastic Compliance Matrix: (Units=1/GPa)
#
#
# Indices 1 2 3 4 5 6 
#
# 1 0.015294 -0.006224 -0.003270 0.000000 0.000000 0.000000
# 2 -0.006224 0.015294 -0.003270 0.000000 0.000000 0.000000
# 3 -0.003270 -0.003270 0.009985 0.000000 0.000000 0.000000
# 4 0.000000 0.000000 0.000000 0.046421 0.000000 0.000000
# 5 0.000000 0.000000 0.000000 0.000000 0.046421 0.000000
# 6 0.000000 0.000000 0.000000 0.000000 0.000000 0.043036
#
#
# Mechanical properties :
#
#
# Convention : Reuss Voigt Hill
#
# Bulk Modulus (GPa) = 66.45793 67.64174 67.04984
# Shear Modulus (GPa) = 24.15539 25.16103 24.65821
#
# Velocity S-wave (km/s) = 3.32012 3.38853 3.35450
# Velocity P-wave (km/s) = 6.71009 6.79540 6.75288
#
# Compressibility (1/GPa) = 0.01504711
#
# Stress axis : x y z
#
# Youngs Moduli (GPa) = 65.38426 65.38426 100.15250
#
# Poissons Ratio (x) = 0.40695 0.32745
# Poissons Ratio (y) = 0.40695 0.32745
# Poissons Ratio (z) = 0.21377 0.21377
#
# Static dielectric constant tensor:
#      x y z
#    x 1.880970 0.000000 0.000000 
#    y 0.000000 1.880970 0.000000 
#    z 0.000000 0.000000 1.847230 
# 
# From -- ./inp_files/1890.got.cif
#   From: 2010.05.17/outbox.cif.g08.bks.cpg/sg169_cif.got.tgz:1890.got - 2010.05.20 11:12:54.
