data_PCOD9580490
_publ_section_title
;
Structure prediction by ZEFSAII (Michael W. Deem and Ramdas Pophale) SiO2 
 PCOD9580490
Probable space group: P 62
;
_chemical_formula_sum "Si O2"
_cell_formula_units_Z 39
_cell_length_a 13.579569
_cell_length_b 13.579569
_cell_length_c 12.746772
_cell_angle_alpha 90.000000
_cell_angle_beta 90.000000
_cell_angle_gamma 120.000000
_cell_volume 2035.648651
_symmetry_space_group_name_H-M "P 62"
_symmetry_group_IT_number 171
_symmetry_cell_setting 'hexagonal'
loop_
_space_group_symop_operation_xyz
x,y,z
x-y,x,1/3+z
-y,x-y,2/3+z
-x,-y,z
-x+y,-x,1/3+z
y,-x+y,2/3+z
loop_
_atom_site_type_symbol
_atom_site_label
_atom_site_fract_x
_atom_site_fract_y
_atom_site_fract_z
Si Si1 0.500000 0.000000 0.155221
Si Si2 0.049563 0.808857 0.141010
Si Si3 0.927444 0.750391 0.551098
Si Si4 0.978582 0.692878 0.914120
Si Si5 0.500000 0.500000 0.120925
Si Si6 0.344322 0.270318 0.004250
Si Si7 0.000000 0.000000 0.204926
Si Si8 0.668733 0.579443 0.302899
O O1 0.609604 0.041859 0.228384
O O2 0.485166 0.081451 0.071715
O O3 0.182275 0.882841 0.177532
O O4 0.993368 0.721532 0.235799
O O5 0.018793 0.908813 0.143072
O O6 0.996732 0.734997 0.035380
O O7 0.791436 0.688046 0.541795
O O8 0.964764 0.748034 0.431990
O O9 0.980289 0.688649 0.619983
O O10 0.965130 0.877645 0.590359
O O11 0.597380 0.510487 0.200972
O O12 0.440954 0.389589 0.048984
O O13 0.399171 0.193376 0.977212
#
# Coordination Sequence:
#
# PCOD9580490 Si02
#       8
#     3   6   6   6   3   6   3   6
#     4  11  22  43  64  88 128 183 230 273 318 386
#     4  11  24  37  65 102 148 169 216 270 363 425
#     4  10  20  35  63 100 132 171 219 267 341 417
#     4  11  24  39  62  99 139 181 218 277 339 420
#     4   9  24  39  66  92 130 167 232 281 330 380
#     4  11  21  41  65  93 127 177 220 287 331 406
#     4  10  20  34  58 108 142 174 190 258 354 450
#     4  10  20  41  69  93 122 173 234 283 324 397
#
# _framework density 19.158512999999999
#
# number of rings (size 3 to 8) (size 9 to 14) (size 15 to 20)
#    0.000    1.538    3.077    1.846    4.308    3.692 
#    0.000    1.538    0.000    0.000    0.000    0.000 
#    0.000    0.000    0.000    0.000    0.000    0.000 
#
# Total GULP energy -217112.208635 kJ/mol
# GULP energy per Si atom -5566.979709 kJ/mol
# Density = 1.911491 g / cm^3
# Si number density = 19.158513 Si / 1000 Ang^3
#
#
#
# Elastic Constant Matrix: (Units=GPa)
#
#
# Indices 1 2 3 4 5 6 
#
# 1 108.1318 54.8041 35.3621 0.0000 0.0000 0.0000
# 2 54.8041 108.1318 35.3621 0.0000 0.0000 0.0000
# 3 35.3621 35.3621 114.2775 0.0000 0.0000 0.0000
# 4 0.0000 0.0000 0.0000 3.0933 0.0000 0.0000
# 5 0.0000 0.0000 0.0000 0.0000 3.0933 0.0000
# 6 0.0000 0.0000 0.0000 0.0000 0.0000 26.6639
#
#
#
# Elastic Compliance Matrix: (Units=1/GPa)
#
#
# Indices 1 2 3 4 5 6 
#
# 1 0.012921 -0.005831 -0.002194 0.000000 0.000000 0.000000
# 2 -0.005831 0.012921 -0.002194 0.000000 0.000000 0.000000
# 3 -0.002194 -0.002194 0.010108 0.000000 0.000000 0.000000
# 4 0.000000 0.000000 0.000000 0.323282 0.000000 0.000000
# 5 0.000000 0.000000 0.000000 0.000000 0.323282 0.000000
# 6 0.000000 0.000000 0.000000 0.000000 0.000000 0.037504
#
#
# Mechanical properties :
#
#
# Convention : Reuss Voigt Hill
#
# Bulk Modulus (GPa) = 64.46484 64.62196 64.54340
# Shear Modulus (GPa) = 6.70577 20.23759 13.47168
#
# Velocity S-wave (km/s) = 1.87290 3.25364 2.65461
# Velocity P-wave (km/s) = 6.19663 6.92230 6.56949
#
# Compressibility (1/GPa) = 0.01551233
#
# Stress axis : x y z
#
# Youngs Moduli (GPa) = 77.39453 77.39453 98.92812
#
# Poissons Ratio (x) = 0.45130 0.21703
# Poissons Ratio (y) = 0.45130 0.21703
# Poissons Ratio (z) = 0.16979 0.16979
#
# Static dielectric constant tensor:
#      x y z
#    x 1.689150 0.000000 0.000000 
#    y 0.000000 1.689150 0.000000 
#    z 0.000000 0.000000 1.753150 
# 
# From -- ./inp_files/2033.got.cif
#   From: 2010.05.17/outbox.cif.g08.bks.cpg/sg171_2_cif.got.tgz:2033.got - 2010.05.20 11:16:09.
