data_PCOD9580681
_publ_section_title
;
Structure prediction by ZEFSAII (Michael W. Deem and Ramdas Pophale) SiO2 
 PCOD9580681
Probable space group: P 62
;
_chemical_formula_sum "Si O2"
_cell_formula_units_Z 36
_cell_length_a 8.159870
_cell_length_b 8.159870
_cell_length_c 28.559463
_cell_angle_alpha 90.000000
_cell_angle_beta 90.000000
_cell_angle_gamma 120.000000
_cell_volume 1646.823852
_symmetry_space_group_name_H-M "P 62"
_symmetry_group_IT_number 171
_symmetry_cell_setting 'hexagonal'
loop_
_space_group_symop_operation_xyz
x,y,z
x-y,x,1/3+z
-y,x-y,2/3+z
-x,-y,z
-x+y,-x,1/3+z
y,-x+y,2/3+z
loop_
_atom_site_type_symbol
_atom_site_label
_atom_site_fract_x
_atom_site_fract_y
_atom_site_fract_z
Si Si1 0.832902 0.646268 0.183490
Si Si2 0.000000 0.000000 0.000796
Si Si3 0.500000 0.500000 0.295518
Si Si4 0.834464 0.720304 0.583404
Si Si5 0.756392 0.242007 0.193912
Si Si6 0.500000 0.000000 0.775053
Si Si7 0.500000 0.000000 0.118964
Si Si8 0.215304 0.374957 0.379088
O O1 0.820961 0.802292 0.215930
O O2 0.789198 0.447836 0.208918
O O3 0.683429 0.597908 0.141952
O O4 0.050270 0.725751 0.169916
O O5 0.043196 0.874531 0.965354
O O6 0.824558 0.865176 0.032675
O O7 0.457538 0.316602 0.265138
O O8 0.328044 0.453715 0.330846
O O9 0.644823 0.707195 0.561525
O O10 0.595234 0.173335 0.154576
O O11 0.649765 0.156102 0.739792
O O12 0.349773 0.002114 0.083548
#
# Coordination Sequence:
#
# PCOD9580681 Si02
#       8
#     6   3   3   6   6   3   3   6
#     4  11  24  42  69 103 136 173 225 302 347 426
#     4  10  22  44  66  96 128 186 226 272 338 424
#     4   9  23  42  68  90 134 182 230 276 336 431
#     4  11  21  45  69  98 136 177 229 283 360 407
#     4  11  24  41  67 105 137 175 227 297 354 421
#     4  12  23  44  67 100 136 172 226 291 358 395
#     4  11  22  42  63  98 132 174 232 271 352 404
#     4  10  23  42  67  91 132 183 226 277 332 425
#
# _framework density 21.860263
#
# number of rings (size 3 to 8) (size 9 to 14) (size 15 to 20)
#    0.000    1.333    3.333    1.500    4.667    0.000 
#    6.000    0.000    0.000    0.000    0.000    0.000 
#    0.000    0.000    0.000    0.000    0.000    0.000 
#
# Total GULP energy -200547.797764 kJ/mol
# GULP energy per Si atom -5570.772160 kJ/mol
# Density = 2.181051 g / cm^3
# Si number density = 21.860263 Si / 1000 Ang^3
#
#
#
# Elastic Constant Matrix: (Units=GPa)
#
#
# Indices 1 2 3 4 5 6 
#
# 1 88.3748 3.6336 23.3799 0.0000 0.0000 0.0000
# 2 3.6336 88.3748 23.3799 0.0000 0.0000 0.0000
# 3 23.3799 23.3799 61.4967 0.0000 0.0000 0.0000
# 4 0.0000 0.0000 0.0000 -103.3945 0.0000 0.0000
# 5 0.0000 0.0000 0.0000 0.0000 -103.3945 0.0000
# 6 0.0000 0.0000 0.0000 0.0000 0.0000 42.3706
#
#
#
# Elastic Compliance Matrix: (Units=1/GPa)
#
#
# Indices 1 2 3 4 5 6 
#
# 1 0.012636 0.000835 -0.005122 0.000000 0.000000 0.000000
# 2 0.000835 0.012636 -0.005122 0.000000 0.000000 0.000000
# 3 -0.005122 -0.005122 0.020155 0.000000 0.000000 0.000000
# 4 0.000000 0.000000 0.000000 -0.009672 0.000000 0.000000
# 5 0.000000 0.000000 0.000000 0.000000 -0.009672 0.000000
# 6 0.000000 0.000000 0.000000 0.000000 0.000000 0.023601
#
#
# Mechanical properties :
#
#
# Convention : Reuss Voigt Hill
#
# Bulk Modulus (GPa) = 37.57730 37.67035 37.62382
# Shear Modulus (GPa) = 64.62338 -20.36013 22.13162
#
# Velocity S-wave (km/s) = 5.44300 -3.05516 3.18530
# Velocity P-wave (km/s) = 7.53185 2.19646 5.54766
#
# Compressibility (1/GPa) = 0.02661181
#
# Stress axis : x y z
#
# Youngs Moduli (GPa) = 79.13880 79.13880 49.61472
#
# Poissons Ratio (x) = -0.06611 0.25411
# Poissons Ratio (y) = -0.06611 0.25411
# Poissons Ratio (z) = 0.40532 0.40532
#
# Static dielectric constant tensor:
#      x y z
#    x 1.918740 0.000000 0.000000 
#    y 0.000000 1.918740 0.000000 
#    z 0.000000 0.000000 1.738190 
# 
# From -- ./inp_files/5848.got.cif
#   From: 2010.05.17/outbox.cif.g08.bks.cpg/sg171_3_cif.got.tgz:5848.got - 2010.05.20 11:16:09.
