data_PCOD9580128
_publ_section_title
;
Structure prediction by ZEFSAII (Michael W. Deem and Ramdas Pophale) SiO2 
 PCOD9580128
Probable space group: P 61
;
_chemical_formula_sum "Si O2"
_cell_formula_units_Z 30
_cell_length_a 6.942353
_cell_length_b 6.942353
_cell_length_c 29.609225
_cell_angle_alpha 90.000000
_cell_angle_beta 90.000000
_cell_angle_gamma 120.000000
_cell_volume 1235.865068
_symmetry_space_group_name_H-M "P 61"
_symmetry_group_IT_number 169
_symmetry_cell_setting 'hexagonal'
loop_
_space_group_symop_operation_xyz
x,y,z
x-y,x,1/6+z
-y,x-y,1/3+z
-x,-y,1/2+z
-x+y,-x,2/3+z
y,-x+y,5/6+z
loop_
_atom_site_type_symbol
_atom_site_label
_atom_site_fract_x
_atom_site_fract_y
_atom_site_fract_z
Si Si1 0.826170 0.682780 0.826590
Si Si2 0.234049 0.795613 0.303141
Si Si3 0.816823 0.653629 0.238031
Si Si4 0.145616 0.016624 0.900209
Si Si5 0.408629 0.571142 0.406649
O O1 0.791937 0.444287 0.811898
O O2 0.036522 0.854305 0.857618
O O3 0.171115 0.761916 0.731557
O O4 0.868683 0.806458 0.778943
O O5 0.017907 0.727037 0.272670
O O6 0.370772 0.411504 0.363690
O O7 0.228901 0.884895 0.352711
O O8 0.454349 0.988405 0.279810
O O9 0.790854 0.870203 0.237750
O O10 0.607471 0.411257 0.248342
#
# Coordination Sequence:
#
# PCOD9580128 Si02
#       5
#     6   6   6   6   6
#     4  11  27  48  80 115 155 207 268 326 393 494
#     4  11  25  50  74 113 156 209 256 338 386 482
#     4  11  25  50  73 112 156 197 268 320 393 481
#     4  12  26  51  76 116 156 209 268 320 418 472
#     4  11  27  49  77 112 157 204 268 328 404 473
#
# _framework density 24.274498999999999
#
# number of rings (size 3 to 8) (size 9 to 14) (size 15 to 20)
#    0.000    0.800    4.000    1.200    5.600    3.200 
#   14.400    0.000    0.000    0.000    0.000    0.000 
#    0.000    0.000    0.000    0.000    0.000    0.000 
#
# Total GULP energy -167324.006139 kJ/mol
# GULP energy per Si atom -5577.466871 kJ/mol
# Density = 2.421925 g / cm^3
# Si number density = 24.274499 Si / 1000 Ang^3
#
#
#
# Elastic Constant Matrix: (Units=GPa)
#
#
# Indices 1 2 3 4 5 6 
#
# 1 101.5127 21.4889 35.0206 0.0000 0.0000 0.0000
# 2 21.4889 101.5127 35.0206 0.0000 0.0000 0.0000
# 3 35.0206 35.0206 146.0796 0.0000 0.0000 0.0000
# 4 0.0000 0.0000 0.0000 31.5078 0.0000 0.0000
# 5 0.0000 0.0000 0.0000 0.0000 31.5078 0.0000
# 6 0.0000 0.0000 0.0000 0.0000 0.0000 40.0119
#
#
#
# Elastic Compliance Matrix: (Units=1/GPa)
#
#
# Indices 1 2 3 4 5 6 
#
# 1 0.010956 -0.001540 -0.002257 0.000000 0.000000 0.000000
# 2 -0.001540 0.010956 -0.002257 0.000000 0.000000 0.000000
# 3 -0.002257 -0.002257 0.007928 0.000000 0.000000 0.000000
# 4 0.000000 0.000000 0.000000 0.031738 0.000000 0.000000
# 5 0.000000 0.000000 0.000000 0.000000 0.031738 0.000000
# 6 0.000000 0.000000 0.000000 0.000000 0.000000 0.024993
#
#
# Mechanical properties :
#
#
# Convention : Reuss Voigt Hill
#
# Bulk Modulus (GPa) = 56.40260 59.12946 57.76603
# Shear Modulus (GPa) = 36.67628 37.77717 37.22672
#
# Velocity S-wave (km/s) = 3.89124 3.94921 3.92033
# Velocity P-wave (km/s) = 6.59354 6.72358 6.65888
#
# Compressibility (1/GPa) = 0.01772968
#
# Stress axis : x y z
#
# Youngs Moduli (GPa) = 91.27593 91.27593 126.13777
#
# Poissons Ratio (x) = 0.14061 0.28472
# Poissons Ratio (y) = 0.14061 0.28472
# Poissons Ratio (z) = 0.20603 0.20603
#
# Static dielectric constant tensor:
#      x y z
#    x 1.979520 0.000000 0.000000 
#    y 0.000000 1.979520 0.000000 
#    z 0.000000 0.000000 1.957900 
# 
# From -- ./inp_files/1708.got.cif
#   From: 2010.05.17/outbox.cif.g08.bks.cpg/sg169_cif.got.tgz:1708.got - 2010.05.20 11:12:54.
