data_PCOD9580244
_publ_section_title
;
Structure prediction by ZEFSAII (Michael W. Deem and Ramdas Pophale) SiO2 
 PCOD9580244
Probable space group: P 65
;
_chemical_formula_sum "Si O2"
_cell_formula_units_Z 30
_cell_length_a 10.103995
_cell_length_b 10.103995
_cell_length_c 11.432520
_cell_angle_alpha 90.000000
_cell_angle_beta 90.000000
_cell_angle_gamma 120.000000
_cell_volume 1010.785136
_symmetry_space_group_name_H-M "P 65"
_symmetry_group_IT_number 170
_symmetry_cell_setting 'hexagonal'
loop_
_space_group_symop_operation_xyz
x,y,z
x-y,x,5/6+z
-y,x-y,2/3+z
-x,-y,1/2+z
-x+y,-x,1/3+z
y,-x+y,1/6+z
loop_
_atom_site_type_symbol
_atom_site_label
_atom_site_fract_x
_atom_site_fract_y
_atom_site_fract_z
Si Si1 0.665458 0.726070 0.445810
Si Si2 0.771435 0.991949 0.258304
Si Si3 0.441902 0.941876 0.900324
Si Si4 0.735086 0.349249 0.745444
Si Si5 0.223120 0.833688 0.430864
O O1 0.750706 0.863754 0.354538
O O2 0.591453 0.580222 0.357057
O O3 0.518471 0.718718 0.507428
O O4 0.794834 0.728683 0.532573
O O5 0.779366 0.925204 0.132473
O O6 0.628089 0.010274 0.294206
O O7 0.623760 0.012887 0.886748
O O8 0.329924 0.763735 0.918299
O O9 0.763767 0.307636 0.874822
O O10 0.821412 0.535579 0.724567
#
# Coordination Sequence:
#
# PCOD9580244 Si02
#       5
#     6   6   6   6   6
#     4  11  22  41  67  94 128 171 222 276 343 396
#     4  10  20  40  66  90 128 178 216 260 340 412
#     4  11  22  41  67  94 128 171 222 276 343 396
#     4  12  22  39  65  95 126 170 219 276 332 404
#     4  12  22  39  65  95 126 170 219 276 332 404
#
# _framework density 29.679895999999999
#
# number of rings (size 3 to 8) (size 9 to 14) (size 15 to 20)
#    0.000    0.800    6.000    3.600    0.000    0.000 
#    0.000    2.000    8.800    0.000    0.000    0.000 
#    0.000    0.000    0.000    0.000    0.000    0.000 
#
# Total GULP energy -167142.705254 kJ/mol
# GULP energy per Si atom -5571.423508 kJ/mol
# Density = 2.961234 g / cm^3
# Si number density = 29.679896 Si / 1000 Ang^3
#
#
#
# Elastic Constant Matrix: (Units=GPa)
#
#
# Indices 1 2 3 4 5 6 
#
# 1 83.8391 21.5121 -14.0255 0.0000 0.0000 0.0000
# 2 21.5121 83.8391 -14.0255 0.0000 0.0000 0.0000
# 3 -14.0255 -14.0255 62.5137 0.0000 0.0000 0.0000
# 4 0.0000 0.0000 0.0000 47.4668 0.0000 0.0000
# 5 0.0000 0.0000 0.0000 0.0000 47.4668 0.0000
# 6 0.0000 0.0000 0.0000 0.0000 0.0000 31.1635
#
#
#
# Elastic Compliance Matrix: (Units=1/GPa)
#
#
# Indices 1 2 3 4 5 6 
#
# 1 0.013070 -0.002975 0.002265 0.000000 0.000000 0.000000
# 2 -0.002975 0.013070 0.002265 0.000000 0.000000 0.000000
# 3 0.002265 0.002265 0.017013 0.000000 0.000000 0.000000
# 4 0.000000 0.000000 0.000000 0.021067 0.000000 0.000000
# 5 0.000000 0.000000 0.000000 0.000000 0.021067 0.000000
# 6 0.000000 0.000000 0.000000 0.000000 0.000000 0.032089
#
#
# Mechanical properties :
#
#
# Convention : Reuss Voigt Hill
#
# Bulk Modulus (GPa) = 21.61564 24.12379 22.86971
# Shear Modulus (GPa) = 38.55453 41.00145 39.77799
#
# Velocity S-wave (km/s) = 3.60809 3.72083 3.66489
# Velocity P-wave (km/s) = 4.96553 5.15801 5.06268
#
# Compressibility (1/GPa) = 0.04626279
#
# Stress axis : x y z
#
# Youngs Moduli (GPa) = 76.51243 76.51243 58.77922
#
# Poissons Ratio (x) = 0.22760 -0.13313
# Poissons Ratio (y) = 0.22760 -0.13313
# Poissons Ratio (z) = -0.17330 -0.17330
#
# Static dielectric constant tensor:
#      x y z
#    x 2.516390 0.000000 0.000000 
#    y 0.000000 2.516390 0.000000 
#    z 0.000000 0.000000 2.465130 
# 
# From -- ./inp_files/1134.got.cif
#   From: 2010.05.17/outbox.cif.g08.bks.cpg/sg170_cif.got.tgz:1134.got - 2010.05.20 11:14:30.
