data_PCOD9580568
_publ_section_title
;
Structure prediction by ZEFSAII (Michael W. Deem and Ramdas Pophale) SiO2 
 PCOD9580568
Probable space group: P 62
;
_chemical_formula_sum "Si O2"
_cell_formula_units_Z 42
_cell_length_a 15.506010
_cell_length_b 15.506010
_cell_length_c 10.272844
_cell_angle_alpha 90.000000
_cell_angle_beta 90.000000
_cell_angle_gamma 120.000000
_cell_volume 2139.052502
_symmetry_space_group_name_H-M "P 62"
_symmetry_group_IT_number 171
_symmetry_cell_setting 'hexagonal'
loop_
_space_group_symop_operation_xyz
x,y,z
x-y,x,1/3+z
-y,x-y,2/3+z
-x,-y,z
-x+y,-x,1/3+z
y,-x+y,2/3+z
loop_
_atom_site_type_symbol
_atom_site_label
_atom_site_fract_x
_atom_site_fract_y
_atom_site_fract_z
Si Si1 0.203878 0.020738 0.078890
Si Si2 0.069102 0.703069 0.109322
Si Si3 0.139607 0.704187 0.830473
Si Si4 0.500000 0.500000 0.354918
Si Si5 0.721720 0.832215 0.641966
Si Si6 0.000000 0.500000 0.259593
Si Si7 0.884863 0.540484 0.461374
Si Si8 0.016795 0.228784 0.464036
O O1 0.322491 0.079908 0.107198
O O2 0.181241 0.108736 0.054167
O O3 0.149516 0.957388 0.205360
O O4 0.186330 0.958142 0.949063
O O5 0.135467 0.793542 0.211015
O O6 0.031336 0.597820 0.177308
O O7 0.134911 0.710190 0.985363
O O8 0.970351 0.697949 0.042529
O O9 0.077614 0.593045 0.774943
O O10 0.255808 0.771192 0.795250
O O11 0.471635 0.404852 0.261494
O O12 0.741615 0.902679 0.764517
O O13 0.090585 0.517952 0.353666
O O14 0.946134 0.658147 0.426896
#
# Coordination Sequence:
#
# PCOD9580568 Si02
#       8
#     6   6   6   3   6   3   6   6
#     4  10  21  36  59  88 120 162 213 247 318 397
#     4  11  24  41  67  94 136 172 233 276 350 413
#     4  10  22  39  65  91 126 168 219 273 331 418
#     4  11  21  40  70  94 127 179 214 280 358 409
#     4  11  22  40  64  96 130 178 215 277 332 414
#     4  11  23  44  64 102 127 183 226 296 348 425
#     4  10  22  40  64  93 129 161 231 267 336 415
#     4  11  20  38  62  87 122 166 205 268 318 399
#
# _framework density 19.634861000000001
#
# number of rings (size 3 to 8) (size 9 to 14) (size 15 to 20)
#    0.000    1.429    2.857    3.857    4.000    0.000 
#    0.000    8.571    0.000    0.000    0.000    0.000 
#    0.000    0.000    0.000    0.000    0.000    0.000 
#
# Total GULP energy -233934.860979 kJ/mol
# GULP energy per Si atom -5569.877642 kJ/mol
# Density = 1.959017 g / cm^3
# Si number density = 19.634861 Si / 1000 Ang^3
#
#
#
# Elastic Constant Matrix: (Units=GPa)
#
#
# Indices 1 2 3 4 5 6 
#
# 1 90.7875 33.8435 32.8847 0.0000 0.0000 0.0000
# 2 33.8435 90.7875 32.8847 0.0000 0.0000 0.0000
# 3 32.8847 32.8847 93.6337 0.0000 0.0000 0.0000
# 4 0.0000 0.0000 0.0000 22.9895 0.0000 0.0000
# 5 0.0000 0.0000 0.0000 0.0000 22.9895 0.0000
# 6 0.0000 0.0000 0.0000 0.0000 0.0000 28.4720
#
#
#
# Elastic Compliance Matrix: (Units=1/GPa)
#
#
# Indices 1 2 3 4 5 6 
#
# 1 0.013705 -0.003856 -0.003459 0.000000 0.000000 0.000000
# 2 -0.003856 0.013705 -0.003459 0.000000 0.000000 0.000000
# 3 -0.003459 -0.003459 0.013110 0.000000 0.000000 0.000000
# 4 0.000000 0.000000 0.000000 0.043498 0.000000 0.000000
# 5 0.000000 0.000000 0.000000 0.000000 0.043498 0.000000
# 6 0.000000 0.000000 0.000000 0.000000 0.000000 0.035122
#
#
# Mechanical properties :
#
#
# Convention : Reuss Voigt Hill
#
# Bulk Modulus (GPa) = 52.71053 52.71492 52.71273
# Shear Modulus (GPa) = 26.24529 26.59658 26.42093
#
# Velocity S-wave (km/s) = 3.66001 3.68443 3.67224
# Velocity P-wave (km/s) = 6.69063 6.70864 6.69964
#
# Compressibility (1/GPa) = 0.01897154
#
# Stress axis : x y z
#
# Youngs Moduli (GPa) = 72.96555 72.96555 76.28005
#
# Poissons Ratio (x) = 0.28136 0.26386
# Poissons Ratio (y) = 0.28136 0.26386
# Poissons Ratio (z) = 0.25239 0.25239
#
# Static dielectric constant tensor:
#      x y z
#    x 1.703430 0.000000 0.000000 
#    y 0.000000 1.703430 0.000000 
#    z 0.000000 0.000000 1.694940 
# 
# From -- ./inp_files/1694.got.cif
#   From: 2010.05.17/outbox.cif.g08.bks.cpg/sg171_1_cif.got.tgz:1694.got - 2010.05.20 11:16:09.
