data_PCOD9580131
_publ_section_title
;
Structure prediction by ZEFSAII (Michael W. Deem and Ramdas Pophale) SiO2 
 PCOD9580131
Probable space group: P 61
;
_chemical_formula_sum "Si O2"
_cell_formula_units_Z 18
_cell_length_a 13.808344
_cell_length_b 13.808344
_cell_length_c 5.013658
_cell_angle_alpha 90.000000
_cell_angle_beta 90.000000
_cell_angle_gamma 120.000000
_cell_volume 827.882177
_symmetry_space_group_name_H-M "P 61"
_symmetry_group_IT_number 169
_symmetry_cell_setting 'hexagonal'
loop_
_space_group_symop_operation_xyz
x,y,z
x-y,x,1/6+z
-y,x-y,1/3+z
-x,-y,1/2+z
-x+y,-x,2/3+z
y,-x+y,5/6+z
loop_
_atom_site_type_symbol
_atom_site_label
_atom_site_fract_x
_atom_site_fract_y
_atom_site_fract_z
Si Si1 0.566287 0.561085 0.829860
Si Si2 0.197310 0.383367 0.521991
Si Si3 0.883583 0.131364 0.187126
O O1 0.531141 0.500934 0.546311
O O2 0.584547 0.686342 0.788813
O O3 0.670959 0.551024 0.950028
O O4 0.178213 0.356916 0.835833
O O5 0.166430 0.278281 0.326190
O O6 0.820350 0.999782 0.206181
#
# Coordination Sequence:
#
# PCOD9580131 Si02
#       3
#     6   6   6
#     4  12  26  48  76 104 146 194 246 314 376 448
#     4  12  24  47  72 102 144 190 243 308 374 440
#     4  12  22  39  68 104 146 184 221 284 356 444
#
# _framework density 21.742222000000002
#
# number of rings (size 3 to 8) (size 9 to 14) (size 15 to 20)
#    0.000    0.000    6.667    4.000    0.000    2.667 
#    6.000    0.000    0.000    0.000    0.000    0.000 
#    0.000    0.000    0.000    0.000    0.000    0.000 
#
# Total GULP energy -100312.037222 kJ/mol
# GULP energy per Si atom -5572.890957 kJ/mol
# Density = 2.169274 g / cm^3
# Si number density = 21.742222 Si / 1000 Ang^3
#
#
#
# Elastic Constant Matrix: (Units=GPa)
#
#
# Indices 1 2 3 4 5 6 
#
# 1 97.9072 2.1685 11.3121 0.0000 0.0000 0.0000
# 2 2.1685 97.9072 11.3121 0.0000 0.0000 0.0000
# 3 11.3121 11.3121 107.4219 0.0000 0.0000 0.0000
# 4 0.0000 0.0000 0.0000 42.8875 0.0000 0.0000
# 5 0.0000 0.0000 0.0000 0.0000 42.8875 0.0000
# 6 0.0000 0.0000 0.0000 0.0000 0.0000 47.8693
#
#
#
# Elastic Compliance Matrix: (Units=1/GPa)
#
#
# Indices 1 2 3 4 5 6 
#
# 1 0.010341 -0.000104 -0.001078 0.000000 0.000000 0.000000
# 2 -0.000104 0.010341 -0.001078 0.000000 0.000000 0.000000
# 3 -0.001078 -0.001078 0.009536 0.000000 0.000000 0.000000
# 4 0.000000 0.000000 0.000000 0.023317 0.000000 0.000000
# 5 0.000000 0.000000 0.000000 0.000000 0.023317 0.000000
# 6 0.000000 0.000000 0.000000 0.000000 0.000000 0.020890
#
#
# Mechanical properties :
#
#
# Convention : Reuss Voigt Hill
#
# Bulk Modulus (GPa) = 38.91551 39.20239 39.05895
# Shear Modulus (GPa) = 45.11521 45.29177 45.20349
#
# Velocity S-wave (km/s) = 4.56016 4.56908 4.56462
# Velocity P-wave (km/s) = 6.75753 6.77532 6.76643
#
# Compressibility (1/GPa) = 0.02569669
#
# Stress axis : x y z
#
# Youngs Moduli (GPa) = 96.70608 96.70608 104.86462
#
# Poissons Ratio (x) = 0.01010 0.11304
# Poissons Ratio (y) = 0.01010 0.11304
# Poissons Ratio (z) = 0.10424 0.10424
#
# Static dielectric constant tensor:
#      x y z
#    x 1.904520 0.000000 0.000000 
#    y 0.000000 1.904520 0.000000 
#    z 0.000000 0.000000 1.740940 
# 
# From -- ./inp_files/41.got.cif
#   From: 2010.05.17/outbox.cif.g08.bks.cpg/sg169_cif.got.tgz:41.got - 2010.05.20 11:12:54.
