data_PCOD9580962
_publ_section_title
;
Structure prediction by ZEFSAII (Michael W. Deem and Ramdas Pophale) SiO2 
 PCOD9580962
Probable space group: P 64
;
_chemical_formula_sum "Si O2"
_cell_formula_units_Z 36
_cell_length_a 11.510152
_cell_length_b 11.510152
_cell_length_c 14.173837
_cell_angle_alpha 90.000000
_cell_angle_beta 90.000000
_cell_angle_gamma 120.000000
_cell_volume 1626.223316
_symmetry_space_group_name_H-M "P 64"
_symmetry_group_IT_number 172
_symmetry_cell_setting 'hexagonal'
loop_
_space_group_symop_operation_xyz
x,y,z
x-y,x,2/3+z
-y,x-y,1/3+z
-x,-y,z
-x+y,-x,2/3+z
y,-x+y,1/3+z
loop_
_atom_site_type_symbol
_atom_site_label
_atom_site_fract_x
_atom_site_fract_y
_atom_site_fract_z
Si Si1 0.593251 0.939731 0.247190
Si Si2 0.923615 0.806838 0.611003
Si Si3 0.378565 0.234666 0.109572
Si Si4 0.779786 0.954792 0.596468
Si Si5 0.360973 0.505859 0.300536
Si Si6 0.777769 0.332834 0.747641
O O1 0.547387 0.820530 0.174467
O O2 0.576112 0.872193 0.350500
O O3 0.500000 0.000000 0.232645
O O4 0.747683 0.042323 0.224482
O O5 0.851812 0.725481 0.704557
O O6 0.827007 0.851260 0.562305
O O7 0.074214 0.929682 0.634527
O O8 0.285586 0.258946 0.181715
O O9 0.506592 0.355842 0.060328
O O10 0.645429 0.887699 0.659294
O O11 0.500000 0.500000 0.297119
O O12 0.384148 0.628179 0.370068
O O13 0.323990 0.532033 0.193842
#
# Coordination Sequence:
#
# PCOD9580962 Si02
#       6
#     6   6   6   6   6   6
#     4  11  21  38  69 100 136 188 239 299 364 443
#     4  10  22  40  65  99 137 185 244 297 374 433
#     4  11  22  43  67 100 141 188 247 301 372 451
#     4  10  23  42  67  99 142 192 238 309 373 442
#     4  12  24  47  74 109 146 194 256 309 380 458
#     4  12  23  44  75 107 144 199 255 303 375 463
#
# _framework density 22.137181000000002
#
# number of rings (size 3 to 8) (size 9 to 14) (size 15 to 20)
#    0.000    1.000    5.000    2.500    0.000    6.667 
#    0.000    5.000    0.000    0.000    0.000    0.000 
#    0.000    0.000    0.000    0.000    0.000    0.000 
#
# Total GULP energy -200534.526703 kJ/mol
# GULP energy per Si atom -5570.403520 kJ/mol
# Density = 2.208680 g / cm^3
# Si number density = 22.137181 Si / 1000 Ang^3
#
#
#
# Elastic Constant Matrix: (Units=GPa)
#
#
# Indices 1 2 3 4 5 6 
#
# 1 134.0015 73.3528 21.7825 0.0000 0.0000 0.0000
# 2 73.3528 134.0015 21.7825 0.0000 0.0000 0.0000
# 3 21.7825 21.7825 62.1558 0.0000 0.0000 0.0000
# 4 0.0000 0.0000 0.0000 26.7561 0.0000 0.0000
# 5 0.0000 0.0000 0.0000 0.0000 26.7561 0.0000
# 6 0.0000 0.0000 0.0000 0.0000 0.0000 30.3243
#
#
#
# Elastic Compliance Matrix: (Units=1/GPa)
#
#
# Indices 1 2 3 4 5 6 
#
# 1 0.010847 -0.005641 -0.001824 0.000000 0.000000 0.000000
# 2 -0.005641 0.010847 -0.001824 0.000000 0.000000 0.000000
# 3 -0.001824 -0.001824 0.017367 0.000000 0.000000 0.000000
# 4 0.000000 0.000000 0.000000 0.037375 0.000000 0.000000
# 5 0.000000 0.000000 0.000000 0.000000 0.037375 0.000000
# 6 0.000000 0.000000 0.000000 0.000000 0.000000 0.032977
#
#
# Mechanical properties :
#
#
# Convention : Reuss Voigt Hill
#
# Bulk Modulus (GPa) = 48.82438 62.66602 55.74520
# Shear Modulus (GPa) = 29.03681 30.98337 30.01009
#
# Velocity S-wave (km/s) = 3.62564 3.74519 3.68590
# Velocity P-wave (km/s) = 6.29525 6.86086 6.58414
#
# Compressibility (1/GPa) = 0.02048157
#
# Stress axis : x y z
#
# Youngs Moduli (GPa) = 92.18972 92.18972 57.57933
#
# Poissons Ratio (x) = 0.52006 0.10505
# Poissons Ratio (y) = 0.52006 0.10505
# Poissons Ratio (z) = 0.16819 0.16819
#
# Static dielectric constant tensor:
#      x y z
#    x 1.882300 0.000000 0.000000 
#    y 0.000000 1.882300 0.000000 
#    z 0.000000 0.000000 1.862430 
# 
# From -- ./inp_files/1262.got.cif
#   From: 2010.05.17/outbox.cif.g08.bks.cpg/sg172_1_cif.got.tgz:1262.got - 2010.05.20 11:19:57.
