data_PCOD9580551
_publ_section_title
;
Structure prediction by ZEFSAII (Michael W. Deem and Ramdas Pophale) SiO2 
 PCOD9580551
Probable space group: P 62
;
_chemical_formula_sum "Si O2"
_cell_formula_units_Z 48
_cell_length_a 18.604119
_cell_length_b 18.604119
_cell_length_c 6.857834
_cell_angle_alpha 90.000000
_cell_angle_beta 90.000000
_cell_angle_gamma 120.000000
_cell_volume 2055.586788
_symmetry_space_group_name_H-M "P 62"
_symmetry_group_IT_number 171
_symmetry_cell_setting 'hexagonal'
loop_
_space_group_symop_operation_xyz
x,y,z
x-y,x,1/3+z
-y,x-y,2/3+z
-x,-y,z
-x+y,-x,1/3+z
y,-x+y,2/3+z
loop_
_atom_site_type_symbol
_atom_site_label
_atom_site_fract_x
_atom_site_fract_y
_atom_site_fract_z
Si Si1 0.128094 0.291357 0.250000
Si Si2 0.311211 0.717541 0.225848
Si Si3 0.616487 0.555256 0.344290
Si Si4 0.434682 0.583756 0.038128
Si Si5 0.858291 0.649427 0.853281
Si Si6 0.257932 0.258007 0.212622
Si Si7 0.232809 0.456021 0.497878
Si Si8 0.907901 0.527148 0.973528
O O1 0.173004 0.240730 0.313354
O O2 0.036586 0.255271 0.334713
O O3 0.178998 0.380376 0.352132
O O4 0.155575 0.301272 0.022668
O O5 0.373185 0.700399 0.355011
O O6 0.220887 0.660985 0.327661
O O7 0.353509 0.816421 0.219631
O O8 0.432566 0.519125 0.193137
O O9 0.674704 0.642691 0.231437
O O10 0.674851 0.525617 0.452957
O O11 0.563326 0.575103 0.500297
O O12 0.482120 0.680137 0.109771
O O13 0.483553 0.581026 0.845282
O O14 0.922120 0.706031 0.691510
O O15 0.786268 0.578876 0.719860
O O16 0.899788 0.608776 0.989246
#
# Coordination Sequence:
#
# PCOD9580551 Si02
#       8
#     6   6   6   6   6   6   6   6
#     4  10  20  41  70 101 142 187 235 295 365 442
#     4  10  23  41  72 101 132 188 252 303 367 448
#     4  10  22  45  75 108 145 191 247 320 382 449
#     4  11  22  44  77 102 143 196 251 315 376 456
#     4  10  21  41  70  99 142 177 232 302 361 438
#     4   9  22  39  68 105 141 187 239 294 367 444
#     4  10  22  43  73 102 138 187 249 310 375 451
#     4  10  22  44  72 105 137 185 241 307 382 439
#
# _framework density 23.350995000000001
#
# number of rings (size 3 to 8) (size 9 to 14) (size 15 to 20)
#    0.000    2.000    1.250    1.500    3.500    4.000 
#    2.250    5.625   11.000    0.000    0.000    4.375 
#    0.000    0.000    0.000    0.000    0.000    0.000 
#
# Total GULP energy -267757.998437 kJ/mol
# GULP energy per Si atom -5578.291634 kJ/mol
# Density = 2.329785 g / cm^3
# Si number density = 23.350995 Si / 1000 Ang^3
#
#
#
# Elastic Constant Matrix: (Units=GPa)
#
#
# Indices 1 2 3 4 5 6 
#
# 1 110.8474 86.7981 62.8579 0.0000 0.0000 0.0000
# 2 86.7981 110.8474 62.8579 0.0000 0.0000 0.0000
# 3 62.8579 62.8579 149.4594 0.0000 0.0000 0.0000
# 4 0.0000 0.0000 0.0000 29.5693 0.0000 0.0000
# 5 0.0000 0.0000 0.0000 0.0000 29.5693 0.0000
# 6 0.0000 0.0000 0.0000 0.0000 0.0000 12.0247
#
#
#
# Elastic Compliance Matrix: (Units=1/GPa)
#
#
# Indices 1 2 3 4 5 6 
#
# 1 0.024244 -0.017337 -0.002905 0.000000 0.000000 0.000000
# 2 -0.017337 0.024244 -0.002905 0.000000 0.000000 0.000000
# 3 -0.002905 -0.002905 0.009134 0.000000 0.000000 0.000000
# 4 0.000000 0.000000 0.000000 0.033819 0.000000 0.000000
# 5 0.000000 0.000000 0.000000 0.000000 0.033819 0.000000
# 6 0.000000 0.000000 0.000000 0.000000 0.000000 0.083162
#
#
# Mechanical properties :
#
#
# Convention : Reuss Voigt Hill
#
# Bulk Modulus (GPa) = 88.26951 88.46465 88.36708
# Shear Modulus (GPa) = 19.34287 24.80869 22.07578
#
# Velocity S-wave (km/s) = 2.88123 3.26302 3.07805
# Velocity P-wave (km/s) = 6.99657 7.22242 7.11039
#
# Compressibility (1/GPa) = 0.01132894
#
# Stress axis : x y z
#
# Youngs Moduli (GPa) = 41.24682 41.24682 109.47756
#
# Poissons Ratio (x) = 0.71509 0.31803
# Poissons Ratio (y) = 0.71509 0.31803
# Poissons Ratio (z) = 0.11982 0.11982
#
# Static dielectric constant tensor:
#      x y z
#    x 1.968650 0.000000 0.000000 
#    y 0.000000 1.968650 0.000000 
#    z 0.000000 0.000000 1.977660 
# 
# From -- ./inp_files/836.got.cif
#   From: 2010.05.17/outbox.cif.g08.bks.cpg/sg171_1_cif.got.tgz:836.got - 2010.05.20 11:16:09.
