data_PCOD9580484
_publ_section_title
;
Structure prediction by ZEFSAII (Michael W. Deem and Ramdas Pophale) SiO2 
 PCOD9580484
Probable space group: P 62
;
_chemical_formula_sum "Si O2"
_cell_formula_units_Z 30
_cell_length_a 7.669980
_cell_length_b 7.669980
_cell_length_c 21.385219
_cell_angle_alpha 90.000000
_cell_angle_beta 90.000000
_cell_angle_gamma 120.000000
_cell_volume 1089.513954
_symmetry_space_group_name_H-M "P 62"
_symmetry_group_IT_number 171
_symmetry_cell_setting 'hexagonal'
loop_
_space_group_symop_operation_xyz
x,y,z
x-y,x,1/3+z
-y,x-y,2/3+z
-x,-y,z
-x+y,-x,1/3+z
y,-x+y,2/3+z
loop_
_atom_site_type_symbol
_atom_site_label
_atom_site_fract_x
_atom_site_fract_y
_atom_site_fract_z
Si Si1 0.186895 0.890712 0.420390
Si Si2 0.521483 0.822338 0.637683
Si Si3 0.287173 0.331712 0.421944
Si Si4 0.228954 0.112003 0.885361
Si Si5 0.713743 0.517144 0.561230
O O1 0.283017 0.833669 0.363981
O O2 0.948131 0.780463 0.399890
O O3 0.303073 0.131164 0.428494
O O4 0.688671 0.358124 0.260311
O O5 0.713500 0.944078 0.592669
O O6 0.926375 0.695021 0.585856
O O7 0.500000 0.000000 0.667153
O O8 0.184203 0.815161 0.490661
O O9 0.000000 0.000000 0.523808
O O10 0.841725 0.281415 0.820581
O O11 0.000000 0.500000 0.724737
O O12 0.500000 0.500000 0.580926
#
# Coordination Sequence:
#
# PCOD9580484 Si02
#       5
#     6   6   6   6   6
#     4  10  21  43  72 111 154 204 263 341 406 485
#     4  12  28  47  68 116 172 204 274 341 402 505
#     4   9  17  37  74 111 141 196 271 319 406 490
#     4  11  20  44  83 103 148 217 261 335 420 476
#     4  10  19  40  75 110 141 200 267 325 399 484
#
# _framework density 27.535214
#
# number of rings (size 3 to 8) (size 9 to 14) (size 15 to 20)
#    0.000    1.600    6.000    1.200    2.800    0.800 
#   14.400    1.000    0.000    0.000    0.000    0.000 
#    0.000    0.000    0.000    0.000    0.000    0.000 
#
# Total GULP energy -167388.383019 kJ/mol
# GULP energy per Si atom -5579.612767 kJ/mol
# Density = 2.747254 g / cm^3
# Si number density = 27.535214 Si / 1000 Ang^3
#
#
#
# Elastic Constant Matrix: (Units=GPa)
#
#
# Indices 1 2 3 4 5 6 
#
# 1 149.3891 46.7166 45.9116 0.0000 0.0000 0.0000
# 2 46.7166 149.3891 45.9116 0.0000 0.0000 0.0000
# 3 45.9116 45.9116 137.9197 0.0000 0.0000 0.0000
# 4 0.0000 0.0000 0.0000 23.3313 0.0000 0.0000
# 5 0.0000 0.0000 0.0000 0.0000 23.3313 0.0000
# 6 0.0000 0.0000 0.0000 0.0000 0.0000 51.3363
#
#
#
# Elastic Compliance Matrix: (Units=1/GPa)
#
#
# Indices 1 2 3 4 5 6 
#
# 1 0.007890 -0.001849 -0.002011 0.000000 0.000000 0.000000
# 2 -0.001849 0.007890 -0.002011 0.000000 0.000000 0.000000
# 3 -0.002011 -0.002011 0.008589 0.000000 0.000000 0.000000
# 4 0.000000 0.000000 0.000000 0.042861 0.000000 0.000000
# 5 0.000000 0.000000 0.000000 0.000000 0.042861 0.000000
# 6 0.000000 0.000000 0.000000 0.000000 0.000000 0.019479
#
#
# Mechanical properties :
#
#
# Convention : Reuss Voigt Hill
#
# Bulk Modulus (GPa) = 79.19249 79.30862 79.25055
# Shear Modulus (GPa) = 34.35888 39.47699 36.91794
#
# Velocity S-wave (km/s) = 3.53628 3.79052 3.66560
# Velocity P-wave (km/s) = 6.74511 6.92983 6.83809
#
# Compressibility (1/GPa) = 0.01262746
#
# Stress axis : x y z
#
# Youngs Moduli (GPa) = 126.73811 126.73811 116.42236
#
# Poissons Ratio (x) = 0.23439 0.23412
# Poissons Ratio (y) = 0.23439 0.23412
# Poissons Ratio (z) = 0.25486 0.25486
#
# Static dielectric constant tensor:
#      x y z
#    x 2.438820 0.000000 0.000000 
#    y 0.000000 2.438820 0.000000 
#    z 0.000000 0.000000 2.060310 
# 
# From -- ./inp_files/5678.got.cif
#   From: 2010.05.17/outbox.cif.g08.bks.cpg/sg171_3_cif.got.tgz:5678.got - 2010.05.20 11:16:09.
