data_PCOD9580654
_publ_section_title
;
Structure prediction by ZEFSAII (Michael W. Deem and Ramdas Pophale) SiO2 
 PCOD9580654
Probable space group: P 62
;
_chemical_formula_sum "Si O2"
_cell_formula_units_Z 27
_cell_length_a 13.058338
_cell_length_b 13.058338
_cell_length_c 8.002034
_cell_angle_alpha 90.000000
_cell_angle_beta 90.000000
_cell_angle_gamma 120.000000
_cell_volume 1181.698911
_symmetry_space_group_name_H-M "P 62"
_symmetry_group_IT_number 171
_symmetry_cell_setting 'hexagonal'
loop_
_space_group_symop_operation_xyz
x,y,z
x-y,x,1/3+z
-y,x-y,2/3+z
-x,-y,z
-x+y,-x,1/3+z
y,-x+y,2/3+z
loop_
_atom_site_type_symbol
_atom_site_label
_atom_site_fract_x
_atom_site_fract_y
_atom_site_fract_z
Si Si1 0.843900 0.625153 0.008200
Si Si2 0.733419 0.340651 0.457629
Si Si3 0.254560 0.306364 0.313121
Si Si4 0.500000 0.500000 0.199807
Si Si5 0.684306 0.878597 0.326474
O O1 0.792406 0.496301 0.084032
O O2 0.795534 0.686629 0.135013
O O3 0.788372 0.607147 0.823452
O O4 0.983670 0.710337 0.006090
O O5 0.660088 0.365274 0.319452
O O6 0.874773 0.429254 0.437008
O O7 0.396092 0.392968 0.304784
O O8 0.225378 0.172250 0.342058
O O9 0.208457 0.353800 0.465330
#
# Coordination Sequence:
#
# PCOD9580654 Si02
#       5
#     6   6   6   3   6
#     4  10  23  43  66  97 141 177 226 280 344 401
#     4  11  28  46  70 102 137 178 236 284 347 418
#     4  10  22  42  65  95 137 173 233 278 346 404
#     4  10  26  44  70  96 134 184 218 300 342 414
#     4  10  22  40  67  99 130 183 220 276 344 408
#
# _framework density 22.848458999999998
#
# number of rings (size 3 to 8) (size 9 to 14) (size 15 to 20)
#    0.000    1.778    0.000    1.333   18.667    0.000 
#    0.000   14.444    0.000    0.000    0.000    0.000 
#    0.000    0.000    0.000    0.000    0.000    0.000 
#
# Total GULP energy -150444.178599 kJ/mol
# GULP energy per Si atom -5572.006615 kJ/mol
# Density = 2.279646 g / cm^3
# Si number density = 22.848459 Si / 1000 Ang^3
#
#
#
# Elastic Constant Matrix: (Units=GPa)
#
#
# Indices 1 2 3 4 5 6 
#
# 1 69.5866 15.5651 21.6332 0.0000 0.0000 0.0000
# 2 15.5651 69.5866 21.6332 0.0000 0.0000 0.0000
# 3 21.6332 21.6332 129.4694 0.0000 0.0000 0.0000
# 4 0.0000 0.0000 0.0000 29.9957 0.0000 0.0000
# 5 0.0000 0.0000 0.0000 0.0000 29.9957 0.0000
# 6 0.0000 0.0000 0.0000 0.0000 0.0000 27.0107
#
#
#
# Elastic Compliance Matrix: (Units=1/GPa)
#
#
# Indices 1 2 3 4 5 6 
#
# 1 0.015672 -0.002839 -0.002144 0.000000 0.000000 0.000000
# 2 -0.002839 0.015672 -0.002144 0.000000 0.000000 0.000000
# 3 -0.002144 -0.002144 0.008440 0.000000 0.000000 0.000000
# 4 0.000000 0.000000 0.000000 0.033338 0.000000 0.000000
# 5 0.000000 0.000000 0.000000 0.000000 0.033338 0.000000
# 6 0.000000 0.000000 0.000000 0.000000 0.000000 0.037022
#
#
# Mechanical properties :
#
#
# Convention : Reuss Voigt Hill
#
# Bulk Modulus (GPa) = 39.17005 42.92284 41.04645
# Shear Modulus (GPa) = 30.07542 31.38780 30.73161
#
# Velocity S-wave (km/s) = 3.63202 3.71042 3.67143
# Velocity P-wave (km/s) = 5.89656 6.09778 5.99801
#
# Compressibility (1/GPa) = 0.02552971
#
# Stress axis : x y z
#
# Youngs Moduli (GPa) = 63.80709 63.80709 118.47733
#
# Poissons Ratio (x) = 0.18114 0.25405
# Poissons Ratio (y) = 0.18114 0.25405
# Poissons Ratio (z) = 0.13682 0.13682
#
# Static dielectric constant tensor:
#      x y z
#    x 1.886590 0.000000 0.000000 
#    y 0.000000 1.886590 0.000000 
#    z 0.000000 0.000000 1.930030 
# 
# From -- ./inp_files/1084.got.cif
#   From: 2010.05.17/outbox.cif.g08.bks.cpg/sg171_1_cif.got.tgz:1084.got - 2010.05.20 11:16:09.
