data_PCOD9580829
_publ_section_title
;
Structure prediction by ZEFSAII (Michael W. Deem and Ramdas Pophale) SiO2 
 PCOD9580829
Probable space group: P 62
;
_chemical_formula_sum "Si O2"
_cell_formula_units_Z 39
_cell_length_a 20.812062
_cell_length_b 20.812062
_cell_length_c 4.743484
_cell_angle_alpha 90.000000
_cell_angle_beta 90.000000
_cell_angle_gamma 120.000000
_cell_volume 1779.337344
_symmetry_space_group_name_H-M "P 62"
_symmetry_group_IT_number 171
_symmetry_cell_setting 'hexagonal'
loop_
_space_group_symop_operation_xyz
x,y,z
x-y,x,1/3+z
-y,x-y,2/3+z
-x,-y,z
-x+y,-x,1/3+z
y,-x+y,2/3+z
loop_
_atom_site_type_symbol
_atom_site_label
_atom_site_fract_x
_atom_site_fract_y
_atom_site_fract_z
Si Si1 0.724932 0.578480 0.574160
Si Si2 0.373359 0.875341 0.023048
Si Si3 0.198038 0.250981 0.484693
Si Si4 0.146437 0.421509 0.202635
Si Si5 0.875333 0.373360 0.420406
Si Si6 0.947069 0.749026 0.292234
Si Si7 0.000000 0.500000 0.055072
O O1 0.761899 0.666284 0.621788
O O2 0.783021 0.566033 0.388394
O O3 0.658256 0.554139 0.355848
O O4 0.691890 0.528592 0.853270
O O5 0.308102 0.836717 0.256830
O O6 0.433009 0.946488 0.188868
O O7 0.341754 0.895895 0.754255
O O8 0.418515 0.837036 0.888403
O O9 0.242951 0.242955 0.221803
O O10 0.118049 0.236106 0.388461
O O11 0.195704 0.195713 0.721807
O O12 0.095598 0.333703 0.155088
O O13 0.946483 0.433009 0.254598
#
# Coordination Sequence:
#
# PCOD9580829 Si02
#       7
#     6   6   6   6   6   6   3
#     4  11  25  42  65  97 133 177 222 272 340 410
#     4  12  24  40  63  96 135 171 217 275 336 401
#     4  11  24  41  66  97 134 177 222 273 339 408
#     4  11  25  42  65  97 133 177 222 272 340 410
#     4  12  24  40  63  96 135 171 217 275 336 401
#     4  11  24  41  66  97 134 177 222 273 339 408
#     4  12  26  36  62 104 130 168 222 256 360 388
#
# _framework density 21.918274
#
# number of rings (size 3 to 8) (size 9 to 14) (size 15 to 20)
#    0.000    0.615    3.077    4.154    6.462    4.923 
#    0.000    0.000    0.000    8.308    4.000    0.000 
#    0.000    0.000    0.000    0.000    0.000    0.000 
#
# Total GULP energy -217865.251214 kJ/mol
# GULP energy per Si atom -5586.288493 kJ/mol
# Density = 2.186839 g / cm^3
# Si number density = 21.918274 Si / 1000 Ang^3
#
#
#
# Elastic Constant Matrix: (Units=GPa)
#
#
# Indices 1 2 3 4 5 6 
#
# 1 106.2271 54.7749 48.3591 0.0000 0.0000 0.0000
# 2 54.7749 106.2271 48.3591 0.0000 0.0000 0.0000
# 3 48.3591 48.3591 148.1178 0.0000 0.0000 0.0000
# 4 0.0000 0.0000 0.0000 38.2985 0.0000 0.0000
# 5 0.0000 0.0000 0.0000 0.0000 38.2985 0.0000
# 6 0.0000 0.0000 0.0000 0.0000 0.0000 25.7261
#
#
#
# Elastic Compliance Matrix: (Units=1/GPa)
#
#
# Indices 1 2 3 4 5 6 
#
# 1 0.013581 -0.005854 -0.002523 0.000000 0.000000 0.000000
# 2 -0.005854 0.013581 -0.002523 0.000000 0.000000 0.000000
# 3 -0.002523 -0.002523 0.008399 0.000000 0.000000 0.000000
# 4 0.000000 0.000000 0.000000 0.026111 0.000000 0.000000
# 5 0.000000 0.000000 0.000000 0.000000 0.026111 0.000000
# 6 0.000000 0.000000 0.000000 0.000000 0.000000 0.038871
#
#
# Mechanical properties :
#
#
# Convention : Reuss Voigt Hill
#
# Bulk Modulus (GPa) = 72.66856 73.72868 73.19862
# Shear Modulus (GPa) = 32.67128 34.40322 33.53725
#
# Velocity S-wave (km/s) = 3.86501 3.96613 3.91590
# Velocity P-wave (km/s) = 7.29000 7.39491 7.34264
#
# Compressibility (1/GPa) = 0.01376111
#
# Stress axis : x y z
#
# Youngs Moduli (GPa) = 73.63219 73.63219 119.06720
#
# Poissons Ratio (x) = 0.43108 0.30036
# Poissons Ratio (y) = 0.43108 0.30036
# Poissons Ratio (z) = 0.18575 0.18575
#
# Static dielectric constant tensor:
#      x y z
#    x 1.851650 0.000000 0.000000 
#    y 0.000000 1.851650 0.000000 
#    z 0.000000 0.000000 1.837420 
# 
# From -- ./inp_files/453.got.cif
#   From: 2010.05.17/outbox.cif.g08.bks.cpg/sg171_1_cif.got.tgz:453.got - 2010.05.20 11:16:09.
