data_PCOD9580735
_publ_section_title
;
Structure prediction by ZEFSAII (Michael W. Deem and Ramdas Pophale) SiO2 
 PCOD9580735
Probable space group: P 62
;
_chemical_formula_sum "Si O2"
_cell_formula_units_Z 39
_cell_length_a 11.961214
_cell_length_b 11.961214
_cell_length_c 13.242927
_cell_angle_alpha 90.000000
_cell_angle_beta 90.000000
_cell_angle_gamma 120.000000
_cell_volume 1640.835856
_symmetry_space_group_name_H-M "P 62"
_symmetry_group_IT_number 171
_symmetry_cell_setting 'hexagonal'
loop_
_space_group_symop_operation_xyz
x,y,z
x-y,x,1/3+z
-y,x-y,2/3+z
-x,-y,z
-x+y,-x,1/3+z
y,-x+y,2/3+z
loop_
_atom_site_type_symbol
_atom_site_label
_atom_site_fract_x
_atom_site_fract_y
_atom_site_fract_z
Si Si1 0.378104 0.862624 0.675510
Si Si2 0.286960 0.879331 0.166782
Si Si3 0.783776 0.026410 0.775709
Si Si4 0.247980 0.601950 0.134170
Si Si5 0.773158 0.020856 0.998920
Si Si6 0.048504 0.158097 0.935905
Si Si7 0.500000 0.500000 0.657978
O O1 0.295019 0.904962 0.742653
O O2 0.408693 0.767136 0.740248
O O3 0.313676 0.792791 0.570818
O O4 0.500000 0.000000 0.646749
O O5 0.289742 0.747537 0.168895
O O6 0.149659 0.870503 0.193741
O O7 0.387104 0.977255 0.247181
O O8 0.315800 0.933814 0.053045
O O9 0.736733 0.965296 0.886008
O O10 0.928868 0.141786 0.747819
O O11 0.785126 0.924617 0.699886
O O12 0.125471 0.561687 0.061912
O O13 0.912133 0.139684 0.970081
O O14 0.000000 0.000000 0.914063
#
# Coordination Sequence:
#
# PCOD9580735 Si02
#       7
#     6   6   6   6   6   6   3
#     4  12  29  53  77 115 157 210 269 343 405 483
#     4  12  26  48  79 106 158 205 260 329 394 479
#     4  11  27  44  75 110 157 200 254 319 399 463
#     4  12  28  51  81 113 155 210 277 329 407 497
#     4  11  25  44  71 117 153 196 251 316 395 473
#     4  10  24  44  74 115 155 201 253 323 394 483
#     4  12  28  50  80 116 154 214 268 330 412 488
#
# _framework density 23.768376
#
# number of rings (size 3 to 8) (size 9 to 14) (size 15 to 20)
#    0.000    0.615    3.846    1.846   10.769    0.000 
#    1.385    0.000    0.000    0.000    0.000    0.000 
#    0.000    0.000    0.000    0.000    0.000    0.000 
#
# Total GULP energy -217422.846671 kJ/mol
# GULP energy per Si atom -5574.944786 kJ/mol
# Density = 2.371428 g / cm^3
# Si number density = 23.768376 Si / 1000 Ang^3
#
#
#
# Elastic Constant Matrix: (Units=GPa)
#
#
# Indices 1 2 3 4 5 6 
#
# 1 66.4742 29.1093 24.6411 0.0000 0.0000 0.0000
# 2 29.1093 66.4742 24.6411 0.0000 0.0000 0.0000
# 3 24.6411 24.6411 108.2026 0.0000 0.0000 0.0000
# 4 0.0000 0.0000 0.0000 35.5959 0.0000 0.0000
# 5 0.0000 0.0000 0.0000 0.0000 35.5959 0.0000
# 6 0.0000 0.0000 0.0000 0.0000 0.0000 18.6824
#
#
#
# Elastic Compliance Matrix: (Units=1/GPa)
#
#
# Indices 1 2 3 4 5 6 
#
# 1 0.019308 -0.007455 -0.002699 0.000000 0.000000 0.000000
# 2 -0.007455 0.019308 -0.002699 0.000000 0.000000 0.000000
# 3 -0.002699 -0.002699 0.010471 0.000000 0.000000 0.000000
# 4 0.000000 0.000000 0.000000 0.028093 0.000000 0.000000
# 5 0.000000 0.000000 0.000000 0.000000 0.028093 0.000000
# 6 0.000000 0.000000 0.000000 0.000000 0.000000 0.053526
#
#
# Mechanical properties :
#
#
# Convention : Reuss Voigt Hill
#
# Bulk Modulus (GPa) = 42.76935 44.21489 43.49212
# Shear Modulus (GPa) = 26.00079 28.82547 27.41313
#
# Velocity S-wave (km/s) = 3.31104 3.48626 3.39978
# Velocity P-wave (km/s) = 5.71407 5.90323 5.80942
#
# Compressibility (1/GPa) = 0.02338123
#
# Stress axis : x y z
#
# Youngs Moduli (GPa) = 51.79070 51.79070 95.49786
#
# Poissons Ratio (x) = 0.38608 0.25780
# Poissons Ratio (y) = 0.38608 0.25780
# Poissons Ratio (z) = 0.13981 0.13981
#
# Static dielectric constant tensor:
#      x y z
#    x 1.936270 0.000000 0.000000 
#    y 0.000000 1.936270 0.000000 
#    z 0.000000 0.000000 2.045530 
# 
# From -- ./inp_files/1998.got.cif
#   From: 2010.05.17/outbox.cif.g08.bks.cpg/sg171_1_cif.got.tgz:1998.got - 2010.05.20 11:16:09.
