data_PCOD9580333
_publ_section_title
;
Structure prediction by ZEFSAII (Michael W. Deem and Ramdas Pophale) SiO2 
 PCOD9580333
Probable space group: P 65
;
_chemical_formula_sum "Si O2"
_cell_formula_units_Z 24
_cell_length_a 11.348807
_cell_length_b 11.348807
_cell_length_c 9.107292
_cell_angle_alpha 90.000000
_cell_angle_beta 90.000000
_cell_angle_gamma 120.000000
_cell_volume 1015.828314
_symmetry_space_group_name_H-M "P 65"
_symmetry_group_IT_number 170
_symmetry_cell_setting 'hexagonal'
loop_
_space_group_symop_operation_xyz
x,y,z
x-y,x,5/6+z
-y,x-y,2/3+z
-x,-y,1/2+z
-x+y,-x,1/3+z
y,-x+y,1/6+z
loop_
_atom_site_type_symbol
_atom_site_label
_atom_site_fract_x
_atom_site_fract_y
_atom_site_fract_z
Si Si1 0.823154 0.086423 0.369100
Si Si2 0.085135 0.732284 0.586379
Si Si3 0.049213 0.460786 0.714525
Si Si4 0.191842 0.418866 0.972442
O O1 0.878639 0.162452 0.215723
O O2 0.698962 0.106820 0.418306
O O3 0.932312 0.151946 0.498765
O O4 0.039703 0.587978 0.660528
O O5 0.210111 0.765987 0.477468
O O6 0.956982 0.717916 0.492819
O O7 0.903222 0.325522 0.742271
O O8 0.144566 0.496885 0.859563
#
# Coordination Sequence:
#
# PCOD9580333 Si02
#       4
#     6   6   6   6
#     4  12  26  47  70 108 145 186 246 308 358 438
#     4  11  25  47  71 107 148 189 249 301 369 445
#     4  11  25  47  71 107 148 189 249 301 369 445
#     4  10  24  45  74 100 147 192 232 302 368 436
#
# _framework density 23.62604
#
# number of rings (size 3 to 8) (size 9 to 14) (size 15 to 20)
#    0.000    1.000    5.000    0.000    7.000    2.000 
#   13.500    0.000    0.000    0.000    0.000    0.000 
#    0.000    0.000    0.000    0.000    0.000    0.000 
#
# Total GULP energy -133854.516917 kJ/mol
# GULP energy per Si atom -5577.271538 kJ/mol
# Density = 2.357227 g / cm^3
# Si number density = 23.626040 Si / 1000 Ang^3
#
#
#
# Elastic Constant Matrix: (Units=GPa)
#
#
# Indices 1 2 3 4 5 6 
#
# 1 82.8345 36.3685 20.6421 0.0000 0.0000 0.0000
# 2 36.3685 82.8345 20.6421 0.0000 0.0000 0.0000
# 3 20.6421 20.6421 86.3847 0.0000 0.0000 0.0000
# 4 0.0000 0.0000 0.0000 27.4899 0.0000 0.0000
# 5 0.0000 0.0000 0.0000 0.0000 27.4899 0.0000
# 6 0.0000 0.0000 0.0000 0.0000 0.0000 23.2330
#
#
#
# Elastic Compliance Matrix: (Units=1/GPa)
#
#
# Indices 1 2 3 4 5 6 
#
# 1 0.015334 -0.006188 -0.002185 0.000000 0.000000 0.000000
# 2 -0.006188 0.015334 -0.002185 0.000000 0.000000 0.000000
# 3 -0.002185 -0.002185 0.012621 0.000000 0.000000 0.000000
# 4 0.000000 0.000000 0.000000 0.036377 0.000000 0.000000
# 5 0.000000 0.000000 0.000000 0.000000 0.036377 0.000000
# 6 0.000000 0.000000 0.000000 0.000000 0.000000 0.043042
#
#
# Mechanical properties :
#
#
# Convention : Reuss Voigt Hill
#
# Bulk Modulus (GPa) = 45.10482 45.26216 45.18349
# Shear Modulus (GPa) = 26.65371 27.26929 26.96150
#
# Velocity S-wave (km/s) = 3.36244 3.40104 3.38180
# Velocity P-wave (km/s) = 5.84870 5.88406 5.86640
#
# Compressibility (1/GPa) = 0.02217058
#
# Stress axis : x y z
#
# Youngs Moduli (GPa) = 65.21653 65.21653 79.23560
#
# Poissons Ratio (x) = 0.40353 0.17317
# Poissons Ratio (y) = 0.40353 0.17317
# Poissons Ratio (z) = 0.14253 0.14253
#
# Static dielectric constant tensor:
#      x y z
#    x 1.910820 0.000000 0.000000 
#    y 0.000000 1.910820 0.000000 
#    z 0.000000 0.000000 1.926990 
# 
# From -- ./inp_files/445.got.cif
#   From: 2010.05.17/outbox.cif.g08.bks.cpg/sg170_cif.got.tgz:445.got - 2010.05.20 11:14:30.
