data_PCOD9580965
_publ_section_title
;
Structure prediction by ZEFSAII (Michael W. Deem and Ramdas Pophale) SiO2 
 PCOD9580965
Probable space group: P 64
;
_chemical_formula_sum "Si O2"
_cell_formula_units_Z 45
_cell_length_a 11.056025
_cell_length_b 11.056025
_cell_length_c 17.260082
_cell_angle_alpha 90.000000
_cell_angle_beta 90.000000
_cell_angle_gamma 120.000000
_cell_volume 1827.138675
_symmetry_space_group_name_H-M "P 64"
_symmetry_group_IT_number 172
_symmetry_cell_setting 'hexagonal'
loop_
_space_group_symop_operation_xyz
x,y,z
x-y,x,2/3+z
-y,x-y,1/3+z
-x,-y,z
-x+y,-x,2/3+z
y,-x+y,1/3+z
loop_
_atom_site_type_symbol
_atom_site_label
_atom_site_fract_x
_atom_site_fract_y
_atom_site_fract_z
Si Si1 0.844406 0.643234 0.058990
Si Si2 0.912412 0.060093 0.008468
Si Si3 0.437884 0.161571 0.225075
Si Si4 0.500000 0.000000 0.738089
Si Si5 0.778128 0.219416 0.996900
Si Si6 0.782202 0.117353 0.409030
Si Si7 0.563432 0.706421 0.839833
Si Si8 0.146596 0.642551 0.282204
O O1 0.889028 0.544198 0.105463
O O2 0.715159 0.668637 0.076131
O O3 0.977609 0.801092 0.054552
O O4 0.798032 0.579757 0.972689
O O5 0.826230 0.116168 0.960078
O O6 0.804851 0.933421 0.062573
O O7 0.000000 0.000000 0.965119
O O8 0.412633 0.239337 0.155693
O O9 0.577766 0.156993 0.206313
O O10 0.315571 0.998585 0.211808
O O11 0.459014 0.092922 0.685449
O O12 0.708385 0.146755 0.080370
O O13 0.669872 0.244203 0.950027
O O14 0.796069 0.232145 0.345078
O O15 0.564974 0.844365 0.869519
O O16 0.000000 0.500000 0.295413
#
# Coordination Sequence:
#
# PCOD9580965 Si02
#       8
#     6   6   6   3   6   6   6   6
#     4  10  22  42  63  93 130 179 225 275 339 414
#     4   9  19  36  62  85 123 168 220 268 339 389
#     4  11  21  40  65  94 133 171 225 282 340 415
#     4  10  24  44  66  82 138 184 212 276 354 402
#     4  11  21  41  63  92 129 176 218 277 340 405
#     4  11  20  40  65  99 127 173 231 279 345 402
#     4  11  23  36  64 100 129 171 224 273 343 414
#     4  12  22  38  67 100 133 170 222 285 335 406
#
# _framework density 24.628674
#
# number of rings (size 3 to 8) (size 9 to 14) (size 15 to 20)
#    0.000    1.333    5.333    0.800    0.933    0.000 
#    0.000   14.000    0.000    0.000    0.000    0.000 
#    0.000    0.000    0.000    0.000    0.000    0.000 
#
# Total GULP energy -251028.888762 kJ/mol
# GULP energy per Si atom -5578.419750 kJ/mol
# Density = 2.457262 g / cm^3
# Si number density = 24.628674 Si / 1000 Ang^3
#
#
#
# Elastic Constant Matrix: (Units=GPa)
#
#
# Indices 1 2 3 4 5 6 
#
# 1 126.4191 25.6705 14.2374 0.0000 0.0000 0.0000
# 2 25.6705 126.4191 14.2374 0.0000 0.0000 0.0000
# 3 14.2374 14.2374 60.7126 0.0000 0.0000 0.0000
# 4 0.0000 0.0000 0.0000 16.8548 0.0000 0.0000
# 5 0.0000 0.0000 0.0000 0.0000 16.8548 0.0000
# 6 0.0000 0.0000 0.0000 0.0000 0.0000 50.3743
#
#
#
# Elastic Compliance Matrix: (Units=1/GPa)
#
#
# Indices 1 2 3 4 5 6 
#
# 1 0.008401 -0.001524 -0.001613 0.000000 0.000000 0.000000
# 2 -0.001524 0.008401 -0.001613 0.000000 0.000000 0.000000
# 3 -0.001613 -0.001613 0.017227 0.000000 0.000000 0.000000
# 4 0.000000 0.000000 0.000000 0.059330 0.000000 0.000000
# 5 0.000000 0.000000 0.000000 0.000000 0.059330 0.000000
# 6 0.000000 0.000000 0.000000 0.000000 0.000000 0.019851
#
#
# Mechanical properties :
#
#
# Convention : Reuss Voigt Hill
#
# Bulk Modulus (GPa) = 40.76532 46.87127 43.81830
# Shear Modulus (GPa) = 26.28559 34.11049 30.19804
#
# Velocity S-wave (km/s) = 3.27046 3.72558 3.50542
# Velocity P-wave (km/s) = 5.55420 6.13018 5.84929
#
# Compressibility (1/GPa) = 0.02453065
#
# Stress axis : x y z
#
# Youngs Moduli (GPa) = 119.02851 119.02851 58.04703
#
# Poissons Ratio (x) = 0.18144 0.09361
# Poissons Ratio (y) = 0.18144 0.09361
# Poissons Ratio (z) = 0.19196 0.19196
#
# Static dielectric constant tensor:
#      x y z
#    x 2.085600 0.000000 0.000000 
#    y 0.000000 2.085600 0.000000 
#    z 0.000000 0.000000 1.927530 
# 
# From -- ./inp_files/1735.got.cif
#   From: 2010.05.17/outbox.cif.g08.bks.cpg/sg172_1_cif.got.tgz:1735.got - 2010.05.20 11:19:57.
