data_PCOD9580733
_publ_section_title
;
Structure prediction by ZEFSAII (Michael W. Deem and Ramdas Pophale) SiO2 
 PCOD9580733
Probable space group: P 62
;
_chemical_formula_sum "Si O2"
_cell_formula_units_Z 42
_cell_length_a 11.783163
_cell_length_b 11.783163
_cell_length_c 14.146627
_cell_angle_alpha 90.000000
_cell_angle_beta 90.000000
_cell_angle_gamma 120.000000
_cell_volume 1701.011718
_symmetry_space_group_name_H-M "P 62"
_symmetry_group_IT_number 171
_symmetry_cell_setting 'hexagonal'
loop_
_space_group_symop_operation_xyz
x,y,z
x-y,x,1/3+z
-y,x-y,2/3+z
-x,-y,z
-x+y,-x,1/3+z
y,-x+y,2/3+z
loop_
_atom_site_type_symbol
_atom_site_label
_atom_site_fract_x
_atom_site_fract_y
_atom_site_fract_z
Si Si1 0.359383 0.490596 0.169610
Si Si2 0.534850 0.785924 0.174742
Si Si3 0.855982 0.124365 0.018161
Si Si4 0.149119 0.467455 0.843180
Si Si5 0.588029 0.957036 0.558817
Si Si6 0.697774 0.841035 0.986736
Si Si7 0.109899 0.374403 0.050316
O O1 0.500000 0.500000 0.164564
O O2 0.410569 0.641887 0.189437
O O3 0.265868 0.399228 0.253228
O O4 0.261745 0.434578 0.079566
O O5 0.627864 0.826486 0.266627
O O6 0.455893 0.861893 0.151508
O O7 0.624467 0.793263 0.086793
O O8 0.827191 0.981118 0.991497
O O9 0.746844 0.098305 0.099162
O O10 0.005494 0.218724 0.050259
O O11 0.294089 0.485739 0.859484
O O12 0.095430 0.424057 0.948742
O O13 0.728221 0.009008 0.608568
O O14 0.631202 0.050832 0.467297
O O15 0.500000 0.000000 0.617479
#
# Coordination Sequence:
#
# PCOD9580733 Si02
#       7
#     6   6   6   6   6   6   6
#     4  11  24  44  71 111 148 186 253 313 381 449
#     4  12  26  40  74 109 150 192 245 315 382 450
#     4  11  25  48  65 107 149 193 252 304 375 464
#     4  11  25  41  69 101 144 188 241 300 373 436
#     4  10  24  44  67 104 145 187 247 301 369 447
#     4  11  25  45  72 102 151 196 239 314 372 460
#     4  10  25  42  71 102 148 196 242 307 375 458
#
# _framework density 24.691189000000001
#
# number of rings (size 3 to 8) (size 9 to 14) (size 15 to 20)
#    0.000    1.143    1.429    3.429   12.000    1.143 
#    0.000    0.714    0.000    3.429    0.000    0.000 
#    0.000    0.000    0.000    0.000    0.000    0.000 
#
# Total GULP energy -234734.963691 kJ/mol
# GULP energy per Si atom -5588.927707 kJ/mol
# Density = 2.463499 g / cm^3
# Si number density = 24.691189 Si / 1000 Ang^3
#
#
#
# Elastic Constant Matrix: (Units=GPa)
#
#
# Indices 1 2 3 4 5 6 
#
# 1 94.2820 18.0900 -12.4655 0.0000 0.0000 0.0000
# 2 18.0900 94.2820 -12.4655 0.0000 0.0000 0.0000
# 3 -12.4655 -12.4655 93.6221 0.0000 0.0000 0.0000
# 4 0.0000 0.0000 0.0000 24.5504 0.0000 0.0000
# 5 0.0000 0.0000 0.0000 0.0000 24.5504 0.0000
# 6 0.0000 0.0000 0.0000 0.0000 0.0000 38.0960
#
#
#
# Elastic Compliance Matrix: (Units=1/GPa)
#
#
# Indices 1 2 3 4 5 6 
#
# 1 0.011147 -0.001977 0.001221 0.000000 0.000000 0.000000
# 2 -0.001977 0.011147 0.001221 0.000000 0.000000 0.000000
# 3 0.001221 0.001221 0.011006 0.000000 0.000000 0.000000
# 4 0.000000 0.000000 0.000000 0.040733 0.000000 0.000000
# 5 0.000000 0.000000 0.000000 0.000000 0.040733 0.000000
# 6 0.000000 0.000000 0.000000 0.000000 0.000000 0.026249
#
#
# Mechanical properties :
#
#
# Convention : Reuss Voigt Hill
#
# Bulk Modulus (GPa) = 29.21420 29.83379 29.52399
# Shear Modulus (GPa) = 33.00404 36.70783 34.85594
#
# Velocity S-wave (km/s) = 3.66002 3.85993 3.76130
# Velocity P-wave (km/s) = 5.45147 5.65459 5.55396
#
# Compressibility (1/GPa) = 0.03422993
#
# Stress axis : x y z
#
# Youngs Moduli (GPa) = 89.70766 89.70766 90.85648
#
# Poissons Ratio (x) = 0.17739 -0.11093
# Poissons Ratio (y) = 0.17739 -0.11093
# Poissons Ratio (z) = -0.10953 -0.10953
#
# Static dielectric constant tensor:
#      x y z
#    x 2.025040 0.000000 0.000000 
#    y 0.000000 2.025040 0.000000 
#    z 0.000000 0.000000 1.973230 
# 
# From -- ./inp_files/2494.got.cif
#   From: 2010.05.17/outbox.cif.g08.bks.cpg/sg171_2_cif.got.tgz:2494.got - 2010.05.20 11:16:09.
