data_PCOD9580706
_publ_section_title
;
Structure prediction by ZEFSAII (Michael W. Deem and Ramdas Pophale) SiO2 
 PCOD9580706
Probable space group: P 62
;
_chemical_formula_sum "Si O2"
_cell_formula_units_Z 45
_cell_length_a 12.083628
_cell_length_b 12.083628
_cell_length_c 14.595266
_cell_angle_alpha 90.000000
_cell_angle_beta 90.000000
_cell_angle_gamma 120.000000
_cell_volume 1845.598973
_symmetry_space_group_name_H-M "P 62"
_symmetry_group_IT_number 171
_symmetry_cell_setting 'hexagonal'
loop_
_space_group_symop_operation_xyz
x,y,z
x-y,x,1/3+z
-y,x-y,2/3+z
-x,-y,z
-x+y,-x,1/3+z
y,-x+y,2/3+z
loop_
_atom_site_type_symbol
_atom_site_label
_atom_site_fract_x
_atom_site_fract_y
_atom_site_fract_z
Si Si1 0.906037 0.556428 0.066700
Si Si2 0.000000 0.500000 0.353317
Si Si3 0.911399 0.696794 0.732368
Si Si4 0.977982 0.706539 0.251953
Si Si5 0.236169 0.626238 0.474865
Si Si6 0.601381 0.149593 0.145083
Si Si7 0.021502 0.229409 0.928861
Si Si8 0.127011 0.693510 0.643142
O O1 0.761568 0.448782 0.088047
O O2 0.000000 0.500000 0.071855
O O3 0.946636 0.664748 0.145919
O O4 0.927060 0.628315 0.970143
O O5 0.961441 0.375477 0.292163
O O6 0.876615 0.475482 0.410570
O O7 0.821274 0.565433 0.788037
O O8 0.857272 0.762862 0.664567
O O9 0.002864 0.778413 0.818511
O O10 0.981600 0.644812 0.666957
O O11 0.844845 0.657058 0.302946
O O12 0.066894 0.856268 0.267236
O O13 0.337656 0.603089 0.533686
O O14 0.152433 0.649930 0.548470
O O15 0.500000 0.000000 0.167322
O O16 0.538871 0.176446 0.055136
#
# Coordination Sequence:
#
# PCOD9580706 Si02
#       8
#     6   3   6   6   6   6   6   6
#     4  11  23  41  73 108 147 200 253 325 389 474
#     4  12  22  38  72 110 146 192 252 318 378 462
#     4  11  27  47  74 107 156 201 256 319 396 476
#     4  11  23  45  70 106 150 189 261 316 390 467
#     4  11  24  39  72 110 144 198 254 318 390 458
#     4  10  23  44  67 104 152 200 247 318 389 470
#     4  12  25  47  73 109 153 203 259 325 397 486
#     4  10  25  46  70 105 149 198 255 316 383 474
#
# _framework density 24.382327
#
# number of rings (size 3 to 8) (size 9 to 14) (size 15 to 20)
#    0.000    1.067    4.667    0.800    2.800    6.400 
#    0.000    1.333    0.000    0.000    0.000    0.000 
#    0.000    0.000    0.000    0.000    0.000    0.000 
#
# Total GULP energy -251185.812751 kJ/mol
# GULP energy per Si atom -5581.906950 kJ/mol
# Density = 2.432683 g / cm^3
# Si number density = 24.382327 Si / 1000 Ang^3
#
#
#
# Elastic Constant Matrix: (Units=GPa)
#
#
# Indices 1 2 3 4 5 6 
#
# 1 90.2676 14.9897 36.5194 0.0000 0.0000 0.0000
# 2 14.9897 90.2676 36.5194 0.0000 0.0000 0.0000
# 3 36.5194 36.5194 95.0548 0.0000 0.0000 0.0000
# 4 0.0000 0.0000 0.0000 29.4581 0.0000 0.0000
# 5 0.0000 0.0000 0.0000 0.0000 29.4581 0.0000
# 6 0.0000 0.0000 0.0000 0.0000 0.0000 37.6390
#
#
#
# Elastic Compliance Matrix: (Units=1/GPa)
#
#
# Indices 1 2 3 4 5 6 
#
# 1 0.013119 -0.000165 -0.004977 0.000000 0.000000 0.000000
# 2 -0.000165 0.013119 -0.004977 0.000000 0.000000 0.000000
# 3 -0.004977 -0.004977 0.014344 0.000000 0.000000 0.000000
# 4 0.000000 0.000000 0.000000 0.033947 0.000000 0.000000
# 5 0.000000 0.000000 0.000000 0.000000 0.033947 0.000000
# 6 0.000000 0.000000 0.000000 0.000000 0.000000 0.026568
#
#
# Mechanical properties :
#
#
# Convention : Reuss Voigt Hill
#
# Bulk Modulus (GPa) = 49.15206 50.18299 49.66753
# Shear Modulus (GPa) = 30.85223 31.81514 31.33368
#
# Velocity S-wave (km/s) = 3.56104 3.61618 3.58872
# Velocity P-wave (km/s) = 6.09185 6.16945 6.13077
#
# Compressibility (1/GPa) = 0.02034503
#
# Stress axis : x y z
#
# Youngs Moduli (GPa) = 76.22504 76.22504 69.71370
#
# Poissons Ratio (x) = 0.01258 0.34695
# Poissons Ratio (y) = 0.01258 0.34695
# Poissons Ratio (z) = 0.37936 0.37936
#
# Static dielectric constant tensor:
#      x y z
#    x 2.063120 0.000000 0.000000 
#    y 0.000000 2.063120 0.000000 
#    z 0.000000 0.000000 2.046280 
# 
# From -- ./inp_files/3032.got.cif
#   From: 2010.05.17/outbox.cif.g08.bks.cpg/sg171_2_cif.got.tgz:3032.got - 2010.05.20 11:16:09.
