data_PCOD9580434
_publ_section_title
;
Structure prediction by ZEFSAII (Michael W. Deem and Ramdas Pophale) SiO2 
 PCOD9580434
Probable space group: P 62
;
_chemical_formula_sum "Si O2"
_cell_formula_units_Z 30
_cell_length_a 9.368987
_cell_length_b 9.368987
_cell_length_c 21.006417
_cell_angle_alpha 90.000000
_cell_angle_beta 90.000000
_cell_angle_gamma 120.000000
_cell_volume 1596.863841
_symmetry_space_group_name_H-M "P 62"
_symmetry_group_IT_number 171
_symmetry_cell_setting 'hexagonal'
loop_
_space_group_symop_operation_xyz
x,y,z
x-y,x,1/3+z
-y,x-y,2/3+z
-x,-y,z
-x+y,-x,1/3+z
y,-x+y,2/3+z
loop_
_atom_site_type_symbol
_atom_site_label
_atom_site_fract_x
_atom_site_fract_y
_atom_site_fract_z
Si Si1 0.560352 0.881876 0.644770
Si Si2 0.098195 0.190670 0.248361
Si Si3 0.726029 0.289564 0.541050
Si Si4 0.185913 0.587706 0.075938
Si Si5 0.119033 0.435132 0.646528
O O1 0.437539 0.812787 0.584090
O O2 0.528887 0.741052 0.694136
O O3 0.500000 0.000000 0.676380
O O4 0.745770 0.972355 0.620709
O O5 0.194774 0.361743 0.206334
O O6 0.245036 0.214959 0.294892
O O7 0.000000 0.000000 0.223278
O O8 0.675313 0.302720 0.469962
O O9 0.816294 0.458688 0.581029
O O10 0.000000 0.500000 0.100775
O O11 0.224069 0.741941 0.032058
O O12 0.000000 0.500000 0.672754
#
# Coordination Sequence:
#
# PCOD9580434 Si02
#       5
#     6   6   6   6   6
#     4   9  19  35  54  75 106 143 176 214 268 324
#     4  10  18  34  56  80 107 134 174 230 273 302
#     4   9  20  38  55  74 107 149 180 209 262 332
#     4  11  20  35  57  80 106 142 182 217 263 322
#     4   9  20  38  57  79 110 144 180 220 265 320
#
# _framework density 18.786822999999998
#
# number of rings (size 3 to 8) (size 9 to 14) (size 15 to 20)
#    0.000    2.400    0.000    4.200    0.000    2.400 
#    0.000   13.000    0.000    0.000    0.000    0.000 
#    0.000    0.000    0.000    0.000    0.000    0.000 
#
# Total GULP energy -167016.761148 kJ/mol
# GULP energy per Si atom -5567.225372 kJ/mol
# Density = 1.874406 g / cm^3
# Si number density = 18.786823 Si / 1000 Ang^3
#
#
#
# Elastic Constant Matrix: (Units=GPa)
#
#
# Indices 1 2 3 4 5 6 
#
# 1 71.1110 30.7997 13.1906 0.0000 0.0000 0.0000
# 2 30.7997 71.1110 13.1906 0.0000 0.0000 0.0000
# 3 13.1906 13.1906 68.5257 0.0000 0.0000 0.0000
# 4 0.0000 0.0000 0.0000 -11.3582 0.0000 0.0000
# 5 0.0000 0.0000 0.0000 0.0000 -11.3582 0.0000
# 6 0.0000 0.0000 0.0000 0.0000 0.0000 20.1557
#
#
#
# Elastic Compliance Matrix: (Units=1/GPa)
#
#
# Indices 1 2 3 4 5 6 
#
# 1 0.017567 -0.007240 -0.001988 0.000000 0.000000 0.000000
# 2 -0.007240 0.017567 -0.001988 0.000000 0.000000 0.000000
# 3 -0.001988 -0.001988 0.015358 0.000000 0.000000 0.000000
# 4 0.000000 0.000000 0.000000 -0.088042 0.000000 0.000000
# 5 0.000000 0.000000 0.000000 0.000000 -0.088042 0.000000
# 6 0.000000 0.000000 0.000000 0.000000 0.000000 0.049614
#
#
# Mechanical properties :
#
#
# Convention : Reuss Voigt Hill
#
# Bulk Modulus (GPa) = 35.63654 36.12326 35.87990
# Shear Modulus (GPa) = -113.13979 9.72565 -51.70707
#
# Velocity S-wave (km/s) = -7.76876 2.27774 -5.25193
# Velocity P-wave (km/s) = 7.83974 5.11734 4.19966
#
# Compressibility (1/GPa) = 0.02806108
#
# Stress axis : x y z
#
# Youngs Moduli (GPa) = 56.92487 56.92487 65.11112
#
# Poissons Ratio (x) = 0.41213 0.12943
# Poissons Ratio (y) = 0.41213 0.12943
# Poissons Ratio (z) = 0.11316 0.11316
#
# Static dielectric constant tensor:
#      x y z
#    x 1.690980 0.000000 0.000000 
#    y 0.000000 1.690980 0.000000 
#    z 0.000000 0.000000 1.601440 
# 
# From -- ./inp_files/3494.got.cif
#   From: 2010.05.17/outbox.cif.g08.bks.cpg/sg171_2_cif.got.tgz:3494.got - 2010.05.20 11:16:09.
