data_PCOD9580997
_publ_section_title
;
Structure prediction by ZEFSAII (Michael W. Deem and Ramdas Pophale) SiO2 
 PCOD9580997
Probable space group: P 64
;
_chemical_formula_sum "Si O2"
_cell_formula_units_Z 33
_cell_length_a 10.478946
_cell_length_b 10.478946
_cell_length_c 17.748498
_cell_angle_alpha 90.000000
_cell_angle_beta 90.000000
_cell_angle_gamma 120.000000
_cell_volume 1687.825105
_symmetry_space_group_name_H-M "P 64"
_symmetry_group_IT_number 172
_symmetry_cell_setting 'hexagonal'
loop_
_space_group_symop_operation_xyz
x,y,z
x-y,x,2/3+z
-y,x-y,1/3+z
-x,-y,z
-x+y,-x,2/3+z
y,-x+y,1/3+z
loop_
_atom_site_type_symbol
_atom_site_label
_atom_site_fract_x
_atom_site_fract_y
_atom_site_fract_z
Si Si1 0.170253 0.236836 0.327630
Si Si2 0.661565 0.518148 0.448250
Si Si3 0.283699 0.109103 0.212896
Si Si4 0.166095 0.644742 0.424311
Si Si5 0.858174 0.199351 0.276171
Si Si6 0.000000 0.000000 0.774806
O O1 0.245646 0.378473 0.379121
O O2 0.271861 0.228965 0.263332
O O3 0.016530 0.213236 0.294462
O O4 0.130688 0.104177 0.385868
O O5 0.500000 0.500000 0.442479
O O6 0.701950 0.389266 0.438789
O O7 0.723064 0.590066 0.530040
O O8 0.422290 0.166766 0.159488
O O9 0.260624 0.972201 0.264007
O O10 0.139774 0.040049 0.159124
O O11 0.179128 0.725610 0.345046
O O12 0.000000 0.500000 0.424716
#
# Coordination Sequence:
#
# PCOD9580997 Si02
#       6
#     6   6   6   6   6   3
#     4  12  21  38  67 100 132 170 230 298 357 417
#     4  12  28  45  63  96 138 191 236 290 364 441
#     4  12  21  36  70 104 132 172 236 303 349 431
#     4  12  23  43  67  99 136 194 244 283 367 450
#     4  12  20  40  73  95 133 181 226 294 358 440
#     4  12  16  36  64 104 130 166 224 288 362 408
#
# _framework density 19.55179
#
# number of rings (size 3 to 8) (size 9 to 14) (size 15 to 20)
#    0.000    0.000   10.909    0.545    0.000    1.455 
#    0.000    0.000    0.000    2.182    0.000    0.000 
#    0.000    0.000    0.000    0.000    0.000    0.000 
#
# Total GULP energy -184330.894770 kJ/mol
# GULP energy per Si atom -5585.784690 kJ/mol
# Density = 1.950729 g / cm^3
# Si number density = 19.551790 Si / 1000 Ang^3
#
#
#
# Elastic Constant Matrix: (Units=GPa)
#
#
# Indices 1 2 3 4 5 6 
#
# 1 94.0208 42.8319 52.1434 0.0000 0.0000 0.0000
# 2 42.8319 94.0208 52.1434 0.0000 0.0000 0.0000
# 3 52.1434 52.1434 142.7395 0.0000 0.0000 0.0000
# 4 0.0000 0.0000 0.0000 16.6264 0.0000 0.0000
# 5 0.0000 0.0000 0.0000 0.0000 16.6264 0.0000
# 6 0.0000 0.0000 0.0000 0.0000 0.0000 25.5945
#
#
#
# Elastic Compliance Matrix: (Units=1/GPa)
#
#
# Indices 1 2 3 4 5 6 
#
# 1 0.014831 -0.004705 -0.003699 0.000000 0.000000 0.000000
# 2 -0.004705 0.014831 -0.003699 0.000000 0.000000 0.000000
# 3 -0.003699 -0.003699 0.009708 0.000000 0.000000 0.000000
# 4 0.000000 0.000000 0.000000 0.060145 0.000000 0.000000
# 5 0.000000 0.000000 0.000000 0.000000 0.060145 0.000000
# 6 0.000000 0.000000 0.000000 0.000000 0.000000 0.039071
#
#
# Mechanical properties :
#
#
# Convention : Reuss Voigt Hill
#
# Bulk Modulus (GPa) = 65.94564 69.44650 67.69607
# Shear Modulus (GPa) = 21.93063 24.01362 22.97212
#
# Velocity S-wave (km/s) = 3.35277 3.50838 3.43145
# Velocity P-wave (km/s) = 6.98498 7.21166 7.09922
#
# Compressibility (1/GPa) = 0.01516400
#
# Stress axis : x y z
#
# Youngs Moduli (GPa) = 67.42764 67.42764 103.00428
#
# Poissons Ratio (x) = 0.31723 0.38102
# Poissons Ratio (y) = 0.31723 0.38102
# Poissons Ratio (z) = 0.24942 0.24942
#
# Static dielectric constant tensor:
#      x y z
#    x 1.744100 0.000000 0.000000 
#    y 0.000000 1.744100 0.000000 
#    z 0.000000 0.000000 1.674870 
# 
# From -- ./inp_files/1257.got.cif
#   From: 2010.05.17/outbox.cif.g08.bks.cpg/sg172_1_cif.got.tgz:1257.got - 2010.05.20 11:19:57.
