data_PCOD9580569
_publ_section_title
;
Structure prediction by ZEFSAII (Michael W. Deem and Ramdas Pophale) SiO2 
 PCOD9580569
Probable space group: P 62
;
_chemical_formula_sum "Si O2"
_cell_formula_units_Z 30
_cell_length_a 9.610862
_cell_length_b 9.610862
_cell_length_c 14.740607
_cell_angle_alpha 90.000000
_cell_angle_beta 90.000000
_cell_angle_gamma 120.000000
_cell_volume 1179.154417
_symmetry_space_group_name_H-M "P 62"
_symmetry_group_IT_number 171
_symmetry_cell_setting 'hexagonal'
loop_
_space_group_symop_operation_xyz
x,y,z
x-y,x,1/3+z
-y,x-y,2/3+z
-x,-y,z
-x+y,-x,1/3+z
y,-x+y,2/3+z
loop_
_atom_site_type_symbol
_atom_site_label
_atom_site_fract_x
_atom_site_fract_y
_atom_site_fract_z
Si Si1 0.035700 0.851969 0.585810
Si Si2 0.343208 0.654087 0.007394
Si Si3 0.762039 0.649244 0.722495
Si Si4 0.173509 0.547278 0.835836
Si Si5 0.313541 0.064581 0.721096
O O1 0.016513 0.760192 0.491258
O O2 0.905697 0.716276 0.651030
O O3 0.202752 0.936295 0.644178
O O4 0.000000 0.000000 0.570736
O O5 0.170975 0.635296 0.036500
O O6 0.325925 0.655981 0.899671
O O7 0.444646 0.802647 0.074059
O O8 0.356330 0.501946 0.035191
O O9 0.827476 0.619894 0.817677
O O10 0.711163 0.780659 0.717156
O O11 0.000000 0.500000 0.871312
#
# Coordination Sequence:
#
# PCOD9580569 Si02
#       5
#     6   6   6   6   6
#     4  10  21  36  62  97 135 174 219 281 343 408
#     4  10  23  39  66  90 128 171 223 269 336 401
#     4   9  21  38  61  88 128 172 216 262 337 408
#     4  10  22  41  65  87 124 175 221 268 326 415
#     4  11  20  37  62  99 130 165 224 285 335 388
#
# _framework density 25.441960000000002
#
# number of rings (size 3 to 8) (size 9 to 14) (size 15 to 20)
#    1.200    0.800    0.000    4.800    0.000    6.400 
#    0.000    0.000    0.000    2.400    0.000    0.000 
#    0.000    0.000    0.000    0.000    0.000    0.000 
#
# Total GULP energy -167196.784664 kJ/mol
# GULP energy per Si atom -5573.226155 kJ/mol
# Density = 2.538405 g / cm^3
# Si number density = 25.441960 Si / 1000 Ang^3
#
#
#
# Elastic Constant Matrix: (Units=GPa)
#
#
# Indices 1 2 3 4 5 6 
#
# 1 63.4480 15.8952 16.8015 0.0000 0.0000 0.0000
# 2 15.8952 63.4480 16.8015 0.0000 0.0000 0.0000
# 3 16.8015 16.8015 109.6272 0.0000 0.0000 0.0000
# 4 0.0000 0.0000 0.0000 83.2797 0.0000 0.0000
# 5 0.0000 0.0000 0.0000 0.0000 83.2797 0.0000
# 6 0.0000 0.0000 0.0000 0.0000 0.0000 23.7764
#
#
#
# Elastic Compliance Matrix: (Units=1/GPa)
#
#
# Indices 1 2 3 4 5 6 
#
# 1 0.017254 -0.003775 -0.002066 0.000000 0.000000 0.000000
# 2 -0.003775 0.017254 -0.002066 0.000000 0.000000 0.000000
# 3 -0.002066 -0.002066 0.009755 0.000000 0.000000 0.000000
# 4 0.000000 0.000000 0.000000 0.012008 0.000000 0.000000
# 5 0.000000 0.000000 0.000000 0.000000 0.012008 0.000000
# 6 0.000000 0.000000 0.000000 0.000000 0.000000 0.042059
#
#
# Mechanical properties :
#
#
# Convention : Reuss Voigt Hill
#
# Bulk Modulus (GPa) = 35.15074 37.27993 36.21534
# Shear Modulus (GPa) = 36.86413 50.53551 43.69982
#
# Velocity S-wave (km/s) = 3.81064 4.46163 4.14892
# Velocity P-wave (km/s) = 5.76258 6.42077 6.10056
#
# Compressibility (1/GPa) = 0.02844890
#
# Stress axis : x y z
#
# Youngs Moduli (GPa) = 57.95826 57.95826 102.51158
#
# Poissons Ratio (x) = 0.21882 0.21176
# Poissons Ratio (y) = 0.21882 0.21176
# Poissons Ratio (z) = 0.11972 0.11972
#
# Static dielectric constant tensor:
#      x y z
#    x 1.811310 0.000000 0.000000 
#    y 0.000000 1.811310 0.000000 
#    z 0.000000 0.000000 2.156870 
# 
# From -- ./inp_files/2419.got.cif
#   From: 2010.05.17/outbox.cif.g08.bks.cpg/sg171_2_cif.got.tgz:2419.got - 2010.05.20 11:16:09.
