data_PCOD9580235
_publ_section_title
;
Structure prediction by ZEFSAII (Michael W. Deem and Ramdas Pophale) SiO2 
 PCOD9580235
Probable space group: P 65
;
_chemical_formula_sum "Si O2"
_cell_formula_units_Z 48
_cell_length_a 11.044050
_cell_length_b 11.044050
_cell_length_c 17.242665
_cell_angle_alpha 90.000000
_cell_angle_beta 90.000000
_cell_angle_gamma 120.000000
_cell_volume 1821.343040
_symmetry_space_group_name_H-M "P 65"
_symmetry_group_IT_number 170
_symmetry_cell_setting 'hexagonal'
loop_
_space_group_symop_operation_xyz
x,y,z
x-y,x,5/6+z
-y,x-y,2/3+z
-x,-y,1/2+z
-x+y,-x,1/3+z
y,-x+y,1/6+z
loop_
_atom_site_type_symbol
_atom_site_label
_atom_site_fract_x
_atom_site_fract_y
_atom_site_fract_z
Si Si1 0.218570 0.313413 0.495530
Si Si2 0.168807 0.852204 0.404378
Si Si3 0.479420 0.732149 0.459213
Si Si4 0.689689 0.634176 0.426280
Si Si5 0.929658 0.001988 0.539128
Si Si6 0.865609 0.232618 0.154852
Si Si7 0.048691 0.666364 0.994991
Si Si8 0.817949 0.351780 0.017958
O O1 0.259377 0.192758 0.483941
O O2 0.261124 0.389415 0.412412
O O3 0.304959 0.393640 0.571466
O O4 0.057066 0.272534 0.511214
O O5 0.127559 0.735745 0.469428
O O6 0.171941 0.778245 0.324911
O O7 0.050535 0.890688 0.384407
O O8 0.294858 0.984198 0.446496
O O9 0.558085 0.640588 0.463329
O O10 0.314948 0.657541 0.474687
O O11 0.537462 0.859590 0.521606
O O12 0.531152 0.812058 0.377548
O O13 0.784408 0.789506 0.391291
O O14 0.027249 0.067919 0.614190
O O15 0.778059 0.282596 0.103348
O O16 0.944038 0.507544 0.017431
#
# Coordination Sequence:
#
# PCOD9580235 Si02
#       8
#     6   6   6   6   6   6   6   6
#     4  10  25  50  78 106 159 200 255 324 390 475
#     4  11  23  46  74 115 140 191 256 322 390 459
#     4  12  27  50  73 114 154 210 261 325 391 476
#     4  11  24  46  72 107 154 194 255 322 396 454
#     4  10  20  38  68 104 147 181 233 309 387 453
#     4  11  23  47  80 119 146 201 258 328 403 466
#     4  11  27  53  72 115 154 207 261 317 395 470
#     4  12  27  48  79 104 156 208 261 319 374 473
#
# _framework density 26.354181000000001
#
# number of rings (size 3 to 8) (size 9 to 14) (size 15 to 20)
#    0.000    1.000    3.750    3.000    0.000    5.000 
#   15.750    0.000    0.000    0.000    0.000    0.000 
#    0.000    0.000    0.000    0.000    0.000    0.000 
#
# Total GULP energy -268744.343067 kJ/mol
# GULP energy per Si atom -5598.840481 kJ/mol
# Density = 2.629420 g / cm^3
# Si number density = 26.354181 Si / 1000 Ang^3
#
#
#
# Elastic Constant Matrix: (Units=GPa)
#
#
# Indices 1 2 3 4 5 6 
#
# 1 60.0209 35.8072 42.4004 0.0000 0.0000 0.0000
# 2 35.8072 60.0209 42.4004 0.0000 0.0000 0.0000
# 3 42.4004 42.4004 219.3151 0.0000 0.0000 0.0000
# 4 0.0000 0.0000 0.0000 34.1414 0.0000 0.0000
# 5 0.0000 0.0000 0.0000 0.0000 34.1414 0.0000
# 6 0.0000 0.0000 0.0000 0.0000 0.0000 12.1068
#
#
#
# Elastic Compliance Matrix: (Units=1/GPa)
#
#
# Indices 1 2 3 4 5 6 
#
# 1 0.026944 -0.014355 -0.002434 0.000000 0.000000 0.000000
# 2 -0.014355 0.026944 -0.002434 0.000000 0.000000 0.000000
# 3 -0.002434 -0.002434 0.005501 0.000000 0.000000 0.000000
# 4 0.000000 0.000000 0.000000 0.029290 0.000000 0.000000
# 5 0.000000 0.000000 0.000000 0.000000 0.029290 0.000000
# 6 0.000000 0.000000 0.000000 0.000000 0.000000 0.082598
#
#
# Mechanical properties :
#
#
# Convention : Reuss Voigt Hill
#
# Bulk Modulus (GPa) = 47.74742 64.50812 56.12777
# Shear Modulus (GPa) = 20.32573 30.66115 25.49344
#
# Velocity S-wave (km/s) = 2.78016 3.41460 3.11358
# Velocity P-wave (km/s) = 5.33504 6.33060 5.85402
#
# Compressibility (1/GPa) = 0.02094354
#
# Stress axis : x y z
#
# Youngs Moduli (GPa) = 37.11386 37.11386 181.79382
#
# Poissons Ratio (x) = 0.53277 0.44246
# Poissons Ratio (y) = 0.53277 0.44246
# Poissons Ratio (z) = 0.09033 0.09033
#
# Static dielectric constant tensor:
#      x y z
#    x 2.169450 0.000000 0.000000 
#    y 0.000000 2.169450 0.000000 
#    z 0.000000 0.000000 2.075460 
# 
# From -- ./inp_files/1446.got.cif
#   From: 2010.05.17/outbox.cif.g08.bks.cpg/sg170_cif.got.tgz:1446.got - 2010.05.20 11:14:30.
