data_PCOD9580360
_publ_section_title
;
Structure prediction by ZEFSAII (Michael W. Deem and Ramdas Pophale) SiO2 
 PCOD9580360
Probable space group: P 65
;
_chemical_formula_sum "Si O2"
_cell_formula_units_Z 48
_cell_length_a 17.503928
_cell_length_b 17.503928
_cell_length_c 8.950092
_cell_angle_alpha 90.000000
_cell_angle_beta 90.000000
_cell_angle_gamma 120.000000
_cell_volume 2374.811633
_symmetry_space_group_name_H-M "P 65"
_symmetry_group_IT_number 170
_symmetry_cell_setting 'hexagonal'
loop_
_space_group_symop_operation_xyz
x,y,z
x-y,x,5/6+z
-y,x-y,2/3+z
-x,-y,1/2+z
-x+y,-x,1/3+z
y,-x+y,1/6+z
loop_
_atom_site_type_symbol
_atom_site_label
_atom_site_fract_x
_atom_site_fract_y
_atom_site_fract_z
Si Si1 0.873716 0.574416 0.375000
Si Si2 0.423585 0.011150 0.959807
Si Si3 0.376348 0.618826 0.565650
Si Si4 0.374997 0.161773 0.498354
Si Si5 0.231189 0.660518 0.566740
Si Si6 0.296053 0.952667 0.516982
Si Si7 0.431250 0.910227 0.695603
Si Si8 0.423387 0.167305 0.831548
O O1 0.932552 0.575904 0.233951
O O2 0.810450 0.477250 0.444485
O O3 0.930349 0.632696 0.510686
O O4 0.810088 0.604460 0.301461
O O5 0.466880 0.978561 0.834405
O O6 0.387682 0.064943 0.866273
O O7 0.496576 0.075817 0.075267
O O8 0.331129 0.679468 0.552436
O O9 0.377548 0.582798 0.400263
O O10 0.314295 0.530220 0.657425
O O11 0.467473 0.201920 0.403207
O O12 0.319366 0.201951 0.423184
O O13 0.398038 0.190440 0.671810
O O14 0.328773 0.056239 0.514330
O O15 0.180270 0.583001 0.447140
O O16 0.361337 0.929033 0.611166
#
# Coordination Sequence:
#
# PCOD9580360 Si02
#       8
#     6   6   6   6   6   6   6   6
#     4  12  26  41  63  97 129 181 234 289 345 406
#     4  12  23  40  64  89 132 180 237 293 338 414
#     4  11  21  40  57  86 126 182 234 288 327 388
#     4  11  26  48  68  99 131 184 223 290 357 428
#     4  11  23  38  62  87 133 176 240 282 334 400
#     4  12  27  45  71  97 136 174 232 290 360 424
#     4  12  22  41  63  93 132 187 231 288 339 406
#     4  11  24  41  64  90 129 174 233 282 346 406
#
# _framework density 20.212129000000001
#
# number of rings (size 3 to 8) (size 9 to 14) (size 15 to 20)
#    0.000    0.500    3.750    6.000    5.250    1.000 
#    0.000    0.000    0.000    0.000    0.000    1.750 
#    0.000    0.000    0.000    0.000    0.000    0.000 
#
# Total GULP energy -268217.503502 kJ/mol
# GULP energy per Si atom -5587.864656 kJ/mol
# Density = 2.016613 g / cm^3
# Si number density = 20.212129 Si / 1000 Ang^3
#
#
#
# Elastic Constant Matrix: (Units=GPa)
#
#
# Indices 1 2 3 4 5 6 
#
# 1 72.4712 34.5910 20.3331 0.0000 0.0000 0.0000
# 2 34.5910 72.4712 20.3331 0.0000 0.0000 0.0000
# 3 20.3331 20.3331 109.8804 0.0000 0.0000 0.0000
# 4 0.0000 0.0000 0.0000 38.1712 0.0000 0.0000
# 5 0.0000 0.0000 0.0000 0.0000 38.1712 0.0000
# 6 0.0000 0.0000 0.0000 0.0000 0.0000 18.9401
#
#
#
# Elastic Compliance Matrix: (Units=1/GPa)
#
#
# Indices 1 2 3 4 5 6 
#
# 1 0.018223 -0.008176 -0.001859 0.000000 0.000000 0.000000
# 2 -0.008176 0.018223 -0.001859 0.000000 0.000000 0.000000
# 3 -0.001859 -0.001859 0.009789 0.000000 0.000000 0.000000
# 4 0.000000 0.000000 0.000000 0.026198 0.000000 0.000000
# 5 0.000000 0.000000 0.000000 0.000000 0.026198 0.000000
# 6 0.000000 0.000000 0.000000 0.000000 0.000000 0.052798
#
#
# Mechanical properties :
#
#
# Convention : Reuss Voigt Hill
#
# Bulk Modulus (GPa) = 44.55229 45.03747 44.79488
# Shear Modulus (GPa) = 27.36748 31.02755 29.19751
#
# Velocity S-wave (km/s) = 3.68368 3.92228 3.80485
# Velocity P-wave (km/s) = 6.33900 6.54547 6.44306
#
# Compressibility (1/GPa) = 0.02244554
#
# Stress axis : x y z
#
# Youngs Moduli (GPa) = 54.87638 54.87638 102.15714
#
# Poissons Ratio (x) = 0.44868 0.18992
# Poissons Ratio (y) = 0.44868 0.18992
# Poissons Ratio (z) = 0.10202 0.10202
#
# Static dielectric constant tensor:
#      x y z
#    x 1.758650 0.000000 0.000000 
#    y 0.000000 1.758650 0.000000 
#    z 0.000000 0.000000 1.744790 
# 
# From -- ./inp_files/771.got.cif
#   From: 2010.05.17/outbox.cif.g08.bks.cpg/sg170_cif.got.tgz:771.got - 2010.05.20 11:14:30.
