data_PCOD9580694
_publ_section_title
;
Structure prediction by ZEFSAII (Michael W. Deem and Ramdas Pophale) SiO2 
 PCOD9580694
Probable space group: P 62
;
_chemical_formula_sum "Si O2"
_cell_formula_units_Z 24
_cell_length_a 16.282658
_cell_length_b 16.282658
_cell_length_c 5.376212
_cell_angle_alpha 90.000000
_cell_angle_beta 90.000000
_cell_angle_gamma 120.000000
_cell_volume 1234.404851
_symmetry_space_group_name_H-M "P 62"
_symmetry_group_IT_number 171
_symmetry_cell_setting 'hexagonal'
loop_
_space_group_symop_operation_xyz
x,y,z
x-y,x,1/3+z
-y,x-y,2/3+z
-x,-y,z
-x+y,-x,1/3+z
y,-x+y,2/3+z
loop_
_atom_site_type_symbol
_atom_site_label
_atom_site_fract_x
_atom_site_fract_y
_atom_site_fract_z
Si Si1 0.363926 0.455267 0.015080
Si Si2 0.671121 0.645208 0.521923
Si Si3 0.791695 0.179507 0.087271
Si Si4 0.347154 0.765019 0.820701
O O1 0.377132 0.419082 0.279621
O O2 0.416275 0.568436 0.996918
O O3 0.383005 0.408190 0.775223
O O4 0.251017 0.417080 0.986650
O O5 0.673225 0.743492 0.487502
O O6 0.774567 0.656180 0.567814
O O7 0.710463 0.196303 0.970951
O O8 0.273647 0.673429 0.666346
#
# Coordination Sequence:
#
# PCOD9580694 Si02
#       4
#     6   6   6   6
#     4  10  23  40  59  94 120 171 210 267 314 385
#     4  10  23  41  64  92 123 171 210 270 330 371
#     4  10  24  40  66  90 133 166 222 267 325 389
#     4  12  20  39  59  89 131 180 219 261 321 371
#
# _framework density 19.442567
#
# number of rings (size 3 to 8) (size 9 to 14) (size 15 to 20)
#    1.500    0.000    5.000    0.000    3.500    1.000 
#    0.000    5.000    0.000    0.000    0.000    8.750 
#    0.000    0.000    0.000    0.000    0.000    0.000 
#
# Total GULP energy -133877.764265 kJ/mol
# GULP energy per Si atom -5578.240178 kJ/mol
# Density = 1.939831 g / cm^3
# Si number density = 19.442567 Si / 1000 Ang^3
#
#
#
# Elastic Constant Matrix: (Units=GPa)
#
#
# Indices 1 2 3 4 5 6 
#
# 1 89.0443 43.6709 34.6983 0.0000 0.0000 0.0000
# 2 43.6709 89.0443 34.6983 0.0000 0.0000 0.0000
# 3 34.6983 34.6983 105.7386 0.0000 0.0000 0.0000
# 4 0.0000 0.0000 0.0000 13.3542 0.0000 0.0000
# 5 0.0000 0.0000 0.0000 0.0000 13.3542 0.0000
# 6 0.0000 0.0000 0.0000 0.0000 0.0000 22.6867
#
#
#
# Elastic Compliance Matrix: (Units=1/GPa)
#
#
# Indices 1 2 3 4 5 6 
#
# 1 0.015568 -0.006472 -0.002985 0.000000 0.000000 0.000000
# 2 -0.006472 0.015568 -0.002985 0.000000 0.000000 0.000000
# 3 -0.002985 -0.002985 0.011416 0.000000 0.000000 0.000000
# 4 0.000000 0.000000 0.000000 0.074883 0.000000 0.000000
# 5 0.000000 0.000000 0.000000 0.000000 0.074883 0.000000
# 6 0.000000 0.000000 0.000000 0.000000 0.000000 0.044079
#
#
# Mechanical properties :
#
#
# Convention : Reuss Voigt Hill
#
# Bulk Modulus (GPa) = 56.59794 56.66245 56.63020
# Shear Modulus (GPa) = 18.71483 21.26300 19.98892
#
# Velocity S-wave (km/s) = 3.10590 3.31060 3.20988
# Velocity P-wave (km/s) = 6.48349 6.61968 6.55194
#
# Compressibility (1/GPa) = 0.01766849
#
# Stress axis : x y z
#
# Youngs Moduli (GPa) = 64.23639 64.23639 87.59494
#
# Poissons Ratio (x) = 0.41573 0.26145
# Poissons Ratio (y) = 0.41573 0.26145
# Poissons Ratio (z) = 0.19173 0.19173
#
# Static dielectric constant tensor:
#      x y z
#    x 1.678290 0.000000 0.000000 
#    y 0.000000 1.678290 0.000000 
#    z 0.000000 0.000000 1.726450 
# 
# From -- ./inp_files/549.got.cif
#   From: 2010.05.17/outbox.cif.g08.bks.cpg/sg171_1_cif.got.tgz:549.got - 2010.05.20 11:16:09.
