data_PCOD9580337
_publ_section_title
;
Structure prediction by ZEFSAII (Michael W. Deem and Ramdas Pophale) SiO2 
 PCOD9580337
Probable space group: P 65
;
_chemical_formula_sum "Si O2"
_cell_formula_units_Z 48
_cell_length_a 15.584722
_cell_length_b 15.584722
_cell_length_c 9.982973
_cell_angle_alpha 90.000000
_cell_angle_beta 90.000000
_cell_angle_gamma 120.000000
_cell_volume 2099.851814
_symmetry_space_group_name_H-M "P 65"
_symmetry_group_IT_number 170
_symmetry_cell_setting 'hexagonal'
loop_
_space_group_symop_operation_xyz
x,y,z
x-y,x,5/6+z
-y,x-y,2/3+z
-x,-y,1/2+z
-x+y,-x,1/3+z
y,-x+y,1/6+z
loop_
_atom_site_type_symbol
_atom_site_label
_atom_site_fract_x
_atom_site_fract_y
_atom_site_fract_z
Si Si1 0.487208 0.697501 0.380000
Si Si2 0.379830 0.825149 0.353037
Si Si3 0.139761 0.171442 0.553122
Si Si4 0.183682 0.392834 0.184123
Si Si5 0.292249 0.333161 0.397548
Si Si6 0.492976 0.515390 0.332178
Si Si7 0.303022 0.344721 0.973009
Si Si8 0.159782 0.861406 0.096031
O O1 0.425128 0.752426 0.357654
O O2 0.479254 0.669918 0.539422
O O3 0.462130 0.598115 0.298554
O O4 0.601487 0.774140 0.345392
O O5 0.302006 0.802468 0.475236
O O6 0.462898 0.940122 0.382621
O O7 0.152901 0.080147 0.590776
O O8 0.240668 0.274220 0.531737
O O9 0.092847 0.199159 0.676652
O O10 0.254976 0.380693 0.081304
O O11 0.221798 0.367142 0.321915
O O12 0.065596 0.317970 0.165418
O O13 0.398701 0.429865 0.408736
O O14 0.589150 0.572576 0.425849
O O15 0.297718 0.244116 0.020776
O O16 0.232615 0.315209 0.844434
#
# Coordination Sequence:
#
# PCOD9580337 Si02
#       8
#     6   6   6   6   6   6   6   6
#     4  11  25  44  68 104 142 189 240 299 349 426
#     4  11  23  45  68 102 147 184 246 292 357 436
#     4  12  26  51  70 101 144 180 238 297 360 435
#     4  11  23  43  72  99 143 184 235 293 351 435
#     4  11  25  45  68 102 141 188 230 286 365 422
#     4  10  25  41  67 102 140 186 231 288 357 414
#     4  11  21  43  67 104 133 178 239 286 351 414
#     4  11  22  42  70  96 134 181 229 291 344 416
#
# _framework density 22.858756
#
# number of rings (size 3 to 8) (size 9 to 14) (size 15 to 20)
#    0.000    1.000    5.000    0.750    8.750    0.000 
#    2.250    0.000    0.000    0.000    0.000    0.000 
#    0.000    0.000    0.000    0.000    0.000    0.000 
#
# Total GULP energy -267829.774041 kJ/mol
# GULP energy per Si atom -5579.786959 kJ/mol
# Density = 2.280673 g / cm^3
# Si number density = 22.858756 Si / 1000 Ang^3
#
#
#
# Elastic Constant Matrix: (Units=GPa)
#
#
# Indices 1 2 3 4 5 6 
#
# 1 117.2570 44.0097 10.0329 0.0000 0.0000 0.0000
# 2 44.0097 117.2570 10.0329 0.0000 0.0000 0.0000
# 3 10.0329 10.0329 40.5351 0.0000 0.0000 0.0000
# 4 0.0000 0.0000 0.0000 28.9106 0.0000 0.0000
# 5 0.0000 0.0000 0.0000 0.0000 28.9106 0.0000
# 6 0.0000 0.0000 0.0000 0.0000 0.0000 36.6237
#
#
#
# Elastic Compliance Matrix: (Units=1/GPa)
#
#
# Indices 1 2 3 4 5 6 
#
# 1 0.010025 -0.003627 -0.001584 0.000000 0.000000 0.000000
# 2 -0.003627 0.010025 -0.001584 0.000000 0.000000 0.000000
# 3 -0.001584 -0.001584 0.025454 0.000000 0.000000 0.000000
# 4 0.000000 0.000000 0.000000 0.034589 0.000000 0.000000
# 5 0.000000 0.000000 0.000000 0.000000 0.034589 0.000000
# 6 0.000000 0.000000 0.000000 0.000000 0.000000 0.027305
#
#
# Mechanical properties :
#
#
# Convention : Reuss Voigt Hill
#
# Bulk Modulus (GPa) = 31.33275 44.80002 38.06638
# Shear Modulus (GPa) = 30.08156 32.95390 31.51773
#
# Velocity S-wave (km/s) = 3.63157 3.80100 3.71725
# Velocity P-wave (km/s) = 5.59654 6.23736 5.92562
#
# Compressibility (1/GPa) = 0.03191549
#
# Stress axis : x y z
#
# Youngs Moduli (GPa) = 99.74902 99.74902 39.28679
#
# Poissons Ratio (x) = 0.36181 0.06221
# Poissons Ratio (y) = 0.36181 0.06221
# Poissons Ratio (z) = 0.15796 0.15796
#
# Static dielectric constant tensor:
#      x y z
#    x 1.890360 0.000000 0.000000 
#    y 0.000000 1.890360 0.000000 
#    z 0.000000 0.000000 1.917880 
# 
# From -- ./inp_files/1104.got.cif
#   From: 2010.05.17/outbox.cif.g08.bks.cpg/sg170_cif.got.tgz:1104.got - 2010.05.20 11:14:30.
