data_PCOD9580836
_publ_section_title
;
Structure prediction by ZEFSAII (Michael W. Deem and Ramdas Pophale) SiO2 
 PCOD9580836
Probable space group: P 62
;
_chemical_formula_sum "Si O2"
_cell_formula_units_Z 24
_cell_length_a 9.930720
_cell_length_b 9.930720
_cell_length_c 12.532484
_cell_angle_alpha 90.000000
_cell_angle_beta 90.000000
_cell_angle_gamma 120.000000
_cell_volume 1070.358506
_symmetry_space_group_name_H-M "P 62"
_symmetry_group_IT_number 171
_symmetry_cell_setting 'hexagonal'
loop_
_space_group_symop_operation_xyz
x,y,z
x-y,x,1/3+z
-y,x-y,2/3+z
-x,-y,z
-x+y,-x,1/3+z
y,-x+y,2/3+z
loop_
_atom_site_type_symbol
_atom_site_label
_atom_site_fract_x
_atom_site_fract_y
_atom_site_fract_z
Si Si1 0.325717 0.860795 0.695000
Si Si2 0.952692 0.134031 0.812222
Si Si3 0.743844 0.678112 0.704286
Si Si4 0.457407 0.669719 0.778511
O O1 0.182476 0.882552 0.731868
O O2 0.337048 0.730837 0.763662
O O3 0.324167 0.822893 0.569866
O O4 0.500000 0.000000 0.715290
O O5 0.905594 0.163233 0.928191
O O6 0.120235 0.280794 0.788624
O O7 0.000000 0.000000 0.807099
O O8 0.630138 0.749772 0.724960
O O9 0.632755 0.496356 0.720890
#
# Coordination Sequence:
#
# PCOD9580836 Si02
#       4
#     6   6   6   6
#     4  12  26  47  75 106 151 196 252 313 387 466
#     4  12  28  44  73 110 152 197 256 315 387 464
#     4  11  25  46  74 108 149 197 251 320 383 462
#     4  11  25  49  76 106 147 201 251 317 394 463
#
# _framework density 22.422393
#
# number of rings (size 3 to 8) (size 9 to 14) (size 15 to 20)
#    0.000    0.500    2.500    5.250   10.500    3.000 
#    0.000    0.000    0.000    0.000    0.000    0.000 
#    0.000    0.000    0.000    0.000    0.000    0.000 
#
# Total GULP energy -133828.819657 kJ/mol
# GULP energy per Si atom -5576.200819 kJ/mol
# Density = 2.237136 g / cm^3
# Si number density = 22.422393 Si / 1000 Ang^3
#
#
#
# Elastic Constant Matrix: (Units=GPa)
#
#
# Indices 1 2 3 4 5 6 
#
# 1 145.0864 41.1893 20.6956 0.0000 0.0000 0.0000
# 2 41.1893 145.0864 20.6956 0.0000 0.0000 0.0000
# 3 20.6956 20.6956 46.7682 0.0000 0.0000 0.0000
# 4 0.0000 0.0000 0.0000 31.6655 0.0000 0.0000
# 5 0.0000 0.0000 0.0000 0.0000 31.6655 0.0000
# 6 0.0000 0.0000 0.0000 0.0000 0.0000 51.9486
#
#
#
# Elastic Compliance Matrix: (Units=1/GPa)
#
#
# Indices 1 2 3 4 5 6 
#
# 1 0.007789 -0.001836 -0.002635 0.000000 0.000000 0.000000
# 2 -0.001836 0.007789 -0.002635 0.000000 0.000000 0.000000
# 3 -0.002635 -0.002635 0.023714 0.000000 0.000000 0.000000
# 4 0.000000 0.000000 0.000000 0.031580 0.000000 0.000000
# 5 0.000000 0.000000 0.000000 0.000000 0.031580 0.000000
# 6 0.000000 0.000000 0.000000 0.000000 0.000000 0.019250
#
#
# Mechanical properties :
#
#
# Convention : Reuss Voigt Hill
#
# Bulk Modulus (GPa) = 39.86791 55.78910 47.82851
# Shear Modulus (GPa) = 34.65648 40.01329 37.33488
#
# Velocity S-wave (km/s) = 3.93570 4.22894 4.08496
# Velocity P-wave (km/s) = 6.20258 6.98429 6.60501
#
# Compressibility (1/GPa) = 0.02508283
#
# Stress axis : x y z
#
# Youngs Moduli (GPa) = 128.38028 128.38028 42.16957
#
# Poissons Ratio (x) = 0.23565 0.11110
# Poissons Ratio (y) = 0.23565 0.11110
# Poissons Ratio (z) = 0.33824 0.33824
#
# Static dielectric constant tensor:
#      x y z
#    x 1.897590 0.000000 0.000000 
#    y 0.000000 1.897590 0.000000 
#    z 0.000000 0.000000 1.828770 
# 
# From -- ./inp_files/1824.got.cif
#   From: 2010.05.17/outbox.cif.g08.bks.cpg/sg171_1_cif.got.tgz:1824.got - 2010.05.20 11:16:09.
