data_PCOD9580602
_publ_section_title
;
Structure prediction by ZEFSAII (Michael W. Deem and Ramdas Pophale) SiO2 
 PCOD9580602
Probable space group: P 62
;
_chemical_formula_sum "Si O2"
_cell_formula_units_Z 39
_cell_length_a 19.803059
_cell_length_b 19.803059
_cell_length_c 5.327351
_cell_angle_alpha 90.000000
_cell_angle_beta 90.000000
_cell_angle_gamma 120.000000
_cell_volume 1809.283015
_symmetry_space_group_name_H-M "P 62"
_symmetry_group_IT_number 171
_symmetry_cell_setting 'hexagonal'
loop_
_space_group_symop_operation_xyz
x,y,z
x-y,x,1/3+z
-y,x-y,2/3+z
-x,-y,z
-x+y,-x,1/3+z
y,-x+y,2/3+z
loop_
_atom_site_type_symbol
_atom_site_label
_atom_site_fract_x
_atom_site_fract_y
_atom_site_fract_z
Si Si1 0.747854 0.785475 0.379740
Si Si2 0.470919 0.609941 0.597264
Si Si3 0.432238 0.242597 0.865778
Si Si4 0.500000 0.000000 0.632032
Si Si5 0.133287 0.868182 0.547950
Si Si6 0.587496 0.268480 0.083300
Si Si7 0.047636 0.405207 0.546803
O O1 0.760567 0.829849 0.649122
O O2 0.820360 0.778764 0.270673
O O3 0.670255 0.697905 0.384216
O O4 0.734755 0.832283 0.155983
O O5 0.522498 0.703279 0.632592
O O6 0.382770 0.589453 0.603478
O O7 0.509955 0.602107 0.345960
O O8 0.483172 0.557007 0.795527
O O9 0.355058 0.162799 0.810511
O O10 0.499072 0.238053 0.014294
O O11 0.405400 0.297015 0.012721
O O12 0.437253 0.020319 0.761417
O O13 0.628230 0.355434 0.193847
#
# Coordination Sequence:
#
# PCOD9580602 Si02
#       7
#     6   6   6   3   6   6   6
#     4  11  24  46  75 107 142 181 227 282 349 424
#     4  11  21  40  61  84 128 168 232 293 356 416
#     4  10  22  39  59  88 127 177 232 288 347 411
#     4  10  24  38  58  90 122 172 228 298 354 420
#     4  11  24  46  75 107 142 182 227 282 345 428
#     4  12  23  38  60  88 126 182 232 297 355 414
#     4  10  21  41  59  87 132 174 224 292 345 409
#
# _framework density 21.555499000000001
#
# number of rings (size 3 to 8) (size 9 to 14) (size 15 to 20)
#    0.000    1.231    4.615    1.385    0.000    2.462 
#    8.308    0.000    0.000    4.615    0.000    0.000 
#    0.000    0.000    0.000    0.000    0.000    0.000 
#
# Total GULP energy -217187.587075 kJ/mol
# GULP energy per Si atom -5568.912489 kJ/mol
# Density = 2.150644 g / cm^3
# Si number density = 21.555499 Si / 1000 Ang^3
#
#
#
# Elastic Constant Matrix: (Units=GPa)
#
#
# Indices 1 2 3 4 5 6 
#
# 1 71.4406 -6.5993 1.0241 0.0000 0.0000 0.0000
# 2 -6.5993 71.4406 1.0241 0.0000 0.0000 0.0000
# 3 1.0241 1.0241 59.0294 0.0000 0.0000 0.0000
# 4 0.0000 0.0000 0.0000 26.9403 0.0000 0.0000
# 5 0.0000 0.0000 0.0000 0.0000 26.9403 0.0000
# 6 0.0000 0.0000 0.0000 0.0000 0.0000 39.0200
#
#
#
# Elastic Compliance Matrix: (Units=1/GPa)
#
#
# Indices 1 2 3 4 5 6 
#
# 1 0.014122 0.001308 -0.000268 0.000000 0.000000 0.000000
# 2 0.001308 0.014122 -0.000268 0.000000 0.000000 0.000000
# 3 -0.000268 -0.000268 0.016950 0.000000 0.000000 0.000000
# 4 0.000000 0.000000 0.000000 0.037119 0.000000 0.000000
# 5 0.000000 0.000000 0.000000 0.000000 0.037119 0.000000
# 6 0.000000 0.000000 0.000000 0.000000 0.000000 0.025628
#
#
# Mechanical properties :
#
#
# Convention : Reuss Voigt Hill
#
# Bulk Modulus (GPa) = 21.39467 21.42316 21.40892
# Shear Modulus (GPa) = 31.42772 32.34421 31.88597
#
# Velocity S-wave (km/s) = 3.82251 3.87784 3.85027
# Velocity P-wave (km/s) = 5.42485 5.47817 5.45158
#
# Compressibility (1/GPa) = 0.04674061
#
# Stress axis : x y z
#
# Youngs Moduli (GPa) = 70.80979 70.80979 58.99704
#
# Poissons Ratio (x) = -0.09265 0.01579
# Poissons Ratio (y) = -0.09265 0.01579
# Poissons Ratio (z) = 0.01896 0.01896
#
# Static dielectric constant tensor:
#      x y z
#    x 1.928230 0.000000 0.000000 
#    y 0.000000 1.928230 0.000000 
#    z 0.000000 0.000000 1.956700 
# 
# From -- ./inp_files/440.got.cif
#   From: 2010.05.17/outbox.cif.g08.bks.cpg/sg171_1_cif.got.tgz:440.got - 2010.05.20 11:16:09.
