data_PCOD9580802
_publ_section_title
;
Structure prediction by ZEFSAII (Michael W. Deem and Ramdas Pophale) SiO2 
 PCOD9580802
Probable space group: P 62
;
_chemical_formula_sum "Si O2"
_cell_formula_units_Z 33
_cell_length_a 19.308133
_cell_length_b 19.308133
_cell_length_c 5.541942
_cell_angle_alpha 90.000000
_cell_angle_beta 90.000000
_cell_angle_gamma 120.000000
_cell_volume 1789.258839
_symmetry_space_group_name_H-M "P 62"
_symmetry_group_IT_number 171
_symmetry_cell_setting 'hexagonal'
loop_
_space_group_symop_operation_xyz
x,y,z
x-y,x,1/3+z
-y,x-y,2/3+z
-x,-y,z
-x+y,-x,1/3+z
y,-x+y,2/3+z
loop_
_atom_site_type_symbol
_atom_site_label
_atom_site_fract_x
_atom_site_fract_y
_atom_site_fract_z
Si Si1 0.885332 0.282004 0.232110
Si Si2 0.358351 0.947631 0.728318
Si Si3 0.404056 0.191889 0.068223
Si Si4 0.500000 0.500000 0.407811
Si Si5 0.287340 0.585511 0.298665
Si Si6 0.141114 0.576047 0.105926
O O1 0.852623 0.228278 0.475281
O O2 0.851630 0.344368 0.221512
O O3 0.980467 0.339626 0.250105
O O4 0.859744 0.234913 0.978964
O O5 0.268294 0.876629 0.764946
O O6 0.405405 0.908692 0.599145
O O7 0.419071 0.987968 0.949397
O O8 0.499967 0.230619 0.050133
O O9 0.447236 0.530824 0.545409
O O10 0.267940 0.626473 0.520618
O O11 0.226150 0.580682 0.088686
#
# Coordination Sequence:
#
# PCOD9580802 Si02
#       6
#     6   6   6   3   6   6
#     4  12  22  44  59  84 114 158 196 258 313 355
#     4  11  25  40  59  88 115 159 210 256 302 378
#     4  11  28  38  62  87 116 151 212 253 306 368
#     4  12  20  38  62  78 112 160 204 258 300 358
#     4  11  23  37  51  77 118 157 197 269 319 359
#     4  11  22  34  57  81 110 156 208 249 303 363
#
# _framework density 18.443393
#
# number of rings (size 3 to 8) (size 9 to 14) (size 15 to 20)
#    0.000    0.727    5.455    2.182    5.091    1.455 
#    0.000    0.000    0.000    0.000    0.000    0.000 
#    0.000    0.000    0.000    8.182    0.000    0.364 
#
# Total GULP energy -184230.829532 kJ/mol
# GULP energy per Si atom -5582.752410 kJ/mol
# Density = 1.840141 g / cm^3
# Si number density = 18.443393 Si / 1000 Ang^3
#
#
#
# Elastic Constant Matrix: (Units=GPa)
#
#
# Indices 1 2 3 4 5 6 
#
# 1 31.4232 18.3137 30.3557 0.0000 0.0000 0.0000
# 2 18.3137 31.4232 30.3557 0.0000 0.0000 0.0000
# 3 30.3557 30.3557 109.8071 0.0000 0.0000 0.0000
# 4 0.0000 0.0000 0.0000 49.7292 0.0000 0.0000
# 5 0.0000 0.0000 0.0000 0.0000 49.7292 0.0000
# 6 0.0000 0.0000 0.0000 0.0000 0.0000 6.5547
#
#
#
# Elastic Compliance Matrix: (Units=1/GPa)
#
#
# Indices 1 2 3 4 5 6 
#
# 1 0.053313 -0.022967 -0.008389 0.000000 0.000000 0.000000
# 2 -0.022967 0.053313 -0.008389 0.000000 0.000000 0.000000
# 3 -0.008389 -0.008389 0.013745 0.000000 0.000000 0.000000
# 4 0.000000 0.000000 0.000000 0.020109 0.000000 0.000000
# 5 0.000000 0.000000 0.000000 0.000000 0.020109 0.000000
# 6 0.000000 0.000000 0.000000 0.000000 0.000000 0.152561
#
#
# Mechanical properties :
#
#
# Convention : Reuss Voigt Hill
#
# Bulk Modulus (GPa) = 24.46132 36.74485 30.60308
# Shear Modulus (GPa) = 12.30714 27.44451 19.87582
#
# Velocity S-wave (km/s) = 2.58600 3.86170 3.28634
# Velocity P-wave (km/s) = 4.71256 6.31268 5.57038
#
# Compressibility (1/GPa) = 0.04088087
#
# Stress axis : x y z
#
# Youngs Moduli (GPa) = 18.75706 18.75706 72.75331
#
# Poissons Ratio (x) = 0.43080 0.61033
# Poissons Ratio (y) = 0.43080 0.61033
# Poissons Ratio (z) = 0.15735 0.15735
#
# Static dielectric constant tensor:
#      x y z
#    x 1.638300 0.000000 0.000000 
#    y 0.000000 1.638300 0.000000 
#    z 0.000000 0.000000 1.797540 
# 
# From -- ./inp_files/365.got.cif
#   From: 2010.05.17/outbox.cif.g08.bks.cpg/sg171_1_cif.got.tgz:365.got - 2010.05.20 11:16:09.
