data_PCOD9580456
_publ_section_title
;
Structure prediction by ZEFSAII (Michael W. Deem and Ramdas Pophale) SiO2 
 PCOD9580456
Probable space group: P 62
;
_chemical_formula_sum "Si O2"
_cell_formula_units_Z 36
_cell_length_a 20.585755
_cell_length_b 20.585755
_cell_length_c 4.974494
_cell_angle_alpha 90.000000
_cell_angle_beta 90.000000
_cell_angle_gamma 120.000000
_cell_volume 1825.631592
_symmetry_space_group_name_H-M "P 62"
_symmetry_group_IT_number 171
_symmetry_cell_setting 'hexagonal'
loop_
_space_group_symop_operation_xyz
x,y,z
x-y,x,1/3+z
-y,x-y,2/3+z
-x,-y,z
-x+y,-x,1/3+z
y,-x+y,2/3+z
loop_
_atom_site_type_symbol
_atom_site_label
_atom_site_fract_x
_atom_site_fract_y
_atom_site_fract_z
Si Si1 0.011658 0.780099 0.001420
Si Si2 0.003976 0.137741 0.520338
Si Si3 0.830557 0.198743 0.885407
Si Si4 0.730448 0.111292 0.391925
Si Si5 0.233996 0.701345 0.915381
Si Si6 0.666037 0.210788 0.413174
O O1 0.019226 0.824159 0.280029
O O2 0.970756 0.803549 0.771538
O O3 0.091972 0.799765 0.891149
O O4 0.970323 0.690622 0.040298
O O5 0.063899 0.123014 0.352610
O O6 0.782410 0.147273 0.645747
O O7 0.829418 0.276485 0.853404
O O8 0.782102 0.157964 0.145034
O O9 0.664605 0.131495 0.422959
O O10 0.299813 0.742788 0.690421
O O11 0.271820 0.739392 0.195208
O O12 0.205239 0.614594 0.967323
#
# Coordination Sequence:
#
# PCOD9580456 Si02
#       6
#     6   6   6   6   6   6
#     4  12  22  40  64  84 112 154 192 230 286 346
#     4  12  26  44  65  88 115 146 186 238 292 348
#     4  10  21  36  55  82 111 143 189 236 275 333
#     4  10  21  36  55  82 111 143 189 236 275 333
#     4  10  19  32  53  81 114 148 186 232 282 333
#     4  10  19  32  53  81 114 148 186 232 282 333
#
# _framework density 19.719203
#
# number of rings (size 3 to 8) (size 9 to 14) (size 15 to 20)
#    0.000    1.333    0.000    8.000    0.000    0.000 
#    0.000    8.333    0.000    0.000    0.000   16.333 
#    0.000    0.000    0.000    0.000    0.000    0.000 
#
# Total GULP energy -200596.175668 kJ/mol
# GULP energy per Si atom -5572.115991 kJ/mol
# Density = 1.967432 g / cm^3
# Si number density = 19.719203 Si / 1000 Ang^3
#
#
#
# Elastic Constant Matrix: (Units=GPa)
#
#
# Indices 1 2 3 4 5 6 
#
# 1 52.1290 11.6067 1.5760 0.0000 0.0000 0.0000
# 2 11.6067 52.1290 1.5760 0.0000 0.0000 0.0000
# 3 1.5760 1.5760 121.3395 0.0000 0.0000 0.0000
# 4 0.0000 0.0000 0.0000 23.7395 0.0000 0.0000
# 5 0.0000 0.0000 0.0000 0.0000 23.7395 0.0000
# 6 0.0000 0.0000 0.0000 0.0000 0.0000 20.2611
#
#
#
# Elastic Compliance Matrix: (Units=1/GPa)
#
#
# Indices 1 2 3 4 5 6 
#
# 1 0.020189 -0.004489 -0.000204 0.000000 0.000000 0.000000
# 2 -0.004489 0.020189 -0.000204 0.000000 0.000000 0.000000
# 3 -0.000204 -0.000204 0.008247 0.000000 0.000000 0.000000
# 4 0.000000 0.000000 0.000000 0.042124 0.000000 0.000000
# 5 0.000000 0.000000 0.000000 0.000000 0.042124 0.000000
# 6 0.000000 0.000000 0.000000 0.000000 0.000000 0.049356
#
#
# Mechanical properties :
#
#
# Convention : Reuss Voigt Hill
#
# Bulk Modulus (GPa) = 25.75281 28.34611 27.04946
# Shear Modulus (GPa) = 24.39442 27.60392 25.99917
#
# Velocity S-wave (km/s) = 3.52104 3.74552 3.63501
# Velocity P-wave (km/s) = 5.44228 5.75424 5.60043
#
# Compressibility (1/GPa) = 0.03883072
#
# Stress axis : x y z
#
# Youngs Moduli (GPa) = 49.53232 49.53232 121.26152
#
# Poissons Ratio (x) = 0.22235 0.02473
# Poissons Ratio (y) = 0.22235 0.02473
# Poissons Ratio (z) = 0.01010 0.01010
#
# Static dielectric constant tensor:
#      x y z
#    x 1.782280 0.000000 0.000000 
#    y 0.000000 1.782280 0.000000 
#    z 0.000000 0.000000 1.681120 
# 
# From -- ./inp_files/401.got.cif
#   From: 2010.05.17/outbox.cif.g08.bks.cpg/sg171_1_cif.got.tgz:401.got - 2010.05.20 11:16:09.
