data_PCOD9580356
_publ_section_title
;
Structure prediction by ZEFSAII (Michael W. Deem and Ramdas Pophale) SiO2 
 PCOD9580356
Probable space group: P 65
;
_chemical_formula_sum "Si O2"
_cell_formula_units_Z 48
_cell_length_a 11.664048
_cell_length_b 11.664048
_cell_length_c 19.059167
_cell_angle_alpha 90.000000
_cell_angle_beta 90.000000
_cell_angle_gamma 120.000000
_cell_volume 2245.603846
_symmetry_space_group_name_H-M "P 65"
_symmetry_group_IT_number 170
_symmetry_cell_setting 'hexagonal'
loop_
_space_group_symop_operation_xyz
x,y,z
x-y,x,5/6+z
-y,x-y,2/3+z
-x,-y,1/2+z
-x+y,-x,1/3+z
y,-x+y,1/6+z
loop_
_atom_site_type_symbol
_atom_site_label
_atom_site_fract_x
_atom_site_fract_y
_atom_site_fract_z
Si Si1 0.801739 0.339807 0.824240
Si Si2 0.100730 0.333297 0.503567
Si Si3 0.292873 0.392409 0.272499
Si Si4 0.778898 0.457652 0.125053
Si Si5 0.822375 0.151273 0.555536
Si Si6 0.413069 0.130619 0.024595
Si Si7 0.692082 0.046613 0.179218
Si Si8 0.804221 0.510639 0.636647
O O1 0.671923 0.311797 0.780503
O O2 0.846541 0.259739 0.774370
O O3 0.909374 0.496470 0.821473
O O4 0.759204 0.295639 0.903856
O O5 0.149173 0.454116 0.557745
O O6 0.233749 0.327504 0.490918
O O7 0.052996 0.357408 0.429731
O O8 0.975295 0.201650 0.536912
O O9 0.391984 0.526736 0.315340
O O10 0.157055 0.324671 0.315070
O O11 0.368257 0.310147 0.273180
O O12 0.256086 0.438751 0.198991
O O13 0.746297 0.537947 0.181687
O O14 0.796701 0.162216 0.636989
O O15 0.708101 0.019666 0.519946
O O16 0.558291 0.159578 0.997253
#
# Coordination Sequence:
#
# PCOD9580356 Si02
#       8
#     6   6   6   6   6   6   6   6
#     4  11  27  41  67 109 137 190 235 299 367 433
#     4  12  23  42  68 107 140 182 238 301 348 437
#     4  11  24  42  68  97 140 188 231 300 365 432
#     4  11  21  38  66 104 136 180 227 289 367 416
#     4  12  23  43  71 101 145 188 232 297 366 431
#     4  12  25  43  71 105 143 188 235 297 366 441
#     4  11  24  40  70 104 134 183 248 288 360 428
#     4  12  23  45  69 101 145 185 240 301 377 432
#
# _framework density 21.375097
#
# number of rings (size 3 to 8) (size 9 to 14) (size 15 to 20)
#    0.000    0.500    7.500    1.500    0.000    3.000 
#    0.000    0.000   16.500    0.000    0.000    0.000 
#    0.000    0.000    0.000    0.000    0.000    0.000 
#
# Total GULP energy -267394.649776 kJ/mol
# GULP energy per Si atom -5570.721870 kJ/mol
# Density = 2.132645 g / cm^3
# Si number density = 21.375097 Si / 1000 Ang^3
#
#
#
# Elastic Constant Matrix: (Units=GPa)
#
#
# Indices 1 2 3 4 5 6 
#
# 1 56.4453 25.2734 11.0535 0.0000 0.0000 0.0000
# 2 25.2734 56.4453 11.0535 0.0000 0.0000 0.0000
# 3 11.0535 11.0535 112.8070 0.0000 0.0000 0.0000
# 4 0.0000 0.0000 0.0000 26.9610 0.0000 0.0000
# 5 0.0000 0.0000 0.0000 0.0000 26.9610 0.0000
# 6 0.0000 0.0000 0.0000 0.0000 0.0000 15.5859
#
#
#
# Elastic Compliance Matrix: (Units=1/GPa)
#
#
# Indices 1 2 3 4 5 6 
#
# 1 0.022325 -0.009755 -0.001232 0.000000 0.000000 0.000000
# 2 -0.009755 0.022325 -0.001232 0.000000 0.000000 0.000000
# 3 -0.001232 -0.001232 0.009106 0.000000 0.000000 0.000000
# 4 0.000000 0.000000 0.000000 0.037091 0.000000 0.000000
# 5 0.000000 0.000000 0.000000 0.000000 0.037091 0.000000
# 6 0.000000 0.000000 0.000000 0.000000 0.000000 0.064160
#
#
# Mechanical properties :
#
#
# Convention : Reuss Voigt Hill
#
# Bulk Modulus (GPa) = 34.10660 35.60650 34.85655
# Shear Modulus (GPa) = 22.09376 25.78941 23.94159
#
# Velocity S-wave (km/s) = 3.21849 3.47726 3.35037
# Velocity P-wave (km/s) = 5.45916 5.72852 5.59546
#
# Compressibility (1/GPa) = 0.02931984
#
# Stress axis : x y z
#
# Youngs Moduli (GPa) = 44.79230 44.79230 109.81679
#
# Poissons Ratio (x) = 0.43695 0.13526
# Poissons Ratio (y) = 0.43695 0.13526
# Poissons Ratio (z) = 0.05517 0.05517
#
# Static dielectric constant tensor:
#      x y z
#    x 1.828350 0.000000 0.000000 
#    y 0.000000 1.828350 0.000000 
#    z 0.000000 0.000000 1.790040 
# 
# From -- ./inp_files/1597.got.cif
#   From: 2010.05.17/outbox.cif.g08.bks.cpg/sg170_cif.got.tgz:1597.got - 2010.05.20 11:14:30.
