data_PCOD9580699
_publ_section_title
;
Structure prediction by ZEFSAII (Michael W. Deem and Ramdas Pophale) SiO2 
 PCOD9580699
Probable space group: P 62
;
_chemical_formula_sum "Si O2"
_cell_formula_units_Z 36
_cell_length_a 11.179263
_cell_length_b 11.179263
_cell_length_c 16.548407
_cell_angle_alpha 90.000000
_cell_angle_beta 90.000000
_cell_angle_gamma 120.000000
_cell_volume 1791.072526
_symmetry_space_group_name_H-M "P 62"
_symmetry_group_IT_number 171
_symmetry_cell_setting 'hexagonal'
loop_
_space_group_symop_operation_xyz
x,y,z
x-y,x,1/3+z
-y,x-y,2/3+z
-x,-y,z
-x+y,-x,1/3+z
y,-x+y,2/3+z
loop_
_atom_site_type_symbol
_atom_site_label
_atom_site_fract_x
_atom_site_fract_y
_atom_site_fract_z
Si Si1 0.092790 0.711189 0.935880
Si Si2 0.797721 0.147140 0.778340
Si Si3 0.071928 0.158536 0.716597
Si Si4 0.330139 0.174396 0.801401
Si Si5 0.483310 0.672810 0.646309
Si Si6 0.143916 0.501369 0.284653
O O1 0.177906 0.753933 0.853588
O O2 0.144219 0.630734 0.994022
O O3 0.930406 0.601856 0.924378
O O4 0.109861 0.847209 0.977854
O O5 0.719733 0.166654 0.703280
O O6 0.949847 0.177507 0.752186
O O7 0.713185 0.986067 0.803918
O O8 0.190390 0.178330 0.780352
O O9 0.000000 0.000000 0.687467
O O10 0.435760 0.246954 0.726799
O O11 0.402631 0.256742 0.881949
O O12 0.404939 0.743926 0.606999
O O13 0.000000 0.500000 0.285352
#
# Coordination Sequence:
#
# PCOD9580699 Si02
#       6
#     6   6   6   6   6   6
#     4  10  23  42  68  92 134 170 218 281 333 390
#     4  11  23  42  62 101 130 166 226 278 334 392
#     4   9  21  40  68  97 129 171 227 278 334 387
#     4  10  23  42  67  95 132 175 224 279 327 402
#     4  10  24  45  63  97 132 176 224 271 335 414
#     4  12  26  41  69  96 136 186 221 268 346 410
#
# _framework density 20.099688
#
# number of rings (size 3 to 8) (size 9 to 14) (size 15 to 20)
#    0.000    1.667    1.667    1.000    9.333    2.000 
#    3.000    1.667    0.000    0.000    0.000    0.000 
#    0.000    0.000    0.000    0.000    0.000    0.000 
#
# Total GULP energy -201131.600566 kJ/mol
# GULP energy per Si atom -5586.988905 kJ/mol
# Density = 2.005394 g / cm^3
# Si number density = 20.099688 Si / 1000 Ang^3
#
#
#
# Elastic Constant Matrix: (Units=GPa)
#
#
# Indices 1 2 3 4 5 6 
#
# 1 102.0281 52.9437 40.1574 0.0000 0.0000 0.0000
# 2 52.9437 102.0281 40.1574 0.0000 0.0000 0.0000
# 3 40.1574 40.1574 88.9536 0.0000 0.0000 0.0000
# 4 0.0000 0.0000 0.0000 17.9454 0.0000 0.0000
# 5 0.0000 0.0000 0.0000 0.0000 17.9454 0.0000
# 6 0.0000 0.0000 0.0000 0.0000 0.0000 24.5422
#
#
#
# Elastic Compliance Matrix: (Units=1/GPa)
#
#
# Indices 1 2 3 4 5 6 
#
# 1 0.014398 -0.005975 -0.003803 0.000000 0.000000 0.000000
# 2 -0.005975 0.014398 -0.003803 0.000000 0.000000 0.000000
# 3 -0.003803 -0.003803 0.014675 0.000000 0.000000 0.000000
# 4 0.000000 0.000000 0.000000 0.055725 0.000000 0.000000
# 5 0.000000 0.000000 0.000000 0.000000 0.055725 0.000000
# 6 0.000000 0.000000 0.000000 0.000000 0.000000 0.040746
#
#
# Mechanical properties :
#
#
# Convention : Reuss Voigt Hill
#
# Bulk Modulus (GPa) = 61.30685 62.16965 61.73825
# Shear Modulus (GPa) = 21.90437 22.73668 22.32052
#
# Velocity S-wave (km/s) = 3.30477 3.36697 3.33602
# Velocity P-wave (km/s) = 6.71786 6.79067 6.75436
#
# Compressibility (1/GPa) = 0.01631139
#
# Stress axis : x y z
#
# Youngs Moduli (GPa) = 69.45248 69.45248 68.14183
#
# Poissons Ratio (x) = 0.41496 0.25913
# Poissons Ratio (y) = 0.41496 0.25913
# Poissons Ratio (z) = 0.26411 0.26411
#
# Static dielectric constant tensor:
#      x y z
#    x 1.717310 0.000000 0.000000 
#    y 0.000000 1.717310 0.000000 
#    z 0.000000 0.000000 1.690260 
# 
# From -- ./inp_files/3619.got.cif
#   From: 2010.05.17/outbox.cif.g08.bks.cpg/sg171_2_cif.got.tgz:3619.got - 2010.05.20 11:16:09.
