data_PCOD9580780
_publ_section_title
;
Structure prediction by ZEFSAII (Michael W. Deem and Ramdas Pophale) SiO2 
 PCOD9580780
Probable space group: P 62
;
_chemical_formula_sum "Si O2"
_cell_formula_units_Z 24
_cell_length_a 9.135327
_cell_length_b 9.135327
_cell_length_c 14.172800
_cell_angle_alpha 90.000000
_cell_angle_beta 90.000000
_cell_angle_gamma 120.000000
_cell_volume 1024.317248
_symmetry_space_group_name_H-M "P 62"
_symmetry_group_IT_number 171
_symmetry_cell_setting 'hexagonal'
loop_
_space_group_symop_operation_xyz
x,y,z
x-y,x,1/3+z
-y,x-y,2/3+z
-x,-y,z
-x+y,-x,1/3+z
y,-x+y,2/3+z
loop_
_atom_site_type_symbol
_atom_site_label
_atom_site_fract_x
_atom_site_fract_y
_atom_site_fract_z
Si Si1 0.165254 0.322958 0.965260
Si Si2 0.588219 0.794106 0.233477
Si Si3 0.327027 0.654055 0.066810
Si Si4 0.322959 0.165258 0.835026
O O1 0.235987 0.235989 0.900143
O O2 0.995583 0.301503 0.918718
O O3 0.313439 0.512058 0.992359
O O4 0.116676 0.233353 0.066810
O O5 0.483541 0.760519 0.135585
O O6 0.483542 0.723016 0.331370
O O7 0.694081 0.698492 0.214903
O O8 0.198613 0.512058 0.141260
#
# Coordination Sequence:
#
# PCOD9580780 Si02
#       4
#     6   6   6   6
#     4  10  26  50  76 117 162 210 273 343 404 493
#     4  12  25  48  81 116 158 220 262 348 405 494
#     4  10  28  48  74 122 156 214 274 328 405 492
#     4  10  26  50  76 117 162 210 273 343 404 493
#
# _framework density 23.430240999999999
#
# number of rings (size 3 to 8) (size 9 to 14) (size 15 to 20)
#    1.500    0.000    0.000    2.250    7.000    4.000 
#    9.000    0.000    0.000    3.000    0.000    0.000 
#    0.000    0.000    0.000    0.000    0.000    0.000 
#
# Total GULP energy -133757.092785 kJ/mol
# GULP energy per Si atom -5573.212199 kJ/mol
# Density = 2.337691 g / cm^3
# Si number density = 23.430241 Si / 1000 Ang^3
#
#
#
# Elastic Constant Matrix: (Units=GPa)
#
#
# Indices 1 2 3 4 5 6 
#
# 1 113.1937 63.9693 112.7007 0.0000 0.0000 0.0000
# 2 63.9693 113.1937 112.7007 0.0000 0.0000 0.0000
# 3 112.7007 112.7007 215.7258 0.0000 0.0000 0.0000
# 4 0.0000 0.0000 0.0000 10.5465 0.0000 0.0000
# 5 0.0000 0.0000 0.0000 0.0000 10.5465 0.0000
# 6 0.0000 0.0000 0.0000 0.0000 0.0000 24.6122
#
#
#
# Elastic Compliance Matrix: (Units=1/GPa)
#
#
# Indices 1 2 3 4 5 6 
#
# 1 0.018574 -0.001741 -0.008794 0.000000 0.000000 0.000000
# 2 -0.001741 0.018574 -0.008794 0.000000 0.000000 0.000000
# 3 -0.008794 -0.008794 0.013824 0.000000 0.000000 0.000000
# 4 0.000000 0.000000 0.000000 0.094818 0.000000 0.000000
# 5 0.000000 0.000000 0.000000 0.000000 0.094818 0.000000
# 6 0.000000 0.000000 0.000000 0.000000 0.000000 0.040630
#
#
# Mechanical properties :
#
#
# Convention : Reuss Voigt Hill
#
# Bulk Modulus (GPa) = 81.20900 113.42831 97.31866
# Shear Modulus (GPa) = 15.43208 19.32388 17.37798
#
# Velocity S-wave (km/s) = 2.56918 2.87495 2.72635
# Velocity P-wave (km/s) = 6.59819 7.71600 7.17888
#
# Compressibility (1/GPa) = 0.01231391
#
# Stress axis : x y z
#
# Youngs Moduli (GPa) = 53.83867 53.83867 72.33868
#
# Poissons Ratio (x) = 0.09374 0.63614
# Poissons Ratio (y) = 0.09374 0.63614
# Poissons Ratio (z) = 0.47345 0.47345
#
# Static dielectric constant tensor:
#      x y z
#    x 1.987130 0.000000 0.000000 
#    y 0.000000 1.987130 0.000000 
#    z 0.000000 0.000000 1.877740 
# 
# From -- ./inp_files/1811.got.cif
#   From: 2010.05.17/outbox.cif.g08.bks.cpg/sg171_1_cif.got.tgz:1811.got - 2010.05.20 11:16:09.
