data_PCOD9580668
_publ_section_title
;
Structure prediction by ZEFSAII (Michael W. Deem and Ramdas Pophale) SiO2 
 PCOD9580668
Probable space group: P 62
;
_chemical_formula_sum "Si O2"
_cell_formula_units_Z 30
_cell_length_a 8.298863
_cell_length_b 8.298863
_cell_length_c 20.989049
_cell_angle_alpha 90.000000
_cell_angle_beta 90.000000
_cell_angle_gamma 120.000000
_cell_volume 1251.873896
_symmetry_space_group_name_H-M "P 62"
_symmetry_group_IT_number 171
_symmetry_cell_setting 'hexagonal'
loop_
_space_group_symop_operation_xyz
x,y,z
x-y,x,1/3+z
-y,x-y,2/3+z
-x,-y,z
-x+y,-x,1/3+z
y,-x+y,2/3+z
loop_
_atom_site_type_symbol
_atom_site_label
_atom_site_fract_x
_atom_site_fract_y
_atom_site_fract_z
Si Si1 0.491620 0.761894 0.799550
Si Si2 0.396296 0.110865 0.167242
Si Si3 0.061438 0.205438 0.394130
Si Si4 0.500000 0.000000 0.369738
Si Si5 0.500000 0.000000 0.561881
Si Si6 0.885398 0.719432 0.944449
O O1 0.330251 0.783225 0.833597
O O2 0.411126 0.593157 0.748233
O O3 0.574880 0.685001 0.852705
O O4 0.654643 0.930548 0.760324
O O5 0.331687 0.074287 0.093766
O O6 0.500000 0.000000 0.185007
O O7 0.222845 0.020062 0.216498
O O8 0.022976 0.185061 0.318931
O O9 0.000000 0.000000 0.416876
O O10 0.663627 0.007771 0.327114
O O11 0.535885 0.850333 0.596964
#
# Coordination Sequence:
#
# PCOD9580668 Si02
#       6
#     6   6   6   3   3   6
#     4  10  22  41  72  99 141 195 240 315 374 457
#     4  12  24  46  75 106 143 200 262 308 391 470
#     4  11  27  45  70 107 152 197 246 320 386 457
#     4   9  20  38  66 100 134 182 245 300 374 440
#     4  11  20  38  66 102 136 192 243 300 382 440
#     4  11  23  41  70 104 149 193 252 316 379 461
#
# _framework density 23.964074
#
# number of rings (size 3 to 8) (size 9 to 14) (size 15 to 20)
#    0.000    1.200    3.000    1.800   11.200    2.400 
#    0.000    0.000    0.000    0.000    0.000    0.000 
#    0.000    0.000    0.000    0.000    0.000    0.000 
#
# Total GULP energy -167220.432849 kJ/mol
# GULP energy per Si atom -5574.014428 kJ/mol
# Density = 2.390953 g / cm^3
# Si number density = 23.964074 Si / 1000 Ang^3
#
#
#
# Elastic Constant Matrix: (Units=GPa)
#
#
# Indices 1 2 3 4 5 6 
#
# 1 73.8817 9.8117 31.5195 0.0000 0.0000 0.0000
# 2 9.8117 73.8817 31.5195 0.0000 0.0000 0.0000
# 3 31.5195 31.5195 118.2965 0.0000 0.0000 0.0000
# 4 0.0000 0.0000 0.0000 18.9924 0.0000 0.0000
# 5 0.0000 0.0000 0.0000 0.0000 18.9924 0.0000
# 6 0.0000 0.0000 0.0000 0.0000 0.0000 32.0350
#
#
#
# Elastic Compliance Matrix: (Units=1/GPa)
#
#
# Indices 1 2 3 4 5 6 
#
# 1 0.015278 -0.000330 -0.003983 0.000000 0.000000 0.000000
# 2 -0.000330 0.015278 -0.003983 0.000000 0.000000 0.000000
# 3 -0.003983 -0.003983 0.010576 0.000000 0.000000 0.000000
# 4 0.000000 0.000000 0.000000 0.052653 0.000000 0.000000
# 5 0.000000 0.000000 0.000000 0.000000 0.052653 0.000000
# 6 0.000000 0.000000 0.000000 0.000000 0.000000 0.031216
#
#
# Mechanical properties :
#
#
# Convention : Reuss Voigt Hill
#
# Bulk Modulus (GPa) = 40.74840 45.75126 43.24983
# Shear Modulus (GPa) = 24.70055 26.88458 25.79257
#
# Velocity S-wave (km/s) = 3.21399 3.35307 3.28426
# Velocity P-wave (km/s) = 5.55102 5.84156 5.69814
#
# Compressibility (1/GPa) = 0.02454084
#
# Stress axis : x y z
#
# Youngs Moduli (GPa) = 65.45300 65.45300 94.55563
#
# Poissons Ratio (x) = 0.02159 0.37661
# Poissons Ratio (y) = 0.02159 0.37661
# Poissons Ratio (z) = 0.26069 0.26069
#
# Static dielectric constant tensor:
#      x y z
#    x 1.991080 0.000000 0.000000 
#    y 0.000000 1.991080 0.000000 
#    z 0.000000 0.000000 1.948280 
# 
# From -- ./inp_files/5395.got.cif
#   From: 2010.05.17/outbox.cif.g08.bks.cpg/sg171_3_cif.got.tgz:5395.got - 2010.05.20 11:16:09.
