data_PCOD9580363
_publ_section_title
;
Structure prediction by ZEFSAII (Michael W. Deem and Ramdas Pophale) SiO2 
 PCOD9580363
Probable space group: P 65
;
_chemical_formula_sum "Si O2"
_cell_formula_units_Z 42
_cell_length_a 8.671972
_cell_length_b 8.671972
_cell_length_c 24.888243
_cell_angle_alpha 90.000000
_cell_angle_beta 90.000000
_cell_angle_gamma 120.000000
_cell_volume 1620.916354
_symmetry_space_group_name_H-M "P 65"
_symmetry_group_IT_number 170
_symmetry_cell_setting 'hexagonal'
loop_
_space_group_symop_operation_xyz
x,y,z
x-y,x,5/6+z
-y,x-y,2/3+z
-x,-y,1/2+z
-x+y,-x,1/3+z
y,-x+y,1/6+z
loop_
_atom_site_type_symbol
_atom_site_label
_atom_site_fract_x
_atom_site_fract_y
_atom_site_fract_z
Si Si1 0.748206 0.911778 0.094970
Si Si2 0.828431 0.031675 0.844955
Si Si3 0.269307 0.742348 0.181374
Si Si4 0.826941 0.552591 0.606719
Si Si5 0.380700 0.894090 0.675068
Si Si6 0.607059 0.197465 0.441016
Si Si7 0.815642 0.023801 0.479249
O O1 0.671664 0.022897 0.124170
O O2 0.815451 0.833929 0.143545
O O3 0.612426 0.748875 0.058312
O O4 0.909447 0.045289 0.054738
O O5 0.780619 0.154004 0.880672
O O6 0.003143 0.139782 0.807759
O O7 0.662282 0.900440 0.808898
O O8 0.266612 0.653435 0.123660
O O9 0.424768 0.943116 0.187762
O O10 0.318629 0.630830 0.221903
O O11 0.075470 0.726804 0.188317
O O12 0.032621 0.619544 0.620123
O O13 0.334030 0.698533 0.655015
O O14 0.729118 0.105803 0.438951
#
# Coordination Sequence:
#
# PCOD9580363 Si02
#       7
#     6   6   6   6   6   6   6
#     4  12  21  43  71 100 132 183 239 281 352 437
#     4  12  20  41  73 103 136 182 240 280 354 434
#     4  11  26  44  67 106 141 177 235 302 362 420
#     4  11  21  40  74 101 134 186 228 284 349 437
#     4  12  25  44  72 101 140 187 233 294 363 439
#     4  11  22  44  71  99 139 184 235 288 356 432
#     4  11  25  40  68 100 138 181 230 291 344 421
#
# _framework density 25.911270999999999
#
# number of rings (size 3 to 8) (size 9 to 14) (size 15 to 20)
#    0.000    0.571    8.571    0.000    2.000    2.286 
#    0.000    0.000    0.000    0.000    0.000    0.000 
#    0.000    0.000    0.000    0.000    0.000    0.000 
#
# Total GULP energy -234211.390440 kJ/mol
# GULP energy per Si atom -5576.461677 kJ/mol
# Density = 2.585230 g / cm^3
# Si number density = 25.911271 Si / 1000 Ang^3
#
#
#
# Elastic Constant Matrix: (Units=GPa)
#
#
# Indices 1 2 3 4 5 6 
#
# 1 82.9267 23.5410 42.8521 0.0000 0.0000 0.0000
# 2 23.5410 82.9267 42.8521 0.0000 0.0000 0.0000
# 3 42.8521 42.8521 75.8354 0.0000 0.0000 0.0000
# 4 0.0000 0.0000 0.0000 29.2938 0.0000 0.0000
# 5 0.0000 0.0000 0.0000 0.0000 29.2938 0.0000
# 6 0.0000 0.0000 0.0000 0.0000 0.0000 29.6928
#
#
#
# Elastic Compliance Matrix: (Units=1/GPa)
#
#
# Indices 1 2 3 4 5 6 
#
# 1 0.017034 0.000195 -0.009736 0.000000 0.000000 0.000000
# 2 0.000195 0.017034 -0.009736 0.000000 0.000000 0.000000
# 3 -0.009736 -0.009736 0.024189 0.000000 0.000000 0.000000
# 4 0.000000 0.000000 0.000000 0.034137 0.000000 0.000000
# 5 0.000000 0.000000 0.000000 0.000000 0.034137 0.000000
# 6 0.000000 0.000000 0.000000 0.000000 0.000000 0.033678
#
#
# Mechanical properties :
#
#
# Convention : Reuss Voigt Hill
#
# Bulk Modulus (GPa) = 50.74841 51.13101 50.93971
# Shear Modulus (GPa) = 24.35084 26.48566 25.41825
#
# Velocity S-wave (km/s) = 3.06891 3.20060 3.13545
# Velocity P-wave (km/s) = 5.67323 5.78225 5.72800
#
# Compressibility (1/GPa) = 0.01970505
#
# Stress axis : x y z
#
# Youngs Moduli (GPa) = 58.70468 58.70468 41.34047
#
# Poissons Ratio (x) = -0.01147 0.40249
# Poissons Ratio (y) = -0.01147 0.40249
# Poissons Ratio (z) = 0.57155 0.57155
#
# Static dielectric constant tensor:
#      x y z
#    x 2.053300 0.000000 0.000000 
#    y 0.000000 2.053300 0.000000 
#    z 0.000000 0.000000 2.093980 
# 
# From -- ./inp_files/1918.got.cif
#   From: 2010.05.17/outbox.cif.g08.bks.cpg/sg170_cif.got.tgz:1918.got - 2010.05.20 11:14:30.
