data_PCOD9580234
_publ_section_title
;
Structure prediction by ZEFSAII (Michael W. Deem and Ramdas Pophale) SiO2 
 PCOD9580234
Probable space group: P 65
;
_chemical_formula_sum "Si O2"
_cell_formula_units_Z 48
_cell_length_a 14.273352
_cell_length_b 14.273352
_cell_length_c 13.363870
_cell_angle_alpha 90.000000
_cell_angle_beta 90.000000
_cell_angle_gamma 120.000000
_cell_volume 2357.842689
_symmetry_space_group_name_H-M "P 65"
_symmetry_group_IT_number 170
_symmetry_cell_setting 'hexagonal'
loop_
_space_group_symop_operation_xyz
x,y,z
x-y,x,5/6+z
-y,x-y,2/3+z
-x,-y,1/2+z
-x+y,-x,1/3+z
y,-x+y,1/6+z
loop_
_atom_site_type_symbol
_atom_site_label
_atom_site_fract_x
_atom_site_fract_y
_atom_site_fract_z
Si Si1 0.444747 0.897976 0.844760
Si Si2 0.847819 0.162115 0.334700
Si Si3 0.460980 0.723272 0.706936
Si Si4 0.002544 0.358555 0.367493
Si Si5 0.733744 0.589793 0.350115
Si Si6 0.572252 0.054371 0.996005
Si Si7 0.851295 0.843141 0.326543
Si Si8 0.498782 0.240784 0.808235
O O1 0.439827 0.808108 0.768701
O O2 0.441227 0.994066 0.786352
O O3 0.342288 0.835851 0.918485
O O4 0.545151 0.956511 0.920083
O O5 0.750609 0.098512 0.261340
O O6 0.855421 0.269231 0.397594
O O7 0.964485 0.243841 0.296755
O O8 0.849570 0.085520 0.419917
O O9 0.538217 0.784210 0.614315
O O10 0.506019 0.669681 0.784165
O O11 0.354992 0.619345 0.659485
O O12 0.032582 0.437977 0.273016
O O13 0.604387 0.531372 0.334612
O O14 0.793650 0.718030 0.357361
O O15 0.773669 0.558887 0.248318
O O16 0.872055 0.918980 0.421837
#
# Coordination Sequence:
#
# PCOD9580234 Si02
#       8
#     6   6   6   6   6   6   6   6
#     4  11  24  39  64  98 138 185 234 277 345 420
#     4  11  21  41  70 103 132 170 229 295 346 413
#     4  11  24  42  62  99 150 186 228 280 350 431
#     4  11  23  40  66 100 133 174 225 280 354 411
#     4  11  22  43  68  98 138 181 232 284 348 418
#     4  11  25  40  61 100 140 187 228 276 346 433
#     4  12  25  47  75 103 130 178 248 320 358 416
#     4  10  20  38  68 101 135 177 224 272 341 420
#
# _framework density 20.357590999999999
#
# number of rings (size 3 to 8) (size 9 to 14) (size 15 to 20)
#    0.000    1.000    3.750    4.500    1.750    4.000 
#    0.000    1.250    0.000    0.000    0.000    0.000 
#    0.000    0.000    0.000    0.000    0.000    0.000 
#
# Total GULP energy -267291.140564 kJ/mol
# GULP energy per Si atom -5568.565428 kJ/mol
# Density = 2.031126 g / cm^3
# Si number density = 20.357591 Si / 1000 Ang^3
#
#
#
# Elastic Constant Matrix: (Units=GPa)
#
#
# Indices 1 2 3 4 5 6 
#
# 1 86.7830 39.2321 41.2975 0.0000 0.0000 0.0000
# 2 39.2321 86.7830 41.2975 0.0000 0.0000 0.0000
# 3 41.2975 41.2975 114.5773 0.0000 0.0000 0.0000
# 4 0.0000 0.0000 0.0000 22.2833 0.0000 0.0000
# 5 0.0000 0.0000 0.0000 0.0000 22.2833 0.0000
# 6 0.0000 0.0000 0.0000 0.0000 0.0000 23.7755
#
#
#
# Elastic Compliance Matrix: (Units=1/GPa)
#
#
# Indices 1 2 3 4 5 6 
#
# 1 0.015710 -0.005320 -0.003745 0.000000 0.000000 0.000000
# 2 -0.005320 0.015710 -0.003745 0.000000 0.000000 0.000000
# 3 -0.003745 -0.003745 0.011427 0.000000 0.000000 0.000000
# 4 0.000000 0.000000 0.000000 0.044877 0.000000 0.000000
# 5 0.000000 0.000000 0.000000 0.000000 0.044877 0.000000
# 6 0.000000 0.000000 0.000000 0.000000 0.000000 0.042060
#
#
# Mechanical properties :
#
#
# Convention : Reuss Voigt Hill
#
# Bulk Modulus (GPa) = 58.04568 59.08860 58.56714
# Shear Modulus (GPa) = 24.26907 24.75615 24.51261
#
# Velocity S-wave (km/s) = 3.45648 3.49100 3.47378
# Velocity P-wave (km/s) = 6.67118 6.73333 6.70233
#
# Compressibility (1/GPa) = 0.01722781
#
# Stress axis : x y z
#
# Youngs Moduli (GPa) = 63.65326 63.65326 87.50943
#
# Poissons Ratio (x) = 0.33863 0.32772
# Poissons Ratio (y) = 0.33863 0.32772
# Poissons Ratio (z) = 0.23838 0.23838
#
# Static dielectric constant tensor:
#      x y z
#    x 1.783130 0.000000 0.000000 
#    y 0.000000 1.783130 0.000000 
#    z 0.000000 0.000000 1.732990 
# 
# From -- ./inp_files/1091.got.cif
#   From: 2010.05.17/outbox.cif.g08.bks.cpg/sg170_cif.got.tgz:1091.got - 2010.05.20 11:14:30.
