data_PCOD9580067
_publ_section_title
;
Structure prediction by ZEFSAII (Michael W. Deem and Ramdas Pophale) SiO2 
 PCOD9580067
Probable space group: P 61
;
_chemical_formula_sum "Si O2"
_cell_formula_units_Z 24
_cell_length_a 14.624639
_cell_length_b 14.624639
_cell_length_c 4.953436
_cell_angle_alpha 90.000000
_cell_angle_beta 90.000000
_cell_angle_gamma 120.000000
_cell_volume 917.503009
_symmetry_space_group_name_H-M "P 61"
_symmetry_group_IT_number 169
_symmetry_cell_setting 'hexagonal'
loop_
_space_group_symop_operation_xyz
x,y,z
x-y,x,1/6+z
-y,x-y,1/3+z
-x,-y,1/2+z
-x+y,-x,2/3+z
y,-x+y,5/6+z
loop_
_atom_site_type_symbol
_atom_site_label
_atom_site_fract_x
_atom_site_fract_y
_atom_site_fract_z
Si Si1 0.673464 0.236678 0.562630
Si Si2 0.174512 0.227162 0.868517
Si Si3 0.055066 0.487263 0.777024
Si Si4 0.757113 0.089116 0.629628
O O1 0.750889 0.351158 0.681464
O O2 0.600074 0.168010 0.814012
O O3 0.733680 0.174160 0.479884
O O4 0.185550 0.125928 0.820214
O O5 0.155668 0.282868 0.604009
O O6 0.264638 0.276444 0.102130
O O7 0.050210 0.376519 0.713755
O O8 0.974058 0.497088 0.574116
#
# Coordination Sequence:
#
# PCOD9580067 Si02
#       4
#     6   6   6   6
#     4  10  26  45  75 118 171 230 286 368 441 551
#     4  12  28  50  78 119 160 225 294 387 466 547
#     4  10  26  48  79 120 168 233 295 369 446 544
#     4  10  28  47  84 117 171 228 299 376 459 556
#
# _framework density 26.157954
#
# number of rings (size 3 to 8) (size 9 to 14) (size 15 to 20)
#    1.500    0.000    0.000    1.500   14.000    4.000 
#    0.000    0.000    0.000    0.000    0.000    0.000 
#    0.000    0.000    0.000    0.000    0.000    0.000 
#
# Total GULP energy -133897.850846 kJ/mol
# GULP energy per Si atom -5579.077119 kJ/mol
# Density = 2.609842 g / cm^3
# Si number density = 26.157954 Si / 1000 Ang^3
#
#
#
# Elastic Constant Matrix: (Units=GPa)
#
#
# Indices 1 2 3 4 5 6 
#
# 1 162.0974 15.2661 46.1438 0.0000 0.0000 0.0000
# 2 15.2661 162.0974 46.1438 0.0000 0.0000 0.0000
# 3 46.1438 46.1438 107.6110 0.0000 0.0000 0.0000
# 4 0.0000 0.0000 0.0000 47.5195 0.0000 0.0000
# 5 0.0000 0.0000 0.0000 0.0000 47.5195 0.0000
# 6 0.0000 0.0000 0.0000 0.0000 0.0000 73.4156
#
#
#
# Elastic Compliance Matrix: (Units=1/GPa)
#
#
# Indices 1 2 3 4 5 6 
#
# 1 0.007034 0.000223 -0.003112 0.000000 0.000000 0.000000
# 2 0.000223 0.007034 -0.003112 0.000000 0.000000 0.000000
# 3 -0.003112 -0.003112 0.011962 0.000000 0.000000 0.000000
# 4 0.000000 0.000000 0.000000 0.021044 0.000000 0.000000
# 5 0.000000 0.000000 0.000000 0.000000 0.021044 0.000000
# 6 0.000000 0.000000 0.000000 0.000000 0.000000 0.013621
#
#
# Mechanical properties :
#
#
# Convention : Reuss Voigt Hill
#
# Bulk Modulus (GPa) = 71.28381 71.87926 71.58153
# Shear Modulus (GPa) = 50.80485 55.30774 53.05630
#
# Velocity S-wave (km/s) = 4.41186 4.60322 4.50856
# Velocity P-wave (km/s) = 7.29816 7.46937 7.38426
#
# Compressibility (1/GPa) = 0.01402843
#
# Stress axis : x y z
#
# Youngs Moduli (GPa) = 142.16719 142.16719 83.60093
#
# Poissons Ratio (x) = -0.03176 0.26017
# Poissons Ratio (y) = -0.03176 0.26017
# Poissons Ratio (z) = 0.44242 0.44242
#
# Static dielectric constant tensor:
#      x y z
#    x 2.089210 0.000000 0.000000 
#    y 0.000000 2.089210 0.000000 
#    z 0.000000 0.000000 2.283310 
# 
# From -- ./inp_files/49.got.cif
#   From: 2010.05.17/outbox.cif.g08.bks.cpg/sg169_cif.got.tgz:49.got - 2010.05.20 11:12:54.
