data_PCOD9580786
_publ_section_title
;
Structure prediction by ZEFSAII (Michael W. Deem and Ramdas Pophale) SiO2 
 PCOD9580786
Probable space group: P 62
;
_chemical_formula_sum "Si O2"
_cell_formula_units_Z 36
_cell_length_a 9.163689
_cell_length_b 9.163689
_cell_length_c 25.072146
_cell_angle_alpha 90.000000
_cell_angle_beta 90.000000
_cell_angle_gamma 120.000000
_cell_volume 1823.319694
_symmetry_space_group_name_H-M "P 62"
_symmetry_group_IT_number 171
_symmetry_cell_setting 'hexagonal'
loop_
_space_group_symop_operation_xyz
x,y,z
x-y,x,1/3+z
-y,x-y,2/3+z
-x,-y,z
-x+y,-x,1/3+z
y,-x+y,2/3+z
loop_
_atom_site_type_symbol
_atom_site_label
_atom_site_fract_x
_atom_site_fract_y
_atom_site_fract_z
Si Si1 0.623078 0.696809 0.167090
Si Si2 0.796287 0.909109 0.920086
Si Si3 0.190374 0.158989 0.448128
Si Si4 0.101121 0.688096 0.204258
Si Si5 0.909155 0.607267 0.677059
Si Si6 0.357584 0.552532 0.589968
O O1 0.500000 0.500000 0.153844
O O2 0.789994 0.723845 0.197216
O O3 0.550076 0.762406 0.213643
O O4 0.683438 0.841024 0.122578
O O5 0.717356 0.711056 0.920305
O O6 0.734369 0.980389 0.967568
O O7 0.000000 0.000000 0.919227
O O8 0.302395 0.144217 0.496132
O O9 0.298844 0.191429 0.395017
O O10 0.000000 0.000000 0.445416
O O11 0.264209 0.704788 0.232089
O O12 0.000000 0.500000 0.180259
O O13 0.734734 0.485421 0.646684
O O14 0.000000 0.500000 0.689750
O O15 0.500000 0.500000 0.590869
#
# Coordination Sequence:
#
# PCOD9580786 Si02
#       6
#     6   6   6   6   6   6
#     4  11  21  40  67  95 129 175 227 275 336 410
#     4  11  19  43  68  94 126 175 227 270 326 418
#     4  12  25  45  64  98 136 183 230 286 352 416
#     4  12  22  38  69 100 131 168 227 282 336 415
#     4  11  26  44  64  94 139 180 224 278 342 408
#     4  11  22  40  69 101 131 173 221 281 344 401
#
# _framework density 19.744205999999998
#
# number of rings (size 3 to 8) (size 9 to 14) (size 15 to 20)
#    0.000    0.667    5.000    5.500    2.333    0.667 
#    0.000    4.167    0.000    0.000    0.000    0.000 
#    0.000    0.000    0.000    0.000    0.000    0.000 
#
# Total GULP energy -200759.740101 kJ/mol
# GULP energy per Si atom -5576.659447 kJ/mol
# Density = 1.969927 g / cm^3
# Si number density = 19.744206 Si / 1000 Ang^3
#
#
#
# Elastic Constant Matrix: (Units=GPa)
#
#
# Indices 1 2 3 4 5 6 
#
# 1 102.4517 21.0854 37.5974 0.0000 0.0000 0.0000
# 2 21.0854 102.4517 37.5974 0.0000 0.0000 0.0000
# 3 37.5974 37.5974 85.1303 0.0000 0.0000 0.0000
# 4 0.0000 0.0000 0.0000 95.0430 0.0000 0.0000
# 5 0.0000 0.0000 0.0000 0.0000 95.0430 0.0000
# 6 0.0000 0.0000 0.0000 0.0000 0.0000 40.6831
#
#
#
# Elastic Compliance Matrix: (Units=1/GPa)
#
#
# Indices 1 2 3 4 5 6 
#
# 1 0.011680 -0.000610 -0.004889 0.000000 0.000000 0.000000
# 2 -0.000610 0.011680 -0.004889 0.000000 0.000000 0.000000
# 3 -0.004889 -0.004889 0.016065 0.000000 0.000000 0.000000
# 4 0.000000 0.000000 0.000000 0.010522 0.000000 0.000000
# 5 0.000000 0.000000 0.000000 0.000000 0.010522 0.000000
# 6 0.000000 0.000000 0.000000 0.000000 0.000000 0.024580
#
#
# Mechanical properties :
#
#
# Convention : Reuss Voigt Hill
#
# Bulk Modulus (GPa) = 53.62054 53.62155 53.62105
# Shear Modulus (GPa) = 44.62576 59.07073 51.84824
#
# Velocity S-wave (km/s) = 4.75931 5.47567 5.13001
# Velocity P-wave (km/s) = 7.57746 8.19722 7.89342
#
# Compressibility (1/GPa) = 0.01864957
#
# Stress axis : x y z
#
# Youngs Moduli (GPa) = 85.61314 85.61314 62.24548
#
# Poissons Ratio (x) = 0.05219 0.30434
# Poissons Ratio (y) = 0.05219 0.30434
# Poissons Ratio (z) = 0.41859 0.41859
#
# Static dielectric constant tensor:
#      x y z
#    x 0.742610 0.000000 0.000000 
#    y 0.000000 0.742610 0.000000 
#    z 0.000000 0.000000 1.675370 
# 
# From -- ./inp_files/5759.got.cif
#   From: 2010.05.17/outbox.cif.g08.bks.cpg/sg171_3_cif.got.tgz:5759.got - 2010.05.20 11:16:09.
