data_PCOD9580341
_publ_section_title
;
Structure prediction by ZEFSAII (Michael W. Deem and Ramdas Pophale) SiO2 
 PCOD9580341
Probable space group: P 65
;
_chemical_formula_sum "Si O2"
_cell_formula_units_Z 48
_cell_length_a 10.916361
_cell_length_b 10.916361
_cell_length_c 16.937204
_cell_angle_alpha 90.000000
_cell_angle_beta 90.000000
_cell_angle_gamma 120.000000
_cell_volume 1747.946470
_symmetry_space_group_name_H-M "P 65"
_symmetry_group_IT_number 170
_symmetry_cell_setting 'hexagonal'
loop_
_space_group_symop_operation_xyz
x,y,z
x-y,x,5/6+z
-y,x-y,2/3+z
-x,-y,1/2+z
-x+y,-x,1/3+z
y,-x+y,1/6+z
loop_
_atom_site_type_symbol
_atom_site_label
_atom_site_fract_x
_atom_site_fract_y
_atom_site_fract_z
Si Si1 0.213544 0.450930 0.189520
Si Si2 0.970223 0.254304 0.602176
Si Si3 0.246634 0.941996 0.366882
Si Si4 0.597679 0.472577 0.143576
Si Si5 0.026224 0.040165 0.370148
Si Si6 0.576239 0.029972 0.160338
Si Si7 0.605341 0.669847 0.432351
Si Si8 0.292435 0.688199 0.748676
O O1 0.285047 0.374994 0.233935
O O2 0.087199 0.429598 0.243987
O O3 0.314704 0.608032 0.156787
O O4 0.158577 0.361941 0.108904
O O5 0.961426 0.360688 0.539854
O O6 0.057497 0.339756 0.678071
O O7 0.814164 0.166368 0.640688
O O8 0.000994 0.132514 0.570189
O O9 0.345847 0.911584 0.308166
O O10 0.108240 0.953305 0.340711
O O11 0.640280 0.548183 0.059496
O O12 0.672856 0.391038 0.179046
O O13 0.109524 0.089890 0.453795
O O14 0.681892 0.164714 0.218379
O O15 0.442778 0.065008 0.149074
O O16 0.434218 0.567445 0.434391
#
# Coordination Sequence:
#
# PCOD9580341 Si02
#       8
#     6   6   6   6   6   6   6   6
#     4  11  25  46  70 106 154 202 259 334 395 481
#     4  11  25  50  74 111 160 204 258 335 416 488
#     4  11  23  49  74 108 158 202 267 337 407 480
#     4  10  25  47  71 111 150 205 259 337 400 494
#     4  12  26  48  78 119 162 220 267 345 422 505
#     4  12  26  44  78 111 139 216 270 324 406 486
#     4  11  25  47  74 107 153 201 260 330 400 488
#     4  10  25  47  71 105 152 196 262 328 390 480
#
# _framework density 27.460795000000001
#
# number of rings (size 3 to 8) (size 9 to 14) (size 15 to 20)
#    0.000    1.000    3.750    2.250    7.000    4.000 
#    2.250    0.000    0.000    0.000    0.000    0.000 
#    0.000    0.000    0.000    0.000    0.000    0.000 
#
# Total GULP energy -267303.809966 kJ/mol
# GULP energy per Si atom -5568.829374 kJ/mol
# Density = 2.739829 g / cm^3
# Si number density = 27.460795 Si / 1000 Ang^3
#
#
#
# Elastic Constant Matrix: (Units=GPa)
#
#
# Indices 1 2 3 4 5 6 
#
# 1 102.7528 19.1562 20.8547 0.0000 0.0000 0.0000
# 2 19.1562 102.7528 20.8547 0.0000 0.0000 0.0000
# 3 20.8547 20.8547 127.2429 0.0000 0.0000 0.0000
# 4 0.0000 0.0000 0.0000 25.5429 0.0000 0.0000
# 5 0.0000 0.0000 0.0000 0.0000 25.5429 0.0000
# 6 0.0000 0.0000 0.0000 0.0000 0.0000 41.7983
#
#
#
# Elastic Compliance Matrix: (Units=1/GPa)
#
#
# Indices 1 2 3 4 5 6 
#
# 1 0.010326 -0.001636 -0.001424 0.000000 0.000000 0.000000
# 2 -0.001636 0.010326 -0.001424 0.000000 0.000000 0.000000
# 3 -0.001424 -0.001424 0.008326 0.000000 0.000000 0.000000
# 4 0.000000 0.000000 0.000000 0.039150 0.000000 0.000000
# 5 0.000000 0.000000 0.000000 0.000000 0.039150 0.000000
# 6 0.000000 0.000000 0.000000 0.000000 0.000000 0.023924
#
#
# Mechanical properties :
#
#
# Convention : Reuss Voigt Hill
#
# Bulk Modulus (GPa) = 49.97753 50.49774 50.23764
# Shear Modulus (GPa) = 34.05039 36.70234 35.37637
#
# Velocity S-wave (km/s) = 3.52513 3.65983 3.59311
# Velocity P-wave (km/s) = 5.89982 6.02396 5.96221
#
# Compressibility (1/GPa) = 0.02000899
#
# Stress axis : x y z
#
# Youngs Moduli (GPa) = 96.84130 96.84130 120.10779
#
# Poissons Ratio (x) = 0.15844 0.17107
# Poissons Ratio (y) = 0.15844 0.17107
# Poissons Ratio (z) = 0.13793 0.13793
#
# Static dielectric constant tensor:
#      x y z
#    x 2.347110 0.000000 0.000000 
#    y 0.000000 2.347110 0.000000 
#    z 0.000000 0.000000 2.107870 
# 
# From -- ./inp_files/1467.got.cif
#   From: 2010.05.17/outbox.cif.g08.bks.cpg/sg170_cif.got.tgz:1467.got - 2010.05.20 11:14:30.
