data_PCOD9580737
_publ_section_title
;
Structure prediction by ZEFSAII (Michael W. Deem and Ramdas Pophale) SiO2 
 PCOD9580737
Probable space group: P 62
;
_chemical_formula_sum "Si O2"
_cell_formula_units_Z 39
_cell_length_a 11.819661
_cell_length_b 11.819661
_cell_length_c 13.357226
_cell_angle_alpha 90.000000
_cell_angle_beta 90.000000
_cell_angle_gamma 120.000000
_cell_volume 1616.058014
_symmetry_space_group_name_H-M "P 62"
_symmetry_group_IT_number 171
_symmetry_cell_setting 'hexagonal'
loop_
_space_group_symop_operation_xyz
x,y,z
x-y,x,1/3+z
-y,x-y,2/3+z
-x,-y,z
-x+y,-x,1/3+z
y,-x+y,2/3+z
loop_
_atom_site_type_symbol
_atom_site_label
_atom_site_fract_x
_atom_site_fract_y
_atom_site_fract_z
Si Si1 0.751317 0.060894 0.547380
Si Si2 0.357098 0.622018 0.532859
Si Si3 0.816630 0.067409 0.139250
Si Si4 0.239935 0.496998 0.061839
Si Si5 0.507198 0.382995 0.351679
Si Si6 0.500000 0.500000 0.008307
Si Si7 0.889680 0.034992 0.930918
O O1 0.751028 0.119249 0.438946
O O2 0.636228 0.059412 0.612573
O O3 0.901479 0.149397 0.584157
O O4 0.722223 0.912773 0.540857
O O5 0.467948 0.682330 0.617989
O O6 0.347540 0.736069 0.473552
O O7 0.230450 0.538757 0.600277
O O8 0.383095 0.554006 0.439136
O O9 0.711811 0.091744 0.082313
O O10 0.767534 0.931523 0.198260
O O11 0.903967 0.068536 0.046713
O O12 0.378128 0.499686 0.062859
O O13 0.500000 0.500000 0.301070
O O14 0.000000 0.000000 0.901857
#
# Coordination Sequence:
#
# PCOD9580737 Si02
#       7
#     6   6   6   6   6   3   6
#     4  11  26  44  74 104 145 190 243 305 368 450
#     4  10  25  47  66 102 147 181 240 308 360 446
#     4  11  26  44  72 106 142 193 248 304 389 440
#     4  11  24  46  70 102 143 186 239 300 360 449
#     4  11  27  46  73 104 145 193 245 305 378 450
#     4  12  26  42  78 108 136 198 248 290 388 442
#     4  10  24  45  69 108 145 186 245 315 368 444
#
# _framework density 24.132798999999999
#
# number of rings (size 3 to 8) (size 9 to 14) (size 15 to 20)
#    0.000    1.231    1.538    2.308   16.154    0.000 
#    0.000    0.000    0.000    0.000    0.000    0.000 
#    0.000    0.000    0.000    0.000    0.000    0.000 
#
# Total GULP energy -217908.283471 kJ/mol
# GULP energy per Si atom -5587.391884 kJ/mol
# Density = 2.407787 g / cm^3
# Si number density = 24.132799 Si / 1000 Ang^3
#
#
#
# Elastic Constant Matrix: (Units=GPa)
#
#
# Indices 1 2 3 4 5 6 
#
# 1 72.4816 18.0069 19.5339 0.0000 0.0000 0.0000
# 2 18.0069 72.4816 19.5339 0.0000 0.0000 0.0000
# 3 19.5339 19.5339 103.2344 0.0000 0.0000 0.0000
# 4 0.0000 0.0000 0.0000 32.7509 0.0000 0.0000
# 5 0.0000 0.0000 0.0000 0.0000 32.7509 0.0000
# 6 0.0000 0.0000 0.0000 0.0000 0.0000 27.2374
#
#
#
# Elastic Compliance Matrix: (Units=1/GPa)
#
#
# Indices 1 2 3 4 5 6 
#
# 1 0.015196 -0.003161 -0.002277 0.000000 0.000000 0.000000
# 2 -0.003161 0.015196 -0.002277 0.000000 0.000000 0.000000
# 3 -0.002277 -0.002277 0.010548 0.000000 0.000000 0.000000
# 4 0.000000 0.000000 0.000000 0.030534 0.000000 0.000000
# 5 0.000000 0.000000 0.000000 0.000000 0.030534 0.000000
# 6 0.000000 0.000000 0.000000 0.000000 0.000000 0.036714
#
#
# Mechanical properties :
#
#
# Convention : Reuss Voigt Hill
#
# Bulk Modulus (GPa) = 39.20261 40.26079 39.73170
# Shear Modulus (GPa) = 30.73987 31.28937 31.01462
#
# Velocity S-wave (km/s) = 3.57288 3.60467 3.58881
# Velocity P-wave (km/s) = 5.77065 5.83473 5.80278
#
# Compressibility (1/GPa) = 0.02550851
#
# Stress axis : x y z
#
# Youngs Moduli (GPa) = 65.80815 65.80815 94.80078
#
# Poissons Ratio (x) = 0.20805 0.21587
# Poissons Ratio (y) = 0.20805 0.21587
# Poissons Ratio (z) = 0.14985 0.14985
#
# Static dielectric constant tensor:
#      x y z
#    x 1.989720 0.000000 0.000000 
#    y 0.000000 1.989720 0.000000 
#    z 0.000000 0.000000 1.877060 
# 
# From -- ./inp_files/2017.got.cif
#   From: 2010.05.17/outbox.cif.g08.bks.cpg/sg171_2_cif.got.tgz:2017.got - 2010.05.20 11:16:09.
