data_PCOD9580040
_publ_section_title
;
Structure prediction by ZEFSAII (Michael W. Deem and Ramdas Pophale) SiO2 
 PCOD9580040
Probable space group: P 61
;
_chemical_formula_sum "Si O2"
_cell_formula_units_Z 24
_cell_length_a 15.204444
_cell_length_b 15.204444
_cell_length_c 4.986116
_cell_angle_alpha 90.000000
_cell_angle_beta 90.000000
_cell_angle_gamma 120.000000
_cell_volume 998.237996
_symmetry_space_group_name_H-M "P 61"
_symmetry_group_IT_number 169
_symmetry_cell_setting 'hexagonal'
loop_
_space_group_symop_operation_xyz
x,y,z
x-y,x,1/6+z
-y,x-y,1/3+z
-x,-y,1/2+z
-x+y,-x,2/3+z
y,-x+y,5/6+z
loop_
_atom_site_type_symbol
_atom_site_label
_atom_site_fract_x
_atom_site_fract_y
_atom_site_fract_z
Si Si1 0.350886 0.084833 0.381890
Si Si2 0.924312 0.152054 0.199040
Si Si3 0.573660 0.230702 0.151668
Si Si4 0.562738 0.051495 0.837264
O O1 0.320013 0.116553 0.655181
O O2 0.462956 0.168545 0.283348
O O3 0.355353 0.981227 0.413796
O O4 0.270726 0.066559 0.151254
O O5 0.032894 0.179348 0.077914
O O6 0.664709 0.258887 0.356629
O O7 0.583363 0.160769 0.922957
O O8 0.467203 0.976790 0.028595
#
# Coordination Sequence:
#
# PCOD9580040 Si02
#       4
#     6   6   6   6
#     4  11  26  50  78 115 153 207 251 311 386 459
#     4  12  29  53  82 112 149 194 254 328 395 463
#     4  11  28  44  76 113 162 207 254 313 363 454
#     4  10  23  47  70 102 154 206 255 306 366 436
#
# _framework density 24.042359999999999
#
# number of rings (size 3 to 8) (size 9 to 14) (size 15 to 20)
#    0.000    1.000    0.000    4.500   14.000    4.000 
#    9.000    0.000    0.000    0.000    0.000    0.000 
#    0.000    0.000    0.000    0.000    0.000    0.000 
#
# Total GULP energy -134579.887927 kJ/mol
# GULP energy per Si atom -5607.495330 kJ/mol
# Density = 2.398764 g / cm^3
# Si number density = 24.042360 Si / 1000 Ang^3
#
#
#
# Elastic Constant Matrix: (Units=GPa)
#
#
# Indices 1 2 3 4 5 6 
#
# 1 104.3720 31.1564 5.2486 0.0000 0.0000 0.0000
# 2 31.1564 104.3720 5.2486 0.0000 0.0000 0.0000
# 3 5.2486 5.2486 80.9148 0.0000 0.0000 0.0000
# 4 0.0000 0.0000 0.0000 24.4029 0.0000 0.0000
# 5 0.0000 0.0000 0.0000 0.0000 24.4029 0.0000
# 6 0.0000 0.0000 0.0000 0.0000 0.0000 36.6078
#
#
#
# Elastic Compliance Matrix: (Units=1/GPa)
#
#
# Indices 1 2 3 4 5 6 
#
# 1 0.010537 -0.003121 -0.000481 0.000000 0.000000 0.000000
# 2 -0.003121 0.010537 -0.000481 0.000000 0.000000 0.000000
# 3 -0.000481 -0.000481 0.012421 0.000000 0.000000 0.000000
# 4 0.000000 0.000000 0.000000 0.040979 0.000000 0.000000
# 5 0.000000 0.000000 0.000000 0.000000 0.040979 0.000000
# 6 0.000000 0.000000 0.000000 0.000000 0.000000 0.027317
#
#
# Mechanical properties :
#
#
# Convention : Reuss Voigt Hill
#
# Bulk Modulus (GPa) = 39.48116 41.44066 40.46091
# Shear Modulus (GPa) = 31.37185 33.61641 32.49413
#
# Velocity S-wave (km/s) = 3.61620 3.74333 3.68031
# Velocity P-wave (km/s) = 5.82177 5.99644 5.90975
#
# Compressibility (1/GPa) = 0.02532853
#
# Stress axis : x y z
#
# Youngs Moduli (GPa) = 94.90331 94.90331 80.50823
#
# Poissons Ratio (x) = 0.29622 0.03873
# Poissons Ratio (y) = 0.29622 0.03873
# Poissons Ratio (z) = 0.04565 0.04565
#
# Static dielectric constant tensor:
#      x y z
#    x 1.926810 0.000000 0.000000 
#    y 0.000000 1.926810 0.000000 
#    z 0.000000 0.000000 1.887010 
# 
# From -- ./inp_files/96.got.cif
#   From: 2010.05.17/outbox.cif.g08.bks.cpg/sg169_cif.got.tgz:96.got - 2010.05.20 11:12:54.
