data_PCOD9580243
_publ_section_title
;
Structure prediction by ZEFSAII (Michael W. Deem and Ramdas Pophale) SiO2 
 PCOD9580243
Probable space group: P 65
;
_chemical_formula_sum "Si O2"
_cell_formula_units_Z 42
_cell_length_a 13.995202
_cell_length_b 13.995202
_cell_length_c 11.056014
_cell_angle_alpha 90.000000
_cell_angle_beta 90.000000
_cell_angle_gamma 120.000000
_cell_volume 1875.372547
_symmetry_space_group_name_H-M "P 65"
_symmetry_group_IT_number 170
_symmetry_cell_setting 'hexagonal'
loop_
_space_group_symop_operation_xyz
x,y,z
x-y,x,5/6+z
-y,x-y,2/3+z
-x,-y,1/2+z
-x+y,-x,1/3+z
y,-x+y,1/6+z
loop_
_atom_site_type_symbol
_atom_site_label
_atom_site_fract_x
_atom_site_fract_y
_atom_site_fract_z
Si Si1 0.459716 0.234662 0.431810
Si Si2 0.191091 0.133768 0.693415
Si Si3 0.441771 0.623832 0.172960
Si Si4 0.705664 0.676316 0.902736
Si Si5 0.501992 0.067937 0.772710
Si Si6 0.870091 0.558496 0.270771
Si Si7 0.632231 0.928110 0.472294
O O1 0.506429 0.288651 0.564243
O O2 0.563078 0.253340 0.351933
O O3 0.388127 0.103638 0.456091
O O4 0.374966 0.273581 0.386561
O O5 0.093419 0.144883 0.636969
O O6 0.242354 0.075547 0.609664
O O7 0.259120 0.981233 0.898060
O O8 0.475891 0.533676 0.134481
O O9 0.495706 0.669193 0.307129
O O10 0.650125 0.589452 0.011863
O O11 0.617834 0.142343 0.709743
O O12 0.479381 0.107529 0.899087
O O13 0.817138 0.631806 0.310654
O O14 0.001790 0.638242 0.253420
#
# Coordination Sequence:
#
# PCOD9580243 Si02
#       7
#     6   6   6   6   6   6   6
#     4  11  22  42  65 104 131 179 223 289 342 413
#     4  12  21  37  68 101 126 171 224 270 325 410
#     4  10  23  40  66  90 133 170 227 275 332 418
#     4  11  19  37  68  92 131 164 227 269 331 396
#     4  10  20  40  63  92 128 174 222 271 333 395
#     4  11  22  39  67  95 129 168 229 284 343 398
#     4  11  21  39  69  96 126 182 218 284 334 408
#
# _framework density 22.395548999999999
#
# number of rings (size 3 to 8) (size 9 to 14) (size 15 to 20)
#    0.000    1.143    5.714    2.571    0.000    0.000 
#    5.143    5.714    0.000    0.000    0.000    0.000 
#    0.000    0.000    0.000    0.000    0.000    0.000 
#
# Total GULP energy -234478.543161 kJ/mol
# GULP energy per Si atom -5582.822456 kJ/mol
# Density = 2.234458 g / cm^3
# Si number density = 22.395549 Si / 1000 Ang^3
#
#
#
# Elastic Constant Matrix: (Units=GPa)
#
#
# Indices 1 2 3 4 5 6 
#
# 1 98.9405 48.9695 24.1916 0.0000 0.0000 0.0000
# 2 48.9695 98.9405 24.1916 0.0000 0.0000 0.0000
# 3 24.1916 24.1916 23.9536 0.0000 0.0000 0.0000
# 4 0.0000 0.0000 0.0000 11.1382 0.0000 0.0000
# 5 0.0000 0.0000 0.0000 0.0000 11.1382 0.0000
# 6 0.0000 0.0000 0.0000 0.0000 0.0000 24.9855
#
#
#
# Elastic Compliance Matrix: (Units=1/GPa)
#
#
# Indices 1 2 3 4 5 6 
#
# 1 0.015054 -0.004958 -0.010197 0.000000 0.000000 0.000000
# 2 -0.004958 0.015054 -0.010197 0.000000 0.000000 0.000000
# 3 -0.010197 -0.010197 0.062343 0.000000 0.000000 0.000000
# 4 0.000000 0.000000 0.000000 0.089781 0.000000 0.000000
# 5 0.000000 0.000000 0.000000 0.000000 0.089781 0.000000
# 6 0.000000 0.000000 0.000000 0.000000 0.000000 0.040023
#
#
# Mechanical properties :
#
#
# Convention : Reuss Voigt Hill
#
# Bulk Modulus (GPa) = 23.95244 46.28224 35.11734
# Shear Modulus (GPa) = 13.27472 17.75114 15.51293
#
# Velocity S-wave (km/s) = 2.43726 2.81840 2.63474
# Velocity P-wave (km/s) = 4.31726 5.59481 4.99703
#
# Compressibility (1/GPa) = 0.04174941
#
# Stress axis : x y z
#
# Youngs Moduli (GPa) = 66.42764 66.42764 16.04020
#
# Poissons Ratio (x) = 0.32933 0.16356
# Poissons Ratio (y) = 0.32933 0.16356
# Poissons Ratio (z) = 0.67734 0.67734
#
# Static dielectric constant tensor:
#      x y z
#    x 1.884910 0.000000 0.000000 
#    y 0.000000 1.884910 0.000000 
#    z 0.000000 0.000000 1.832870 
# 
# From -- ./inp_files/1002.got.cif
#   From: 2010.05.17/outbox.cif.g08.bks.cpg/sg170_cif.got.tgz:1002.got - 2010.05.20 11:14:30.
