data_PCOD9580865
_publ_section_title
;
Structure prediction by ZEFSAII (Michael W. Deem and Ramdas Pophale) SiO2 
 PCOD9580865
Probable space group: P 62
;
_chemical_formula_sum "Si O2"
_cell_formula_units_Z 18
_cell_length_a 11.454342
_cell_length_b 11.454342
_cell_length_c 6.268943
_cell_angle_alpha 90.000000
_cell_angle_beta 90.000000
_cell_angle_gamma 120.000000
_cell_volume 712.303773
_symmetry_space_group_name_H-M "P 62"
_symmetry_group_IT_number 171
_symmetry_cell_setting 'hexagonal'
loop_
_space_group_symop_operation_xyz
x,y,z
x-y,x,1/3+z
-y,x-y,2/3+z
-x,-y,z
-x+y,-x,1/3+z
y,-x+y,2/3+z
loop_
_atom_site_type_symbol
_atom_site_label
_atom_site_fract_x
_atom_site_fract_y
_atom_site_fract_z
Si Si1 0.256644 0.559236 0.303360
Si Si2 0.357139 0.006365 0.885290
Si Si3 0.232452 0.126091 0.549185
O O1 0.312579 0.710147 0.393714
O O2 0.337399 0.477265 0.335033
O O3 0.108224 0.467516 0.400553
O O4 0.301235 0.073313 0.716571
O O5 0.257521 0.926904 0.079363
O O6 0.137619 0.156046 0.697896
#
# Coordination Sequence:
#
# PCOD9580865 Si02
#       3
#     6   6   6
#     4  12  30  56  84 124 168 234 292 372 442 542
#     4  12  27  53  84 122 174 231 299 366 456 538
#     4  12  24  45  82 120 172 231 292 386 440 527
#
# _framework density 25.270114
#
# number of rings (size 3 to 8) (size 9 to 14) (size 15 to 20)
#    0.000    0.000    6.667    1.000    4.667    6.667 
#   12.000    0.000    0.000    0.000    0.000    0.000 
#    0.000    0.000    0.000    0.000    0.000    0.000 
#
# Total GULP energy -100330.277204 kJ/mol
# GULP energy per Si atom -5573.904289 kJ/mol
# Density = 2.521260 g / cm^3
# Si number density = 25.270114 Si / 1000 Ang^3
#
#
#
# Elastic Constant Matrix: (Units=GPa)
#
#
# Indices 1 2 3 4 5 6 
#
# 1 130.3878 60.5255 46.6335 0.0000 0.0000 0.0000
# 2 60.5255 130.3878 46.6335 0.0000 0.0000 0.0000
# 3 46.6335 46.6335 82.7591 0.0000 0.0000 0.0000
# 4 0.0000 0.0000 0.0000 35.0938 0.0000 0.0000
# 5 0.0000 0.0000 0.0000 0.0000 35.0938 0.0000
# 6 0.0000 0.0000 0.0000 0.0000 0.0000 34.9311
#
#
#
# Elastic Compliance Matrix: (Units=1/GPa)
#
#
# Indices 1 2 3 4 5 6 
#
# 1 0.010771 -0.003543 -0.004073 0.000000 0.000000 0.000000
# 2 -0.003543 0.010771 -0.004073 0.000000 0.000000 0.000000
# 3 -0.004073 -0.004073 0.016673 0.000000 0.000000 0.000000
# 4 0.000000 0.000000 0.000000 0.028495 0.000000 0.000000
# 5 0.000000 0.000000 0.000000 0.000000 0.028495 0.000000
# 6 0.000000 0.000000 0.000000 0.000000 0.000000 0.028628
#
#
# Mechanical properties :
#
#
# Convention : Reuss Voigt Hill
#
# Bulk Modulus (GPa) = 67.39622 72.34663 69.87143
# Shear Modulus (GPa) = 32.86120 33.67321 33.26720
#
# Velocity S-wave (km/s) = 3.61002 3.65434 3.63225
# Velocity P-wave (km/s) = 6.64112 6.81888 6.73059
#
# Compressibility (1/GPa) = 0.01483763
#
# Stress axis : x y z
#
# Youngs Moduli (GPa) = 92.84417 92.84417 59.97721
#
# Poissons Ratio (x) = 0.32896 0.24427
# Poissons Ratio (y) = 0.32896 0.24427
# Poissons Ratio (z) = 0.37812 0.37812
#
# Static dielectric constant tensor:
#      x y z
#    x 2.123610 0.000000 0.000000 
#    y 0.000000 2.123610 0.000000 
#    z 0.000000 0.000000 1.901760 
# 
# From -- ./inp_files/157.got.cif
#   From: 2010.05.17/outbox.cif.g08.bks.cpg/sg171_1_cif.got.tgz:157.got - 2010.05.20 11:16:09.
