data_PCOD9580931
_publ_section_title
;
Structure prediction by ZEFSAII (Michael W. Deem and Ramdas Pophale) SiO2 
 PCOD9580931
Probable space group: P 64
;
_chemical_formula_sum "Si O2"
_cell_formula_units_Z 42
_cell_length_a 20.907797
_cell_length_b 20.907797
_cell_length_c 5.070810
_cell_angle_alpha 90.000000
_cell_angle_beta 90.000000
_cell_angle_gamma 120.000000
_cell_volume 1919.660901
_symmetry_space_group_name_H-M "P 64"
_symmetry_group_IT_number 172
_symmetry_cell_setting 'hexagonal'
loop_
_space_group_symop_operation_xyz
x,y,z
x-y,x,2/3+z
-y,x-y,1/3+z
-x,-y,z
-x+y,-x,2/3+z
y,-x+y,1/3+z
loop_
_atom_site_type_symbol
_atom_site_label
_atom_site_fract_x
_atom_site_fract_y
_atom_site_fract_z
Si Si1 0.899061 0.030216 0.071300
Si Si2 0.809202 0.282855 0.424001
Si Si3 0.709099 0.663401 0.827362
Si Si4 0.812054 0.544926 0.246842
Si Si5 0.107950 0.871032 0.685328
Si Si6 0.634401 0.252571 0.884972
Si Si7 0.319023 0.272693 0.316583
O O1 0.980945 0.078516 0.173471
O O2 0.835552 0.964797 0.244632
O O3 0.879859 0.092186 0.973344
O O4 0.896864 0.316872 0.407959
O O5 0.788985 0.249189 0.712904
O O6 0.779936 0.340182 0.390125
O O7 0.765817 0.217031 0.206456
O O8 0.718517 0.705342 0.551159
O O9 0.788566 0.698309 0.972290
O O10 0.662673 0.677126 0.054299
O O11 0.809301 0.466950 0.201180
O O12 0.887852 0.612068 0.138510
O O13 0.188189 0.923369 0.558445
O O14 0.614497 0.289957 0.648258
#
# Coordination Sequence:
#
# PCOD9580931 Si02
#       7
#     6   6   6   6   6   6   6
#     4  12  26  43  56  84 114 161 204 278 342 409
#     4  11  23  41  70 104 142 179 228 284 343 409
#     4  12  26  45  68  99 136 180 229 284 341 410
#     4  11  23  41  70 104 142 179 228 284 343 409
#     4  12  26  42  66  86 120 161 231 272 344 394
#     4  10  20  39  71 108 142 175 223 282 340 393
#     4  12  26  45  68  99 136 180 229 284 341 410
#
# _framework density 21.878864
#
# number of rings (size 3 to 8) (size 9 to 14) (size 15 to 20)
#    0.000    0.571    4.286    4.286    0.000    2.857 
#    0.000    0.714    0.000    1.714    0.000    0.000 
#    0.000    0.000    0.000    0.000    0.000    0.000 
#
# Total GULP energy -234294.783394 kJ/mol
# GULP energy per Si atom -5578.447224 kJ/mol
# Density = 2.182907 g / cm^3
# Si number density = 21.878864 Si / 1000 Ang^3
#
#
#
# Elastic Constant Matrix: (Units=GPa)
#
#
# Indices 1 2 3 4 5 6 
#
# 1 87.3826 32.2648 17.2782 0.0000 0.0000 0.0000
# 2 32.2648 87.3826 17.2782 0.0000 0.0000 0.0000
# 3 17.2782 17.2782 69.2025 0.0000 0.0000 0.0000
# 4 0.0000 0.0000 0.0000 22.1822 0.0000 0.0000
# 5 0.0000 0.0000 0.0000 0.0000 22.1822 0.0000
# 6 0.0000 0.0000 0.0000 0.0000 0.0000 27.5589
#
#
#
# Elastic Compliance Matrix: (Units=1/GPa)
#
#
# Indices 1 2 3 4 5 6 
#
# 1 0.013575 -0.004568 -0.002249 0.000000 0.000000 0.000000
# 2 -0.004568 0.013575 -0.002249 0.000000 0.000000 0.000000
# 3 -0.002249 -0.002249 0.015573 0.000000 0.000000 0.000000
# 4 0.000000 0.000000 0.000000 0.045081 0.000000 0.000000
# 5 0.000000 0.000000 0.000000 0.000000 0.045081 0.000000
# 6 0.000000 0.000000 0.000000 0.000000 0.000000 0.036286
#
#
# Mechanical properties :
#
#
# Convention : Reuss Voigt Hill
#
# Bulk Modulus (GPa) = 40.66286 41.95666 41.30976
# Shear Modulus (GPa) = 25.57532 26.19440 25.88486
#
# Velocity S-wave (km/s) = 3.42270 3.46388 3.44335
# Velocity P-wave (km/s) = 5.85198 5.93434 5.89330
#
# Compressibility (1/GPa) = 0.02459247
#
# Stress axis : x y z
#
# Youngs Moduli (GPa) = 73.66375 73.66375 64.21218
#
# Poissons Ratio (x) = 0.33648 0.14441
# Poissons Ratio (y) = 0.33648 0.14441
# Poissons Ratio (z) = 0.16567 0.16567
#
# Static dielectric constant tensor:
#      x y z
#    x 1.855990 0.000000 0.000000 
#    y 0.000000 1.855990 0.000000 
#    z 0.000000 0.000000 1.872190 
# 
# From -- ./inp_files/318.got.cif
#   From: 2010.05.17/outbox.cif.g08.bks.cpg/sg172_1_cif.got.tgz:318.got - 2010.05.20 11:19:57.
