data_PCOD9580815
_publ_section_title
;
Structure prediction by ZEFSAII (Michael W. Deem and Ramdas Pophale) SiO2 
 PCOD9580815
Probable space group: P 62
;
_chemical_formula_sum "Si O2"
_cell_formula_units_Z 27
_cell_length_a 10.964780
_cell_length_b 10.964780
_cell_length_c 11.454544
_cell_angle_alpha 90.000000
_cell_angle_beta 90.000000
_cell_angle_gamma 120.000000
_cell_volume 1192.637007
_symmetry_space_group_name_H-M "P 62"
_symmetry_group_IT_number 171
_symmetry_cell_setting 'hexagonal'
loop_
_space_group_symop_operation_xyz
x,y,z
x-y,x,1/3+z
-y,x-y,2/3+z
-x,-y,z
-x+y,-x,1/3+z
y,-x+y,2/3+z
loop_
_atom_site_type_symbol
_atom_site_label
_atom_site_fract_x
_atom_site_fract_y
_atom_site_fract_z
Si Si1 0.000000 0.500000 0.968220
Si Si2 0.245523 0.839426 0.470413
Si Si3 0.379252 0.170744 0.179747
Si Si4 0.028741 0.867396 0.633768
Si Si5 0.409346 0.847205 0.677423
O O1 0.105812 0.628855 0.883835
O O2 0.047279 0.418175 0.058185
O O3 0.138359 0.882728 0.529102
O O4 0.295702 0.774466 0.575902
O O5 0.184411 0.714914 0.376926
O O6 0.280394 0.165636 0.284024
O O7 0.479351 0.323989 0.125141
O O8 0.257525 0.093847 0.081419
O O9 0.000000 0.000000 0.638361
O O10 0.500000 0.000000 0.625475
#
# Coordination Sequence:
#
# PCOD9580815 Si02
#       5
#     3   6   6   6   6
#     4  12  28  44  70 116 140 196 246 328 370 458
#     4  11  25  45  76 103 150 186 259 303 379 458
#     4  11  27  45  72 106 151 190 250 309 381 451
#     4  11  26  47  74 108 145 205 250 317 377 466
#     4  11  22  46  70 102 139 197 233 302 375 446
#
# _framework density 22.638907
#
# number of rings (size 3 to 8) (size 9 to 14) (size 15 to 20)
#    0.000    0.889    3.333    2.000    6.222    7.111 
#    0.000    0.000    0.000    0.000    0.000    0.000 
#    0.000    0.000    0.000    0.000    0.000    0.000 
#
# Total GULP energy -150318.833838 kJ/mol
# GULP energy per Si atom -5567.364216 kJ/mol
# Density = 2.258738 g / cm^3
# Si number density = 22.638907 Si / 1000 Ang^3
#
#
#
# Elastic Constant Matrix: (Units=GPa)
#
#
# Indices 1 2 3 4 5 6 
#
# 1 88.9861 27.9288 29.7827 0.0000 0.0000 0.0000
# 2 27.9288 88.9861 29.7827 0.0000 0.0000 0.0000
# 3 29.7827 29.7827 59.0243 0.0000 0.0000 0.0000
# 4 0.0000 0.0000 0.0000 51.0310 0.0000 0.0000
# 5 0.0000 0.0000 0.0000 0.0000 51.0310 0.0000
# 6 0.0000 0.0000 0.0000 0.0000 0.0000 30.5287
#
#
#
# Elastic Compliance Matrix: (Units=1/GPa)
#
#
# Indices 1 2 3 4 5 6 
#
# 1 0.013945 -0.002433 -0.005809 0.000000 0.000000 0.000000
# 2 -0.002433 0.013945 -0.005809 0.000000 0.000000 0.000000
# 3 -0.005809 -0.005809 0.022805 0.000000 0.000000 0.000000
# 4 0.000000 0.000000 0.000000 0.019596 0.000000 0.000000
# 5 0.000000 0.000000 0.000000 0.000000 0.019596 0.000000
# 6 0.000000 0.000000 0.000000 0.000000 0.000000 0.032756
#
#
# Mechanical properties :
#
#
# Convention : Reuss Voigt Hill
#
# Bulk Modulus (GPa) = 44.26041 45.77610 45.01826
# Shear Modulus (GPa) = 31.59023 36.48495 34.03759
#
# Velocity S-wave (km/s) = 3.73955 4.01883 3.88171
# Velocity P-wave (km/s) = 6.18374 6.46519 6.32603
#
# Compressibility (1/GPa) = 0.02259355
#
# Stress axis : x y z
#
# Youngs Moduli (GPa) = 71.70786 71.70786 43.85070
#
# Poissons Ratio (x) = 0.17443 0.25474
# Poissons Ratio (y) = 0.17443 0.25474
# Poissons Ratio (z) = 0.41657 0.41657
#
# Static dielectric constant tensor:
#      x y z
#    x 1.779270 0.000000 0.000000 
#    y 0.000000 1.779270 0.000000 
#    z 0.000000 0.000000 1.852910 
# 
# From -- ./inp_files/2311.got.cif
#   From: 2010.05.17/outbox.cif.g08.bks.cpg/sg171_2_cif.got.tgz:2311.got - 2010.05.20 11:16:09.
