data_PCOD9580828
_publ_section_title
;
Structure prediction by ZEFSAII (Michael W. Deem and Ramdas Pophale) SiO2 
 PCOD9580828
Probable space group: P 62
;
_chemical_formula_sum "Si O2"
_cell_formula_units_Z 39
_cell_length_a 18.914035
_cell_length_b 18.914035
_cell_length_c 6.529426
_cell_angle_alpha 90.000000
_cell_angle_beta 90.000000
_cell_angle_gamma 120.000000
_cell_volume 2022.898129
_symmetry_space_group_name_H-M "P 62"
_symmetry_group_IT_number 171
_symmetry_cell_setting 'hexagonal'
loop_
_space_group_symop_operation_xyz
x,y,z
x-y,x,1/3+z
-y,x-y,2/3+z
-x,-y,z
-x+y,-x,1/3+z
y,-x+y,2/3+z
loop_
_atom_site_type_symbol
_atom_site_label
_atom_site_fract_x
_atom_site_fract_y
_atom_site_fract_z
Si Si1 0.500000 0.500000 0.299230
Si Si2 0.217346 0.465618 0.164566
Si Si3 0.793514 0.120550 0.171426
Si Si4 0.532679 0.872754 0.165931
Si Si5 0.358976 0.623502 0.655560
Si Si6 0.698889 0.962232 0.421640
Si Si7 0.616746 0.674968 0.111550
O O1 0.565780 0.492153 0.436421
O O2 0.555010 0.581848 0.172213
O O3 0.286144 0.459908 0.299029
O O4 0.138738 0.431973 0.309296
O O5 0.185166 0.406760 0.966973
O O6 0.242852 0.557215 0.100546
O O7 0.887795 0.171824 0.108313
O O8 0.769818 0.043373 0.316142
O O9 0.732948 0.085689 0.977480
O O10 0.469449 0.805542 0.322258
O O11 0.618886 0.928094 0.275878
O O12 0.369621 0.655897 0.425994
O O13 0.681358 0.991016 0.639641
#
# Coordination Sequence:
#
# PCOD9580828 Si02
#       7
#     3   6   6   6   6   6   6
#     4  12  26  38  64  92 130 176 234 282 332 386
#     4  11  25  42  66  89 135 178 229 284 332 403
#     4  11  23  46  68 100 128 171 217 272 344 416
#     4  12  25  42  63  93 135 179 228 288 338 401
#     4  12  26  41  60  88 124 183 235 283 333 382
#     4  11  25  43  70  97 134 171 216 280 341 411
#     4  11  25  43  67  97 131 177 225 282 337 404
#
# _framework density 19.279271000000001
#
# number of rings (size 3 to 8) (size 9 to 14) (size 15 to 20)
#    0.000    0.615    4.615    2.769    8.615    0.000 
#    0.000    0.000    0.000    0.000    0.000    5.385 
#    0.000    0.000    0.000    0.000    0.000    0.000 
#
# Total GULP energy -218043.190077 kJ/mol
# GULP energy per Si atom -5590.851028 kJ/mol
# Density = 1.923539 g / cm^3
# Si number density = 19.279271 Si / 1000 Ang^3
#
#
#
# Elastic Constant Matrix: (Units=GPa)
#
#
# Indices 1 2 3 4 5 6 
#
# 1 111.7732 40.6038 40.5928 0.0000 0.0000 0.0000
# 2 40.6038 111.7732 40.5928 0.0000 0.0000 0.0000
# 3 40.5928 40.5928 93.4717 0.0000 0.0000 0.0000
# 4 0.0000 0.0000 0.0000 34.8419 0.0000 0.0000
# 5 0.0000 0.0000 0.0000 0.0000 34.8419 0.0000
# 6 0.0000 0.0000 0.0000 0.0000 0.0000 35.5847
#
#
#
# Elastic Compliance Matrix: (Units=1/GPa)
#
#
# Indices 1 2 3 4 5 6 
#
# 1 0.011295 -0.002756 -0.003708 0.000000 0.000000 0.000000
# 2 -0.002756 0.011295 -0.003708 0.000000 0.000000 0.000000
# 3 -0.003708 -0.003708 0.013919 0.000000 0.000000 0.000000
# 4 0.000000 0.000000 0.000000 0.028701 0.000000 0.000000
# 5 0.000000 0.000000 0.000000 0.000000 0.028701 0.000000
# 6 0.000000 0.000000 0.000000 0.000000 0.000000 0.028102
#
#
# Mechanical properties :
#
#
# Convention : Reuss Voigt Hill
#
# Bulk Modulus (GPa) = 61.86741 62.28855 62.07798
# Shear Modulus (GPa) = 33.84210 34.06894 33.95552
#
# Velocity S-wave (km/s) = 4.19425 4.20828 4.20127
# Velocity P-wave (km/s) = 7.45757 7.48275 7.47017
#
# Compressibility (1/GPa) = 0.01616360
#
# Stress axis : x y z
#
# Youngs Moduli (GPa) = 88.53765 88.53765 71.84399
#
# Poissons Ratio (x) = 0.24404 0.26640
# Poissons Ratio (y) = 0.24404 0.26640
# Poissons Ratio (z) = 0.32830 0.32830
#
# Static dielectric constant tensor:
#      x y z
#    x 1.663250 0.000000 0.000000 
#    y 0.000000 1.663250 0.000000 
#    z 0.000000 0.000000 1.722860 
# 
# From -- ./inp_files/769.got.cif
#   From: 2010.05.17/outbox.cif.g08.bks.cpg/sg171_1_cif.got.tgz:769.got - 2010.05.20 11:16:09.
