data_PCOD9580074
_publ_section_title
;
Structure prediction by ZEFSAII (Michael W. Deem and Ramdas Pophale) SiO2 
 PCOD9580074
Probable space group: P 61
;
_chemical_formula_sum "Si O2"
_cell_formula_units_Z 48
_cell_length_a 13.198281
_cell_length_b 13.198281
_cell_length_c 12.336619
_cell_angle_alpha 90.000000
_cell_angle_beta 90.000000
_cell_angle_gamma 120.000000
_cell_volume 1861.064929
_symmetry_space_group_name_H-M "P 61"
_symmetry_group_IT_number 169
_symmetry_cell_setting 'hexagonal'
loop_
_space_group_symop_operation_xyz
x,y,z
x-y,x,1/6+z
-y,x-y,1/3+z
-x,-y,1/2+z
-x+y,-x,2/3+z
y,-x+y,5/6+z
loop_
_atom_site_type_symbol
_atom_site_label
_atom_site_fract_x
_atom_site_fract_y
_atom_site_fract_z
Si Si1 0.234011 0.745817 0.752180
Si Si2 0.005190 0.357401 0.833706
Si Si3 0.106889 0.314070 0.356998
Si Si4 0.888735 0.798423 0.553384
Si Si5 0.718628 0.557266 0.378096
Si Si6 0.499277 0.537870 0.478237
Si Si7 0.430986 0.066163 0.092611
Si Si8 0.196869 0.082744 0.391057
O O1 0.175771 0.831950 0.731808
O O2 0.242905 0.698487 0.633760
O O3 0.356414 0.829296 0.808433
O O4 0.158059 0.644223 0.836829
O O5 0.142879 0.400054 0.858059
O O6 0.989476 0.432175 0.738313
O O7 0.964579 0.229529 0.791148
O O8 0.910419 0.330748 0.931568
O O9 0.232568 0.366205 0.305765
O O10 0.105841 0.292459 0.484680
O O11 0.018907 0.193862 0.297106
O O12 0.046580 0.392587 0.353854
O O13 0.864269 0.842578 0.436396
O O14 0.638697 0.592255 0.457963
O O15 0.445468 0.476318 0.362265
O O16 0.125725 0.116988 0.469206
#
# Coordination Sequence:
#
# PCOD9580074 Si02
#       8
#     6   6   6   6   6   6   6   6
#     4  11  26  50  79 116 161 217 278 350 431 510
#     4  12  27  52  86 120 166 228 281 355 441 519
#     4  11  19  39  69 114 147 191 264 334 400 502
#     4  11  21  40  70 108 156 200 257 320 398 499
#     4  12  28  52  82 123 168 219 282 351 443 523
#     4  12  28  53  84 116 170 229 285 365 434 512
#     4  11  25  44  81 114 156 216 279 350 427 501
#     4  12  22  42  73 111 160 206 264 325 412 502
#
# _framework density 25.791685999999999
#
# number of rings (size 3 to 8) (size 9 to 14) (size 15 to 20)
#    0.000    0.500    7.500    0.750    3.500    0.000 
#    0.000   20.000    0.000    0.000    0.000    0.000 
#    0.000    0.000    0.000    0.000    0.000    0.000 
#
# Total GULP energy -267449.850546 kJ/mol
# GULP energy per Si atom -5571.871886 kJ/mol
# Density = 2.573298 g / cm^3
# Si number density = 25.791686 Si / 1000 Ang^3
#
#
#
# Elastic Constant Matrix: (Units=GPa)
#
#
# Indices 1 2 3 4 5 6 
#
# 1 93.4395 28.5780 43.1236 0.0000 0.0000 0.0000
# 2 28.5780 93.4395 43.1236 0.0000 0.0000 0.0000
# 3 43.1236 43.1236 172.7404 0.0000 0.0000 0.0000
# 4 0.0000 0.0000 0.0000 21.7949 0.0000 0.0000
# 5 0.0000 0.0000 0.0000 0.0000 21.7949 0.0000
# 6 0.0000 0.0000 0.0000 0.0000 0.0000 32.4308
#
#
#
# Elastic Compliance Matrix: (Units=1/GPa)
#
#
# Indices 1 2 3 4 5 6 
#
# 1 0.012685 -0.002733 -0.002484 0.000000 0.000000 0.000000
# 2 -0.002733 0.012685 -0.002484 0.000000 0.000000 0.000000
# 3 -0.002484 -0.002484 0.007029 0.000000 0.000000 0.000000
# 4 0.000000 0.000000 0.000000 0.045882 0.000000 0.000000
# 5 0.000000 0.000000 0.000000 0.000000 0.045882 0.000000
# 6 0.000000 0.000000 0.000000 0.000000 0.000000 0.030835
#
#
# Mechanical properties :
#
#
# Convention : Reuss Voigt Hill
#
# Bulk Modulus (GPa) = 58.84013 65.47443 62.15728
# Shear Modulus (GPa) = 28.39837 31.52372 29.96104
#
# Velocity S-wave (km/s) = 3.32183 3.49985 3.41200
# Velocity P-wave (km/s) = 6.12992 6.46320 6.29876
#
# Compressibility (1/GPa) = 0.01699520
#
# Stress axis : x y z
#
# Youngs Moduli (GPa) = 78.83623 78.83623 142.25877
#
# Poissons Ratio (x) = 0.21545 0.35342
# Poissons Ratio (y) = 0.21545 0.35342
# Poissons Ratio (z) = 0.19586 0.19586
#
# Static dielectric constant tensor:
#      x y z
#    x 2.105230 0.000000 0.000000 
#    y 0.000000 2.105230 0.000000 
#    z 0.000000 0.000000 2.124410 
# 
# From -- ./inp_files/1037.got.cif
#   From: 2010.05.17/outbox.cif.g08.bks.cpg/sg169_cif.got.tgz:1037.got - 2010.05.20 11:12:54.
