data_PCOD9580878
_publ_section_title
;
Structure prediction by ZEFSAII (Michael W. Deem and Ramdas Pophale) SiO2 
 PCOD9580878
Probable space group: P 62
;
_chemical_formula_sum "Si O2"
_cell_formula_units_Z 15
_cell_length_a 7.602528
_cell_length_b 7.602528
_cell_length_c 10.505283
_cell_angle_alpha 90.000000
_cell_angle_beta 90.000000
_cell_angle_gamma 120.000000
_cell_volume 525.840999
_symmetry_space_group_name_H-M "P 62"
_symmetry_group_IT_number 171
_symmetry_cell_setting 'hexagonal'
loop_
_space_group_symop_operation_xyz
x,y,z
x-y,x,1/3+z
-y,x-y,2/3+z
-x,-y,z
-x+y,-x,1/3+z
y,-x+y,2/3+z
loop_
_atom_site_type_symbol
_atom_site_label
_atom_site_fract_x
_atom_site_fract_y
_atom_site_fract_z
Si Si1 0.265859 0.927566 0.050290
Si Si2 0.500000 0.500000 0.686726
Si Si3 0.661707 0.927565 0.656496
O O1 0.172180 0.827821 0.186726
O O2 0.500000 0.000000 0.044112
O O3 0.159320 0.723965 0.962164
O O4 0.226416 0.113208 0.020059
O O5 0.564645 0.723965 0.744621
O O6 0.500000 0.000000 0.662674
#
# Coordination Sequence:
#
# PCOD9580878 Si02
#       3
#     6   3   6
#     4  12  27  53  85 125 172 227 291 357 433 519
#     4  12  26  48  84 120 160 222 282 352 428 500
#     4  12  27  53  85 125 172 227 291 357 433 519
#
# _framework density 28.525734
#
# number of rings (size 3 to 8) (size 9 to 14) (size 15 to 20)
#    0.000    0.000    8.000    1.200    0.000    6.400 
#    0.000    8.000    0.000    0.000    0.000    0.000 
#    0.000    0.000    0.000    0.000    0.000    0.000 
#
# Total GULP energy -83736.362321 kJ/mol
# GULP energy per Si atom -5582.424155 kJ/mol
# Density = 2.846081 g / cm^3
# Si number density = 28.525734 Si / 1000 Ang^3
#
#
#
# Elastic Constant Matrix: (Units=GPa)
#
#
# Indices 1 2 3 4 5 6 
#
# 1 355.6274 160.8787 27.4815 0.0000 0.0000 0.0000
# 2 160.8787 355.6274 27.4815 0.0000 0.0000 0.0000
# 3 27.4815 27.4815 57.8169 0.0000 0.0000 0.0000
# 4 0.0000 0.0000 0.0000 47.3984 0.0000 0.0000
# 5 0.0000 0.0000 0.0000 0.0000 47.3984 0.0000
# 6 0.0000 0.0000 0.0000 0.0000 0.0000 97.3744
#
#
#
# Elastic Compliance Matrix: (Units=1/GPa)
#
#
# Indices 1 2 3 4 5 6 
#
# 1 0.003587 -0.001548 -0.000969 0.000000 0.000000 0.000000
# 2 -0.001548 0.003587 -0.000969 0.000000 0.000000 0.000000
# 3 -0.000969 -0.000969 0.018217 0.000000 0.000000 0.000000
# 4 0.000000 0.000000 0.000000 0.021098 0.000000 0.000000
# 5 0.000000 0.000000 0.000000 0.000000 0.021098 0.000000
# 6 0.000000 0.000000 0.000000 0.000000 0.000000 0.010270
#
#
# Mechanical properties :
#
#
# Convention : Reuss Voigt Hill
#
# Bulk Modulus (GPa) = 54.29251 133.41720 93.85486
# Shear Modulus (GPa) = 54.96382 75.31624 65.14003
#
# Velocity S-wave (km/s) = 4.39431 5.14395 4.78384
# Velocity P-wave (km/s) = 6.69483 9.06381 7.96786
#
# Compressibility (1/GPa) = 0.01841875
#
# Stress axis : x y z
#
# Youngs Moduli (GPa) = 278.78244 278.78244 54.89249
#
# Poissons Ratio (x) = 0.43150 0.05321
# Poissons Ratio (y) = 0.43150 0.05321
# Poissons Ratio (z) = 0.27022 0.27022
#
# Static dielectric constant tensor:
#      x y z
#    x 2.309190 0.000000 0.000000 
#    y 0.000000 2.309190 0.000000 
#    z 0.000000 0.000000 2.826860 
# 
# From -- ./inp_files/2221.got.cif
#   From: 2010.05.17/outbox.cif.g08.bks.cpg/sg171_2_cif.got.tgz:2221.got - 2010.05.20 11:16:09.
