data_PCOD9580835
_publ_section_title
;
Structure prediction by ZEFSAII (Michael W. Deem and Ramdas Pophale) SiO2 
 PCOD9580835
Probable space group: P 62
;
_chemical_formula_sum "Si O2"
_cell_formula_units_Z 42
_cell_length_a 13.654106
_cell_length_b 13.654106
_cell_length_c 12.274623
_cell_angle_alpha 90.000000
_cell_angle_beta 90.000000
_cell_angle_gamma 120.000000
_cell_volume 1981.825143
_symmetry_space_group_name_H-M "P 62"
_symmetry_group_IT_number 171
_symmetry_cell_setting 'hexagonal'
loop_
_space_group_symop_operation_xyz
x,y,z
x-y,x,1/3+z
-y,x-y,2/3+z
-x,-y,z
-x+y,-x,1/3+z
y,-x+y,2/3+z
loop_
_atom_site_type_symbol
_atom_site_label
_atom_site_fract_x
_atom_site_fract_y
_atom_site_fract_z
Si Si1 0.916343 0.076158 0.980790
Si Si2 0.971413 0.126389 0.213879
Si Si3 0.664471 0.215429 0.412157
Si Si4 0.639959 0.918096 0.697110
Si Si5 0.720318 0.090891 0.892309
Si Si6 0.343741 0.568498 0.510587
Si Si7 0.000000 0.500000 0.703087
Si Si8 0.500000 0.500000 0.891113
O O1 0.814479 0.098907 0.975249
O O2 0.000360 0.137299 0.880568
O O3 0.876305 0.945389 0.953008
O O4 0.994985 0.137372 0.085715
O O5 0.934086 0.206423 0.269277
O O6 0.789832 0.230934 0.403986
O O7 0.666048 0.326004 0.462737
O O8 0.609688 0.203369 0.293307
O O9 0.587068 0.104742 0.483765
O O10 0.706168 0.006160 0.794233
O O11 0.560147 0.955420 0.638277
O O12 0.752418 0.216063 0.854314
O O13 0.604648 0.033242 0.957665
O O14 0.418823 0.531188 0.439214
#
# Coordination Sequence:
#
# PCOD9580835 Si02
#       8
#     6   6   6   6   6   6   3   3
#     4  11  25  46  73 107 148 188 240 304 370 439
#     4  11  25  46  73 107 148 188 240 304 370 439
#     4  12  27  51  76 108 153 194 248 311 370 447
#     4  12  28  46  77 111 146 198 250 305 371 447
#     4  12  28  46  77 111 146 198 250 305 371 447
#     4  12  27  51  76 108 153 194 248 311 370 447
#     4  12  28  48  78 108 148 198 246 306 376 440
#     4  12  28  48  78 108 148 198 246 306 376 440
#
# _framework density 21.192585999999999
#
# number of rings (size 3 to 8) (size 9 to 14) (size 15 to 20)
#    0.000    0.286    2.857    6.000   12.000    0.000 
#    0.000    0.000    0.000    0.000    0.000    0.000 
#    0.000    0.000    0.000    0.000    0.000    0.000 
#
# Total GULP energy -234779.913672 kJ/mol
# GULP energy per Si atom -5589.997945 kJ/mol
# Density = 2.114435 g / cm^3
# Si number density = 21.192586 Si / 1000 Ang^3
#
#
#
# Elastic Constant Matrix: (Units=GPa)
#
#
# Indices 1 2 3 4 5 6 
#
# 1 77.9000 48.7845 10.2101 0.0000 0.0000 0.0000
# 2 48.7845 77.9000 10.2101 0.0000 0.0000 0.0000
# 3 10.2101 10.2101 71.7983 0.0000 0.0000 0.0000
# 4 0.0000 0.0000 0.0000 39.9518 0.0000 0.0000
# 5 0.0000 0.0000 0.0000 0.0000 39.9518 0.0000
# 6 0.0000 0.0000 0.0000 0.0000 0.0000 14.5577
#
#
#
# Elastic Compliance Matrix: (Units=1/GPa)
#
#
# Indices 1 2 3 4 5 6 
#
# 1 0.021212 -0.013134 -0.001149 0.000000 0.000000 0.000000
# 2 -0.013134 0.021212 -0.001149 0.000000 0.000000 0.000000
# 3 -0.001149 -0.001149 0.014255 0.000000 0.000000 0.000000
# 4 0.000000 0.000000 0.000000 0.025030 0.000000 0.000000
# 5 0.000000 0.000000 0.000000 0.000000 0.025030 0.000000
# 6 0.000000 0.000000 0.000000 0.000000 0.000000 0.068692
#
#
# Mechanical properties :
#
#
# Convention : Reuss Voigt Hill
#
# Bulk Modulus (GPa) = 38.73436 40.66752 39.70094
# Shear Modulus (GPa) = 23.26662 29.45183 26.35923
#
# Velocity S-wave (km/s) = 3.31700 3.73194 3.53057
# Velocity P-wave (km/s) = 5.74343 6.14825 5.94929
#
# Compressibility (1/GPa) = 0.02581687
#
# Stress axis : x y z
#
# Youngs Moduli (GPa) = 47.14221 47.14221 70.15257
#
# Poissons Ratio (x) = 0.61915 0.08059
# Poissons Ratio (y) = 0.61915 0.08059
# Poissons Ratio (z) = 0.05416 0.05416
#
# Static dielectric constant tensor:
#      x y z
#    x 1.744020 0.000000 0.000000 
#    y 0.000000 1.744020 0.000000 
#    z 0.000000 0.000000 1.749960 
# 
# From -- ./inp_files/4684.got.cif
#   From: 2010.05.17/outbox.cif.g08.bks.cpg/sg171_3_cif.got.tgz:4684.got - 2010.05.20 11:16:09.
