data_PCOD9580466
_publ_section_title
;
Structure prediction by ZEFSAII (Michael W. Deem and Ramdas Pophale) SiO2 
 PCOD9580466
Probable space group: P 62
;
_chemical_formula_sum "Si O2"
_cell_formula_units_Z 36
_cell_length_a 8.605923
_cell_length_b 8.605923
_cell_length_c 26.923091
_cell_angle_alpha 90.000000
_cell_angle_beta 90.000000
_cell_angle_gamma 120.000000
_cell_volume 1726.833490
_symmetry_space_group_name_H-M "P 62"
_symmetry_group_IT_number 171
_symmetry_cell_setting 'hexagonal'
loop_
_space_group_symop_operation_xyz
x,y,z
x-y,x,1/3+z
-y,x-y,2/3+z
-x,-y,z
-x+y,-x,1/3+z
y,-x+y,2/3+z
loop_
_atom_site_type_symbol
_atom_site_label
_atom_site_fract_x
_atom_site_fract_y
_atom_site_fract_z
Si Si1 0.818519 0.502384 0.964450
Si Si2 0.315166 0.313593 0.223610
Si Si3 0.204951 0.165452 0.806872
Si Si4 0.365374 0.311995 0.523627
Si Si5 0.851754 0.306109 0.663285
Si Si6 0.837770 0.797310 0.035987
O O1 0.831360 0.537617 0.905772
O O2 0.638336 0.321255 0.979046
O O3 0.000000 0.500000 0.978018
O O4 0.824431 0.669205 0.991790
O O5 0.500000 0.500000 0.215413
O O6 0.168973 0.307136 0.185744
O O7 0.268318 0.327743 0.280986
O O8 0.318719 0.130024 0.210707
O O9 0.172265 0.326880 0.819252
O O10 0.276819 0.150914 0.753637
O O11 0.000000 0.000000 0.807432
O O12 0.500000 0.500000 0.499499
O O13 0.803599 0.149012 0.702289
O O14 0.000000 0.500000 0.682357
O O15 0.000000 0.000000 0.029169
#
# Coordination Sequence:
#
# PCOD9580466 Si02
#       6
#     6   6   6   6   6   6
#     4  11  22  38  61  93 123 155 202 248 299 361
#     4  10  19  35  58  87 118 152 196 248 300 350
#     4   9  21  38  57  83 117 159 198 238 300 363
#     4  10  19  37  62  86 117 154 200 252 297 354
#     4  11  22  38  63  91 120 157 203 251 301 358
#     4  11  22  40  59  84 123 163 201 247 302 360
#
# _framework density 20.847408999999999
#
# number of rings (size 3 to 8) (size 9 to 14) (size 15 to 20)
#    0.000    1.667    0.000    7.500    0.000    2.667 
#    0.000   18.333    0.000    0.000    0.000    0.000 
#    0.000    0.000    0.000    0.000    0.000    0.000 
#
# Total GULP energy -201060.965035 kJ/mol
# GULP energy per Si atom -5585.026807 kJ/mol
# Density = 2.079996 g / cm^3
# Si number density = 20.847409 Si / 1000 Ang^3
#
#
#
# Elastic Constant Matrix: (Units=GPa)
#
#
# Indices 1 2 3 4 5 6 
#
# 1 85.9974 41.2813 29.5713 0.0000 0.0000 0.0000
# 2 41.2813 85.9974 29.5713 0.0000 0.0000 0.0000
# 3 29.5713 29.5713 40.7158 0.0000 0.0000 0.0000
# 4 0.0000 0.0000 0.0000 -1.6710 0.0000 0.0000
# 5 0.0000 0.0000 0.0000 0.0000 -1.6710 0.0000
# 6 0.0000 0.0000 0.0000 0.0000 0.0000 22.3581
#
#
#
# Elastic Compliance Matrix: (Units=1/GPa)
#
#
# Indices 1 2 3 4 5 6 
#
# 1 0.017111 -0.005252 -0.008613 0.000000 0.000000 0.000000
# 2 -0.005252 0.017111 -0.008613 0.000000 0.000000 0.000000
# 3 -0.008613 -0.008613 0.037072 0.000000 0.000000 0.000000
# 4 0.000000 0.000000 0.000000 -0.598440 0.000000 0.000000
# 5 0.000000 0.000000 0.000000 0.000000 -0.598440 0.000000
# 6 0.000000 0.000000 0.000000 0.000000 0.000000 0.044727
#
#
# Mechanical properties :
#
#
# Convention : Reuss Voigt Hill
#
# Bulk Modulus (GPa) = 37.96876 45.95095 41.95985
# Shear Modulus (GPa) = -4.86796 11.28898 3.21051
#
# Velocity S-wave (km/s) = -1.52974 2.32955 1.24232
# Velocity P-wave (km/s) = 3.89000 5.41527 4.71472
#
# Compressibility (1/GPa) = 0.02633744
#
# Stress axis : x y z
#
# Youngs Moduli (GPa) = 58.44144 58.44144 26.97484
#
# Poissons Ratio (x) = 0.30694 0.23234
# Poissons Ratio (y) = 0.30694 0.23234
# Poissons Ratio (z) = 0.50336 0.50336
#
# Static dielectric constant tensor:
#      x y z
#    x 1.802840 0.000000 0.000000 
#    y 0.000000 1.802840 0.000000 
#    z 0.000000 0.000000 1.760290 
# 
# From -- ./inp_files/5732.got.cif
#   From: 2010.05.17/outbox.cif.g08.bks.cpg/sg171_3_cif.got.tgz:5732.got - 2010.05.20 11:16:09.
