data_PCOD9580151
_publ_section_title
;
Structure prediction by ZEFSAII (Michael W. Deem and Ramdas Pophale) SiO2 
 PCOD9580151
Probable space group: P 61
;
_chemical_formula_sum "Si O2"
_cell_formula_units_Z 24
_cell_length_a 15.112323
_cell_length_b 15.112323
_cell_length_c 4.835429
_cell_angle_alpha 90.000000
_cell_angle_beta 90.000000
_cell_angle_gamma 120.000000
_cell_volume 956.374740
_symmetry_space_group_name_H-M "P 61"
_symmetry_group_IT_number 169
_symmetry_cell_setting 'hexagonal'
loop_
_space_group_symop_operation_xyz
x,y,z
x-y,x,1/6+z
-y,x-y,1/3+z
-x,-y,1/2+z
-x+y,-x,2/3+z
y,-x+y,5/6+z
loop_
_atom_site_type_symbol
_atom_site_label
_atom_site_fract_x
_atom_site_fract_y
_atom_site_fract_z
Si Si1 0.439780 0.939011 0.401500
Si Si2 0.338093 0.566898 0.474097
Si Si3 0.882630 0.116453 0.436720
Si Si4 0.627310 0.794934 0.098016
O O1 0.442759 0.847857 0.565050
O O2 0.324029 0.915817 0.380470
O O3 0.508173 0.033708 0.603920
O O4 0.409210 0.666374 0.655187
O O5 0.272044 0.470109 0.667942
O O6 0.874302 0.153981 0.740957
O O7 0.994954 0.165114 0.308611
O O8 0.820120 0.153176 0.243050
#
# Coordination Sequence:
#
# PCOD9580151 Si02
#       4
#     6   6   6   6
#     4  12  28  47  76 113 162 216 273 334 400 475
#     4  12  26  50  75 112 163 224 277 327 397 495
#     4  12  30  55  84 117 156 202 266 350 432 501
#     4  12  28  50  79 118 155 206 268 329 401 483
#
# _framework density 25.094767000000001
#
# number of rings (size 3 to 8) (size 9 to 14) (size 15 to 20)
#    0.000    0.000    2.500    6.000   10.500    2.000 
#    0.000    0.000    0.000    0.000    0.000    0.000 
#    0.000    0.000    0.000    0.000    0.000    0.000 
#
# Total GULP energy -134704.832962 kJ/mol
# GULP energy per Si atom -5612.701373 kJ/mol
# Density = 2.503765 g / cm^3
# Si number density = 25.094767 Si / 1000 Ang^3
#
#
#
# Elastic Constant Matrix: (Units=GPa)
#
#
# Indices 1 2 3 4 5 6 
#
# 1 114.7429 36.3831 5.2652 0.0000 0.0000 0.0000
# 2 36.3831 114.7429 5.2652 0.0000 0.0000 0.0000
# 3 5.2652 5.2652 103.1155 0.0000 0.0000 0.0000
# 4 0.0000 0.0000 0.0000 50.3491 0.0000 0.0000
# 5 0.0000 0.0000 0.0000 0.0000 50.3491 0.0000
# 6 0.0000 0.0000 0.0000 0.0000 0.0000 39.1799
#
#
#
# Elastic Compliance Matrix: (Units=1/GPa)
#
#
# Indices 1 2 3 4 5 6 
#
# 1 0.009701 -0.003061 -0.000339 0.000000 0.000000 0.000000
# 2 -0.003061 0.009701 -0.000339 0.000000 0.000000 0.000000
# 3 -0.000339 -0.000339 0.009732 0.000000 0.000000 0.000000
# 4 0.000000 0.000000 0.000000 0.019861 0.000000 0.000000
# 5 0.000000 0.000000 0.000000 0.000000 0.019861 0.000000
# 6 0.000000 0.000000 0.000000 0.000000 0.000000 0.025523
#
#
# Mechanical properties :
#
#
# Convention : Reuss Voigt Hill
#
# Bulk Modulus (GPa) = 46.17358 47.38095 46.77726
# Shear Modulus (GPa) = 45.83909 47.02147 46.43028
#
# Velocity S-wave (km/s) = 4.27856 4.33339 4.30606
# Velocity P-wave (km/s) = 6.54581 6.63019 6.58814
#
# Compressibility (1/GPa) = 0.02165741
#
# Stress axis : x y z
#
# Youngs Moduli (GPa) = 103.08069 103.08069 102.74864
#
# Poissons Ratio (x) = 0.31548 0.03484
# Poissons Ratio (y) = 0.31548 0.03484
# Poissons Ratio (z) = 0.03495 0.03495
#
# Static dielectric constant tensor:
#      x y z
#    x 2.000470 0.000000 0.000000 
#    y 0.000000 2.000470 0.000000 
#    z 0.000000 0.000000 1.910660 
# 
# From -- ./inp_files/91.got.cif
#   From: 2010.05.17/outbox.cif.g08.bks.cpg/sg169_cif.got.tgz:91.got - 2010.05.20 11:12:54.
