data_PCOD9580306
_publ_section_title
;
Structure prediction by ZEFSAII (Michael W. Deem and Ramdas Pophale) SiO2 
 PCOD9580306
Probable space group: P 65
;
_chemical_formula_sum "Si O2"
_cell_formula_units_Z 36
_cell_length_a 14.065498
_cell_length_b 14.065498
_cell_length_c 9.134993
_cell_angle_alpha 90.000000
_cell_angle_beta 90.000000
_cell_angle_gamma 120.000000
_cell_volume 1565.125175
_symmetry_space_group_name_H-M "P 65"
_symmetry_group_IT_number 170
_symmetry_cell_setting 'hexagonal'
loop_
_space_group_symop_operation_xyz
x,y,z
x-y,x,5/6+z
-y,x-y,2/3+z
-x,-y,1/2+z
-x+y,-x,1/3+z
y,-x+y,1/6+z
loop_
_atom_site_type_symbol
_atom_site_label
_atom_site_fract_x
_atom_site_fract_y
_atom_site_fract_z
Si Si1 0.450287 0.546899 0.571270
Si Si2 0.531778 0.731035 0.795176
Si Si3 0.748645 0.427772 0.940040
Si Si4 0.202479 0.157938 0.816659
Si Si5 0.949884 0.575142 0.123273
Si Si6 0.121375 0.215330 0.117214
O O1 0.526465 0.636794 0.691582
O O2 0.356634 0.568634 0.503130
O O3 0.394501 0.435398 0.665012
O O4 0.532599 0.557667 0.440841
O O5 0.425708 0.736052 0.736930
O O6 0.653344 0.833448 0.787912
O O7 0.503548 0.705256 0.965227
O O8 0.839815 0.473185 0.064122
O O9 0.140238 0.174627 0.679959
O O10 0.328894 0.250412 0.809882
O O11 0.162022 0.187150 0.966812
O O12 0.158168 0.167683 0.253193
#
# Coordination Sequence:
#
# PCOD9580306 Si02
#       6
#     6   6   6   6   6   6
#     4  12  25  44  70 106 153 206 255 318 383 472
#     4  12  25  44  73 107 153 203 245 318 381 482
#     4  12  26  45  69 108 154 201 253 309 397 464
#     4  10  22  44  71 103 141 189 249 312 377 445
#     4  12  26  43  71 108 149 201 254 310 381 466
#     4  10  24  46  76 108 144 196 260 321 389 451
#
# _framework density 23.001356000000001
#
# number of rings (size 3 to 8) (size 9 to 14) (size 15 to 20)
#    0.000    0.667    3.333    4.000    7.000    1.333 
#    0.000   10.000    0.000    0.000    0.000    0.000 
#    0.000    0.000    0.000    0.000    0.000    0.000 
#
# Total GULP energy -201170.769159 kJ/mol
# GULP energy per Si atom -5588.076921 kJ/mol
# Density = 2.294900 g / cm^3
# Si number density = 23.001356 Si / 1000 Ang^3
#
#
#
# Elastic Constant Matrix: (Units=GPa)
#
#
# Indices 1 2 3 4 5 6 
#
# 1 80.7264 0.2771 27.9261 0.0000 0.0000 0.0000
# 2 0.2771 80.7264 27.9261 0.0000 0.0000 0.0000
# 3 27.9261 27.9261 106.4316 0.0000 0.0000 0.0000
# 4 0.0000 0.0000 0.0000 27.2972 0.0000 0.0000
# 5 0.0000 0.0000 0.0000 0.0000 27.2972 0.0000
# 6 0.0000 0.0000 0.0000 0.0000 0.0000 40.2246
#
#
#
# Elastic Compliance Matrix: (Units=1/GPa)
#
#
# Indices 1 2 3 4 5 6 
#
# 1 0.013751 0.001321 -0.003955 0.000000 0.000000 0.000000
# 2 0.001321 0.013751 -0.003955 0.000000 0.000000 0.000000
# 3 -0.003955 -0.003955 0.011471 0.000000 0.000000 0.000000
# 4 0.000000 0.000000 0.000000 0.036634 0.000000 0.000000
# 5 0.000000 0.000000 0.000000 0.000000 0.036634 0.000000
# 6 0.000000 0.000000 0.000000 0.000000 0.000000 0.024860
#
#
# Mechanical properties :
#
#
# Convention : Reuss Voigt Hill
#
# Bulk Modulus (GPa) = 38.76542 42.23810 40.50176
# Shear Modulus (GPa) = 31.47095 33.08081 32.27588
#
# Velocity S-wave (km/s) = 3.70296 3.79649 3.75002
# Velocity P-wave (km/s) = 5.93066 6.13359 6.03298
#
# Compressibility (1/GPa) = 0.02579619
#
# Stress axis : x y z
#
# Youngs Moduli (GPa) = 72.72181 72.72181 87.17650
#
# Poissons Ratio (x) = -0.09605 0.34475
# Poissons Ratio (y) = -0.09605 0.34475
# Poissons Ratio (z) = 0.28759 0.28759
#
# Static dielectric constant tensor:
#      x y z
#    x 1.874350 0.000000 0.000000 
#    y 0.000000 1.874350 0.000000 
#    z 0.000000 0.000000 1.862330 
# 
# From -- ./inp_files/590.got.cif
#   From: 2010.05.17/outbox.cif.g08.bks.cpg/sg170_cif.got.tgz:590.got - 2010.05.20 11:14:30.
