data_PCOD9580443
_publ_section_title
;
Structure prediction by ZEFSAII (Michael W. Deem and Ramdas Pophale) SiO2 
 PCOD9580443
Probable space group: P 62
;
_chemical_formula_sum "Si O2"
_cell_formula_units_Z 36
_cell_length_a 8.537276
_cell_length_b 8.537276
_cell_length_c 25.787394
_cell_angle_alpha 90.000000
_cell_angle_beta 90.000000
_cell_angle_gamma 120.000000
_cell_volume 1627.708874
_symmetry_space_group_name_H-M "P 62"
_symmetry_group_IT_number 171
_symmetry_cell_setting 'hexagonal'
loop_
_space_group_symop_operation_xyz
x,y,z
x-y,x,1/3+z
-y,x-y,2/3+z
-x,-y,z
-x+y,-x,1/3+z
y,-x+y,2/3+z
loop_
_atom_site_type_symbol
_atom_site_label
_atom_site_fract_x
_atom_site_fract_y
_atom_site_fract_z
Si Si1 0.209785 0.417811 0.992560
Si Si2 0.536972 0.787506 0.289524
Si Si3 0.121173 0.205775 0.291462
Si Si4 0.847165 0.811258 0.167814
Si Si5 0.827476 0.511076 0.103739
Si Si6 0.485316 0.805260 0.167068
O O1 0.286726 0.631021 0.983392
O O2 0.288766 0.297397 0.968449
O O3 0.004249 0.335080 0.968627
O O4 0.222222 0.409050 0.054326
O O5 0.669111 0.711804 0.307368
O O6 0.480747 0.759901 0.228656
O O7 0.139778 0.187043 0.229917
O O8 0.000000 0.000000 0.313407
O O9 0.881224 0.655375 0.148892
O O10 0.659104 0.791671 0.150262
O O11 0.000000 0.000000 0.146715
O O12 0.676123 0.328446 0.129907
O O13 0.000000 0.500000 0.085853
O O14 0.500000 0.000000 0.164675
#
# Coordination Sequence:
#
# PCOD9580443 Si02
#       6
#     6   6   6   6   6   6
#     4  10  18  36  60  95 137 174 226 293 360 427
#     4   9  17  35  64  93 124 180 234 289 348 427
#     4   8  17  32  62  94 122 171 232 281 345 420
#     4  10  22  41  67 100 126 175 235 280 340 427
#     4  12  25  38  62 104 144 180 224 284 366 431
#     4  11  22  42  70  94 135 180 233 295 348 413
#
# _framework density 22.116976000000001
#
# number of rings (size 3 to 8) (size 9 to 14) (size 15 to 20)
#    0.000    2.000    3.333    2.500    2.333    2.000 
#    3.000    0.000    7.333    0.000    0.000    0.000 
#    0.000    0.000    0.000    0.000    0.000    0.000 
#
# Total GULP energy -200575.498894 kJ/mol
# GULP energy per Si atom -5571.541636 kJ/mol
# Density = 2.206664 g / cm^3
# Si number density = 22.116976 Si / 1000 Ang^3
#
#
#
# Elastic Constant Matrix: (Units=GPa)
#
#
# Indices 1 2 3 4 5 6 
#
# 1 91.0071 32.0110 11.5620 0.0000 0.0000 0.0000
# 2 32.0110 91.0071 11.5620 0.0000 0.0000 0.0000
# 3 11.5620 11.5620 40.1814 0.0000 0.0000 0.0000
# 4 0.0000 0.0000 0.0000 10.4891 0.0000 0.0000
# 5 0.0000 0.0000 0.0000 0.0000 10.4891 0.0000
# 6 0.0000 0.0000 0.0000 0.0000 0.0000 29.4980
#
#
#
# Elastic Compliance Matrix: (Units=1/GPa)
#
#
# Indices 1 2 3 4 5 6 
#
# 1 0.012772 -0.004178 -0.002473 0.000000 0.000000 0.000000
# 2 -0.004178 0.012772 -0.002473 0.000000 0.000000 0.000000
# 3 -0.002473 -0.002473 0.026310 0.000000 0.000000 0.000000
# 4 0.000000 0.000000 0.000000 0.095337 0.000000 0.000000
# 5 0.000000 0.000000 0.000000 0.000000 0.095337 0.000000
# 6 0.000000 0.000000 0.000000 0.000000 0.000000 0.033901
#
#
# Mechanical properties :
#
#
# Convention : Reuss Voigt Hill
#
# Bulk Modulus (GPa) = 29.75621 36.94061 33.34841
# Shear Modulus (GPa) = 16.34638 21.23263 18.78950
#
# Velocity S-wave (km/s) = 2.72157 3.10177 2.91787
# Velocity P-wave (km/s) = 4.83313 5.43752 5.14421
#
# Compressibility (1/GPa) = 0.03360643
#
# Stress axis : x y z
#
# Youngs Moduli (GPa) = 78.29630 78.29630 38.00811
#
# Poissons Ratio (x) = 0.32715 0.09399
# Poissons Ratio (y) = 0.32715 0.09399
# Poissons Ratio (z) = 0.19361 0.19361
#
# Static dielectric constant tensor:
#      x y z
#    x 1.845740 0.000000 0.000000 
#    y 0.000000 1.845740 0.000000 
#    z 0.000000 0.000000 1.773120 
# 
# From -- ./inp_files/5953.got.cif
#   From: 2010.05.17/outbox.cif.g08.bks.cpg/sg171_3_cif.got.tgz:5953.got - 2010.05.20 11:16:09.
