data_PCOD9580849
_publ_section_title
;
Structure prediction by ZEFSAII (Michael W. Deem and Ramdas Pophale) SiO2 
 PCOD9580849
Probable space group: P 62
;
_chemical_formula_sum "Si O2"
_cell_formula_units_Z 21
_cell_length_a 11.758938
_cell_length_b 11.758938
_cell_length_c 7.111972
_cell_angle_alpha 90.000000
_cell_angle_beta 90.000000
_cell_angle_gamma 120.000000
_cell_volume 851.641607
_symmetry_space_group_name_H-M "P 62"
_symmetry_group_IT_number 171
_symmetry_cell_setting 'hexagonal'
loop_
_space_group_symop_operation_xyz
x,y,z
x-y,x,1/3+z
-y,x-y,2/3+z
-x,-y,z
-x+y,-x,1/3+z
y,-x+y,2/3+z
loop_
_atom_site_type_symbol
_atom_site_label
_atom_site_fract_x
_atom_site_fract_y
_atom_site_fract_z
Si Si1 0.172994 0.119777 0.690090
Si Si2 0.686765 0.139468 0.448693
Si Si3 0.500000 0.500000 0.493348
Si Si4 0.639222 0.974104 0.809719
O O1 0.305552 0.260060 0.697673
O O2 0.224908 0.027316 0.784756
O O3 0.132852 0.063574 0.483393
O O4 0.817728 0.280976 0.444445
O O5 0.573168 0.120778 0.307205
O O6 0.643786 0.077221 0.656155
O O7 0.601788 0.605833 0.346691
#
# Coordination Sequence:
#
# PCOD9580849 Si02
#       4
#     6   6   3   6
#     4   8  16  38  70  92 130 163 208 253 318 382
#     4   9  20  40  66  91 125 166 210 253 316 368
#     4  12  22  36  76  86 128 170 210 264 300 374
#     4   9  20  40  66  91 125 166 210 253 316 368
#
# _framework density 24.658258
#
# number of rings (size 3 to 8) (size 9 to 14) (size 15 to 20)
#    1.714    1.143    0.000    0.857    0.000    2.286 
#    0.000    0.000   37.714    1.714    0.000    0.000 
#    0.000    0.000    0.000    0.000    0.000    0.000 
#
# Total GULP energy -116999.708210 kJ/mol
# GULP energy per Si atom -5571.414677 kJ/mol
# Density = 2.460213 g / cm^3
# Si number density = 24.658258 Si / 1000 Ang^3
#
#
#
# Elastic Constant Matrix: (Units=GPa)
#
#
# Indices 1 2 3 4 5 6 
#
# 1 72.2889 10.1973 45.0599 0.0000 0.0000 0.0000
# 2 10.1973 72.2889 45.0599 0.0000 0.0000 0.0000
# 3 45.0599 45.0599 210.9951 0.0000 0.0000 0.0000
# 4 0.0000 0.0000 0.0000 25.4508 0.0000 0.0000
# 5 0.0000 0.0000 0.0000 0.0000 25.4508 0.0000
# 6 0.0000 0.0000 0.0000 0.0000 0.0000 31.0458
#
#
#
# Elastic Compliance Matrix: (Units=1/GPa)
#
#
# Indices 1 2 3 4 5 6 
#
# 1 0.015959 -0.000146 -0.003377 0.000000 0.000000 0.000000
# 2 -0.000146 0.015959 -0.003377 0.000000 0.000000 0.000000
# 3 -0.003377 -0.003377 0.006182 0.000000 0.000000 0.000000
# 4 0.000000 0.000000 0.000000 0.039291 0.000000 0.000000
# 5 0.000000 0.000000 0.000000 0.000000 0.039291 0.000000
# 6 0.000000 0.000000 0.000000 0.000000 0.000000 0.032210
#
#
# Mechanical properties :
#
#
# Convention : Reuss Voigt Hill
#
# Bulk Modulus (GPa) = 41.15322 61.80079 51.47700
# Shear Modulus (GPa) = 29.27516 33.40654 31.34085
#
# Velocity S-wave (km/s) = 3.44937 3.68473 3.56899
# Velocity P-wave (km/s) = 5.70875 6.57421 6.15671
#
# Compressibility (1/GPa) = 0.02429944
#
# Stress axis : x y z
#
# Youngs Moduli (GPa) = 62.66067 62.66067 161.76508
#
# Poissons Ratio (x) = 0.00916 0.54627
# Poissons Ratio (y) = 0.00916 0.54627
# Poissons Ratio (z) = 0.21160 0.21160
#
# Static dielectric constant tensor:
#      x y z
#    x 2.061030 0.000000 0.000000 
#    y 0.000000 2.061030 0.000000 
#    z 0.000000 0.000000 1.887610 
# 
# From -- ./inp_files/197.got.cif
#   From: 2010.05.17/outbox.cif.g08.bks.cpg/sg171_1_cif.got.tgz:197.got - 2010.05.20 11:16:09.
