data_PCOD9580930
_publ_section_title
;
Structure prediction by ZEFSAII (Michael W. Deem and Ramdas Pophale) SiO2 
 PCOD9580930
Probable space group: P 64
;
_chemical_formula_sum "Si O2"
_cell_formula_units_Z 36
_cell_length_a 8.414285
_cell_length_b 8.414285
_cell_length_c 28.131334
_cell_angle_alpha 90.000000
_cell_angle_beta 90.000000
_cell_angle_gamma 120.000000
_cell_volume 1724.866131
_symmetry_space_group_name_H-M "P 64"
_symmetry_group_IT_number 172
_symmetry_cell_setting 'hexagonal'
loop_
_space_group_symop_operation_xyz
x,y,z
x-y,x,2/3+z
-y,x-y,1/3+z
-x,-y,z
-x+y,-x,2/3+z
y,-x+y,1/3+z
loop_
_atom_site_type_symbol
_atom_site_label
_atom_site_fract_x
_atom_site_fract_y
_atom_site_fract_z
Si Si1 0.460939 0.164091 0.188470
Si Si2 0.298199 0.476322 0.745625
Si Si3 0.458666 0.295741 0.544251
Si Si4 0.325237 0.293329 0.270455
Si Si5 0.038101 0.836775 0.691128
Si Si6 0.846524 0.557515 0.104719
O O1 0.402003 0.149152 0.133441
O O2 0.649251 0.349518 0.201975
O O3 0.325633 0.180516 0.224432
O O4 0.500000 0.000000 0.197577
O O5 0.500000 0.500000 0.735373
O O6 0.286557 0.662105 0.752774
O O7 0.148278 0.346827 0.706738
O O8 0.500000 0.500000 0.550391
O O9 0.344258 0.173626 0.588890
O O10 0.375708 0.224315 0.491834
O O11 0.500000 0.500000 0.275752
O O12 0.316486 0.167358 0.314019
O O13 0.167046 0.887848 0.736744
O O14 0.000000 0.000000 0.680513
O O15 0.000000 0.500000 0.103143
#
# Coordination Sequence:
#
# PCOD9580930 Si02
#       6
#     6   6   6   6   6   6
#     4   9  19  37  63  92 117 151 197 246 304 361
#     4  10  21  40  65  91 121 156 201 253 301 359
#     4   9  19  38  65  91 117 151 195 250 303 357
#     4  10  22  41  60  84 122 160 198 246 301 362
#     4  12  25  39  56  86 124 166 205 243 299 359
#     4  10  20  39  66  94 120 152 198 250 306 362
#
# _framework density 20.871184
#
# number of rings (size 3 to 8) (size 9 to 14) (size 15 to 20)
#    0.000    2.000    0.000    3.000    0.000    6.667 
#    0.000    9.167    0.000    0.000    0.000    0.000 
#    0.000    0.000    0.000    0.000    0.000    0.000 
#
# Total GULP energy -200540.602275 kJ/mol
# GULP energy per Si atom -5570.572285 kJ/mol
# Density = 2.082368 g / cm^3
# Si number density = 20.871184 Si / 1000 Ang^3
#
#
#
# Elastic Constant Matrix: (Units=GPa)
#
#
# Indices 1 2 3 4 5 6 
#
# 1 44.5660 8.1772 36.0201 0.0000 0.0000 0.0000
# 2 8.1772 44.5660 36.0201 0.0000 0.0000 0.0000
# 3 36.0201 36.0201 84.1538 0.0000 0.0000 0.0000
# 4 0.0000 0.0000 0.0000 17.3065 0.0000 0.0000
# 5 0.0000 0.0000 0.0000 0.0000 17.3065 0.0000
# 6 0.0000 0.0000 0.0000 0.0000 0.0000 18.1944
#
#
#
# Elastic Compliance Matrix: (Units=1/GPa)
#
#
# Indices 1 2 3 4 5 6 
#
# 1 0.036563 0.009082 -0.019537 0.000000 0.000000 0.000000
# 2 0.009082 0.036563 -0.019537 0.000000 0.000000 0.000000
# 3 -0.019537 -0.019537 0.028608 0.000000 0.000000 0.000000
# 4 0.000000 0.000000 0.000000 0.057782 0.000000 0.000000
# 5 0.000000 0.000000 0.000000 0.000000 0.057782 0.000000
# 6 0.000000 0.000000 0.000000 0.000000 0.000000 0.054962
#
#
# Mechanical properties :
#
#
# Convention : Reuss Voigt Hill
#
# Bulk Modulus (GPa) = 23.95266 37.08005 30.51636
# Shear Modulus (GPa) = 14.44412 16.76603 15.60507
#
# Velocity S-wave (km/s) = 2.63356 2.83735 2.73735
# Velocity P-wave (km/s) = 4.55509 5.34217 4.96425
#
# Compressibility (1/GPa) = 0.04174902
#
# Stress axis : x y z
#
# Youngs Moduli (GPa) = 27.34993 27.34993 34.95517
#
# Poissons Ratio (x) = -0.24840 0.68293
# Poissons Ratio (y) = -0.24840 0.68293
# Poissons Ratio (z) = 0.53435 0.53435
#
# Static dielectric constant tensor:
#      x y z
#    x 1.771120 0.000000 0.000000 
#    y 0.000000 1.771120 0.000000 
#    z 0.000000 0.000000 1.764460 
# 
# From -- ./inp_files/2612.got.cif
#   From: 2010.05.17/outbox.cif.g08.bks.cpg/sg172_2_cif.got.tgz:2612.got - 2010.05.20 11:19:57.
