data_PCOD9580935
_publ_section_title
;
Structure prediction by ZEFSAII (Michael W. Deem and Ramdas Pophale) SiO2 
 PCOD9580935
Probable space group: P 64
;
_chemical_formula_sum "Si O2"
_cell_formula_units_Z 24
_cell_length_a 7.488038
_cell_length_b 7.488038
_cell_length_c 22.342085
_cell_angle_alpha 90.000000
_cell_angle_beta 90.000000
_cell_angle_gamma 120.000000
_cell_volume 1084.901753
_symmetry_space_group_name_H-M "P 64"
_symmetry_group_IT_number 172
_symmetry_cell_setting 'hexagonal'
loop_
_space_group_symop_operation_xyz
x,y,z
x-y,x,2/3+z
-y,x-y,1/3+z
-x,-y,z
-x+y,-x,2/3+z
y,-x+y,1/3+z
loop_
_atom_site_type_symbol
_atom_site_label
_atom_site_fract_x
_atom_site_fract_y
_atom_site_fract_z
Si Si1 0.226788 0.067755 0.599670
Si Si2 0.083264 0.871387 0.393291
Si Si3 0.312849 0.684651 0.579483
Si Si4 0.500000 0.000000 0.143442
Si Si5 0.500000 0.500000 0.011823
O O1 0.207131 0.145308 0.666640
O O2 0.447695 0.244177 0.575844
O O3 0.262913 0.871770 0.591386
O O4 0.000000 0.000000 0.573680
O O5 0.054436 0.687593 0.433713
O O6 0.327306 0.019285 0.381301
O O7 0.000000 0.000000 0.427940
O O8 0.191490 0.563395 0.520992
O O9 0.195624 0.547969 0.637126
#
# Coordination Sequence:
#
# PCOD9580935 Si02
#       5
#     6   6   6   3   3
#     4  10  20  43  75  97 132 194 245 287 353 452
#     4  11  23  45  73 101 141 185 240 299 364 439
#     4  10  22  41  69 101 142 181 240 300 361 437
#     4  11  26  44  64 110 148 184 234 315 390 422
#     4  11  20  42  72 104 134 186 244 291 350 462
#
# _framework density 22.121818000000001
#
# number of rings (size 3 to 8) (size 9 to 14) (size 15 to 20)
#    0.000    1.500    5.000    1.500    0.000    3.000 
#    0.000    2.500    0.000    0.000    0.000    0.000 
#    0.000    0.000    0.000    0.000    0.000    0.000 
#
# Total GULP energy -133780.906910 kJ/mol
# GULP energy per Si atom -5574.204455 kJ/mol
# Density = 2.207147 g / cm^3
# Si number density = 22.121818 Si / 1000 Ang^3
#
#
#
# Elastic Constant Matrix: (Units=GPa)
#
#
# Indices 1 2 3 4 5 6 
#
# 1 111.7773 23.2434 23.4898 0.0000 0.0000 0.0000
# 2 23.2434 111.7773 23.4898 0.0000 0.0000 0.0000
# 3 23.4898 23.4898 70.2281 0.0000 0.0000 0.0000
# 4 0.0000 0.0000 0.0000 -17.9459 0.0000 0.0000
# 5 0.0000 0.0000 0.0000 0.0000 -17.9459 0.0000
# 6 0.0000 0.0000 0.0000 0.0000 0.0000 44.2669
#
#
#
# Elastic Compliance Matrix: (Units=1/GPa)
#
#
# Indices 1 2 3 4 5 6 
#
# 1 0.009838 -0.001457 -0.002804 0.000000 0.000000 0.000000
# 2 -0.001457 0.009838 -0.002804 0.000000 0.000000 0.000000
# 3 -0.002804 -0.002804 0.016115 0.000000 0.000000 0.000000
# 4 0.000000 0.000000 0.000000 -0.055723 0.000000 0.000000
# 5 0.000000 0.000000 0.000000 0.000000 -0.055723 0.000000
# 6 0.000000 0.000000 0.000000 0.000000 0.000000 0.022590
#
#
# Mechanical properties :
#
#
# Convention : Reuss Voigt Hill
#
# Bulk Modulus (GPa) = 46.15916 48.24762 47.20339
# Shear Modulus (GPa) = -157.65297 16.57900 -70.53698
#
# Velocity S-wave (km/s) = -8.45107 2.74056 -5.65287
# Velocity P-wave (km/s) = 8.62068 5.64549 4.60677
#
# Compressibility (1/GPa) = 0.02166417
#
# Stress axis : x y z
#
# Youngs Moduli (GPa) = 101.64232 101.64232 62.05500
#
# Poissons Ratio (x) = 0.14806 0.17397
# Poissons Ratio (y) = 0.14806 0.17397
# Poissons Ratio (z) = 0.28496 0.28496
#
# Static dielectric constant tensor:
#      x y z
#    x 1.866500 0.000000 0.000000 
#    y 0.000000 1.866500 0.000000 
#    z 0.000000 0.000000 1.800660 
# 
# From -- ./inp_files/1927.got.cif
#   From: 2010.05.17/outbox.cif.g08.bks.cpg/sg172_1_cif.got.tgz:1927.got - 2010.05.20 11:19:57.
