data_PCOD9580701
_publ_section_title
;
Structure prediction by ZEFSAII (Michael W. Deem and Ramdas Pophale) SiO2 
 PCOD9580701
Probable space group: P 62
;
_chemical_formula_sum "Si O2"
_cell_formula_units_Z 42
_cell_length_a 8.644770
_cell_length_b 8.644770
_cell_length_c 31.565685
_cell_angle_alpha 90.000000
_cell_angle_beta 90.000000
_cell_angle_gamma 120.000000
_cell_volume 2042.926473
_symmetry_space_group_name_H-M "P 62"
_symmetry_group_IT_number 171
_symmetry_cell_setting 'hexagonal'
loop_
_space_group_symop_operation_xyz
x,y,z
x-y,x,1/3+z
-y,x-y,2/3+z
-x,-y,z
-x+y,-x,1/3+z
y,-x+y,2/3+z
loop_
_atom_site_type_symbol
_atom_site_label
_atom_site_fract_x
_atom_site_fract_y
_atom_site_fract_z
Si Si1 0.708657 0.092951 0.115410
Si Si2 0.198095 0.035755 0.369824
Si Si3 0.470315 0.810446 0.711686
Si Si4 0.159784 0.481053 0.562327
Si Si5 0.706549 0.434486 0.142082
Si Si6 0.031167 0.195062 0.499344
Si Si7 0.507706 0.186986 0.313957
O O1 0.840198 0.143803 0.076021
O O2 0.771713 0.284948 0.139514
O O3 0.500000 0.000000 0.103794
O O4 0.713043 0.929026 0.139326
O O5 0.312149 0.142342 0.328795
O O6 0.191324 0.847194 0.375499
O O7 0.000000 0.000000 0.368975
O O8 0.412697 0.781809 0.760989
O O9 0.334352 0.655485 0.680292
O O10 0.500000 0.000000 0.697819
O O11 0.214923 0.587126 0.517825
O O12 0.078759 0.280981 0.545873
O O13 0.305474 0.544082 0.598412
O O14 0.000000 0.500000 0.581733
O O15 0.796925 0.653680 0.148534
O O16 0.000000 0.000000 0.500734
O O17 0.500000 0.000000 0.319794
#
# Coordination Sequence:
#
# PCOD9580701 Si02
#       7
#     6   6   6   6   6   6   6
#     4  12  24  38  69 105 135 186 227 290 361 416
#     4  11  25  41  65 103 139 176 235 287 346 426
#     4  11  23  43  70  98 136 174 224 291 354 412
#     4  10  23  43  66  94 133 179 228 282 344 418
#     4  11  23  42  70 100 137 177 227 289 356 412
#     4  11  24  41  65 103 137 174 230 291 349 422
#     4  10  24  44  66  92 134 185 228 280 344 421
#
# _framework density 20.558741999999999
#
# number of rings (size 3 to 8) (size 9 to 14) (size 15 to 20)
#    0.000    1.143    2.857    3.429    4.000    4.000 
#    0.000    4.286    3.143    0.000    0.000    0.000 
#    0.000    0.000    0.000    0.000    0.000    0.000 
#
# Total GULP energy -233907.344478 kJ/mol
# GULP energy per Si atom -5569.222488 kJ/mol
# Density = 2.051195 g / cm^3
# Si number density = 20.558742 Si / 1000 Ang^3
#
#
#
# Elastic Constant Matrix: (Units=GPa)
#
#
# Indices 1 2 3 4 5 6 
#
# 1 118.1914 59.7467 40.2081 0.0000 0.0000 0.0000
# 2 59.7467 118.1914 40.2081 0.0000 0.0000 0.0000
# 3 40.2081 40.2081 89.8008 0.0000 0.0000 0.0000
# 4 0.0000 0.0000 0.0000 13.4791 0.0000 0.0000
# 5 0.0000 0.0000 0.0000 0.0000 13.4791 0.0000
# 6 0.0000 0.0000 0.0000 0.0000 0.0000 29.2223
#
#
#
# Elastic Compliance Matrix: (Units=1/GPa)
#
#
# Indices 1 2 3 4 5 6 
#
# 1 0.012078 -0.005032 -0.003155 0.000000 0.000000 0.000000
# 2 -0.005032 0.012078 -0.003155 0.000000 0.000000 0.000000
# 3 -0.003155 -0.003155 0.013961 0.000000 0.000000 0.000000
# 4 0.000000 0.000000 0.000000 0.074189 0.000000 0.000000
# 5 0.000000 0.000000 0.000000 0.000000 0.074189 0.000000
# 6 0.000000 0.000000 0.000000 0.000000 0.000000 0.034220
#
#
# Mechanical properties :
#
#
# Convention : Reuss Voigt Hill
#
# Bulk Modulus (GPa) = 64.79475 67.38993 66.09234
# Shear Modulus (GPa) = 20.11726 23.63747 21.87736
#
# Velocity S-wave (km/s) = 3.13153 3.39448 3.26565
# Velocity P-wave (km/s) = 6.68286 6.94361 6.81448
#
# Compressibility (1/GPa) = 0.01543335
#
# Stress axis : x y z
#
# Youngs Moduli (GPa) = 82.79575 82.79575 71.62935
#
# Poissons Ratio (x) = 0.41665 0.22597
# Poissons Ratio (y) = 0.41665 0.22597
# Poissons Ratio (z) = 0.26119 0.26119
#
# Static dielectric constant tensor:
#      x y z
#    x 1.840480 0.000000 0.000000 
#    y 0.000000 1.840480 0.000000 
#    z 0.000000 0.000000 1.699140 
# 
# From -- ./inp_files/6132.got.cif
#   From: 2010.05.17/outbox.cif.g08.bks.cpg/sg171_4_cif.got.tgz:6132.got - 2010.05.20 11:16:09.
