data_PCOD9580442
_publ_section_title
;
Structure prediction by ZEFSAII (Michael W. Deem and Ramdas Pophale) SiO2 
 PCOD9580442
Probable space group: P 62
;
_chemical_formula_sum "Si O2"
_cell_formula_units_Z 33
_cell_length_a 16.567145
_cell_length_b 16.567145
_cell_length_c 7.517419
_cell_angle_alpha 90.000000
_cell_angle_beta 90.000000
_cell_angle_gamma 120.000000
_cell_volume 1786.877316
_symmetry_space_group_name_H-M "P 62"
_symmetry_group_IT_number 171
_symmetry_cell_setting 'hexagonal'
loop_
_space_group_symop_operation_xyz
x,y,z
x-y,x,1/3+z
-y,x-y,2/3+z
-x,-y,z
-x+y,-x,1/3+z
y,-x+y,2/3+z
loop_
_atom_site_type_symbol
_atom_site_label
_atom_site_fract_x
_atom_site_fract_y
_atom_site_fract_z
Si Si1 0.500000 0.500000 0.070040
Si Si2 0.314416 0.589463 0.509555
Si Si3 0.713366 0.028867 0.431086
Si Si4 0.409930 0.297415 0.138251
Si Si5 0.171187 0.830727 0.132235
Si Si6 0.628285 0.512538 0.759760
O O1 0.444012 0.405607 0.180206
O O2 0.564554 0.479865 0.934402
O O3 0.356274 0.650391 0.332981
O O4 0.216856 0.497755 0.460182
O O5 0.382685 0.557435 0.603550
O O6 0.719167 0.076612 0.618528
O O7 0.783387 0.102671 0.295761
O O8 0.726464 0.939446 0.451296
O O9 0.605002 0.979537 0.364743
O O10 0.345152 0.226977 0.289095
O O11 0.178388 0.736622 0.153543
#
# Coordination Sequence:
#
# PCOD9580442 Si02
#       6
#     3   6   6   6   6   6
#     4  10  18  36  58  90 120 164 204 258 298 374
#     4  11  23  38  55  86 125 174 211 258 305 372
#     4   9  20  40  61  84 125 150 205 266 303 378
#     4  10  22  36  58  89 118 171 205 247 321 355
#     4   9  20  39  60  89 118 156 206 255 308 374
#     4   8  20  36  54  86 121 161 207 244 311 355
#
# _framework density 18.467973000000001
#
# number of rings (size 3 to 8) (size 9 to 14) (size 15 to 20)
#    1.091    1.455    0.000    1.091    0.000   13.091 
#    0.000    0.909    0.000    0.000    0.000    6.364 
#    0.000    0.000    0.000    0.000    0.000    0.000 
#
# Total GULP energy -183795.066581 kJ/mol
# GULP energy per Si atom -5569.547472 kJ/mol
# Density = 1.842594 g / cm^3
# Si number density = 18.467973 Si / 1000 Ang^3
#
#
#
# Elastic Constant Matrix: (Units=GPa)
#
#
# Indices 1 2 3 4 5 6 
#
# 1 73.2962 28.4118 57.0442 0.0000 0.0000 0.0000
# 2 28.4118 73.2962 57.0442 0.0000 0.0000 0.0000
# 3 57.0442 57.0442 107.6116 0.0000 0.0000 0.0000
# 4 0.0000 0.0000 0.0000 25.0616 0.0000 0.0000
# 5 0.0000 0.0000 0.0000 0.0000 25.0616 0.0000
# 6 0.0000 0.0000 0.0000 0.0000 0.0000 22.4422
#
#
#
# Elastic Compliance Matrix: (Units=1/GPa)
#
#
# Indices 1 2 3 4 5 6 
#
# 1 0.023267 0.000987 -0.012857 0.000000 0.000000 0.000000
# 2 0.000987 0.023267 -0.012857 0.000000 0.000000 0.000000
# 3 -0.012857 -0.012857 0.022923 0.000000 0.000000 0.000000
# 4 0.000000 0.000000 0.000000 0.039902 0.000000 0.000000
# 5 0.000000 0.000000 0.000000 0.000000 0.039902 0.000000
# 6 0.000000 0.000000 0.000000 0.000000 0.000000 0.044559
#
#
# Mechanical properties :
#
#
# Convention : Reuss Voigt Hill
#
# Bulk Modulus (GPa) = 49.99054 59.91159 54.95106
# Shear Modulus (GPa) = 20.00485 21.96003 20.98244
#
# Velocity S-wave (km/s) = 3.29480 3.45206 3.37434
# Velocity P-wave (km/s) = 6.44995 6.95702 6.70828
#
# Compressibility (1/GPa) = 0.02000379
#
# Stress axis : x y z
#
# Youngs Moduli (GPa) = 42.97999 42.97999 43.62378
#
# Poissons Ratio (x) = -0.04243 0.56086
# Poissons Ratio (y) = -0.04243 0.56086
# Poissons Ratio (z) = 0.55259 0.55259
#
# Static dielectric constant tensor:
#      x y z
#    x 1.668560 0.000000 0.000000 
#    y 0.000000 1.668560 0.000000 
#    z 0.000000 0.000000 1.623180 
# 
# From -- ./inp_files/688.got.cif
#   From: 2010.05.17/outbox.cif.g08.bks.cpg/sg171_1_cif.got.tgz:688.got - 2010.05.20 11:16:09.
