data_PCOD9580111
_publ_section_title
;
Structure prediction by ZEFSAII (Michael W. Deem and Ramdas Pophale) SiO2 
 PCOD9580111
Probable space group: P 61
;
_chemical_formula_sum "Si O2"
_cell_formula_units_Z 24
_cell_length_a 14.156303
_cell_length_b 14.156303
_cell_length_c 6.516945
_cell_angle_alpha 90.000000
_cell_angle_beta 90.000000
_cell_angle_gamma 120.000000
_cell_volume 1131.030683
_symmetry_space_group_name_H-M "P 61"
_symmetry_group_IT_number 169
_symmetry_cell_setting 'hexagonal'
loop_
_space_group_symop_operation_xyz
x,y,z
x-y,x,1/6+z
-y,x-y,1/3+z
-x,-y,1/2+z
-x+y,-x,2/3+z
y,-x+y,5/6+z
loop_
_atom_site_type_symbol
_atom_site_label
_atom_site_fract_x
_atom_site_fract_y
_atom_site_fract_z
Si Si1 0.832973 0.071502 0.355730
Si Si2 0.540622 0.727000 0.791475
Si Si3 0.463508 0.883651 0.835539
Si Si4 0.675587 0.063918 0.018389
O O1 0.789217 0.135584 0.498126
O O2 0.759772 0.044178 0.148848
O O3 0.959434 0.150058 0.297033
O O4 0.463768 0.777842 0.753984
O O5 0.470456 0.603548 0.710959
O O6 0.569990 0.735080 0.030818
O O7 0.401277 0.918058 0.675074
O O8 0.590857 0.966338 0.874544
#
# Coordination Sequence:
#
# PCOD9580111 Si02
#       4
#     6   6   6   6
#     4  11  26  49  72 102 138 183 238 293 350 416
#     4  11  25  41  69 101 141 180 229 280 346 413
#     4  11  24  40  67 100 137 178 225 278 339 418
#     4  11  23  44  70  99 142 179 224 281 349 411
#
# _framework density 21.219584000000001
#
# number of rings (size 3 to 8) (size 9 to 14) (size 15 to 20)
#    0.000    1.000    2.500    3.000    7.000    2.000 
#    9.000    0.000    0.000    0.000    0.000    0.000 
#    0.000    0.000    0.000    0.000    0.000    0.000 
#
# Total GULP energy -134079.102906 kJ/mol
# GULP energy per Si atom -5586.629288 kJ/mol
# Density = 2.117129 g / cm^3
# Si number density = 21.219584 Si / 1000 Ang^3
#
#
#
# Elastic Constant Matrix: (Units=GPa)
#
#
# Indices 1 2 3 4 5 6 
#
# 1 103.2572 48.0061 14.4321 0.0000 0.0000 0.0000
# 2 48.0061 103.2572 14.4321 0.0000 0.0000 0.0000
# 3 14.4321 14.4321 53.5586 0.0000 0.0000 0.0000
# 4 0.0000 0.0000 0.0000 23.5539 0.0000 0.0000
# 5 0.0000 0.0000 0.0000 0.0000 23.5539 0.0000
# 6 0.0000 0.0000 0.0000 0.0000 0.0000 27.6256
#
#
#
# Elastic Compliance Matrix: (Units=1/GPa)
#
#
# Indices 1 2 3 4 5 6 
#
# 1 0.012534 -0.005565 -0.001878 0.000000 0.000000 0.000000
# 2 -0.005565 0.012534 -0.001878 0.000000 0.000000 0.000000
# 3 -0.001878 -0.001878 0.019683 0.000000 0.000000 0.000000
# 4 0.000000 0.000000 0.000000 0.042456 0.000000 0.000000
# 5 0.000000 0.000000 0.000000 0.000000 0.042456 0.000000
# 6 0.000000 0.000000 0.000000 0.000000 0.000000 0.036198
#
#
# Mechanical properties :
#
#
# Convention : Reuss Voigt Hill
#
# Bulk Modulus (GPa) = 38.29952 45.97929 42.13941
# Shear Modulus (GPa) = 25.87902 27.16021 26.51962
#
# Velocity S-wave (km/s) = 3.49604 3.58153 3.53904
# Velocity P-wave (km/s) = 5.86385 6.23045 6.04993
#
# Compressibility (1/GPa) = 0.02610999
#
# Stress axis : x y z
#
# Youngs Moduli (GPa) = 79.78133 79.78133 50.80469
#
# Poissons Ratio (x) = 0.44398 0.09541
# Poissons Ratio (y) = 0.44398 0.09541
# Poissons Ratio (z) = 0.14983 0.14983
#
# Static dielectric constant tensor:
#      x y z
#    x 1.776350 0.000000 0.000000 
#    y 0.000000 1.776350 0.000000 
#    z 0.000000 0.000000 1.775560 
# 
# From -- ./inp_files/58.got.cif
#   From: 2010.05.17/outbox.cif.g08.bks.cpg/sg169_cif.got.tgz:58.got - 2010.05.20 11:12:54.
