data_PCOD9580673
_publ_section_title
;
Structure prediction by ZEFSAII (Michael W. Deem and Ramdas Pophale) SiO2 
 PCOD9580673
Probable space group: P 62
;
_chemical_formula_sum "Si O2"
_cell_formula_units_Z 24
_cell_length_a 9.168148
_cell_length_b 9.168148
_cell_length_c 11.655201
_cell_angle_alpha 90.000000
_cell_angle_beta 90.000000
_cell_angle_gamma 120.000000
_cell_volume 848.425338
_symmetry_space_group_name_H-M "P 62"
_symmetry_group_IT_number 171
_symmetry_cell_setting 'hexagonal'
loop_
_space_group_symop_operation_xyz
x,y,z
x-y,x,1/3+z
-y,x-y,2/3+z
-x,-y,z
-x+y,-x,1/3+z
y,-x+y,2/3+z
loop_
_atom_site_type_symbol
_atom_site_label
_atom_site_fract_x
_atom_site_fract_y
_atom_site_fract_z
Si Si1 0.105342 0.191097 0.745030
Si Si2 0.185933 0.760091 0.652013
Si Si3 0.833833 0.474420 0.865766
Si Si4 0.857787 0.278252 0.388336
O O1 0.157787 0.356876 0.819235
O O2 0.276634 0.195406 0.712796
O O3 0.981314 0.213083 0.657261
O O4 0.000000 0.000000 0.794670
O O5 0.168937 0.694544 0.521226
O O6 0.168552 0.641169 0.760386
O O7 0.331071 0.949537 0.683081
O O8 0.000000 0.500000 0.928781
O O9 0.700646 0.432152 0.968333
#
# Coordination Sequence:
#
# PCOD9580673 Si02
#       4
#     6   6   6   6
#     4   9  20  35  70 117 163 229 296 385 450 542
#     4  10  23  38  73 117 177 231 315 384 470 548
#     4  10  22  42  68 115 179 223 297 386 468 532
#     4  11  21  41  74 118 168 243 307 375 470 569
#
# _framework density 28.287700999999998
#
# number of rings (size 3 to 8) (size 9 to 14) (size 15 to 20)
#    0.000    2.000    2.500    0.000   10.500    0.000 
#    0.000    2.500    0.000    4.500    0.000    0.000 
#    0.000    0.000    0.000    0.000    0.000    0.000 
#
# Total GULP energy -134185.353663 kJ/mol
# GULP energy per Si atom -5591.056403 kJ/mol
# Density = 2.822332 g / cm^3
# Si number density = 28.287701 Si / 1000 Ang^3
#
#
#
# Elastic Constant Matrix: (Units=GPa)
#
#
# Indices 1 2 3 4 5 6 
#
# 1 164.5256 39.1369 74.6310 0.0000 0.0000 0.0000
# 2 39.1369 164.5256 74.6310 0.0000 0.0000 0.0000
# 3 74.6310 74.6310 202.2811 0.0000 0.0000 0.0000
# 4 0.0000 0.0000 0.0000 -72.5601 0.0000 0.0000
# 5 0.0000 0.0000 0.0000 0.0000 -72.5601 0.0000
# 6 0.0000 0.0000 0.0000 0.0000 0.0000 62.6943
#
#
#
# Elastic Compliance Matrix: (Units=1/GPa)
#
#
# Indices 1 2 3 4 5 6 
#
# 1 0.007353 -0.000623 -0.002483 0.000000 0.000000 0.000000
# 2 -0.000623 0.007353 -0.002483 0.000000 0.000000 0.000000
# 3 -0.002483 -0.002483 0.006776 0.000000 0.000000 0.000000
# 4 0.000000 0.000000 0.000000 -0.013782 0.000000 0.000000
# 5 0.000000 0.000000 0.000000 0.000000 -0.013782 0.000000
# 6 0.000000 0.000000 0.000000 0.000000 0.000000 0.015950
#
#
# Mechanical properties :
#
#
# Convention : Reuss Voigt Hill
#
# Bulk Modulus (GPa) = 97.05341 100.90337 98.97839
# Shear Modulus (GPa) = 204.25246 6.37706 105.31476
#
# Velocity S-wave (km/s) = 8.50659 1.50308 6.10825
# Velocity P-wave (km/s) = 11.43970 6.22577 9.20942
#
# Compressibility (1/GPa) = 0.01030361
#
# Stress axis : x y z
#
# Youngs Moduli (GPa) = 136.00809 136.00809 147.58483
#
# Poissons Ratio (x) = 0.08469 0.36644
# Poissons Ratio (y) = 0.08469 0.36644
# Poissons Ratio (z) = 0.33770 0.33770
#
# Static dielectric constant tensor:
#      x y z
#    x 2.478090 0.000000 0.000000 
#    y 0.000000 2.478090 0.000000 
#    z 0.000000 0.000000 2.225390 
# 
# From -- ./inp_files/4596.got.cif
#   From: 2010.05.17/outbox.cif.g08.bks.cpg/sg171_3_cif.got.tgz:4596.got - 2010.05.20 11:16:09.
