data_PCOD9580307
_publ_section_title
;
Structure prediction by ZEFSAII (Michael W. Deem and Ramdas Pophale) SiO2 
 PCOD9580307
Probable space group: P 65
;
_chemical_formula_sum "Si O2"
_cell_formula_units_Z 42
_cell_length_a 9.479254
_cell_length_b 9.479254
_cell_length_c 21.194784
_cell_angle_alpha 90.000000
_cell_angle_beta 90.000000
_cell_angle_gamma 120.000000
_cell_volume 1649.331478
_symmetry_space_group_name_H-M "P 65"
_symmetry_group_IT_number 170
_symmetry_cell_setting 'hexagonal'
loop_
_space_group_symop_operation_xyz
x,y,z
x-y,x,5/6+z
-y,x-y,2/3+z
-x,-y,1/2+z
-x+y,-x,1/3+z
y,-x+y,1/6+z
loop_
_atom_site_type_symbol
_atom_site_label
_atom_site_fract_x
_atom_site_fract_y
_atom_site_fract_z
Si Si1 0.261324 0.102815 0.163730
Si Si2 0.856219 0.714084 0.752729
Si Si3 0.407760 0.933790 0.490998
Si Si4 0.393217 0.190970 0.034292
Si Si5 0.788909 0.287050 0.412696
Si Si6 0.318346 0.694613 0.376561
Si Si7 0.229299 0.860059 0.789007
O O1 0.294359 0.188052 0.096403
O O2 0.180707 0.912542 0.148945
O O3 0.445543 0.170703 0.189267
O O4 0.162763 0.158862 0.208162
O O5 0.830734 0.568711 0.706661
O O6 0.035276 0.792695 0.783523
O O7 0.705414 0.640271 0.800747
O O8 0.714101 0.146350 0.360428
O O9 0.407195 0.833879 0.429387
O O10 0.437128 0.049103 0.028723
O O11 0.557731 0.363167 0.040649
O O12 0.711554 0.293722 0.479502
O O13 0.960228 0.302175 0.429915
O O14 0.253072 0.524466 0.411722
#
# Coordination Sequence:
#
# PCOD9580307 Si02
#       7
#     6   6   6   6   6   6   6
#     4  10  22  44  75 113 155 212 263 344 409 497
#     4  11  26  46  84 115 160 225 275 332 438 505
#     4  11  25  45  81 118 156 217 269 341 408 513
#     4  11  23  43  79 113 154 206 274 336 415 487
#     4  11  26  44  80 119 161 216 274 358 404 503
#     4  10  23  43  78 116 163 211 269 346 420 482
#     4  12  25  49  79 122 165 217 282 345 418 509
#
# _framework density 25.464863000000001
#
# number of rings (size 3 to 8) (size 9 to 14) (size 15 to 20)
#    0.000    1.143    2.857    2.571    6.000    3.429 
#    0.000    1.429   37.714    0.000    0.000    0.000 
#    0.000    0.000    0.000    0.000    0.000    0.000 
#
# Total GULP energy -234965.673704 kJ/mol
# GULP energy per Si atom -5594.420802 kJ/mol
# Density = 2.540690 g / cm^3
# Si number density = 25.464863 Si / 1000 Ang^3
#
#
#
# Elastic Constant Matrix: (Units=GPa)
#
#
# Indices 1 2 3 4 5 6 
#
# 1 107.3340 48.8598 23.4339 0.0000 0.0000 0.0000
# 2 48.8598 107.3340 23.4339 0.0000 0.0000 0.0000
# 3 23.4339 23.4339 106.7881 0.0000 0.0000 0.0000
# 4 0.0000 0.0000 0.0000 31.3251 0.0000 0.0000
# 5 0.0000 0.0000 0.0000 0.0000 31.3251 0.0000
# 6 0.0000 0.0000 0.0000 0.0000 0.0000 29.2371
#
#
#
# Elastic Compliance Matrix: (Units=1/GPa)
#
#
# Indices 1 2 3 4 5 6 
#
# 1 0.011978 -0.005124 -0.001504 0.000000 0.000000 0.000000
# 2 -0.005124 0.011978 -0.001504 0.000000 0.000000 0.000000
# 3 -0.001504 -0.001504 0.010024 0.000000 0.000000 0.000000
# 4 0.000000 0.000000 0.000000 0.031923 0.000000 0.000000
# 5 0.000000 0.000000 0.000000 0.000000 0.031923 0.000000
# 6 0.000000 0.000000 0.000000 0.000000 0.000000 0.034203
#
#
# Mechanical properties :
#
#
# Convention : Reuss Voigt Hill
#
# Bulk Modulus (GPa) = 56.44713 56.99017 56.71865
# Shear Modulus (GPa) = 32.42576 33.42602 32.92589
#
# Velocity S-wave (km/s) = 3.57228 3.62696 3.59972
# Velocity P-wave (km/s) = 6.26336 6.32205 6.29277
#
# Compressibility (1/GPa) = 0.01771569
#
# Stress axis : x y z
#
# Youngs Moduli (GPa) = 83.48935 83.48935 99.75648
#
# Poissons Ratio (x) = 0.42780 0.15003
# Poissons Ratio (y) = 0.42780 0.15003
# Poissons Ratio (z) = 0.12557 0.12557
#
# Static dielectric constant tensor:
#      x y z
#    x 2.018890 0.000000 0.000000 
#    y 0.000000 2.018890 0.000000 
#    z 0.000000 0.000000 1.998330 
# 
# From -- ./inp_files/1877.got.cif
#   From: 2010.05.17/outbox.cif.g08.bks.cpg/sg170_cif.got.tgz:1877.got - 2010.05.20 11:14:30.
