data_PCOD9580874
_publ_section_title
;
Structure prediction by ZEFSAII (Michael W. Deem and Ramdas Pophale) SiO2 
 PCOD9580874
Probable space group: P 62
;
_chemical_formula_sum "Si O2"
_cell_formula_units_Z 24
_cell_length_a 13.620926
_cell_length_b 13.620926
_cell_length_c 6.576801
_cell_angle_alpha 90.000000
_cell_angle_beta 90.000000
_cell_angle_gamma 120.000000
_cell_volume 1056.716771
_symmetry_space_group_name_H-M "P 62"
_symmetry_group_IT_number 171
_symmetry_cell_setting 'hexagonal'
loop_
_space_group_symop_operation_xyz
x,y,z
x-y,x,1/3+z
-y,x-y,2/3+z
-x,-y,z
-x+y,-x,1/3+z
y,-x+y,2/3+z
loop_
_atom_site_type_symbol
_atom_site_label
_atom_site_fract_x
_atom_site_fract_y
_atom_site_fract_z
Si Si1 0.843878 0.987145 0.562880
Si Si2 0.599463 0.910430 0.637188
Si Si3 0.777499 0.158489 0.685963
Si Si4 0.440144 0.752728 0.340920
O O1 0.879024 0.913014 0.693743
O O2 0.708611 0.912226 0.531870
O O3 0.855167 0.098588 0.679224
O O4 0.578800 0.830329 0.835456
O O5 0.350488 0.738114 0.168635
O O6 0.654029 0.044446 0.671651
O O7 0.767442 0.220764 0.880584
O O8 0.140140 0.632616 0.157407
#
# Coordination Sequence:
#
# PCOD9580874 Si02
#       4
#     6   6   6   6
#     4   8  16  38  76 104 144 176 222 263 330 403
#     4   9  20  43  72  98 132 177 221 270 332 400
#     4   9  20  43  72  98 132 177 221 270 332 400
#     4  12  26  46  69  95 136 174 226 288 338 396
#
# _framework density 22.711856000000001
#
# number of rings (size 3 to 8) (size 9 to 14) (size 15 to 20)
#    1.500    1.000    0.000    1.500    0.000    2.000 
#    0.000   18.750    5.500    1.500    0.000    0.000 
#    0.000    0.000    0.000    0.000    0.000    0.000 
#
# Total GULP energy -133662.177220 kJ/mol
# GULP energy per Si atom -5569.257384 kJ/mol
# Density = 2.266016 g / cm^3
# Si number density = 22.711856 Si / 1000 Ang^3
#
#
#
# Elastic Constant Matrix: (Units=GPa)
#
#
# Indices 1 2 3 4 5 6 
#
# 1 63.5369 29.7674 70.8547 0.0000 0.0000 0.0000
# 2 29.7674 63.5369 70.8547 0.0000 0.0000 0.0000
# 3 70.8547 70.8547 143.8396 0.0000 0.0000 0.0000
# 4 0.0000 0.0000 0.0000 41.1608 0.0000 0.0000
# 5 0.0000 0.0000 0.0000 0.0000 41.1608 0.0000
# 6 0.0000 0.0000 0.0000 0.0000 0.0000 16.8848
#
#
#
# Elastic Compliance Matrix: (Units=1/GPa)
#
#
# Indices 1 2 3 4 5 6 
#
# 1 0.036084 0.006471 -0.020962 0.000000 0.000000 0.000000
# 2 0.006471 0.036084 -0.020962 0.000000 0.000000 0.000000
# 3 -0.020962 -0.020962 0.027604 0.000000 0.000000 0.000000
# 4 0.000000 0.000000 0.000000 0.024295 0.000000 0.000000
# 5 0.000000 0.000000 0.000000 0.000000 0.024295 0.000000
# 6 0.000000 0.000000 0.000000 0.000000 0.000000 0.059225
#
#
# Mechanical properties :
#
#
# Convention : Reuss Voigt Hill
#
# Bulk Modulus (GPa) = 34.64442 68.20740 51.42591
# Shear Modulus (GPa) = 17.35415 26.47037 21.91226
#
# Velocity S-wave (km/s) = 2.76724 3.41763 3.10948
# Velocity P-wave (km/s) = 5.04947 6.75799 5.96521
#
# Compressibility (1/GPa) = 0.02886468
#
# Stress axis : x y z
#
# Youngs Moduli (GPa) = 27.71324 27.71324 36.22638
#
# Poissons Ratio (x) = -0.17934 0.75939
# Poissons Ratio (y) = -0.17934 0.75939
# Poissons Ratio (z) = 0.58094 0.58094
#
# Static dielectric constant tensor:
#      x y z
#    x 1.871630 0.000000 0.000000 
#    y 0.000000 1.871630 0.000000 
#    z 0.000000 0.000000 1.820060 
# 
# From -- ./inp_files/563.got.cif
#   From: 2010.05.17/outbox.cif.g08.bks.cpg/sg171_1_cif.got.tgz:563.got - 2010.05.20 11:16:09.
