data_PCOD9580760
_publ_section_title
;
Structure prediction by ZEFSAII (Michael W. Deem and Ramdas Pophale) SiO2 
 PCOD9580760
Probable space group: P 62
;
_chemical_formula_sum "Si O2"
_cell_formula_units_Z 24
_cell_length_a 12.995364
_cell_length_b 12.995364
_cell_length_c 7.294715
_cell_angle_alpha 90.000000
_cell_angle_beta 90.000000
_cell_angle_gamma 120.000000
_cell_volume 1066.880698
_symmetry_space_group_name_H-M "P 62"
_symmetry_group_IT_number 171
_symmetry_cell_setting 'hexagonal'
loop_
_space_group_symop_operation_xyz
x,y,z
x-y,x,1/3+z
-y,x-y,2/3+z
-x,-y,z
-x+y,-x,1/3+z
y,-x+y,2/3+z
loop_
_atom_site_type_symbol
_atom_site_label
_atom_site_fract_x
_atom_site_fract_y
_atom_site_fract_z
Si Si1 0.822094 0.616461 0.670280
Si Si2 0.238090 0.636101 0.553717
Si Si3 0.757596 0.662020 0.297350
Si Si4 0.860816 0.840118 0.852653
O O1 0.802341 0.484123 0.673627
O O2 0.740940 0.619900 0.508526
O O3 0.815879 0.699775 0.827513
O O4 0.956876 0.693545 0.604718
O O5 0.269771 0.612560 0.351292
O O6 0.151097 0.688696 0.527459
O O7 0.896142 0.752975 0.258594
O O8 0.884011 0.908607 0.654885
#
# Coordination Sequence:
#
# PCOD9580760 Si02
#       4
#     6   6   6   6
#     4  11  23  42  64  98 139 182 230 296 358 428
#     4  10  25  44  68  94 136 185 244 294 350 424
#     4  11  23  42  64  98 139 182 230 296 358 428
#     4  12  26  43  71 106 148 184 237 286 361 432
#
# _framework density 22.495488000000002
#
# number of rings (size 3 to 8) (size 9 to 14) (size 15 to 20)
#    0.000    1.000    5.000    0.750    3.500    3.000 
#    0.000    1.250    0.000    0.000    0.000    0.000 
#    0.000    0.000    0.000    0.000    0.000    0.000 
#
# Total GULP energy -133743.637881 kJ/mol
# GULP energy per Si atom -5572.651578 kJ/mol
# Density = 2.244429 g / cm^3
# Si number density = 22.495488 Si / 1000 Ang^3
#
#
#
# Elastic Constant Matrix: (Units=GPa)
#
#
# Indices 1 2 3 4 5 6 
#
# 1 79.6700 43.2167 3.3032 0.0000 0.0000 0.0000
# 2 43.2167 79.6700 3.3032 0.0000 0.0000 0.0000
# 3 3.3032 3.3032 57.1854 0.0000 0.0000 0.0000
# 4 0.0000 0.0000 0.0000 20.7516 0.0000 0.0000
# 5 0.0000 0.0000 0.0000 0.0000 20.7516 0.0000
# 6 0.0000 0.0000 0.0000 0.0000 0.0000 18.2267
#
#
#
# Elastic Compliance Matrix: (Units=1/GPa)
#
#
# Indices 1 2 3 4 5 6 
#
# 1 0.017798 -0.009635 -0.000472 0.000000 0.000000 0.000000
# 2 -0.009635 0.017798 -0.000472 0.000000 0.000000 0.000000
# 3 -0.000472 -0.000472 0.017541 0.000000 0.000000 0.000000
# 4 0.000000 0.000000 0.000000 0.048189 0.000000 0.000000
# 5 0.000000 0.000000 0.000000 0.000000 0.048189 0.000000
# 6 0.000000 0.000000 0.000000 0.000000 0.000000 0.054865
#
#
# Mechanical properties :
#
#
# Convention : Reuss Voigt Hill
#
# Bulk Modulus (GPa) = 31.26834 35.13019 33.19926
# Shear Modulus (GPa) = 21.16890 23.05945 22.11418
#
# Velocity S-wave (km/s) = 3.07095 3.20515 3.13876
# Velocity P-wave (km/s) = 5.14823 5.41735 5.28451
#
# Compressibility (1/GPa) = 0.03198124
#
# Stress axis : x y z
#
# Youngs Moduli (GPa) = 56.18726 56.18726 57.00784
#
# Poissons Ratio (x) = 0.54135 0.02688
# Poissons Ratio (y) = 0.54135 0.02688
# Poissons Ratio (z) = 0.02649 0.02649
#
# Static dielectric constant tensor:
#      x y z
#    x 1.866810 0.000000 0.000000 
#    y 0.000000 1.866810 0.000000 
#    z 0.000000 0.000000 1.957120 
# 
# From -- ./inp_files/984.got.cif
#   From: 2010.05.17/outbox.cif.g08.bks.cpg/sg171_1_cif.got.tgz:984.got - 2010.05.20 11:16:09.
