data_PCOD9580255
_publ_section_title
;
Structure prediction by ZEFSAII (Michael W. Deem and Ramdas Pophale) SiO2 
 PCOD9580255
Probable space group: P 65
;
_chemical_formula_sum "Si O2"
_cell_formula_units_Z 42
_cell_length_a 16.211522
_cell_length_b 16.211522
_cell_length_c 8.809431
_cell_angle_alpha 90.000000
_cell_angle_beta 90.000000
_cell_angle_gamma 120.000000
_cell_volume 2005.053984
_symmetry_space_group_name_H-M "P 65"
_symmetry_group_IT_number 170
_symmetry_cell_setting 'hexagonal'
loop_
_space_group_symop_operation_xyz
x,y,z
x-y,x,5/6+z
-y,x-y,2/3+z
-x,-y,1/2+z
-x+y,-x,1/3+z
y,-x+y,1/6+z
loop_
_atom_site_type_symbol
_atom_site_label
_atom_site_fract_x
_atom_site_fract_y
_atom_site_fract_z
Si Si1 0.009685 0.724048 0.376290
Si Si2 0.791612 0.615409 0.957995
Si Si3 0.379613 0.888806 0.941751
Si Si4 0.535349 0.725857 0.560108
Si Si5 0.886921 0.808000 0.780524
Si Si6 0.612585 0.924847 0.413534
Si Si7 0.178726 0.691613 0.497603
O O1 0.902001 0.641261 0.409804
O O2 0.034930 0.818706 0.466615
O O3 0.030845 0.733637 0.196287
O O4 0.084656 0.693302 0.438608
O O5 0.858348 0.708856 0.861568
O O6 0.728611 0.535965 0.835487
O O7 0.852291 0.578982 0.048728
O O8 0.726629 0.634416 0.075926
O O9 0.429654 0.846036 0.839288
O O10 0.428181 0.003104 0.931263
O O11 0.364614 0.849616 0.114970
O O12 0.543656 0.818179 0.474855
O O13 0.496186 0.733663 0.723478
O O14 0.862234 0.868085 0.894606
#
# Coordination Sequence:
#
# PCOD9580255 Si02
#       7
#     6   6   6   6   6   6   6
#     4   9  18  37  65  88 119 160 203 250 316 381
#     4  10  21  38  59  86 122 159 205 259 314 365
#     4  10  21  39  59  87 118 160 212 255 315 380
#     4   9  19  38  58  88 123 156 200 262 318 376
#     4  11  22  39  60  88 124 162 207 250 304 371
#     4   9  18  33  59  88 116 152 199 252 303 373
#     4  10  21  38  60  89 116 161 212 254 316 380
#
# _framework density 20.947067000000001
#
# number of rings (size 3 to 8) (size 9 to 14) (size 15 to 20)
#    0.000    2.286    0.000    3.429    0.000    4.571 
#    2.571   10.000    0.000    0.000    0.000    0.000 
#    0.000    0.000    0.000    0.000    0.000    0.000 
#
# Total GULP energy -234316.236663 kJ/mol
# GULP energy per Si atom -5578.958016 kJ/mol
# Density = 2.089939 g / cm^3
# Si number density = 20.947067 Si / 1000 Ang^3
#
#
#
# Elastic Constant Matrix: (Units=GPa)
#
#
# Indices 1 2 3 4 5 6 
#
# 1 49.4623 13.5264 7.9454 0.0000 0.0000 0.0000
# 2 13.5264 49.4623 7.9454 0.0000 0.0000 0.0000
# 3 7.9454 7.9454 95.3134 0.0000 0.0000 0.0000
# 4 0.0000 0.0000 0.0000 20.9215 0.0000 0.0000
# 5 0.0000 0.0000 0.0000 0.0000 20.9215 0.0000
# 6 0.0000 0.0000 0.0000 0.0000 0.0000 17.9679
#
#
#
# Elastic Compliance Matrix: (Units=1/GPa)
#
#
# Indices 1 2 3 4 5 6 
#
# 1 0.022022 -0.005805 -0.001352 0.000000 0.000000 0.000000
# 2 -0.005805 0.022022 -0.001352 0.000000 0.000000 0.000000
# 3 -0.001352 -0.001352 0.010717 0.000000 0.000000 0.000000
# 4 0.000000 0.000000 0.000000 0.047798 0.000000 0.000000
# 5 0.000000 0.000000 0.000000 0.000000 0.047798 0.000000
# 6 0.000000 0.000000 0.000000 0.000000 0.000000 0.055655
#
#
# Mechanical properties :
#
#
# Convention : Reuss Voigt Hill
#
# Bulk Modulus (GPa) = 26.49462 28.11915 27.30689
# Shear Modulus (GPa) = 21.22148 22.95025 22.08586
#
# Velocity S-wave (km/s) = 3.18638 3.31362 3.25062
# Velocity P-wave (km/s) = 5.11988 5.30030 5.21087
#
# Compressibility (1/GPa) = 0.03774351
#
# Stress axis : x y z
#
# Youngs Moduli (GPa) = 45.40887 45.40887 93.30896
#
# Poissons Ratio (x) = 0.26361 0.12614
# Poissons Ratio (y) = 0.26361 0.12614
# Poissons Ratio (z) = 0.06139 0.06139
#
# Static dielectric constant tensor:
#      x y z
#    x 1.756220 0.000000 0.000000 
#    y 0.000000 1.756220 0.000000 
#    z 0.000000 0.000000 1.826230 
# 
# From -- ./inp_files/699.got.cif
#   From: 2010.05.17/outbox.cif.g08.bks.cpg/sg170_cif.got.tgz:699.got - 2010.05.20 11:14:30.
