data_PCOD9580619
_publ_section_title
;
Structure prediction by ZEFSAII (Michael W. Deem and Ramdas Pophale) SiO2 
 PCOD9580619
Probable space group: P 62
;
_chemical_formula_sum "Si O2"
_cell_formula_units_Z 30
_cell_length_a 15.930529
_cell_length_b 15.930529
_cell_length_c 5.312337
_cell_angle_alpha 90.000000
_cell_angle_beta 90.000000
_cell_angle_gamma 120.000000
_cell_volume 1167.553108
_symmetry_space_group_name_H-M "P 62"
_symmetry_group_IT_number 171
_symmetry_cell_setting 'hexagonal'
loop_
_space_group_symop_operation_xyz
x,y,z
x-y,x,1/3+z
-y,x-y,2/3+z
-x,-y,z
-x+y,-x,1/3+z
y,-x+y,2/3+z
loop_
_atom_site_type_symbol
_atom_site_label
_atom_site_fract_x
_atom_site_fract_y
_atom_site_fract_z
Si Si1 0.752748 0.079128 0.609330
Si Si2 0.054436 0.873535 0.774333
Si Si3 0.650044 0.408674 0.260867
Si Si4 0.687299 0.128562 0.114338
Si Si5 0.313472 0.378478 0.293973
O O1 0.851583 0.076181 0.585414
O O2 0.739110 0.130096 0.370672
O O3 0.664883 0.973400 0.680353
O O4 0.750877 0.135034 0.867037
O O5 0.050668 0.768633 0.778148
O O6 0.952753 0.855332 0.664452
O O7 0.737613 0.392652 0.344959
O O8 0.554537 0.353660 0.438001
O O9 0.680714 0.519928 0.268070
O O10 0.603721 0.017093 0.081686
#
# Coordination Sequence:
#
# PCOD9580619 Si02
#       5
#     6   6   6   6   6
#     4   9  22  46  82 106 148 201 266 307 399 479
#     4  10  21  46  83 116 152 204 258 334 399 483
#     4  12  28  43  71 119 166 207 271 344 391 462
#     4  10  23  49  78 108 147 212 262 318 395 476
#     4   9  23  47  75 113 152 216 257 319 397 489
#
# _framework density 25.694765
#
# number of rings (size 3 to 8) (size 9 to 14) (size 15 to 20)
#    1.200    0.800    0.000    1.800    5.600    1.600 
#   14.400    0.000    4.400    1.200    0.000    0.000 
#    0.000    0.000    0.000    0.000    0.000    0.000 
#
# Total GULP energy -167177.714534 kJ/mol
# GULP energy per Si atom -5572.590484 kJ/mol
# Density = 2.563628 g / cm^3
# Si number density = 25.694765 Si / 1000 Ang^3
#
#
#
# Elastic Constant Matrix: (Units=GPa)
#
#
# Indices 1 2 3 4 5 6 
#
# 1 153.3241 60.6653 47.0020 0.0000 0.0000 0.0000
# 2 60.6653 153.3241 47.0020 0.0000 0.0000 0.0000
# 3 47.0020 47.0020 140.6108 0.0000 0.0000 0.0000
# 4 0.0000 0.0000 0.0000 27.2587 0.0000 0.0000
# 5 0.0000 0.0000 0.0000 0.0000 27.2587 0.0000
# 6 0.0000 0.0000 0.0000 0.0000 0.0000 46.3294
#
#
#
# Elastic Compliance Matrix: (Units=1/GPa)
#
#
# Indices 1 2 3 4 5 6 
#
# 1 0.008135 -0.002657 -0.001831 0.000000 0.000000 0.000000
# 2 -0.002657 0.008135 -0.001831 0.000000 0.000000 0.000000
# 3 -0.001831 -0.001831 0.008336 0.000000 0.000000 0.000000
# 4 0.000000 0.000000 0.000000 0.036686 0.000000 0.000000
# 5 0.000000 0.000000 0.000000 0.000000 0.036686 0.000000
# 6 0.000000 0.000000 0.000000 0.000000 0.000000 0.021585
#
#
# Mechanical properties :
#
#
# Convention : Reuss Voigt Hill
#
# Bulk Modulus (GPa) = 83.56313 84.06640 83.81476
# Shear Modulus (GPa) = 36.71369 39.67534 38.19452
#
# Velocity S-wave (km/s) = 3.78410 3.93377 3.85966
# Velocity P-wave (km/s) = 7.18920 7.30897 7.24933
#
# Compressibility (1/GPa) = 0.01196700
#
# Stress axis : x y z
#
# Youngs Moduli (GPa) = 122.92771 122.92771 119.96317
#
# Poissons Ratio (x) = 0.32667 0.21965
# Poissons Ratio (y) = 0.32667 0.21965
# Poissons Ratio (z) = 0.22507 0.22507
#
# Static dielectric constant tensor:
#      x y z
#    x 2.111940 0.000000 0.000000 
#    y 0.000000 2.111940 0.000000 
#    z 0.000000 0.000000 2.127260 
# 
# From -- ./inp_files/613.got.cif
#   From: 2010.05.17/outbox.cif.g08.bks.cpg/sg171_1_cif.got.tgz:613.got - 2010.05.20 11:16:09.
