data_PCOD9580097
_publ_section_title
;
Structure prediction by ZEFSAII (Michael W. Deem and Ramdas Pophale) SiO2 
 PCOD9580097
Probable space group: P 61
;
_chemical_formula_sum "Si O2"
_cell_formula_units_Z 30
_cell_length_a 7.806739
_cell_length_b 7.806739
_cell_length_c 23.280041
_cell_angle_alpha 90.000000
_cell_angle_beta 90.000000
_cell_angle_gamma 120.000000
_cell_volume 1228.722165
_symmetry_space_group_name_H-M "P 61"
_symmetry_group_IT_number 169
_symmetry_cell_setting 'hexagonal'
loop_
_space_group_symop_operation_xyz
x,y,z
x-y,x,1/6+z
-y,x-y,1/3+z
-x,-y,1/2+z
-x+y,-x,2/3+z
y,-x+y,5/6+z
loop_
_atom_site_type_symbol
_atom_site_label
_atom_site_fract_x
_atom_site_fract_y
_atom_site_fract_z
Si Si1 0.428819 0.477842 0.089960
Si Si2 0.724871 0.827943 0.798215
Si Si3 0.896927 0.172056 0.352753
Si Si4 0.711723 0.355862 0.158817
Si Si5 0.428819 0.950977 0.227674
O O1 0.293250 0.297302 0.046678
O O2 0.279118 0.449447 0.140601
O O3 0.578449 0.429558 0.124809
O O4 0.495688 0.658355 0.046333
O O5 0.693595 0.693595 0.742150
O O6 0.706749 0.004052 0.770956
O O7 0.550553 0.720882 0.843700
O O8 0.935029 0.870058 0.825484
O O9 0.578449 0.148891 0.192825
O O10 0.837333 0.341645 0.104634
#
# Coordination Sequence:
#
# PCOD9580097 Si02
#       5
#     6   6   6   6   6
#     4  11  22  40  67 102 138 182 232 285 346 421
#     4   9  17  38  69  93 132 185 220 283 346 406
#     4   9  17  38  69  93 132 185 220 283 346 406
#     4  12  24  40  68 104 138 184 234 288 348 420
#     4  11  22  40  67 102 138 182 232 285 346 421
#
# _framework density 24.415607000000001
#
# number of rings (size 3 to 8) (size 9 to 14) (size 15 to 20)
#    0.000    1.600    6.000    2.400    0.000    0.000 
#    0.000    0.000   44.000    0.000    0.000    0.000 
#    0.000    0.000    0.000    0.000    0.000    0.000 
#
# Total GULP energy -167009.692282 kJ/mol
# GULP energy per Si atom -5566.989743 kJ/mol
# Density = 2.436004 g / cm^3
# Si number density = 24.415607 Si / 1000 Ang^3
#
#
#
# Elastic Constant Matrix: (Units=GPa)
#
#
# Indices 1 2 3 4 5 6 
#
# 1 82.8663 33.8666 53.4378 0.0000 0.0000 0.0000
# 2 33.8666 82.8663 53.4378 0.0000 0.0000 0.0000
# 3 53.4378 53.4378 191.6821 0.0000 0.0000 0.0000
# 4 0.0000 0.0000 0.0000 51.0609 0.0000 0.0000
# 5 0.0000 0.0000 0.0000 0.0000 51.0609 0.0000
# 6 0.0000 0.0000 0.0000 0.0000 0.0000 24.4999
#
#
#
# Elastic Compliance Matrix: (Units=1/GPa)
#
#
# Indices 1 2 3 4 5 6 
#
# 1 0.015955 -0.004453 -0.003207 0.000000 0.000000 0.000000
# 2 -0.004453 0.015955 -0.003207 0.000000 0.000000 0.000000
# 3 -0.003207 -0.003207 0.007005 0.000000 0.000000 0.000000
# 4 0.000000 0.000000 0.000000 0.019584 0.000000 0.000000
# 5 0.000000 0.000000 0.000000 0.000000 0.019584 0.000000
# 6 0.000000 0.000000 0.000000 0.000000 0.000000 0.040817
#
#
# Mechanical properties :
#
#
# Convention : Reuss Voigt Hill
#
# Bulk Modulus (GPa) = 58.19678 70.98880 64.59279
# Shear Modulus (GPa) = 34.16202 39.76918 36.96560
#
# Velocity S-wave (km/s) = 3.74463 4.04027 3.89526
# Velocity P-wave (km/s) = 6.52564 7.13466 6.83693
#
# Compressibility (1/GPa) = 0.01718308
#
# Stress axis : x y z
#
# Youngs Moduli (GPa) = 62.67481 62.67481 142.75672
#
# Poissons Ratio (x) = 0.27908 0.45778
# Poissons Ratio (y) = 0.27908 0.45778
# Poissons Ratio (z) = 0.20098 0.20098
#
# Static dielectric constant tensor:
#      x y z
#    x 2.115720 0.000000 0.000000 
#    y 0.000000 2.115720 0.000000 
#    z 0.000000 0.000000 1.991970 
# 
# From -- ./inp_files/1614.got.cif
#   From: 2010.05.17/outbox.cif.g08.bks.cpg/sg169_cif.got.tgz:1614.got - 2010.05.20 11:12:54.
