data_PCOD9580044
_publ_section_title
;
Structure prediction by ZEFSAII (Michael W. Deem and Ramdas Pophale) SiO2 
 PCOD9580044
Probable space group: P 61
;
_chemical_formula_sum "Si O2"
_cell_formula_units_Z 42
_cell_length_a 18.963163
_cell_length_b 18.963163
_cell_length_c 6.907107
_cell_angle_alpha 90.000000
_cell_angle_beta 90.000000
_cell_angle_gamma 120.000000
_cell_volume 2151.039432
_symmetry_space_group_name_H-M "P 61"
_symmetry_group_IT_number 169
_symmetry_cell_setting 'hexagonal'
loop_
_space_group_symop_operation_xyz
x,y,z
x-y,x,1/6+z
-y,x-y,1/3+z
-x,-y,1/2+z
-x+y,-x,2/3+z
y,-x+y,5/6+z
loop_
_atom_site_type_symbol
_atom_site_label
_atom_site_fract_x
_atom_site_fract_y
_atom_site_fract_z
Si Si1 0.295730 0.836633 0.467150
Si Si2 0.454606 0.068404 0.526559
Si Si3 0.253712 0.357366 0.372779
Si Si4 0.819177 0.301444 0.197803
Si Si5 0.658129 0.277449 0.769251
Si Si6 0.917855 0.651280 0.953272
Si Si7 0.080202 0.473276 0.136415
O O1 0.213556 0.784044 0.587068
O O2 0.306531 0.781098 0.309814
O O3 0.291526 0.902819 0.333986
O O4 0.360103 0.850630 0.638223
O O5 0.399137 0.092068 0.398526
O O6 0.497551 0.129418 0.703097
O O7 0.522425 0.062463 0.397564
O O8 0.402372 0.988699 0.653428
O O9 0.275179 0.288088 0.297729
O O10 0.158623 0.333662 0.405762
O O11 0.295423 0.430925 0.216721
O O12 0.750358 0.325527 0.223477
O O13 0.640150 0.280503 0.546869
O O14 0.911586 0.583343 0.798570
#
# Coordination Sequence:
#
# PCOD9580044 Si02
#       7
#     6   6   6   6   6   6   6
#     4  11  23  40  61  91 125 173 221 279 334 394
#     4  12  25  40  64  94 135 176 227 277 333 407
#     4  12  25  44  69  96 131 172 224 286 352 416
#     4  11  23  40  61  91 125 173 221 279 334 394
#     4  10  24  36  54  82 124 174 232 268 326 372
#     4  12  25  44  69  96 131 172 224 286 352 416
#     4  12  25  40  64  94 135 176 227 277 333 407
#
# _framework density 19.525442000000002
#
# number of rings (size 3 to 8) (size 9 to 14) (size 15 to 20)
#    0.000    0.571    5.714    2.571    4.000    4.571 
#    0.000    0.000    0.000    0.000    0.000    4.000 
#    0.000    0.000    0.000    0.000    0.000    0.000 
#
# Total GULP energy -233875.084968 kJ/mol
# GULP energy per Si atom -5568.454404 kJ/mol
# Density = 1.948100 g / cm^3
# Si number density = 19.525442 Si / 1000 Ang^3
#
#
#
# Elastic Constant Matrix: (Units=GPa)
#
#
# Indices 1 2 3 4 5 6 
#
# 1 41.5859 9.1901 19.0608 0.0000 0.0000 0.0000
# 2 9.1901 41.5859 19.0608 0.0000 0.0000 0.0000
# 3 19.0608 19.0608 79.5039 0.0000 0.0000 0.0000
# 4 0.0000 0.0000 0.0000 28.4970 0.0000 0.0000
# 5 0.0000 0.0000 0.0000 0.0000 28.4970 0.0000
# 6 0.0000 0.0000 0.0000 0.0000 0.0000 16.1979
#
#
#
# Elastic Compliance Matrix: (Units=1/GPa)
#
#
# Indices 1 2 3 4 5 6 
#
# 1 0.027443 -0.003425 -0.005758 0.000000 0.000000 0.000000
# 2 -0.003425 0.027443 -0.005758 0.000000 0.000000 0.000000
# 3 -0.005758 -0.005758 0.015339 0.000000 0.000000 0.000000
# 4 0.000000 0.000000 0.000000 0.035091 0.000000 0.000000
# 5 0.000000 0.000000 0.000000 0.000000 0.035091 0.000000
# 6 0.000000 0.000000 0.000000 0.000000 0.000000 0.061736
#
#
# Mechanical properties :
#
#
# Convention : Reuss Voigt Hill
#
# Bulk Modulus (GPa) = 24.78844 28.58878 26.68861
# Shear Modulus (GPa) = 20.36875 22.32933 21.34904
#
# Velocity S-wave (km/s) = 3.23335 3.38539 3.31024
# Velocity P-wave (km/s) = 5.16357 5.47309 5.32058
#
# Compressibility (1/GPa) = 0.04034139
#
# Stress axis : x y z
#
# Youngs Moduli (GPa) = 36.43944 36.43944 65.19354
#
# Poissons Ratio (x) = 0.12482 0.37539
# Poissons Ratio (y) = 0.12482 0.37539
# Poissons Ratio (z) = 0.20982 0.20982
#
# Static dielectric constant tensor:
#      x y z
#    x 2.131040 0.000000 0.000000 
#    y 0.000000 2.131040 0.000000 
#    z 0.000000 0.000000 1.742490 
# 
# From -- ./inp_files/283.got.cif
#   From: 2010.05.17/outbox.cif.g08.bks.cpg/sg169_cif.got.tgz:283.got - 2010.05.20 11:12:54.
