data_PCOD9580274
_publ_section_title
;
Structure prediction by ZEFSAII (Michael W. Deem and Ramdas Pophale) SiO2 
 PCOD9580274
Probable space group: P 65
;
_chemical_formula_sum "Si O2"
_cell_formula_units_Z 48
_cell_length_a 18.602441
_cell_length_b 18.602441
_cell_length_c 7.583221
_cell_angle_alpha 90.000000
_cell_angle_beta 90.000000
_cell_angle_gamma 120.000000
_cell_volume 2272.606352
_symmetry_space_group_name_H-M "P 65"
_symmetry_group_IT_number 170
_symmetry_cell_setting 'hexagonal'
loop_
_space_group_symop_operation_xyz
x,y,z
x-y,x,5/6+z
-y,x-y,2/3+z
-x,-y,1/2+z
-x+y,-x,1/3+z
y,-x+y,1/6+z
loop_
_atom_site_type_symbol
_atom_site_label
_atom_site_fract_x
_atom_site_fract_y
_atom_site_fract_z
Si Si1 0.978851 0.570048 0.492120
Si Si2 0.737575 0.362517 0.993613
Si Si3 0.319268 0.256931 0.990404
Si Si4 0.555057 0.854756 0.700743
Si Si5 0.612452 0.843634 0.071423
Si Si6 0.898391 0.211763 0.600570
Si Si7 0.449149 0.334454 0.693670
Si Si8 0.059353 0.589507 0.862125
O O1 0.952950 0.640705 0.497603
O O2 0.015356 0.562107 0.674354
O O3 0.059938 0.611955 0.365221
O O4 0.916898 0.476811 0.432292
O O5 0.679193 0.367351 0.840798
O O6 0.776617 0.308686 0.915045
O O7 0.819239 0.453130 0.026817
O O8 0.278913 0.159504 0.005047
O O9 0.258742 0.273903 0.868437
O O10 0.404325 0.296650 0.877734
O O11 0.593437 0.851560 0.515905
O O12 0.616421 0.867112 0.865973
O O13 0.683455 0.894253 0.220571
O O14 0.589560 0.748574 0.074520
O O15 0.543096 0.863295 0.153369
O O16 0.419285 0.399825 0.640426
#
# Coordination Sequence:
#
# PCOD9580274 Si02
#       8
#     6   6   6   6   6   6   6   6
#     4  10  22  34  59  87 108 155 199 250 293 359
#     4  12  27  41  55  81 118 166 213 259 312 359
#     4  10  22  39  62  89 121 152 200 246 307 364
#     4  10  22  40  55  83 118 154 208 246 299 363
#     4  10  22  38  58  81 114 153 198 254 298 355
#     4  10  22  41  63  90 123 154 192 252 306 365
#     4  11  22  40  57  80 117 156 200 252 302 361
#     4  11  21  37  59  81 115 152 204 247 303 356
#
# _framework density 21.121124999999999
#
# number of rings (size 3 to 8) (size 9 to 14) (size 15 to 20)
#    0.000    1.500    3.750    0.750    8.750    0.000 
#    0.000    0.000    0.000    0.000    0.000    0.000 
#   22.500    0.000    0.000    0.000    0.000    0.000 
#
# Total GULP energy -267400.662109 kJ/mol
# GULP energy per Si atom -5570.847127 kJ/mol
# Density = 2.107305 g / cm^3
# Si number density = 21.121125 Si / 1000 Ang^3
#
#
#
# Elastic Constant Matrix: (Units=GPa)
#
#
# Indices 1 2 3 4 5 6 
#
# 1 48.8455 4.1200 8.4570 0.0000 0.0000 0.0000
# 2 4.1200 48.8455 8.4570 0.0000 0.0000 0.0000
# 3 8.4570 8.4570 69.0857 0.0000 0.0000 0.0000
# 4 0.0000 0.0000 0.0000 23.3544 0.0000 0.0000
# 5 0.0000 0.0000 0.0000 0.0000 23.3544 0.0000
# 6 0.0000 0.0000 0.0000 0.0000 0.0000 22.3628
#
#
#
# Elastic Compliance Matrix: (Units=1/GPa)
#
#
# Indices 1 2 3 4 5 6 
#
# 1 0.021003 -0.001355 -0.002405 0.000000 0.000000 0.000000
# 2 -0.001355 0.021003 -0.002405 0.000000 0.000000 0.000000
# 3 -0.002405 -0.002405 0.015064 0.000000 0.000000 0.000000
# 4 0.000000 0.000000 0.000000 0.042818 0.000000 0.000000
# 5 0.000000 0.000000 0.000000 0.000000 0.042818 0.000000
# 6 0.000000 0.000000 0.000000 0.000000 0.000000 0.044717
#
#
# Mechanical properties :
#
#
# Convention : Reuss Voigt Hill
#
# Bulk Modulus (GPa) = 22.35167 23.20496 22.77832
# Shear Modulus (GPa) = 23.29168 23.53049 23.41109
#
# Velocity S-wave (km/s) = 3.32440 3.34140 3.33291
# Velocity P-wave (km/s) = 5.03399 5.08891 5.06153
#
# Compressibility (1/GPa) = 0.04473939
#
# Stress axis : x y z
#
# Youngs Moduli (GPa) = 47.61123 47.61123 66.38506
#
# Poissons Ratio (x) = 0.06452 0.15967
# Poissons Ratio (y) = 0.06452 0.15967
# Poissons Ratio (z) = 0.11452 0.11452
#
# Static dielectric constant tensor:
#      x y z
#    x 1.878580 0.000000 0.000000 
#    y 0.000000 1.878580 0.000000 
#    z 0.000000 0.000000 1.846290 
# 
# From -- ./inp_files/764.got.cif
#   From: 2010.05.17/outbox.cif.g08.bks.cpg/sg170_cif.got.tgz:764.got - 2010.05.20 11:14:30.
