data_PCOD9580610
_publ_section_title
;
Structure prediction by ZEFSAII (Michael W. Deem and Ramdas Pophale) SiO2 
 PCOD9580610
Probable space group: P 62
;
_chemical_formula_sum "Si O2"
_cell_formula_units_Z 33
_cell_length_a 11.855691
_cell_length_b 11.855691
_cell_length_c 10.388926
_cell_angle_alpha 90.000000
_cell_angle_beta 90.000000
_cell_angle_gamma 120.000000
_cell_volume 1264.605387
_symmetry_space_group_name_H-M "P 62"
_symmetry_group_IT_number 171
_symmetry_cell_setting 'hexagonal'
loop_
_space_group_symop_operation_xyz
x,y,z
x-y,x,1/3+z
-y,x-y,2/3+z
-x,-y,z
-x+y,-x,1/3+z
y,-x+y,2/3+z
loop_
_atom_site_type_symbol
_atom_site_label
_atom_site_fract_x
_atom_site_fract_y
_atom_site_fract_z
Si Si1 0.822368 0.001728 0.716930
Si Si2 0.500000 0.500000 0.464999
Si Si3 0.757966 0.499435 0.794853
Si Si4 0.419723 0.120087 0.907910
Si Si5 0.211288 0.587492 0.351706
Si Si6 0.889233 0.786400 0.776081
O O1 0.709265 0.956382 0.822980
O O2 0.868054 0.893808 0.708510
O O3 0.770340 0.967441 0.571391
O O4 0.950889 0.137288 0.761906
O O5 0.499207 0.380173 0.534815
O O6 0.381119 0.430600 0.366328
O O7 0.696168 0.368444 0.710141
O O8 0.651645 0.474268 0.900948
O O9 0.816781 0.638023 0.725388
O O10 0.539835 0.147831 0.811881
O O11 0.450479 0.259646 0.968006
#
# Coordination Sequence:
#
# PCOD9580610 Si02
#       6
#     6   3   6   6   6   6
#     4  11  24  41  63  94 129 173 218 267 324 393
#     4  10  24  36  64  96 124 174 212 262 352 386
#     4  10  21  42  65  94 130 169 215 277 327 400
#     4  10  21  42  65  94 130 169 215 277 327 400
#     4   9  20  43  66  95 128 163 226 276 332 395
#     4  11  24  41  63  94 129 173 218 267 324 393
#
# _framework density 26.095099000000001
#
# number of rings (size 3 to 8) (size 9 to 14) (size 15 to 20)
#    0.000    1.818    1.818    2.182    5.091    2.909 
#    6.545    1.818    0.000    0.000    0.000    0.000 
#    0.000    0.000    0.000    0.000    0.000    0.000 
#
# Total GULP energy -183899.905063 kJ/mol
# GULP energy per Si atom -5572.724396 kJ/mol
# Density = 2.603570 g / cm^3
# Si number density = 26.095099 Si / 1000 Ang^3
#
#
#
# Elastic Constant Matrix: (Units=GPa)
#
#
# Indices 1 2 3 4 5 6 
#
# 1 113.2203 35.7260 -4.4981 0.0000 0.0000 0.0000
# 2 35.7260 113.2203 -4.4981 0.0000 0.0000 0.0000
# 3 -4.4981 -4.4981 46.6607 0.0000 0.0000 0.0000
# 4 0.0000 0.0000 0.0000 18.6841 0.0000 0.0000
# 5 0.0000 0.0000 0.0000 0.0000 18.6841 0.0000
# 6 0.0000 0.0000 0.0000 0.0000 0.0000 38.7471
#
#
#
# Elastic Compliance Matrix: (Units=1/GPa)
#
#
# Indices 1 2 3 4 5 6 
#
# 1 0.009829 -0.003076 0.000651 0.000000 0.000000 0.000000
# 2 -0.003076 0.009829 0.000651 0.000000 0.000000 0.000000
# 3 0.000651 0.000651 0.021557 0.000000 0.000000 0.000000
# 4 0.000000 0.000000 0.000000 0.053522 0.000000 0.000000
# 5 0.000000 0.000000 0.000000 0.000000 0.053522 0.000000
# 6 0.000000 0.000000 0.000000 0.000000 0.000000 0.025808
#
#
# Mechanical properties :
#
#
# Convention : Reuss Voigt Hill
#
# Bulk Modulus (GPa) = 26.54835 36.28456 31.41645
# Shear Modulus (GPa) = 26.29250 31.64782 28.97016
#
# Velocity S-wave (km/s) = 3.17766 3.48629 3.33555
# Velocity P-wave (km/s) = 4.86407 5.49004 5.18651
#
# Compressibility (1/GPa) = 0.03766712
#
# Stress axis : x y z
#
# Youngs Moduli (GPa) = 101.74324 101.74324 46.38903
#
# Poissons Ratio (x) = 0.31291 -0.03020
# Poissons Ratio (y) = 0.31291 -0.03020
# Poissons Ratio (z) = -0.06624 -0.06624
#
# Static dielectric constant tensor:
#      x y z
#    x 2.154240 0.000000 0.000000 
#    y 0.000000 2.154240 0.000000 
#    z 0.000000 0.000000 2.053320 
# 
# From -- ./inp_files/1527.got.cif
#   From: 2010.05.17/outbox.cif.g08.bks.cpg/sg171_1_cif.got.tgz:1527.got - 2010.05.20 11:16:09.
