data_PCOD9580900
_publ_section_title
;
Structure prediction by ZEFSAII (Michael W. Deem and Ramdas Pophale) SiO2 
 PCOD9580900
Probable space group: P 64
;
_chemical_formula_sum "Si O2"
_cell_formula_units_Z 45
_cell_length_a 11.340752
_cell_length_b 11.340752
_cell_length_c 16.658313
_cell_angle_alpha 90.000000
_cell_angle_beta 90.000000
_cell_angle_gamma 120.000000
_cell_volume 1855.433341
_symmetry_space_group_name_H-M "P 64"
_symmetry_group_IT_number 172
_symmetry_cell_setting 'hexagonal'
loop_
_space_group_symop_operation_xyz
x,y,z
x-y,x,2/3+z
-y,x-y,1/3+z
-x,-y,z
-x+y,-x,2/3+z
y,-x+y,1/3+z
loop_
_atom_site_type_symbol
_atom_site_label
_atom_site_fract_x
_atom_site_fract_y
_atom_site_fract_z
Si Si1 0.277163 0.176540 0.294400
Si Si2 0.507074 0.372159 0.193602
Si Si3 0.287617 0.710587 0.155596
Si Si4 0.666156 0.715654 0.031351
Si Si5 0.173917 0.373479 0.359865
Si Si6 0.954029 0.853253 0.491768
Si Si7 0.500000 0.500000 0.893989
Si Si8 0.937174 0.284086 0.262500
O O1 0.429102 0.257479 0.259793
O O2 0.233766 0.286333 0.318570
O O3 0.263397 0.080102 0.368852
O O4 0.186526 0.072649 0.223459
O O5 0.500000 0.500000 0.225610
O O6 0.650959 0.387395 0.170283
O O7 0.417514 0.333536 0.112386
O O8 0.233789 0.719033 0.067665
O O9 0.161511 0.680355 0.212989
O O10 0.415948 0.862948 0.174791
O O11 0.602605 0.612581 0.956575
O O12 0.660848 0.845907 0.000605
O O13 0.079264 0.269343 0.430791
O O14 0.076845 0.396394 0.300276
O O15 0.813102 0.784745 0.541255
O O16 0.000000 0.000000 0.453894
#
# Coordination Sequence:
#
# PCOD9580900 Si02
#       8
#     6   6   6   6   6   6   3   6
#     4  11  24  42  65 103 148 180 245 307 368 443
#     4  12  26  47  71  98 134 195 248 306 374 450
#     4  10  24  43  69 100 146 184 253 307 362 449
#     4  10  21  38  70 101 129 188 240 296 354 439
#     4  11  23  39  66 110 143 198 238 308 387 437
#     4  10  20  34  61 100 150 181 235 298 356 446
#     4  10  18  44  66 100 134 180 248 302 330 434
#     4   9  20  38  64 102 140 182 232 299 367 425
#
# _framework density 24.253094999999998
#
# number of rings (size 3 to 8) (size 9 to 14) (size 15 to 20)
#    0.000    1.600    3.333    1.600    7.467    0.000 
#    7.200    0.000    0.000    1.600    0.000    0.000 
#    0.000    0.000    0.000    0.000    0.000    0.000 
#
# Total GULP energy -251552.277068 kJ/mol
# GULP energy per Si atom -5590.050602 kJ/mol
# Density = 2.419789 g / cm^3
# Si number density = 24.253095 Si / 1000 Ang^3
#
#
#
# Elastic Constant Matrix: (Units=GPa)
#
#
# Indices 1 2 3 4 5 6 
#
# 1 79.5806 40.3631 15.4501 0.0000 0.0000 0.0000
# 2 40.3631 79.5806 15.4501 0.0000 0.0000 0.0000
# 3 15.4501 15.4501 37.2508 0.0000 0.0000 0.0000
# 4 0.0000 0.0000 0.0000 8.5371 0.0000 0.0000
# 5 0.0000 0.0000 0.0000 0.0000 8.5371 0.0000
# 6 0.0000 0.0000 0.0000 0.0000 0.0000 19.6088
#
#
#
# Elastic Compliance Matrix: (Units=1/GPa)
#
#
# Indices 1 2 3 4 5 6 
#
# 1 0.017417 -0.008082 -0.003872 0.000000 0.000000 0.000000
# 2 -0.008082 0.017417 -0.003872 0.000000 0.000000 0.000000
# 3 -0.003872 -0.003872 0.030057 0.000000 0.000000 0.000000
# 4 0.000000 0.000000 0.000000 0.117136 0.000000 0.000000
# 5 0.000000 0.000000 0.000000 0.000000 0.117136 0.000000
# 6 0.000000 0.000000 0.000000 0.000000 0.000000 0.050998
#
#
# Mechanical properties :
#
#
# Convention : Reuss Voigt Hill
#
# Bulk Modulus (GPa) = 30.08477 37.65987 33.87232
# Shear Modulus (GPa) = 12.72617 15.67982 14.20299
#
# Velocity S-wave (km/s) = 2.29317 2.54541 2.42258
# Velocity P-wave (km/s) = 4.40942 4.91939 4.67137
#
# Compressibility (1/GPa) = 0.03323941
#
# Stress axis : x y z
#
# Youngs Moduli (GPa) = 57.41602 57.41602 33.27051
#
# Poissons Ratio (x) = 0.46404 0.12881
# Poissons Ratio (y) = 0.46404 0.12881
# Poissons Ratio (z) = 0.22229 0.22229
#
# Static dielectric constant tensor:
#      x y z
#    x 1.982570 0.000000 0.000000 
#    y 0.000000 1.982570 0.000000 
#    z 0.000000 0.000000 1.928460 
# 
# From -- ./inp_files/1698.got.cif
#   From: 2010.05.17/outbox.cif.g08.bks.cpg/sg172_1_cif.got.tgz:1698.got - 2010.05.20 11:19:57.
