data_PCOD9580289
_publ_section_title
;
Structure prediction by ZEFSAII (Michael W. Deem and Ramdas Pophale) SiO2 
 PCOD9580289
Probable space group: P 65
;
_chemical_formula_sum "Si O2"
_cell_formula_units_Z 36
_cell_length_a 19.614686
_cell_length_b 19.614686
_cell_length_c 4.825269
_cell_angle_alpha 90.000000
_cell_angle_beta 90.000000
_cell_angle_gamma 120.000000
_cell_volume 1607.736537
_symmetry_space_group_name_H-M "P 65"
_symmetry_group_IT_number 170
_symmetry_cell_setting 'hexagonal'
loop_
_space_group_symop_operation_xyz
x,y,z
x-y,x,5/6+z
-y,x-y,2/3+z
-x,-y,1/2+z
-x+y,-x,1/3+z
y,-x+y,1/6+z
loop_
_atom_site_type_symbol
_atom_site_label
_atom_site_fract_x
_atom_site_fract_y
_atom_site_fract_z
Si Si1 0.788955 0.021653 0.258080
Si Si2 0.508630 0.965686 0.643348
Si Si3 0.128495 0.257325 0.899815
Si Si4 0.709220 0.621776 0.240026
Si Si5 0.609039 0.196682 0.084572
Si Si6 0.530008 0.223461 0.604516
O O1 0.802513 0.954793 0.412704
O O2 0.694894 0.972288 0.210800
O O3 0.806833 0.085119 0.495859
O O4 0.842358 0.069999 0.996168
O O5 0.582748 0.956142 0.567019
O O6 0.430595 0.893677 0.509114
O O7 0.880836 0.214603 0.776668
O O8 0.490213 0.964991 0.964693
O O9 0.709675 0.551343 0.072218
O O10 0.550899 0.198381 0.316066
O O11 0.694473 0.230084 0.206263
O O12 0.600128 0.239833 0.818133
#
# Coordination Sequence:
#
# PCOD9580289 Si02
#       6
#     6   6   6   6   6   6
#     4  10  22  41  70 102 141 181 228 293 363 435
#     4  11  24  43  63  91 136 183 232 290 354 422
#     4  10  22  41  70 102 141 180 230 285 362 436
#     4   9  25  42  69  97 142 181 242 299 356 438
#     4  11  23  39  67  88 127 174 231 288 357 407
#     4  11  22  42  61  96 127 179 239 303 348 426
#
# _framework density 22.391728000000001
#
# number of rings (size 3 to 8) (size 9 to 14) (size 15 to 20)
#    1.000    0.667    0.000    5.000    0.000    9.333 
#    0.000    5.000    0.000    2.000    0.000    0.000 
#    0.000    0.000    0.000    0.000    0.000    0.000 
#
# Total GULP energy -200696.099736 kJ/mol
# GULP energy per Si atom -5574.891659 kJ/mol
# Density = 2.234076 g / cm^3
# Si number density = 22.391728 Si / 1000 Ang^3
#
#
#
# Elastic Constant Matrix: (Units=GPa)
#
#
# Indices 1 2 3 4 5 6 
#
# 1 61.6735 14.8188 16.9082 0.0000 0.0000 0.0000
# 2 14.8188 61.6735 16.9082 0.0000 0.0000 0.0000
# 3 16.9082 16.9082 127.0065 0.0000 0.0000 0.0000
# 4 0.0000 0.0000 0.0000 24.3974 0.0000 0.0000
# 5 0.0000 0.0000 0.0000 0.0000 24.3974 0.0000
# 6 0.0000 0.0000 0.0000 0.0000 0.0000 23.4273
#
#
#
# Elastic Compliance Matrix: (Units=1/GPa)
#
#
# Indices 1 2 3 4 5 6 
#
# 1 0.017617 -0.003726 -0.001849 0.000000 0.000000 0.000000
# 2 -0.003726 0.017617 -0.001849 0.000000 0.000000 0.000000
# 3 -0.001849 -0.001849 0.008366 0.000000 0.000000 0.000000
# 4 0.000000 0.000000 0.000000 0.040988 0.000000 0.000000
# 5 0.000000 0.000000 0.000000 0.000000 0.040988 0.000000
# 6 0.000000 0.000000 0.000000 0.000000 0.000000 0.042685
#
#
# Mechanical properties :
#
#
# Convention : Reuss Voigt Hill
#
# Bulk Modulus (GPa) = 34.78207 38.62490 36.70348
# Shear Modulus (GPa) = 25.94802 27.89230 26.92016
#
# Velocity S-wave (km/s) = 3.40784 3.53321 3.47109
# Velocity P-wave (km/s) = 5.57240 5.82510 5.70015
#
# Compressibility (1/GPa) = 0.02875045
#
# Stress axis : x y z
#
# Youngs Moduli (GPa) = 56.76443 56.76443 119.53157
#
# Poissons Ratio (x) = 0.21150 0.22105
# Poissons Ratio (y) = 0.21150 0.22105
# Poissons Ratio (z) = 0.10497 0.10497
#
# Static dielectric constant tensor:
#      x y z
#    x 1.898090 0.000000 0.000000 
#    y 0.000000 1.898090 0.000000 
#    z 0.000000 0.000000 1.832510 
# 
# From -- ./inp_files/218.got.cif
#   From: 2010.05.17/outbox.cif.g08.bks.cpg/sg170_cif.got.tgz:218.got - 2010.05.20 11:14:30.
