data_PCOD9580538
_publ_section_title
;
Structure prediction by ZEFSAII (Michael W. Deem and Ramdas Pophale) SiO2 
 PCOD9580538
Probable space group: P 62
;
_chemical_formula_sum "Si O2"
_cell_formula_units_Z 36
_cell_length_a 8.184533
_cell_length_b 8.184533
_cell_length_c 26.939357
_cell_angle_alpha 90.000000
_cell_angle_beta 90.000000
_cell_angle_gamma 120.000000
_cell_volume 1562.808143
_symmetry_space_group_name_H-M "P 62"
_symmetry_group_IT_number 171
_symmetry_cell_setting 'hexagonal'
loop_
_space_group_symop_operation_xyz
x,y,z
x-y,x,1/3+z
-y,x-y,2/3+z
-x,-y,z
-x+y,-x,1/3+z
y,-x+y,2/3+z
loop_
_atom_site_type_symbol
_atom_site_label
_atom_site_fract_x
_atom_site_fract_y
_atom_site_fract_z
Si Si1 0.959951 0.251611 0.762000
Si Si2 0.959951 0.708340 0.879550
Si Si3 0.391728 0.270872 0.875041
Si Si4 0.879144 0.270872 0.433176
Si Si5 0.288222 0.567395 0.595196
Si Si6 0.288222 0.720827 0.046355
O O1 0.836570 0.335805 0.736504
O O2 0.000000 0.298091 0.820775
O O3 0.162778 0.359111 0.736011
O O4 0.824983 0.028998 0.755596
O O5 0.824983 0.795984 0.885955
O O6 0.836570 0.500765 0.905047
O O7 0.162778 0.803667 0.905540
O O8 0.500000 0.500000 0.874641
O O9 0.406103 0.203051 0.820775
O O10 0.508214 0.212277 0.911211
O O11 0.704063 0.212277 0.397006
O O12 0.000000 0.500000 0.433577
O O13 0.279515 0.559031 0.654109
#
# Coordination Sequence:
#
# PCOD9580538 Si02
#       6
#     6   6   6   6   6   6
#     4  10  21  41  67  99 142 185 242 314 363 448
#     4  10  21  41  67  99 142 185 242 314 363 448
#     4  10  21  40  71 103 135 188 250 299 368 461
#     4  10  21  40  71 103 135 188 250 299 368 461
#     4  10  20  39  69 101 137 195 244 297 387 460
#     4  10  20  39  69 101 137 195 244 297 387 460
#
# _framework density 23.035454999999999
#
# number of rings (size 3 to 8) (size 9 to 14) (size 15 to 20)
#    0.000    2.000    0.000    6.000    0.000    6.667 
#   18.000    0.000    7.333    0.000    0.000    0.000 
#    0.000    0.000    0.000    0.000    0.000    0.000 
#
# Total GULP energy -201170.466118 kJ/mol
# GULP energy per Si atom -5588.068503 kJ/mol
# Density = 2.298303 g / cm^3
# Si number density = 23.035455 Si / 1000 Ang^3
#
#
#
# Elastic Constant Matrix: (Units=GPa)
#
#
# Indices 1 2 3 4 5 6 
#
# 1 137.4330 74.9652 77.7969 0.0000 0.0000 0.0000
# 2 74.9652 137.4330 77.7969 0.0000 0.0000 0.0000
# 3 77.7969 77.7969 215.2107 0.0000 0.0000 0.0000
# 4 0.0000 0.0000 0.0000 -36.2823 0.0000 0.0000
# 5 0.0000 0.0000 0.0000 0.0000 -36.2823 0.0000
# 6 0.0000 0.0000 0.0000 0.0000 0.0000 31.2339
#
#
#
# Elastic Compliance Matrix: (Units=1/GPa)
#
#
# Indices 1 2 3 4 5 6 
#
# 1 0.011206 -0.004802 -0.002315 0.000000 0.000000 0.000000
# 2 -0.004802 0.011206 -0.002315 0.000000 0.000000 0.000000
# 3 -0.002315 -0.002315 0.006320 0.000000 0.000000 0.000000
# 4 0.000000 0.000000 0.000000 -0.027562 0.000000 0.000000
# 5 0.000000 0.000000 0.000000 0.000000 -0.027562 0.000000
# 6 0.000000 0.000000 0.000000 0.000000 0.000000 0.032016
#
#
# Mechanical properties :
#
#
# Convention : Reuss Voigt Hill
#
# Bulk Modulus (GPa) = 101.33413 105.68827 103.51120
# Shear Modulus (GPa) = 179.98935 9.03504 94.51220
#
# Velocity S-wave (km/s) = 8.84903 1.98261 6.41234
# Velocity P-wave (km/s) = 12.18578 7.15691 9.99286
#
# Compressibility (1/GPa) = 0.00986834
#
# Stress axis : x y z
#
# Youngs Moduli (GPa) = 89.23692 89.23692 158.22000
#
# Poissons Ratio (x) = 0.42853 0.36628
# Poissons Ratio (y) = 0.42853 0.36628
# Poissons Ratio (z) = 0.20658 0.20658
#
# Static dielectric constant tensor:
#      x y z
#    x 2.100170 0.000000 0.000000 
#    y 0.000000 2.100170 0.000000 
#    z 0.000000 0.000000 1.743840 
# 
# From -- ./inp_files/5790.got.cif
#   From: 2010.05.17/outbox.cif.g08.bks.cpg/sg171_3_cif.got.tgz:5790.got - 2010.05.20 11:16:09.
