data_PCOD9580870
_publ_section_title
;
Structure prediction by ZEFSAII (Michael W. Deem and Ramdas Pophale) SiO2 
 PCOD9580870
Probable space group: P 62
;
_chemical_formula_sum "Si O2"
_cell_formula_units_Z 24
_cell_length_a 15.640237
_cell_length_b 15.640237
_cell_length_c 4.748543
_cell_angle_alpha 90.000000
_cell_angle_beta 90.000000
_cell_angle_gamma 120.000000
_cell_volume 1005.952945
_symmetry_space_group_name_H-M "P 62"
_symmetry_group_IT_number 171
_symmetry_cell_setting 'hexagonal'
loop_
_space_group_symop_operation_xyz
x,y,z
x-y,x,1/3+z
-y,x-y,2/3+z
-x,-y,z
-x+y,-x,1/3+z
y,-x+y,2/3+z
loop_
_atom_site_type_symbol
_atom_site_label
_atom_site_fract_x
_atom_site_fract_y
_atom_site_fract_z
Si Si1 0.498315 0.178508 0.379900
Si Si2 0.297354 0.802457 0.543691
Si Si3 0.996273 0.699782 0.194808
Si Si4 0.818132 0.990644 0.016608
O O1 0.475677 0.249046 0.571206
O O2 0.593009 0.178645 0.506994
O O3 0.402358 0.071448 0.396272
O O4 0.519335 0.229333 0.076237
O O5 0.295714 0.899505 0.640598
O O6 0.928170 0.838560 0.501600
O O7 0.045203 0.775560 0.454573
O O8 0.969903 0.752836 0.946401
#
# Coordination Sequence:
#
# PCOD9580870 Si02
#       4
#     6   6   6   6
#     4  12  25  44  70 103 141 185 235 292 353 421
#     4  12  25  44  70 103 141 185 235 292 353 421
#     4  12  25  46  73 104 142 190 240 294 357 428
#     4  12  26  48  74 104 142 188 240 298 359 426
#
# _framework density 23.857976000000001
#
# number of rings (size 3 to 8) (size 9 to 14) (size 15 to 20)
#    0.000    0.000    0.000   12.750    0.000    0.000 
#    0.000   18.750    0.000    0.000    0.000    0.000 
#    0.000    0.000    0.000    0.000    0.000    0.000 
#
# Total GULP energy -134455.336077 kJ/mol
# GULP energy per Si atom -5602.305670 kJ/mol
# Density = 2.380367 g / cm^3
# Si number density = 23.857976 Si / 1000 Ang^3
#
#
#
# Elastic Constant Matrix: (Units=GPa)
#
#
# Indices 1 2 3 4 5 6 
#
# 1 101.9834 29.3385 23.6099 0.0000 0.0000 0.0000
# 2 29.3385 101.9834 23.6099 0.0000 0.0000 0.0000
# 3 23.6099 23.6099 133.6604 0.0000 0.0000 0.0000
# 4 0.0000 0.0000 0.0000 38.4625 0.0000 0.0000
# 5 0.0000 0.0000 0.0000 0.0000 38.4625 0.0000
# 6 0.0000 0.0000 0.0000 0.0000 0.0000 36.3225
#
#
#
# Elastic Compliance Matrix: (Units=1/GPa)
#
#
# Indices 1 2 3 4 5 6 
#
# 1 0.010948 -0.002817 -0.001436 0.000000 0.000000 0.000000
# 2 -0.002817 0.010948 -0.001436 0.000000 0.000000 0.000000
# 3 -0.001436 -0.001436 0.007989 0.000000 0.000000 0.000000
# 4 0.000000 0.000000 0.000000 0.025999 0.000000 0.000000
# 5 0.000000 0.000000 0.000000 0.000000 0.025999 0.000000
# 6 0.000000 0.000000 0.000000 0.000000 0.000000 0.027531
#
#
# Mechanical properties :
#
#
# Convention : Reuss Voigt Hill
#
# Bulk Modulus (GPa) = 54.03521 54.52708 54.28115
# Shear Modulus (GPa) = 39.38115 40.05407 39.71761
#
# Velocity S-wave (km/s) = 4.06723 4.10183 4.08456
# Velocity P-wave (km/s) = 6.68987 6.73334 6.71164
#
# Compressibility (1/GPa) = 0.01850645
#
# Stress axis : x y z
#
# Youngs Moduli (GPa) = 91.33701 91.33701 125.17097
#
# Poissons Ratio (x) = 0.25731 0.17979
# Poissons Ratio (y) = 0.25731 0.17979
# Poissons Ratio (z) = 0.13119 0.13119
#
# Static dielectric constant tensor:
#      x y z
#    x 1.931510 0.000000 0.000000 
#    y 0.000000 1.931510 0.000000 
#    z 0.000000 0.000000 1.859930 
# 
# From -- ./inp_files/4096.got.cif
#   From: 2010.05.17/outbox.cif.g08.bks.cpg/sg171_3_cif.got.tgz:4096.got - 2010.05.20 11:16:09.
