data_PCOD9580518
_publ_section_title
;
Structure prediction by ZEFSAII (Michael W. Deem and Ramdas Pophale) SiO2 
 PCOD9580518
Probable space group: P 62
;
_chemical_formula_sum "Si O2"
_cell_formula_units_Z 36
_cell_length_a 8.862729
_cell_length_b 8.862729
_cell_length_c 24.887125
_cell_angle_alpha 90.000000
_cell_angle_beta 90.000000
_cell_angle_gamma 120.000000
_cell_volume 1692.935066
_symmetry_space_group_name_H-M "P 62"
_symmetry_group_IT_number 171
_symmetry_cell_setting 'hexagonal'
loop_
_space_group_symop_operation_xyz
x,y,z
x-y,x,1/3+z
-y,x-y,2/3+z
-x,-y,z
-x+y,-x,1/3+z
y,-x+y,2/3+z
loop_
_atom_site_type_symbol
_atom_site_label
_atom_site_fract_x
_atom_site_fract_y
_atom_site_fract_z
Si Si1 0.533408 0.340060 0.395670
Si Si2 0.469820 0.160817 0.223264
Si Si3 0.333423 0.020793 0.337114
Si Si4 0.960359 0.797736 0.346770
Si Si5 0.853855 0.553274 0.451142
Si Si6 0.328023 0.516655 0.283407
O O1 0.500000 0.500000 0.403661
O O2 0.359319 0.160376 0.383484
O O3 0.671998 0.372099 0.440697
O O4 0.635621 0.380741 0.339465
O O5 0.354630 0.101135 0.277668
O O6 0.380561 0.202439 0.174195
O O7 0.647849 0.341745 0.238617
O O8 0.500000 0.000000 0.210127
O O9 0.500000 0.000000 0.345190
O O10 0.157738 0.839660 0.340294
O O11 0.892227 0.689990 0.402641
O O12 0.836180 0.671138 0.298999
O O13 0.000000 0.000000 0.345391
O O14 0.000000 0.500000 0.453888
O O15 0.500000 0.500000 0.274171
#
# Coordination Sequence:
#
# PCOD9580518 Si02
#       6
#     6   6   6   6   6   6
#     4   9  17  33  57  81 112 153 195 241 293 357
#     4  10  21  38  60  86 123 168 209 266 334 385
#     4  10  20  37  61  89 119 154 204 259 310 373
#     4  11  22  38  65  96 123 165 218 262 315 388
#     4  11  22  36  57  87 124 166 209 258 318 381
#     4   9  18  36  60  87 119 158 206 258 310 372
#
# _framework density 21.264845000000001
#
# number of rings (size 3 to 8) (size 9 to 14) (size 15 to 20)
#    0.000    2.000    0.000    6.000    0.000    2.667 
#    0.000    4.167    0.000    8.000    0.000    0.000 
#    0.000    0.000    0.000    0.000    0.000    0.000 
#
# Total GULP energy -200428.757482 kJ/mol
# GULP energy per Si atom -5567.465486 kJ/mol
# Density = 2.121644 g / cm^3
# Si number density = 21.264845 Si / 1000 Ang^3
#
#
#
# Elastic Constant Matrix: (Units=GPa)
#
#
# Indices 1 2 3 4 5 6 
#
# 1 135.8627 57.5823 35.6541 0.0000 0.0000 0.0000
# 2 57.5823 135.8627 35.6541 0.0000 0.0000 0.0000
# 3 35.6541 35.6541 87.6497 0.0000 0.0000 0.0000
# 4 0.0000 0.0000 0.0000 23.2421 0.0000 0.0000
# 5 0.0000 0.0000 0.0000 0.0000 23.2421 0.0000
# 6 0.0000 0.0000 0.0000 0.0000 0.0000 39.1402
#
#
#
# Elastic Compliance Matrix: (Units=1/GPa)
#
#
# Indices 1 2 3 4 5 6 
#
# 1 0.009428 -0.003347 -0.002474 0.000000 0.000000 0.000000
# 2 -0.003347 0.009428 -0.002474 0.000000 0.000000 0.000000
# 3 -0.002474 -0.002474 0.013422 0.000000 0.000000 0.000000
# 4 0.000000 0.000000 0.000000 0.043025 0.000000 0.000000
# 5 0.000000 0.000000 0.000000 0.000000 0.043025 0.000000
# 6 0.000000 0.000000 0.000000 0.000000 0.000000 0.025549
#
#
# Mechanical properties :
#
#
# Convention : Reuss Voigt Hill
#
# Bulk Modulus (GPa) = 63.73805 68.57287 66.15546
# Shear Modulus (GPa) = 30.17583 32.49051 31.33317
#
# Velocity S-wave (km/s) = 3.77111 3.91307 3.84275
# Velocity P-wave (km/s) = 7.00002 7.26177 7.13209
#
# Compressibility (1/GPa) = 0.01568922
#
# Stress axis : x y z
#
# Youngs Moduli (GPa) = 106.06756 106.06756 74.50677
#
# Poissons Ratio (x) = 0.35497 0.18431
# Poissons Ratio (y) = 0.35497 0.18431
# Poissons Ratio (z) = 0.26238 0.26238
#
# Static dielectric constant tensor:
#      x y z
#    x 1.891650 0.000000 0.000000 
#    y 0.000000 1.891650 0.000000 
#    z 0.000000 0.000000 1.796450 
# 
# From -- ./inp_files/5765.got.cif
#   From: 2010.05.17/outbox.cif.g08.bks.cpg/sg171_3_cif.got.tgz:5765.got - 2010.05.20 11:16:09.
