data_PCOD9580338
_publ_section_title
;
Structure prediction by ZEFSAII (Michael W. Deem and Ramdas Pophale) SiO2 
 PCOD9580338
Probable space group: P 65
;
_chemical_formula_sum "Si O2"
_cell_formula_units_Z 36
_cell_length_a 11.981773
_cell_length_b 11.981773
_cell_length_c 13.114622
_cell_angle_alpha 90.000000
_cell_angle_beta 90.000000
_cell_angle_gamma 120.000000
_cell_volume 1630.529213
_symmetry_space_group_name_H-M "P 65"
_symmetry_group_IT_number 170
_symmetry_cell_setting 'hexagonal'
loop_
_space_group_symop_operation_xyz
x,y,z
x-y,x,5/6+z
-y,x-y,2/3+z
-x,-y,1/2+z
-x+y,-x,1/3+z
y,-x+y,1/6+z
loop_
_atom_site_type_symbol
_atom_site_label
_atom_site_fract_x
_atom_site_fract_y
_atom_site_fract_z
Si Si1 0.249012 0.415310 0.344460
Si Si2 0.156639 0.981593 0.767422
Si Si3 0.631114 0.301385 0.851675
Si Si4 0.759565 0.583117 0.420010
Si Si5 0.579823 0.713709 0.795835
Si Si6 0.884339 0.637518 0.207579
O O1 0.312711 0.555403 0.395981
O O2 0.343549 0.356304 0.334808
O O3 0.217167 0.426388 0.226556
O O4 0.118694 0.321976 0.405786
O O5 0.127271 0.028232 0.663504
O O6 0.251902 0.109767 0.830715
O O7 0.743121 0.312153 0.777377
O O8 0.491143 0.271428 0.815867
O O9 0.618727 0.183647 0.920243
O O10 0.833056 0.640167 0.528876
O O11 0.855177 0.610272 0.327315
O O12 0.677355 0.644308 0.375072
#
# Coordination Sequence:
#
# PCOD9580338 Si02
#       6
#     6   6   6   6   6   6
#     4  12  24  48  74 105 151 193 254 316 382 462
#     4  12  28  48  76 112 148 204 248 316 390 462
#     4  10  28  42  78 106 150 200 250 320 380 462
#     4  10  25  45  71 110 144 197 247 310 387 455
#     4  10  25  45  71 110 144 197 247 310 387 455
#     4  12  24  48  74 105 151 193 254 316 382 462
#
# _framework density 22.078723
#
# number of rings (size 3 to 8) (size 9 to 14) (size 15 to 20)
#    1.000    0.000    3.333    2.000    4.667    6.667 
#    0.000    0.000    0.000    0.000    0.000    0.000 
#    0.000    0.000    0.000    0.000    0.000    0.000 
#
# Total GULP energy -200554.653229 kJ/mol
# GULP energy per Si atom -5570.962590 kJ/mol
# Density = 2.202847 g / cm^3
# Si number density = 22.078723 Si / 1000 Ang^3
#
#
#
# Elastic Constant Matrix: (Units=GPa)
#
#
# Indices 1 2 3 4 5 6 
#
# 1 156.9373 -7.5591 5.7888 0.0000 0.0000 0.0000
# 2 -7.5591 156.9373 5.7888 0.0000 0.0000 0.0000
# 3 5.7888 5.7888 57.2153 0.0000 0.0000 0.0000
# 4 0.0000 0.0000 0.0000 27.0568 0.0000 0.0000
# 5 0.0000 0.0000 0.0000 0.0000 27.0568 0.0000
# 6 0.0000 0.0000 0.0000 0.0000 0.0000 82.2482
#
#
#
# Elastic Compliance Matrix: (Units=1/GPa)
#
#
# Indices 1 2 3 4 5 6 
#
# 1 0.006413 0.000334 -0.000683 0.000000 0.000000 0.000000
# 2 0.000334 0.006413 -0.000683 0.000000 0.000000 0.000000
# 3 -0.000683 -0.000683 0.017616 0.000000 0.000000 0.000000
# 4 0.000000 0.000000 0.000000 0.036959 0.000000 0.000000
# 5 0.000000 0.000000 0.000000 0.000000 0.036959 0.000000
# 6 0.000000 0.000000 0.000000 0.000000 0.000000 0.012158
#
#
# Mechanical properties :
#
#
# Convention : Reuss Voigt Hill
#
# Bulk Modulus (GPa) = 35.23610 42.12520 38.68065
# Shear Modulus (GPa) = 39.04974 51.74380 45.39677
#
# Velocity S-wave (km/s) = 4.21011 4.84633 4.53938
# Velocity P-wave (km/s) = 6.29502 7.10189 6.71059
#
# Compressibility (1/GPa) = 0.02837999
#
# Stress axis : x y z
#
# Youngs Moduli (GPa) = 155.92736 155.92736 56.76660
#
# Poissons Ratio (x) = -0.05209 0.03875
# Poissons Ratio (y) = -0.05209 0.03875
# Poissons Ratio (z) = 0.10645 0.10645
#
# Static dielectric constant tensor:
#      x y z
#    x 1.864630 0.000000 0.000000 
#    y 0.000000 1.864630 0.000000 
#    z 0.000000 0.000000 1.849070 
# 
# From -- ./inp_files/1217.got.cif
#   From: 2010.05.17/outbox.cif.g08.bks.cpg/sg170_cif.got.tgz:1217.got - 2010.05.20 11:14:30.
