data_PCOD9580778
_publ_section_title
;
Structure prediction by ZEFSAII (Michael W. Deem and Ramdas Pophale) SiO2 
 PCOD9580778
Probable space group: P 62
;
_chemical_formula_sum "Si O2"
_cell_formula_units_Z 21
_cell_length_a 10.853158
_cell_length_b 10.853158
_cell_length_c 7.108710
_cell_angle_alpha 90.000000
_cell_angle_beta 90.000000
_cell_angle_gamma 120.000000
_cell_volume 725.159733
_symmetry_space_group_name_H-M "P 62"
_symmetry_group_IT_number 171
_symmetry_cell_setting 'hexagonal'
loop_
_space_group_symop_operation_xyz
x,y,z
x-y,x,1/3+z
-y,x-y,2/3+z
-x,-y,z
-x+y,-x,1/3+z
y,-x+y,2/3+z
loop_
_atom_site_type_symbol
_atom_site_label
_atom_site_fract_x
_atom_site_fract_y
_atom_site_fract_z
Si Si1 0.048574 0.254992 0.938760
Si Si2 0.250031 0.213516 0.226543
Si Si3 0.500000 0.500000 0.078751
Si Si4 0.731604 0.441082 0.892335
O O1 0.925392 0.181314 0.763623
O O2 0.116767 0.424513 0.948606
O O3 0.890310 0.152885 0.065236
O O4 0.132598 0.208227 0.082417
O O5 0.394394 0.359060 0.193240
O O6 0.609962 0.474016 0.960434
O O7 0.696588 0.399390 0.676712
#
# Coordination Sequence:
#
# PCOD9580778 Si02
#       4
#     6   6   3   6
#     4  11  26  46  83 116 168 213 285 347 440 499
#     4  11  25  48  77 124 161 225 270 365 417 522
#     4  10  26  46  78 114 174 208 296 338 444 500
#     4  11  26  50  78 119 164 226 283 358 421 521
#
# _framework density 28.959139
#
# number of rings (size 3 to 8) (size 9 to 14) (size 15 to 20)
#    0.000    1.143    0.000    3.429   16.000    3.429 
#    5.143    0.000    0.000    0.000    0.000    0.000 
#    0.000    0.000    0.000    0.000    0.000    0.000 
#
# Total GULP energy -117317.308663 kJ/mol
# GULP energy per Si atom -5586.538508 kJ/mol
# Density = 2.889323 g / cm^3
# Si number density = 28.959139 Si / 1000 Ang^3
#
#
#
# Elastic Constant Matrix: (Units=GPa)
#
#
# Indices 1 2 3 4 5 6 
#
# 1 191.6386 78.5932 43.3090 0.0000 0.0000 0.0000
# 2 78.5932 191.6386 43.3090 0.0000 0.0000 0.0000
# 3 43.3090 43.3090 259.3059 0.0000 0.0000 0.0000
# 4 0.0000 0.0000 0.0000 45.5603 0.0000 0.0000
# 5 0.0000 0.0000 0.0000 0.0000 45.5603 0.0000
# 6 0.0000 0.0000 0.0000 0.0000 0.0000 56.5227
#
#
#
# Elastic Compliance Matrix: (Units=1/GPa)
#
#
# Indices 1 2 3 4 5 6 
#
# 1 0.006378 -0.002468 -0.000653 0.000000 0.000000 0.000000
# 2 -0.002468 0.006378 -0.000653 0.000000 0.000000 0.000000
# 3 -0.000653 -0.000653 0.004075 0.000000 0.000000 0.000000
# 4 0.000000 0.000000 0.000000 0.021949 0.000000 0.000000
# 5 0.000000 0.000000 0.000000 0.000000 0.021949 0.000000
# 6 0.000000 0.000000 0.000000 0.000000 0.000000 0.017692
#
#
# Mechanical properties :
#
#
# Convention : Reuss Voigt Hill
#
# Bulk Modulus (GPa) = 107.73317 108.11172 107.92245
# Shear Modulus (GPa) = 56.14031 61.35347 58.74689
#
# Velocity S-wave (km/s) = 4.40773 4.60784 4.50890
# Velocity P-wave (km/s) = 7.94901 8.10698 8.02838
#
# Compressibility (1/GPa) = 0.00928219
#
# Stress axis : x y z
#
# Youngs Moduli (GPa) = 156.79086 156.79086 245.42402
#
# Poissons Ratio (x) = 0.38697 0.16027
# Poissons Ratio (y) = 0.38697 0.16027
# Poissons Ratio (z) = 0.10239 0.10239
#
# Static dielectric constant tensor:
#      x y z
#    x 2.246420 0.000000 0.000000 
#    y 0.000000 2.246420 0.000000 
#    z 0.000000 0.000000 2.578330 
# 
# From -- ./inp_files/4387.got.cif
#   From: 2010.05.17/outbox.cif.g08.bks.cpg/sg171_3_cif.got.tgz:4387.got - 2010.05.20 11:16:09.
