data_PCOD9580671
_publ_section_title
;
Structure prediction by ZEFSAII (Michael W. Deem and Ramdas Pophale) SiO2 
 PCOD9580671
Probable space group: P 62
;
_chemical_formula_sum "Si O2"
_cell_formula_units_Z 42
_cell_length_a 13.578950
_cell_length_b 13.578950
_cell_length_c 13.461821
_cell_angle_alpha 90.000000
_cell_angle_beta 90.000000
_cell_angle_gamma 120.000000
_cell_volume 2149.645379
_symmetry_space_group_name_H-M "P 62"
_symmetry_group_IT_number 171
_symmetry_cell_setting 'hexagonal'
loop_
_space_group_symop_operation_xyz
x,y,z
x-y,x,1/3+z
-y,x-y,2/3+z
-x,-y,z
-x+y,-x,1/3+z
y,-x+y,2/3+z
loop_
_atom_site_type_symbol
_atom_site_label
_atom_site_fract_x
_atom_site_fract_y
_atom_site_fract_z
Si Si1 0.879480 0.031604 0.885150
Si Si2 0.968397 0.120520 0.327191
Si Si3 0.646778 0.220816 0.385261
Si Si4 0.596712 0.909816 0.683737
Si Si5 0.686898 0.090187 0.861935
Si Si6 0.353226 0.574042 0.493744
Si Si7 0.000000 0.500000 0.698782
Si Si8 0.500000 0.500000 0.846890
O O1 0.802018 0.088436 0.885616
O O2 0.000001 0.107475 0.939503
O O3 0.890135 0.999997 0.772838
O O4 0.819533 0.909768 0.939506
O O5 0.911566 0.197984 0.326723
O O6 0.783304 0.279844 0.381917
O O7 0.617111 0.308555 0.439502
O O8 0.600919 0.201830 0.272836
O O9 0.590055 0.103161 0.445634
O O10 0.624797 0.000003 0.772835
O O11 0.558109 0.950461 0.587178
O O12 0.720157 0.216700 0.830426
O O13 0.607648 0.049537 0.958493
O O14 0.409947 0.513109 0.433372
#
# Coordination Sequence:
#
# PCOD9580671 Si02
#       8
#     6   6   6   6   6   6   3   3
#     4  10  22  42  65  98 136 173 222 282 345 413
#     4  10  22  42  65  98 136 173 222 282 345 413
#     4  12  26  50  71 104 143 180 235 294 351 420
#     4  11  26  43  73 104 135 189 234 289 350 424
#     4  11  26  43  73 104 135 189 234 289 350 424
#     4  12  26  50  71 104 143 180 235 294 351 420
#     4  12  26  46  76 100 142 184 236 292 352 416
#     4  12  26  46  76 100 142 184 236 292 352 416
#
# _framework density 19.538107
#
# number of rings (size 3 to 8) (size 9 to 14) (size 15 to 20)
#    0.000    0.857    2.857    4.286    8.000    2.286 
#    5.143    0.000    0.000    0.000    0.000    0.000 
#    0.000    0.000    0.000    0.000    0.000    0.000 
#
# Total GULP energy -234818.910568 kJ/mol
# GULP energy per Si atom -5590.926442 kJ/mol
# Density = 1.949364 g / cm^3
# Si number density = 19.538107 Si / 1000 Ang^3
#
#
#
# Elastic Constant Matrix: (Units=GPa)
#
#
# Indices 1 2 3 4 5 6 
#
# 1 126.8261 46.4315 68.0835 0.0000 0.0000 0.0000
# 2 46.4315 126.8261 68.0835 0.0000 0.0000 0.0000
# 3 68.0835 68.0835 170.5380 0.0000 0.0000 0.0000
# 4 0.0000 0.0000 0.0000 26.9278 0.0000 0.0000
# 5 0.0000 0.0000 0.0000 0.0000 26.9278 0.0000
# 6 0.0000 0.0000 0.0000 0.0000 0.0000 40.1973
#
#
#
# Elastic Compliance Matrix: (Units=1/GPa)
#
#
# Indices 1 2 3 4 5 6 
#
# 1 0.010425 -0.002014 -0.003358 0.000000 0.000000 0.000000
# 2 -0.002014 0.010425 -0.003358 0.000000 0.000000 0.000000
# 3 -0.003358 -0.003358 0.008545 0.000000 0.000000 0.000000
# 4 0.000000 0.000000 0.000000 0.037136 0.000000 0.000000
# 5 0.000000 0.000000 0.000000 0.000000 0.037136 0.000000
# 6 0.000000 0.000000 0.000000 0.000000 0.000000 0.024877
#
#
# Mechanical properties :
#
#
# Convention : Reuss Voigt Hill
#
# Bulk Modulus (GPa) = 83.78641 87.70969 85.74805
# Shear Modulus (GPa) = 33.33743 34.91672 34.12707
#
# Velocity S-wave (km/s) = 4.13519 4.23201 4.18388
# Velocity P-wave (km/s) = 8.11027 8.29873 8.20504
#
# Compressibility (1/GPa) = 0.01193511
#
# Stress axis : x y z
#
# Youngs Moduli (GPa) = 95.92627 95.92627 117.02970
#
# Poissons Ratio (x) = 0.19319 0.39296
# Poissons Ratio (y) = 0.19319 0.39296
# Poissons Ratio (z) = 0.32210 0.32210
#
# Static dielectric constant tensor:
#      x y z
#    x 1.675950 0.000000 0.000000 
#    y 0.000000 1.675950 0.000000 
#    z 0.000000 0.000000 1.610470 
# 
# From -- ./inp_files/4683.got.cif
#   From: 2010.05.17/outbox.cif.g08.bks.cpg/sg171_3_cif.got.tgz:4683.got - 2010.05.20 11:16:09.
