data_PCOD9580020
_publ_section_title
;
Structure prediction by ZEFSAII (Michael W. Deem and Ramdas Pophale) SiO2 
 PCOD9580020
Probable space group: P 61
;
_chemical_formula_sum "Si O2"
_cell_formula_units_Z 42
_cell_length_a 17.472000
_cell_length_b 17.472000
_cell_length_c 6.991997
_cell_angle_alpha 90.000000
_cell_angle_beta 90.000000
_cell_angle_gamma 120.000000
_cell_volume 1848.490007
_symmetry_space_group_name_H-M "P 61"
_symmetry_group_IT_number 169
_symmetry_cell_setting 'hexagonal'
loop_
_space_group_symop_operation_xyz
x,y,z
x-y,x,1/6+z
-y,x-y,1/3+z
-x,-y,1/2+z
-x+y,-x,2/3+z
y,-x+y,5/6+z
loop_
_atom_site_type_symbol
_atom_site_label
_atom_site_fract_x
_atom_site_fract_y
_atom_site_fract_z
Si Si1 0.327792 0.208520 0.720140
Si Si2 0.562501 0.613232 0.757060
Si Si3 0.186601 0.149700 0.376405
Si Si4 0.515764 0.907567 0.877178
Si Si5 0.541327 0.752636 0.931553
Si Si6 0.386750 0.734385 0.710213
Si Si7 0.270499 0.296462 0.042370
O O1 0.261011 0.174785 0.539266
O O2 0.426640 0.262898 0.633483
O O3 0.320838 0.124414 0.826611
O O4 0.297362 0.259870 0.859650
O O5 0.536974 0.456592 0.200814
O O6 0.577334 0.711669 0.774697
O O7 0.638100 0.621219 0.616032
O O8 0.582546 0.582913 0.956108
O O9 0.104578 0.156391 0.464415
O O10 0.228633 0.221072 0.205904
O O11 0.567134 0.855070 0.929096
O O12 0.442181 0.840475 0.725042
O O13 0.440260 0.708162 0.865743
O O14 0.395516 0.703459 0.499321
#
# Coordination Sequence:
#
# PCOD9580020 Si02
#       7
#     6   6   6   6   6   6   6
#     4  12  26  43  73 102 143 190 247 295 365 438
#     4  12  26  46  74 102 152 189 241 311 365 432
#     4  12  26  46  72 105 151 186 245 309 354 438
#     4  10  26  47  67 108 144 185 243 296 368 435
#     4  10  24  47  69 102 145 186 242 295 362 433
#     4  10  22  45  72 101 141 186 238 292 367 440
#     4  12  28  44  71 108 138 196 242 296 375 426
#
# _framework density 22.721247999999999
#
# number of rings (size 3 to 8) (size 9 to 14) (size 15 to 20)
#    0.857    0.000    5.714    0.000    8.000    3.429 
#    2.571    0.000    0.000    0.000    0.000    0.000 
#    0.000    0.000    0.000    0.000    0.000    0.000 
#
# Total GULP energy -234303.265519 kJ/mol
# GULP energy per Si atom -5578.649179 kJ/mol
# Density = 2.266953 g / cm^3
# Si number density = 22.721248 Si / 1000 Ang^3
#
#
#
# Elastic Constant Matrix: (Units=GPa)
#
#
# Indices 1 2 3 4 5 6 
#
# 1 67.9188 17.0516 23.5189 0.0000 0.0000 0.0000
# 2 17.0516 67.9188 23.5189 0.0000 0.0000 0.0000
# 3 23.5189 23.5189 57.6640 0.0000 0.0000 0.0000
# 4 0.0000 0.0000 0.0000 41.1446 0.0000 0.0000
# 5 0.0000 0.0000 0.0000 0.0000 41.1446 0.0000
# 6 0.0000 0.0000 0.0000 0.0000 0.0000 25.4336
#
#
#
# Elastic Compliance Matrix: (Units=1/GPa)
#
#
# Indices 1 2 3 4 5 6 
#
# 1 0.017430 -0.002229 -0.006200 0.000000 0.000000 0.000000
# 2 -0.002229 0.017430 -0.006200 0.000000 0.000000 0.000000
# 3 -0.006200 -0.006200 0.022399 0.000000 0.000000 0.000000
# 4 0.000000 0.000000 0.000000 0.024305 0.000000 0.000000
# 5 0.000000 0.000000 0.000000 0.000000 0.024305 0.000000
# 6 0.000000 0.000000 0.000000 0.000000 0.000000 0.039318
#
#
# Mechanical properties :
#
#
# Convention : Reuss Voigt Hill
#
# Bulk Modulus (GPa) = 35.71229 35.74230 35.72729
# Shear Modulus (GPa) = 27.20677 30.17202 28.68940
#
# Velocity S-wave (km/s) = 3.46412 3.64802 3.55726
# Velocity P-wave (km/s) = 5.63488 5.78869 5.71231
#
# Compressibility (1/GPa) = 0.02800157
#
# Stress axis : x y z
#
# Youngs Moduli (GPa) = 57.37244 57.37244 44.64442
#
# Poissons Ratio (x) = 0.12789 0.27679
# Poissons Ratio (y) = 0.12789 0.27679
# Poissons Ratio (z) = 0.35570 0.35570
#
# Static dielectric constant tensor:
#      x y z
#    x 1.866100 0.000000 0.000000 
#    y 0.000000 1.866100 0.000000 
#    z 0.000000 0.000000 1.863680 
# 
# From -- ./inp_files/304.got.cif
#   From: 2010.05.17/outbox.cif.g08.bks.cpg/sg169_cif.got.tgz:304.got - 2010.05.20 11:12:54.
