data_PCOD9580374
_publ_section_title
;
Structure prediction by ZEFSAII (Michael W. Deem and Ramdas Pophale) SiO2 
 PCOD9580374
Probable space group: P 65
;
_chemical_formula_sum "Si O2"
_cell_formula_units_Z 36
_cell_length_a 11.741086
_cell_length_b 11.741086
_cell_length_c 13.203902
_cell_angle_alpha 90.000000
_cell_angle_beta 90.000000
_cell_angle_gamma 120.000000
_cell_volume 1576.338426
_symmetry_space_group_name_H-M "P 65"
_symmetry_group_IT_number 170
_symmetry_cell_setting 'hexagonal'
loop_
_space_group_symop_operation_xyz
x,y,z
x-y,x,5/6+z
-y,x-y,2/3+z
-x,-y,1/2+z
-x+y,-x,1/3+z
y,-x+y,1/6+z
loop_
_atom_site_type_symbol
_atom_site_label
_atom_site_fract_x
_atom_site_fract_y
_atom_site_fract_z
Si Si1 0.905036 0.486840 0.049550
Si Si2 0.295806 0.483736 0.404580
Si Si3 0.132678 0.672073 0.187952
Si Si4 0.032918 0.368363 0.890823
Si Si5 0.821360 0.905524 0.801368
Si Si6 0.097180 0.405275 0.241769
O O1 0.834338 0.406129 0.153298
O O2 0.028034 0.624149 0.093983
O O3 0.787138 0.481399 0.982329
O O4 0.974996 0.424641 0.977920
O O5 0.181637 0.389236 0.327363
O O6 0.361505 0.406690 0.454532
O O7 0.265421 0.813333 0.192054
O O8 0.162624 0.552954 0.201182
O O9 0.054269 0.661336 0.290628
O O10 0.010062 0.226884 0.926011
O O11 0.923691 0.885692 0.740398
O O12 0.685619 0.771377 0.815462
#
# Coordination Sequence:
#
# PCOD9580374 Si02
#       6
#     6   6   6   6   6   6
#     4  11  26  50  74 111 156 199 254 316 385 463
#     4  11  24  46  74 110 146 201 250 310 379 452
#     4  11  27  46  73 112 144 195 247 320 375 448
#     4  12  24  49  76 104 150 194 254 305 378 460
#     4  12  23  45  76 103 141 197 252 297 365 456
#     4  11  22  44  69 108 141 190 249 300 370 445
#
# _framework density 22.837737000000001
#
# number of rings (size 3 to 8) (size 9 to 14) (size 15 to 20)
#    0.000    0.667    6.667    1.000    0.000    4.000 
#    9.000    0.000    0.000    0.000    0.000    0.000 
#    0.000    0.000    0.000    0.000    0.000    0.000 
#
# Total GULP energy -200763.058604 kJ/mol
# GULP energy per Si atom -5576.751628 kJ/mol
# Density = 2.278576 g / cm^3
# Si number density = 22.837737 Si / 1000 Ang^3
#
#
#
# Elastic Constant Matrix: (Units=GPa)
#
#
# Indices 1 2 3 4 5 6 
#
# 1 87.6034 24.8466 19.1166 0.0000 0.0000 0.0000
# 2 24.8466 87.6034 19.1166 0.0000 0.0000 0.0000
# 3 19.1166 19.1166 87.6597 0.0000 0.0000 0.0000
# 4 0.0000 0.0000 0.0000 33.9900 0.0000 0.0000
# 5 0.0000 0.0000 0.0000 0.0000 33.9900 0.0000
# 6 0.0000 0.0000 0.0000 0.0000 0.0000 31.3784
#
#
#
# Elastic Compliance Matrix: (Units=1/GPa)
#
#
# Indices 1 2 3 4 5 6 
#
# 1 0.012770 -0.003165 -0.002095 0.000000 0.000000 0.000000
# 2 -0.003165 0.012770 -0.002095 0.000000 0.000000 0.000000
# 3 -0.002095 -0.002095 0.012321 0.000000 0.000000 0.000000
# 4 0.000000 0.000000 0.000000 0.029420 0.000000 0.000000
# 5 0.000000 0.000000 0.000000 0.000000 0.029420 0.000000
# 6 0.000000 0.000000 0.000000 0.000000 0.000000 0.031869
#
#
# Mechanical properties :
#
#
# Convention : Reuss Voigt Hill
#
# Bulk Modulus (GPa) = 43.19126 43.22511 43.20819
# Shear Modulus (GPa) = 33.11338 33.19081 33.15210
#
# Velocity S-wave (km/s) = 3.81194 3.81639 3.81417
# Velocity P-wave (km/s) = 6.19095 6.19580 6.19337
#
# Compressibility (1/GPa) = 0.02315283
#
# Stress axis : x y z
#
# Youngs Moduli (GPa) = 78.30991 78.30991 81.16003
#
# Poissons Ratio (x) = 0.24783 0.17000
# Poissons Ratio (y) = 0.24783 0.17000
# Poissons Ratio (z) = 0.16403 0.16403
#
# Static dielectric constant tensor:
#      x y z
#    x 1.888790 0.000000 0.000000 
#    y 0.000000 1.888790 0.000000 
#    z 0.000000 0.000000 1.900610 
# 
# From -- ./inp_files/1194.got.cif
#   From: 2010.05.17/outbox.cif.g08.bks.cpg/sg170_cif.got.tgz:1194.got - 2010.05.20 11:14:30.
