data_PCOD9580159
_publ_section_title
;
Structure prediction by ZEFSAII (Michael W. Deem and Ramdas Pophale) SiO2 
 PCOD9580159
Probable space group: P 65
;
_chemical_formula_sum "Si O2"
_cell_formula_units_Z 42
_cell_length_a 11.750033
_cell_length_b 11.750033
_cell_length_c 16.053414
_cell_angle_alpha 90.000000
_cell_angle_beta 90.000000
_cell_angle_gamma 120.000000
_cell_volume 1919.447377
_symmetry_space_group_name_H-M "P 65"
_symmetry_group_IT_number 170
_symmetry_cell_setting 'hexagonal'
loop_
_space_group_symop_operation_xyz
x,y,z
x-y,x,5/6+z
-y,x-y,2/3+z
-x,-y,1/2+z
-x+y,-x,1/3+z
y,-x+y,1/6+z
loop_
_atom_site_type_symbol
_atom_site_label
_atom_site_fract_x
_atom_site_fract_y
_atom_site_fract_z
Si Si1 0.052568 0.448882 0.517160
Si Si2 0.218776 0.641275 0.370857
Si Si3 0.519691 0.751282 0.325582
Si Si4 0.968394 0.341321 0.753146
Si Si5 0.108316 0.119847 0.310075
Si Si6 0.681696 0.069613 0.904007
Si Si7 0.073512 0.264874 0.902703
O O1 0.131343 0.523334 0.433914
O O2 0.155653 0.430671 0.571755
O O3 0.908197 0.324321 0.501970
O O4 0.014798 0.540140 0.574797
O O5 0.362185 0.679396 0.336478
O O6 0.255923 0.775812 0.423431
O O7 0.127274 0.611320 0.288532
O O8 0.562416 0.675424 0.390924
O O9 0.978159 0.262925 0.832540
O O10 0.893229 0.215803 0.693473
O O11 0.995505 0.107466 0.244989
O O12 0.248393 0.244754 0.283504
O O13 0.117701 0.993360 0.279519
O O14 0.711438 0.076164 0.805052
#
# Coordination Sequence:
#
# PCOD9580159 Si02
#       7
#     6   6   6   6   6   6   6
#     4  11  23  44  64 100 138 175 230 286 356 424
#     4  10  21  37  67  92 131 172 216 288 348 417
#     4  11  27  40  68 103 135 187 229 291 350 435
#     4  11  20  37  59  95 125 171 225 277 338 414
#     4  10  16  28  51  89 122 167 221 278 340 403
#     4   9  17  33  60  95 120 165 213 280 334 406
#     4  10  16  29  59  88 121 161 214 278 328 391
#
# _framework density 21.881298000000001
#
# number of rings (size 3 to 8) (size 9 to 14) (size 15 to 20)
#    0.000    1.714    5.714    1.714    2.000    2.286 
#    0.000    0.000    3.143    0.000    0.000    0.000 
#    0.000    0.000    0.000    0.000    0.000    0.000 
#
# Total GULP energy -233818.065674 kJ/mol
# GULP energy per Si atom -5567.096802 kJ/mol
# Density = 2.183150 g / cm^3
# Si number density = 21.881298 Si / 1000 Ang^3
#
#
#
# Elastic Constant Matrix: (Units=GPa)
#
#
# Indices 1 2 3 4 5 6 
#
# 1 93.3268 44.2362 29.7822 0.0000 0.0000 0.0000
# 2 44.2362 93.3268 29.7822 0.0000 0.0000 0.0000
# 3 29.7822 29.7822 27.4908 0.0000 0.0000 0.0000
# 4 0.0000 0.0000 0.0000 25.2913 0.0000 0.0000
# 5 0.0000 0.0000 0.0000 0.0000 25.2913 0.0000
# 6 0.0000 0.0000 0.0000 0.0000 0.0000 24.5453
#
#
#
# Elastic Compliance Matrix: (Units=1/GPa)
#
#
# Indices 1 2 3 4 5 6 
#
# 1 0.017031 -0.003339 -0.014834 0.000000 0.000000 0.000000
# 2 -0.003339 0.017031 -0.014834 0.000000 0.000000 0.000000
# 3 -0.014834 -0.014834 0.068516 0.000000 0.000000 0.000000
# 4 0.000000 0.000000 0.000000 0.039539 0.000000 0.000000
# 5 0.000000 0.000000 0.000000 0.000000 0.039539 0.000000
# 6 0.000000 0.000000 0.000000 0.000000 0.000000 0.040741
#
#
# Mechanical properties :
#
#
# Convention : Reuss Voigt Hill
#
# Bulk Modulus (GPa) = 27.34776 46.86059 37.10417
# Shear Modulus (GPa) = 16.63345 22.38182 19.50764
#
# Velocity S-wave (km/s) = 2.76010 3.20171 2.98907
# Velocity P-wave (km/s) = 4.76266 5.92708 5.37648
#
# Compressibility (1/GPa) = 0.03656607
#
# Stress axis : x y z
#
# Youngs Moduli (GPa) = 58.71515 58.71515 14.59521
#
# Poissons Ratio (x) = 0.19606 0.21650
# Poissons Ratio (y) = 0.19606 0.21650
# Poissons Ratio (z) = 0.87095 0.87095
#
# Static dielectric constant tensor:
#      x y z
#    x 1.896440 0.000000 0.000000 
#    y 0.000000 1.896440 0.000000 
#    z 0.000000 0.000000 1.916780 
# 
# From -- ./inp_files/1441.got.cif
#   From: 2010.05.17/outbox.cif.g08.bks.cpg/sg170_cif.got.tgz:1441.got - 2010.05.20 11:14:30.
