data_PCOD9580644
_publ_section_title
;
Structure prediction by ZEFSAII (Michael W. Deem and Ramdas Pophale) SiO2 
 PCOD9580644
Probable space group: P 62
;
_chemical_formula_sum "Si O2"
_cell_formula_units_Z 36
_cell_length_a 12.969462
_cell_length_b 12.969462
_cell_length_c 13.661974
_cell_angle_alpha 90.000000
_cell_angle_beta 90.000000
_cell_angle_gamma 120.000000
_cell_volume 1990.160069
_symmetry_space_group_name_H-M "P 62"
_symmetry_group_IT_number 171
_symmetry_cell_setting 'hexagonal'
loop_
_space_group_symop_operation_xyz
x,y,z
x-y,x,1/3+z
-y,x-y,2/3+z
-x,-y,z
-x+y,-x,1/3+z
y,-x+y,2/3+z
loop_
_atom_site_type_symbol
_atom_site_label
_atom_site_fract_x
_atom_site_fract_y
_atom_site_fract_z
Si Si1 0.816877 0.923539 0.293430
Si Si2 0.632518 0.426321 0.319272
Si Si3 0.298056 0.921678 0.236754
Si Si4 0.000000 0.000000 0.465404
Si Si5 0.577349 0.249922 0.503445
Si Si6 0.500000 0.000000 0.397676
Si Si7 0.344430 0.976812 0.012258
O O1 0.711087 0.792248 0.315662
O O2 0.785363 0.022962 0.259370
O O3 0.894429 0.916623 0.204892
O O4 0.891131 0.965269 0.393110
O O5 0.619107 0.350844 0.418095
O O6 0.703168 0.392078 0.242738
O O7 0.494684 0.384419 0.295657
O O8 0.685273 0.568590 0.324929
O O9 0.244158 0.780174 0.225492
O O10 0.392007 0.970180 0.324339
O O11 0.354489 0.968914 0.129728
O O12 0.536337 0.119827 0.458884
#
# Coordination Sequence:
#
# PCOD9580644 Si02
#       7
#     6   6   6   3   6   3   6
#     4  11  22  41  62  93 124 169 214 269 323 394
#     4  10  22  41  62  92 129 160 217 259 331 387
#     4  11  21  40  67  92 123 171 220 270 317 399
#     4  10  24  40  60  90 128 162 216 266 322 382
#     4  11  23  42  64  97 130 171 212 284 326 400
#     4  12  24  38  68  96 130 164 226 266 330 390
#     4  10  22  39  68  93 121 172 218 261 327 397
#
# _framework density 18.088998
#
# number of rings (size 3 to 8) (size 9 to 14) (size 15 to 20)
#    0.000    1.333    3.333    4.000    2.333    1.333 
#    3.000    1.667    0.000    0.000    0.000    0.000 
#    0.000    0.000    0.000    0.000    0.000    0.000 
#
# Total GULP energy -200644.773282 kJ/mol
# GULP energy per Si atom -5573.465925 kJ/mol
# Density = 1.804783 g / cm^3
# Si number density = 18.088998 Si / 1000 Ang^3
#
#
#
# Elastic Constant Matrix: (Units=GPa)
#
#
# Indices 1 2 3 4 5 6 
#
# 1 92.9626 41.2480 49.8715 0.0000 0.0000 0.0000
# 2 41.2480 92.9626 49.8715 0.0000 0.0000 0.0000
# 3 49.8715 49.8715 95.0083 0.0000 0.0000 0.0000
# 4 0.0000 0.0000 0.0000 35.9046 0.0000 0.0000
# 5 0.0000 0.0000 0.0000 0.0000 35.9046 0.0000
# 6 0.0000 0.0000 0.0000 0.0000 0.0000 25.8573
#
#
#
# Elastic Compliance Matrix: (Units=1/GPa)
#
#
# Indices 1 2 3 4 5 6 
#
# 1 0.015777 -0.003560 -0.006413 0.000000 0.000000 0.000000
# 2 -0.003560 0.015777 -0.006413 0.000000 0.000000 0.000000
# 3 -0.006413 -0.006413 0.017258 0.000000 0.000000 0.000000
# 4 0.000000 0.000000 0.000000 0.027852 0.000000 0.000000
# 5 0.000000 0.000000 0.000000 0.000000 0.027852 0.000000
# 6 0.000000 0.000000 0.000000 0.000000 0.000000 0.038674
#
#
# Mechanical properties :
#
#
# Convention : Reuss Voigt Hill
#
# Bulk Modulus (GPa) = 62.34336 62.54615 62.44475
# Shear Modulus (GPa) = 27.57759 28.86282 28.22020
#
# Velocity S-wave (km/s) = 3.90878 3.99883 3.95406
# Velocity P-wave (km/s) = 7.41020 7.48150 7.44594
#
# Compressibility (1/GPa) = 0.01604020
#
# Stress axis : x y z
#
# Youngs Moduli (GPa) = 63.38383 63.38383 57.94475
#
# Poissons Ratio (x) = 0.22565 0.37159
# Poissons Ratio (y) = 0.22565 0.37159
# Poissons Ratio (z) = 0.40647 0.40647
#
# Static dielectric constant tensor:
#      x y z
#    x 1.665540 0.000000 0.000000 
#    y 0.000000 1.665540 0.000000 
#    z 0.000000 0.000000 1.604070 
# 
# From -- ./inp_files/1953.got.cif
#   From: 2010.05.17/outbox.cif.g08.bks.cpg/sg171_1_cif.got.tgz:1953.got - 2010.05.20 11:16:09.
