data_PCOD9580656
_publ_section_title
;
Structure prediction by ZEFSAII (Michael W. Deem and Ramdas Pophale) SiO2 
 PCOD9580656
Probable space group: P 62
;
_chemical_formula_sum "Si O2"
_cell_formula_units_Z 36
_cell_length_a 8.532872
_cell_length_b 8.532872
_cell_length_c 28.208439
_cell_angle_alpha 90.000000
_cell_angle_beta 90.000000
_cell_angle_gamma 120.000000
_cell_volume 1778.689525
_symmetry_space_group_name_H-M "P 62"
_symmetry_group_IT_number 171
_symmetry_cell_setting 'hexagonal'
loop_
_space_group_symop_operation_xyz
x,y,z
x-y,x,1/3+z
-y,x-y,2/3+z
-x,-y,z
-x+y,-x,1/3+z
y,-x+y,2/3+z
loop_
_atom_site_type_symbol
_atom_site_label
_atom_site_fract_x
_atom_site_fract_y
_atom_site_fract_z
Si Si1 0.196762 0.521492 0.299090
Si Si2 0.500114 0.691275 0.473136
Si Si3 0.826316 0.010163 0.210506
Si Si4 0.176082 0.136020 0.311265
Si Si5 0.481373 0.803802 0.367670
Si Si6 0.350385 0.793612 0.875098
O O1 0.180162 0.323027 0.298640
O O2 0.295946 0.639549 0.345944
O O3 0.325643 0.630271 0.254754
O O4 0.000000 0.500000 0.294001
O O5 0.500000 0.500000 0.468392
O O6 0.651253 0.809607 0.512870
O O7 0.517974 0.773651 0.421692
O O8 0.314104 0.661770 0.495465
O O9 0.840894 0.998590 0.267662
O O10 0.631351 0.834532 0.204927
O O11 0.000000 0.000000 0.192720
O O12 0.361498 0.196044 0.336951
O O13 0.000000 0.000000 0.341621
O O14 0.500000 0.000000 0.362143
O O15 0.500000 0.000000 0.877154
#
# Coordination Sequence:
#
# PCOD9580656 Si02
#       6
#     6   6   6   6   6   6
#     4  12  25  42  71 102 138 179 236 294 340 413
#     4  10  25  43  66  95 140 186 224 287 342 410
#     4  10  22  40  68  99 132 177 229 281 343 407
#     4  11  23  43  70 102 133 181 232 284 345 407
#     4  12  26  45  69 101 144 184 233 281 352 412
#     4  11  22  41  66  99 133 179 226 286 341 404
#
# _framework density 20.239619000000001
#
# number of rings (size 3 to 8) (size 9 to 14) (size 15 to 20)
#    0.000    1.000    3.333    2.500    7.000    3.333 
#    0.000    3.333    0.000    0.000    0.000    0.000 
#    0.000    0.000    0.000    0.000    0.000    0.000 
#
# Total GULP energy -200734.848205 kJ/mol
# GULP energy per Si atom -5575.968006 kJ/mol
# Density = 2.019355 g / cm^3
# Si number density = 20.239619 Si / 1000 Ang^3
#
#
#
# Elastic Constant Matrix: (Units=GPa)
#
#
# Indices 1 2 3 4 5 6 
#
# 1 106.0925 47.5118 47.2916 0.0000 0.0000 0.0000
# 2 47.5118 106.0925 47.2916 0.0000 0.0000 0.0000
# 3 47.2916 47.2916 104.3410 0.0000 0.0000 0.0000
# 4 0.0000 0.0000 0.0000 24.8192 0.0000 0.0000
# 5 0.0000 0.0000 0.0000 0.0000 24.8192 0.0000
# 6 0.0000 0.0000 0.0000 0.0000 0.0000 29.2904
#
#
#
# Elastic Compliance Matrix: (Units=1/GPa)
#
#
# Indices 1 2 3 4 5 6 
#
# 1 0.013051 -0.004020 -0.004093 0.000000 0.000000 0.000000
# 2 -0.004020 0.013051 -0.004093 0.000000 0.000000 0.000000
# 3 -0.004093 -0.004093 0.013294 0.000000 0.000000 0.000000
# 4 0.000000 0.000000 0.000000 0.040291 0.000000 0.000000
# 5 0.000000 0.000000 0.000000 0.000000 0.040291 0.000000
# 6 0.000000 0.000000 0.000000 0.000000 0.000000 0.034141
#
#
# Mechanical properties :
#
#
# Convention : Reuss Voigt Hill
#
# Bulk Modulus (GPa) = 66.74126 66.74625 66.74376
# Shear Modulus (GPa) = 27.24418 27.41447 27.32932
#
# Velocity S-wave (km/s) = 3.67288 3.68434 3.67861
# Velocity P-wave (km/s) = 7.14380 7.15184 7.14782
#
# Compressibility (1/GPa) = 0.01498324
#
# Stress axis : x y z
#
# Youngs Moduli (GPa) = 76.62541 76.62541 75.22073
#
# Poissons Ratio (x) = 0.30803 0.30788
# Poissons Ratio (y) = 0.30803 0.30788
# Poissons Ratio (z) = 0.31363 0.31363
#
# Static dielectric constant tensor:
#      x y z
#    x 1.723080 0.000000 0.000000 
#    y 0.000000 1.723080 0.000000 
#    z 0.000000 0.000000 1.724280 
# 
# From -- ./inp_files/5772.got.cif
#   From: 2010.05.17/outbox.cif.g08.bks.cpg/sg171_3_cif.got.tgz:5772.got - 2010.05.20 11:16:09.
