data_PCOD9580522
_publ_section_title
;
Structure prediction by ZEFSAII (Michael W. Deem and Ramdas Pophale) SiO2 
 PCOD9580522
Probable space group: P 62
;
_chemical_formula_sum "Si O2"
_cell_formula_units_Z 33
_cell_length_a 19.440733
_cell_length_b 19.440733
_cell_length_c 5.394394
_cell_angle_alpha 90.000000
_cell_angle_beta 90.000000
_cell_angle_gamma 120.000000
_cell_volume 1765.625395
_symmetry_space_group_name_H-M "P 62"
_symmetry_group_IT_number 171
_symmetry_cell_setting 'hexagonal'
loop_
_space_group_symop_operation_xyz
x,y,z
x-y,x,1/3+z
-y,x-y,2/3+z
-x,-y,z
-x+y,-x,1/3+z
y,-x+y,2/3+z
loop_
_atom_site_type_symbol
_atom_site_label
_atom_site_fract_x
_atom_site_fract_y
_atom_site_fract_z
Si Si1 0.500000 0.000000 0.338771
Si Si2 0.155945 0.714723 0.749158
Si Si3 0.437333 0.861206 0.716743
Si Si4 0.400263 0.287453 0.039158
Si Si5 0.339607 0.977384 0.193460
Si Si6 0.732219 0.324304 0.022592
O O1 0.510869 0.071309 0.513794
O O2 0.578895 0.027398 0.183040
O O3 0.137963 0.638297 0.578929
O O4 0.210920 0.802447 0.640349
O O5 0.214812 0.714692 0.960526
O O6 0.070957 0.699770 0.835656
O O7 0.363281 0.875223 0.755760
O O8 0.394869 0.775961 0.585538
O O9 0.363334 0.305801 0.797677
O O10 0.355668 0.284262 0.295474
O O11 0.732976 0.377817 0.794231
#
# Coordination Sequence:
#
# PCOD9580522 Si02
#       6
#     3   6   6   6   6   6
#     4  10  20  38  58  78 114 142 198 248 296 350
#     4  12  24  40  62  79 116 158 197 252 310 355
#     4  11  22  38  56  81 109 154 197 251 300 346
#     4  11  26  39  62  86 118 149 203 253 289 358
#     4  11  24  41  58  88 111 153 198 243 303 353
#     4  12  24  37  51  80 110 150 205 252 306 352
#
# _framework density 18.690259999999999
#
# number of rings (size 3 to 8) (size 9 to 14) (size 15 to 20)
#    0.000    0.727    1.818    7.636   10.182    0.727 
#    0.000    0.000    0.000    0.000    0.000    0.000 
#    0.000    0.000    0.000    8.182    0.000    0.364 
#
# Total GULP energy -184251.732469 kJ/mol
# GULP energy per Si atom -5583.385832 kJ/mol
# Density = 1.864772 g / cm^3
# Si number density = 18.690260 Si / 1000 Ang^3
#
#
#
# Elastic Constant Matrix: (Units=GPa)
#
#
# Indices 1 2 3 4 5 6 
#
# 1 76.8620 31.5865 36.8765 0.0000 0.0000 0.0000
# 2 31.5865 76.8620 36.8765 0.0000 0.0000 0.0000
# 3 36.8765 36.8765 95.8689 0.0000 0.0000 0.0000
# 4 0.0000 0.0000 0.0000 24.9651 0.0000 0.0000
# 5 0.0000 0.0000 0.0000 0.0000 24.9651 0.0000
# 6 0.0000 0.0000 0.0000 0.0000 0.0000 22.6378
#
#
#
# Elastic Compliance Matrix: (Units=1/GPa)
#
#
# Indices 1 2 3 4 5 6 
#
# 1 0.017287 -0.004800 -0.004803 0.000000 0.000000 0.000000
# 2 -0.004800 0.017287 -0.004803 0.000000 0.000000 0.000000
# 3 -0.004803 -0.004803 0.014126 0.000000 0.000000 0.000000
# 4 0.000000 0.000000 0.000000 0.040056 0.000000 0.000000
# 5 0.000000 0.000000 0.000000 0.000000 0.040056 0.000000
# 6 0.000000 0.000000 0.000000 0.000000 0.000000 0.044174
#
#
# Mechanical properties :
#
#
# Convention : Reuss Voigt Hill
#
# Bulk Modulus (GPa) = 50.28212 51.14135 50.71173
# Shear Modulus (GPa) = 23.98898 24.13050 24.05974
#
# Velocity S-wave (km/s) = 3.58649 3.59705 3.59177
# Velocity P-wave (km/s) = 6.64167 6.68384 6.66279
#
# Compressibility (1/GPa) = 0.01988778
#
# Stress axis : x y z
#
# Youngs Moduli (GPa) = 57.84585 57.84585 70.79010
#
# Poissons Ratio (x) = 0.27764 0.34004
# Poissons Ratio (y) = 0.27764 0.34004
# Poissons Ratio (z) = 0.27786 0.27786
#
# Static dielectric constant tensor:
#      x y z
#    x 1.704040 0.000000 0.000000 
#    y 0.000000 1.704040 0.000000 
#    z 0.000000 0.000000 1.739550 
# 
# From -- ./inp_files/408.got.cif
#   From: 2010.05.17/outbox.cif.g08.bks.cpg/sg171_1_cif.got.tgz:408.got - 2010.05.20 11:16:09.
